data_PCOD9284449
_publ_section_title
;
Structure prediction by ZEFSAII (Michael W. Deem and Ramdas Pophale) SiO2 
 PCOD9284449
Probable space group: C 2/C
;
_chemical_formula_sum "Si O2"
_cell_formula_units_Z 56
_cell_length_a 9.624360
_cell_length_b 23.616954
_cell_length_c 12.863521
_cell_angle_alpha 90.000000
_cell_angle_beta 73.415108
_cell_angle_gamma 90.000000
_cell_volume 2802.214939
_symmetry_space_group_name_H-M "C 2/C"
_symmetry_group_IT_number 15
_symmetry_cell_setting 'monoclinic'
loop_
_space_group_symop_operation_xyz
x,y,z
-x,y,1/2-z
-x,-y,-z
x,-y,1/2+z
1/2+x,1/2+y,z
1/2-x,1/2+y,1/2-z
1/2-x,1/2-y,-z
1/2+x,1/2-y,1/2+z
loop_
_atom_site_type_symbol
_atom_site_label
_atom_site_fract_x
_atom_site_fract_y
_atom_site_fract_z
Si Si1 0.330234 0.585527 0.257809
Si Si2 0.876713 0.047560 0.019756
Si Si3 0.101428 0.146018 0.638617
Si Si4 0.638157 0.690322 0.918823
Si Si5 0.357374 0.706947 0.340009
Si Si6 0.658993 0.880929 0.261512
Si Si7 0.854404 0.507146 0.596740
O O1 0.500000 0.573017 0.250000
O O2 0.316782 0.564221 0.143815
O O3 0.309667 0.651616 0.285945
O O4 0.210953 0.550690 0.345850
O O5 0.917748 0.106134 0.956245
O O6 0.758562 0.025709 0.965830
O O7 0.000000 0.000000 0.000000
O O8 0.259904 0.150703 0.656985
O O9 0.000000 0.119003 0.750000
O O10 0.008107 0.198852 0.618127
O O11 0.740514 0.743798 0.873575
O O12 0.730183 0.636112 0.855360
O O13 0.610974 0.687754 0.047861
O O14 0.500000 0.728328 0.250000
O O15 0.500000 0.866179 0.250000
O O16 0.645432 0.944811 0.311840
O O17 0.000000 0.500000 0.500000
#
# Coordination Sequence:
#
# PCOD9284449 Si02
#       7
#     8   8   8   8   8   8   8
#     4  11  23  39  65  96 133 180 219 269 326 403
#     4  11  23  37  64  92 130 175 219 265 322 394
#     4   9  20  37  62  94 124 159 224 266 315 383
#     4  10  21  40  72  95 129 171 220 280 323 397
#     4  10  22  40  64 104 135 171 223 270 334 397
#     4  10  23  39  67  93 125 174 222 269 324 399
#     4  11  27  40  62  99 137 169 222 276 334 391
#
# _framework density 19.984192
#
# number of rings (size 3 to 8) (size 9 to 14) (size 15 to 20)
#    0.000    1.714    1.429    2.143   10.000    0.000 
#    0.000    0.000    9.429   25.714    0.000    0.000 
#    0.000    0.000    0.000    0.000    0.000    0.000 
#
# Total GULP energy -155913.724064 kJ/mol
# GULP energy per Si atom -5568.347288 kJ/mol
# Density = 1.993871 g / cm^3
# Si number density = 19.984192 Si / 1000 Ang^3
#
#
#
# Elastic Constant Matrix: (Units=GPa)
#
#
# Indices 1 2 3 4 5 6 
#
# 1 121.8468 31.0859 17.3723 0.0000 4.4933 0.0000
# 2 31.0859 65.5153 31.6873 0.0000 -0.4801 0.0000
# 3 17.3723 31.6873 92.5633 0.0000 -8.3707 0.0000
# 4 0.0000 0.0000 0.0000 -10.5537 0.0000 -65.6743
# 5 4.4933 -0.4801 -8.3707 0.0000 27.4276 0.0000
# 6 0.0000 0.0000 0.0000 -65.6743 0.0000 -77.5970
#
#
#
# Elastic Compliance Matrix: (Units=1/GPa)
#
#
# Indices 1 2 3 4 5 6 
#
# 1 0.009425 -0.004257 -0.000471 0.000000 -0.001762 0.000000
# 2 -0.004257 0.020287 -0.006222 0.000000 -0.000846 0.000000
# 3 -0.000471 -0.006222 0.013389 0.000000 0.004054 0.000000
# 4 0.000000 0.000000 0.000000 0.022207 0.000000 -0.018795
# 5 -0.001762 -0.000846 0.004054 0.000000 0.037971 0.000000
# 6 0.000000 0.000000 0.000000 -0.018795 0.000000 0.003020
#
#
# Mechanical properties :
#
#
# Convention : Reuss Voigt Hill
#
# Bulk Modulus (GPa) = 47.17064 48.91290 48.04177
# Shear Modulus (GPa) = 36.96386 1.17404 19.06895
#
# Velocity S-wave (km/s) = 4.30543 0.76731 3.09237
# Velocity P-wave (km/s) = 6.95491 5.03130 6.06979
#
# Compressibility (1/GPa) = 0.02119963
#
# Stress axis : x y z
#
# Youngs Moduli (GPa) = 106.09750 49.29274 74.69063
#
# Poissons Ratio (x) = 0.20985 0.03517
# Poissons Ratio (y) = 0.45169 0.46475
# Poissons Ratio (z) = 0.04996 0.30672
#
# Static dielectric constant tensor:
#      x y z
#    x 1.805080 0.000000 -0.076870 
#    y 0.000000 1.898280 0.000000 
#    z -0.076870 0.000000 1.765150 
# 
# From -- ./inp_files/81277.got.cif
#   From: 2010.05.17/outbox.cif.g08.bks.cpg/sg15_41_cif.got.tgz:81277.got - 2010.06.03 18:47:42.
