data_PCOD9284057
_publ_section_title
;
Structure prediction by ZEFSAII (Michael W. Deem and Ramdas Pophale) SiO2 
 PCOD9284057
Probable space group: C 2/C
;
_chemical_formula_sum "Si O2"
_cell_formula_units_Z 48
_cell_length_a 29.640719
_cell_length_b 7.463781
_cell_length_c 9.024825
_cell_angle_alpha 90.000000
_cell_angle_beta 83.210430
_cell_angle_gamma 90.000000
_cell_volume 1982.576683
_symmetry_space_group_name_H-M "C 2/C"
_symmetry_group_IT_number 15
_symmetry_cell_setting 'monoclinic'
loop_
_space_group_symop_operation_xyz
x,y,z
-x,y,1/2-z
-x,-y,-z
x,-y,1/2+z
1/2+x,1/2+y,z
1/2-x,1/2+y,1/2-z
1/2-x,1/2-y,-z
1/2+x,1/2-y,1/2+z
loop_
_atom_site_type_symbol
_atom_site_label
_atom_site_fract_x
_atom_site_fract_y
_atom_site_fract_z
Si Si1 0.023665 0.216973 0.891653
Si Si2 0.041188 0.601339 0.848819
Si Si3 0.594298 0.588769 0.403981
Si Si4 0.733926 0.525642 0.459587
Si Si5 0.351829 0.671086 0.827919
Si Si6 0.288940 0.855533 0.668163
O O1 0.055116 0.394307 0.857343
O O2 0.052917 0.053753 0.943693
O O3 0.000000 0.154368 0.750000
O O4 0.983059 0.308642 0.999551
O O5 0.000000 0.603276 0.750000
O O6 0.079805 0.745758 0.804314
O O7 0.611854 0.669435 0.552625
O O8 0.631025 0.473527 0.299063
O O9 0.693999 0.608681 0.571545
O O10 0.716975 0.331843 0.413286
O O11 0.778195 0.501646 0.547652
O O12 0.749077 0.623853 0.304859
O O13 0.335968 0.844900 0.740151
#
# Coordination Sequence:
#
# PCOD9284057 Si02
#       6
#     8   8   8   8   8   8
#     4  10  21  40  66  94 125 175 231 261 314 413
#     4  10  21  40  66  93 125 176 227 267 315 402
#     4  12  23  40  64  95 143 171 208 286 353 386
#     4  11  23  44  72  93 127 179 230 281 330 405
#     4  12  24  42  63 100 136 169 221 283 346 405
#     4  11  23  44  69  95 125 174 230 278 332 409
#
# _framework density 24.210917999999999
#
# number of rings (size 3 to 8) (size 9 to 14) (size 15 to 20)
#    0.000    1.000    3.333    3.500    0.000    0.000 
#    3.000    0.000    0.000    0.000    0.000    0.000 
#    0.000    0.000    0.000    0.000    0.000    0.000 
#
# Total GULP energy -134081.382702 kJ/mol
# GULP energy per Si atom -5586.724279 kJ/mol
# Density = 2.415581 g / cm^3
# Si number density = 24.210918 Si / 1000 Ang^3
#
#
#
# Elastic Constant Matrix: (Units=GPa)
#
#
# Indices 1 2 3 4 5 6 
#
# 1 79.2769 28.7855 18.5581 0.0000 25.1724 0.0000
# 2 28.7855 94.6512 -1.0154 0.0000 26.2974 0.0000
# 3 18.5581 -1.0154 89.9225 0.0000 22.4042 0.0000
# 4 0.0000 0.0000 0.0000 28.9640 0.0000 -0.9776
# 5 25.1724 26.2974 22.4042 0.0000 47.2487 0.0000
# 6 0.0000 0.0000 0.0000 -0.9776 0.0000 29.5478
#
#
#
# Elastic Compliance Matrix: (Units=1/GPa)
#
#
# Indices 1 2 3 4 5 6 
#
# 1 0.016114 -0.003297 -0.001906 0.000000 -0.005846 0.000000
# 2 -0.003297 0.013541 0.002578 0.000000 -0.007003 0.000000
# 3 -0.001906 0.002578 0.013208 0.000000 -0.006682 0.000000
# 4 0.000000 0.000000 0.000000 0.034564 0.000000 0.001144
# 5 -0.005846 -0.007003 -0.006682 0.000000 0.031345 0.000000
# 6 0.000000 0.000000 0.000000 0.001144 0.000000 0.033881
#
#
# Mechanical properties :
#
#
# Convention : Reuss Voigt Hill
#
# Bulk Modulus (GPa) = 26.58681 39.61189 33.09935
# Shear Modulus (GPa) = 31.16417 35.65358 33.40888
#
# Velocity S-wave (km/s) = 3.59164 3.84164 3.71874
# Velocity P-wave (km/s) = 5.31084 6.00619 5.66919
#
# Compressibility (1/GPa) = 0.03761264
#
# Stress axis : x y z
#
# Youngs Moduli (GPa) = 62.05964 73.85023 75.71128
#
# Poissons Ratio (x) = 0.24346 0.14432
# Poissons Ratio (y) = 0.20459 -0.19518
# Poissons Ratio (z) = 0.11830 -0.19038
#
# Static dielectric constant tensor:
#      x y z
#    x 2.043570 0.000000 -0.033720 
#    y 0.000000 1.970170 0.000000 
#    z -0.033720 0.000000 2.027760 
# 
# From -- ./inp_files/68603.got.cif
#   From: 2010.05.17/outbox.cif.g08.bks.cpg/sg15_35_cif.got.tgz:68603.got - 2010.06.03 18:47:42.
