data_PCOD9284486
_publ_section_title
;
Structure prediction by ZEFSAII (Michael W. Deem and Ramdas Pophale) SiO2 
 PCOD9284486
Probable space group: C 2/C
;
_chemical_formula_sum "Si O2"
_cell_formula_units_Z 60
_cell_length_a 7.870939
_cell_length_b 32.343076
_cell_length_c 11.559919
_cell_angle_alpha 90.000000
_cell_angle_beta 111.679977
_cell_angle_gamma 90.000000
_cell_volume 2734.643453
_symmetry_space_group_name_H-M "C 2/C"
_symmetry_group_IT_number 15
_symmetry_cell_setting 'monoclinic'
loop_
_space_group_symop_operation_xyz
x,y,z
-x,y,1/2-z
-x,-y,-z
x,-y,1/2+z
1/2+x,1/2+y,z
1/2-x,1/2+y,1/2-z
1/2-x,1/2-y,-z
1/2+x,1/2-y,1/2+z
loop_
_atom_site_type_symbol
_atom_site_label
_atom_site_fract_x
_atom_site_fract_y
_atom_site_fract_z
Si Si1 0.747795 0.615691 0.963472
Si Si2 0.282326 0.015347 0.195657
Si Si3 0.387900 0.163158 0.369667
Si Si4 0.000000 0.261657 0.750000
Si Si5 0.762888 0.691399 0.806584
Si Si6 0.206247 0.518494 0.557786
Si Si7 0.801451 0.295715 0.055983
Si Si8 0.134566 0.893211 0.673769
O O1 0.705981 0.648637 0.852240
O O2 0.784751 0.568340 0.937454
O O3 0.596399 0.614465 0.027952
O O4 0.942502 0.633739 0.058546
O O5 0.500000 0.007324 0.250000
O O6 0.245121 0.063879 0.199043
O O7 0.212433 0.995852 0.298455
O O8 0.213962 0.004152 0.048023
O O9 0.450301 0.207926 0.341854
O O10 0.257255 0.170977 0.446454
O O11 0.268771 0.143714 0.240101
O O12 0.160080 0.231183 0.829893
O O13 0.720629 0.693357 0.659631
O O14 0.979023 0.698963 0.876351
O O15 0.000000 0.500000 0.500000
O O16 0.750000 0.250000 0.000000
O O17 0.000000 0.896629 0.750000
#
# Coordination Sequence:
#
# PCOD9284486 Si02
#       8
#     8   8   8   4   8   8   8   8
#     4  10  21  41  61  85 126 155 204 257 306 368
#     4   9  18  36  60  88 121 154 201 249 306 374
#     4  11  21  38  59  85 114 159 206 255 302 356
#     4  12  22  38  62  88 118 168 214 254 312 372
#     4  10  24  40  60  89 122 165 208 257 317 370
#     4   9  17  34  62  91 115 155 198 254 298 373
#     4  10  21  41  58  84 122 157 203 263 306 365
#     4  11  22  37  60  90 118 159 203 254 311 371
#
# _framework density 21.940702999999999
#
# number of rings (size 3 to 8) (size 9 to 14) (size 15 to 20)
#    0.000    1.867    2.667    2.400    0.000    4.267 
#   16.800    2.667    1.467    0.000    0.000    0.000 
#    0.000    0.000    0.000    0.000    0.000    0.000 
#
# Total GULP energy -167232.116392 kJ/mol
# GULP energy per Si atom -5574.403880 kJ/mol
# Density = 2.189076 g / cm^3
# Si number density = 21.940703 Si / 1000 Ang^3
#
#
#
# Elastic Constant Matrix: (Units=GPa)
#
#
# Indices 1 2 3 4 5 6 
#
# 1 62.1410 24.3690 29.5564 0.0000 -19.8861 0.0000
# 2 24.3690 121.6918 66.6085 0.0000 -26.6729 0.0000
# 3 29.5564 66.6085 138.9705 0.0000 -55.5919 0.0000
# 4 0.0000 0.0000 0.0000 32.3585 0.0000 -24.5909
# 5 -19.8861 -26.6729 -55.5919 0.0000 34.3200 0.0000
# 6 0.0000 0.0000 0.0000 -24.5909 0.0000 10.3120
#
#
#
# Elastic Compliance Matrix: (Units=1/GPa)
#
#
# Indices 1 2 3 4 5 6 
#
# 1 0.020276 -0.002300 0.002201 0.000000 0.013526 0.000000
# 2 -0.002300 0.011401 -0.005579 0.000000 -0.001509 0.000000
# 3 0.002201 -0.005579 0.023229 0.000000 0.034566 0.000000
# 4 0.000000 0.000000 0.000000 -0.038047 0.000000 -0.090731
# 5 0.013526 -0.001509 0.034566 0.000000 0.091793 0.000000
# 6 0.000000 0.000000 0.000000 -0.090731 0.000000 -0.119390
#
#
# Mechanical properties :
#
#
# Convention : Reuss Voigt Hill
#
# Bulk Modulus (GPa) = 22.96234 62.65236 42.80735
# Shear Modulus (GPa) = 330.36017 28.88273 179.62145
#
# Velocity S-wave (km/s) = 12.28399 3.63216 9.05784
# Velocity P-wave (km/s) = 14.54935 6.79760 11.35542
#
# Compressibility (1/GPa) = 0.04354957
#
# Stress axis : x y z
#
# Youngs Moduli (GPa) = 49.31883 87.71138 43.04970
#
# Poissons Ratio (x) = 0.20177 -0.09475
# Poissons Ratio (y) = 0.11345 0.24017
# Poissons Ratio (z) = -0.10855 0.48934
#
# Static dielectric constant tensor:
#      x y z
#    x 1.813260 0.000000 -0.086600 
#    y 0.000000 1.733580 0.000000 
#    z -0.086600 0.000000 1.927130 
# 
# From -- ./inp_files/82649.got.cif
#   From: 2010.05.17/outbox.cif.g08.bks.cpg/sg15_42_cif.got.tgz:82649.got - 2010.06.03 18:47:42.
