data_PCOD9284530
_publ_section_title
;
Structure prediction by ZEFSAII (Michael W. Deem and Ramdas Pophale) SiO2 
 PCOD9284530
Probable space group: C 2/C
;
_chemical_formula_sum "Si O2"
_cell_formula_units_Z 44
_cell_length_a 21.020732
_cell_length_b 6.169789
_cell_length_c 23.285733
_cell_angle_alpha 90.000000
_cell_angle_beta 34.761637
_cell_angle_gamma 90.000000
_cell_volume 1721.898596
_symmetry_space_group_name_H-M "C 2/C"
_symmetry_group_IT_number 15
_symmetry_cell_setting 'monoclinic'
loop_
_space_group_symop_operation_xyz
x,y,z
-x,y,1/2-z
-x,-y,-z
x,-y,1/2+z
1/2+x,1/2+y,z
1/2-x,1/2+y,1/2-z
1/2-x,1/2-y,-z
1/2+x,1/2-y,1/2+z
loop_
_atom_site_type_symbol
_atom_site_label
_atom_site_fract_x
_atom_site_fract_y
_atom_site_fract_z
Si Si1 0.375452 0.540266 0.770284
Si Si2 0.203240 0.659740 0.609541
Si Si3 0.051428 0.893614 0.555620
Si Si4 0.272667 0.916051 0.788274
Si Si5 0.000000 0.617896 0.250000
Si Si6 0.573180 0.729071 0.915178
O O1 0.327950 0.408849 0.858951
O O2 0.449777 0.384938 0.675115
O O3 0.458571 0.725955 0.730463
O O4 0.278871 0.672645 0.809294
O O5 0.331488 0.626660 0.498010
O O6 0.202441 0.565706 0.675431
O O7 0.104281 0.528894 0.653115
O O8 0.054323 0.736283 0.497109
O O9 0.032932 0.131571 0.539643
O O10 0.159340 0.022231 0.849945
O O11 0.364086 0.905872 0.669739
#
# Coordination Sequence:
#
# PCOD9284530 Si02
#       6
#     8   8   8   8   4   8
#     4  10  21  41  61  87 116 154 197 248 295 350
#     4  10  21  41  61  87 116 154 197 248 295 350
#     4   9  20  35  58  88 123 152 200 235 281 353
#     4   9  20  33  60  84 124 159 192 231 278 346
#     4  10  22  42  68  78 108 154 198 252 316 344
#     4   9  18  36  56  87 124 165 192 230 280 343
#
# _framework density 25.553187000000001
#
# number of rings (size 3 to 8) (size 9 to 14) (size 15 to 20)
#    0.000    2.545    0.000    0.545   10.182    0.727 
#    0.000   23.636    0.000    0.000    0.000    0.000 
#    0.000    0.000    0.000    0.000    0.000    0.000 
#
# Total GULP energy -122802.160433 kJ/mol
# GULP energy per Si atom -5581.916383 kJ/mol
# Density = 2.549503 g / cm^3
# Si number density = 25.553187 Si / 1000 Ang^3
#
#
#
# Elastic Constant Matrix: (Units=GPa)
#
#
# Indices 1 2 3 4 5 6 
#
# 1 60.2442 19.9936 9.1166 0.0383 -10.6445 -0.0789
# 2 19.9936 62.3699 40.7858 0.0396 -8.9628 -0.0786
# 3 9.1166 40.7858 112.1338 0.0149 -2.5925 -0.0394
# 4 0.0383 0.0396 0.0149 41.8061 -0.0195 1.6299
# 5 -10.6445 -8.9628 -2.5925 -0.0195 39.3804 0.0560
# 6 -0.0789 -0.0786 -0.0394 1.6299 0.0560 37.4847
#
#
#
# Elastic Compliance Matrix: (Units=1/GPa)
#
#
# Indices 1 2 3 4 5 6 
#
# 1 0.019186 -0.006082 0.000741 -0.000011 0.003850 0.000023
# 2 -0.006082 0.023715 -0.008057 -0.000013 0.003223 0.000024
# 3 0.000741 -0.008057 0.011768 0.000002 -0.000859 -0.000002
# 4 -0.000011 -0.000013 0.000002 0.023961 0.000007 -0.001042
# 5 0.003850 0.003223 -0.000859 0.000007 0.027111 -0.000027
# 6 0.000023 0.000024 -0.000002 -0.001042 -0.000027 0.026723
#
#
# Mechanical properties :
#
#
# Convention : Reuss Voigt Hill
#
# Bulk Modulus (GPa) = 35.87506 41.61553 38.74530
# Shear Modulus (GPa) = 29.66501 34.72437 32.19469
#
# Velocity S-wave (km/s) = 3.41091 3.69033 3.55337
# Velocity P-wave (km/s) = 5.43896 5.87191 5.65957
#
# Compressibility (1/GPa) = 0.02787452
#
# Stress axis : x y z
#
# Youngs Moduli (GPa) = 52.12230 42.16807 84.97484
#
# Poissons Ratio (x) = 0.25645 -0.06299
# Poissons Ratio (y) = 0.31699 0.68461
# Poissons Ratio (z) = -0.03864 0.33973
#
# Static dielectric constant tensor:
#      x y z
#    x 2.111190 0.000010 -0.016860 
#    y 0.000010 2.003620 0.000000 
#    z -0.016860 0.000000 2.050320 
# 
# From -- ./inp_files/319145.got.cif
#   From: 2010.05.17/outbox.cif.g08.bks.cpg/sg15_160_cif.got.tgz:319145.got - 2010.06.03 18:47:42.
