data_PCOD9284287
_publ_section_title
;
Structure prediction by ZEFSAII (Michael W. Deem and Ramdas Pophale) SiO2 
 PCOD9284287
Probable space group: C 2/C
;
_chemical_formula_sum "Si O2"
_cell_formula_units_Z 52
_cell_length_a 7.531784
_cell_length_b 18.852186
_cell_length_c 21.873733
_cell_angle_alpha 90.000000
_cell_angle_beta 132.604633
_cell_angle_gamma 90.000000
_cell_volume 2286.047676
_symmetry_space_group_name_H-M "C 2/C"
_symmetry_group_IT_number 15
_symmetry_cell_setting 'monoclinic'
loop_
_space_group_symop_operation_xyz
x,y,z
-x,y,1/2-z
-x,-y,-z
x,-y,1/2+z
1/2+x,1/2+y,z
1/2-x,1/2+y,1/2-z
1/2-x,1/2-y,-z
1/2+x,1/2-y,1/2+z
loop_
_atom_site_type_symbol
_atom_site_label
_atom_site_fract_x
_atom_site_fract_y
_atom_site_fract_z
Si Si1 0.755962 0.048195 0.735117
Si Si2 0.133110 0.818897 0.159038
Si Si3 0.170875 0.449454 0.461853
Si Si4 0.500000 0.066324 0.250000
Si Si5 0.081118 0.679456 0.372180
Si Si6 0.873912 0.801648 0.480183
Si Si7 0.835501 0.402317 0.494214
O O1 0.746569 0.121834 0.770560
O O2 0.522802 0.043848 0.637536
O O3 0.000000 0.044192 0.750000
O O4 0.712670 0.983956 0.772782
O O5 0.225016 0.797630 0.112462
O O6 0.092270 0.744713 0.183848
O O7 0.878359 0.856405 0.083531
O O8 0.344806 0.384432 0.489675
O O9 0.274426 0.526659 0.500853
O O10 0.015201 0.425750 0.483789
O O11 0.589448 0.119084 0.323546
O O12 0.342355 0.712375 0.447969
O O13 0.017287 0.640744 0.420678
O O14 0.750000 0.750000 0.500000
#
# Coordination Sequence:
#
# PCOD9284287 Si02
#       7
#     8   8   8   4   8   8   8
#     4  12  26  47  73 103 147 190 243 294 368 435
#     4  11  24  42  71  99 140 192 231 298 365 434
#     4  11  22  40  69 104 134 181 239 295 348 446
#     4  12  28  48  70 106 146 190 244 298 364 440
#     4  11  25  44  66 100 143 182 233 300 366 421
#     4  11  24  41  69 102 142 180 243 297 359 429
#     4  10  21  40  68  96 137 176 231 287 365 411
#
# _framework density 22.746683000000001
#
# number of rings (size 3 to 8) (size 9 to 14) (size 15 to 20)
#    0.000    0.923    3.077    4.615    3.231    1.231 
#    2.769    0.000    0.000    0.000    0.000    0.000 
#    0.000    0.000    0.000    0.000    0.000    0.000 
#
# Total GULP energy -145380.200748 kJ/mol
# GULP energy per Si atom -5591.546183 kJ/mol
# Density = 2.269491 g / cm^3
# Si number density = 22.746683 Si / 1000 Ang^3
#
#
#
# Elastic Constant Matrix: (Units=GPa)
#
#
# Indices 1 2 3 4 5 6 
#
# 1 76.1141 49.1753 18.8547 0.0000 -28.5501 0.0000
# 2 49.1753 168.5602 35.9199 0.0000 -17.1339 0.0000
# 3 18.8547 35.9199 70.6971 0.0000 -19.0843 0.0000
# 4 0.0000 0.0000 0.0000 40.4454 0.0000 -6.6291
# 5 -28.5501 -17.1339 -19.0843 0.0000 29.8139 0.0000
# 6 0.0000 0.0000 0.0000 -6.6291 0.0000 41.9799
#
#
#
# Elastic Compliance Matrix: (Units=1/GPa)
#
#
# Indices 1 2 3 4 5 6 
#
# 1 0.024023 -0.005276 0.002013 0.000000 0.021262 0.000000
# 2 -0.005276 0.007913 -0.003324 0.000000 -0.002633 0.000000
# 3 0.002013 -0.003324 0.018498 0.000000 0.011858 0.000000
# 4 0.000000 0.000000 0.000000 0.025382 0.000000 0.004008
# 5 0.021262 -0.002633 0.011858 0.000000 0.059979 0.000000
# 6 0.000000 0.000000 0.000000 0.004008 0.000000 0.024454
#
#
# Mechanical properties :
#
#
# Convention : Reuss Voigt Hill
#
# Bulk Modulus (GPa) = 26.83842 58.14124 42.48983
# Shear Modulus (GPa) = 26.90453 36.54262 31.72357
#
# Velocity S-wave (km/s) = 3.44290 4.01247 3.73855
# Velocity P-wave (km/s) = 5.25635 6.86166 6.11194
#
# Compressibility (1/GPa) = 0.03726002
#
# Stress axis : x y z
#
# Youngs Moduli (GPa) = 41.62595 126.38126 54.06048
#
# Poissons Ratio (x) = 0.66683 -0.10884
# Poissons Ratio (y) = 0.21963 0.17969
# Poissons Ratio (z) = -0.08380 0.42007
#
# Static dielectric constant tensor:
#      x y z
#    x 1.880450 0.000000 -0.023800 
#    y 0.000000 1.868860 0.000000 
#    z -0.023800 0.000000 1.848710 
# 
# From -- ./inp_files/233115.got.cif
#   From: 2010.05.17/outbox.cif.g08.bks.cpg/sg15_117_cif.got.tgz:233115.got - 2010.06.03 18:47:42.
