data_PCOD9284915
_publ_section_title
;
Structure prediction by ZEFSAII (Michael W. Deem and Ramdas Pophale) SiO2 
 PCOD9284915
Probable space group: C 2/C
;
_chemical_formula_sum "Si O2"
_cell_formula_units_Z 40
_cell_length_a 8.958544
_cell_length_b 9.062367
_cell_length_c 22.817925
_cell_angle_alpha 90.000000
_cell_angle_beta 92.763733
_cell_angle_gamma 90.000000
_cell_volume 1850.332535
_symmetry_space_group_name_H-M "C 2/C"
_symmetry_group_IT_number 15
_symmetry_cell_setting 'monoclinic'
loop_
_space_group_symop_operation_xyz
x,y,z
-x,y,1/2-z
-x,-y,-z
x,-y,1/2+z
1/2+x,1/2+y,z
1/2-x,1/2+y,1/2-z
1/2-x,1/2-y,-z
1/2+x,1/2-y,1/2+z
loop_
_atom_site_type_symbol
_atom_site_label
_atom_site_fract_x
_atom_site_fract_y
_atom_site_fract_z
Si Si1 0.293877 0.918123 0.115954
Si Si2 0.586457 0.584100 0.193398
Si Si3 0.675608 0.580022 0.000276
Si Si4 0.205814 0.913943 0.883033
Si Si5 0.584648 0.079215 0.692770
O O1 0.244666 0.751533 0.102784
O O2 0.212579 0.977266 0.172620
O O3 0.466607 0.919406 0.137077
O O4 0.253063 0.014229 0.059344
O O5 0.500000 0.536483 0.250000
O O6 0.467143 0.588300 0.138351
O O7 0.639126 0.752731 0.203550
O O8 0.729434 0.514904 0.939471
O O9 0.500000 0.500000 0.000000
O O10 0.750000 0.750000 0.000000
O O11 0.287911 0.972506 0.826844
O O12 0.500000 0.032608 0.750000
#
# Coordination Sequence:
#
# PCOD9284915 Si02
#       5
#     8   8   8   8   8
#     4  11  24  41  67  98 134 178 231 287 356 424
#     4  10  21  41  65  94 135 179 224 281 349 422
#     4  12  27  47  74 100 139 189 238 298 372 442
#     4  11  24  41  67  98 136 176 234 287 354 425
#     4  10  23  41  65  99 135 178 228 289 349 427
#
# _framework density 21.617737000000002
#
# number of rings (size 3 to 8) (size 9 to 14) (size 15 to 20)
#    0.000    1.200    2.000    3.000    5.600    3.200 
#    0.000    0.000    0.000    0.000    0.000    0.000 
#    0.000    0.000    0.000    0.000    0.000    0.000 
#
# Total GULP energy -111409.324549 kJ/mol
# GULP energy per Si atom -5570.466227 kJ/mol
# Density = 2.156853 g / cm^3
# Si number density = 21.617737 Si / 1000 Ang^3
#
#
#
# Elastic Constant Matrix: (Units=GPa)
#
#
# Indices 1 2 3 4 5 6 
#
# 1 63.7123 49.5817 11.6255 0.0000 -1.1144 0.0000
# 2 49.5817 124.1795 45.9641 0.0000 -13.2708 0.0000
# 3 11.6255 45.9641 110.9376 0.0000 0.9792 0.0000
# 4 0.0000 0.0000 0.0000 36.3409 0.0000 -8.5163
# 5 -1.1144 -13.2708 0.9792 0.0000 33.3360 0.0000
# 6 0.0000 0.0000 0.0000 -8.5163 0.0000 19.8603
#
#
#
# Elastic Compliance Matrix: (Units=1/GPa)
#
#
# Indices 1 2 3 4 5 6 
#
# 1 0.023386 -0.010401 0.001889 0.000000 -0.003414 0.000000
# 2 -0.010401 0.014674 -0.005040 0.000000 0.005642 0.000000
# 3 0.001889 -0.005040 0.010924 0.000000 -0.002264 0.000000
# 4 0.000000 0.000000 0.000000 0.030591 0.000000 0.013118
# 5 -0.003414 0.005642 -0.002264 0.000000 0.032196 0.000000
# 6 0.000000 0.000000 0.000000 0.013118 0.000000 0.055977
#
#
# Mechanical properties :
#
#
# Convention : Reuss Voigt Hill
#
# Bulk Modulus (GPa) = 45.70398 57.01912 51.36155
# Shear Modulus (GPa) = 24.73464 30.68465 27.70965
#
# Velocity S-wave (km/s) = 3.38625 3.77161 3.58411
# Velocity P-wave (km/s) = 6.03959 6.73795 6.39831
#
# Compressibility (1/GPa) = 0.02187993
#
# Stress axis : x y z
#
# Youngs Moduli (GPa) = 42.76122 68.14669 91.54022
#
# Poissons Ratio (x) = 0.70882 -0.17292
# Poissons Ratio (y) = 0.44478 0.46133
# Poissons Ratio (z) = -0.08078 0.34344
#
# Static dielectric constant tensor:
#      x y z
#    x 1.868990 0.000000 0.015760 
#    y 0.000000 1.805200 0.000000 
#    z 0.015760 0.000000 1.757620 
# 
# From -- ./inp_files/262413.got.cif
#   From: 2010.05.17/outbox.cif.g08.bks.cpg/sg15_132_cif.got.tgz:262413.got - 2010.06.03 18:47:42.
