data_PCOD9284671
_publ_section_title
;
Structure prediction by ZEFSAII (Michael W. Deem and Ramdas Pophale) SiO2 
 PCOD9284671
Probable space group: C 2/C
;
_chemical_formula_sum "Si O2"
_cell_formula_units_Z 56
_cell_length_a 8.450094
_cell_length_b 30.419929
_cell_length_c 20.244944
_cell_angle_alpha 90.000000
_cell_angle_beta 151.302058
_cell_angle_gamma 90.000000
_cell_volume 2498.913529
_symmetry_space_group_name_H-M "C 2/C"
_symmetry_group_IT_number 15
_symmetry_cell_setting 'monoclinic'
loop_
_space_group_symop_operation_xyz
x,y,z
-x,y,1/2-z
-x,-y,-z
x,-y,1/2+z
1/2+x,1/2+y,z
1/2-x,1/2+y,1/2-z
1/2-x,1/2-y,-z
1/2+x,1/2-y,1/2+z
loop_
_atom_site_type_symbol
_atom_site_label
_atom_site_fract_x
_atom_site_fract_y
_atom_site_fract_z
Si Si1 0.856092 0.925840 0.270535
Si Si2 0.919518 0.245954 0.651552
Si Si3 0.129287 0.796152 0.099996
Si Si4 0.873491 0.980488 0.633995
Si Si5 0.342522 0.667893 0.265128
Si Si6 0.132674 0.901329 0.970614
Si Si7 0.318539 0.386122 0.981891
O O1 0.493452 0.905230 0.136199
O O2 0.000000 0.917079 0.250000
O O3 0.071095 0.907536 0.409613
O O4 0.881429 0.978508 0.289050
O O5 0.552494 0.265478 0.518616
O O6 0.000000 0.224581 0.750000
O O7 0.938756 0.212542 0.598660
O O8 0.168289 0.287051 0.728147
O O9 0.500000 0.785176 0.250000
O O10 0.069668 0.845819 0.060184
O O11 0.878786 0.941759 0.584103
O O12 0.000000 0.962061 0.750000
O O13 0.500000 0.000000 0.500000
O O14 0.500000 0.675315 0.250000
O O15 0.564057 0.643246 0.402291
O O16 0.041190 0.634148 0.144595
O O17 0.865598 0.911036 0.930319
#
# Coordination Sequence:
#
# PCOD9284671 Si02
#       7
#     8   8   8   8   8   8   8
#     4  11  23  41  64  93 131 176 224 274 333 406
#     4  10  22  40  64  97 132 167 224 281 336 403
#     4  10  21  41  63  89 134 177 214 276 336 401
#     4  11  23  43  67  99 136 183 224 277 334 410
#     4  11  23  41  67  95 128 175 224 279 345 414
#     4  12  23  41  67  95 134 177 221 283 337 385
#     4  11  25  42  63  97 132 172 229 284 337 402
#
# _framework density 22.409741
#
# number of rings (size 3 to 8) (size 9 to 14) (size 15 to 20)
#    0.000    1.143    2.857    5.143    2.000    1.714 
#    0.000    7.143    0.000    0.000    0.000    0.000 
#    0.000    0.000    0.000    0.000    0.000    0.000 
#
# Total GULP energy -156488.329332 kJ/mol
# GULP energy per Si atom -5588.868905 kJ/mol
# Density = 2.235873 g / cm^3
# Si number density = 22.409741 Si / 1000 Ang^3
#
#
#
# Elastic Constant Matrix: (Units=GPa)
#
#
# Indices 1 2 3 4 5 6 
#
# 1 54.7531 -2.1842 12.4192 0.0014 -8.6702 0.0005
# 2 -2.1842 35.2621 11.0862 0.0004 2.8824 0.0002
# 3 12.4192 11.0862 76.8153 -0.0114 -6.0949 -0.0026
# 4 0.0014 0.0004 -0.0114 69.2049 -0.0030 14.3369
# 5 -8.6702 2.8824 -6.0949 -0.0030 45.1485 -0.0007
# 6 0.0005 0.0002 -0.0026 14.3369 -0.0007 23.1403
#
#
#
# Elastic Compliance Matrix: (Units=1/GPa)
#
#
# Indices 1 2 3 4 5 6 
#
# 1 0.019573 0.001954 -0.003192 -0.000001 0.003203 0.000000
# 2 0.001954 0.030184 -0.004847 -0.000001 -0.002206 0.000000
# 3 -0.003192 -0.004847 0.014364 0.000002 0.001635 0.000000
# 4 -0.000001 -0.000001 0.000002 0.016578 0.000001 -0.010271
# 5 0.003203 -0.002206 0.001635 0.000001 0.023126 0.000000
# 6 0.000000 0.000000 0.000000 -0.010271 0.000000 0.049578
#
#
# Mechanical properties :
#
#
# Convention : Reuss Voigt Hill
#
# Bulk Modulus (GPa) = 19.24916 23.27477 21.26197
# Shear Modulus (GPa) = 27.33876 37.19935 32.26905
#
# Velocity S-wave (km/s) = 3.49657 4.07868 3.79879
# Velocity P-wave (km/s) = 4.99095 5.70872 5.36186
#
# Compressibility (1/GPa) = 0.05195032
#
# Stress axis : x y z
#
# Youngs Moduli (GPa) = 51.09061 33.12966 69.61987
#
# Poissons Ratio (x) = -0.06474 0.22226
# Poissons Ratio (y) = -0.09984 0.33747
# Poissons Ratio (z) = 0.16310 0.16059
#
# Static dielectric constant tensor:
#      x y z
#    x 1.899230 0.000000 0.021940 
#    y 0.000000 1.827090 0.000000 
#    z 0.021940 0.000000 1.841290 
# 
# From -- ./inp_files/234959.got.cif
#   From: 2010.05.17/outbox.cif.g08.bks.cpg/sg15_118_cif.got.tgz:234959.got - 2010.06.03 18:47:42.
