data_PCOD9284677
_publ_section_title
;
Structure prediction by ZEFSAII (Michael W. Deem and Ramdas Pophale) SiO2 
 PCOD9284677
Probable space group: C 2/C
;
_chemical_formula_sum "Si O2"
_cell_formula_units_Z 48
_cell_length_a 7.486669
_cell_length_b 19.067340
_cell_length_c 15.349667
_cell_angle_alpha 90.000000
_cell_angle_beta 91.673218
_cell_angle_gamma 90.000000
_cell_volume 2190.243936
_symmetry_space_group_name_H-M "C 2/C"
_symmetry_group_IT_number 15
_symmetry_cell_setting 'monoclinic'
loop_
_space_group_symop_operation_xyz
x,y,z
-x,y,1/2-z
-x,-y,-z
x,-y,1/2+z
1/2+x,1/2+y,z
1/2-x,1/2+y,1/2-z
1/2-x,1/2-y,-z
1/2+x,1/2-y,1/2+z
loop_
_atom_site_type_symbol
_atom_site_label
_atom_site_fract_x
_atom_site_fract_y
_atom_site_fract_z
Si Si1 0.204295 0.485376 0.221762
Si Si2 0.788891 0.724516 0.404625
Si Si3 0.627425 0.558147 0.954874
Si Si4 0.617845 0.356720 0.178354
Si Si5 0.779223 0.360061 0.746251
Si Si6 0.800431 0.684325 0.062391
O O1 0.248640 0.476831 0.119305
O O2 0.298246 0.421428 0.271041
O O3 0.275119 0.558959 0.258740
O O4 0.000000 0.481751 0.250000
O O5 0.750000 0.750000 0.500000
O O6 0.755624 0.796987 0.353170
O O7 0.707833 0.667938 0.337674
O O8 0.989834 0.695431 0.419486
O O9 0.497702 0.612433 0.902075
O O10 0.500000 0.500000 0.000000
O O11 0.744177 0.609612 0.018483
O O12 0.500000 0.318615 0.250000
O O13 0.722569 0.317508 0.659577
O O14 0.000000 0.359472 0.750000
O O15 0.750000 0.750000 0.000000
#
# Coordination Sequence:
#
# PCOD9284677 Si02
#       6
#     8   8   8   8   8   8
#     4  10  23  42  67  96 133 185 232 287 353 424
#     4  11  24  40  66  97 133 176 225 289 357 418
#     4  11  24  40  67  98 137 177 235 290 352 428
#     4  10  21  41  63  90 131 178 219 278 353 415
#     4   9  21  42  62  90 133 173 220 283 350 409
#     4  11  22  42  67  98 131 179 233 287 350 429
#
# _framework density 21.915365999999999
#
# number of rings (size 3 to 8) (size 9 to 14) (size 15 to 20)
#    0.000    1.667    1.667    2.500    7.000    0.000 
#    0.000    5.833    0.000    0.000    0.000    0.000 
#    0.000    0.000    0.000    0.000    0.000    0.000 
#
# Total GULP energy -133728.345433 kJ/mol
# GULP energy per Si atom -5572.014393 kJ/mol
# Density = 2.186549 g / cm^3
# Si number density = 21.915366 Si / 1000 Ang^3
#
#
#
# Elastic Constant Matrix: (Units=GPa)
#
#
# Indices 1 2 3 4 5 6 
#
# 1 61.8437 13.1172 19.2501 0.0000 -10.6488 0.0000
# 2 13.1172 120.6044 57.2713 0.0000 -6.3068 0.0000
# 3 19.2501 57.2713 133.0641 0.0000 -9.1166 0.0000
# 4 0.0000 0.0000 0.0000 34.6699 0.0000 0.7260
# 5 -10.6488 -6.3068 -9.1166 0.0000 27.2173 0.0000
# 6 0.0000 0.0000 0.0000 0.7260 0.0000 27.9378
#
#
#
# Elastic Compliance Matrix: (Units=1/GPa)
#
#
# Indices 1 2 3 4 5 6 
#
# 1 0.017980 -0.000750 -0.001851 0.000000 0.006241 0.000000
# 2 -0.000750 0.010476 -0.004354 0.000000 0.000676 0.000000
# 3 -0.001851 -0.004354 0.009762 0.000000 0.001537 0.000000
# 4 0.000000 0.000000 0.000000 0.028859 0.000000 -0.000750
# 5 0.006241 0.000676 0.001537 0.000000 0.039854 0.000000
# 6 0.000000 0.000000 0.000000 -0.000750 0.000000 0.035813
#
#
# Mechanical properties :
#
#
# Convention : Reuss Voigt Hill
#
# Bulk Modulus (GPa) = 41.13902 54.97662 48.05782
# Shear Modulus (GPa) = 30.34763 33.02323 31.68543
#
# Velocity S-wave (km/s) = 3.72528 3.88603 3.80650
# Velocity P-wave (km/s) = 6.10869 6.72869 6.42618
#
# Compressibility (1/GPa) = 0.02430782
#
# Stress axis : x y z
#
# Youngs Moduli (GPa) = 55.61876 95.45488 102.43565
#
# Poissons Ratio (x) = 0.07163 0.18956
# Poissons Ratio (y) = 0.04174 0.44602
# Poissons Ratio (z) = 0.10292 0.41562
#
# Static dielectric constant tensor:
#      x y z
#    x 1.998150 0.000000 -0.098520 
#    y 0.000000 1.779030 0.000000 
#    z -0.098520 0.000000 1.896820 
# 
# From -- ./inp_files/134867.got.cif
#   From: 2010.05.17/outbox.cif.g08.bks.cpg/sg15_68_cif.got.tgz:134867.got - 2010.06.03 18:47:42.
