data_PCOD9284144
_publ_section_title
;
Structure prediction by ZEFSAII (Michael W. Deem and Ramdas Pophale) SiO2 
 PCOD9284144
Probable space group: C 2/C
;
_chemical_formula_sum "Si O2"
_cell_formula_units_Z 36
_cell_length_a 13.418040
_cell_length_b 8.950694
_cell_length_c 26.430061
_cell_angle_alpha 90.000000
_cell_angle_beta 145.851684
_cell_angle_gamma 90.000000
_cell_volume 1781.835823
_symmetry_space_group_name_H-M "C 2/C"
_symmetry_group_IT_number 15
_symmetry_cell_setting 'monoclinic'
loop_
_space_group_symop_operation_xyz
x,y,z
-x,y,1/2-z
-x,-y,-z
x,-y,1/2+z
1/2+x,1/2+y,z
1/2-x,1/2+y,1/2-z
1/2-x,1/2-y,-z
1/2+x,1/2-y,1/2+z
loop_
_atom_site_type_symbol
_atom_site_label
_atom_site_fract_x
_atom_site_fract_y
_atom_site_fract_z
Si Si1 0.501870 0.591504 0.447128
Si Si2 0.500000 0.521517 0.250000
Si Si3 0.043923 0.788516 0.416179
Si Si4 0.865120 0.642423 0.439255
Si Si5 0.127629 0.271661 0.759965
O O1 0.500000 0.500000 0.500000
O O2 0.546248 0.468027 0.423751
O O3 0.616110 0.739035 0.507186
O O4 0.314859 0.658989 0.351028
O O5 0.656878 0.606165 0.344733
O O6 0.386033 0.406762 0.236534
O O7 0.250000 0.750000 0.500000
O O8 0.941024 0.723978 0.421241
O O9 0.949303 0.715103 0.328067
O O10 0.000000 0.500000 0.500000
O O11 0.000000 0.336634 0.750000
#
# Coordination Sequence:
#
# PCOD9284144 Si02
#       5
#     8   4   8   8   8
#     4  10  22  41  64  96 131 170 224 275 336 405
#     4  10  22  40  66  94 132 172 216 272 356 392
#     4  11  24  43  65  98 134 175 227 281 342 409
#     4  11  21  44  69  94 135 177 218 284 347 413
#     4  10  21  40  67  89 134 173 217 274 344 395
#
# _framework density 20.203882
#
# number of rings (size 3 to 8) (size 9 to 14) (size 15 to 20)
#    0.667    0.889    2.222    4.000    3.111    0.000 
#   16.000    4.444    0.000    0.000    0.000    0.000 
#    0.000    0.000    0.000    0.000    0.000    0.000 
#
# Total GULP energy -100216.493462 kJ/mol
# GULP energy per Si atom -5567.582970 kJ/mol
# Density = 2.015790 g / cm^3
# Si number density = 20.203882 Si / 1000 Ang^3
#
#
#
# Elastic Constant Matrix: (Units=GPa)
#
#
# Indices 1 2 3 4 5 6 
#
# 1 58.6356 33.7366 52.7468 0.0000 0.6230 0.0000
# 2 33.7366 116.8404 82.3427 0.0000 22.7017 0.0000
# 3 52.7468 82.3427 209.8205 0.0000 24.3372 0.0000
# 4 0.0000 0.0000 0.0000 35.9031 0.0000 13.1277
# 5 0.6230 22.7017 24.3372 0.0000 42.1408 0.0000
# 6 0.0000 0.0000 0.0000 13.1277 0.0000 22.2879
#
#
#
# Elastic Compliance Matrix: (Units=1/GPa)
#
#
# Indices 1 2 3 4 5 6 
#
# 1 0.023897 -0.004436 -0.004826 0.000000 0.004824 0.000000
# 2 -0.004436 0.013304 -0.003518 0.000000 -0.005070 0.000000
# 3 -0.004826 -0.003518 0.007644 0.000000 -0.002448 0.000000
# 4 0.000000 0.000000 0.000000 0.035498 0.000000 -0.020908
# 5 0.004824 -0.005070 -0.002448 0.000000 0.027804 0.000000
# 6 0.000000 0.000000 0.000000 -0.020908 0.000000 0.057183
#
#
# Mechanical properties :
#
#
# Convention : Reuss Voigt Hill
#
# Bulk Modulus (GPa) = 51.85497 80.32762 66.09130
# Shear Modulus (GPa) = 25.34006 34.49772 29.91889
#
# Velocity S-wave (km/s) = 3.54534 4.13665 3.85235
# Velocity P-wave (km/s) = 6.51773 7.91585 7.25057
#
# Compressibility (1/GPa) = 0.01928455
#
# Stress axis : x y z
#
# Youngs Moduli (GPa) = 41.84639 75.16712 130.82775
#
# Poissons Ratio (x) = 0.33345 0.63138
# Poissons Ratio (y) = 0.18564 0.46021
# Poissons Ratio (z) = 0.20195 0.26442
#
# Static dielectric constant tensor:
#      x y z
#    x 1.713410 0.000000 -0.076610 
#    y 0.000000 1.747630 0.000000 
#    z -0.076610 0.000000 1.691700 
# 
# From -- ./inp_files/150181.got.cif
#   From: 2010.05.17/outbox.cif.g08.bks.cpg/sg15_76_cif.got.tgz:150181.got - 2010.06.03 18:47:42.
