data_PCOD9284125
_publ_section_title
;
Structure prediction by ZEFSAII (Michael W. Deem and Ramdas Pophale) SiO2 
 PCOD9284125
Probable space group: C 2/C
;
_chemical_formula_sum "Si O2"
_cell_formula_units_Z 60
_cell_length_a 8.375499
_cell_length_b 17.758225
_cell_length_c 21.388917
_cell_angle_alpha 90.000000
_cell_angle_beta 57.199423
_cell_angle_gamma 90.000000
_cell_volume 2674.042793
_symmetry_space_group_name_H-M "C 2/C"
_symmetry_group_IT_number 15
_symmetry_cell_setting 'monoclinic'
loop_
_space_group_symop_operation_xyz
x,y,z
-x,y,1/2-z
-x,-y,-z
x,-y,1/2+z
1/2+x,1/2+y,z
1/2-x,1/2+y,1/2-z
1/2-x,1/2-y,-z
1/2+x,1/2-y,1/2+z
loop_
_atom_site_type_symbol
_atom_site_label
_atom_site_fract_x
_atom_site_fract_y
_atom_site_fract_z
Si Si1 0.315542 0.144179 0.175843
Si Si2 0.890834 0.016472 0.940359
Si Si3 0.327774 0.165151 0.491441
Si Si4 0.241470 0.439518 0.089717
Si Si5 0.305409 0.017568 0.651879
Si Si6 0.100273 0.712673 0.667688
Si Si7 0.000000 0.714327 0.250000
Si Si8 0.710635 0.819214 0.360191
O O1 0.504116 0.144887 0.091770
O O2 0.191022 0.209819 0.171001
O O3 0.363475 0.166087 0.236265
O O4 0.235986 0.059991 0.195552
O O5 0.763536 0.006796 0.905622
O O6 0.119944 0.020233 0.889233
O O7 0.827231 0.098610 0.980694
O O8 0.837386 0.953856 0.002315
O O9 0.250000 0.250000 0.500000
O O10 0.382517 0.163355 0.553343
O O11 0.231496 0.352308 0.111373
O O12 0.028631 0.472186 0.123739
O O13 0.231986 0.101159 0.682870
O O14 0.000000 0.677932 0.750000
O O15 0.939592 0.723602 0.650300
O O16 0.894309 0.767513 0.322468
#
# Coordination Sequence:
#
# PCOD9284125 Si02
#       8
#     8   8   8   8   8   8   4   8
#     4  12  25  44  68 100 140 170 223 287 340 396
#     4  10  21  40  69 100 141 169 224 284 344 401
#     4  11  21  39  69 103 130 174 227 277 338 402
#     4  10  21  40  67 101 129 180 221 272 336 407
#     4  10  23  44  66 100 134 175 221 284 334 399
#     4  11  24  44  66  94 136 181 229 273 332 412
#     4  12  24  48  68  92 136 186 216 274 340 420
#     4  10  24  44  72  94 129 182 228 269 339 409
#
# _framework density 22.437933999999998
#
# number of rings (size 3 to 8) (size 9 to 14) (size 15 to 20)
#    0.000    1.333    4.000    1.200    5.600    0.533 
#   13.200    0.000    0.000    0.000    0.000    0.000 
#    0.000    0.000    0.000    0.000    0.000    0.000 
#
# Total GULP energy -167316.703002 kJ/mol
# GULP energy per Si atom -5577.223433 kJ/mol
# Density = 2.238686 g / cm^3
# Si number density = 22.437934 Si / 1000 Ang^3
#
#
#
# Elastic Constant Matrix: (Units=GPa)
#
#
# Indices 1 2 3 4 5 6 
#
# 1 101.7985 45.8049 26.3501 0.0000 13.6732 0.0000
# 2 45.8049 154.3786 10.2149 0.0000 13.3288 0.0000
# 3 26.3501 10.2149 34.6932 0.0000 3.1378 0.0000
# 4 0.0000 0.0000 0.0000 38.4730 0.0000 0.9964
# 5 13.6732 13.3288 3.1378 0.0000 26.2380 0.0000
# 6 0.0000 0.0000 0.0000 0.9964 0.0000 22.0262
#
#
#
# Elastic Compliance Matrix: (Units=1/GPa)
#
#
# Indices 1 2 3 4 5 6 
#
# 1 0.014379 -0.003228 -0.009545 0.000000 -0.004712 0.000000
# 2 -0.003228 0.007600 0.000416 0.000000 -0.002228 0.000000
# 3 -0.009545 0.000416 0.035909 0.000000 0.000469 0.000000
# 4 0.000000 0.000000 0.000000 0.026023 0.000000 -0.001177
# 5 -0.004712 -0.002228 0.000469 0.000000 0.041644 0.000000
# 6 0.000000 0.000000 0.000000 -0.001177 0.000000 0.045454
#
#
# Mechanical properties :
#
#
# Convention : Reuss Voigt Hill
#
# Bulk Modulus (GPa) = 30.14422 50.62334 40.38378
# Shear Modulus (GPa) = 24.18010 31.24747 27.71378
#
# Velocity S-wave (km/s) = 3.28631 3.73583 3.51826
# Velocity P-wave (km/s) = 5.27858 6.42020 5.87718
#
# Compressibility (1/GPa) = 0.03317386
#
# Stress axis : x y z
#
# Youngs Moduli (GPa) = 69.54417 131.57449 27.84832
#
# Poissons Ratio (x) = 0.42473 0.26581
# Poissons Ratio (y) = 0.22449 -0.01157
# Poissons Ratio (z) = 0.66378 -0.05467
#
# Static dielectric constant tensor:
#      x y z
#    x 1.861180 0.000000 -0.033990 
#    y 0.000000 1.827400 0.000000 
#    z -0.033990 0.000000 1.829570 
# 
# From -- ./inp_files/233060.got.cif
#   From: 2010.05.17/outbox.cif.g08.bks.cpg/sg15_117_cif.got.tgz:233060.got - 2010.06.03 18:47:42.
