data_PCOD9284492
_publ_section_title
;
Structure prediction by ZEFSAII (Michael W. Deem and Ramdas Pophale) SiO2 
 PCOD9284492
Probable space group: C 2/C
;
_chemical_formula_sum "Si O2"
_cell_formula_units_Z 60
_cell_length_a 22.027500
_cell_length_b 15.491380
_cell_length_c 19.316048
_cell_angle_alpha 90.000000
_cell_angle_beta 30.544406
_cell_angle_gamma 90.000000
_cell_volume 3349.757599
_symmetry_space_group_name_H-M "C 2/C"
_symmetry_group_IT_number 15
_symmetry_cell_setting 'monoclinic'
loop_
_space_group_symop_operation_xyz
x,y,z
-x,y,1/2-z
-x,-y,-z
x,-y,1/2+z
1/2+x,1/2+y,z
1/2-x,1/2+y,1/2-z
1/2-x,1/2-y,-z
1/2+x,1/2-y,1/2+z
loop_
_atom_site_type_symbol
_atom_site_label
_atom_site_fract_x
_atom_site_fract_y
_atom_site_fract_z
Si Si1 0.766998 0.306733 0.697844
Si Si2 0.463029 0.087068 0.076511
Si Si3 0.392559 0.530562 0.153528
Si Si4 0.500000 0.102919 0.750000
Si Si5 0.057024 0.067421 0.119486
Si Si6 0.318860 0.023677 0.817573
Si Si7 0.162297 0.258839 0.021003
Si Si8 0.789797 0.621073 0.700874
O O1 0.890191 0.352803 0.596429
O O2 0.666630 0.378852 0.811320
O O3 0.765790 0.283804 0.618080
O O4 0.761353 0.216833 0.743696
O O5 0.378732 0.060157 0.222950
O O6 0.592128 0.127029 0.962206
O O7 0.500000 0.000000 0.000000
O O8 0.453801 0.545089 0.166861
O O9 0.294257 0.454813 0.245737
O O10 0.500000 0.500000 0.000000
O O11 0.404326 0.052045 0.796793
O O12 0.428566 0.164898 0.872220
O O13 0.093468 0.168606 0.078704
O O14 0.000000 0.050441 0.250000
O O15 0.181898 0.018880 0.978396
O O16 0.316439 0.091564 0.754928
O O17 0.250000 0.250000 0.000000
#
# Coordination Sequence:
#
# PCOD9284492 Si02
#       8
#     8   8   8   4   8   8   8   8
#     4  12  23  37  66  87 129 172 205 270 322 369
#     4  10  21  41  59  84 123 160 220 266 305 371
#     4  12  24  41  61  91 133 172 218 265 320 384
#     4  12  24  32  62  82 128 170 208 248 328 390
#     4  12  24  38  59  92 137 172 208 254 322 399
#     4  11  22  42  54  88 128 164 212 266 301 379
#     4  12  22  36  52  94 132 169 207 242 309 412
#     4  11  23  39  61  94 122 168 219 264 321 378
#
# _framework density 17.911745
#
# number of rings (size 3 to 8) (size 9 to 14) (size 15 to 20)
#    0.000    0.533    7.333    2.400    5.600    0.000 
#    0.000    0.000    0.000    0.000    1.733    2.800 
#    0.000    0.000    0.000    0.000    0.000    0.000 
#
# Total GULP energy -167403.601326 kJ/mol
# GULP energy per Si atom -5580.120044 kJ/mol
# Density = 1.787098 g / cm^3
# Si number density = 17.911745 Si / 1000 Ang^3
#
#
#
# Elastic Constant Matrix: (Units=GPa)
#
#
# Indices 1 2 3 4 5 6 
#
# 1 102.6347 47.1176 28.5973 0.0000 -18.2307 0.0000
# 2 47.1176 88.4667 27.9564 0.0000 -4.9886 0.0000
# 3 28.5973 27.9564 95.0438 0.0000 -0.4773 0.0000
# 4 0.0000 0.0000 0.0000 32.0268 0.0000 4.1987
# 5 -18.2307 -4.9886 -0.4773 0.0000 33.7035 0.0000
# 6 0.0000 0.0000 0.0000 4.1987 0.0000 15.2736
#
#
#
# Elastic Compliance Matrix: (Units=1/GPa)
#
#
# Indices 1 2 3 4 5 6 
#
# 1 0.014720 -0.006681 -0.002429 0.000000 0.006939 0.000000
# 2 -0.006681 0.015604 -0.002586 0.000000 -0.001341 0.000000
# 3 -0.002429 -0.002586 0.012005 0.000000 -0.001527 0.000000
# 4 0.000000 0.000000 0.000000 0.032391 0.000000 -0.008904
# 5 0.006939 -0.001341 -0.001527 0.000000 0.033204 0.000000
# 6 0.000000 0.000000 0.000000 -0.008904 0.000000 0.067920
#
#
# Mechanical properties :
#
#
# Convention : Reuss Voigt Hill
#
# Bulk Modulus (GPa) = 52.80811 54.83197 53.82004
# Shear Modulus (GPa) = 24.32519 28.36569 26.34544
#
# Velocity S-wave (km/s) = 3.68918 3.98381 3.83932
# Velocity P-wave (km/s) = 6.90602 7.19998 7.05453
#
# Compressibility (1/GPa) = 0.01893648
#
# Stress axis : x y z
#
# Youngs Moduli (GPa) = 67.93638 64.08773 83.29608
#
# Poissons Ratio (x) = 0.42816 0.20232
# Poissons Ratio (y) = 0.45387 0.21542
# Poissons Ratio (z) = 0.16502 0.16575
#
# Static dielectric constant tensor:
#      x y z
#    x 1.766640 0.000000 -0.102450 
#    y 0.000000 1.561630 0.000000 
#    z -0.102450 0.000000 1.696150 
# 
# From -- ./inp_files/112761.got.cif
#   From: 2010.05.17/outbox.cif.g08.bks.cpg/sg15_57_cif.got.tgz:112761.got - 2010.06.03 18:47:42.
