data_PCOD9284706
_publ_section_title
;
Structure prediction by ZEFSAII (Michael W. Deem and Ramdas Pophale) SiO2 
 PCOD9284706
Probable space group: C 2/C
;
_chemical_formula_sum "Si O2"
_cell_formula_units_Z 64
_cell_length_a 15.288374
_cell_length_b 6.272575
_cell_length_c 28.454046
_cell_angle_alpha 90.000000
_cell_angle_beta 93.339919
_cell_angle_gamma 90.000000
_cell_volume 2724.036361
_symmetry_space_group_name_H-M "C 2/C"
_symmetry_group_IT_number 15
_symmetry_cell_setting 'monoclinic'
loop_
_space_group_symop_operation_xyz
x,y,z
-x,y,1/2-z
-x,-y,-z
x,-y,1/2+z
1/2+x,1/2+y,z
1/2-x,1/2+y,1/2-z
1/2-x,1/2-y,-z
1/2+x,1/2-y,1/2+z
loop_
_atom_site_type_symbol
_atom_site_label
_atom_site_fract_x
_atom_site_fract_y
_atom_site_fract_z
Si Si1 0.695100 0.283223 0.848045
Si Si2 0.308767 0.443571 0.482232
Si Si3 0.144165 0.157535 0.776590
Si Si4 0.439504 0.923916 0.646889
Si Si5 0.323589 0.796017 0.560402
Si Si6 0.593462 0.057480 0.019830
Si Si7 0.311213 0.585698 0.305814
Si Si8 0.367551 0.955847 0.376915
O O1 0.657542 0.455645 0.810836
O O2 0.773611 0.417452 0.875682
O O3 0.608997 0.154150 0.863818
O O4 0.751460 0.088804 0.829140
O O5 0.250000 0.250000 0.500000
O O6 0.320967 0.585617 0.529055
O O7 0.270669 0.586014 0.438233
O O8 0.393293 0.307984 0.470096
O O9 0.124002 0.047855 0.725967
O O10 0.082788 0.326265 0.802244
O O11 0.239437 0.273227 0.774611
O O12 0.384680 0.782028 0.607338
O O13 0.543363 0.932453 0.640497
O O14 0.356796 0.964314 0.523283
O O15 0.611975 0.931898 0.067866
O O16 0.500000 0.000000 0.000000
O O17 0.353938 0.750136 0.343523
#
# Coordination Sequence:
#
# PCOD9284706 Si02
#       8
#     8   8   8   8   8   8   8   8
#     4  10  23  43  70  96 135 178 222 285 350 412
#     4   9  21  37  64  91 125 177 223 283 333 400
#     4  10  21  41  75  98 130 176 222 278 353 414
#     4  11  24  42  66 105 139 179 229 287 343 421
#     4  10  21  41  63  93 134 177 233 275 340 409
#     4  11  22  41  62  91 135 184 225 279 342 404
#     4  10  21  43  75  97 133 174 223 281 346 420
#     4  11  25  43  66 105 140 178 238 287 344 426
#
# _framework density 23.494548000000002
#
# number of rings (size 3 to 8) (size 9 to 14) (size 15 to 20)
#    0.000    1.750    2.500    0.750    0.000   13.500 
#    2.250    3.750    0.000    0.000    0.000    0.000 
#    0.000    0.000    0.000    0.000    0.000    0.000 
#
# Total GULP energy -178266.000221 kJ/mol
# GULP energy per Si atom -5570.812507 kJ/mol
# Density = 2.344107 g / cm^3
# Si number density = 23.494548 Si / 1000 Ang^3
#
#
#
# Elastic Constant Matrix: (Units=GPa)
#
#
# Indices 1 2 3 4 5 6 
#
# 1 61.7729 26.2587 1.7674 0.0000 0.2298 0.0000
# 2 26.2587 79.1811 16.5527 0.0000 5.1825 0.0000
# 3 1.7674 16.5527 68.0109 0.0000 7.0762 0.0000
# 4 0.0000 0.0000 0.0000 15.4470 0.0000 -21.3858
# 5 0.2298 5.1825 7.0762 0.0000 24.1909 0.0000
# 6 0.0000 0.0000 0.0000 -21.3858 0.0000 -1.2911
#
#
#
# Elastic Compliance Matrix: (Units=1/GPa)
#
#
# Indices 1 2 3 4 5 6 
#
# 1 0.018942 -0.006553 0.001006 0.000000 0.000930 0.000000
# 2 -0.006553 0.015664 -0.003403 0.000000 -0.002298 0.000000
# 3 0.001006 -0.003403 0.015915 0.000000 -0.003936 0.000000
# 4 0.000000 0.000000 0.000000 0.002705 0.000000 -0.044806
# 5 0.000930 -0.002298 -0.003936 0.000000 0.042973 0.000000
# 6 0.000000 0.000000 0.000000 -0.044806 0.000000 -0.032364
#
#
# Mechanical properties :
#
#
# Convention : Reuss Voigt Hill
#
# Bulk Modulus (GPa) = 30.65493 33.12472 31.88982
# Shear Modulus (GPa) = 53.99093 18.62843 36.30968
#
# Velocity S-wave (km/s) = 4.79897 2.81887 3.93549
# Velocity P-wave (km/s) = 6.61686 4.97235 5.85265
#
# Compressibility (1/GPa) = 0.03262118
#
# Stress axis : x y z
#
# Youngs Moduli (GPa) = 52.79407 63.84014 62.83331
#
# Poissons Ratio (x) = 0.41832 -0.06320
# Poissons Ratio (y) = 0.34594 0.21382
# Poissons Ratio (z) = -0.05310 0.21725
#
# Static dielectric constant tensor:
#      x y z
#    x 1.658860 0.000000 0.090980 
#    y 0.000000 1.999200 0.000000 
#    z 0.090980 0.000000 1.894590 
# 
# From -- ./inp_files/315099.got.cif
#   From: 2010.05.17/outbox.cif.g08.bks.cpg/sg15_158_cif.got.tgz:315099.got - 2010.06.03 18:47:42.
