data_PCOD9284318
_publ_section_title
;
Structure prediction by ZEFSAII (Michael W. Deem and Ramdas Pophale) SiO2 
 PCOD9284318
Probable space group: C 2/C
;
_chemical_formula_sum "Si O2"
_cell_formula_units_Z 52
_cell_length_a 11.245864
_cell_length_b 21.822908
_cell_length_c 14.561082
_cell_angle_alpha 90.000000
_cell_angle_beta 43.690556
_cell_angle_gamma 90.000000
_cell_volume 2468.472605
_symmetry_space_group_name_H-M "C 2/C"
_symmetry_group_IT_number 15
_symmetry_cell_setting 'monoclinic'
loop_
_space_group_symop_operation_xyz
x,y,z
-x,y,1/2-z
-x,-y,-z
x,-y,1/2+z
1/2+x,1/2+y,z
1/2-x,1/2+y,1/2-z
1/2-x,1/2-y,-z
1/2+x,1/2-y,1/2+z
loop_
_atom_site_type_symbol
_atom_site_label
_atom_site_fract_x
_atom_site_fract_y
_atom_site_fract_z
Si Si1 0.391612 0.610960 0.725400
Si Si2 0.047322 0.672578 0.961123
Si Si3 0.361155 0.513653 0.157266
Si Si4 0.870651 0.376161 0.739016
Si Si5 0.500000 0.594838 0.250000
Si Si6 0.475730 0.683492 0.009535
Si Si7 0.257510 0.176170 0.995371
O O1 0.500000 0.587073 0.750000
O O2 0.307057 0.552374 0.724761
O O3 0.521249 0.646680 0.586341
O O4 0.245771 0.657453 0.838748
O O5 0.966613 0.633439 0.088990
O O6 0.018546 0.743643 0.002972
O O7 0.951845 0.661205 0.916502
O O8 0.205059 0.555354 0.209183
O O9 0.443757 0.552725 0.195440
O O10 0.500000 0.500000 0.000000
O O11 0.000000 0.361567 0.750000
O O12 0.698669 0.334125 0.839843
O O13 0.350395 0.640775 0.366433
O O14 0.649733 0.661028 0.964213
O O15 0.250000 0.250000 0.000000
#
# Coordination Sequence:
#
# PCOD9284318 Si02
#       7
#     8   8   8   8   4   8   8
#     4  12  26  44  67 100 136 179 228 277 346 419
#     4  11  25  41  69 105 134 174 231 293 335 405
#     4  12  25  47  70  95 134 189 230 275 351 428
#     4  12  25  44  69  99 137 180 232 281 341 416
#     4  12  20  44  74  92 136 188 220 288 356 400
#     4  11  23  45  69  97 141 182 223 279 355 411
#     4  10  21  40  69 101 133 175 230 280 344 408
#
# _framework density 21.065657999999999
#
# number of rings (size 3 to 8) (size 9 to 14) (size 15 to 20)
#    0.000    0.615    5.385    1.846    0.000    8.615 
#    5.538    0.000    0.000    0.000    0.000    0.000 
#    0.000    0.000    0.000    0.000    0.000    0.000 
#
# Total GULP energy -145180.659249 kJ/mol
# GULP energy per Si atom -5583.871510 kJ/mol
# Density = 2.101771 g / cm^3
# Si number density = 21.065658 Si / 1000 Ang^3
#
#
#
# Elastic Constant Matrix: (Units=GPa)
#
#
# Indices 1 2 3 4 5 6 
#
# 1 84.6420 3.7850 -8.9211 0.0002 6.2684 -0.0001
# 2 3.7850 93.5265 13.4136 0.0000 8.3020 -0.0001
# 3 -8.9211 13.4136 51.3935 0.0005 13.2318 -0.0004
# 4 0.0002 0.0000 0.0005 34.7431 -0.0003 -3.9712
# 5 6.2684 8.3020 13.2318 -0.0003 25.4840 0.0001
# 6 -0.0001 -0.0001 -0.0004 -3.9712 0.0001 27.5821
#
#
#
# Elastic Compliance Matrix: (Units=1/GPa)
#
#
# Indices 1 2 3 4 5 6 
#
# 1 0.012568 -0.000598 0.003559 0.000000 -0.004745 0.000000
# 2 -0.000598 0.011269 -0.002468 0.000000 -0.002243 0.000000
# 3 0.003559 -0.002468 0.023938 0.000000 -0.012501 0.000000
# 4 0.000000 0.000000 0.000000 0.029264 0.000001 0.004213
# 5 -0.004745 -0.002243 -0.012501 0.000001 0.047629 0.000000
# 6 0.000000 0.000000 0.000000 0.004213 0.000000 0.036862
#
#
# Mechanical properties :
#
#
# Convention : Reuss Voigt Hill
#
# Bulk Modulus (GPa) = 20.50764 27.34632 23.92698
# Shear Modulus (GPa) = 28.28106 32.31415 30.29761
#
# Velocity S-wave (km/s) = 3.66802 3.92085 3.79654
# Velocity P-wave (km/s) = 5.26264 5.78853 5.53183
#
# Compressibility (1/GPa) = 0.04876232
#
# Stress axis : x y z
#
# Youngs Moduli (GPa) = 79.56906 88.73622 41.77462
#
# Poissons Ratio (x) = 0.05306 -0.14868
# Poissons Ratio (y) = 0.04758 0.10308
# Poissons Ratio (z) = -0.28320 0.21896
#
# Static dielectric constant tensor:
#      x y z
#    x 1.794740 0.000000 0.024320 
#    y 0.000000 1.729480 0.000000 
#    z 0.024320 0.000000 1.774260 
# 
# From -- ./inp_files/148047.got.cif
#   From: 2010.05.17/outbox.cif.g08.bks.cpg/sg15_75_cif.got.tgz:148047.got - 2010.06.03 18:47:42.
