data_PCOD9284484
_publ_section_title
;
Structure prediction by ZEFSAII (Michael W. Deem and Ramdas Pophale) SiO2 
 PCOD9284484
Probable space group: C 2/C
;
_chemical_formula_sum "Si O2"
_cell_formula_units_Z 64
_cell_length_a 14.326378
_cell_length_b 27.386851
_cell_length_c 8.711215
_cell_angle_alpha 90.000000
_cell_angle_beta 81.563312
_cell_angle_gamma 90.000000
_cell_volume 3380.897038
_symmetry_space_group_name_H-M "C 2/C"
_symmetry_group_IT_number 15
_symmetry_cell_setting 'monoclinic'
loop_
_space_group_symop_operation_xyz
x,y,z
-x,y,1/2-z
-x,-y,-z
x,-y,1/2+z
1/2+x,1/2+y,z
1/2-x,1/2+y,1/2-z
1/2-x,1/2-y,-z
1/2+x,1/2-y,1/2+z
loop_
_atom_site_type_symbol
_atom_site_label
_atom_site_fract_x
_atom_site_fract_y
_atom_site_fract_z
Si Si1 0.567087 0.794424 0.084358
Si Si2 0.598385 0.686138 0.934881
Si Si3 0.114162 0.454566 0.105154
Si Si4 0.617003 0.679557 0.568858
Si Si5 0.231014 0.627952 0.477856
Si Si6 0.707534 0.134884 0.130739
Si Si7 0.576599 0.780644 0.610833
Si Si8 0.421682 0.060445 0.524272
O O1 0.500000 0.790568 0.250000
O O2 0.653886 0.832307 0.062484
O O3 0.598011 0.740188 0.015618
O O4 0.490714 0.812620 0.978699
O O5 0.632729 0.684731 0.748631
O O6 0.490556 0.667007 0.949719
O O7 0.668168 0.651367 0.010504
O O8 0.209236 0.424471 0.056194
O O9 0.097668 0.448242 0.290495
O O10 0.034462 0.430544 0.010864
O O11 0.103948 0.510946 0.061187
O O12 0.694128 0.645079 0.477181
O O13 0.623159 0.735853 0.510025
O O14 0.221339 0.618047 0.299761
O O15 0.655777 0.186884 0.164013
O O16 0.640715 0.101476 0.041822
O O17 0.500000 0.759847 0.750000
#
# Coordination Sequence:
#
# PCOD9284484 Si02
#       8
#     8   8   8   8   8   8   8   8
#     4  11  24  35  56  83 122 158 196 243 291 344
#     4  10  22  41  56  79 117 157 204 247 288 337
#     4  10  22  40  62  89 121 152 186 235 290 350
#     4  10  21  41  58  78 114 161 201 247 291 334
#     4  12  24  36  58  89 118 154 200 241 287 352
#     4  12  24  35  61  88 116 157 198 240 292 350
#     4  11  20  39  54  81 121 158 195 241 289 342
#     4  10  22  40  63  89 120 153 186 233 294 349
#
# _framework density 18.929887000000001
#
# number of rings (size 3 to 8) (size 9 to 14) (size 15 to 20)
#    0.000    1.250    3.750    3.000    8.750    1.000 
#    0.000    0.000    0.000    0.750    0.000    0.000 
#    0.000    0.000    0.000    0.000    0.000    0.000 
#
# Total GULP energy -178310.240532 kJ/mol
# GULP energy per Si atom -5572.195017 kJ/mol
# Density = 1.888680 g / cm^3
# Si number density = 18.929887 Si / 1000 Ang^3
#
#
#
# Elastic Constant Matrix: (Units=GPa)
#
#
# Indices 1 2 3 4 5 6 
#
# 1 65.0749 34.5505 24.5895 0.0000 2.7048 0.0000
# 2 34.5505 66.0042 16.9822 0.0000 -0.0634 0.0000
# 3 24.5895 16.9822 81.0852 0.0000 -4.0962 0.0000
# 4 0.0000 0.0000 0.0000 23.4498 0.0000 4.9718
# 5 2.7048 -0.0634 -4.0962 0.0000 29.2653 0.0000
# 6 0.0000 0.0000 0.0000 4.9718 0.0000 27.8598
#
#
#
# Elastic Compliance Matrix: (Units=1/GPa)
#
#
# Indices 1 2 3 4 5 6 
#
# 1 0.023075 -0.010828 -0.004873 0.000000 -0.002838 0.000000
# 2 -0.010828 0.021100 -0.001090 0.000000 0.000894 0.000000
# 3 -0.004873 -0.001090 0.014162 0.000000 0.002430 0.000000
# 4 0.000000 0.000000 0.000000 0.044321 0.000000 -0.007909
# 5 -0.002838 0.000894 0.002430 0.000000 0.034775 0.000000
# 6 0.000000 0.000000 0.000000 -0.007909 0.000000 0.037305
#
#
# Mechanical properties :
#
#
# Convention : Reuss Voigt Hill
#
# Bulk Modulus (GPa) = 40.39778 40.48985 40.44381
# Shear Modulus (GPa) = 23.08701 25.18447 24.13574
#
# Velocity S-wave (km/s) = 3.49608 3.65143 3.57460
# Velocity P-wave (km/s) = 6.13871 6.26204 6.20068
#
# Compressibility (1/GPa) = 0.02475384
#
# Stress axis : x y z
#
# Youngs Moduli (GPa) = 43.33668 47.39379 70.61302
#
# Poissons Ratio (x) = 0.51317 0.34412
# Poissons Ratio (y) = 0.46924 0.07699
# Poissons Ratio (z) = 0.21119 0.05167
#
# Static dielectric constant tensor:
#      x y z
#    x 1.672920 0.000000 -0.011710 
#    y 0.000000 1.665410 0.000000 
#    z -0.011710 0.000000 1.751980 
# 
# From -- ./inp_files/42662.got.cif
#   From: 2010.05.17/outbox.cif.g08.bks.cpg/sg15_22_cif.got.tgz:42662.got - 2010.06.03 18:47:42.
