data_PCOD9284071
_publ_section_title
;
Structure prediction by ZEFSAII (Michael W. Deem and Ramdas Pophale) SiO2 
 PCOD9284071
Probable space group: C 2/C
;
_chemical_formula_sum "Si O2"
_cell_formula_units_Z 60
_cell_length_a 25.203948
_cell_length_b 12.722928
_cell_length_c 9.658932
_cell_angle_alpha 90.000000
_cell_angle_beta 75.734917
_cell_angle_gamma 90.000000
_cell_volume 3001.808322
_symmetry_space_group_name_H-M "C 2/C"
_symmetry_group_IT_number 15
_symmetry_cell_setting 'monoclinic'
loop_
_space_group_symop_operation_xyz
x,y,z
-x,y,1/2-z
-x,-y,-z
x,-y,1/2+z
1/2+x,1/2+y,z
1/2-x,1/2+y,1/2-z
1/2-x,1/2-y,-z
1/2+x,1/2-y,1/2+z
loop_
_atom_site_type_symbol
_atom_site_label
_atom_site_fract_x
_atom_site_fract_y
_atom_site_fract_z
Si Si1 0.099333 0.616099 0.706237
Si Si2 0.922831 0.201924 0.785554
Si Si3 0.273593 0.849659 0.401933
Si Si4 0.273680 0.094947 0.458926
Si Si5 0.484634 0.381404 0.478485
Si Si6 0.300451 0.712038 0.798793
Si Si7 0.500000 0.261788 0.750000
Si Si8 0.605680 0.904524 0.525574
O O1 0.160907 0.661861 0.657297
O O2 0.097920 0.511938 0.613966
O O3 0.052428 0.691578 0.679529
O O4 0.087985 0.593539 0.876802
O O5 0.969008 0.177691 0.642693
O O6 0.864602 0.193574 0.748417
O O7 0.923036 0.314051 0.864633
O O8 0.932502 0.123941 0.909547
O O9 0.250000 0.750000 0.500000
O O10 0.237504 0.842602 0.287894
O O11 0.266071 0.970243 0.458018
O O12 0.289164 0.161891 0.310885
O O13 0.220606 0.155491 0.548004
O O14 0.328658 0.115752 0.513460
O O15 0.500000 0.500000 0.500000
O O16 0.480588 0.326735 0.629193
#
# Coordination Sequence:
#
# PCOD9284071 Si02
#       8
#     8   8   8   8   8   8   4   8
#     4  11  25  42  68 100 136 173 215 276 337 404
#     4  10  23  43  69  92 129 174 225 271 334 402
#     4  11  25  40  65 100 136 170 220 277 334 395
#     4   9  21  39  63  91 132 174 205 268 333 391
#     4  11  25  47  65  91 131 180 220 281 334 386
#     4  10  21  40  66  94 127 173 221 266 329 400
#     4  12  26  42  70  96 132 168 228 270 328 396
#     4  10  21  43  67  97 134 170 210 271 342 394
#
# _framework density 19.987950000000001
#
# number of rings (size 3 to 8) (size 9 to 14) (size 15 to 20)
#    0.000    1.600    2.667    0.800    5.600    4.800 
#    2.400    0.000    0.000    0.000    0.000    0.000 
#    0.000    0.000    0.000    0.000    0.000    0.000 
#
# Total GULP energy -167231.790119 kJ/mol
# GULP energy per Si atom -5574.393004 kJ/mol
# Density = 1.994246 g / cm^3
# Si number density = 19.987950 Si / 1000 Ang^3
#
#
#
# Elastic Constant Matrix: (Units=GPa)
#
#
# Indices 1 2 3 4 5 6 
#
# 1 64.7917 30.2381 4.2700 0.0000 -8.1571 0.0000
# 2 30.2381 115.2266 25.3858 0.0000 -11.9786 0.0000
# 3 4.2700 25.3858 54.6621 0.0000 -6.4302 0.0000
# 4 0.0000 0.0000 0.0000 21.2777 0.0000 3.6961
# 5 -8.1571 -11.9786 -6.4302 0.0000 29.4867 0.0000
# 6 0.0000 0.0000 0.0000 3.6961 0.0000 25.8240
#
#
#
# Elastic Compliance Matrix: (Units=1/GPa)
#
#
# Indices 1 2 3 4 5 6 
#
# 1 0.017930 -0.004608 0.001132 0.000000 0.003335 0.000000
# 2 -0.004608 0.011122 -0.004540 0.000000 0.002253 0.000000
# 3 0.001132 -0.004540 0.020664 0.000000 0.002975 0.000000
# 4 0.000000 0.000000 0.000000 0.048196 0.000000 -0.006898
# 5 0.003335 0.002253 0.002975 0.000000 0.036400 0.000000
# 6 0.000000 0.000000 0.000000 -0.006898 0.000000 0.039711
#
#
# Mechanical properties :
#
#
# Convention : Reuss Voigt Hill
#
# Bulk Modulus (GPa) = 29.68812 39.38534 34.53673
# Shear Modulus (GPa) = 24.84047 26.97012 25.90530
#
# Velocity S-wave (km/s) = 3.52912 3.67729 3.60397
# Velocity P-wave (km/s) = 5.61173 6.14632 5.88510
#
# Compressibility (1/GPa) = 0.03368351
#
# Stress axis : x y z
#
# Youngs Moduli (GPa) = 55.77305 89.90952 48.39249
#
# Poissons Ratio (x) = 0.41429 -0.05476
# Poissons Ratio (y) = 0.25699 0.21972
# Poissons Ratio (z) = -0.06311 0.40822
#
# Static dielectric constant tensor:
#      x y z
#    x 1.719350 0.000000 0.038310 
#    y 0.000000 1.709750 0.000000 
#    z 0.038310 0.000000 1.830510 
# 
# From -- ./inp_files/117529.got.cif
#   From: 2010.05.17/outbox.cif.g08.bks.cpg/sg15_59_cif.got.tgz:117529.got - 2010.06.03 18:47:42.
