data_PCOD9284058
_publ_section_title
;
Structure prediction by ZEFSAII (Michael W. Deem and Ramdas Pophale) SiO2 
 PCOD9284058
Probable space group: C 2/C
;
_chemical_formula_sum "Si O2"
_cell_formula_units_Z 48
_cell_length_a 29.276242
_cell_length_b 8.457228
_cell_length_c 8.765190
_cell_angle_alpha 90.000000
_cell_angle_beta 93.935863
_cell_angle_gamma 90.000000
_cell_volume 2165.106248
_symmetry_space_group_name_H-M "C 2/C"
_symmetry_group_IT_number 15
_symmetry_cell_setting 'monoclinic'
loop_
_space_group_symop_operation_xyz
x,y,z
-x,y,1/2-z
-x,-y,-z
x,-y,1/2+z
1/2+x,1/2+y,z
1/2-x,1/2+y,1/2-z
1/2-x,1/2-y,-z
1/2+x,1/2-y,1/2+z
loop_
_atom_site_type_symbol
_atom_site_label
_atom_site_fract_x
_atom_site_fract_y
_atom_site_fract_z
Si Si1 0.500000 0.548831 0.250000
Si Si2 0.956014 0.707752 0.955739
Si Si3 0.851957 0.859125 0.375727
Si Si4 0.716134 0.828672 0.780583
Si Si5 0.500000 0.029217 0.250000
Si Si6 0.765920 0.000311 0.037189
Si Si7 0.405566 0.545422 0.600154
O O1 0.511824 0.656140 0.106958
O O2 0.545835 0.459387 0.304554
O O3 0.960664 0.577028 0.823454
O O4 0.976795 0.629111 0.111073
O O5 0.909613 0.801651 0.989684
O O6 0.832358 0.690769 0.316507
O O7 0.868504 0.937902 0.223228
O O8 0.809536 0.948151 0.447343
O O9 0.893639 0.888405 0.501646
O O10 0.725337 0.661982 0.867247
O O11 0.752222 0.867040 0.655548
O O12 0.724577 0.960446 0.910811
#
# Coordination Sequence:
#
# PCOD9284058 Si02
#       7
#     4   8   8   8   4   8   8
#     4  11  23  40  68 102 125 181 224 282 342 399
#     4  10  21  40  66  93 125 178 225 268 342 400
#     4  12  24  42  67 104 138 174 227 296 331 403
#     4  11  23  43  72 101 136 184 224 279 349 421
#     4   9  21  40  66  88 129 169 236 270 326 429
#     4  11  23  43  74 102 139 186 227 274 354 423
#     4  12  24  41  67 100 139 171 233 288 337 393
#
# _framework density 22.169815
#
# number of rings (size 3 to 8) (size 9 to 14) (size 15 to 20)
#    0.000    1.000    5.000    1.500    2.333    0.000 
#    0.000    1.667    0.000    0.000    0.000    0.000 
#    0.000    0.000    0.000    0.000    0.000    0.000 
#
# Total GULP energy -133836.780023 kJ/mol
# GULP energy per Si atom -5576.532501 kJ/mol
# Density = 2.211936 g / cm^3
# Si number density = 22.169815 Si / 1000 Ang^3
#
#
#
# Elastic Constant Matrix: (Units=GPa)
#
#
# Indices 1 2 3 4 5 6 
#
# 1 67.7716 23.8078 48.4815 0.0000 7.2831 0.0000
# 2 23.8078 57.3022 35.0267 0.0000 -4.3110 0.0000
# 3 48.4815 35.0267 135.9420 0.0000 -22.3474 0.0000
# 4 0.0000 0.0000 0.0000 32.1254 0.0000 4.5709
# 5 7.2831 -4.3110 -22.3474 0.0000 39.7087 0.0000
# 6 0.0000 0.0000 0.0000 4.5709 0.0000 26.9645
#
#
#
# Elastic Compliance Matrix: (Units=1/GPa)
#
#
# Indices 1 2 3 4 5 6 
#
# 1 0.024010 -0.005330 -0.008825 0.000000 -0.009949 0.000000
# 2 -0.005330 0.021922 -0.003521 0.000000 0.001376 0.000000
# 3 -0.008825 -0.003521 0.012798 0.000000 0.008439 0.000000
# 4 0.000000 0.000000 0.000000 0.031897 0.000000 -0.005407
# 5 -0.009949 0.001376 0.008439 0.000000 0.031907 0.000000
# 6 0.000000 0.000000 0.000000 -0.005407 0.000000 0.038002
#
#
# Mechanical properties :
#
#
# Convention : Reuss Voigt Hill
#
# Bulk Modulus (GPa) = 42.77642 52.84976 47.81309
# Shear Modulus (GPa) = 24.54818 30.00637 27.27728
#
# Velocity S-wave (km/s) = 3.33119 3.68296 3.51148
# Velocity P-wave (km/s) = 5.84231 6.47888 6.16881
#
# Compressibility (1/GPa) = 0.02337736
#
# Stress axis : x y z
#
# Youngs Moduli (GPa) = 41.64921 45.61686 78.13733
#
# Poissons Ratio (x) = 0.24312 0.68957
# Poissons Ratio (y) = 0.22198 0.27515
# Poissons Ratio (z) = 0.36756 0.16064
#
# Static dielectric constant tensor:
#      x y z
#    x 1.840490 0.000000 0.035750 
#    y 0.000000 1.858850 0.000000 
#    z 0.035750 0.000000 1.861010 
# 
# From -- ./inp_files/68628.got.cif
#   From: 2010.05.17/outbox.cif.g08.bks.cpg/sg15_35_cif.got.tgz:68628.got - 2010.06.03 18:47:42.
