data_PCOD9284509
_publ_section_title
;
Structure prediction by ZEFSAII (Michael W. Deem and Ramdas Pophale) SiO2 
 PCOD9284509
Probable space group: C 2/C
;
_chemical_formula_sum "Si O2"
_cell_formula_units_Z 64
_cell_length_a 9.027922
_cell_length_b 26.584313
_cell_length_c 13.966485
_cell_angle_alpha 90.000000
_cell_angle_beta 72.972023
_cell_angle_gamma 90.000000
_cell_volume 3205.027677
_symmetry_space_group_name_H-M "C 2/C"
_symmetry_group_IT_number 15
_symmetry_cell_setting 'monoclinic'
loop_
_space_group_symop_operation_xyz
x,y,z
-x,y,1/2-z
-x,-y,-z
x,-y,1/2+z
1/2+x,1/2+y,z
1/2-x,1/2+y,1/2-z
1/2-x,1/2-y,-z
1/2+x,1/2-y,1/2+z
loop_
_atom_site_type_symbol
_atom_site_label
_atom_site_fract_x
_atom_site_fract_y
_atom_site_fract_z
Si Si1 0.597884 0.139792 0.640573
Si Si2 0.433781 0.234081 0.574810
Si Si3 0.584909 0.033277 0.336905
Si Si4 0.329154 0.622112 0.329469
Si Si5 0.259311 0.152205 0.491969
Si Si6 0.823918 0.306591 0.787172
Si Si7 0.923394 0.564735 0.558385
Si Si8 0.092210 0.168810 0.979854
O O1 0.500000 0.123897 0.750000
O O2 0.518697 0.190845 0.617642
O O3 0.573054 0.093944 0.571499
O O4 0.775216 0.154949 0.620203
O O5 0.338146 0.203644 0.513216
O O6 0.307679 0.266502 0.657951
O O7 0.561959 0.272569 0.509941
O O8 0.500000 0.036822 0.250000
O O9 0.724978 0.072749 0.327332
O O10 0.463023 0.043111 0.446173
O O11 0.634517 0.976419 0.355246
O O12 0.500000 0.617876 0.250000
O O13 0.231819 0.667298 0.299162
O O14 0.360323 0.639307 0.432347
O O15 0.318589 0.150057 0.370989
O O16 0.307196 0.109361 0.555906
O O17 0.076204 0.152982 0.522361
O O18 0.000000 0.287184 0.750000
#
# Coordination Sequence:
#
# PCOD9284509 Si02
#       8
#     8   8   8   8   8   8   8   8
#     4  11  24  40  64  90 130 174 216 261 325 379
#     4  10  23  38  58  91 131 175 213 259 310 387
#     4  11  23  41  70  94 121 165 212 266 329 381
#     4  12  22  38  64  97 129 156 211 268 326 375
#     4  10  21  41  60  86 130 171 204 255 320 378
#     4  11  22  35  62  91 128 165 211 258 314 376
#     4  10  22  44  63  93 127 159 215 264 315 399
#     4  11  22  40  60  93 131 165 214 268 312 373
#
# _framework density 19.968626
#
# number of rings (size 3 to 8) (size 9 to 14) (size 15 to 20)
#    0.000    1.250    3.750    4.125    3.500    2.000 
#    0.000    5.000    0.000    0.000    0.000    0.000 
#    0.000    0.000    0.000    0.000    0.000    0.000 
#
# Total GULP energy -178524.997333 kJ/mol
# GULP energy per Si atom -5578.906167 kJ/mol
# Density = 1.992318 g / cm^3
# Si number density = 19.968626 Si / 1000 Ang^3
#
#
#
# Elastic Constant Matrix: (Units=GPa)
#
#
# Indices 1 2 3 4 5 6 
#
# 1 82.1216 9.2615 27.4804 0.0000 3.8341 0.0000
# 2 9.2615 81.0247 12.2677 0.0000 15.5264 0.0000
# 3 27.4804 12.2677 62.8280 0.0000 -2.7910 0.0000
# 4 0.0000 0.0000 0.0000 32.8347 0.0000 2.0844
# 5 3.8341 15.5264 -2.7910 0.0000 26.3089 0.0000
# 6 0.0000 0.0000 0.0000 2.0844 0.0000 15.7852
#
#
#
# Elastic Compliance Matrix: (Units=1/GPa)
#
#
# Indices 1 2 3 4 5 6 
#
# 1 0.014468 -0.000167 -0.006415 0.000000 -0.002691 0.000000
# 2 -0.000167 0.014544 -0.003162 0.000000 -0.008894 0.000000
# 3 -0.006415 -0.003162 0.019556 0.000000 0.004876 0.000000
# 4 0.000000 0.000000 0.000000 0.030713 0.000000 -0.004056
# 5 -0.002691 -0.008894 0.004876 0.000000 0.044168 0.000000
# 6 0.000000 0.000000 0.000000 -0.004056 0.000000 0.063886
#
#
# Mechanical properties :
#
#
# Convention : Reuss Voigt Hill
#
# Bulk Modulus (GPa) = 34.38719 35.99930 35.19324
# Shear Modulus (GPa) = 23.09277 26.78341 24.93809
#
# Velocity S-wave (km/s) = 3.40435 3.66631 3.53776
# Velocity P-wave (km/s) = 5.71934 5.99913 5.86090
#
# Compressibility (1/GPa) = 0.02908060
#
# Stress axis : x y z
#
# Youngs Moduli (GPa) = 69.11696 68.75618 51.13406
#
# Poissons Ratio (x) = 0.01147 0.32804
# Poissons Ratio (y) = 0.01154 0.16169
# Poissons Ratio (z) = 0.44340 0.21741
#
# Static dielectric constant tensor:
#      x y z
#    x 1.684160 0.000000 0.011590 
#    y 0.000000 1.755340 0.000000 
#    z 0.011590 0.000000 1.776250 
# 
# From -- ./inp_files/138581.got.cif
#   From: 2010.05.17/outbox.cif.g08.bks.cpg/sg15_70_cif.got.tgz:138581.got - 2010.06.03 18:47:42.
