data_PCOD9284482
_publ_section_title
;
Structure prediction by ZEFSAII (Michael W. Deem and Ramdas Pophale) SiO2 
 PCOD9284482
Probable space group: C 2/C
;
_chemical_formula_sum "Si O2"
_cell_formula_units_Z 48
_cell_length_a 16.887882
_cell_length_b 25.393215
_cell_length_c 9.979521
_cell_angle_alpha 90.000000
_cell_angle_beta 148.792251
_cell_angle_gamma 90.000000
_cell_volume 2217.440353
_symmetry_space_group_name_H-M "C 2/C"
_symmetry_group_IT_number 15
_symmetry_cell_setting 'monoclinic'
loop_
_space_group_symop_operation_xyz
x,y,z
-x,y,1/2-z
-x,-y,-z
x,-y,1/2+z
1/2+x,1/2+y,z
1/2-x,1/2+y,1/2-z
1/2-x,1/2-y,-z
1/2+x,1/2-y,1/2+z
loop_
_atom_site_type_symbol
_atom_site_label
_atom_site_fract_x
_atom_site_fract_y
_atom_site_fract_z
Si Si1 0.716370 0.494160 0.453145
Si Si2 0.935577 0.343805 0.471498
Si Si3 0.671890 0.199048 0.946343
Si Si4 0.000000 0.433668 0.750000
Si Si5 0.611983 0.549105 0.063240
Si Si6 0.500000 0.746993 0.750000
Si Si7 0.282755 0.340276 0.884903
O O1 0.879920 0.468611 0.658999
O O2 0.694981 0.544963 0.326822
O O3 0.683815 0.494776 0.565116
O O4 0.569096 0.460539 0.186932
O O5 0.929937 0.287641 0.540372
O O6 0.114896 0.349320 0.698320
O O7 0.845264 0.341140 0.202246
O O8 0.901636 0.393624 0.515111
O O9 0.500000 0.209752 0.750000
O O10 0.750000 0.250000 0.000000
O O11 0.766575 0.181307 0.211118
O O12 0.642377 0.603436 0.031301
O O13 0.368838 0.704197 0.597003
#
# Coordination Sequence:
#
# PCOD9284482 Si02
#       7
#     8   8   8   4   8   4   8
#     4  10  22  42  65  90 129 158 213 272 322 381
#     4  10  22  38  58  94 126 160 210 259 308 380
#     4  10  21  41  57  83 126 162 204 254 310 372
#     4  11  22  40  64  94 124 158 214 275 316 376
#     4  10  22  43  65  91 124 170 212 262 326 389
#     4  11  20  34  64  88 128 160 210 249 310 360
#     4  11  21  38  64  88 122 170 208 255 314 377
#
# _framework density 21.646581000000001
#
# number of rings (size 3 to 8) (size 9 to 14) (size 15 to 20)
#    0.000    1.667    3.333    1.500    0.000    2.000 
#    7.500    0.000    0.000    0.000    0.000    0.000 
#    0.000    0.000    0.000    0.000    0.000    0.000 
#
# Total GULP energy -133826.051982 kJ/mol
# GULP energy per Si atom -5576.085499 kJ/mol
# Density = 2.159731 g / cm^3
# Si number density = 21.646581 Si / 1000 Ang^3
#
#
#
# Elastic Constant Matrix: (Units=GPa)
#
#
# Indices 1 2 3 4 5 6 
#
# 1 78.3357 10.0355 6.3560 0.0000 -6.7409 0.0000
# 2 10.0355 61.7234 8.9867 0.0000 3.5944 0.0000
# 3 6.3560 8.9867 35.7239 0.0000 -7.2479 0.0000
# 4 0.0000 0.0000 0.0000 17.8186 0.0000 -1.3721
# 5 -6.7409 3.5944 -7.2479 0.0000 24.6802 0.0000
# 6 0.0000 0.0000 0.0000 -1.3721 0.0000 24.9825
#
#
#
# Elastic Compliance Matrix: (Units=1/GPa)
#
#
# Indices 1 2 3 4 5 6 
#
# 1 0.013458 -0.002245 -0.001082 0.000000 0.003685 0.000000
# 2 -0.002245 0.017557 -0.004956 0.000000 -0.004626 0.000000
# 3 -0.001082 -0.004956 0.031388 0.000000 0.009644 0.000000
# 4 0.000000 0.000000 0.000000 0.056360 0.000000 0.003095
# 5 0.003685 -0.004626 0.009644 0.000000 0.045031 0.000000
# 6 0.000000 0.000000 0.000000 0.003095 0.000000 0.040198
#
#
# Mechanical properties :
#
#
# Convention : Reuss Voigt Hill
#
# Bulk Modulus (GPa) = 21.81607 25.17106 23.49357
# Shear Modulus (GPa) = 21.20110 23.52325 22.36217
#
# Velocity S-wave (km/s) = 3.13296 3.30008 3.21761
# Velocity P-wave (km/s) = 4.81534 5.11607 4.96798
#
# Compressibility (1/GPa) = 0.04583776
#
# Stress axis : x y z
#
# Youngs Moduli (GPa) = 74.30472 56.95652 31.85907
#
# Poissons Ratio (x) = 0.12788 0.03447
# Poissons Ratio (y) = 0.16683 0.15788
# Poissons Ratio (z) = 0.08040 0.28226
#
# Static dielectric constant tensor:
#      x y z
#    x 1.821180 0.000000 -0.053190 
#    y 0.000000 1.825670 0.000000 
#    z -0.053190 0.000000 1.809910 
# 
# From -- ./inp_files/108152.got.cif
#   From: 2010.05.17/outbox.cif.g08.bks.cpg/sg15_55_cif.got.tgz:108152.got - 2010.06.03 18:47:42.
