data_PCOD9284027
_publ_section_title
;
Structure prediction by ZEFSAII (Michael W. Deem and Ramdas Pophale) SiO2 
 PCOD9284027
Probable space group: C 2/C
;
_chemical_formula_sum "Si O2"
_cell_formula_units_Z 48
_cell_length_a 14.512120
_cell_length_b 12.450298
_cell_length_c 21.849641
_cell_angle_alpha 90.000000
_cell_angle_beta 140.522526
_cell_angle_gamma 90.000000
_cell_volume 2509.910447
_symmetry_space_group_name_H-M "C 2/C"
_symmetry_group_IT_number 15
_symmetry_cell_setting 'monoclinic'
loop_
_space_group_symop_operation_xyz
x,y,z
-x,y,1/2-z
-x,-y,-z
x,-y,1/2+z
1/2+x,1/2+y,z
1/2-x,1/2+y,1/2-z
1/2-x,1/2-y,-z
1/2+x,1/2-y,1/2+z
loop_
_atom_site_type_symbol
_atom_site_label
_atom_site_fract_x
_atom_site_fract_y
_atom_site_fract_z
Si Si1 0.630509 0.486640 0.865918
Si Si2 0.840231 0.782527 0.869526
Si Si3 0.861694 0.759608 0.136265
Si Si4 0.921544 0.614485 0.469838
Si Si5 0.974357 0.000160 0.913969
Si Si6 0.079170 0.758980 0.147769
O O1 0.500000 0.462633 0.750000
O O2 0.666277 0.612728 0.873197
O O3 0.768792 0.412856 0.923124
O O4 0.586019 0.481314 0.914749
O O5 0.777257 0.797848 0.906174
O O6 0.873741 0.896111 0.856573
O O7 0.706882 0.737779 0.762776
O O8 0.973520 0.699151 0.941081
O O9 0.000000 0.733063 0.250000
O O10 0.925357 0.734331 0.102285
O O11 0.894576 0.672708 0.391261
O O12 0.000000 0.500000 0.500000
O O13 0.919839 0.119965 0.875490
O O14 0.000000 0.000000 0.000000
#
# Coordination Sequence:
#
# PCOD9284027 Si02
#       6
#     8   8   8   8   8   8
#     4  10  21  40  66  90 128 173 210 251 320 394
#     4  11  22  39  65  92 126 165 215 262 314 377
#     4   8  17  36  61  89 118 164 211 254 311 366
#     4  12  24  38  64  99 121 160 221 264 303 374
#     4  11  23  42  64  91 125 171 210 260 322 377
#     4  10  23  41  64  88 130 170 208 262 320 376
#
# _framework density 19.124189000000001
#
# number of rings (size 3 to 8) (size 9 to 14) (size 15 to 20)
#    0.000    1.667    3.333    2.000    2.333    2.667 
#    0.000    0.000    0.000    0.000    0.000    0.000 
#    0.000    0.000    0.000    0.000    0.000    0.000 
#
# Total GULP energy -133722.875557 kJ/mol
# GULP energy per Si atom -5571.786482 kJ/mol
# Density = 1.908066 g / cm^3
# Si number density = 19.124189 Si / 1000 Ang^3
#
#
#
# Elastic Constant Matrix: (Units=GPa)
#
#
# Indices 1 2 3 4 5 6 
#
# 1 133.3458 45.5308 42.0088 0.0000 -8.6523 0.0000
# 2 45.5308 70.5024 16.5947 0.0000 -0.7774 0.0000
# 3 42.0088 16.5947 84.0488 0.0000 -8.8658 0.0000
# 4 0.0000 0.0000 0.0000 25.3988 0.0000 -5.4871
# 5 -8.6523 -0.7774 -8.8658 0.0000 31.0164 0.0000
# 6 0.0000 0.0000 0.0000 -5.4871 0.0000 34.1978
#
#
#
# Elastic Compliance Matrix: (Units=1/GPa)
#
#
# Indices 1 2 3 4 5 6 
#
# 1 0.010993 -0.006114 -0.004104 0.000000 0.001740 0.000000
# 2 -0.006114 0.018283 -0.000707 0.000000 -0.001449 0.000000
# 3 -0.004104 -0.000707 0.014400 0.000000 0.002954 0.000000
# 4 0.000000 0.000000 0.000000 0.040786 0.000000 0.006544
# 5 0.001740 -0.001449 0.002954 0.000000 0.033534 0.000000
# 6 0.000000 0.000000 0.000000 0.006544 0.000000 0.030292
#
#
# Mechanical properties :
#
#
# Convention : Reuss Voigt Hill
#
# Bulk Modulus (GPa) = 45.81552 55.12951 50.47252
# Shear Modulus (GPa) = 28.18312 30.37347 29.27829
#
# Velocity S-wave (km/s) = 3.84303 3.98957 3.91699
# Velocity P-wave (km/s) = 6.61065 7.07898 6.84882
#
# Compressibility (1/GPa) = 0.02182667
#
# Stress axis : x y z
#
# Youngs Moduli (GPa) = 90.97037 54.69643 69.44467
#
# Poissons Ratio (x) = 0.33441 0.28497
# Poissons Ratio (y) = 0.55619 0.04908
# Poissons Ratio (z) = 0.37330 0.03866
#
# Static dielectric constant tensor:
#      x y z
#    x 1.978220 0.000000 -0.072720 
#    y 0.000000 1.777730 0.000000 
#    z -0.072720 0.000000 1.738980 
# 
# From -- ./inp_files/152106.got.cif
#   From: 2010.05.17/outbox.cif.g08.bks.cpg/sg15_77_cif.got.tgz:152106.got - 2010.06.03 18:47:42.
