data_PCOD9284310
_publ_section_title
;
Structure prediction by ZEFSAII (Michael W. Deem and Ramdas Pophale) SiO2 
 PCOD9284310
Probable space group: C 2/C
;
_chemical_formula_sum "Si O2"
_cell_formula_units_Z 52
_cell_length_a 9.163468
_cell_length_b 11.418281
_cell_length_c 22.329212
_cell_angle_alpha 90.000000
_cell_angle_beta 78.132243
_cell_angle_gamma 90.000000
_cell_volume 2286.389621
_symmetry_space_group_name_H-M "C 2/C"
_symmetry_group_IT_number 15
_symmetry_cell_setting 'monoclinic'
loop_
_space_group_symop_operation_xyz
x,y,z
-x,y,1/2-z
-x,-y,-z
x,-y,1/2+z
1/2+x,1/2+y,z
1/2-x,1/2+y,1/2-z
1/2-x,1/2-y,-z
1/2+x,1/2-y,1/2+z
loop_
_atom_site_type_symbol
_atom_site_label
_atom_site_fract_x
_atom_site_fract_y
_atom_site_fract_z
Si Si1 0.676997 0.626181 0.485611
Si Si2 0.000000 0.493822 0.250000
Si Si3 0.238400 0.413984 0.316940
Si Si4 0.394961 0.060376 0.555895
Si Si5 0.100778 0.788239 0.548647
Si Si6 0.283548 0.140295 0.346208
Si Si7 0.530264 0.387300 0.683138
O O1 0.750000 0.750000 0.500000
O O2 0.733404 0.551699 0.536877
O O3 0.502648 0.627501 0.484409
O O4 0.766386 0.604213 0.416816
O O5 0.864748 0.419558 0.232732
O O6 0.923238 0.580530 0.304019
O O7 0.136118 0.479065 0.375202
O O8 0.277109 0.281695 0.335426
O O9 0.382301 0.495795 0.305525
O O10 0.482703 0.181277 0.559855
O O11 0.500000 0.000000 0.500000
O O12 0.250000 0.750000 0.500000
O O13 0.111712 0.826067 0.618130
O O14 0.133724 0.091336 0.328665
O O15 0.500000 0.323915 0.750000
#
# Coordination Sequence:
#
# PCOD9284310 Si02
#       7
#     8   4   8   8   8   8   8
#     4   9  18  41  67  88 137 169 216 285 341 398
#     4  12  28  40  68 102 130 180 244 266 344 426
#     4  12  25  43  71  96 132 187 225 279 350 410
#     4  11  21  40  68  98 132 177 228 278 346 415
#     4  10  21  40  68  99 134 179 224 288 349 397
#     4  11  24  46  67  97 137 179 222 289 342 407
#     4  11  23  46  67  97 143 176 230 293 339 418
#
# _framework density 22.743279000000001
#
# number of rings (size 3 to 8) (size 9 to 14) (size 15 to 20)
#    0.000    1.231    6.154    1.846    2.154    1.231 
#    0.000    8.462    0.000    0.000    0.000    0.000 
#    0.000    0.000    0.000    0.000    0.000    0.000 
#
# Total GULP energy -144799.435451 kJ/mol
# GULP energy per Si atom -5569.209056 kJ/mol
# Density = 2.269151 g / cm^3
# Si number density = 22.743279 Si / 1000 Ang^3
#
#
#
# Elastic Constant Matrix: (Units=GPa)
#
#
# Indices 1 2 3 4 5 6 
#
# 1 127.2510 36.7551 52.6543 0.0000 -4.5223 0.0000
# 2 36.7551 70.7471 20.7855 0.0000 7.8729 0.0000
# 3 52.6543 20.7855 146.9176 0.0000 4.9939 0.0000
# 4 0.0000 0.0000 0.0000 23.6954 0.0000 -0.0891
# 5 -4.5223 7.8729 4.9939 0.0000 47.5065 0.0000
# 6 0.0000 0.0000 0.0000 -0.0891 0.0000 28.5736
#
#
#
# Elastic Compliance Matrix: (Units=1/GPa)
#
#
# Indices 1 2 3 4 5 6 
#
# 1 0.010659 -0.004835 -0.003209 0.000000 0.002153 0.000000
# 2 -0.004835 0.017180 -0.000588 0.000000 -0.003246 0.000000
# 3 -0.003209 -0.000588 0.008076 0.000000 -0.001057 0.000000
# 4 0.000000 0.000000 0.000000 0.042203 0.000000 0.000132
# 5 0.002153 -0.003246 -0.001057 0.000000 0.021904 0.000000
# 6 0.000000 0.000000 0.000000 0.000132 0.000000 0.034998
#
#
# Mechanical properties :
#
#
# Convention : Reuss Voigt Hill
#
# Bulk Modulus (GPa) = 53.61262 62.81172 58.21217
# Shear Modulus (GPa) = 31.54557 35.60313 33.57435
#
# Velocity S-wave (km/s) = 3.72832 3.96085 3.84634
# Velocity P-wave (km/s) = 6.49292 6.97104 6.73622
#
# Compressibility (1/GPa) = 0.01865232
#
# Stress axis : x y z
#
# Youngs Moduli (GPa) = 93.81337 58.20592 123.82569
#
# Poissons Ratio (x) = 0.28140 0.39742
# Poissons Ratio (y) = 0.45355 0.07276
# Poissons Ratio (z) = 0.30109 0.03420
#
# Static dielectric constant tensor:
#      x y z
#    x 1.851720 0.000000 -0.064710 
#    y 0.000000 2.062810 0.000000 
#    z -0.064710 0.000000 1.813410 
# 
# From -- ./inp_files/263941.got.cif
#   From: 2010.05.17/outbox.cif.g08.bks.cpg/sg15_132_cif.got.tgz:263941.got - 2010.06.03 18:47:42.
