data_PCOD9284445
_publ_section_title
;
Structure prediction by ZEFSAII (Michael W. Deem and Ramdas Pophale) SiO2 
 PCOD9284445
Probable space group: C 2/C
;
_chemical_formula_sum "Si O2"
_cell_formula_units_Z 56
_cell_length_a 13.010033
_cell_length_b 5.099658
_cell_length_c 32.981606
_cell_angle_alpha 90.000000
_cell_angle_beta 109.600018
_cell_angle_gamma 90.000000
_cell_volume 2061.429992
_symmetry_space_group_name_H-M "C 2/C"
_symmetry_group_IT_number 15
_symmetry_cell_setting 'monoclinic'
loop_
_space_group_symop_operation_xyz
x,y,z
-x,y,1/2-z
-x,-y,-z
x,-y,1/2+z
1/2+x,1/2+y,z
1/2-x,1/2+y,1/2-z
1/2-x,1/2-y,-z
1/2+x,1/2-y,1/2+z
loop_
_atom_site_type_symbol
_atom_site_label
_atom_site_fract_x
_atom_site_fract_y
_atom_site_fract_z
Si Si1 0.885434 0.861858 0.228554
Si Si2 0.928543 0.205205 0.964970
Si Si3 0.284816 0.325847 0.649349
Si Si4 0.668727 0.533603 0.190146
Si Si5 0.486285 0.466013 0.895278
Si Si6 0.127633 0.425928 0.465489
Si Si7 0.178848 0.306961 0.897450
O O1 0.881651 0.060416 0.190305
O O2 0.784197 0.676106 0.206689
O O3 0.865891 0.004140 0.268499
O O4 0.181849 0.435027 0.370291
O O5 0.015996 0.418418 0.961677
O O6 0.902355 0.057233 0.919652
O O7 0.841349 0.321138 0.985471
O O8 0.000000 0.000000 0.000000
O O9 0.500000 0.780155 0.750000
O O10 0.193312 0.240469 0.669940
O O11 0.257471 0.561745 0.614283
O O12 0.580946 0.668363 0.149207
O O13 0.580265 0.301243 0.930312
O O14 0.554616 0.701888 0.884494
O O15 0.203279 0.610324 0.447520
#
# Coordination Sequence:
#
# PCOD9284445 Si02
#       7
#     8   8   8   8   8   8   8
#     4  12  28  52  76 108 148 202 251 325 388 457
#     4   8  16  32  59 108 151 194 247 309 370 450
#     4  12  25  47  68 103 143 190 247 309 375 451
#     4  12  27  49  74 110 148 195 259 317 381 463
#     4  10  21  40  72 109 146 196 253 313 377 456
#     4   9  17  34  67 107 147 194 253 301 379 457
#     4  11  22  42  70 107 141 197 242 304 374 452
#
# _framework density 27.165607000000001
#
# number of rings (size 3 to 8) (size 9 to 14) (size 15 to 20)
#    0.000    1.429    4.286    0.857    0.000    2.857 
#    5.143    0.000    0.000    1.714    0.000    0.000 
#    0.000    0.000    0.000    0.143    0.000    0.000 
#
# Total GULP energy -156735.227793 kJ/mol
# GULP energy per Si atom -5597.686707 kJ/mol
# Density = 2.710378 g / cm^3
# Si number density = 27.165607 Si / 1000 Ang^3
#
#
#
# Elastic Constant Matrix: (Units=GPa)
#
#
# Indices 1 2 3 4 5 6 
#
# 1 73.4689 27.8344 33.8763 0.0000 0.0518 0.0000
# 2 27.8344 134.6241 50.6536 0.0000 -8.4794 0.0000
# 3 33.8763 50.6536 168.5476 0.0000 -12.7113 0.0000
# 4 0.0000 0.0000 0.0000 42.1375 0.0000 -9.1890
# 5 0.0518 -8.4794 -12.7113 0.0000 62.1320 0.0000
# 6 0.0000 0.0000 0.0000 -9.1890 0.0000 42.0883
#
#
#
# Elastic Compliance Matrix: (Units=1/GPa)
#
#
# Indices 1 2 3 4 5 6 
#
# 1 0.015656 -0.002348 -0.002505 0.000000 -0.000846 0.000000
# 2 -0.002348 0.008752 -0.002101 0.000000 0.000767 0.000000
# 3 -0.002505 -0.002101 0.007157 0.000000 0.001180 0.000000
# 4 0.000000 0.000000 0.000000 0.024918 0.000000 0.005440
# 5 -0.000846 0.000767 0.001180 0.000000 0.016441 0.000000
# 6 0.000000 0.000000 0.000000 0.005440 0.000000 0.024947
#
#
# Mechanical properties :
#
#
# Convention : Reuss Voigt Hill
#
# Bulk Modulus (GPa) = 56.62985 66.81879 61.72432
# Shear Modulus (GPa) = 42.49346 46.88998 44.69172
#
# Velocity S-wave (km/s) = 3.95934 4.15912 4.06046
# Velocity P-wave (km/s) = 6.46477 6.90757 6.68983
#
# Compressibility (1/GPa) = 0.01765853
#
# Stress axis : x y z
#
# Youngs Moduli (GPa) = 63.87195 114.25736 139.72794
#
# Poissons Ratio (x) = 0.26825 0.35001
# Poissons Ratio (y) = 0.14996 0.29351
# Poissons Ratio (z) = 0.16000 0.24001
#
# Static dielectric constant tensor:
#      x y z
#    x 2.162680 0.000000 -0.037940 
#    y 0.000000 2.209470 0.000000 
#    z -0.037940 0.000000 2.157800 
# 
# From -- ./inp_files/297737.got.cif
#   From: 2010.05.17/outbox.cif.g08.bks.cpg/sg15_149_cif.got.tgz:297737.got - 2010.06.03 18:47:42.
