data_PCOD9284354
_publ_section_title
;
Structure prediction by ZEFSAII (Michael W. Deem and Ramdas Pophale) SiO2 
 PCOD9284354
Probable space group: C 2/C
;
_chemical_formula_sum "Si O2"
_cell_formula_units_Z 52
_cell_length_a 16.843631
_cell_length_b 23.157191
_cell_length_c 7.966478
_cell_angle_alpha 90.000000
_cell_angle_beta 129.468275
_cell_angle_gamma 90.000000
_cell_volume 2398.789452
_symmetry_space_group_name_H-M "C 2/C"
_symmetry_group_IT_number 15
_symmetry_cell_setting 'monoclinic'
loop_
_space_group_symop_operation_xyz
x,y,z
-x,y,1/2-z
-x,-y,-z
x,-y,1/2+z
1/2+x,1/2+y,z
1/2-x,1/2+y,1/2-z
1/2-x,1/2-y,-z
1/2+x,1/2-y,1/2+z
loop_
_atom_site_type_symbol
_atom_site_label
_atom_site_fract_x
_atom_site_fract_y
_atom_site_fract_z
Si Si1 0.337349 0.447272 0.974301
Si Si2 0.692832 0.979612 0.063468
Si Si3 0.000000 0.765188 0.750000
Si Si4 0.380130 0.361997 0.789968
Si Si5 0.323674 0.195700 0.578043
Si Si6 0.500000 0.053283 0.750000
Si Si7 0.500000 0.540159 0.250000
Si Si8 0.054479 0.378108 0.005082
O O1 0.288142 0.452993 0.089819
O O2 0.242021 0.469194 0.736170
O O3 0.378114 0.384441 0.978214
O O4 0.423744 0.495405 0.059412
O O5 0.596370 0.011184 0.845144
O O6 0.641254 0.926087 0.086763
O O7 0.948850 0.807750 0.820426
O O8 0.909962 0.721762 0.569342
O O9 0.260037 0.352015 0.584400
O O10 0.427758 0.416919 0.757883
O O11 0.250000 0.250000 0.500000
O O12 0.386575 0.175083 0.826321
O O13 0.513017 0.093127 0.933812
O O14 0.000000 0.367405 0.750000
#
# Coordination Sequence:
#
# PCOD9284354 Si02
#       8
#     8   8   4   8   8   4   4   8
#     4  12  23  38  62  96 145 187 230 276 340 430
#     4  12  23  39  62 101 150 195 225 274 345 444
#     4   9  21  42  76  92 118 172 243 295 354 414
#     4  10  21  40  69  97 127 183 233 279 354 432
#     4  10  22  45  70  95 127 178 240 300 364 409
#     4  12  23  44  65 100 169 196 217 282 360 440
#     4  11  22  40  59  96 143 174 228 279 338 426
#     4  12  24  40  70 107 145 192 241 286 356 434
#
# _framework density 21.677600999999999
#
# number of rings (size 3 to 8) (size 9 to 14) (size 15 to 20)
#    0.000    0.923    3.846    4.154    0.000    1.231 
#    0.000    0.000    6.769   15.692    0.000    0.000 
#    0.000    0.000    0.000    0.000    0.000    0.000 
#
# Total GULP energy -144809.865111 kJ/mol
# GULP energy per Si atom -5569.610197 kJ/mol
# Density = 2.162826 g / cm^3
# Si number density = 21.677601 Si / 1000 Ang^3
#
#
#
# Elastic Constant Matrix: (Units=GPa)
#
#
# Indices 1 2 3 4 5 6 
#
# 1 116.8930 53.3131 46.4806 0.0000 13.4566 0.0000
# 2 53.3131 115.2853 48.0670 0.0000 5.8821 0.0000
# 3 46.4806 48.0670 77.7346 0.0000 9.0784 0.0000
# 4 0.0000 0.0000 0.0000 30.2391 0.0000 4.6219
# 5 13.4566 5.8821 9.0784 0.0000 38.9387 0.0000
# 6 0.0000 0.0000 0.0000 4.6219 0.0000 26.8136
#
#
#
# Elastic Compliance Matrix: (Units=1/GPa)
#
#
# Indices 1 2 3 4 5 6 
#
# 1 0.012442 -0.003565 -0.004930 0.000000 -0.002612 0.000000
# 2 -0.003565 0.012709 -0.005805 0.000000 0.000665 0.000000
# 3 -0.004930 -0.005805 0.019635 0.000000 -0.001997 0.000000
# 4 0.000000 0.000000 0.000000 0.033965 0.000000 -0.005855
# 5 -0.002612 0.000665 -0.001997 0.000000 0.026949 0.000000
# 6 0.000000 0.000000 0.000000 -0.005855 0.000000 0.038304
#
#
# Mechanical properties :
#
#
# Convention : Reuss Voigt Hill
#
# Bulk Modulus (GPa) = 61.78112 67.29270 64.53691
# Shear Modulus (GPa) = 28.09031 30.00175 29.04603
#
# Velocity S-wave (km/s) = 3.60366 3.72425 3.66445
# Velocity P-wave (km/s) = 6.77325 7.04296 6.90942
#
# Compressibility (1/GPa) = 0.01618617
#
# Stress axis : x y z
#
# Youngs Moduli (GPa) = 80.37479 78.68487 50.93010
#
# Poissons Ratio (x) = 0.28050 0.25109
# Poissons Ratio (y) = 0.28652 0.29563
# Poissons Ratio (z) = 0.39626 0.45674
#
# Static dielectric constant tensor:
#      x y z
#    x 1.844620 0.000000 -0.040850 
#    y 0.000000 1.803150 0.000000 
#    z -0.040850 0.000000 1.824130 
# 
# From -- ./inp_files/42365.got.cif
#   From: 2010.05.17/outbox.cif.g08.bks.cpg/sg15_22_cif.got.tgz:42365.got - 2010.06.03 18:47:42.
