data_PCOD9284906
_publ_section_title
;
Structure prediction by ZEFSAII (Michael W. Deem and Ramdas Pophale) SiO2 
 PCOD9284906
Probable space group: C 2/C
;
_chemical_formula_sum "Si O2"
_cell_formula_units_Z 56
_cell_length_a 15.191735
_cell_length_b 23.683215
_cell_length_c 8.457739
_cell_angle_alpha 90.000000
_cell_angle_beta 66.402884
_cell_angle_gamma 90.000000
_cell_volume 2788.555418
_symmetry_space_group_name_H-M "C 2/C"
_symmetry_group_IT_number 15
_symmetry_cell_setting 'monoclinic'
loop_
_space_group_symop_operation_xyz
x,y,z
-x,y,1/2-z
-x,-y,-z
x,-y,1/2+z
1/2+x,1/2+y,z
1/2-x,1/2+y,1/2-z
1/2-x,1/2-y,-z
1/2+x,1/2-y,1/2+z
loop_
_atom_site_type_symbol
_atom_site_label
_atom_site_fract_x
_atom_site_fract_y
_atom_site_fract_z
Si Si1 0.401623 0.585514 0.873813
Si Si2 0.606966 0.228615 0.229495
Si Si3 0.095397 0.967288 0.779044
Si Si4 0.448485 0.886013 0.617440
Si Si5 0.808864 0.534805 0.063886
Si Si6 0.863681 0.421601 0.189379
Si Si7 0.751441 0.827280 0.374528
O O1 0.500000 0.615557 0.750000
O O2 0.395437 0.535171 0.748410
O O3 0.315208 0.629378 0.932550
O O4 0.408618 0.554428 0.038424
O O5 0.500000 0.245775 0.250000
O O6 0.589495 0.177899 0.365600
O O7 0.674615 0.279500 0.236445
O O8 0.667215 0.200697 0.040460
O O9 0.197260 0.948537 0.635456
O O10 0.000000 0.950608 0.750000
O O11 0.500000 0.890594 0.750000
O O12 0.361167 0.928777 0.660690
O O13 0.529893 0.903061 0.434798
O O14 0.826464 0.469641 0.094578
O O15 0.856324 0.550744 0.864935
O O16 0.797370 0.366411 0.221570
#
# Coordination Sequence:
#
# PCOD9284906 Si02
#       7
#     8   8   8   8   8   8   8
#     4  11  22  37  60  91 128 168 221 264 324 387
#     4  10  21  41  65  94 123 169 225 276 320 376
#     4  11  23  37  57  88 134 173 209 265 323 389
#     4  11  22  43  67  95 131 171 215 275 324 390
#     4  12  25  40  66  98 140 177 208 265 339 405
#     4  12  24  40  65 101 138 169 218 263 335 399
#     4  11  22  38  66  95 124 170 221 270 323 387
#
# _framework density 20.082083000000001
#
# number of rings (size 3 to 8) (size 9 to 14) (size 15 to 20)
#    0.000    0.857    4.286    5.571    2.000    0.000 
#    0.000    0.714    0.000    0.000    0.000    0.000 
#    0.000    0.000    0.000    0.000    0.000    0.000 
#
# Total GULP energy -156358.646544 kJ/mol
# GULP energy per Si atom -5584.237377 kJ/mol
# Density = 2.003638 g / cm^3
# Si number density = 20.082083 Si / 1000 Ang^3
#
#
#
# Elastic Constant Matrix: (Units=GPa)
#
#
# Indices 1 2 3 4 5 6 
#
# 1 122.3177 53.3433 27.2013 0.0000 -29.6016 0.0000
# 2 53.3433 106.7224 30.5224 0.0000 -4.3654 0.0000
# 3 27.2013 30.5224 89.2045 0.0000 -15.2318 0.0000
# 4 0.0000 0.0000 0.0000 13.7259 0.0000 -22.5184
# 5 -29.6016 -4.3654 -15.2318 0.0000 31.9185 0.0000
# 6 0.0000 0.0000 0.0000 -22.5184 0.0000 31.4194
#
#
#
# Elastic Compliance Matrix: (Units=1/GPa)
#
#
# Indices 1 2 3 4 5 6 
#
# 1 0.013895 -0.006461 0.000025 0.000000 0.012015 0.000000
# 2 -0.006461 0.013393 -0.003618 0.000000 -0.005887 0.000000
# 3 0.000025 -0.003618 0.013456 0.000000 0.005950 0.000000
# 4 0.000000 0.000000 0.000000 -0.414411 0.000000 -0.297010
# 5 0.012015 -0.005887 0.005950 0.000000 0.044507 0.000000
# 6 0.000000 0.000000 0.000000 -0.297010 0.000000 -0.181040
#
#
# Mechanical properties :
#
#
# Convention : Reuss Voigt Hill
#
# Bulk Modulus (GPa) = 48.45453 60.04207 54.24830
# Shear Modulus (GPa) = -10.34740 29.22461 9.43860
#
# Velocity S-wave (km/s) = -2.27239 3.81892 2.17030
# Velocity P-wave (km/s) = 4.15880 7.02914 5.77514
#
# Compressibility (1/GPa) = 0.02063790
#
# Stress axis : x y z
#
# Youngs Moduli (GPa) = 71.96733 74.66372 74.31442
#
# Poissons Ratio (x) = 0.48240 -0.00187
# Poissons Ratio (y) = 0.46498 0.26885
# Poissons Ratio (z) = -0.00181 0.27011
#
# Static dielectric constant tensor:
#      x y z
#    x 1.763950 0.000000 -0.025070 
#    y 0.000000 1.719070 0.000000 
#    z -0.025070 0.000000 1.708730 
# 
# From -- ./inp_files/42104.got.cif
#   From: 2010.05.17/outbox.cif.g08.bks.cpg/sg15_22_cif.got.tgz:42104.got - 2010.06.03 18:47:42.
