data_PCOD9284930
_publ_section_title
;
Structure prediction by ZEFSAII (Michael W. Deem and Ramdas Pophale) SiO2 
 PCOD9284930
Probable space group: C 2/C
;
_chemical_formula_sum "Si O2"
_cell_formula_units_Z 44
_cell_length_a 21.711641
_cell_length_b 19.269280
_cell_length_c 14.543024
_cell_angle_alpha 90.000000
_cell_angle_beta 160.908329
_cell_angle_gamma 90.000000
_cell_volume 1990.066322
_symmetry_space_group_name_H-M "C 2/C"
_symmetry_group_IT_number 15
_symmetry_cell_setting 'monoclinic'
loop_
_space_group_symop_operation_xyz
x,y,z
-x,y,1/2-z
-x,-y,-z
x,-y,1/2+z
1/2+x,1/2+y,z
1/2-x,1/2+y,1/2-z
1/2-x,1/2-y,-z
1/2+x,1/2-y,1/2+z
loop_
_atom_site_type_symbol
_atom_site_label
_atom_site_fract_x
_atom_site_fract_y
_atom_site_fract_z
Si Si1 0.226183 0.598904 0.078946
Si Si2 0.757516 0.500136 0.561700
Si Si3 0.426957 0.712015 0.471783
Si Si4 0.193564 0.328514 0.079550
Si Si5 0.201892 0.473463 0.172403
Si Si6 0.000000 0.877145 0.250000
O O1 0.315992 0.671112 0.235903
O O2 0.270438 0.543944 0.222280
O O3 0.296363 0.559128 0.087039
O O4 0.000000 0.606515 0.750000
O O5 0.739929 0.529184 0.639881
O O6 0.642676 0.428809 0.399461
O O7 0.974433 0.479685 0.849557
O O8 0.644150 0.709884 0.748381
O O9 0.349976 0.787733 0.387387
O O10 0.409007 0.670588 0.543168
O O11 0.257697 0.406293 0.193655
O O12 0.000000 0.330519 0.750000
#
# Coordination Sequence:
#
# PCOD9284930 Si02
#       6
#     8   8   8   8   8   4
#     4  10  22  45  67  97 132 173 220 279 326 395
#     4  10  22  36  68  97 131 169 221 277 331 387
#     4  12  27  42  69  97 135 175 224 271 337 394
#     4  12  26  44  66  97 136 176 222 279 330 395
#     4  10  21  41  65  96 130 173 223 272 333 389
#     4  12  22  38  66  98 132 170 216 278 328 398
#
# _framework density 22.109815999999999
#
# number of rings (size 3 to 8) (size 9 to 14) (size 15 to 20)
#    0.000    1.091    2.727    4.364    5.091    1.455 
#    0.000    3.636    0.000    0.000    0.000    0.000 
#    0.000    0.000    0.000    0.000    0.000    0.000 
#
# Total GULP energy -123163.944026 kJ/mol
# GULP energy per Si atom -5598.361092 kJ/mol
# Density = 2.205949 g / cm^3
# Si number density = 22.109816 Si / 1000 Ang^3
#
#
#
# Elastic Constant Matrix: (Units=GPa)
#
#
# Indices 1 2 3 4 5 6 
#
# 1 79.8709 2.3155 24.5495 0.0000 -8.6731 0.0000
# 2 2.3155 49.6540 10.4960 0.0000 4.2419 0.0000
# 3 24.5495 10.4960 50.8599 0.0000 -4.3771 0.0000
# 4 0.0000 0.0000 0.0000 14.3245 0.0000 0.5921
# 5 -8.6731 4.2419 -4.3771 0.0000 32.1408 0.0000
# 6 0.0000 0.0000 0.0000 0.5921 0.0000 39.3811
#
#
#
# Elastic Compliance Matrix: (Units=1/GPa)
#
#
# Indices 1 2 3 4 5 6 
#
# 1 0.015014 0.000543 -0.007100 0.000000 0.003013 0.000000
# 2 0.000543 0.021454 -0.004979 0.000000 -0.003363 0.000000
# 3 -0.007100 -0.004979 0.024293 0.000000 0.002050 0.000000
# 4 0.000000 0.000000 0.000000 0.069854 0.000000 -0.001050
# 5 0.003013 -0.003363 0.002050 0.000000 0.032649 0.000000
# 6 0.000000 0.000000 0.000000 -0.001050 0.000000 0.025409
#
#
# Mechanical properties :
#
#
# Convention : Reuss Voigt Hill
#
# Bulk Modulus (GPa) = 26.53283 28.34518 27.43900
# Shear Modulus (GPa) = 22.29091 26.70419 24.49755
#
# Velocity S-wave (km/s) = 3.17865 3.47911 3.33227
# Velocity P-wave (km/s) = 5.04958 5.38395 5.21944
#
# Compressibility (1/GPa) = 0.03768916
#
# Stress axis : x y z
#
# Youngs Moduli (GPa) = 66.60510 46.61177 41.16447
#
# Poissons Ratio (x) = -0.02532 0.29226
# Poissons Ratio (y) = -0.03618 0.20496
# Poissons Ratio (z) = 0.47289 0.23208
#
# Static dielectric constant tensor:
#      x y z
#    x 1.826730 0.000000 0.016320 
#    y 0.000000 1.784770 0.000000 
#    z 0.016320 0.000000 1.830400 
# 
# From -- ./inp_files/147002.got.cif
#   From: 2010.05.17/outbox.cif.g08.bks.cpg/sg15_74_cif.got.tgz:147002.got - 2010.06.03 18:47:42.
