data_PCOD9284679
_publ_section_title
;
Structure prediction by ZEFSAII (Michael W. Deem and Ramdas Pophale) SiO2 
 PCOD9284679
Probable space group: C 2/C
;
_chemical_formula_sum "Si O2"
_cell_formula_units_Z 44
_cell_length_a 26.427542
_cell_length_b 18.826515
_cell_length_c 4.999113
_cell_angle_alpha 90.000000
_cell_angle_beta 129.359954
_cell_angle_gamma 90.000000
_cell_volume 1923.085519
_symmetry_space_group_name_H-M "C 2/C"
_symmetry_group_IT_number 15
_symmetry_cell_setting 'monoclinic'
loop_
_space_group_symop_operation_xyz
x,y,z
-x,y,1/2-z
-x,-y,-z
x,-y,1/2+z
1/2+x,1/2+y,z
1/2-x,1/2+y,1/2-z
1/2-x,1/2-y,-z
1/2+x,1/2-y,1/2+z
loop_
_atom_site_type_symbol
_atom_site_label
_atom_site_fract_x
_atom_site_fract_y
_atom_site_fract_z
Si Si1 0.500000 0.295057 0.750000
Si Si2 0.326581 0.751289 0.323880
Si Si3 0.862581 0.831737 0.448265
Si Si4 0.944753 0.661912 0.263263
Si Si5 0.111692 0.548879 0.051958
Si Si6 0.738266 0.545641 0.873044
O O1 0.438769 0.340291 0.641251
O O2 0.472778 0.238913 0.441781
O O3 0.337513 0.732041 0.671079
O O4 0.371793 0.819820 0.406279
O O5 0.250000 0.750000 0.000000
O O6 0.355093 0.689997 0.230062
O O7 0.815855 0.897380 0.235007
O O8 0.000000 0.632498 0.250000
O O9 0.931072 0.612347 0.472693
O O10 0.101252 0.517040 0.723433
O O11 0.187658 0.571539 0.331744
O O12 0.731607 0.522030 0.544468
#
# Coordination Sequence:
#
# PCOD9284679 Si02
#       6
#     4   8   8   8   8   8
#     4  10  24  42  60  94 128 166 206 254 318 382
#     4  11  23  38  63  95 121 162 216 262 314 366
#     4  11  22  40  64  90 127 164 201 262 319 370
#     4  11  23  41  62  87 131 166 206 255 310 372
#     4  10  24  40  61  88 121 163 211 255 302 362
#     4  10  21  41  63  91 122 160 207 260 311 363
#
# _framework density 22.879897
#
# number of rings (size 3 to 8) (size 9 to 14) (size 15 to 20)
#    0.000    1.455    1.818    2.727    2.545    5.091 
#    0.000    0.909    0.000    0.000    0.000    0.000 
#    0.000    0.000    0.000    0.000    0.000    0.000 
#
# Total GULP energy -123049.554918 kJ/mol
# GULP energy per Si atom -5593.161587 kJ/mol
# Density = 2.282782 g / cm^3
# Si number density = 22.879897 Si / 1000 Ang^3
#
#
#
# Elastic Constant Matrix: (Units=GPa)
#
#
# Indices 1 2 3 4 5 6 
#
# 1 154.1329 39.2651 37.6575 0.0000 44.6711 0.0000
# 2 39.2651 49.7997 17.9023 0.0000 28.8874 0.0000
# 3 37.6575 17.9023 75.0659 0.0000 21.1331 0.0000
# 4 0.0000 0.0000 0.0000 22.4401 0.0000 6.5973
# 5 44.6711 28.8874 21.1331 0.0000 50.9382 0.0000
# 6 0.0000 0.0000 0.0000 6.5973 0.0000 45.0526
#
#
#
# Elastic Compliance Matrix: (Units=1/GPa)
#
#
# Indices 1 2 3 4 5 6 
#
# 1 0.009533 -0.003543 -0.002434 0.000000 -0.005341 0.000000
# 2 -0.003543 0.031722 -0.001809 0.000000 -0.014132 0.000000
# 3 -0.002434 -0.001809 0.015947 0.000000 -0.003456 0.000000
# 4 0.000000 0.000000 0.000000 0.046568 0.000000 -0.006819
# 5 -0.005341 -0.014132 -0.003456 0.000000 0.033764 0.000000
# 6 0.000000 0.000000 0.000000 -0.006819 0.000000 0.023195
#
#
# Mechanical properties :
#
#
# Convention : Reuss Voigt Hill
#
# Bulk Modulus (GPa) = 24.02150 52.07204 38.04677
# Shear Modulus (GPa) = 26.29122 35.96442 31.12782
#
# Velocity S-wave (km/s) = 3.39351 3.96899 3.69248
# Velocity P-wave (km/s) = 5.08688 6.61907 5.90290
#
# Compressibility (1/GPa) = 0.04162938
#
# Stress axis : x y z
#
# Youngs Moduli (GPa) = 104.89734 31.52377 62.70827
#
# Poissons Ratio (x) = 0.11170 0.15261
# Poissons Ratio (y) = 0.37169 0.11346
# Poissons Ratio (z) = 0.25528 0.05704
#
# Static dielectric constant tensor:
#      x y z
#    x 1.852320 0.000000 0.013490 
#    y 0.000000 1.838600 0.000000 
#    z 0.013490 0.000000 1.898410 
# 
# From -- ./inp_files/10278.got.cif
#   From: 2010.05.17/outbox.cif.g08.bks.cpg/sg15_6_cif.got.tgz:10278.got - 2010.06.03 18:47:42.
