data_PCOD9284859
_publ_section_title
;
Structure prediction by ZEFSAII (Michael W. Deem and Ramdas Pophale) SiO2 
 PCOD9284859
Probable space group: C 2/C
;
_chemical_formula_sum "Si O2"
_cell_formula_units_Z 48
_cell_length_a 13.755465
_cell_length_b 15.691837
_cell_length_c 11.007407
_cell_angle_alpha 90.000000
_cell_angle_beta 87.438969
_cell_angle_gamma 90.000000
_cell_volume 2373.559350
_symmetry_space_group_name_H-M "C 2/C"
_symmetry_group_IT_number 15
_symmetry_cell_setting 'monoclinic'
loop_
_space_group_symop_operation_xyz
x,y,z
-x,y,1/2-z
-x,-y,-z
x,-y,1/2+z
1/2+x,1/2+y,z
1/2-x,1/2+y,1/2-z
1/2-x,1/2-y,-z
1/2+x,1/2-y,1/2+z
loop_
_atom_site_type_symbol
_atom_site_label
_atom_site_fract_x
_atom_site_fract_y
_atom_site_fract_z
Si Si1 0.961315 0.396087 0.116802
Si Si2 0.505699 0.345447 0.444881
Si Si3 0.337905 0.621258 0.371343
Si Si4 0.000000 0.006612 0.750000
Si Si5 0.000000 0.301985 0.750000
Si Si6 0.619722 0.917684 0.911281
Si Si7 0.096913 0.218455 0.332282
O O1 0.907653 0.483018 0.089341
O O2 0.893959 0.312991 0.117179
O O3 0.000000 0.406176 0.250000
O O4 0.053491 0.381625 0.024163
O O5 0.604033 0.338704 0.518697
O O6 0.516811 0.429433 0.362352
O O7 0.483211 0.264603 0.361009
O O8 0.423825 0.345213 0.555118
O O9 0.409459 0.551692 0.301602
O O10 0.234353 0.589111 0.419873
O O11 0.321323 0.689535 0.264852
O O12 0.916414 0.366106 0.706231
O O13 0.000000 0.219716 0.250000
#
# Coordination Sequence:
#
# PCOD9284859 Si02
#       7
#     8   8   8   4   4   8   8
#     4  10  21  43  65  90 130 173 205 267 319 375
#     4  10  21  41  65  88 131 172 206 268 330 370
#     4  11  23  41  67  97 127 172 221 261 317 398
#     4  11  22  40  65  94 138 168 211 276 326 369
#     4  11  22  44  61  92 134 162 209 276 324 367
#     4  11  24  41  67  96 130 168 221 260 320 392
#     4   9  18  39  64  88 126 167 207 263 321 370
#
# _framework density 20.222792999999999
#
# number of rings (size 3 to 8) (size 9 to 14) (size 15 to 20)
#    0.000    1.667    5.000    0.500    0.000    2.000 
#    6.000    0.833    0.000    0.000    0.000    0.000 
#    0.000    0.000    0.000    0.000    0.000    0.000 
#
# Total GULP energy -133746.103405 kJ/mol
# GULP energy per Si atom -5572.754309 kJ/mol
# Density = 2.017676 g / cm^3
# Si number density = 20.222793 Si / 1000 Ang^3
#
#
#
# Elastic Constant Matrix: (Units=GPa)
#
#
# Indices 1 2 3 4 5 6 
#
# 1 71.4486 22.3225 36.5385 0.0000 -14.1133 0.0000
# 2 22.3225 94.9810 42.1492 0.0000 -12.9706 0.0000
# 3 36.5385 42.1492 121.8676 0.0000 -1.9589 0.0000
# 4 0.0000 0.0000 0.0000 31.8150 0.0000 7.1044
# 5 -14.1133 -12.9706 -1.9589 0.0000 19.5358 0.0000
# 6 0.0000 0.0000 0.0000 7.1044 0.0000 4.7668
#
#
#
# Elastic Compliance Matrix: (Units=1/GPa)
#
#
# Indices 1 2 3 4 5 6 
#
# 1 0.019571 -0.000313 -0.005545 0.000000 0.013376 0.000000
# 2 -0.000313 0.013769 -0.004532 0.000000 0.008461 0.000000
# 3 -0.005545 -0.004532 0.011341 0.000000 -0.005878 0.000000
# 4 0.000000 0.000000 0.000000 0.047111 0.000000 -0.070213
# 5 0.013376 0.008461 -0.005878 0.000000 0.065880 0.000000
# 6 0.000000 0.000000 0.000000 -0.070213 0.000000 0.314429
#
#
# Mechanical properties :
#
#
# Convention : Reuss Voigt Hill
#
# Bulk Modulus (GPa) = 41.83778 54.47972 48.15875
# Shear Modulus (GPa) = 9.98310 23.70932 16.84621
#
# Velocity S-wave (km/s) = 2.22425 3.42776 2.88936
# Velocity P-wave (km/s) = 5.22778 6.53179 5.91582
#
# Compressibility (1/GPa) = 0.02390184
#
# Stress axis : x y z
#
# Youngs Moduli (GPa) = 51.09490 72.62898 88.17444
#
# Poissons Ratio (x) = 0.02270 0.48891
# Poissons Ratio (y) = 0.01597 0.39963
# Poissons Ratio (z) = 0.28331 0.32918
#
# Static dielectric constant tensor:
#      x y z
#    x 1.678580 0.000000 0.001450 
#    y 0.000000 1.789790 0.000000 
#    z 0.001450 0.000000 1.741330 
# 
# From -- ./inp_files/96339.got.cif
#   From: 2010.05.17/outbox.cif.g08.bks.cpg/sg15_49_cif.got.tgz:96339.got - 2010.06.03 18:47:42.
