data_PCOD9284590
_publ_section_title
;
Structure prediction by ZEFSAII (Michael W. Deem and Ramdas Pophale) SiO2 
 PCOD9284590
Probable space group: C 2/C
;
_chemical_formula_sum "Si O2"
_cell_formula_units_Z 48
_cell_length_a 7.989593
_cell_length_b 18.039708
_cell_length_c 19.215550
_cell_angle_alpha 90.000000
_cell_angle_beta 55.798919
_cell_angle_gamma 90.000000
_cell_volume 2290.599869
_symmetry_space_group_name_H-M "C 2/C"
_symmetry_group_IT_number 15
_symmetry_cell_setting 'monoclinic'
loop_
_space_group_symop_operation_xyz
x,y,z
-x,y,1/2-z
-x,-y,-z
x,-y,1/2+z
1/2+x,1/2+y,z
1/2-x,1/2+y,1/2-z
1/2-x,1/2-y,-z
1/2+x,1/2-y,1/2+z
loop_
_atom_site_type_symbol
_atom_site_label
_atom_site_fract_x
_atom_site_fract_y
_atom_site_fract_z
Si Si1 0.942745 0.399702 0.152316
Si Si2 0.982227 0.440762 0.835339
Si Si3 0.997883 0.701506 0.994446
Si Si4 0.264594 0.689202 0.324134
Si Si5 0.186551 0.858691 0.332630
Si Si6 0.346727 0.357179 0.514425
O O1 0.973869 0.486125 0.129849
O O2 0.956430 0.346181 0.083671
O O3 0.739461 0.391790 0.245479
O O4 0.124484 0.374063 0.160609
O O5 0.143930 0.376431 0.814301
O O6 0.000000 0.460829 0.750000
O O7 0.758171 0.412042 0.907034
O O8 0.035648 0.789054 0.976831
O O9 0.158548 0.676073 0.015327
O O10 0.783766 0.685539 0.081803
O O11 0.500000 0.688275 0.250000
O O12 0.173144 0.769853 0.325626
O O13 0.995379 0.888184 0.420221
#
# Coordination Sequence:
#
# PCOD9284590 Si02
#       6
#     8   8   8   8   8   8
#     4  11  22  41  59  90 129 159 189 256 308 352
#     4  11  24  41  60  90 127 156 200 254 302 354
#     4   9  21  40  63  91 121 158 204 250 298 359
#     4  10  21  41  63  87 120 158 205 246 294 363
#     4  10  21  41  62  89 123 159 204 245 297 366
#     4   9  21  40  61  93 118 157 211 245 292 365
#
# _framework density 20.955210000000001
#
# number of rings (size 3 to 8) (size 9 to 14) (size 15 to 20)
#    0.000    2.000    3.333    1.000    2.333    8.000 
#    6.000    0.000    0.000    0.000    0.000    0.000 
#    0.000    0.000    0.000    0.000    0.000    0.000 
#
# Total GULP energy -133952.578487 kJ/mol
# GULP energy per Si atom -5581.357437 kJ/mol
# Density = 2.090751 g / cm^3
# Si number density = 20.955210 Si / 1000 Ang^3
#
#
#
# Elastic Constant Matrix: (Units=GPa)
#
#
# Indices 1 2 3 4 5 6 
#
# 1 30.1067 4.8983 27.6328 0.0000 -4.2177 0.0000
# 2 4.8983 85.3905 34.5658 0.0000 2.2247 0.0000
# 3 27.6328 34.5658 189.0237 0.0000 -24.8123 0.0000
# 4 0.0000 0.0000 0.0000 -4.0457 0.0000 27.8550
# 5 -4.2177 2.2247 -24.8123 0.0000 29.0177 0.0000
# 6 0.0000 0.0000 0.0000 27.8550 0.0000 -5.4525
#
#
#
# Elastic Compliance Matrix: (Units=1/GPa)
#
#
# Indices 1 2 3 4 5 6 
#
# 1 0.038382 0.000000 -0.005495 0.000000 0.000880 0.000000
# 2 0.000000 0.012937 -0.002812 0.000000 -0.003396 0.000000
# 3 -0.005495 -0.002812 0.007357 0.000000 0.005708 0.000000
# 4 0.000000 0.000000 0.000000 0.007233 0.000000 0.036951
# 5 0.000880 -0.003396 0.005708 0.000000 0.039730 0.000000
# 6 0.000000 0.000000 0.000000 0.036951 0.000000 0.005367
#
#
# Mechanical properties :
#
#
# Convention : Reuss Voigt Hill
#
# Bulk Modulus (GPa) = 23.77411 48.74609 36.26010
# Shear Modulus (GPa) = 35.30020 19.73218 27.51619
#
# Velocity S-wave (km/s) = 4.10879 3.07194 3.62760
# Velocity P-wave (km/s) = 5.82059 5.99124 5.90653
#
# Compressibility (1/GPa) = 0.04206257
#
# Stress axis : x y z
#
# Youngs Moduli (GPa) = 26.05361 77.29471 135.92387
#
# Poissons Ratio (x) = 0.00001 0.74697
# Poissons Ratio (y) = 0.00000 0.38216
# Poissons Ratio (z) = 0.14318 0.21732
#
# Static dielectric constant tensor:
#      x y z
#    x 1.758340 0.000000 -0.032880 
#    y 0.000000 1.759090 0.000000 
#    z -0.032880 0.000000 1.806030 
# 
# From -- ./inp_files/232512.got.cif
#   From: 2010.05.17/outbox.cif.g08.bks.cpg/sg15_117_cif.got.tgz:232512.got - 2010.06.03 18:47:42.
