data_PCOD9284295
_publ_section_title
;
Structure prediction by ZEFSAII (Michael W. Deem and Ramdas Pophale) SiO2 
 PCOD9284295
Probable space group: C 2/C
;
_chemical_formula_sum "Si O2"
_cell_formula_units_Z 60
_cell_length_a 8.474953
_cell_length_b 20.497374
_cell_length_c 22.578895
_cell_angle_alpha 90.000000
_cell_angle_beta 49.752698
_cell_angle_gamma 90.000000
_cell_volume 2993.728126
_symmetry_space_group_name_H-M "C 2/C"
_symmetry_group_IT_number 15
_symmetry_cell_setting 'monoclinic'
loop_
_space_group_symop_operation_xyz
x,y,z
-x,y,1/2-z
-x,-y,-z
x,-y,1/2+z
1/2+x,1/2+y,z
1/2-x,1/2+y,1/2-z
1/2-x,1/2-y,-z
1/2+x,1/2-y,1/2+z
loop_
_atom_site_type_symbol
_atom_site_label
_atom_site_fract_x
_atom_site_fract_y
_atom_site_fract_z
Si Si1 0.084671 0.709665 0.669323
Si Si2 0.576277 0.623267 0.401006
Si Si3 0.918324 0.102482 0.563784
Si Si4 0.247103 0.850419 0.620221
Si Si5 0.755376 0.500017 0.800941
Si Si6 0.275711 0.742070 0.835362
Si Si7 0.500000 0.538346 0.250000
Si Si8 0.289868 0.818195 0.024339
O O1 0.248829 0.660521 0.601389
O O2 0.188545 0.779304 0.660848
O O3 0.000000 0.678718 0.750000
O O4 0.894859 0.724374 0.672284
O O5 0.489845 0.587857 0.479944
O O6 0.380527 0.645039 0.409727
O O7 0.711223 0.574250 0.329963
O O8 0.714870 0.687237 0.377146
O O9 0.843059 0.045983 0.625106
O O10 0.118405 0.132338 0.545269
O O11 0.164174 0.911460 0.678923
O O12 0.487408 0.846479 0.547078
O O13 0.632236 0.503147 0.767096
O O14 0.000000 0.511452 0.750000
O O15 0.500000 0.741999 0.750000
O O16 0.245194 0.693900 0.897670
O O17 0.250000 0.750000 0.000000
#
# Coordination Sequence:
#
# PCOD9284295 Si02
#       8
#     8   8   8   8   8   8   4   8
#     4  11  21  37  63  93 134 170 210 268 338 392
#     4  10  22  42  67  92 124 173 228 271 326 391
#     4  12  24  42  62  95 137 171 217 266 336 407
#     4  10  21  40  68  98 128 170 218 282 326 387
#     4  11  26  47  69  93 129 180 223 280 334 395
#     4  11  23  38  63 101 133 170 221 273 330 396
#     4  10  24  48  72  98 130 170 244 282 326 402
#     4  12  23  38  64 100 140 171 210 270 338 401
#
# _framework density 20.041900999999999
#
# number of rings (size 3 to 8) (size 9 to 14) (size 15 to 20)
#    0.000    1.067    3.333    2.800    1.867    2.133 
#    8.400    1.333    0.000    0.000    0.000    0.000 
#    0.000    0.000    0.000    0.000    0.000    0.000 
#
# Total GULP energy -167479.735526 kJ/mol
# GULP energy per Si atom -5582.657851 kJ/mol
# Density = 1.999628 g / cm^3
# Si number density = 20.041901 Si / 1000 Ang^3
#
#
#
# Elastic Constant Matrix: (Units=GPa)
#
#
# Indices 1 2 3 4 5 6 
#
# 1 93.9041 23.0258 67.3675 0.0000 -11.6922 0.0000
# 2 23.0258 37.1081 17.1339 0.0000 -12.0986 0.0000
# 3 67.3675 17.1339 130.1360 0.0000 -16.6119 0.0000
# 4 0.0000 0.0000 0.0000 22.8179 0.0000 1.6792
# 5 -11.6922 -12.0986 -16.6119 0.0000 46.3351 0.0000
# 6 0.0000 0.0000 0.0000 1.6792 0.0000 8.7891
#
#
#
# Elastic Compliance Matrix: (Units=1/GPa)
#
#
# Indices 1 2 3 4 5 6 
#
# 1 0.018776 -0.007747 -0.008754 0.000000 -0.000423 0.000000
# 2 -0.007747 0.033842 0.000454 0.000000 0.007044 0.000000
# 3 -0.008754 0.000454 0.012460 0.000000 0.002376 0.000000
# 4 0.000000 0.000000 0.000000 0.044450 0.000000 -0.008492
# 5 -0.000423 0.007044 0.002376 0.000000 0.024166 0.000000
# 6 0.000000 0.000000 0.000000 -0.008492 0.000000 0.115399
#
#
# Mechanical properties :
#
#
# Convention : Reuss Voigt Hill
#
# Bulk Modulus (GPa) = 30.31750 52.91141 41.61445
# Shear Modulus (GPa) = 17.11257 25.82981 21.47119
#
# Velocity S-wave (km/s) = 2.92522 3.59387 3.27665
# Velocity P-wave (km/s) = 5.15453 6.60900 5.92655
#
# Compressibility (1/GPa) = 0.03298425
#
# Stress axis : x y z
#
# Youngs Moduli (GPa) = 53.25907 29.54869 80.25985
#
# Poissons Ratio (x) = 0.22891 0.70259
# Poissons Ratio (y) = 0.41258 -0.03642
# Poissons Ratio (z) = 0.46623 -0.01341
#
# Static dielectric constant tensor:
#      x y z
#    x 1.716740 0.000000 0.022040 
#    y 0.000000 1.722560 0.000000 
#    z 0.022040 0.000000 1.764070 
# 
# From -- ./inp_files/266218.got.cif
#   From: 2010.05.17/outbox.cif.g08.bks.cpg/sg15_134_cif.got.tgz:266218.got - 2010.06.03 18:47:42.
