data_PCOD9284550
_publ_section_title
;
Structure prediction by ZEFSAII (Michael W. Deem and Ramdas Pophale) SiO2 
 PCOD9284550
Probable space group: C 2/C
;
_chemical_formula_sum "Si O2"
_cell_formula_units_Z 64
_cell_length_a 13.221867
_cell_length_b 8.628229
_cell_length_c 26.733463
_cell_angle_alpha 90.000000
_cell_angle_beta 101.561808
_cell_angle_gamma 90.000000
_cell_volume 2987.905063
_symmetry_space_group_name_H-M "C 2/C"
_symmetry_group_IT_number 15
_symmetry_cell_setting 'monoclinic'
loop_
_space_group_symop_operation_xyz
x,y,z
-x,y,1/2-z
-x,-y,-z
x,-y,1/2+z
1/2+x,1/2+y,z
1/2-x,1/2+y,1/2-z
1/2-x,1/2-y,-z
1/2+x,1/2-y,1/2+z
loop_
_atom_site_type_symbol
_atom_site_label
_atom_site_fract_x
_atom_site_fract_y
_atom_site_fract_z
Si Si1 0.659330 0.388585 0.440243
Si Si2 0.316720 0.094498 0.504347
Si Si3 0.283839 0.822718 0.645000
Si Si4 0.916962 0.102912 0.148765
Si Si5 0.554459 0.199862 0.077415
Si Si6 0.377307 0.591189 0.732968
Si Si7 0.872315 0.943250 0.343894
Si Si8 0.937819 0.556500 0.620096
O O1 0.740441 0.446813 0.489491
O O2 0.707522 0.269879 0.405572
O O3 0.648588 0.546484 0.405450
O O4 0.549617 0.305562 0.444581
O O5 0.250000 0.250000 0.500000
O O6 0.396448 0.121955 0.466502
O O7 0.378758 0.077336 0.561683
O O8 0.318256 0.713922 0.693257
O O9 0.173939 0.898389 0.640655
O O10 0.362564 0.965676 0.649770
O O11 0.957419 0.275239 0.144806
O O12 0.870982 0.067259 0.199110
O O13 0.007669 0.976399 0.153138
O O14 0.634129 0.312113 0.114571
O O15 0.527060 0.064012 0.114105
O O16 0.500000 0.630021 0.750000
O O17 0.331379 0.587398 0.784131
#
# Coordination Sequence:
#
# PCOD9284550 Si02
#       8
#     8   8   8   8   8   8   8   8
#     4   9  21  42  60  88 126 164 201 262 311 364
#     4  12  23  39  64  95 123 168 215 259 309 371
#     4  10  22  39  62  90 121 162 203 259 310 368
#     4   9  19  38  62  85 124 157 198 254 309 369
#     4  10  24  42  61  90 130 166 208 261 316 372
#     4   9  19  41  64  85 124 161 199 252 324 379
#     4  10  21  41  61  91 119 163 204 252 317 374
#     4  11  22  40  59  91 125 162 210 253 312 368
#
# _framework density 21.419689999999999
#
# number of rings (size 3 to 8) (size 9 to 14) (size 15 to 20)
#    0.000    2.000    1.250    3.375    1.750    3.500 
#    4.500    6.875    0.000    0.000    0.000    0.000 
#    0.000    0.000    0.000    0.000    0.000    0.000 
#
# Total GULP energy -178467.363029 kJ/mol
# GULP energy per Si atom -5577.105095 kJ/mol
# Density = 2.137094 g / cm^3
# Si number density = 21.419690 Si / 1000 Ang^3
#
#
#
# Elastic Constant Matrix: (Units=GPa)
#
#
# Indices 1 2 3 4 5 6 
#
# 1 37.9220 5.0991 7.9616 0.0000 -10.6285 0.0000
# 2 5.0991 97.7929 20.5178 0.0000 4.9471 0.0000
# 3 7.9616 20.5178 65.9800 0.0000 3.8414 0.0000
# 4 0.0000 0.0000 0.0000 22.3797 0.0000 7.7488
# 5 -10.6285 4.9471 3.8414 0.0000 18.1220 0.0000
# 6 0.0000 0.0000 0.0000 7.7488 0.0000 11.5699
#
#
#
# Elastic Compliance Matrix: (Units=1/GPa)
#
#
# Indices 1 2 3 4 5 6 
#
# 1 0.033538 -0.001831 -0.004710 0.000000 0.021168 0.000000
# 2 -0.001831 0.011134 -0.003039 0.000000 -0.003469 0.000000
# 3 -0.004710 -0.003039 0.016992 0.000000 -0.005534 0.000000
# 4 0.000000 0.000000 0.000000 0.058173 0.000000 -0.038961
# 5 0.021168 -0.003469 -0.005534 0.000000 0.069717 0.000000
# 6 0.000000 0.000000 0.000000 -0.038961 0.000000 0.112525
#
#
# Mechanical properties :
#
#
# Convention : Reuss Voigt Hill
#
# Bulk Modulus (GPa) = 23.52795 29.87246 26.70021
# Shear Modulus (GPa) = 14.90719 21.62207 18.26463
#
# Velocity S-wave (km/s) = 2.64096 3.18063 2.92328
# Velocity P-wave (km/s) = 4.50641 5.24071 4.88737
#
# Compressibility (1/GPa) = 0.04250264
#
# Stress axis : x y z
#
# Youngs Moduli (GPa) = 29.81699 89.81175 58.85178
#
# Poissons Ratio (x) = 0.16448 0.27718
# Poissons Ratio (y) = 0.05461 0.17888
# Poissons Ratio (z) = 0.14043 0.27298
#
# Static dielectric constant tensor:
#      x y z
#    x 1.857640 0.000000 0.014170 
#    y 0.000000 1.790440 0.000000 
#    z 0.014170 0.000000 1.818460 
# 
# From -- ./inp_files/295203.got.cif
#   From: 2010.05.17/outbox.cif.g08.bks.cpg/sg15_148_cif.got.tgz:295203.got - 2010.06.03 18:47:42.
