data_PCOD9284119
_publ_section_title
;
Structure prediction by ZEFSAII (Michael W. Deem and Ramdas Pophale) SiO2 
 PCOD9284119
Probable space group: C 2/C
;
_chemical_formula_sum "Si O2"
_cell_formula_units_Z 40
_cell_length_a 14.353844
_cell_length_b 12.718722
_cell_length_c 13.473813
_cell_angle_alpha 90.000000
_cell_angle_beta 143.504217
_cell_angle_gamma 90.000000
_cell_volume 1463.007690
_symmetry_space_group_name_H-M "C 2/C"
_symmetry_group_IT_number 15
_symmetry_cell_setting 'monoclinic'
loop_
_space_group_symop_operation_xyz
x,y,z
-x,y,1/2-z
-x,-y,-z
x,-y,1/2+z
1/2+x,1/2+y,z
1/2-x,1/2+y,1/2-z
1/2-x,1/2-y,-z
1/2+x,1/2-y,1/2+z
loop_
_atom_site_type_symbol
_atom_site_label
_atom_site_fract_x
_atom_site_fract_y
_atom_site_fract_z
Si Si1 0.455253 0.738991 0.529129
Si Si2 0.775340 0.067370 0.045482
Si Si3 0.160850 0.588065 0.290449
Si Si4 0.559857 0.243989 0.910210
Si Si5 0.355937 0.459869 0.309819
O O1 0.305686 0.670525 0.432909
O O2 0.507743 0.843032 0.632895
O O3 0.442763 0.760396 0.400713
O O4 0.609338 0.663575 0.666352
O O5 0.870430 0.140130 0.049026
O O6 0.862684 0.999835 0.202980
O O7 0.690388 0.156512 0.038463
O O8 0.669203 0.990412 0.890329
O O9 0.207249 0.511705 0.237374
O O10 0.500000 0.214546 0.750000
O O11 0.500000 0.500000 0.500000
#
# Coordination Sequence:
#
# PCOD9284119 Si02
#       5
#     8   8   8   8   8
#     4  11  24  43  70 104 144 187 244 295 364 434
#     4  11  24  42  69 104 144 184 241 295 369 429
#     4  11  24  45  71 105 144 193 235 304 362 430
#     4  11  23  40  71 104 136 185 246 302 352 435
#     4  10  21  40  66  99 137 185 233 289 355 424
#
# _framework density 27.340937
#
# number of rings (size 3 to 8) (size 9 to 14) (size 15 to 20)
#    0.000    1.200    4.000    2.400    5.600    0.800 
#    3.600    2.000    0.000    0.000    0.000    0.000 
#    0.000    0.000    0.000    0.000    0.000    0.000 
#
# Total GULP energy -112037.798561 kJ/mol
# GULP energy per Si atom -5601.889928 kJ/mol
# Density = 2.727871 g / cm^3
# Si number density = 27.340937 Si / 1000 Ang^3
#
#
#
# Elastic Constant Matrix: (Units=GPa)
#
#
# Indices 1 2 3 4 5 6 
#
# 1 82.9384 44.6057 39.8567 -0.0001 -10.0652 0.0000
# 2 44.6057 136.1009 57.0141 0.0000 -18.8743 0.0000
# 3 39.8567 57.0141 115.4461 -0.0001 -34.8949 -0.0001
# 4 -0.0001 0.0000 -0.0001 56.1872 -0.0001 6.5565
# 5 -10.0652 -18.8743 -34.8949 -0.0001 41.8421 0.0000
# 6 0.0000 0.0000 -0.0001 6.5565 0.0000 31.2182
#
#
#
# Elastic Compliance Matrix: (Units=1/GPa)
#
#
# Indices 1 2 3 4 5 6 
#
# 1 0.015811 -0.003669 -0.004008 0.000000 -0.001194 0.000000
# 2 -0.003669 0.010123 -0.003502 0.000000 0.000763 0.000000
# 3 -0.004008 -0.003502 0.014716 0.000000 0.009729 0.000000
# 4 0.000000 0.000000 0.000000 0.018245 0.000000 -0.003832
# 5 -0.001194 0.000763 0.009729 0.000000 0.032070 0.000000
# 6 0.000000 0.000000 0.000000 -0.003832 0.000000 0.032837
#
#
# Mechanical properties :
#
#
# Convention : Reuss Voigt Hill
#
# Bulk Modulus (GPa) = 54.66541 68.60426 61.63484
# Shear Modulus (GPa) = 32.83941 38.71675 35.77808
#
# Velocity S-wave (km/s) = 3.46946 3.76716 3.62137
# Velocity P-wave (km/s) = 6.00724 6.63842 6.33070
#
# Compressibility (1/GPa) = 0.01829310
#
# Stress axis : x y z
#
# Youngs Moduli (GPa) = 63.24599 98.78798 67.95434
#
# Poissons Ratio (x) = 0.36242 0.27234
# Poissons Ratio (y) = 0.23203 0.23797
# Poissons Ratio (z) = 0.25347 0.34595
#
# Static dielectric constant tensor:
#      x y z
#    x 2.189360 0.000000 0.103740 
#    y 0.000000 2.088930 0.000000 
#    z 0.103740 0.000000 2.162600 
# 
# From -- ./inp_files/161149.got.cif
#   From: 2010.05.17/outbox.cif.g08.bks.cpg/sg15_81_cif.got.tgz:161149.got - 2010.06.03 18:47:42.
