data_PCOD9284476
_publ_section_title
;
Structure prediction by ZEFSAII (Michael W. Deem and Ramdas Pophale) SiO2 
 PCOD9284476
Probable space group: C 2/C
;
_chemical_formula_sum "Si O2"
_cell_formula_units_Z 56
_cell_length_a 23.096463
_cell_length_b 7.831691
_cell_length_c 13.182403
_cell_angle_alpha 90.000000
_cell_angle_beta 113.010685
_cell_angle_gamma 90.000000
_cell_volume 2194.761334
_symmetry_space_group_name_H-M "C 2/C"
_symmetry_group_IT_number 15
_symmetry_cell_setting 'monoclinic'
loop_
_space_group_symop_operation_xyz
x,y,z
-x,y,1/2-z
-x,-y,-z
x,-y,1/2+z
1/2+x,1/2+y,z
1/2-x,1/2+y,1/2-z
1/2-x,1/2-y,-z
1/2+x,1/2-y,1/2+z
loop_
_atom_site_type_symbol
_atom_site_label
_atom_site_fract_x
_atom_site_fract_y
_atom_site_fract_z
Si Si1 0.677167 0.751451 0.545395
Si Si2 0.697019 0.364863 0.516230
Si Si3 0.500000 0.397184 0.250000
Si Si4 0.872355 0.796747 0.217997
Si Si5 0.000000 0.630821 0.750000
Si Si6 0.862714 0.555594 0.672350
Si Si7 0.463585 0.628204 0.052257
Si Si8 0.303176 0.638197 0.244890
O O1 0.638125 0.302283 0.410996
O O2 0.667495 0.899013 0.456016
O O3 0.605164 0.698520 0.530773
O O4 0.694299 0.336622 0.633449
O O5 0.750000 0.250000 0.500000
O O6 0.844178 0.389240 0.722544
O O7 0.734005 0.815521 0.654881
O O8 0.447345 0.310533 0.284643
O O9 0.456963 0.516737 0.150114
O O10 0.700293 0.428230 0.011180
O O11 0.831072 0.951210 0.235697
O O12 0.064281 0.531749 0.799265
O O13 0.998090 0.723046 0.861516
O O14 0.849331 0.724377 0.726646
O O15 0.500000 0.500000 0.000000
#
# Coordination Sequence:
#
# PCOD9284476 Si02
#       8
#     8   8   4   8   4   8   8   8
#     4  11  25  48  75 114 158 208 265 341 394 483
#     4  12  29  50  75 113 158 205 264 332 406 473
#     4  11  23  42  70 113 151 196 267 323 396 477
#     4  12  27  49  78 114 155 215 262 334 406 482
#     4   9  21  42  70 117 157 206 259 347 398 471
#     4  11  24  48  78 112 161 205 272 331 403 482
#     4  10  21  40  77 109 153 204 261 326 402 481
#     4  12  28  48  78 110 160 210 273 328 410 483
#
# _framework density 25.515305000000001
#
# number of rings (size 3 to 8) (size 9 to 14) (size 15 to 20)
#    0.000    0.857    2.857    3.429    8.000    0.000 
#    2.571    0.000    0.000    4.286    0.000    0.000 
#    0.000    0.000    0.000    0.000    0.000    0.000 
#
# Total GULP energy -156282.282447 kJ/mol
# GULP energy per Si atom -5581.510087 kJ/mol
# Density = 2.545723 g / cm^3
# Si number density = 25.515305 Si / 1000 Ang^3
#
#
#
# Elastic Constant Matrix: (Units=GPa)
#
#
# Indices 1 2 3 4 5 6 
#
# 1 140.5370 32.1379 42.2314 0.0000 14.4754 0.0000
# 2 32.1379 135.4398 14.5168 0.0000 -5.4726 0.0000
# 3 42.2314 14.5168 92.7666 0.0000 5.9483 0.0000
# 4 0.0000 0.0000 0.0000 24.0194 0.0000 0.2261
# 5 14.4754 -5.4726 5.9483 0.0000 48.0255 0.0000
# 6 0.0000 0.0000 0.0000 0.2261 0.0000 26.0909
#
#
#
# Elastic Compliance Matrix: (Units=1/GPa)
#
#
# Indices 1 2 3 4 5 6 
#
# 1 0.008861 -0.001816 -0.003594 0.000000 -0.002433 0.000000
# 2 -0.001816 0.007930 -0.000511 0.000000 0.001514 0.000000
# 3 -0.003594 -0.000511 0.012530 0.000000 -0.000527 0.000000
# 4 0.000000 0.000000 0.000000 0.041636 0.000000 -0.000361
# 5 -0.002433 0.001514 -0.000527 0.000000 0.021793 0.000000
# 6 0.000000 0.000000 0.000000 -0.000361 0.000000 0.038331
#
#
# Mechanical properties :
#
#
# Convention : Reuss Voigt Hill
#
# Bulk Modulus (GPa) = 57.21177 60.72395 58.96786
# Shear Modulus (GPa) = 33.61336 38.28430 35.94883
#
# Velocity S-wave (km/s) = 3.63351 3.87776 3.75762
# Velocity P-wave (km/s) = 6.33044 6.62571 6.47976
#
# Compressibility (1/GPa) = 0.01747892
#
# Stress axis : x y z
#
# Youngs Moduli (GPa) = 112.84984 126.10000 79.81043
#
# Poissons Ratio (x) = 0.22897 0.28683
# Poissons Ratio (y) = 0.20491 0.04082
# Poissons Ratio (z) = 0.40558 0.06450
#
# Static dielectric constant tensor:
#      x y z
#    x 2.102570 0.000000 0.018080 
#    y 0.000000 2.092310 0.000000 
#    z 0.018080 0.000000 2.104060 
# 
# From -- ./inp_files/172015.got.cif
#   From: 2010.05.17/outbox.cif.g08.bks.cpg/sg15_87_cif.got.tgz:172015.got - 2010.06.03 18:47:42.
