data_PCOD9284031
_publ_section_title
;
Structure prediction by ZEFSAII (Michael W. Deem and Ramdas Pophale) SiO2 
 PCOD9284031
Probable space group: C 2/C
;
_chemical_formula_sum "Si O2"
_cell_formula_units_Z 56
_cell_length_a 8.929070
_cell_length_b 25.387619
_cell_length_c 17.870187
_cell_angle_alpha 90.000000
_cell_angle_beta 137.129343
_cell_angle_gamma 90.000000
_cell_volume 2756.048721
_symmetry_space_group_name_H-M "C 2/C"
_symmetry_group_IT_number 15
_symmetry_cell_setting 'monoclinic'
loop_
_space_group_symop_operation_xyz
x,y,z
-x,y,1/2-z
-x,-y,-z
x,-y,1/2+z
1/2+x,1/2+y,z
1/2-x,1/2+y,1/2-z
1/2-x,1/2-y,-z
1/2+x,1/2-y,1/2+z
loop_
_atom_site_type_symbol
_atom_site_label
_atom_site_fract_x
_atom_site_fract_y
_atom_site_fract_z
Si Si1 0.362909 0.569293 0.005532
Si Si2 0.617003 0.030938 0.476892
Si Si3 0.668956 0.309130 0.246268
Si Si4 0.163548 0.676507 0.977226
Si Si5 0.927131 0.076450 0.851279
Si Si6 0.250810 0.244168 0.629737
Si Si7 0.192690 0.466982 0.759331
O O1 0.599300 0.564676 0.132538
O O2 0.242464 0.513543 0.973347
O O3 0.215312 0.615216 0.986834
O O4 0.398578 0.578271 0.930645
O O5 0.427280 0.056522 0.357118
O O6 0.815979 0.068198 0.574450
O O7 0.500000 0.000000 0.500000
O O8 0.500000 0.298343 0.250000
O O9 0.651382 0.369171 0.211427
O O10 0.622616 0.271819 0.157643
O O11 0.914128 0.306386 0.369384
O O12 0.294642 0.704600 0.956443
O O13 0.225731 0.699564 0.080833
O O14 0.787476 0.025301 0.774915
O O15 0.500000 0.237068 0.750000
O O16 0.000000 0.470906 0.750000
#
# Coordination Sequence:
#
# PCOD9284031 Si02
#       7
#     8   8   8   8   8   8   8
#     4  11  21  38  62  89 119 170 212 253 311 375
#     4  11  24  38  57  88 134 169 210 262 306 361
#     4  11  24  38  65  97 124 161 210 264 325 383
#     4  10  21  40  66  91 120 160 212 261 318 382
#     4  11  22  36  60  91 122 168 216 252 306 380
#     4   9  20  42  67  90 119 156 205 267 320 386
#     4  11  20  37  60  84 126 175 209 250 305 365
#
# _framework density 20.318943000000001
#
# number of rings (size 3 to 8) (size 9 to 14) (size 15 to 20)
#    0.000    1.429    4.286    1.714    4.000    2.286 
#    2.571    0.000    0.000    3.429    0.000    0.000 
#    0.000    0.000    0.000    0.000    0.000    0.000 
#
# Total GULP energy -156356.980579 kJ/mol
# GULP energy per Si atom -5584.177878 kJ/mol
# Density = 2.027270 g / cm^3
# Si number density = 20.318943 Si / 1000 Ang^3
#
#
#
# Elastic Constant Matrix: (Units=GPa)
#
#
# Indices 1 2 3 4 5 6 
#
# 1 102.6022 -6.9433 15.0941 0.0000 -10.1329 0.0000
# 2 -6.9433 36.3306 -12.2284 0.0000 -6.8527 0.0000
# 3 15.0941 -12.2284 57.3451 0.0000 2.6447 0.0000
# 4 0.0000 0.0000 0.0000 29.4309 0.0000 -3.8866
# 5 -10.1329 -6.8527 2.6447 0.0000 24.1899 0.0000
# 6 0.0000 0.0000 0.0000 -3.8866 0.0000 21.5694
#
#
#
# Elastic Compliance Matrix: (Units=1/GPa)
#
#
# Indices 1 2 3 4 5 6 
#
# 1 0.010820 0.002211 -0.002628 0.000000 0.005446 0.000000
# 2 0.002211 0.031624 0.005735 0.000000 0.009258 0.000000
# 3 -0.002628 0.005735 0.019427 0.000000 -0.001600 0.000000
# 4 0.000000 0.000000 0.000000 0.034806 0.000000 0.006272
# 5 0.005446 0.009258 -0.001600 0.000000 0.046418 0.000000
# 6 0.000000 0.000000 0.000000 0.006272 0.000000 0.047492
#
#
# Mechanical properties :
#
#
# Convention : Reuss Voigt Hill
#
# Bulk Modulus (GPa) = 13.79192 20.90251 17.34721
# Shear Modulus (GPa) = 24.49523 28.39506 26.44515
#
# Velocity S-wave (km/s) = 3.47585 3.74233 3.61155
# Velocity P-wave (km/s) = 4.78656 5.38358 5.09382
#
# Compressibility (1/GPa) = 0.07250622
#
# Stress axis : x y z
#
# Youngs Moduli (GPa) = 92.41777 31.62159 51.47570
#
# Poissons Ratio (x) = -0.06991 0.13527
# Poissons Ratio (y) = -0.20431 -0.29520
# Poissons Ratio (z) = 0.24286 -0.18134
#
# Static dielectric constant tensor:
#      x y z
#    x 1.743900 0.000000 -0.007360 
#    y 0.000000 1.719540 0.000000 
#    z -0.007360 0.000000 1.743470 
# 
# From -- ./inp_files/81244.got.cif
#   From: 2010.05.17/outbox.cif.g08.bks.cpg/sg15_41_cif.got.tgz:81244.got - 2010.06.03 18:47:42.
