data_PCOD9284576
_publ_section_title
;
Structure prediction by ZEFSAII (Michael W. Deem and Ramdas Pophale) SiO2 
 PCOD9284576
Probable space group: C 2/C
;
_chemical_formula_sum "Si O2"
_cell_formula_units_Z 64
_cell_length_a 25.124158
_cell_length_b 14.143972
_cell_length_c 18.216595
_cell_angle_alpha 90.000000
_cell_angle_beta 150.540166
_cell_angle_gamma 90.000000
_cell_volume 3183.687052
_symmetry_space_group_name_H-M "C 2/C"
_symmetry_group_IT_number 15
_symmetry_cell_setting 'monoclinic'
loop_
_space_group_symop_operation_xyz
x,y,z
-x,y,1/2-z
-x,-y,-z
x,-y,1/2+z
1/2+x,1/2+y,z
1/2-x,1/2+y,1/2-z
1/2-x,1/2-y,-z
1/2+x,1/2-y,1/2+z
loop_
_atom_site_type_symbol
_atom_site_label
_atom_site_fract_x
_atom_site_fract_y
_atom_site_fract_z
Si Si1 0.620635 0.428680 0.250845
Si Si2 0.490376 0.258086 0.150083
Si Si3 0.754238 0.446681 0.549068
Si Si4 0.750090 0.316612 0.666364
Si Si5 0.880521 0.490428 0.892541
Si Si6 0.809832 0.873889 0.317700
Si Si7 0.060092 0.937532 0.893035
Si Si8 0.992226 0.533246 0.326730
O O1 0.579835 0.323149 0.219951
O O2 0.724964 0.443089 0.428281
O O3 0.644301 0.439916 0.193344
O O4 0.527592 0.497210 0.170577
O O5 0.500000 0.271239 0.250000
O O6 0.495107 0.145875 0.141407
O O7 0.378308 0.299728 0.984371
O O8 0.764152 0.342821 0.597079
O O9 0.656057 0.498042 0.473526
O O10 0.869852 0.494642 0.701178
O O11 0.806986 0.406036 0.773579
O O12 0.797915 0.225823 0.763659
O O13 0.805737 0.583190 0.797478
O O14 0.000000 0.500000 0.000000
O O15 0.914942 0.479024 0.018557
O O16 0.886219 0.873156 0.480347
O O17 0.000000 0.893296 0.750000
O O18 0.000000 0.521673 0.250000
#
# Coordination Sequence:
#
# PCOD9284576 Si02
#       8
#     8   8   8   8   8   8   8   8
#     4  11  21  34  63  92 128 152 202 267 317 373
#     4  11  20  36  59  91 129 158 194 250 323 388
#     4  11  20  38  60  90 127 171 199 249 327 392
#     4  12  23  38  62  90 124 166 209 247 314 382
#     4  12  24  43  60  86 131 172 206 252 316 386
#     4  12  24  38  61  95 119 160 217 263 308 372
#     4  10  21  41  62  83 120 169 210 260 319 367
#     4  11  23  37  59  89 123 164 207 254 313 372
#
# _framework density 20.102478999999999
#
# number of rings (size 3 to 8) (size 9 to 14) (size 15 to 20)
#    0.000    0.750    6.250    2.250    1.750    1.000 
#    0.000    0.625    0.000    0.000    0.000    7.000 
#    0.000    0.000    0.000    0.000    0.000    0.000 
#
# Total GULP energy -178561.189082 kJ/mol
# GULP energy per Si atom -5580.037159 kJ/mol
# Density = 2.005673 g / cm^3
# Si number density = 20.102479 Si / 1000 Ang^3
#
#
#
# Elastic Constant Matrix: (Units=GPa)
#
#
# Indices 1 2 3 4 5 6 
#
# 1 70.0438 11.1586 36.2188 0.0000 -7.7614 0.0000
# 2 11.1586 37.8130 27.6772 0.0000 -2.1681 0.0000
# 3 36.2188 27.6772 163.8416 0.0000 -24.9058 0.0000
# 4 0.0000 0.0000 0.0000 34.1208 0.0000 -5.1959
# 5 -7.7614 -2.1681 -24.9058 0.0000 31.5615 0.0000
# 6 0.0000 0.0000 0.0000 -5.1959 0.0000 14.6992
#
#
#
# Elastic Compliance Matrix: (Units=1/GPa)
#
#
# Indices 1 2 3 4 5 6 
#
# 1 0.016385 -0.002586 -0.002954 0.000000 0.001520 0.000000
# 2 -0.002586 0.030722 -0.004993 0.000000 -0.002465 0.000000
# 3 -0.002954 -0.004993 0.008451 0.000000 0.005599 0.000000
# 4 0.000000 0.000000 0.000000 0.030975 0.000000 0.010949
# 5 0.001520 -0.002465 0.005599 0.000000 0.036307 0.000000
# 6 0.000000 0.000000 0.000000 0.010949 0.000000 0.071901
#
#
# Mechanical properties :
#
#
# Convention : Reuss Voigt Hill
#
# Bulk Modulus (GPa) = 28.99176 46.86749 37.92963
# Shear Modulus (GPa) = 21.99692 29.18589 25.59141
#
# Velocity S-wave (km/s) = 3.31152 3.81446 3.57185
# Velocity P-wave (km/s) = 5.39211 6.53949 5.99332
#
# Compressibility (1/GPa) = 0.03449256
#
# Stress axis : x y z
#
# Youngs Moduli (GPa) = 61.03254 32.54970 118.32757
#
# Poissons Ratio (x) = 0.08416 0.34955
# Poissons Ratio (y) = 0.15781 0.59081
# Poissons Ratio (z) = 0.18029 0.16252
#
# Static dielectric constant tensor:
#      x y z
#    x 1.775380 0.000000 0.008620 
#    y 0.000000 1.699720 0.000000 
#    z 0.008620 0.000000 1.741170 
# 
# From -- ./inp_files/219750.got.cif
#   From: 2010.05.17/outbox.cif.g08.bks.cpg/sg15_110_cif.got.tgz:219750.got - 2010.06.03 18:47:42.
