data_PCOD9284074
_publ_section_title
;
Structure prediction by ZEFSAII (Michael W. Deem and Ramdas Pophale) SiO2 
 PCOD9284074
Probable space group: C 2/C
;
_chemical_formula_sum "Si O2"
_cell_formula_units_Z 64
_cell_length_a 18.274784
_cell_length_b 16.510074
_cell_length_c 18.580065
_cell_angle_alpha 90.000000
_cell_angle_beta 32.677031
_cell_angle_gamma 90.000000
_cell_volume 3026.663813
_symmetry_space_group_name_H-M "C 2/C"
_symmetry_group_IT_number 15
_symmetry_cell_setting 'monoclinic'
loop_
_space_group_symop_operation_xyz
x,y,z
-x,y,1/2-z
-x,-y,-z
x,-y,1/2+z
1/2+x,1/2+y,z
1/2-x,1/2+y,1/2-z
1/2-x,1/2-y,-z
1/2+x,1/2-y,1/2+z
loop_
_atom_site_type_symbol
_atom_site_label
_atom_site_fract_x
_atom_site_fract_y
_atom_site_fract_z
Si Si1 0.752761 0.903005 0.413522
Si Si2 0.920878 0.936944 0.015707
Si Si3 0.273478 0.936248 0.897808
Si Si4 0.123351 0.391357 0.948937
Si Si5 0.905042 0.948811 0.760624
Si Si6 0.819109 0.762755 0.580178
Si Si7 0.467987 0.966347 0.618871
Si Si8 0.875894 0.769220 0.128017
O O1 0.735487 0.933990 0.509191
O O2 0.753428 0.806429 0.407818
O O3 0.616240 0.927646 0.484107
O O4 0.878590 0.953523 0.276934
O O5 0.025935 0.912133 0.866725
O O6 0.872330 0.859995 0.100849
O O7 0.805725 0.987470 0.069863
O O8 0.000000 0.000000 0.000000
O O9 0.210612 0.852221 0.922729
O O10 0.417524 0.941675 0.738905
O O11 0.253981 0.413538 0.887817
O O12 0.129017 0.431543 0.863395
O O13 0.118204 0.296425 0.940606
O O14 0.994302 0.437935 0.089001
O O15 0.000000 0.934022 0.750000
O O16 0.749670 0.749729 0.715636
O O17 0.981503 0.754787 0.448612
#
# Coordination Sequence:
#
# PCOD9284074 Si02
#       8
#     8   8   8   8   8   8   8   8
#     4  11  23  40  68  94 140 180 215 274 346 423
#     4  12  24  41  67  96 133 180 227 279 335 409
#     4  12  23  40  62 101 138 179 220 275 342 421
#     4  10  21  41  69  94 126 181 225 288 332 405
#     4  11  23  45  66  96 134 175 227 281 343 406
#     4  12  24  42  64 103 142 178 224 285 340 418
#     4  10  21  40  66  94 131 175 229 269 344 402
#     4  12  25  43  68 102 137 176 239 288 342 401
#
# _framework density 21.145394
#
# number of rings (size 3 to 8) (size 9 to 14) (size 15 to 20)
#    0.000    0.750    5.000    3.000    1.750    0.000 
#    0.000    1.875    0.000    0.000    0.000    0.000 
#    0.000    0.000    0.000    0.000    0.000    0.000 
#
# Total GULP energy -178805.077481 kJ/mol
# GULP energy per Si atom -5587.658671 kJ/mol
# Density = 2.109727 g / cm^3
# Si number density = 21.145394 Si / 1000 Ang^3
#
#
#
# Elastic Constant Matrix: (Units=GPa)
#
#
# Indices 1 2 3 4 5 6 
#
# 1 96.8507 29.0504 5.5689 -0.0002 -1.8547 0.0002
# 2 29.0504 103.6677 -12.5854 0.0001 3.4332 0.0002
# 3 5.5689 -12.5854 41.0535 0.0004 1.7377 0.0001
# 4 -0.0002 0.0001 0.0004 24.0113 0.0001 5.8184
# 5 -1.8547 3.4332 1.7377 0.0001 26.8059 -0.0003
# 6 0.0002 0.0002 0.0001 5.8184 -0.0003 31.1568
#
#
#
# Elastic Compliance Matrix: (Units=1/GPa)
#
#
# Indices 1 2 3 4 5 6 
#
# 1 0.011600 -0.003632 -0.002748 0.000000 0.001446 0.000000
# 2 -0.003632 0.011216 0.004014 0.000000 -0.001948 0.000000
# 3 -0.002748 0.004014 0.026063 0.000000 -0.002394 0.000000
# 4 0.000000 0.000000 0.000000 0.043621 0.000000 -0.008146
# 5 0.001446 -0.001948 -0.002394 0.000000 0.037810 0.000000
# 6 0.000000 0.000000 0.000000 -0.008146 0.000000 0.033617
#
#
# Mechanical properties :
#
#
# Convention : Reuss Voigt Hill
#
# Bulk Modulus (GPa) = 22.65260 31.73774 27.19517
# Shear Modulus (GPa) = 27.26635 31.03067 29.14851
#
# Velocity S-wave (km/s) = 3.59481 3.83494 3.71682
# Velocity P-wave (km/s) = 5.28832 5.88650 5.59541
#
# Compressibility (1/GPa) = 0.04414504
#
# Stress axis : x y z
#
# Youngs Moduli (GPa) = 86.20400 89.15976 38.36863
#
# Poissons Ratio (x) = 0.32385 0.10545
# Poissons Ratio (y) = 0.31312 -0.15399
# Poissons Ratio (z) = 0.23691 -0.35784
#
# Static dielectric constant tensor:
#      x y z
#    x 1.753400 0.000000 -0.013060 
#    y 0.000000 1.810000 0.000000 
#    z -0.013060 0.000000 1.815330 
# 
# From -- ./inp_files/211380.got.cif
#   From: 2010.05.17/outbox.cif.g08.bks.cpg/sg15_106_cif.got.tgz:211380.got - 2010.06.03 18:47:42.
