data_PCOD9284064
_publ_section_title
;
Structure prediction by ZEFSAII (Michael W. Deem and Ramdas Pophale) SiO2 
 PCOD9284064
Probable space group: C 2/C
;
_chemical_formula_sum "Si O2"
_cell_formula_units_Z 64
_cell_length_a 25.115955
_cell_length_b 19.267800
_cell_length_c 19.535721
_cell_angle_alpha 90.000000
_cell_angle_beta 20.639701
_cell_angle_gamma 90.000000
_cell_volume 3332.408877
_symmetry_space_group_name_H-M "C 2/C"
_symmetry_group_IT_number 15
_symmetry_cell_setting 'monoclinic'
loop_
_space_group_symop_operation_xyz
x,y,z
-x,y,1/2-z
-x,-y,-z
x,-y,1/2+z
1/2+x,1/2+y,z
1/2-x,1/2+y,1/2-z
1/2-x,1/2-y,-z
1/2+x,1/2-y,1/2+z
loop_
_atom_site_type_symbol
_atom_site_label
_atom_site_fract_x
_atom_site_fract_y
_atom_site_fract_z
Si Si1 0.728652 0.081933 0.610403
Si Si2 0.381865 0.474833 0.200345
Si Si3 0.597623 0.444924 0.063707
Si Si4 0.147245 0.821231 0.303848
Si Si5 0.824224 0.189317 0.118667
Si Si6 0.445428 0.169124 0.947673
Si Si7 0.956714 0.171792 0.419210
Si Si8 0.268495 0.908344 0.553465
O O1 0.860761 0.136089 0.474166
O O2 0.708004 0.074853 0.553740
O O3 0.778039 0.005601 0.576271
O O4 0.576160 0.119347 0.819225
O O5 0.479110 0.475262 0.152196
O O6 0.321620 0.397477 0.262274
O O7 0.246362 0.527006 0.377122
O O8 0.500000 0.500000 0.000000
O O9 0.500000 0.432785 0.250000
O O10 0.657794 0.374209 0.956358
O O11 0.266858 0.759457 0.150610
O O12 0.136611 0.832968 0.398073
O O13 0.983075 0.801658 0.468554
O O14 0.694312 0.172374 0.330977
O O15 0.387750 0.140664 0.945255
O O16 0.497897 0.247130 0.867465
O O17 0.108106 0.129656 0.248326
#
# Coordination Sequence:
#
# PCOD9284064 Si02
#       8
#     8   8   8   8   8   8   8   8
#     4  12  24  37  61  90 128 169 208 255 311 377
#     4  11  19  38  67  90 118 168 212 251 304 387
#     4  11  21  43  67  93 123 166 212 263 320 374
#     4  10  21  40  66  94 121 159 213 260 313 366
#     4  10  23  42  66  93 123 162 207 265 314 375
#     4  11  25  38  56  92 132 165 203 263 308 369
#     4  11  21  38  61  87 122 168 216 244 310 381
#     4  12  21  39  58  90 123 168 212 251 315 371
#
# _framework density 19.205324999999998
#
# number of rings (size 3 to 8) (size 9 to 14) (size 15 to 20)
#    0.000    1.000    5.000    2.250    5.250    3.500 
#    2.250    2.500    0.000    0.000    0.000    0.000 
#    0.000    0.000    0.000    0.000    0.000    0.000 
#
# Total GULP energy -178534.356416 kJ/mol
# GULP energy per Si atom -5579.198638 kJ/mol
# Density = 1.916161 g / cm^3
# Si number density = 19.205325 Si / 1000 Ang^3
#
#
#
# Elastic Constant Matrix: (Units=GPa)
#
#
# Indices 1 2 3 4 5 6 
#
# 1 70.8073 27.0222 3.3302 0.0010 11.3937 0.0014
# 2 27.0222 123.0349 28.8490 -0.0052 5.0847 0.0029
# 3 3.3302 28.8490 40.7405 0.0016 5.9213 0.0060
# 4 0.0010 -0.0052 0.0016 13.2812 0.0019 -7.0788
# 5 11.3937 5.0847 5.9213 0.0019 22.1831 -0.0032
# 6 0.0014 0.0029 0.0060 -7.0788 -0.0032 34.7171
#
#
#
# Elastic Compliance Matrix: (Units=1/GPa)
#
#
# Indices 1 2 3 4 5 6 
#
# 1 0.016881 -0.003984 0.002672 -0.000003 -0.008470 -0.000002
# 2 -0.003984 0.010690 -0.007475 0.000006 0.001591 0.000002
# 3 0.002672 -0.007475 0.030765 -0.000010 -0.007871 -0.000008
# 4 -0.000003 0.000006 -0.000010 0.084475 -0.000002 0.017224
# 5 -0.008470 0.001591 -0.007871 -0.000002 0.051166 0.000006
# 6 -0.000002 0.000002 -0.000008 0.017224 0.000006 0.032316
#
#
# Mechanical properties :
#
#
# Convention : Reuss Voigt Hill
#
# Bulk Modulus (GPa) = 24.53316 39.22062 31.87689
# Shear Modulus (GPa) = 19.42100 25.72835 22.57468
#
# Velocity S-wave (km/s) = 3.18343 3.66409 3.43219
# Velocity P-wave (km/s) = 5.12974 6.19409 5.68687
#
# Compressibility (1/GPa) = 0.04076116
#
# Stress axis : x y z
#
# Youngs Moduli (GPa) = 59.23968 93.54693 32.50494
#
# Poissons Ratio (x) = 0.37270 -0.08687
# Poissons Ratio (y) = 0.23601 0.24298
# Poissons Ratio (z) = -0.15832 0.69929
#
# Static dielectric constant tensor:
#      x y z
#    x 1.674540 0.000000 0.053330 
#    y 0.000000 1.727990 0.000010 
#    z 0.053330 0.000010 1.899570 
# 
# From -- ./inp_files/258057.got.cif
#   From: 2010.05.17/outbox.cif.g08.bks.cpg/sg15_130_cif.got.tgz:258057.got - 2010.06.03 18:47:42.
