data_PCOD9284847
_publ_section_title
;
Structure prediction by ZEFSAII (Michael W. Deem and Ramdas Pophale) SiO2 
 PCOD9284847
Probable space group: C 2/C
;
_chemical_formula_sum "Si O2"
_cell_formula_units_Z 48
_cell_length_a 9.999027
_cell_length_b 9.016100
_cell_length_c 20.892941
_cell_angle_alpha 90.000000
_cell_angle_beta 97.070068
_cell_angle_gamma 90.000000
_cell_volume 1869.223393
_symmetry_space_group_name_H-M "C 2/C"
_symmetry_group_IT_number 15
_symmetry_cell_setting 'monoclinic'
loop_
_space_group_symop_operation_xyz
x,y,z
-x,y,1/2-z
-x,-y,-z
x,-y,1/2+z
1/2+x,1/2+y,z
1/2-x,1/2+y,1/2-z
1/2-x,1/2-y,-z
1/2+x,1/2-y,1/2+z
loop_
_atom_site_type_symbol
_atom_site_label
_atom_site_fract_x
_atom_site_fract_y
_atom_site_fract_z
Si Si1 0.697067 0.624033 0.092024
Si Si2 0.314198 0.916192 0.798252
Si Si3 0.139126 0.192695 0.810369
Si Si4 0.053116 0.537251 0.900716
Si Si5 0.518683 0.755928 0.990735
Si Si6 0.639137 0.630439 0.633606
O O1 0.769572 0.767633 0.122214
O O2 0.791348 0.473730 0.113829
O O3 0.590739 0.549828 0.132335
O O4 0.639609 0.648573 0.018795
O O5 0.341862 0.840318 0.731498
O O6 0.441399 0.998633 0.841353
O O7 0.268911 0.775699 0.838456
O O8 0.203668 0.045941 0.784249
O O9 0.012018 0.181059 0.674193
O O10 0.059980 0.397471 0.950406
O O11 0.025908 0.677275 0.943388
O O12 0.409687 0.675032 0.941974
#
# Coordination Sequence:
#
# PCOD9284847 Si02
#       6
#     8   8   8   8   8   8
#     4  12  23  41  70 102 136 181 216 277 337 398
#     4  11  24  47  68  96 130 181 224 284 338 391
#     4  12  25  46  71  94 135 176 229 283 336 401
#     4  10  22  39  72  98 138 179 227 268 341 401
#     4  10  21  41  65 106 137 180 219 273 333 401
#     4  11  26  42  69 103 139 172 227 278 334 402
#
# _framework density 25.679114999999999
#
# number of rings (size 3 to 8) (size 9 to 14) (size 15 to 20)
#    0.000    1.000    5.000    2.500    0.000    2.000 
#    0.000    0.000    0.000    0.000    0.000    0.000 
#    0.000    0.000    0.000    0.000    0.000    0.000 
#
# Total GULP energy -133727.130372 kJ/mol
# GULP energy per Si atom -5571.963765 kJ/mol
# Density = 2.562067 g / cm^3
# Si number density = 25.679115 Si / 1000 Ang^3
#
#
#
# Elastic Constant Matrix: (Units=GPa)
#
#
# Indices 1 2 3 4 5 6 
#
# 1 64.4726 58.5947 41.3075 0.0000 0.8549 0.0000
# 2 58.5947 139.0538 37.7998 0.0000 -8.1877 0.0000
# 3 41.3075 37.7998 129.0500 0.0000 11.6368 0.0000
# 4 0.0000 0.0000 0.0000 61.9760 0.0000 -9.2015
# 5 0.8549 -8.1877 11.6368 0.0000 39.8179 0.0000
# 6 0.0000 0.0000 0.0000 -9.2015 0.0000 41.8603
#
#
#
# Elastic Compliance Matrix: (Units=1/GPa)
#
#
# Indices 1 2 3 4 5 6 
#
# 1 0.029145 -0.010682 -0.006107 0.000000 -0.001038 0.000000
# 2 -0.010682 0.011947 -0.000331 0.000000 0.002783 0.000000
# 3 -0.006107 -0.000331 0.010060 0.000000 -0.002877 0.000000
# 4 0.000000 0.000000 0.000000 0.016680 0.000000 0.003666
# 5 -0.001038 0.002783 -0.002877 0.000000 0.026550 0.000000
# 6 0.000000 0.000000 0.000000 0.003666 0.000000 0.024695
#
#
# Mechanical properties :
#
#
# Convention : Reuss Voigt Hill
#
# Bulk Modulus (GPa) = 59.12909 67.55338 63.34123
# Shear Modulus (GPa) = 31.45593 41.72247 36.58920
#
# Velocity S-wave (km/s) = 3.50374 4.03521 3.77883
# Velocity P-wave (km/s) = 6.28048 6.93357 6.61509
#
# Compressibility (1/GPa) = 0.01691215
#
# Stress axis : x y z
#
# Youngs Moduli (GPa) = 34.31107 83.70594 99.40455
#
# Poissons Ratio (x) = 0.89418 0.60702
# Poissons Ratio (y) = 0.36652 0.03289
# Poissons Ratio (z) = 0.20952 0.02770
#
# Static dielectric constant tensor:
#      x y z
#    x 2.328540 0.000000 0.017700 
#    y 0.000000 2.100470 0.000000 
#    z 0.017700 0.000000 2.034510 
# 
# From -- ./inp_files/268100.got.cif
#   From: 2010.05.17/outbox.cif.g08.bks.cpg/sg15_135_cif.got.tgz:268100.got - 2010.06.03 18:47:42.
