data_PCOD9284979
_publ_section_title
;
Structure prediction by ZEFSAII (Michael W. Deem and Ramdas Pophale) SiO2 
 PCOD9284979
Probable space group: C 2/C
;
_chemical_formula_sum "Si O2"
_cell_formula_units_Z 64
_cell_length_a 13.562225
_cell_length_b 30.889547
_cell_length_c 9.269343
_cell_angle_alpha 90.000000
_cell_angle_beta 58.525537
_cell_angle_gamma 90.000000
_cell_volume 3311.889077
_symmetry_space_group_name_H-M "C 2/C"
_symmetry_group_IT_number 15
_symmetry_cell_setting 'monoclinic'
loop_
_space_group_symop_operation_xyz
x,y,z
-x,y,1/2-z
-x,-y,-z
x,-y,1/2+z
1/2+x,1/2+y,z
1/2-x,1/2+y,1/2-z
1/2-x,1/2-y,-z
1/2+x,1/2-y,1/2+z
loop_
_atom_site_type_symbol
_atom_site_label
_atom_site_fract_x
_atom_site_fract_y
_atom_site_fract_z
Si Si1 0.191505 0.467930 0.482753
Si Si2 0.384900 0.399323 0.237695
Si Si3 0.488702 0.546949 0.086969
Si Si4 0.240849 0.192246 0.631252
Si Si5 0.379700 0.216673 0.257909
Si Si6 0.495492 0.095845 0.083257
Si Si7 0.271871 0.949000 0.726104
Si Si8 0.975381 0.681005 0.600140
O O1 0.292272 0.433634 0.370133
O O2 0.185991 0.470831 0.658144
O O3 0.220583 0.514349 0.399131
O O4 0.072962 0.447242 0.514626
O O5 0.500000 0.398291 0.250000
O O6 0.324373 0.352339 0.281312
O O7 0.423197 0.419677 0.054659
O O8 0.500000 0.541430 0.250000
O O9 0.359849 0.564548 0.157875
O O10 0.500000 0.500000 0.000000
O O11 0.286785 0.191559 0.429466
O O12 0.158795 0.233552 0.713184
O O13 0.354257 0.202163 0.642492
O O14 0.500000 0.212880 0.250000
O O15 0.414712 0.198968 0.074370
O O16 0.500000 0.108617 0.250000
O O17 0.364555 0.088332 0.134588
O O18 0.544696 0.132512 0.943722
O O19 0.000000 0.683308 0.750000
#
# Coordination Sequence:
#
# PCOD9284979 Si02
#       8
#     8   8   8   8   8   8   8   8
#     4  11  22  38  59  86 116 157 201 261 304 358
#     4  12  23  38  63  90 118 156 210 258 314 368
#     4  12  24  39  57  82 118 162 209 256 307 369
#     4  10  21  41  66  90 124 160 206 255 302 371
#     4   9  20  40  67  95 120 160 207 251 303 375
#     4  10  22  40  61  86 119 158 210 254 301 363
#     4  11  23  37  58  84 115 160 202 254 307 356
#     4  11  23  37  61  94 128 162 194 249 317 368
#
# _framework density 19.324318000000002
#
# number of rings (size 3 to 8) (size 9 to 14) (size 15 to 20)
#    0.000    1.250    3.750    3.000    1.750    2.500 
#    0.000    0.625    0.000    0.000    0.000    0.000 
#    0.000    0.000    0.000    0.000    0.000    0.000 
#
# Total GULP energy -178649.429357 kJ/mol
# GULP energy per Si atom -5582.794667 kJ/mol
# Density = 1.928033 g / cm^3
# Si number density = 19.324318 Si / 1000 Ang^3
#
#
#
# Elastic Constant Matrix: (Units=GPa)
#
#
# Indices 1 2 3 4 5 6 
#
# 1 58.6140 12.2806 22.1821 0.0000 -14.5715 0.0000
# 2 12.2806 67.8437 37.9845 0.0000 -1.0052 0.0000
# 3 22.1821 37.9845 114.1332 0.0000 9.9196 0.0000
# 4 0.0000 0.0000 0.0000 29.2140 0.0000 -15.9876
# 5 -14.5715 -1.0052 9.9196 0.0000 30.8942 0.0000
# 6 0.0000 0.0000 0.0000 -15.9876 0.0000 20.3882
#
#
#
# Elastic Compliance Matrix: (Units=1/GPa)
#
#
# Indices 1 2 3 4 5 6 
#
# 1 0.022163 -0.001028 -0.005011 0.000000 0.012029 0.000000
# 2 -0.001028 0.018368 -0.006093 0.000000 0.002069 0.000000
# 3 -0.005011 -0.006093 0.012330 0.000000 -0.006521 0.000000
# 4 0.000000 0.000000 0.000000 0.059962 0.000000 0.047020
# 5 0.012029 0.002069 -0.006521 0.000000 0.040203 0.000000
# 6 0.000000 0.000000 0.000000 0.047020 0.000000 0.085919
#
#
# Mechanical properties :
#
#
# Convention : Reuss Voigt Hill
#
# Bulk Modulus (GPa) = 34.96858 42.83171 38.90015
# Shear Modulus (GPa) = 18.33240 27.30885 22.82063
#
# Velocity S-wave (km/s) = 3.08339 3.76331 3.44019
# Velocity P-wave (km/s) = 5.55079 6.41063 5.99614
#
# Compressibility (1/GPa) = 0.02859710
#
# Stress axis : x y z
#
# Youngs Moduli (GPa) = 45.12073 54.44282 81.10273
#
# Poissons Ratio (x) = 0.05597 0.40638
# Poissons Ratio (y) = 0.04639 0.49416
# Poissons Ratio (z) = 0.22608 0.33172
#
# Static dielectric constant tensor:
#      x y z
#    x 1.698940 0.000000 -0.014740 
#    y 0.000000 1.670640 0.000000 
#    z -0.014740 0.000000 1.697470 
# 
# From -- ./inp_files/44540.got.cif
#   From: 2010.05.17/outbox.cif.g08.bks.cpg/sg15_23_cif.got.tgz:44540.got - 2010.06.03 18:47:42.
