data_PCOD9284890
_publ_section_title
;
Structure prediction by ZEFSAII (Michael W. Deem and Ramdas Pophale) SiO2 
 PCOD9284890
Probable space group: C 2/C
;
_chemical_formula_sum "Si O2"
_cell_formula_units_Z 48
_cell_length_a 9.313736
_cell_length_b 16.735564
_cell_length_c 34.781092
_cell_angle_alpha 90.000000
_cell_angle_beta 151.148412
_cell_angle_gamma 90.000000
_cell_volume 2616.031981
_symmetry_space_group_name_H-M "C 2/C"
_symmetry_group_IT_number 15
_symmetry_cell_setting 'monoclinic'
loop_
_space_group_symop_operation_xyz
x,y,z
-x,y,1/2-z
-x,-y,-z
x,-y,1/2+z
1/2+x,1/2+y,z
1/2-x,1/2+y,1/2-z
1/2-x,1/2-y,-z
1/2+x,1/2-y,1/2+z
loop_
_atom_site_type_symbol
_atom_site_label
_atom_site_fract_x
_atom_site_fract_y
_atom_site_fract_z
Si Si1 0.557034 0.006622 0.075087
Si Si2 0.187469 0.774122 0.941709
Si Si3 0.349453 0.117570 0.833420
Si Si4 0.157421 0.586457 0.825511
Si Si5 0.532522 0.555970 0.396568
Si Si6 0.710123 0.166442 0.510688
O O1 0.845035 0.020628 0.115314
O O2 0.434050 0.097456 0.050083
O O3 0.607057 0.953481 0.124685
O O4 0.302285 0.963284 0.989741
O O5 0.973341 0.850106 0.885049
O O6 0.486492 0.811122 0.992738
O O7 0.049141 0.694704 0.890821
O O8 0.250000 0.750000 0.000000
O O9 0.461226 0.093938 0.817398
O O10 0.000000 0.137143 0.750000
O O11 0.250244 0.494601 0.842410
O O12 0.000000 0.615100 0.750000
O O13 0.470708 0.632702 0.902553
O O14 0.750000 0.250000 0.500000
#
# Coordination Sequence:
#
# PCOD9284890 Si02
#       6
#     8   8   8   8   8   8
#     4   9  19  37  62  89 119 157 203 249 300 374
#     4  11  22  38  65  95 124 162 209 259 304 373
#     4  12  25  39  61  94 127 163 210 262 315 370
#     4  11  24  40  64  87 126 166 207 261 319 367
#     4   9  19  38  64  85 118 161 200 246 307 368
#     4  10  21  41  65  93 123 163 211 254 311 374
#
# _framework density 18.348400000000002
#
# number of rings (size 3 to 8) (size 9 to 14) (size 15 to 20)
#    0.000    1.667    3.333    2.000    2.333    4.667 
#    0.000    0.833    3.667    0.000    0.000    0.000 
#    0.000    0.000    0.000    0.000    0.000    0.000 
#
# Total GULP energy -133785.613007 kJ/mol
# GULP energy per Si atom -5574.400542 kJ/mol
# Density = 1.830664 g / cm^3
# Si number density = 18.348400 Si / 1000 Ang^3
#
#
#
# Elastic Constant Matrix: (Units=GPa)
#
#
# Indices 1 2 3 4 5 6 
#
# 1 115.7969 56.3798 53.5015 -0.0004 -5.5665 0.0002
# 2 56.3798 115.9142 13.1161 0.0000 -9.9622 -0.0003
# 3 53.5015 13.1161 61.7060 -0.0001 -4.2220 0.0003
# 4 -0.0004 0.0000 -0.0001 8.9743 -0.0003 1.7662
# 5 -5.5665 -9.9622 -4.2220 -0.0003 30.0776 0.0003
# 6 0.0002 -0.0003 0.0003 1.7662 0.0003 29.5497
#
#
#
# Elastic Compliance Matrix: (Units=1/GPa)
#
#
# Indices 1 2 3 4 5 6 
#
# 1 0.019454 -0.007831 -0.015281 0.000001 -0.001138 0.000000
# 2 -0.007831 0.012213 0.004414 0.000000 0.003215 0.000000
# 3 -0.015281 0.004414 0.028699 0.000000 0.002662 0.000000
# 4 0.000001 0.000000 0.000000 0.112756 0.000001 -0.006740
# 5 -0.001138 0.003215 0.002662 0.000001 0.034475 0.000000
# 6 0.000000 0.000000 0.000000 -0.006740 0.000000 0.034244
#
#
# Mechanical properties :
#
#
# Convention : Reuss Voigt Hill
#
# Bulk Modulus (GPa) = 43.53513 59.93464 51.73489
# Shear Modulus (GPa) = 17.42807 25.08164 21.25486
#
# Velocity S-wave (km/s) = 3.08529 3.70126 3.40723
# Velocity P-wave (km/s) = 6.03908 7.14153 6.61332
#
# Compressibility (1/GPa) = 0.02296996
#
# Stress axis : x y z
#
# Youngs Moduli (GPa) = 51.40318 81.88035 34.84464
#
# Poissons Ratio (x) = 0.64121 0.53245
# Poissons Ratio (y) = 0.40254 -0.15380
# Poissons Ratio (z) = 0.78548 -0.36141
#
# Static dielectric constant tensor:
#      x y z
#    x 1.616730 0.000000 -0.012100 
#    y 0.000000 1.679180 0.000000 
#    z -0.012100 0.000000 1.609660 
# 
# From -- ./inp_files/189798.got.cif
#   From: 2010.05.17/outbox.cif.g08.bks.cpg/sg15_95_cif.got.tgz:189798.got - 2010.06.03 18:47:42.
