data_PCOD9284410
_publ_section_title
;
Structure prediction by ZEFSAII (Michael W. Deem and Ramdas Pophale) SiO2 
 PCOD9284410
Probable space group: C 2/C
;
_chemical_formula_sum "Si O2"
_cell_formula_units_Z 64
_cell_length_a 23.267675
_cell_length_b 8.209778
_cell_length_c 14.264833
_cell_angle_alpha 90.000000
_cell_angle_beta 90.000000
_cell_angle_gamma 90.000000
_cell_volume 2724.903296
_symmetry_space_group_name_H-M "C 2/C"
_symmetry_group_IT_number 15
_symmetry_cell_setting 'monoclinic'
loop_
_space_group_symop_operation_xyz
x,y,z
-x,y,1/2-z
-x,-y,-z
x,-y,1/2+z
1/2+x,1/2+y,z
1/2-x,1/2+y,1/2-z
1/2-x,1/2-y,-z
1/2+x,1/2-y,1/2+z
loop_
_atom_site_type_symbol
_atom_site_label
_atom_site_fract_x
_atom_site_fract_y
_atom_site_fract_z
Si Si1 0.338781 0.083661 0.750000
Si Si2 0.562917 0.524419 0.361640
Si Si3 0.396390 0.859736 0.060628
Si Si4 0.103610 0.640264 0.560628
Si Si5 0.761473 0.275447 0.750000
Si Si6 0.322536 0.353181 0.435205
Si Si7 0.177465 0.853181 0.435205
Si Si8 0.062917 0.975581 0.638360
O O1 0.375851 0.064138 0.657984
O O2 0.375851 0.064139 0.842016
O O3 0.307322 0.259400 0.750000
O O4 0.287311 0.955168 0.750000
O O5 0.568851 0.698438 0.412431
O O6 0.616472 0.417581 0.394595
O O7 0.500000 0.452774 0.382389
O O8 0.566601 0.549116 0.250000
O O9 0.340530 0.795151 0.002928
O O10 0.425447 1.000000 1.000000
O O11 0.159470 0.704849 0.502927
O O12 0.068850 0.801562 0.587569
O O13 0.784575 0.196718 0.846760
O O14 0.784575 0.196718 0.653240
O O15 0.298676 0.500000 0.500000
O O16 0.383528 0.417581 0.394596
#
# Coordination Sequence:
#
# PCOD9284410 Si02
#       8
#     8   8   8   8   8   8   8   8
#     4  12  28  42  66  93 129 169 221 266 332 369
#     4  10  21  40  70  99 129 168 213 261 320 384
#     4  11  23  43  63  93 132 169 210 266 316 387
#     4  11  23  43  63  93 132 169 210 266 316 387
#     4  12  26  44  64  93 129 169 217 274 318 385
#     4  10  23  40  67  92 131 165 211 259 324 378
#     4  10  23  40  67  92 131 165 211 259 324 378
#     4  10  21  40  70  99 129 168 213 261 320 384
#
# _framework density 23.487072000000001
#
# number of rings (size 3 to 8) (size 9 to 14) (size 15 to 20)
#    0.000    1.250    5.000    0.000    7.000    7.000 
#    0.000    0.000    0.000    4.500    0.000    0.000 
#    0.000    0.000    0.000    0.000    0.000    0.000 
#
# Total GULP energy -179168.440549 kJ/mol
# GULP energy per Si atom -5599.013767 kJ/mol
# Density = 2.343361 g / cm^3
# Si number density = 23.487072 Si / 1000 Ang^3
#
#
#
# Elastic Constant Matrix: (Units=GPa)
#
#
# Indices 1 2 3 4 5 6 
#
# 1 62.9742 -0.9090 24.0875 0.0000 0.0001 0.0000
# 2 -0.9090 51.0975 24.9765 0.0000 0.0001 0.0000
# 3 24.0875 24.9765 171.6703 0.0000 0.0000 0.0000
# 4 0.0000 0.0000 0.0000 25.8658 0.0000 0.0000
# 5 0.0001 0.0001 0.0000 0.0000 20.6436 0.0000
# 6 0.0000 0.0000 0.0000 0.0000 0.0000 17.6964
#
#
#
# Elastic Compliance Matrix: (Units=1/GPa)
#
#
# Indices 1 2 3 4 5 6 
#
# 1 0.016896 0.001571 -0.002599 0.000000 0.000000 0.000000
# 2 0.001571 0.021215 -0.003307 0.000000 0.000000 0.000000
# 3 -0.002599 -0.003307 0.006671 0.000000 0.000000 0.000000
# 4 0.000000 0.000000 0.000000 0.038661 0.000000 0.000000
# 5 0.000000 0.000000 0.000000 0.000000 0.048441 0.000000
# 6 0.000000 0.000000 0.000000 0.000000 0.000000 0.056509
#
#
# Mechanical properties :
#
#
# Convention : Reuss Voigt Hill
#
# Bulk Modulus (GPa) = 27.69176 42.45022 35.07099
# Shear Modulus (GPa) = 23.91192 28.68031 26.29611
#
# Velocity S-wave (km/s) = 3.19421 3.49823 3.34967
# Velocity P-wave (km/s) = 5.04180 5.86770 5.47036
#
# Compressibility (1/GPa) = 0.03611182
#
# Stress axis : x y z
#
# Youngs Moduli (GPa) = 59.18402 47.13681 149.90285
#
# Poissons Ratio (x) = -0.07406 0.38965
# Poissons Ratio (y) = -0.09299 0.49573
# Poissons Ratio (z) = 0.15384 0.15588
#
# Static dielectric constant tensor:
#      x y z
#    x 1.835710 0.000000 0.000000 
#    y 0.000000 1.937200 0.000000 
#    z 0.000000 0.000000 1.868420 
# 
# From -- ./inp_files/172404.got.cif
#   From: 2010.05.17/outbox.cif.g08.bks.cpg/sg15_87_cif.got.tgz:172404.got - 2010.06.03 18:47:42.
