data_PCOD9284880
_publ_section_title
;
Structure prediction by ZEFSAII (Michael W. Deem and Ramdas Pophale) SiO2 
 PCOD9284880
Probable space group: C 2/C
;
_chemical_formula_sum "Si O2"
_cell_formula_units_Z 64
_cell_length_a 27.762772
_cell_length_b 9.636943
_cell_length_c 18.105024
_cell_angle_alpha 90.000000
_cell_angle_beta 135.191350
_cell_angle_gamma 90.000000
_cell_volume 3413.744089
_symmetry_space_group_name_H-M "C 2/C"
_symmetry_group_IT_number 15
_symmetry_cell_setting 'monoclinic'
loop_
_space_group_symop_operation_xyz
x,y,z
-x,y,1/2-z
-x,-y,-z
x,-y,1/2+z
1/2+x,1/2+y,z
1/2-x,1/2+y,1/2-z
1/2-x,1/2-y,-z
1/2+x,1/2-y,1/2+z
loop_
_atom_site_type_symbol
_atom_site_label
_atom_site_fract_x
_atom_site_fract_y
_atom_site_fract_z
Si Si1 0.234338 0.301075 0.650725
Si Si2 0.749204 0.470647 0.681591
Si Si3 0.388955 0.695233 0.301940
Si Si4 0.616122 0.990089 0.255656
Si Si5 0.900896 0.112159 0.482367
Si Si6 0.985946 0.892885 0.658505
Si Si7 0.105143 0.376671 0.410911
Si Si8 0.017127 0.359715 0.853851
O O1 0.229747 0.398216 0.718295
O O2 0.309214 0.326648 0.696749
O O3 0.174221 0.337960 0.528901
O O4 0.234621 0.136824 0.672603
O O5 0.810712 0.453560 0.690468
O O6 0.678414 0.398575 0.580867
O O7 0.399745 0.861125 0.315678
O O8 0.401475 0.628832 0.395069
O O9 0.442221 0.637490 0.301562
O O10 0.617979 0.923668 0.340168
O O11 0.555031 0.100206 0.187576
O O12 0.941515 0.239085 0.562075
O O13 0.938994 0.975557 0.551122
O O14 0.945056 0.754681 0.637286
O O15 0.000000 0.973189 0.750000
O O16 0.064650 0.503707 0.404051
O O17 0.000000 0.326444 0.750000
#
# Coordination Sequence:
#
# PCOD9284880 Si02
#       8
#     8   8   8   8   8   8   8   8
#     4  10  23  40  63  91 125 164 203 260 308 372
#     4  10  23  42  62  90 127 161 209 258 315 370
#     4  10  22  39  60  92 122 157 206 260 302 372
#     4  10  21  41  65  92 121 163 218 256 296 379
#     4  11  24  40  60  90 130 162 201 259 318 371
#     4  12  21  40  62  91 123 161 204 259 313 362
#     4  11  21  39  68  89 121 165 212 253 306 371
#     4  10  22  42  61  91 125 164 209 253 310 372
#
# _framework density 18.747743
#
# number of rings (size 3 to 8) (size 9 to 14) (size 15 to 20)
#    0.000    1.500    3.750    1.125    5.250    4.500 
#    4.500    2.500    0.000    0.000    0.000    0.000 
#    0.000    0.000    0.000    0.000    0.000    0.000 
#
# Total GULP energy -178640.628568 kJ/mol
# GULP energy per Si atom -5582.519643 kJ/mol
# Density = 1.870507 g / cm^3
# Si number density = 18.747743 Si / 1000 Ang^3
#
#
#
# Elastic Constant Matrix: (Units=GPa)
#
#
# Indices 1 2 3 4 5 6 
#
# 1 158.3187 50.9927 62.1081 0.0000 27.4989 0.0000
# 2 50.9927 76.8381 50.1987 0.0000 10.4852 0.0000
# 3 62.1081 50.1987 124.8380 0.0000 26.1074 0.0000
# 4 0.0000 0.0000 0.0000 316.6351 0.0000 -215.4634
# 5 27.4989 10.4852 26.1074 0.0000 17.7671 0.0000
# 6 0.0000 0.0000 0.0000 -215.4634 0.0000 198.5812
#
#
#
# Elastic Compliance Matrix: (Units=1/GPa)
#
#
# Indices 1 2 3 4 5 6 
#
# 1 0.010168 -0.004672 -0.000672 0.000000 -0.011993 0.000000
# 2 -0.004672 0.019799 -0.006793 0.000000 0.005529 0.000000
# 3 -0.000672 -0.006793 0.014466 0.000000 -0.016208 0.000000
# 4 0.000000 0.000000 0.000000 0.012069 0.000000 0.013095
# 5 -0.011993 0.005529 -0.016208 0.000000 0.095398 0.000000
# 6 0.000000 0.000000 0.000000 0.013095 0.000000 0.019244
#
#
# Mechanical properties :
#
#
# Convention : Reuss Voigt Hill
#
# Bulk Modulus (GPa) = 49.60875 76.28818 62.94846
# Shear Modulus (GPa) = 24.73561 119.70970 72.22265
#
# Velocity S-wave (km/s) = 3.63628 7.99947 6.21345
# Velocity P-wave (km/s) = 6.64445 11.22952 9.22635
#
# Compressibility (1/GPa) = 0.02015774
#
# Stress axis : x y z
#
# Youngs Moduli (GPa) = 98.34867 50.50873 69.12948
#
# Poissons Ratio (x) = 0.23600 0.04644
# Poissons Ratio (y) = 0.45953 0.46960
# Poissons Ratio (z) = 0.06606 0.34311
#
# Static dielectric constant tensor:
#      x y z
#    x 1.642590 0.000000 0.009170 
#    y 0.000000 1.658750 0.000000 
#    z 0.009170 0.000000 1.668910 
# 
# From -- ./inp_files/224643.got.cif
#   From: 2010.05.17/outbox.cif.g08.bks.cpg/sg15_113_cif.got.tgz:224643.got - 2010.06.03 18:47:42.
