data_PCOD9284745
_publ_section_title
;
Structure prediction by ZEFSAII (Michael W. Deem and Ramdas Pophale) SiO2 
 PCOD9284745
Probable space group: C 2/C
;
_chemical_formula_sum "Si O2"
_cell_formula_units_Z 40
_cell_length_a 8.908471
_cell_length_b 10.784914
_cell_length_c 18.181239
_cell_angle_alpha 90.000000
_cell_angle_beta 89.232867
_cell_angle_gamma 90.000000
_cell_volume 1746.644033
_symmetry_space_group_name_H-M "C 2/C"
_symmetry_group_IT_number 15
_symmetry_cell_setting 'monoclinic'
loop_
_space_group_symop_operation_xyz
x,y,z
-x,y,1/2-z
-x,-y,-z
x,-y,1/2+z
1/2+x,1/2+y,z
1/2-x,1/2+y,1/2-z
1/2-x,1/2-y,-z
1/2+x,1/2-y,1/2+z
loop_
_atom_site_type_symbol
_atom_site_label
_atom_site_fract_x
_atom_site_fract_y
_atom_site_fract_z
Si Si1 0.090922 0.383724 0.076927
Si Si2 0.433609 0.247509 0.439721
Si Si3 0.079342 0.590485 0.328059
Si Si4 0.845888 0.928048 0.554457
Si Si5 0.081448 0.859508 0.671937
O O1 0.245391 0.449519 0.052393
O O2 0.112843 0.272270 0.133233
O O3 0.988349 0.485319 0.118165
O O4 0.010587 0.329324 0.005715
O O5 0.532483 0.220372 0.367519
O O6 0.272378 0.183825 0.425645
O O7 0.411050 0.382192 0.475817
O O8 0.257250 0.576955 0.320260
O O9 0.000000 0.581741 0.250000
O O10 0.967216 0.927243 0.617757
O O11 0.000000 0.843798 0.750000
#
# Coordination Sequence:
#
# PCOD9284745 Si02
#       5
#     8   8   8   8   8
#     4  10  21  41  64  86 117 157 195 239 296 347
#     4   9  19  38  62  88 119 154 193 241 293 348
#     4  11  22  40  62  85 120 159 193 239 298 350
#     4   9  18  36  61  87 117 152 194 241 290 342
#     4  11  23  38  58  87 120 155 199 244 286 345
#
# _framework density 22.901059
#
# number of rings (size 3 to 8) (size 9 to 14) (size 15 to 20)
#    0.000    2.000    0.000    5.400    0.000    3.200 
#    0.000   24.000    0.000    0.000    0.000    0.000 
#    0.000    0.000    0.000    0.000    0.000    0.000 
#
# Total GULP energy -111993.753266 kJ/mol
# GULP energy per Si atom -5599.687663 kJ/mol
# Density = 2.284894 g / cm^3
# Si number density = 22.901059 Si / 1000 Ang^3
#
#
#
# Elastic Constant Matrix: (Units=GPa)
#
#
# Indices 1 2 3 4 5 6 
#
# 1 182.0829 43.2681 69.1106 0.0000 20.6932 0.0000
# 2 43.2681 83.8091 47.9517 0.0000 3.7200 0.0000
# 3 69.1106 47.9517 121.1377 0.0000 7.9439 0.0000
# 4 0.0000 0.0000 0.0000 -2.2084 0.0000 -2.5597
# 5 20.6932 3.7200 7.9439 0.0000 36.0737 0.0000
# 6 0.0000 0.0000 0.0000 -2.5597 0.0000 34.1921
#
#
#
# Elastic Compliance Matrix: (Units=1/GPa)
#
#
# Indices 1 2 3 4 5 6 
#
# 1 0.007603 -0.001836 -0.003386 0.000000 -0.003426 0.000000
# 2 -0.001836 0.015871 -0.005273 0.000000 0.000578 0.000000
# 3 -0.003386 -0.005273 0.012289 0.000000 -0.000220 0.000000
# 4 0.000000 0.000000 0.000000 -0.416661 0.000000 -0.031192
# 5 -0.003426 0.000578 -0.000220 0.000000 0.029675 0.000000
# 6 0.000000 0.000000 0.000000 -0.031192 0.000000 0.026911
#
#
# Mechanical properties :
#
#
# Convention : Reuss Voigt Hill
#
# Bulk Modulus (GPa) = 67.69251 78.63230 73.16240
# Shear Modulus (GPa) = -16.75618 28.72477 5.98430
#
# Velocity S-wave (km/s) = -2.70789 3.54545 1.61827
# Velocity P-wave (km/s) = 4.45488 7.15336 5.95888
#
# Compressibility (1/GPa) = 0.01477268
#
# Stress axis : x y z
#
# Youngs Moduli (GPa) = 131.52969 63.00841 81.37575
#
# Poissons Ratio (x) = 0.11566 0.27556
# Poissons Ratio (y) = 0.24144 0.42910
# Poissons Ratio (z) = 0.44539 0.33225
#
# Static dielectric constant tensor:
#      x y z
#    x 1.885560 0.000000 -0.030920 
#    y 0.000000 1.910460 0.000000 
#    z -0.030920 0.000000 1.790220 
# 
# From -- ./inp_files/187909.got.cif
#   From: 2010.05.17/outbox.cif.g08.bks.cpg/sg15_94_cif.got.tgz:187909.got - 2010.06.03 18:47:42.
