data_PCOD9284477
_publ_section_title
;
Structure prediction by ZEFSAII (Michael W. Deem and Ramdas Pophale) SiO2 
 PCOD9284477
Probable space group: C 2/C
;
_chemical_formula_sum "Si O2"
_cell_formula_units_Z 32
_cell_length_a 8.561931
_cell_length_b 16.872515
_cell_length_c 11.715697
_cell_angle_alpha 90.000000
_cell_angle_beta 128.560981
_cell_angle_gamma 90.000000
_cell_volume 1323.414757
_symmetry_space_group_name_H-M "C 2/C"
_symmetry_group_IT_number 15
_symmetry_cell_setting 'monoclinic'
loop_
_space_group_symop_operation_xyz
x,y,z
-x,y,1/2-z
-x,-y,-z
x,-y,1/2+z
1/2+x,1/2+y,z
1/2-x,1/2+y,1/2-z
1/2-x,1/2-y,-z
1/2+x,1/2-y,1/2+z
loop_
_atom_site_type_symbol
_atom_site_label
_atom_site_fract_x
_atom_site_fract_y
_atom_site_fract_z
Si Si1 0.136460 0.646326 0.041150
Si Si2 0.220951 0.117220 0.832062
Si Si3 0.353166 0.721384 0.356608
Si Si4 0.394376 0.416453 0.459595
O O1 0.281810 0.596770 0.027307
O O2 0.934653 0.598927 0.987224
O O3 0.044530 0.720537 0.927176
O O4 0.254544 0.682144 0.201648
O O5 0.209664 0.212481 0.844112
O O6 0.000000 0.082030 0.750000
O O7 0.252923 0.098156 0.712738
O O8 0.433966 0.650779 0.470897
O O9 0.500000 0.500000 0.500000
#
# Coordination Sequence:
#
# PCOD9284477 Si02
#       4
#     8   8   8   8
#     4  10  22  41  75 101 127 181 242 277 332 423
#     4  10  23  43  67  97 138 179 236 285 332 415
#     4  10  21  40  78  98 129 183 241 273 335 422
#     4  12  25  41  64 105 142 174 229 298 349 396
#
# _framework density 24.179873000000001
#
# number of rings (size 3 to 8) (size 9 to 14) (size 15 to 20)
#    1.500    0.000    2.500    2.250    3.500    6.000 
#    0.000   10.000    0.000    0.000    0.000    0.000 
#    0.000    0.000    0.000    0.000    0.000    0.000 
#
# Total GULP energy -89211.015985 kJ/mol
# GULP energy per Si atom -5575.688499 kJ/mol
# Density = 2.412484 g / cm^3
# Si number density = 24.179873 Si / 1000 Ang^3
#
#
#
# Elastic Constant Matrix: (Units=GPa)
#
#
# Indices 1 2 3 4 5 6 
#
# 1 74.8163 14.0112 17.7931 0.0000 23.0870 0.0000
# 2 14.0112 116.7354 15.5287 0.0000 13.3378 0.0000
# 3 17.7931 15.5287 122.1782 0.0000 13.9466 0.0000
# 4 0.0000 0.0000 0.0000 17.5699 0.0000 6.2396
# 5 23.0870 13.3378 13.9466 0.0000 32.8832 0.0000
# 6 0.0000 0.0000 0.0000 6.2396 0.0000 19.2808
#
#
#
# Elastic Compliance Matrix: (Units=1/GPa)
#
#
# Indices 1 2 3 4 5 6 
#
# 1 0.017267 -0.000620 -0.001136 0.000000 -0.011390 0.000000
# 2 -0.000620 0.009073 -0.000728 0.000000 -0.002936 0.000000
# 3 -0.001136 -0.000728 0.008741 0.000000 -0.002615 0.000000
# 4 0.000000 0.000000 0.000000 0.064306 0.000000 -0.020811
# 5 -0.011390 -0.002936 -0.002615 0.000000 0.040707 0.000000
# 6 0.000000 0.000000 0.000000 -0.020811 0.000000 0.058600
#
#
# Mechanical properties :
#
#
# Convention : Reuss Voigt Hill
#
# Bulk Modulus (GPa) = 33.20680 45.37733 39.29207
# Shear Modulus (GPa) = 23.39738 31.70658 27.55198
#
# Velocity S-wave (km/s) = 3.11406 3.62509 3.37925
# Velocity P-wave (km/s) = 5.16652 6.02735 5.61346
#
# Compressibility (1/GPa) = 0.03011431
#
# Stress axis : x y z
#
# Youngs Moduli (GPa) = 57.91406 110.21612 114.40169
#
# Poissons Ratio (x) = 0.06834 0.12992
# Poissons Ratio (y) = 0.03591 0.08325
# Poissons Ratio (z) = 0.06577 0.08021
#
# Static dielectric constant tensor:
#      x y z
#    x 2.041630 0.000000 0.015430 
#    y 0.000000 1.928610 0.000000 
#    z 0.015430 0.000000 1.923150 
# 
# From -- ./inp_files/134998.got.cif
#   From: 2010.05.17/outbox.cif.g08.bks.cpg/sg15_68_cif.got.tgz:134998.got - 2010.06.03 18:47:42.
