data_PCOD9284799
_publ_section_title
;
Structure prediction by ZEFSAII (Michael W. Deem and Ramdas Pophale) SiO2 
 PCOD9284799
Probable space group: C 2/C
;
_chemical_formula_sum "Si O2"
_cell_formula_units_Z 48
_cell_length_a 7.698702
_cell_length_b 11.714357
_cell_length_c 22.508313
_cell_angle_alpha 90.000000
_cell_angle_beta 79.422027
_cell_angle_gamma 90.000000
_cell_volume 1995.423474
_symmetry_space_group_name_H-M "C 2/C"
_symmetry_group_IT_number 15
_symmetry_cell_setting 'monoclinic'
loop_
_space_group_symop_operation_xyz
x,y,z
-x,y,1/2-z
-x,-y,-z
x,-y,1/2+z
1/2+x,1/2+y,z
1/2-x,1/2+y,1/2-z
1/2-x,1/2-y,-z
1/2+x,1/2-y,1/2+z
loop_
_atom_site_type_symbol
_atom_site_label
_atom_site_fract_x
_atom_site_fract_y
_atom_site_fract_z
Si Si1 0.204477 0.409580 0.114361
Si Si2 0.844283 0.968031 0.721494
Si Si3 0.567279 0.330753 0.625093
Si Si4 0.294844 0.031667 0.652748
Si Si5 0.337906 0.063002 0.478337
Si Si6 0.237241 0.765032 0.085996
O O1 0.288727 0.466092 0.166515
O O2 0.200500 0.274595 0.120731
O O3 0.273548 0.466176 0.049354
O O4 0.997205 0.443339 0.124965
O O5 0.700169 0.973139 0.782219
O O6 0.000000 0.026068 0.750000
O O7 0.936246 0.853233 0.690136
O O8 0.685027 0.444198 0.618508
O O9 0.429020 0.296702 0.582458
O O10 0.208005 0.157095 0.646069
O O11 0.244296 0.141206 0.533509
O O12 0.385598 0.160365 0.425681
O O13 0.500000 0.000000 0.500000
#
# Coordination Sequence:
#
# PCOD9284799 Si02
#       6
#     8   8   8   8   8   8
#     4  11  22  43  67  94 132 168 220 268 322 387
#     4  10  22  41  63  91 128 172 215 260 328 384
#     4  10  21  41  64  93 130 172 211 267 325 378
#     4  10  22  39  63  97 125 169 221 261 324 388
#     4  11  20  41  72  94 127 179 212 265 334 384
#     4  10  22  41  68  90 135 173 212 270 327 385
#
# _framework density 24.055043000000001
#
# number of rings (size 3 to 8) (size 9 to 14) (size 15 to 20)
#    0.000    1.667    5.000    0.500    0.000    8.000 
#    6.000    6.667    0.000    0.000    0.000    0.000 
#    0.000    0.000    0.000    0.000    0.000    0.000 
#
# Total GULP energy -133678.640769 kJ/mol
# GULP energy per Si atom -5569.943365 kJ/mol
# Density = 2.400029 g / cm^3
# Si number density = 24.055043 Si / 1000 Ang^3
#
#
#
# Elastic Constant Matrix: (Units=GPa)
#
#
# Indices 1 2 3 4 5 6 
#
# 1 58.0161 35.0140 23.7784 0.0000 28.1272 0.0000
# 2 35.0140 169.3741 27.9981 0.0000 25.7802 0.0000
# 3 23.7784 27.9981 71.3217 0.0000 41.1656 0.0000
# 4 0.0000 0.0000 0.0000 42.2142 0.0000 0.5320
# 5 28.1272 25.7802 41.1656 0.0000 41.6216 0.0000
# 6 0.0000 0.0000 0.0000 0.5320 0.0000 48.7161
#
#
#
# Elastic Compliance Matrix: (Units=1/GPa)
#
#
# Indices 1 2 3 4 5 6 
#
# 1 0.027489 -0.003216 0.003892 0.000000 -0.020434 0.000000
# 2 -0.003216 0.006904 -0.000989 0.000000 -0.001125 0.000000
# 3 0.003892 -0.000989 0.033267 0.000000 -0.034920 0.000000
# 4 0.000000 0.000000 0.000000 0.023692 0.000000 -0.000259
# 5 -0.020434 -0.001125 -0.034920 0.000000 0.073069 0.000000
# 6 0.000000 0.000000 0.000000 -0.000259 0.000000 0.020530
#
#
# Mechanical properties :
#
#
# Convention : Reuss Voigt Hill
#
# Bulk Modulus (GPa) = 14.91773 52.47696 33.69735
# Shear Modulus (GPa) = 24.04767 40.63847 32.34307
#
# Velocity S-wave (km/s) = 3.16522 4.11468 3.67078
# Velocity P-wave (km/s) = 4.42415 6.66610 5.65730
#
# Compressibility (1/GPa) = 0.06703431
#
# Stress axis : x y z
#
# Youngs Moduli (GPa) = 36.37804 144.85323 30.06009
#
# Poissons Ratio (x) = 0.46582 -0.11699
# Poissons Ratio (y) = 0.11698 0.02971
# Poissons Ratio (z) = -0.14158 0.14319
#
# Static dielectric constant tensor:
#      x y z
#    x 2.002530 0.000000 -0.117610 
#    y 0.000000 1.934630 0.000000 
#    z -0.117610 0.000000 2.135800 
# 
# From -- ./inp_files/263106.got.cif
#   From: 2010.05.17/outbox.cif.g08.bks.cpg/sg15_132_cif.got.tgz:263106.got - 2010.06.03 18:47:42.
