data_PCOD9284801
_publ_section_title
;
Structure prediction by ZEFSAII (Michael W. Deem and Ramdas Pophale) SiO2 
 PCOD9284801
Probable space group: C 2/C
;
_chemical_formula_sum "Si O2"
_cell_formula_units_Z 56
_cell_length_a 28.688642
_cell_length_b 7.243004
_cell_length_c 13.716574
_cell_angle_alpha 90.000000
_cell_angle_beta 132.423960
_cell_angle_gamma 90.000000
_cell_volume 2103.936834
_symmetry_space_group_name_H-M "C 2/C"
_symmetry_group_IT_number 15
_symmetry_cell_setting 'monoclinic'
loop_
_space_group_symop_operation_xyz
x,y,z
-x,y,1/2-z
-x,-y,-z
x,-y,1/2+z
1/2+x,1/2+y,z
1/2-x,1/2+y,1/2-z
1/2-x,1/2-y,-z
1/2+x,1/2-y,1/2+z
loop_
_atom_site_type_symbol
_atom_site_label
_atom_site_fract_x
_atom_site_fract_y
_atom_site_fract_z
Si Si1 0.438831 0.974176 0.845906
Si Si2 0.619228 0.559960 0.033311
Si Si3 0.017382 0.897285 0.165284
Si Si4 0.877588 0.833844 0.656584
Si Si5 0.692006 0.862739 0.034125
Si Si6 0.694094 0.096362 0.303242
Si Si7 0.777308 0.825798 0.669895
O O1 0.462341 0.812364 0.810174
O O2 0.379741 0.903364 0.828613
O O3 0.308226 0.351205 0.605777
O O4 0.500000 0.000000 0.000000
O O5 0.632957 0.754510 0.995230
O O6 0.672336 0.570339 0.190066
O O7 0.549250 0.565071 0.979963
O O8 0.624598 0.399356 0.959262
O O9 0.078368 0.015397 0.229049
O O10 0.000000 0.953597 0.250000
O O11 0.718246 0.892742 0.308474
O O12 0.910616 0.643827 0.741326
O O13 0.752667 0.740451 0.152009
O O14 0.710695 0.071578 0.087330
O O15 0.689400 0.867919 0.913487
#
# Coordination Sequence:
#
# PCOD9284801 Si02
#       7
#     8   8   8   8   8   8   8
#     4  11  23  41  69 104 130 177 239 293 358 432
#     4  11  25  43  66 104 147 186 240 297 353 432
#     4  10  21  41  64  93 138 180 224 287 351 413
#     4  10  23  45  69  98 140 186 234 296 363 414
#     4  11  23  43  67  96 139 187 235 294 363 421
#     4  10  22  43  70  97 133 182 238 298 361 424
#     4  11  24  43  69 102 136 191 243 290 354 432
#
# _framework density 26.616769999999999
#
# number of rings (size 3 to 8) (size 9 to 14) (size 15 to 20)
#    0.000    1.429    0.000    6.429    2.000    6.286 
#    0.000    4.286    0.000    0.000    0.000    0.000 
#    0.000    0.000    0.000    0.000    0.000    0.000 
#
# Total GULP energy -156705.432525 kJ/mol
# GULP energy per Si atom -5596.622590 kJ/mol
# Density = 2.655619 g / cm^3
# Si number density = 26.616770 Si / 1000 Ang^3
#
#
#
# Elastic Constant Matrix: (Units=GPa)
#
#
# Indices 1 2 3 4 5 6 
#
# 1 82.3470 30.1733 35.4933 0.0000 18.0913 0.0000
# 2 30.1733 121.1209 34.6656 0.0000 19.6924 0.0000
# 3 35.4933 34.6656 125.2508 0.0000 29.2183 0.0000
# 4 0.0000 0.0000 0.0000 1.9323 0.0000 25.2510
# 5 18.0913 19.6924 29.2183 0.0000 49.7083 0.0000
# 6 0.0000 0.0000 0.0000 25.2510 0.0000 42.8396
#
#
#
# Elastic Compliance Matrix: (Units=1/GPa)
#
#
# Indices 1 2 3 4 5 6 
#
# 1 0.014891 -0.002431 -0.002906 0.000000 -0.002748 0.000000
# 2 -0.002431 0.009623 -0.001497 0.000000 -0.002048 0.000000
# 3 -0.002906 -0.001497 0.010241 0.000000 -0.004369 0.000000
# 4 0.000000 0.000000 0.000000 -0.077211 0.000000 0.045511
# 5 -0.002748 -0.002048 -0.004369 0.000000 0.024497 0.000000
# 6 0.000000 0.000000 0.000000 0.045511 0.000000 -0.003483
#
#
# Mechanical properties :
#
#
# Convention : Reuss Voigt Hill
#
# Bulk Modulus (GPa) = 47.42117 58.82033 53.12075
# Shear Modulus (GPa) = -6706.30182 34.12182 -3336.09000
#
# Velocity S-wave (km/s) = -50.24985 3.58434 -35.44150
# Velocity P-wave (km/s) = 57.86946 6.26713 40.67922
#
# Compressibility (1/GPa) = 0.02108763
#
# Stress axis : x y z
#
# Youngs Moduli (GPa) = 67.15575 103.91611 97.64795
#
# Poissons Ratio (x) = 0.25263 0.28374
# Poissons Ratio (y) = 0.16326 0.14616
# Poissons Ratio (z) = 0.19514 0.15554
#
# Static dielectric constant tensor:
#      x y z
#    x 2.092690 0.000000 -0.052560 
#    y 0.000000 2.081940 0.000000 
#    z -0.052560 0.000000 2.266220 
# 
# From -- ./inp_files/181589.got.cif
#   From: 2010.05.17/outbox.cif.g08.bks.cpg/sg15_91_cif.got.tgz:181589.got - 2010.06.03 18:47:42.
