data_PCOD9284008
_publ_section_title
;
Structure prediction by ZEFSAII (Michael W. Deem and Ramdas Pophale) SiO2 
 PCOD9284008
Probable space group: C 2/C
;
_chemical_formula_sum "Si O2"
_cell_formula_units_Z 48
_cell_length_a 17.569388
_cell_length_b 13.633422
_cell_length_c 16.361911
_cell_angle_alpha 90.000000
_cell_angle_beta 150.403954
_cell_angle_gamma 90.000000
_cell_volume 1935.613372
_symmetry_space_group_name_H-M "C 2/C"
_symmetry_group_IT_number 15
_symmetry_cell_setting 'monoclinic'
loop_
_space_group_symop_operation_xyz
x,y,z
-x,y,1/2-z
-x,-y,-z
x,-y,1/2+z
1/2+x,1/2+y,z
1/2-x,1/2+y,1/2-z
1/2-x,1/2-y,-z
1/2+x,1/2-y,1/2+z
loop_
_atom_site_type_symbol
_atom_site_label
_atom_site_fract_x
_atom_site_fract_y
_atom_site_fract_z
Si Si1 0.809225 0.134912 0.643161
Si Si2 0.495977 0.734071 0.091134
Si Si3 0.144597 0.647664 0.328733
Si Si4 0.203775 0.658699 0.899731
Si Si5 0.505949 0.104377 0.049580
Si Si6 0.863967 0.074562 0.184079
O O1 0.878302 0.240724 0.724279
O O2 0.785032 0.140572 0.522046
O O3 0.649606 0.123392 0.543473
O O4 0.895184 0.034558 0.742869
O O5 0.546450 0.816353 0.206466
O O6 0.629981 0.652203 0.236036
O O7 0.340617 0.669877 0.959898
O O8 0.482438 0.801312 0.998883
O O9 0.000000 0.621147 0.250000
O O10 0.143129 0.589935 0.243635
O O11 0.250000 0.750000 0.000000
O O12 0.223895 0.573427 0.986465
O O13 0.500000 0.000000 0.000000
O O14 0.000000 0.106596 0.250000
#
# Coordination Sequence:
#
# PCOD9284008 Si02
#       6
#     8   8   8   8   8   8
#     4  10  21  40  66  82 120 165 209 253 301 373
#     4  10  22  38  60  91 129 160 198 259 318 366
#     4   9  21  43  61  86 114 166 213 252 296 365
#     4   9  19  36  61  90 121 162 199 250 313 365
#     4  11  26  38  57  92 127 161 204 254 319 371
#     4   9  19  37  63  94 114 155 213 254 308 370
#
# _framework density 24.798338999999999
#
# number of rings (size 3 to 8) (size 9 to 14) (size 15 to 20)
#    0.000    2.333    0.000    2.000    9.333    0.000 
#    0.000    0.833    0.000    0.000    0.000    0.000 
#    0.000    0.000    0.000    0.000    0.000    0.000 
#
# Total GULP energy -133691.321198 kJ/mol
# GULP energy per Si atom -5570.471717 kJ/mol
# Density = 2.474190 g / cm^3
# Si number density = 24.798339 Si / 1000 Ang^3
#
#
#
# Elastic Constant Matrix: (Units=GPa)
#
#
# Indices 1 2 3 4 5 6 
#
# 1 73.3809 20.2771 30.2605 0.0001 -7.6359 0.0001
# 2 20.2771 119.2171 14.7935 0.0002 -19.6661 0.0002
# 3 30.2605 14.7935 85.1106 0.0001 -24.1150 0.0001
# 4 0.0001 0.0002 0.0001 31.0432 0.0001 -1.7537
# 5 -7.6359 -19.6661 -24.1150 0.0001 38.5972 0.0001
# 6 0.0001 0.0002 0.0001 -1.7537 0.0001 29.1933
#
#
#
# Elastic Compliance Matrix: (Units=1/GPa)
#
#
# Indices 1 2 3 4 5 6 
#
# 1 0.016556 -0.002348 -0.005941 0.000000 -0.001633 0.000000
# 2 -0.002348 0.009498 0.000515 0.000000 0.004697 0.000000
# 3 -0.005941 0.000515 0.016420 0.000000 0.009346 0.000000
# 4 0.000000 0.000000 0.000000 0.032323 0.000000 0.001942
# 5 -0.001633 0.004697 0.009346 0.000000 0.033818 0.000000
# 6 0.000000 0.000000 0.000000 0.001942 0.000000 0.034371
#
#
# Mechanical properties :
#
#
# Convention : Reuss Voigt Hill
#
# Bulk Modulus (GPa) = 37.13882 45.37455 41.25669
# Shear Modulus (GPa) = 29.84870 33.92522 31.88696
#
# Velocity S-wave (km/s) = 3.47314 3.70272 3.58977
# Velocity P-wave (km/s) = 5.57606 6.05122 5.81850
#
# Compressibility (1/GPa) = 0.02692600
#
# Stress axis : x y z
#
# Youngs Moduli (GPa) = 60.39956 105.28169 60.90000
#
# Poissons Ratio (x) = 0.24722 0.36181
# Poissons Ratio (y) = 0.14183 -0.03134
# Poissons Ratio (z) = 0.35884 -0.05418
#
# Static dielectric constant tensor:
#      x y z
#    x 2.029100 0.000000 0.055680 
#    y 0.000000 2.125300 0.000000 
#    z 0.055680 0.000000 2.088440 
# 
# From -- ./inp_files/167932.got.cif
#   From: 2010.05.17/outbox.cif.g08.bks.cpg/sg15_84_cif.got.tgz:167932.got - 2010.06.03 18:47:42.
