data_PCOD9284573
_publ_section_title
;
Structure prediction by ZEFSAII (Michael W. Deem and Ramdas Pophale) SiO2 
 PCOD9284573
Probable space group: C 2/C
;
_chemical_formula_sum "Si O2"
_cell_formula_units_Z 48
_cell_length_a 9.371882
_cell_length_b 28.180766
_cell_length_c 14.995442
_cell_angle_alpha 90.000000
_cell_angle_beta 145.500079
_cell_angle_gamma 90.000000
_cell_volume 2243.189857
_symmetry_space_group_name_H-M "C 2/C"
_symmetry_group_IT_number 15
_symmetry_cell_setting 'monoclinic'
loop_
_space_group_symop_operation_xyz
x,y,z
-x,y,1/2-z
-x,-y,-z
x,-y,1/2+z
1/2+x,1/2+y,z
1/2-x,1/2+y,1/2-z
1/2-x,1/2-y,-z
1/2+x,1/2-y,1/2+z
loop_
_atom_site_type_symbol
_atom_site_label
_atom_site_fract_x
_atom_site_fract_y
_atom_site_fract_z
Si Si1 0.757321 0.092391 0.681458
Si Si2 0.357682 0.339922 0.771119
Si Si3 0.185877 0.307663 0.054091
Si Si4 0.214838 0.801750 0.591732
Si Si5 0.754976 0.022266 0.824654
Si Si6 0.743483 0.943769 0.671537
O O1 0.726933 0.147978 0.640761
O O2 0.803587 0.073777 0.805090
O O3 0.497212 0.068561 0.513214
O O4 0.000000 0.075901 0.750000
O O5 0.500000 0.336711 0.750000
O O6 0.458385 0.321770 0.918167
O O7 0.294147 0.395115 0.750824
O O8 0.104997 0.310415 0.623710
O O9 0.227688 0.254979 0.110935
O O10 0.340795 0.312097 0.040657
O O11 0.500000 0.821664 0.750000
O O12 0.500000 0.024804 0.750000
O O13 0.697282 0.986312 0.714269
O O14 0.000000 0.000000 0.000000
O O15 0.000000 0.953632 0.750000
#
# Coordination Sequence:
#
# PCOD9284573 Si02
#       6
#     8   8   8   8   8   8
#     4  11  22  39  61  86 116 155 200 245 299 356
#     4   9  19  33  53  81 111 146 190 242 300 355
#     4   9  19  34  55  79 110 154 195 239 291 354
#     4   9  17  33  54  80 111 146 196 246 290 349
#     4  12  25  40  60  89 120 152 197 251 303 357
#     4  10  21  41  62  81 113 157 197 239 297 363
#
# _framework density 21.398101
#
# number of rings (size 3 to 8) (size 9 to 14) (size 15 to 20)
#    0.000    2.000    0.000    3.500    0.000    5.333 
#    0.000    0.833    0.000    0.000    0.000    0.000 
#    0.000    0.000    0.000    0.000    0.000    0.000 
#
# Total GULP energy -133822.074812 kJ/mol
# GULP energy per Si atom -5575.919784 kJ/mol
# Density = 2.134940 g / cm^3
# Si number density = 21.398101 Si / 1000 Ang^3
#
#
#
# Elastic Constant Matrix: (Units=GPa)
#
#
# Indices 1 2 3 4 5 6 
#
# 1 105.4982 59.1247 20.8291 0.0000 0.2286 0.0000
# 2 59.1247 105.0580 30.8941 0.0000 -29.8133 0.0000
# 3 20.8291 30.8941 69.6601 0.0000 1.9106 0.0000
# 4 0.0000 0.0000 0.0000 -4.2040 0.0000 -21.0618
# 5 0.2286 -29.8133 1.9106 0.0000 35.2929 0.0000
# 6 0.0000 0.0000 0.0000 -21.0618 0.0000 18.0405
#
#
#
# Elastic Compliance Matrix: (Units=1/GPa)
#
#
# Indices 1 2 3 4 5 6 
#
# 1 0.016327 -0.012517 0.000964 0.000000 -0.010732 0.000000
# 2 -0.012517 0.025057 -0.007965 0.000000 0.021679 0.000000
# 3 0.000964 -0.007965 0.017811 0.000000 -0.007698 0.000000
# 4 0.000000 0.000000 0.000000 -0.034731 0.000000 -0.040547
# 5 -0.010732 0.021679 -0.007698 0.000000 0.047134 0.000000
# 6 0.000000 0.000000 0.000000 -0.040547 0.000000 0.008093
#
#
# Mechanical properties :
#
#
# Convention : Reuss Voigt Hill
#
# Bulk Modulus (GPa) = 49.60672 55.76803 52.68737
# Shear Modulus (GPa) = 39.85732 21.11711 30.48722
#
# Velocity S-wave (km/s) = 4.32053 3.14485 3.77870
# Velocity P-wave (km/s) = 6.93703 6.26941 6.61166
#
# Compressibility (1/GPa) = 0.02015856
#
# Stress axis : x y z
#
# Youngs Moduli (GPa) = 61.24832 39.90841 56.14617
#
# Poissons Ratio (x) = 0.49955 -0.05412
# Poissons Ratio (y) = 0.76667 0.44718
# Poissons Ratio (z) = -0.05903 0.31786
#
# Static dielectric constant tensor:
#      x y z
#    x 1.840340 0.000000 0.000350 
#    y 0.000000 1.777990 0.000000 
#    z 0.000350 0.000000 1.870260 
# 
# From -- ./inp_files/139625.got.cif
#   From: 2010.05.17/outbox.cif.g08.bks.cpg/sg15_70_cif.got.tgz:139625.got - 2010.06.03 18:47:42.
