data_PCOD9284698
_publ_section_title
;
Structure prediction by ZEFSAII (Michael W. Deem and Ramdas Pophale) SiO2 
 PCOD9284698
Probable space group: C 2/C
;
_chemical_formula_sum "Si O2"
_cell_formula_units_Z 52
_cell_length_a 10.880678
_cell_length_b 9.282087
_cell_length_c 28.834289
_cell_angle_alpha 90.000000
_cell_angle_beta 119.409906
_cell_angle_gamma 90.000000
_cell_volume 2536.841151
_symmetry_space_group_name_H-M "C 2/C"
_symmetry_group_IT_number 15
_symmetry_cell_setting 'monoclinic'
loop_
_space_group_symop_operation_xyz
x,y,z
-x,y,1/2-z
-x,-y,-z
x,-y,1/2+z
1/2+x,1/2+y,z
1/2-x,1/2+y,1/2-z
1/2-x,1/2-y,-z
1/2+x,1/2-y,1/2+z
loop_
_atom_site_type_symbol
_atom_site_label
_atom_site_fract_x
_atom_site_fract_y
_atom_site_fract_z
Si Si1 0.500000 0.502935 0.750000
Si Si2 0.664531 0.049280 0.285037
Si Si3 0.042839 0.368139 0.475563
Si Si4 0.256266 0.184834 0.757869
Si Si5 0.270596 0.628412 0.938691
Si Si6 0.633275 0.364854 0.601756
Si Si7 0.461291 0.295973 0.655801
O O1 0.631187 0.604984 0.761407
O O2 0.458356 0.401495 0.699006
O O3 0.500000 0.041914 0.250000
O O4 0.718602 0.147479 0.252348
O O5 0.723190 0.124885 0.341707
O O6 0.728684 0.892204 0.288520
O O7 0.152952 0.413969 0.455549
O O8 0.123573 0.242633 0.518786
O O9 0.000000 0.500000 0.500000
O O10 0.907112 0.287269 0.428419
O O11 0.410782 0.183200 0.810260
O O12 0.352023 0.492428 0.932457
O O13 0.179691 0.711812 0.882821
O O14 0.512441 0.382261 0.619097
#
# Coordination Sequence:
#
# PCOD9284698 Si02
#       7
#     4   8   8   8   8   8   8
#     4  12  22  38  60  88 130 172 208 264 308 368
#     4  11  23  38  59  88 129 165 211 256 301 369
#     4  10  23  44  66  95 124 156 213 269 326 387
#     4  11  22  38  56  88 122 169 212 252 299 368
#     4  10  22  42  67  91 123 164 203 268 321 375
#     4  10  21  41  63  93 125 165 213 258 310 382
#     4  10  24  38  61  92 129 165 214 254 313 377
#
# _framework density 20.497933
#
# number of rings (size 3 to 8) (size 9 to 14) (size 15 to 20)
#    0.000    1.538    3.846    1.385    3.231    4.308 
#    0.000    4.615    0.000    0.000    0.000    0.000 
#    0.000    0.000    0.000    0.000    0.000    0.000 
#
# Total GULP energy -145104.973493 kJ/mol
# GULP energy per Si atom -5580.960519 kJ/mol
# Density = 2.045128 g / cm^3
# Si number density = 20.497933 Si / 1000 Ang^3
#
#
#
# Elastic Constant Matrix: (Units=GPa)
#
#
# Indices 1 2 3 4 5 6 
#
# 1 62.2349 35.6272 39.7689 0.0000 0.0881 0.0000
# 2 35.6272 82.2816 33.7546 0.0000 -21.6002 0.0000
# 3 39.7689 33.7546 67.3763 0.0000 -15.0531 0.0000
# 4 0.0000 0.0000 0.0000 24.1155 0.0000 -8.2503
# 5 0.0881 -21.6002 -15.0531 0.0000 30.3338 0.0000
# 6 0.0000 0.0000 0.0000 -8.2503 0.0000 32.7322
#
#
#
# Elastic Compliance Matrix: (Units=1/GPa)
#
#
# Indices 1 2 3 4 5 6 
#
# 1 0.034941 -0.012269 -0.018503 0.000000 -0.018020 0.000000
# 2 -0.012269 0.021537 -0.000128 0.000000 0.015308 0.000000
# 3 -0.018503 -0.000128 0.029039 0.000000 0.014373 0.000000
# 4 0.000000 0.000000 0.000000 0.045380 0.000000 0.011438
# 5 -0.018020 0.015308 0.014373 0.000000 0.051052 0.000000
# 6 0.000000 0.000000 0.000000 0.011438 0.000000 0.033434
#
#
# Mechanical properties :
#
#
# Convention : Reuss Voigt Hill
#
# Bulk Modulus (GPa) = 42.16488 47.79936 44.98212
# Shear Modulus (GPa) = 17.53836 24.28577 20.91206
#
# Velocity S-wave (km/s) = 2.92826 3.44581 3.19753
# Velocity P-wave (km/s) = 5.66109 6.26109 5.96863
#
# Compressibility (1/GPa) = 0.02371642
#
# Stress axis : x y z
#
# Youngs Moduli (GPa) = 28.61956 46.43211 34.43660
#
# Poissons Ratio (x) = 0.56968 0.63719
# Poissons Ratio (y) = 0.35114 0.00440
# Poissons Ratio (z) = 0.52956 0.00593
#
# Static dielectric constant tensor:
#      x y z
#    x 1.767660 0.000000 -0.015200 
#    y 0.000000 1.737620 0.000000 
#    z -0.015200 0.000000 1.765050 
# 
# From -- ./inp_files/291704.got.cif
#   From: 2010.05.17/outbox.cif.g08.bks.cpg/sg15_146_cif.got.tgz:291704.got - 2010.06.03 18:47:42.
