data_PCOD9284297
_publ_section_title
;
Structure prediction by ZEFSAII (Michael W. Deem and Ramdas Pophale) SiO2 
 PCOD9284297
Probable space group: C 2/C
;
_chemical_formula_sum "Si O2"
_cell_formula_units_Z 64
_cell_length_a 26.906676
_cell_length_b 9.765242
_cell_length_c 14.610780
_cell_angle_alpha 90.000000
_cell_angle_beta 54.508716
_cell_angle_gamma 90.000000
_cell_volume 3125.716686
_symmetry_space_group_name_H-M "C 2/C"
_symmetry_group_IT_number 15
_symmetry_cell_setting 'monoclinic'
loop_
_space_group_symop_operation_xyz
x,y,z
-x,y,1/2-z
-x,-y,-z
x,-y,1/2+z
1/2+x,1/2+y,z
1/2-x,1/2+y,1/2-z
1/2-x,1/2-y,-z
1/2+x,1/2-y,1/2+z
loop_
_atom_site_type_symbol
_atom_site_label
_atom_site_fract_x
_atom_site_fract_y
_atom_site_fract_z
Si Si1 0.517552 0.183192 0.629730
Si Si2 0.509093 0.494358 0.135974
Si Si3 0.859177 0.463602 0.560701
Si Si4 0.768585 0.615590 0.927584
Si Si5 0.199978 0.178107 0.818657
Si Si6 0.882721 0.337067 0.201827
Si Si7 0.099336 0.047043 0.386514
Si Si8 0.237264 0.371272 0.442728
O O1 0.500000 0.139999 0.750000
O O2 0.530610 0.346554 0.617674
O O3 0.575862 0.099696 0.535783
O O4 0.455328 0.164816 0.639705
O O5 0.500000 0.445986 0.250000
O O6 0.446160 0.498362 0.145881
O O7 0.557691 0.417392 0.019704
O O8 0.817401 0.331575 0.630728
O O9 0.868103 0.553795 0.640629
O O10 0.828060 0.565220 0.519847
O O11 0.741014 0.615782 0.855470
O O12 0.841765 0.622468 0.833173
O O13 0.750000 0.750000 0.000000
O O14 0.739912 0.498219 0.020847
O O15 0.232089 0.171218 0.685639
O O16 0.142554 0.077428 0.867679
O O17 0.866548 0.182814 0.185581
O O18 0.250000 0.250000 0.500000
#
# Coordination Sequence:
#
# PCOD9284297 Si02
#       8
#     8   8   8   8   8   8   8   8
#     4  10  21  40  68  98 130 185 237 288 353 431
#     4   9  19  40  65  96 133 176 234 290 344 418
#     4  12  24  46  68  98 140 186 232 297 363 428
#     4  12  25  45  73 104 140 189 239 286 361 433
#     4  12  26  45  71  98 142 186 236 292 357 426
#     4  11  24  41  69  99 143 180 236 295 357 424
#     4  10  22  39  66  98 132 179 231 287 354 415
#     4  12  28  45  70 104 141 183 235 296 351 430
#
# _framework density 20.475304000000001
#
# number of rings (size 3 to 8) (size 9 to 14) (size 15 to 20)
#    0.000    1.000    3.750    2.625    1.750    2.000 
#    0.000    0.625    0.000    0.000    0.000    0.000 
#    0.000    0.000    0.000    0.000    0.000    0.000 
#
# Total GULP energy -178610.299681 kJ/mol
# GULP energy per Si atom -5581.571865 kJ/mol
# Density = 2.042870 g / cm^3
# Si number density = 20.475304 Si / 1000 Ang^3
#
#
#
# Elastic Constant Matrix: (Units=GPa)
#
#
# Indices 1 2 3 4 5 6 
#
# 1 71.9859 27.7794 47.2545 0.0000 10.0558 0.0000
# 2 27.7794 80.1884 8.0242 0.0000 -0.2310 0.0000
# 3 47.2545 8.0242 108.4062 0.0000 13.6637 0.0000
# 4 0.0000 0.0000 0.0000 11.6634 0.0000 2.5111
# 5 10.0558 -0.2310 13.6637 0.0000 31.4148 0.0000
# 6 0.0000 0.0000 0.0000 2.5111 0.0000 37.2936
#
#
#
# Elastic Compliance Matrix: (Units=1/GPa)
#
#
# Indices 1 2 3 4 5 6 
#
# 1 0.023093 -0.007099 -0.009101 0.000000 -0.003485 0.000000
# 2 -0.007099 0.014754 0.001801 0.000000 0.001598 0.000000
# 3 -0.009101 0.001801 0.013426 0.000000 -0.002913 0.000000
# 4 0.000000 0.000000 0.000000 0.086999 0.000000 -0.005858
# 5 -0.003485 0.001598 -0.002913 0.000000 0.034227 0.000000
# 6 0.000000 0.000000 0.000000 -0.005858 0.000000 0.027209
#
#
# Mechanical properties :
#
#
# Convention : Reuss Voigt Hill
#
# Bulk Modulus (GPa) = 44.49631 47.41075 45.95353
# Shear Modulus (GPa) = 21.18668 27.90919 24.54793
#
# Velocity S-wave (km/s) = 3.22023 3.69598 3.46628
# Velocity P-wave (km/s) = 5.96703 6.43576 6.20582
#
# Compressibility (1/GPa) = 0.02247377
#
# Stress axis : x y z
#
# Youngs Moduli (GPa) = 43.30403 67.77657 74.48415
#
# Poissons Ratio (x) = 0.48116 0.67790
# Poissons Ratio (y) = 0.30742 -0.13415
# Poissons Ratio (z) = 0.39412 -0.12207
#
# Static dielectric constant tensor:
#      x y z
#    x 1.782670 0.000000 -0.024730 
#    y 0.000000 1.685570 0.000000 
#    z -0.024730 0.000000 1.756620 
# 
# From -- ./inp_files/181126.got.cif
#   From: 2010.05.17/outbox.cif.g08.bks.cpg/sg15_91_cif.got.tgz:181126.got - 2010.06.03 18:47:42.
