data_PCOD9284391
_publ_section_title
;
Structure prediction by ZEFSAII (Michael W. Deem and Ramdas Pophale) SiO2 
 PCOD9284391
Probable space group: C 2/C
;
_chemical_formula_sum "Si O2"
_cell_formula_units_Z 52
_cell_length_a 5.312374
_cell_length_b 28.282515
_cell_length_c 14.841803
_cell_angle_alpha 90.000000
_cell_angle_beta 101.677189
_cell_angle_gamma 90.000000
_cell_volume 2183.788748
_symmetry_space_group_name_H-M "C 2/C"
_symmetry_group_IT_number 15
_symmetry_cell_setting 'monoclinic'
loop_
_space_group_symop_operation_xyz
x,y,z
-x,y,1/2-z
-x,-y,-z
x,-y,1/2+z
1/2+x,1/2+y,z
1/2-x,1/2+y,1/2-z
1/2-x,1/2-y,-z
1/2+x,1/2-y,1/2+z
loop_
_atom_site_type_symbol
_atom_site_label
_atom_site_fract_x
_atom_site_fract_y
_atom_site_fract_z
Si Si1 0.652860 0.327270 0.342100
Si Si2 0.115393 0.259216 0.585379
Si Si3 0.207747 0.099084 0.455815
Si Si4 0.299542 0.851074 0.540980
Si Si5 0.056607 0.001877 0.356132
Si Si6 0.439727 0.059775 0.644012
Si Si7 0.000000 0.742604 0.750000
O O1 0.500000 0.352035 0.250000
O O2 0.469889 0.290867 0.381289
O O3 0.754363 0.358102 0.430422
O O4 0.857145 0.292556 0.309357
O O5 0.250000 0.250000 0.500000
O O6 0.312734 0.274725 0.677177
O O7 0.886354 0.296791 0.560397
O O8 0.451472 0.117883 0.417665
O O9 0.131195 0.046731 0.420731
O O10 0.303906 0.096185 0.566328
O O11 0.961427 0.132921 0.431411
O O12 0.000000 0.017689 0.250000
O O13 0.296932 0.964953 0.372355
O O14 0.786075 0.979257 0.365056
O O15 0.500000 0.077822 0.750000
#
# Coordination Sequence:
#
# PCOD9284391 Si02
#       7
#     8   8   8   8   8   8   4
#     4  10  23  41  66  92 120 173 230 275 327 387
#     4  11  22  43  68  90 128 171 236 273 325 393
#     4  12  25  40  62  99 134 169 207 258 343 394
#     4  12  26  40  64  93 139 171 202 275 340 389
#     4  10  21  42  68  91 124 172 220 264 305 382
#     4  10  21  40  70  94 123 166 220 266 310 382
#     4  10  22  40  70  92 112 168 244 278 314 390
#
# _framework density 23.811827999999998
#
# number of rings (size 3 to 8) (size 9 to 14) (size 15 to 20)
#    0.000    1.231    1.538    4.154    4.308    1.231 
#    1.385    0.000    0.000    0.000    0.000    0.000 
#    0.000    0.000    0.000    0.000    0.000    0.000 
#
# Total GULP energy -145448.895098 kJ/mol
# GULP energy per Si atom -5594.188273 kJ/mol
# Density = 2.375763 g / cm^3
# Si number density = 23.811828 Si / 1000 Ang^3
#
#
#
# Elastic Constant Matrix: (Units=GPa)
#
#
# Indices 1 2 3 4 5 6 
#
# 1 134.1277 41.7408 49.4577 0.0000 22.0733 0.0000
# 2 41.7408 50.4627 6.5999 0.0000 8.1322 0.0000
# 3 49.4577 6.5999 55.0505 0.0000 15.3760 0.0000
# 4 0.0000 0.0000 0.0000 22.4492 0.0000 10.6952
# 5 22.0733 8.1322 15.3760 0.0000 37.1465 0.0000
# 6 0.0000 0.0000 0.0000 10.6952 0.0000 43.8072
#
#
#
# Elastic Compliance Matrix: (Units=1/GPa)
#
#
# Indices 1 2 3 4 5 6 
#
# 1 0.015762 -0.011132 -0.012315 0.000000 -0.001832 0.000000
# 2 -0.011132 0.028494 0.007327 0.000000 -0.002656 0.000000
# 3 -0.012315 0.007327 0.030252 0.000000 -0.006809 0.000000
# 4 0.000000 0.000000 0.000000 0.050408 0.000000 -0.012307
# 5 -0.001832 -0.002656 -0.006809 0.000000 0.031409 0.000000
# 6 0.000000 0.000000 0.000000 -0.012307 0.000000 0.025832
#
#
# Mechanical properties :
#
#
# Convention : Reuss Voigt Hill
#
# Bulk Modulus (GPa) = 23.65816 48.35975 36.00895
# Shear Modulus (GPa) = 21.88312 30.13675 26.00993
#
# Velocity S-wave (km/s) = 3.03479 3.56142 3.30860
# Velocity P-wave (km/s) = 4.71561 6.10449 5.45444
#
# Compressibility (1/GPa) = 0.04226872
#
# Stress axis : x y z
#
# Youngs Moduli (GPa) = 63.44286 35.09467 33.05571
#
# Poissons Ratio (x) = 0.39068 0.40707
# Poissons Ratio (y) = 0.70625 -0.24219
# Poissons Ratio (z) = 0.78127 -0.25713
#
# Static dielectric constant tensor:
#      x y z
#    x 1.994610 0.000000 0.055970 
#    y 0.000000 1.886730 0.000000 
#    z 0.055970 0.000000 1.940970 
# 
# From -- ./inp_files/130877.got.cif
#   From: 2010.05.17/outbox.cif.g08.bks.cpg/sg15_66_cif.got.tgz:130877.got - 2010.06.03 18:47:42.
