data_PCOD9284130
_publ_section_title
;
Structure prediction by ZEFSAII (Michael W. Deem and Ramdas Pophale) SiO2 
 PCOD9284130
Probable space group: C 2/C
;
_chemical_formula_sum "Si O2"
_cell_formula_units_Z 40
_cell_length_a 13.686307
_cell_length_b 19.032397
_cell_length_c 8.228262
_cell_angle_alpha 90.000000
_cell_angle_beta 53.669142
_cell_angle_gamma 90.000000
_cell_volume 1726.681996
_symmetry_space_group_name_H-M "C 2/C"
_symmetry_group_IT_number 15
_symmetry_cell_setting 'monoclinic'
loop_
_space_group_symop_operation_xyz
x,y,z
-x,y,1/2-z
-x,-y,-z
x,-y,1/2+z
1/2+x,1/2+y,z
1/2-x,1/2+y,1/2-z
1/2-x,1/2-y,-z
1/2+x,1/2-y,1/2+z
loop_
_atom_site_type_symbol
_atom_site_label
_atom_site_fract_x
_atom_site_fract_y
_atom_site_fract_z
Si Si1 0.392803 0.065378 0.458192
Si Si2 0.635767 0.413319 0.578912
Si Si3 0.959550 0.720517 0.467991
Si Si4 0.292407 0.726123 0.633782
Si Si5 0.759541 0.042316 0.187526
O O1 0.500000 0.029487 0.250000
O O2 0.447102 0.135946 0.480131
O O3 0.337345 0.012170 0.640801
O O4 0.295390 0.083703 0.411592
O O5 0.500000 0.391232 0.750000
O O6 0.693345 0.358044 0.397541
O O7 0.641250 0.490263 0.491154
O O8 0.699113 0.415962 0.693688
O O9 0.822914 0.745791 0.641049
O O10 0.000000 0.744099 0.250000
O O11 0.074564 0.743139 0.461845
O O12 0.250000 0.750000 0.500000
#
# Coordination Sequence:
#
# PCOD9284130 Si02
#       5
#     8   8   8   8   8
#     4  10  21  40  67 102 136 177 227 283 355 411
#     4  11  23  43  68 102 137 181 239 285 358 412
#     4  11  25  47  73 101 143 186 240 290 353 418
#     4  12  26  48  71 104 141 192 236 293 348 423
#     4  10  22  42  69 100 139 176 232 287 351 422
#
# _framework density 23.165818999999999
#
# number of rings (size 3 to 8) (size 9 to 14) (size 15 to 20)
#    0.000    1.200    2.000    3.600    5.600    0.000 
#    3.600    1.000    0.000    0.000    0.000    0.000 
#    0.000    0.000    0.000    0.000    0.000    0.000 
#
# Total GULP energy -111728.720604 kJ/mol
# GULP energy per Si atom -5586.436030 kJ/mol
# Density = 2.311309 g / cm^3
# Si number density = 23.165819 Si / 1000 Ang^3
#
#
#
# Elastic Constant Matrix: (Units=GPa)
#
#
# Indices 1 2 3 4 5 6 
#
# 1 152.1667 57.9636 22.0098 0.0000 1.6299 0.0000
# 2 57.9636 74.7796 12.9879 0.0000 -2.9888 0.0000
# 3 22.0098 12.9879 116.7545 0.0000 -21.7664 0.0000
# 4 0.0000 0.0000 0.0000 7.9514 0.0000 22.2440
# 5 1.6299 -2.9888 -21.7664 0.0000 38.6835 0.0000
# 6 0.0000 0.0000 0.0000 22.2440 0.0000 11.7639
#
#
#
# Elastic Compliance Matrix: (Units=1/GPa)
#
#
# Indices 1 2 3 4 5 6 
#
# 1 0.009533 -0.007230 -0.001309 0.000000 -0.001697 0.000000
# 2 -0.007230 0.019121 -0.000482 0.000000 0.001510 0.000000
# 3 -0.001309 -0.000482 0.009908 0.000000 0.005593 0.000000
# 4 0.000000 0.000000 0.000000 -0.029318 0.000000 0.055436
# 5 -0.001697 0.001510 0.005593 0.000000 0.029186 0.000000
# 6 0.000000 0.000000 0.000000 0.055436 0.000000 -0.019816
#
#
# Mechanical properties :
#
#
# Convention : Reuss Voigt Hill
#
# Bulk Modulus (GPa) = 48.73534 58.84706 53.79120
# Shear Modulus (GPa) = 114.94865 28.39572 71.67218
#
# Velocity S-wave (km/s) = 7.05178 3.50488 5.56830
# Velocity P-wave (km/s) = 9.34809 6.46812 8.03814
#
# Compressibility (1/GPa) = 0.02051899
#
# Stress axis : x y z
#
# Youngs Moduli (GPa) = 104.89493 52.29868 100.92689
#
# Poissons Ratio (x) = 0.37812 0.13214
# Poissons Ratio (y) = 0.75839 0.04870
# Poissons Ratio (z) = 0.13733 0.02523
#
# Static dielectric constant tensor:
#      x y z
#    x 1.803410 0.000000 -0.032540 
#    y 0.000000 1.924130 0.000000 
#    z -0.032540 0.000000 1.895170 
# 
# From -- ./inp_files/40536.got.cif
#   From: 2010.05.17/outbox.cif.g08.bks.cpg/sg15_21_cif.got.tgz:40536.got - 2010.06.03 18:47:42.
