data_PCOD9284696
_publ_section_title
;
Structure prediction by ZEFSAII (Michael W. Deem and Ramdas Pophale) SiO2 
 PCOD9284696
Probable space group: C 2/C
;
_chemical_formula_sum "Si O2"
_cell_formula_units_Z 56
_cell_length_a 23.980229
_cell_length_b 11.260598
_cell_length_c 28.468189
_cell_angle_alpha 90.000000
_cell_angle_beta 157.660899
_cell_angle_gamma 90.000000
_cell_volume 2921.851749
_symmetry_space_group_name_H-M "C 2/C"
_symmetry_group_IT_number 15
_symmetry_cell_setting 'monoclinic'
loop_
_space_group_symop_operation_xyz
x,y,z
-x,y,1/2-z
-x,-y,-z
x,-y,1/2+z
1/2+x,1/2+y,z
1/2-x,1/2+y,1/2-z
1/2-x,1/2-y,-z
1/2+x,1/2-y,1/2+z
loop_
_atom_site_type_symbol
_atom_site_label
_atom_site_fract_x
_atom_site_fract_y
_atom_site_fract_z
Si Si1 0.128002 0.920500 0.028820
Si Si2 0.922172 0.876055 0.326008
Si Si3 0.464944 0.829877 0.080632
Si Si4 0.200271 0.212392 0.676936
Si Si5 0.650888 0.035109 0.092653
Si Si6 0.534926 0.967893 0.224294
Si Si7 0.573463 0.764160 0.858894
O O1 0.120360 0.874384 0.076930
O O2 0.290660 0.970574 0.147720
O O3 0.102594 0.799713 0.979639
O O4 0.016123 0.019297 0.923702
O O5 0.879231 0.788824 0.335143
O O6 0.003755 0.815119 0.346111
O O7 0.771186 0.934269 0.190971
O O8 0.630613 0.828128 0.188816
O O9 0.473928 0.871464 0.140745
O O10 0.377453 0.926970 0.982740
O O11 0.203608 0.344074 0.658719
O O12 0.500000 0.000000 0.000000
O O13 0.500000 0.933132 0.250000
O O14 0.467837 0.098195 0.164100
O O15 0.500000 0.736483 0.750000
O O16 0.750000 0.750000 0.000000
#
# Coordination Sequence:
#
# PCOD9284696 Si02
#       7
#     8   8   8   8   8   8   8
#     4  10  22  42  63  97 134 164 215 270 321 397
#     4  12  23  39  70  94 128 179 216 259 345 392
#     4  10  21  41  63  92 134 159 210 270 315 378
#     4  10  22  39  62  95 133 166 204 266 322 401
#     4  11  23  36  59  96 131 164 212 262 318 394
#     4  10  23  44  69  89 126 175 216 271 331 382
#     4  11  27  48  67  97 134 172 233 286 329 398
#
# _framework density 19.165928999999998
#
# number of rings (size 3 to 8) (size 9 to 14) (size 15 to 20)
#    0.000    1.429    2.857    2.143    4.000    1.714 
#    0.000    0.714    0.000    0.000    0.000    0.000 
#    0.000    0.000    0.000    0.000    0.000    0.000 
#
# Total GULP energy -156375.242058 kJ/mol
# GULP energy per Si atom -5584.830073 kJ/mol
# Density = 1.912231 g / cm^3
# Si number density = 19.165929 Si / 1000 Ang^3
#
#
#
# Elastic Constant Matrix: (Units=GPa)
#
#
# Indices 1 2 3 4 5 6 
#
# 1 125.5864 42.0504 46.6904 -0.0007 0.4323 -0.0011
# 2 42.0504 43.2044 34.6739 0.0000 0.0875 -0.0003
# 3 46.6904 34.6739 111.8663 -0.0041 5.4277 -0.0045
# 4 -0.0007 0.0000 -0.0041 34.8857 -0.0008 -5.0904
# 5 0.4323 0.0875 5.4277 -0.0008 21.9452 -0.0005
# 6 -0.0011 -0.0003 -0.0045 -5.0904 -0.0005 5.1639
#
#
#
# Elastic Compliance Matrix: (Units=1/GPa)
#
#
# Indices 1 2 3 4 5 6 
#
# 1 0.012098 -0.010267 -0.001880 0.000000 0.000268 0.000000
# 2 -0.010267 0.039634 -0.008099 -0.000002 0.002047 -0.000009
# 3 -0.001880 -0.008099 0.012380 0.000003 -0.002993 0.000013
# 4 0.000000 -0.000002 0.000003 0.033481 0.000001 0.033004
# 5 0.000268 0.002047 -0.002993 0.000001 0.046295 0.000004
# 6 0.000000 -0.000009 0.000013 0.033004 0.000004 0.226188
#
#
# Mechanical properties :
#
#
# Convention : Reuss Voigt Hill
#
# Bulk Modulus (GPa) = 42.33745 58.60961 50.47353
# Shear Modulus (GPa) = 11.94908 22.88178 17.41543
#
# Velocity S-wave (km/s) = 2.49962 3.45900 3.01768
# Velocity P-wave (km/s) = 5.51984 6.82638 6.20758
#
# Compressibility (1/GPa) = 0.02361975
#
# Stress axis : x y z
#
# Youngs Moduli (GPa) = 82.65540 25.23073 80.77767
#
# Poissons Ratio (x) = 0.25904 0.15189
# Poissons Ratio (y) = 0.84860 0.65423
# Poissons Ratio (z) = 0.15542 0.20435
#
# Static dielectric constant tensor:
#      x y z
#    x 1.649630 0.000000 -0.038270 
#    y 0.000000 1.652220 0.000000 
#    z -0.038270 0.000000 1.787960 
# 
# From -- ./inp_files/111119.got.cif
#   From: 2010.05.17/outbox.cif.g08.bks.cpg/sg15_56_cif.got.tgz:111119.got - 2010.06.03 18:47:42.
