data_PCOD9284985
_publ_section_title
;
Structure prediction by ZEFSAII (Michael W. Deem and Ramdas Pophale) SiO2 
 PCOD9284985
Probable space group: C 2/C
;
_chemical_formula_sum "Si O2"
_cell_formula_units_Z 52
_cell_length_a 14.461687
_cell_length_b 17.697336
_cell_length_c 17.059097
_cell_angle_alpha 90.000000
_cell_angle_beta 37.713014
_cell_angle_gamma 90.000000
_cell_volume 2670.706473
_symmetry_space_group_name_H-M "C 2/C"
_symmetry_group_IT_number 15
_symmetry_cell_setting 'monoclinic'
loop_
_space_group_symop_operation_xyz
x,y,z
-x,y,1/2-z
-x,-y,-z
x,-y,1/2+z
1/2+x,1/2+y,z
1/2-x,1/2+y,1/2-z
1/2-x,1/2-y,-z
1/2+x,1/2-y,1/2+z
loop_
_atom_site_type_symbol
_atom_site_label
_atom_site_fract_x
_atom_site_fract_y
_atom_site_fract_z
Si Si1 0.729833 0.398885 0.019976
Si Si2 0.192639 0.662992 0.201260
Si Si3 0.500000 0.281621 0.250000
Si Si4 0.489877 0.078315 0.053867
Si Si5 0.175170 0.679284 0.457668
Si Si6 0.887922 0.064567 0.398739
Si Si7 0.060899 0.802884 0.845795
O O1 0.620954 0.336490 0.129638
O O2 0.656557 0.480118 0.050662
O O3 0.786805 0.367539 0.899474
O O4 0.858066 0.411763 0.999054
O O5 0.069079 0.728715 0.271948
O O6 0.138704 0.595080 0.294303
O O7 0.339973 0.699802 0.142006
O O8 0.446071 0.140451 0.018806
O O9 0.500000 0.000000 0.000000
O O10 0.244904 0.615307 0.467584
O O11 0.318431 0.705405 0.307151
O O12 0.078486 0.744510 0.564252
O O13 0.000000 0.058075 0.250000
O O14 0.983455 0.114631 0.394901
#
# Coordination Sequence:
#
# PCOD9284985 Si02
#       7
#     8   8   4   8   8   8   8
#     4  12  23  41  65  92 134 167 219 261 333 392
#     4  11  25  41  63  97 133 161 217 278 317 395
#     4  12  24  38  68  92 130 178 212 262 338 384
#     4  11  22  42  67  92 127 171 210 268 331 386
#     4  10  21  41  66  91 129 166 217 265 322 388
#     4  10  21  42  62  90 127 171 209 265 320 382
#     4  10  23  40  64  93 126 167 217 268 324 383
#
# _framework density 19.470503000000001
#
# number of rings (size 3 to 8) (size 9 to 14) (size 15 to 20)
#    0.000    1.231    3.846    1.846    4.308    0.615 
#    2.769    0.000    0.000    0.000    0.000    0.000 
#    0.000    0.000    0.000    0.000    0.000    0.000 
#
# Total GULP energy -145053.922751 kJ/mol
# GULP energy per Si atom -5578.997029 kJ/mol
# Density = 1.942619 g / cm^3
# Si number density = 19.470503 Si / 1000 Ang^3
#
#
#
# Elastic Constant Matrix: (Units=GPa)
#
#
# Indices 1 2 3 4 5 6 
#
# 1 78.5453 17.4793 19.1661 0.0000 -8.1465 0.0002
# 2 17.4793 91.6557 60.5025 0.0004 -6.1039 -0.0001
# 3 19.1661 60.5025 69.2184 0.0006 -5.4421 -0.0002
# 4 0.0000 0.0004 0.0006 33.9187 -0.0003 -5.7089
# 5 -8.1465 -6.1039 -5.4421 -0.0003 27.4822 0.0000
# 6 0.0002 -0.0001 -0.0002 -5.7089 0.0000 31.4934
#
#
#
# Elastic Compliance Matrix: (Units=1/GPa)
#
#
# Indices 1 2 3 4 5 6 
#
# 1 0.013966 -0.000143 -0.003473 0.000000 0.003420 0.000000
# 2 -0.000143 0.025838 -0.022447 0.000000 0.001251 0.000000
# 3 -0.003473 -0.022447 0.035103 0.000000 0.000936 0.000000
# 4 0.000000 0.000000 0.000000 0.030410 0.000000 0.005512
# 5 0.003420 0.001251 0.000936 0.000000 0.037864 0.000000
# 6 0.000000 0.000000 0.000000 0.005512 0.000000 0.032752
#
#
# Mechanical properties :
#
#
# Convention : Reuss Voigt Hill
#
# Bulk Modulus (GPa) = 43.89665 48.19057 46.04361
# Shear Modulus (GPa) = 21.21775 28.06364 24.64069
#
# Velocity S-wave (km/s) = 3.30470 3.80062 3.56130
# Velocity P-wave (km/s) = 6.09553 6.63806 6.37257
#
# Compressibility (1/GPa) = 0.02278078
#
# Stress axis : x y z
#
# Youngs Moduli (GPa) = 71.60476 38.70241 28.48794
#
# Poissons Ratio (x) = 0.00553 0.09894
# Poissons Ratio (y) = 0.01023 0.63946
# Poissons Ratio (z) = 0.24870 0.86874
#
# Static dielectric constant tensor:
#      x y z
#    x 1.714530 0.000000 -0.023870 
#    y 0.000000 1.693680 0.000000 
#    z -0.023870 0.000000 1.681790 
# 
# From -- ./inp_files/205634.got.cif
#   From: 2010.05.17/outbox.cif.g08.bks.cpg/sg15_103_cif.got.tgz:205634.got - 2010.06.03 18:47:42.
