data_PCOD9284314
_publ_section_title
;
Structure prediction by ZEFSAII (Michael W. Deem and Ramdas Pophale) SiO2 
 PCOD9284314
Probable space group: C 2/C
;
_chemical_formula_sum "Si O2"
_cell_formula_units_Z 40
_cell_length_a 8.572925
_cell_length_b 17.244198
_cell_length_c 11.644556
_cell_angle_alpha 90.000000
_cell_angle_beta 91.533454
_cell_angle_gamma 90.000000
_cell_volume 1720.835661
_symmetry_space_group_name_H-M "C 2/C"
_symmetry_group_IT_number 15
_symmetry_cell_setting 'monoclinic'
loop_
_space_group_symop_operation_xyz
x,y,z
-x,y,1/2-z
-x,-y,-z
x,-y,1/2+z
1/2+x,1/2+y,z
1/2-x,1/2+y,1/2-z
1/2-x,1/2-y,-z
1/2+x,1/2-y,1/2+z
loop_
_atom_site_type_symbol
_atom_site_label
_atom_site_fract_x
_atom_site_fract_y
_atom_site_fract_z
Si Si1 0.462896 0.815037 0.489382
Si Si2 0.929217 0.976910 0.872757
Si Si3 0.148973 0.224157 0.669911
Si Si4 0.326310 0.310966 0.844910
Si Si5 0.869942 0.574404 0.649086
O O1 0.579060 0.754009 0.550101
O O2 0.407281 0.770637 0.374713
O O3 0.313464 0.821935 0.567067
O O4 0.537937 0.896976 0.461769
O O5 0.934860 0.884141 0.863817
O O6 0.000000 0.006148 0.750000
O O7 0.748932 0.003967 0.867846
O O8 0.000000 0.000000 0.000000
O O9 0.244429 0.296947 0.722479
O O10 0.254525 0.148086 0.668176
O O11 0.000000 0.209861 0.750000
O O12 0.000000 0.562282 0.750000
#
# Coordination Sequence:
#
# PCOD9284314 Si02
#       5
#     8   8   8   8   8
#     4  10  22  40  73 102 139 181 250 311 364 440
#     4  12  31  50  74 105 159 204 248 307 390 454
#     4  10  21  40  69 100 137 184 245 304 372 441
#     4  10  23  44  70 106 141 189 252 311 366 451
#     4  12  25  42  72 105 145 191 247 311 371 442
#
# _framework density 23.244520999999999
#
# number of rings (size 3 to 8) (size 9 to 14) (size 15 to 20)
#    0.000    1.200    2.000    2.400    8.400    3.200 
#    0.000    0.000    0.000    0.000    0.000    0.000 
#    0.000    0.000    0.000    0.000    0.000    0.000 
#
# Total GULP energy -111745.236341 kJ/mol
# GULP energy per Si atom -5587.261817 kJ/mol
# Density = 2.319161 g / cm^3
# Si number density = 23.244521 Si / 1000 Ang^3
#
#
#
# Elastic Constant Matrix: (Units=GPa)
#
#
# Indices 1 2 3 4 5 6 
#
# 1 98.4614 3.2123 44.2285 0.0000 -3.0617 0.0000
# 2 3.2123 58.2224 4.3027 0.0000 -1.6817 0.0000
# 3 44.2285 4.3027 96.8249 0.0000 12.2218 0.0000
# 4 0.0000 0.0000 0.0000 13.8750 0.0000 6.7637
# 5 -3.0617 -1.6817 12.2218 0.0000 45.5738 0.0000
# 6 0.0000 0.0000 0.0000 6.7637 0.0000 53.8034
#
#
#
# Elastic Compliance Matrix: (Units=1/GPa)
#
#
# Indices 1 2 3 4 5 6 
#
# 1 0.013063 -0.000183 -0.006282 0.000000 0.002555 0.000000
# 2 -0.000183 0.017268 -0.000790 0.000000 0.000837 0.000000
# 3 -0.006282 -0.000790 0.013755 0.000000 -0.004140 0.000000
# 4 0.000000 0.000000 0.000000 0.076777 0.000000 -0.009652
# 5 0.002555 0.000837 -0.004140 0.000000 0.023255 0.000000
# 6 0.000000 0.000000 0.000000 -0.009652 0.000000 0.019800
#
#
# Mechanical properties :
#
#
# Convention : Reuss Voigt Hill
#
# Bulk Modulus (GPa) = 33.80813 39.66622 36.73717
# Shear Modulus (GPa) = 26.55544 36.10146 31.32845
#
# Velocity S-wave (km/s) = 3.38366 3.94524 3.67519
# Velocity P-wave (km/s) = 5.46276 6.15264 5.81793
#
# Compressibility (1/GPa) = 0.02957869
#
# Stress axis : x y z
#
# Youngs Moduli (GPa) = 76.54984 57.91024 72.70112
#
# Poissons Ratio (x) = 0.01058 0.45668
# Poissons Ratio (y) = 0.01399 0.05740
# Poissons Ratio (z) = 0.48086 0.04572
#
# Static dielectric constant tensor:
#      x y z
#    x 1.905390 0.000000 -0.054490 
#    y 0.000000 1.813770 0.000000 
#    z -0.054490 0.000000 1.869070 
# 
# From -- ./inp_files/76676.got.cif
#   From: 2010.05.17/outbox.cif.g08.bks.cpg/sg15_39_cif.got.tgz:76676.got - 2010.06.03 18:47:42.
