data_PCOD9284296
_publ_section_title
;
Structure prediction by ZEFSAII (Michael W. Deem and Ramdas Pophale) SiO2 
 PCOD9284296
Probable space group: C 2/C
;
_chemical_formula_sum "Si O2"
_cell_formula_units_Z 48
_cell_length_a 10.640347
_cell_length_b 10.752259
_cell_length_c 21.425827
_cell_angle_alpha 90.000000
_cell_angle_beta 123.515208
_cell_angle_gamma 90.000000
_cell_volume 2043.729302
_symmetry_space_group_name_H-M "C 2/C"
_symmetry_group_IT_number 15
_symmetry_cell_setting 'monoclinic'
loop_
_space_group_symop_operation_xyz
x,y,z
-x,y,1/2-z
-x,-y,-z
x,-y,1/2+z
1/2+x,1/2+y,z
1/2-x,1/2+y,1/2-z
1/2-x,1/2-y,-z
1/2+x,1/2-y,1/2+z
loop_
_atom_site_type_symbol
_atom_site_label
_atom_site_fract_x
_atom_site_fract_y
_atom_site_fract_z
Si Si1 0.615336 0.745199 0.106472
Si Si2 0.645524 0.641565 0.651584
Si Si3 0.289821 0.377217 0.047733
Si Si4 0.182791 0.129406 0.516613
Si Si5 0.563383 0.096772 0.705198
Si Si6 0.614412 0.834704 0.737133
O O1 0.694915 0.847357 0.084023
O O2 0.498648 0.653199 0.040974
O O3 0.531723 0.825808 0.136215
O O4 0.737725 0.666591 0.178991
O O5 0.469286 0.612203 0.608424
O O6 0.703313 0.626070 0.597030
O O7 0.757744 0.579021 0.732459
O O8 0.656108 0.781204 0.681291
O O9 0.258566 0.503776 0.000706
O O10 0.250000 0.250000 0.000000
O O11 0.250000 0.250000 0.500000
O O12 0.500000 0.160083 0.750000
O O13 0.513622 0.954823 0.692395
O O14 0.500000 0.756116 0.750000
#
# Coordination Sequence:
#
# PCOD9284296 Si02
#       6
#     8   8   8   8   8   8
#     4  11  24  45  68 104 138 183 240 293 354 425
#     4  11  23  42  68  98 137 185 228 287 351 417
#     4  12  26  44  73 104 136 186 237 292 355 424
#     4  12  28  45  69 103 144 181 233 294 357 421
#     4  10  23  41  68  97 141 182 230 287 353 418
#     4  10  21  40  68  98 130 178 234 281 345 418
#
# _framework density 23.486474999999999
#
# number of rings (size 3 to 8) (size 9 to 14) (size 15 to 20)
#    0.000    1.000    3.333    2.500    4.667    2.000 
#    0.000    0.000    0.000    0.000    0.000    0.000 
#    0.000    0.000    0.000    0.000    0.000    0.000 
#
# Total GULP energy -133846.726163 kJ/mol
# GULP energy per Si atom -5576.946923 kJ/mol
# Density = 2.343302 g / cm^3
# Si number density = 23.486475 Si / 1000 Ang^3
#
#
#
# Elastic Constant Matrix: (Units=GPa)
#
#
# Indices 1 2 3 4 5 6 
#
# 1 87.7739 23.8847 19.4303 0.0000 -17.2120 0.0000
# 2 23.8847 103.8641 33.1348 0.0000 -19.2426 0.0000
# 3 19.4303 33.1348 112.7896 0.0000 -7.5919 0.0000
# 4 0.0000 0.0000 0.0000 12.2929 0.0000 -13.1969
# 5 -17.2120 -19.2426 -7.5919 0.0000 54.8109 0.0000
# 6 0.0000 0.0000 0.0000 -13.1969 0.0000 32.4775
#
#
#
# Elastic Compliance Matrix: (Units=1/GPa)
#
#
# Indices 1 2 3 4 5 6 
#
# 1 0.012852 -0.001910 -0.001440 0.000000 0.003166 0.000000
# 2 -0.001910 0.011545 -0.002857 0.000000 0.003058 0.000000
# 3 -0.001440 -0.002857 0.009948 0.000000 -0.000077 0.000000
# 4 0.000000 0.000000 0.000000 0.144291 0.000000 0.058631
# 5 0.003166 0.003058 -0.000077 0.000000 0.020302 0.000000
# 6 0.000000 0.000000 0.000000 0.058631 0.000000 0.054615
#
#
# Mechanical properties :
#
#
# Convention : Reuss Voigt Hill
#
# Bulk Modulus (GPa) = 45.59424 50.81414 48.20419
# Shear Modulus (GPa) = 18.29650 35.11479 26.70564
#
# Velocity S-wave (km/s) = 2.79413 3.87086 3.37570
# Velocity P-wave (km/s) = 5.46486 6.45449 5.98018
#
# Compressibility (1/GPa) = 0.02193259
#
# Stress axis : x y z
#
# Youngs Moduli (GPa) = 77.80812 86.61765 100.52063
#
# Poissons Ratio (x) = 0.16540 0.14475
# Poissons Ratio (y) = 0.14858 0.28717
# Poissons Ratio (z) = 0.11204 0.24745
#
# Static dielectric constant tensor:
#      x y z
#    x 2.026160 0.000000 -0.003070 
#    y 0.000000 2.059320 0.000000 
#    z -0.003070 0.000000 2.118660 
# 
# From -- ./inp_files/236824.got.cif
#   From: 2010.05.17/outbox.cif.g08.bks.cpg/sg15_119_cif.got.tgz:236824.got - 2010.06.03 18:47:42.
