data_PCOD9284600
_publ_section_title
;
Structure prediction by ZEFSAII (Michael W. Deem and Ramdas Pophale) SiO2 
 PCOD9284600
Probable space group: C 2/C
;
_chemical_formula_sum "Si O2"
_cell_formula_units_Z 28
_cell_length_a 8.907616
_cell_length_b 20.511392
_cell_length_c 9.772400
_cell_angle_alpha 90.000000
_cell_angle_beta 136.353249
_cell_angle_gamma 90.000000
_cell_volume 1232.364657
_symmetry_space_group_name_H-M "C 2/C"
_symmetry_group_IT_number 15
_symmetry_cell_setting 'monoclinic'
loop_
_space_group_symop_operation_xyz
x,y,z
-x,y,1/2-z
-x,-y,-z
x,-y,1/2+z
1/2+x,1/2+y,z
1/2-x,1/2+y,1/2-z
1/2-x,1/2-y,-z
1/2+x,1/2-y,1/2+z
loop_
_atom_site_type_symbol
_atom_site_label
_atom_site_fract_x
_atom_site_fract_y
_atom_site_fract_z
Si Si1 0.500000 0.797058 0.750000
Si Si2 0.352719 0.970230 0.022048
Si Si3 0.977607 0.821430 0.034918
Si Si4 0.000000 0.073480 0.750000
Si Si5 0.500000 0.638043 0.250000
O O1 0.722610 0.835756 0.896525
O O2 0.515858 0.748034 0.631071
O O3 0.500000 0.955576 0.250000
O O4 0.212519 0.908135 0.881485
O O5 0.500000 0.000000 0.000000
O O6 0.173072 0.025755 0.934311
O O7 0.020338 0.822329 0.903444
O O8 0.097853 0.878381 0.198499
#
# Coordination Sequence:
#
# PCOD9284600 Si02
#       5
#     4   8   8   4   4
#     4   9  22  41  66  86 118 167 212 247 316 366
#     4  11  23  39  60  94 127 165 199 248 307 374
#     4  10  21  41  62  91 120 162 207 260 303 366
#     4  10  22  38  64  88 124 164 208 242 300 390
#     4  11  24  39  62  98 128 153 212 257 304 362
#
# _framework density 22.720548000000001
#
# number of rings (size 3 to 8) (size 9 to 14) (size 15 to 20)
#    0.000    1.714    0.000    3.429    6.000    5.714 
#    5.143    0.000    0.000    0.000    0.000    0.000 
#    0.000    0.000    0.000    0.000    0.000    0.000 
#
# Total GULP energy -78298.782673 kJ/mol
# GULP energy per Si atom -5592.770191 kJ/mol
# Density = 2.266883 g / cm^3
# Si number density = 22.720548 Si / 1000 Ang^3
#
#
#
# Elastic Constant Matrix: (Units=GPa)
#
#
# Indices 1 2 3 4 5 6 
#
# 1 66.2217 15.0207 31.6322 0.0000 -26.1006 0.0000
# 2 15.0207 51.1412 17.4976 0.0000 -15.4374 0.0000
# 3 31.6322 17.4976 122.3640 0.0000 -24.7270 0.0000
# 4 0.0000 0.0000 0.0000 12.0728 0.0000 -3.3039
# 5 -26.1006 -15.4374 -24.7270 0.0000 59.7402 0.0000
# 6 0.0000 0.0000 0.0000 -3.3039 0.0000 19.4235
#
#
#
# Elastic Compliance Matrix: (Units=1/GPa)
#
#
# Indices 1 2 3 4 5 6 
#
# 1 0.019956 -0.002692 -0.003440 0.000000 0.006599 0.000000
# 2 -0.002692 0.022078 -0.001687 0.000000 0.003831 0.000000
# 3 -0.003440 -0.001687 0.009724 0.000000 0.002086 0.000000
# 4 0.000000 0.000000 0.000000 0.086875 0.000000 0.014777
# 5 0.006599 0.003831 0.002086 0.000000 0.021476 0.000000
# 6 0.000000 0.000000 0.000000 0.014777 0.000000 0.053997
#
#
# Mechanical properties :
#
#
# Convention : Reuss Voigt Hill
#
# Bulk Modulus (GPa) = 27.68606 40.89198 34.28902
# Shear Modulus (GPa) = 20.67956 29.95240 25.31598
#
# Velocity S-wave (km/s) = 3.02018 3.63477 3.34163
# Velocity P-wave (km/s) = 4.93699 5.97096 5.47842
#
# Compressibility (1/GPa) = 0.03611926
#
# Stress axis : x y z
#
# Youngs Moduli (GPa) = 50.11097 45.29411 102.83351
#
# Poissons Ratio (x) = 0.12194 0.35377
# Poissons Ratio (y) = 0.13491 0.17348
# Poissons Ratio (z) = 0.17239 0.07641
#
# Static dielectric constant tensor:
#      x y z
#    x 1.879940 0.000000 0.054610 
#    y 0.000000 1.809960 0.000000 
#    z 0.054610 0.000000 1.887390 
# 
# From -- ./inp_files/21984.got.cif
#   From: 2010.05.17/outbox.cif.g08.bks.cpg/sg15_11_cif.got.tgz:21984.got - 2010.06.03 18:47:42.
