data_PCOD9284546
_publ_section_title
;
Structure prediction by ZEFSAII (Michael W. Deem and Ramdas Pophale) SiO2 
 PCOD9284546
Probable space group: C 2/C
;
_chemical_formula_sum "Si O2"
_cell_formula_units_Z 48
_cell_length_a 17.932410
_cell_length_b 9.147204
_cell_length_c 14.154020
_cell_angle_alpha 90.000000
_cell_angle_beta 69.996125
_cell_angle_gamma 90.000000
_cell_volume 2181.634307
_symmetry_space_group_name_H-M "C 2/C"
_symmetry_group_IT_number 15
_symmetry_cell_setting 'monoclinic'
loop_
_space_group_symop_operation_xyz
x,y,z
-x,y,1/2-z
-x,-y,-z
x,-y,1/2+z
1/2+x,1/2+y,z
1/2-x,1/2+y,1/2-z
1/2-x,1/2-y,-z
1/2+x,1/2-y,1/2+z
loop_
_atom_site_type_symbol
_atom_site_label
_atom_site_fract_x
_atom_site_fract_y
_atom_site_fract_z
Si Si1 0.226560 0.963244 0.196300
Si Si2 0.302921 0.252812 0.142356
Si Si3 0.672863 0.515224 0.008085
Si Si4 0.134872 0.269886 0.418143
Si Si5 0.420569 0.958588 0.478756
Si Si6 0.978941 0.805949 0.865034
O O1 0.170793 0.868647 0.288966
O O2 0.201534 0.968643 0.098524
O O3 0.309125 0.874500 0.168482
O O4 0.241467 0.133586 0.209591
O O5 0.370059 0.148802 0.068608
O O6 0.276761 0.358562 0.067258
O O7 0.584626 0.583348 0.061185
O O8 0.673951 0.373660 0.942806
O O9 0.117820 0.381968 0.513410
O O10 0.056943 0.217566 0.395277
O O11 0.438747 0.856199 0.381968
O O12 0.500000 0.000000 0.500000
O O13 0.000000 0.851858 0.750000
#
# Coordination Sequence:
#
# PCOD9284546 Si02
#       6
#     8   8   8   8   8   8
#     4  11  23  40  63  96 124 168 213 260 327 386
#     4  10  22  39  63  89 130 164 208 267 315 385
#     4  11  23  40  63  92 127 164 213 265 329 374
#     4  10  21  41  61  90 128 162 210 268 316 385
#     4   8  18  41  61  84 120 162 204 254 318 371
#     4  10  22  39  63  88 123 171 214 257 324 389
#
# _framework density 22.001854000000002
#
# number of rings (size 3 to 8) (size 9 to 14) (size 15 to 20)
#    0.000    2.000    0.000    2.500    4.667    0.000 
#    9.000    0.000    0.000    0.000    0.000    0.000 
#    0.000    0.000    0.000    0.000    0.000    0.000 
#
# Total GULP energy -133740.288507 kJ/mol
# GULP energy per Si atom -5572.512021 kJ/mol
# Density = 2.195178 g / cm^3
# Si number density = 22.001854 Si / 1000 Ang^3
#
#
#
# Elastic Constant Matrix: (Units=GPa)
#
#
# Indices 1 2 3 4 5 6 
#
# 1 49.4809 14.2319 4.2261 0.0000 7.7683 0.0000
# 2 14.2319 146.5648 46.8979 0.0000 7.5161 0.0000
# 3 4.2261 46.8979 82.7490 0.0000 14.5265 0.0000
# 4 0.0000 0.0000 0.0000 36.6078 0.0000 -4.3224
# 5 7.7683 7.5161 14.5265 0.0000 22.9784 0.0000
# 6 0.0000 0.0000 0.0000 -4.3224 0.0000 12.4023
#
#
#
# Elastic Compliance Matrix: (Units=1/GPa)
#
#
# Indices 1 2 3 4 5 6 
#
# 1 0.021915 -0.002207 0.001469 0.000000 -0.007615 0.000000
# 2 -0.002207 0.008558 -0.004924 0.000000 0.001060 0.000000
# 3 0.001469 -0.004924 0.016428 0.000000 -0.009271 0.000000
# 4 0.000000 0.000000 0.000000 0.028489 0.000000 0.009929
# 5 -0.007615 0.001060 -0.009271 0.000000 0.051608 0.000000
# 6 0.000000 0.000000 0.000000 0.009929 0.000000 0.084090
#
#
# Mechanical properties :
#
#
# Convention : Reuss Voigt Hill
#
# Bulk Modulus (GPa) = 28.10874 45.50071 36.80472
# Shear Modulus (GPa) = 21.34268 28.62695 24.98482
#
# Velocity S-wave (km/s) = 3.11793 3.61101 3.37349
# Velocity P-wave (km/s) = 5.07595 6.17342 5.65139
#
# Compressibility (1/GPa) = 0.03557613
#
# Stress axis : x y z
#
# Youngs Moduli (GPa) = 45.63116 116.84370 60.87229
#
# Poissons Ratio (x) = 0.25793 -0.08940
# Poissons Ratio (y) = 0.10073 0.29972
# Poissons Ratio (z) = -0.06702 0.57531
#
# Static dielectric constant tensor:
#      x y z
#    x 1.844440 0.000000 -0.075690 
#    y 0.000000 1.807070 0.000000 
#    z -0.075690 0.000000 1.891060 
# 
# From -- ./inp_files/166156.got.cif
#   From: 2010.05.17/outbox.cif.g08.bks.cpg/sg15_84_cif.got.tgz:166156.got - 2010.06.03 18:47:42.
