data_PCOD9284635
_publ_section_title
;
Structure prediction by ZEFSAII (Michael W. Deem and Ramdas Pophale) SiO2 
 PCOD9284635
Probable space group: C 2/C
;
_chemical_formula_sum "Si O2"
_cell_formula_units_Z 52
_cell_length_a 28.056148
_cell_length_b 5.564548
_cell_length_c 17.441561
_cell_angle_alpha 90.000000
_cell_angle_beta 55.946559
_cell_angle_gamma 90.000000
_cell_volume 2256.025476
_symmetry_space_group_name_H-M "C 2/C"
_symmetry_group_IT_number 15
_symmetry_cell_setting 'monoclinic'
loop_
_space_group_symop_operation_xyz
x,y,z
-x,y,1/2-z
-x,-y,-z
x,-y,1/2+z
1/2+x,1/2+y,z
1/2-x,1/2+y,1/2-z
1/2-x,1/2-y,-z
1/2+x,1/2-y,1/2+z
loop_
_atom_site_type_symbol
_atom_site_label
_atom_site_fract_x
_atom_site_fract_y
_atom_site_fract_z
Si Si1 0.874113 0.705437 0.266612
Si Si2 0.908868 0.586978 0.401716
Si Si3 0.319357 0.731037 0.522617
Si Si4 0.082236 0.056579 0.481748
Si Si5 0.812462 0.195600 0.344093
Si Si6 0.461705 0.475412 0.627171
Si Si7 0.000000 0.771042 0.750000
O O1 0.892190 0.720436 0.339498
O O2 0.846268 0.438800 0.287564
O O3 0.930121 0.762118 0.164195
O O4 0.832552 0.937899 0.292540
O O5 0.852015 0.484978 0.492911
O O6 0.951577 0.382623 0.335719
O O7 0.938046 0.751004 0.437769
O O8 0.360327 0.559890 0.536336
O O9 0.254745 0.752631 0.609693
O O10 0.318382 0.670907 0.432185
O O11 0.081767 0.145391 0.395348
O O12 0.024405 0.895859 0.537518
O O13 0.466604 0.401533 0.711476
#
# Coordination Sequence:
#
# PCOD9284635 Si02
#       7
#     8   8   8   8   8   8   4
#     4  11  22  43  65 105 130 185 229 295 337 423
#     4  11  22  38  71  94 141 177 236 289 361 415
#     4  10  21  41  63 102 130 177 227 292 341 427
#     4  11  23  43  63 102 136 186 229 298 362 435
#     4  10  23  39  74  96 137 174 243 278 349 409
#     4  11  24  42  68  95 143 179 241 288 370 425
#     4  12  22  42  66 106 134 188 234 304 350 442
#
# _framework density 23.049384
#
# number of rings (size 3 to 8) (size 9 to 14) (size 15 to 20)
#    0.000    1.231    3.077    3.692    2.154    2.462 
#    5.538    1.538    0.000    0.000    0.000    0.000 
#    0.000    0.000    0.000    0.000    0.000    0.000 
#
# Total GULP energy -144848.254157 kJ/mol
# GULP energy per Si atom -5571.086698 kJ/mol
# Density = 2.299692 g / cm^3
# Si number density = 23.049384 Si / 1000 Ang^3
#
#
#
# Elastic Constant Matrix: (Units=GPa)
#
#
# Indices 1 2 3 4 5 6 
#
# 1 154.0406 48.5524 55.4538 0.0059 -14.3831 -0.0191
# 2 48.5524 88.0358 46.2401 0.0368 -13.3062 -0.0286
# 3 55.4538 46.2401 81.2130 -0.0054 -16.8039 -0.0041
# 4 0.0059 0.0368 -0.0054 -0.1749 -0.0068 -12.6048
# 5 -14.3831 -13.3062 -16.8039 -0.0068 35.3752 -0.0046
# 6 -0.0191 -0.0286 -0.0041 -12.6048 -0.0046 -10.3412
#
#
#
# Elastic Compliance Matrix: (Units=1/GPa)
#
#
# Indices 1 2 3 4 5 6 
#
# 1 0.008977 -0.002438 -0.004632 -0.000006 0.000533 -0.000001
# 2 -0.002438 0.016983 -0.007639 -0.000075 0.001768 0.000052
# 3 -0.004632 -0.007639 0.020895 0.000046 0.005169 -0.000037
# 4 -0.000006 -0.000075 0.000046 0.065838 -0.000007 -0.080249
# 5 0.000533 0.001768 0.005169 -0.000007 0.031605 -0.000014
# 6 -0.000001 0.000052 -0.000037 -0.080249 -0.000014 0.001114
#
#
# Mechanical properties :
#
#
# Convention : Reuss Voigt Hill
#
# Bulk Modulus (GPa) = 57.34568 69.30910 63.32739
# Shear Modulus (GPa) = 27.67888 16.50803 22.09345
#
# Velocity S-wave (km/s) = 3.46909 2.67910 3.09937
# Velocity P-wave (km/s) = 6.40153 6.30121 6.35157
#
# Compressibility (1/GPa) = 0.01743811
#
# Stress axis : x y z
#
# Youngs Moduli (GPa) = 111.39239 58.88161 47.85854
#
# Poissons Ratio (x) = 0.14354 0.22166
# Poissons Ratio (y) = 0.27155 0.36561
# Poissons Ratio (z) = 0.51592 0.44981
#
# Static dielectric constant tensor:
#      x y z
#    x 1.988300 0.000000 -0.079330 
#    y 0.000000 1.902760 0.000000 
#    z -0.079330 0.000000 2.086690 
# 
# From -- ./inp_files/223577.got.cif
#   From: 2010.05.17/outbox.cif.g08.bks.cpg/sg15_112_cif.got.tgz:223577.got - 2010.06.03 18:47:42.
