data_PCOD9284604
_publ_section_title
;
Structure prediction by ZEFSAII (Michael W. Deem and Ramdas Pophale) SiO2 
 PCOD9284604
Probable space group: C 2/C
;
_chemical_formula_sum "Si O2"
_cell_formula_units_Z 36
_cell_length_a 12.150771
_cell_length_b 11.715610
_cell_length_c 23.437649
_cell_angle_alpha 90.000000
_cell_angle_beta 27.995287
_cell_angle_gamma 90.000000
_cell_volume 1566.119458
_symmetry_space_group_name_H-M "C 2/C"
_symmetry_group_IT_number 15
_symmetry_cell_setting 'monoclinic'
loop_
_space_group_symop_operation_xyz
x,y,z
-x,y,1/2-z
-x,-y,-z
x,-y,1/2+z
1/2+x,1/2+y,z
1/2-x,1/2+y,1/2-z
1/2-x,1/2-y,-z
1/2+x,1/2-y,1/2+z
loop_
_atom_site_type_symbol
_atom_site_label
_atom_site_fract_x
_atom_site_fract_y
_atom_site_fract_z
Si Si1 0.501295 0.502716 0.168271
Si Si2 0.808052 0.227829 0.407106
Si Si3 0.500000 0.843650 0.750000
Si Si4 0.183945 0.632688 0.883347
Si Si5 0.715630 0.481574 0.443903
O O1 0.484121 0.636605 0.192786
O O2 0.683881 0.431358 0.125065
O O3 0.256554 0.439850 0.294155
O O4 0.606632 0.503808 0.056818
O O5 0.750000 0.250000 0.500000
O O6 0.587047 0.156842 0.484000
O O7 0.819563 0.356962 0.381567
O O8 0.294385 0.758302 0.825781
O O9 0.591339 0.923152 0.657750
O O10 0.500000 0.500000 0.500000
#
# Coordination Sequence:
#
# PCOD9284604 Si02
#       5
#     8   8   4   8   8
#     4   9  22  39  65  91 122 170 205 263 315 370
#     4  10  21  41  62  91 128 160 210 269 307 374
#     4  10  22  38  62  92 124 164 210 258 310 378
#     4  10  21  42  65  90 127 161 223 252 312 390
#     4  11  22  40  63  93 131 162 207 261 321 371
#
# _framework density 22.986751999999999
#
# number of rings (size 3 to 8) (size 9 to 14) (size 15 to 20)
#    0.000    2.222    2.222    0.667    0.000    8.889 
#    0.000    4.444    0.000    0.000    0.000    0.000 
#    0.000    0.000    0.000    0.000    0.000    0.000 
#
# Total GULP energy -100499.698435 kJ/mol
# GULP energy per Si atom -5583.316580 kJ/mol
# Density = 2.293443 g / cm^3
# Si number density = 22.986752 Si / 1000 Ang^3
#
#
#
# Elastic Constant Matrix: (Units=GPa)
#
#
# Indices 1 2 3 4 5 6 
#
# 1 64.6608 16.0234 18.0234 0.0001 26.2919 0.0011
# 2 16.0234 206.7435 57.5737 -0.0010 9.8900 0.0012
# 3 18.0234 57.5737 102.1203 0.0006 29.2272 -0.0091
# 4 0.0001 -0.0010 0.0006 37.1575 -0.0020 15.2908
# 5 26.2919 9.8900 29.2272 -0.0020 36.7917 0.0016
# 6 0.0011 0.0012 -0.0091 15.2908 0.0016 12.2723
#
#
#
# Elastic Compliance Matrix: (Units=1/GPa)
#
#
# Indices 1 2 3 4 5 6 
#
# 1 0.022174 -0.001381 0.001675 -0.000004 -0.016805 0.000006
# 2 -0.001381 0.005874 -0.003752 0.000004 0.002388 -0.000008
# 3 0.001675 -0.003752 0.015099 -0.000013 -0.012183 0.000029
# 4 -0.000004 0.000004 -0.000013 0.055231 0.000018 -0.068815
# 5 -0.016805 0.002388 -0.012183 0.000018 0.048225 -0.000037
# 6 0.000006 -0.000008 0.000029 -0.068815 -0.000037 0.167225
#
#
# Mechanical properties :
#
#
# Convention : Reuss Voigt Hill
#
# Bulk Modulus (GPa) = 27.60063 61.86283 44.73173
# Shear Modulus (GPa) = 15.02307 36.03792 25.53049
#
# Velocity S-wave (km/s) = 2.55924 3.96380 3.33627
# Velocity P-wave (km/s) = 4.55700 6.92241 5.86029
#
# Compressibility (1/GPa) = 0.03623106
#
# Stress axis : x y z
#
# Youngs Moduli (GPa) = 45.09815 170.22823 66.23115
#
# Poissons Ratio (x) = 0.23509 -0.11092
# Poissons Ratio (y) = 0.06228 0.24848
# Poissons Ratio (z) = -0.07553 0.63864
#
# Static dielectric constant tensor:
#      x y z
#    x 1.943830 0.000000 -0.082890 
#    y 0.000000 1.879010 0.000010 
#    z -0.082890 0.000010 1.985130 
# 
# From -- ./inp_files/295569.got.cif
#   From: 2010.05.17/outbox.cif.g08.bks.cpg/sg15_148_cif.got.tgz:295569.got - 2010.06.03 18:47:42.
