data_PCOD9284682
_publ_section_title
;
Structure prediction by ZEFSAII (Michael W. Deem and Ramdas Pophale) SiO2 
 PCOD9284682
Probable space group: C 2/C
;
_chemical_formula_sum "Si O2"
_cell_formula_units_Z 52
_cell_length_a 16.511890
_cell_length_b 9.384546
_cell_length_c 24.402156
_cell_angle_alpha 90.000000
_cell_angle_beta 147.355147
_cell_angle_gamma 90.000000
_cell_volume 2039.733576
_symmetry_space_group_name_H-M "C 2/C"
_symmetry_group_IT_number 15
_symmetry_cell_setting 'monoclinic'
loop_
_space_group_symop_operation_xyz
x,y,z
-x,y,1/2-z
-x,-y,-z
x,-y,1/2+z
1/2+x,1/2+y,z
1/2-x,1/2+y,1/2-z
1/2-x,1/2-y,-z
1/2+x,1/2-y,1/2+z
loop_
_atom_site_type_symbol
_atom_site_label
_atom_site_fract_x
_atom_site_fract_y
_atom_site_fract_z
Si Si1 0.606017 0.774249 0.231010
Si Si2 0.173527 0.990362 0.336101
Si Si3 0.002822 0.912572 0.916635
Si Si4 0.868532 0.670316 0.027927
Si Si5 0.000000 0.517116 0.250000
Si Si6 0.184878 0.108880 0.088037
Si Si7 0.859861 0.183632 0.786072
O O1 0.664414 0.650130 0.305776
O O2 0.481718 0.710974 0.118280
O O3 0.536582 0.907534 0.222027
O O4 0.743824 0.809932 0.269713
O O5 0.283710 0.963621 0.450981
O O6 0.215997 0.876533 0.312571
O O7 0.000000 0.955481 0.250000
O O8 0.857816 0.887499 0.872905
O O9 0.969713 0.050105 0.861196
O O10 0.129845 0.956208 0.031960
O O11 0.902080 0.769505 0.994084
O O12 0.750000 0.750000 0.000000
O O13 0.029763 0.678377 0.150522
O O14 0.854723 0.614961 0.165395
#
# Coordination Sequence:
#
# PCOD9284682 Si02
#       7
#     8   8   8   8   4   8   8
#     4  11  23  40  64  92 132 165 211 264 318 383
#     4  11  22  40  67  92 125 172 209 259 326 376
#     4   9  20  41  64  84 121 170 202 255 325 378
#     4  11  23  39  65  93 125 163 214 269 313 381
#     4  12  24  40  64  98 124 166 214 268 308 390
#     4  10  22  39  65  89 120 165 215 259 317 381
#     4  10  21  41  63  91 124 165 213 259 320 378
#
# _framework density 25.493525000000002
#
# number of rings (size 3 to 8) (size 9 to 14) (size 15 to 20)
#    0.000    1.538    3.846    0.923    1.077    2.462 
#    0.000    0.000    0.000    0.000    0.000    0.000 
#    0.000    0.000    0.000    0.000    0.000    0.000 
#
# Total GULP energy -145252.574329 kJ/mol
# GULP energy per Si atom -5586.637474 kJ/mol
# Density = 2.543550 g / cm^3
# Si number density = 25.493525 Si / 1000 Ang^3
#
#
#
# Elastic Constant Matrix: (Units=GPa)
#
#
# Indices 1 2 3 4 5 6 
#
# 1 97.2186 16.6354 7.7852 0.0000 -6.3009 0.0000
# 2 16.6354 80.0490 2.3931 0.0000 -20.9071 0.0000
# 3 7.7852 2.3931 53.2474 0.0001 -13.3733 0.0000
# 4 0.0000 0.0000 0.0001 29.2893 0.0000 -12.7031
# 5 -6.3009 -20.9071 -13.3733 0.0000 46.5546 0.0000
# 6 0.0000 0.0000 0.0000 -12.7031 0.0000 47.7750
#
#
#
# Elastic Compliance Matrix: (Units=1/GPa)
#
#
# Indices 1 2 3 4 5 6 
#
# 1 0.010780 -0.002181 -0.001463 0.000000 0.000059 0.000000
# 2 -0.002181 0.014647 0.001335 0.000000 0.006666 0.000000
# 3 -0.001463 0.001335 0.020515 0.000000 0.006295 0.000000
# 4 0.000000 0.000000 0.000000 0.038593 0.000000 0.010262
# 5 0.000059 0.006666 0.006295 0.000000 0.026290 0.000000
# 6 0.000000 0.000000 0.000000 0.010262 0.000000 0.023660
#
#
# Mechanical properties :
#
#
# Convention : Reuss Voigt Hill
#
# Bulk Modulus (GPa) = 24.19966 31.57139 27.88552
# Shear Modulus (GPa) = 32.70579 38.30387 35.50483
#
# Velocity S-wave (km/s) = 3.58565 3.88041 3.73594
# Velocity P-wave (km/s) = 5.16291 5.69980 5.43798
#
# Compressibility (1/GPa) = 0.04132290
#
# Stress axis : x y z
#
# Youngs Moduli (GPa) = 92.76160 68.27479 48.74460
#
# Poissons Ratio (x) = 0.14891 0.07133
# Poissons Ratio (y) = 0.20232 -0.06506
# Poissons Ratio (z) = 0.13574 -0.09113
#
# Static dielectric constant tensor:
#      x y z
#    x 1.948370 0.000000 -0.040250 
#    y 0.000000 2.074760 0.000000 
#    z -0.040250 0.000000 2.214970 
# 
# From -- ./inp_files/273888.got.cif
#   From: 2010.05.17/outbox.cif.g08.bks.cpg/sg15_137_cif.got.tgz:273888.got - 2010.06.03 18:47:42.
