data_PCOD9284427
_publ_section_title
;
Structure prediction by ZEFSAII (Michael W. Deem and Ramdas Pophale) SiO2 
 PCOD9284427
Probable space group: C 2/C
;
_chemical_formula_sum "Si O2"
_cell_formula_units_Z 36
_cell_length_a 10.316526
_cell_length_b 23.813637
_cell_length_c 9.562543
_cell_angle_alpha 90.000000
_cell_angle_beta 140.009627
_cell_angle_gamma 90.000000
_cell_volume 1509.778113
_symmetry_space_group_name_H-M "C 2/C"
_symmetry_group_IT_number 15
_symmetry_cell_setting 'monoclinic'
loop_
_space_group_symop_operation_xyz
x,y,z
-x,y,1/2-z
-x,-y,-z
x,-y,1/2+z
1/2+x,1/2+y,z
1/2-x,1/2+y,1/2-z
1/2-x,1/2-y,-z
1/2+x,1/2-y,1/2+z
loop_
_atom_site_type_symbol
_atom_site_label
_atom_site_fract_x
_atom_site_fract_y
_atom_site_fract_z
Si Si1 0.500000 0.699877 0.750000
Si Si2 0.423161 0.549306 0.031459
Si Si3 0.912435 0.302046 0.477493
Si Si4 0.726118 0.646859 0.312077
Si Si5 0.500000 0.248564 0.750000
Si Si6 0.000000 0.423679 0.250000
O O1 0.297721 0.671842 0.644542
O O2 0.434641 0.741758 0.570297
O O3 0.500000 0.535037 0.250000
O O4 0.466662 0.610643 0.398464
O O5 0.500000 0.500000 0.000000
O O6 0.181511 0.547662 0.816762
O O7 0.932923 0.289380 0.328560
O O8 0.117025 0.335665 0.678881
O O9 0.668726 0.702266 0.355568
O O10 0.860556 0.608619 0.524050
#
# Coordination Sequence:
#
# PCOD9284427 Si02
#       6
#     4   8   8   8   4   4
#     4  10  24  38  55  86 143 191 212 277 344 380
#     4  10  23  45  72  99 132 167 223 286 351 402
#     4  11  23  40  61  92 138 187 225 272 326 397
#     4  11  22  39  67 104 128 175 238 278 321 410
#     4  12  21  40  70  98 125 187 244 265 312 406
#     4  10  21  40  71  96 136 162 218 294 334 386
#
# _framework density 23.844563000000001
#
# number of rings (size 3 to 8) (size 9 to 14) (size 15 to 20)
#    0.000    1.333    5.556    1.333    3.111    3.556 
#    0.000    3.333    2.444    0.000    0.000    0.000 
#    0.000    0.000    0.000    0.000    0.000    0.000 
#
# Total GULP energy -100203.647623 kJ/mol
# GULP energy per Si atom -5566.869312 kJ/mol
# Density = 2.379029 g / cm^3
# Si number density = 23.844563 Si / 1000 Ang^3
#
#
#
# Elastic Constant Matrix: (Units=GPa)
#
#
# Indices 1 2 3 4 5 6 
#
# 1 235.4220 49.8863 38.6363 0.0000 46.9560 0.0000
# 2 49.8863 64.2643 4.6525 0.0000 6.6383 0.0000
# 3 38.6363 4.6525 58.6709 0.0000 8.0683 0.0000
# 4 0.0000 0.0000 0.0000 11.4853 0.0000 -5.9647
# 5 46.9560 6.6383 8.0683 0.0000 51.1175 0.0000
# 6 0.0000 0.0000 0.0000 -5.9647 0.0000 45.4584
#
#
#
# Elastic Compliance Matrix: (Units=1/GPa)
#
#
# Indices 1 2 3 4 5 6 
#
# 1 0.006775 -0.004485 -0.003404 0.000000 -0.005103 0.000000
# 2 -0.004485 0.018799 0.001259 0.000000 0.001480 0.000000
# 3 -0.003404 0.001259 0.019195 0.000000 -0.000067 0.000000
# 4 0.000000 0.000000 0.000000 0.093435 0.000000 0.012260
# 5 -0.005103 0.001480 -0.000067 0.000000 0.024069 0.000000
# 6 0.000000 0.000000 0.000000 0.012260 0.000000 0.023607
#
#
# Mechanical properties :
#
#
# Convention : Reuss Voigt Hill
#
# Bulk Modulus (GPa) = 31.73719 60.52305 46.13012
# Shear Modulus (GPa) = 23.85031 39.29105 31.57068
#
# Velocity S-wave (km/s) = 3.16609 4.06371 3.64266
# Velocity P-wave (km/s) = 5.16763 6.88882 6.08934
#
# Compressibility (1/GPa) = 0.03150878
#
# Stress axis : x y z
#
# Youngs Moduli (GPa) = 147.60902 53.19571 52.09696
#
# Poissons Ratio (x) = 0.23860 0.17733
# Poissons Ratio (y) = 0.66208 -0.06561
# Poissons Ratio (z) = 0.50243 -0.06700
#
# Static dielectric constant tensor:
#      x y z
#    x 2.133160 0.000000 0.137070 
#    y 0.000000 1.958750 0.000000 
#    z 0.137070 0.000000 2.128940 
# 
# From -- ./inp_files/24714.got.cif
#   From: 2010.05.17/outbox.cif.g08.bks.cpg/sg15_13_cif.got.tgz:24714.got - 2010.06.03 18:47:42.
