data_PCOD9284053
_publ_section_title
;
Structure prediction by ZEFSAII (Michael W. Deem and Ramdas Pophale) SiO2 
 PCOD9284053
Probable space group: C 2/C
;
_chemical_formula_sum "Si O2"
_cell_formula_units_Z 48
_cell_length_a 14.483523
_cell_length_b 31.045071
_cell_length_c 14.489683
_cell_angle_alpha 90.000000
_cell_angle_beta 160.367170
_cell_angle_gamma 90.000000
_cell_volume 2189.040489
_symmetry_space_group_name_H-M "C 2/C"
_symmetry_group_IT_number 15
_symmetry_cell_setting 'monoclinic'
loop_
_space_group_symop_operation_xyz
x,y,z
-x,y,1/2-z
-x,-y,-z
x,-y,1/2+z
1/2+x,1/2+y,z
1/2-x,1/2+y,1/2-z
1/2-x,1/2-y,-z
1/2+x,1/2-y,1/2+z
loop_
_atom_site_type_symbol
_atom_site_label
_atom_site_fract_x
_atom_site_fract_y
_atom_site_fract_z
Si Si1 0.236904 0.846830 0.548359
Si Si2 0.665930 0.278456 0.633038
Si Si3 0.299348 0.463317 0.269954
Si Si4 0.084164 0.400473 0.227954
Si Si5 0.079701 0.164031 0.225333
Si Si6 0.142729 0.440834 0.789331
O O1 0.500000 0.823988 0.750000
O O2 0.118881 0.815686 0.514373
O O3 0.377279 0.888767 0.728587
O O4 0.000000 0.857380 0.250000
O O5 0.476289 0.238023 0.430524
O O6 0.594347 0.299073 0.663938
O O7 0.500000 0.500000 0.500000
O O8 0.182009 0.434929 0.244402
O O9 0.529458 0.444392 0.415909
O O10 0.028153 0.466002 0.950455
O O11 0.340848 0.369704 0.481857
O O12 0.000000 0.419108 0.250000
O O13 0.845014 0.367218 0.973974
O O14 0.000000 0.182704 0.250000
O O15 0.000000 0.455247 0.750000
#
# Coordination Sequence:
#
# PCOD9284053 Si02
#       6
#     8   8   8   8   8   8
#     4  11  23  41  65  90 121 168 220 267 314 379
#     4  12  25  38  59  92 129 167 206 264 335 389
#     4  12  24  40  65  98 133 166 204 264 333 391
#     4  10  21  40  66  93 123 166 219 267 316 382
#     4  10  22  41  64  88 120 166 218 268 315 381
#     4  11  24  44  67  93 125 170 221 264 313 383
#
# _framework density 21.927416000000001
#
# number of rings (size 3 to 8) (size 9 to 14) (size 15 to 20)
#    0.000    1.000    0.000    8.000    0.000    3.333 
#    0.000    5.000    0.000    0.000    0.000    0.000 
#    0.000    0.000    0.000    0.000    0.000    0.000 
#
# Total GULP energy -133859.744005 kJ/mol
# GULP energy per Si atom -5577.489334 kJ/mol
# Density = 2.187751 g / cm^3
# Si number density = 21.927416 Si / 1000 Ang^3
#
#
#
# Elastic Constant Matrix: (Units=GPa)
#
#
# Indices 1 2 3 4 5 6 
#
# 1 60.3173 18.4407 27.5982 0.0320 -3.9616 0.0375
# 2 18.4407 45.5896 12.7960 -0.0055 -14.5404 -0.0082
# 3 27.5982 12.7960 146.2100 0.0183 13.9499 -0.0118
# 4 0.0320 -0.0055 0.0183 -36.4167 0.0162 -82.1311
# 5 -3.9616 -14.5404 13.9499 0.0162 43.2295 0.0108
# 6 0.0375 -0.0082 -0.0118 -82.1311 0.0108 227.1043
#
#
#
# Elastic Compliance Matrix: (Units=1/GPa)
#
#
# Indices 1 2 3 4 5 6 
#
# 1 0.020280 -0.007127 -0.003253 0.000014 0.000511 0.000001
# 2 -0.007127 0.028451 -0.002059 -0.000006 0.009581 -0.000001
# 3 -0.003253 -0.002059 0.007974 -0.000001 -0.003564 0.000001
# 4 0.000014 -0.000006 -0.000001 -0.015124 0.000007 -0.005470
# 5 0.000511 0.009581 -0.003564 0.000007 0.027552 0.000001
# 6 0.000001 -0.000001 0.000001 -0.005470 0.000001 0.002425
#
#
# Mechanical properties :
#
#
# Convention : Reuss Voigt Hill
#
# Bulk Modulus (GPa) = 31.41977 41.08742 36.25360
# Shear Modulus (GPa) = 46.70960 59.66889 53.18924
#
# Velocity S-wave (km/s) = 4.62041 5.22217 4.93048
# Velocity P-wave (km/s) = 6.54403 7.42563 6.99873
#
# Compressibility (1/GPa) = 0.03182709
#
# Stress axis : x y z
#
# Youngs Moduli (GPa) = 49.30992 35.14777 125.41241
#
# Poissons Ratio (x) = 0.25050 0.40796
# Poissons Ratio (y) = 0.35144 0.25820
# Poissons Ratio (z) = 0.16040 0.07236
#
# Static dielectric constant tensor:
#      x y z
#    x 2.343120 0.000000 0.067070 
#    y 0.000000 1.790980 0.000000 
#    z 0.067070 0.000000 1.752080 
# 
# From -- ./inp_files/157725.got.cif
#   From: 2010.05.17/outbox.cif.g08.bks.cpg/sg15_79_cif.got.tgz:157725.got - 2010.06.03 18:47:42.
