data_PCOD9284728
_publ_section_title
;
Structure prediction by ZEFSAII (Michael W. Deem and Ramdas Pophale) SiO2 
 PCOD9284728
Probable space group: C 2/C
;
_chemical_formula_sum "Si O2"
_cell_formula_units_Z 32
_cell_length_a 5.493438
_cell_length_b 25.561623
_cell_length_c 11.200225
_cell_angle_alpha 90.000000
_cell_angle_beta 54.831168
_cell_angle_gamma 90.000000
_cell_volume 1285.656746
_symmetry_space_group_name_H-M "C 2/C"
_symmetry_group_IT_number 15
_symmetry_cell_setting 'monoclinic'
loop_
_space_group_symop_operation_xyz
x,y,z
-x,y,1/2-z
-x,-y,-z
x,-y,1/2+z
1/2+x,1/2+y,z
1/2-x,1/2+y,1/2-z
1/2-x,1/2-y,-z
1/2+x,1/2-y,1/2+z
loop_
_atom_site_type_symbol
_atom_site_label
_atom_site_fract_x
_atom_site_fract_y
_atom_site_fract_z
Si Si1 0.258534 0.172954 0.903105
Si Si2 0.848865 0.718980 0.117138
Si Si3 0.167567 0.021152 0.576472
Si Si4 0.294659 0.118336 0.404330
O O1 0.500000 0.146994 0.750000
O O2 0.085602 0.219518 0.880579
O O3 0.415070 0.206851 0.960228
O O4 0.039315 0.134825 0.034984
O O5 0.500000 0.712992 0.250000
O O6 0.028950 0.671984 0.124682
O O7 0.228456 0.082757 0.536673
O O8 0.000000 0.011720 0.750000
O O9 0.500000 0.000000 0.500000
O O10 0.000000 0.000000 0.500000
O O11 0.500000 0.088860 0.250000
#
# Coordination Sequence:
#
# PCOD9284728 Si02
#       4
#     8   8   8   8
#     4  10  23  39  64  98 144 189 244 297 356 431
#     4  10  21  41  63  97 143 193 239 295 358 439
#     4  12  30  55  83 115 151 195 251 322 390 461
#     4  12  25  42  71 101 141 190 245 302 377 448
#
# _framework density 24.890003
#
# number of rings (size 3 to 8) (size 9 to 14) (size 15 to 20)
#    0.000    1.000    2.500    3.000    7.000    1.000 
#    0.000    0.000    0.000    0.000    0.000    0.000 
#    0.000    0.000    0.000    0.000    0.000    0.000 
#
# Total GULP energy -89174.032599 kJ/mol
# GULP energy per Si atom -5573.377037 kJ/mol
# Density = 2.483335 g / cm^3
# Si number density = 24.890003 Si / 1000 Ang^3
#
#
#
# Elastic Constant Matrix: (Units=GPa)
#
#
# Indices 1 2 3 4 5 6 
#
# 1 100.6771 17.3331 66.1130 0.0000 -4.0705 0.0000
# 2 17.3331 45.4006 19.6155 0.0000 -4.2416 0.0000
# 3 66.1130 19.6155 232.9170 0.0000 -13.9270 0.0000
# 4 0.0000 0.0000 0.0000 33.1897 0.0000 9.0770
# 5 -4.0705 -4.2416 -13.9270 0.0000 43.2289 0.0000
# 6 0.0000 0.0000 0.0000 9.0770 0.0000 24.9455
#
#
#
# Elastic Compliance Matrix: (Units=1/GPa)
#
#
# Indices 1 2 3 4 5 6 
#
# 1 0.012701 -0.003431 -0.003329 0.000000 -0.000213 0.000000
# 2 -0.003431 0.023901 -0.000936 0.000000 0.001721 0.000000
# 3 -0.003329 -0.000936 0.005397 0.000000 0.001333 0.000000
# 4 0.000000 0.000000 0.000000 0.033460 0.000000 -0.012175
# 5 -0.000213 0.001721 0.001333 0.000000 0.023711 0.000000
# 6 0.000000 0.000000 0.000000 -0.012175 0.000000 0.044518
#
#
# Mechanical properties :
#
#
# Convention : Reuss Voigt Hill
#
# Bulk Modulus (GPa) = 37.58364 65.01310 51.29837
# Shear Modulus (GPa) = 29.77122 38.66837 34.21980
#
# Velocity S-wave (km/s) = 3.46224 3.94581 3.71191
# Velocity P-wave (km/s) = 5.57812 6.85099 6.24706
#
# Compressibility (1/GPa) = 0.02660732
#
# Stress axis : x y z
#
# Youngs Moduli (GPa) = 78.73522 41.83904 185.29291
#
# Poissons Ratio (x) = 0.14353 0.61683
# Poissons Ratio (y) = 0.27011 0.17348
# Poissons Ratio (z) = 0.26210 0.03917
#
# Static dielectric constant tensor:
#      x y z
#    x 23.399750 0.000000 3.682570 
#    y 0.000000 2.121110 0.000000 
#    z 3.682570 0.000000 2.672540 
# 
# From -- ./inp_files/73515.got.cif
#   From: 2010.05.17/outbox.cif.g08.bks.cpg/sg15_37_cif.got.tgz:73515.got - 2010.06.03 18:47:42.
