data_PCOD9284498
_publ_section_title
;
Structure prediction by ZEFSAII (Michael W. Deem and Ramdas Pophale) SiO2 
 PCOD9284498
Probable space group: C 2/C
;
_chemical_formula_sum "Si O2"
_cell_formula_units_Z 44
_cell_length_a 16.989959
_cell_length_b 8.896131
_cell_length_c 14.637524
_cell_angle_alpha 90.000000
_cell_angle_beta 97.817290
_cell_angle_gamma 90.000000
_cell_volume 2191.827049
_symmetry_space_group_name_H-M "C 2/C"
_symmetry_group_IT_number 15
_symmetry_cell_setting 'monoclinic'
loop_
_space_group_symop_operation_xyz
x,y,z
-x,y,1/2-z
-x,-y,-z
x,-y,1/2+z
1/2+x,1/2+y,z
1/2-x,1/2+y,1/2-z
1/2-x,1/2-y,-z
1/2+x,1/2-y,1/2+z
loop_
_atom_site_type_symbol
_atom_site_label
_atom_site_fract_x
_atom_site_fract_y
_atom_site_fract_z
Si Si1 0.254946 0.616287 0.626812
Si Si2 0.865226 0.113634 0.811617
Si Si3 0.000000 0.098001 0.250000
Si Si4 0.146069 0.115787 0.035156
Si Si5 0.502511 0.203922 0.921710
Si Si6 0.395813 0.083065 0.401042
O O1 0.289455 0.619265 0.733742
O O2 0.206328 0.767382 0.594060
O O3 0.325390 0.601834 0.564057
O O4 0.192678 0.481441 0.605345
O O5 0.897885 0.280565 0.830909
O O6 0.929339 0.005158 0.775155
O O7 0.849527 0.038211 0.907666
O O8 0.971924 0.202687 0.162186
O O9 0.058871 0.189933 0.031174
O O10 0.451924 0.057317 0.884546
O O11 0.571777 0.146015 0.997809
#
# Coordination Sequence:
#
# PCOD9284498 Si02
#       6
#     8   8   4   8   8   8
#     4  10  21  41  59  91 122 165 201 255 318 367
#     4  11  23  37  63  92 119 162 211 253 308 378
#     4  10  24  40  60  92 124 166 200 262 310 370
#     4   9  21  40  60  83 127 161 200 263 310 365
#     4   9  21  44  60  88 126 161 207 260 310 371
#     4  10  22  40  65  91 121 163 210 257 310 372
#
# _framework density 20.074574999999999
#
# number of rings (size 3 to 8) (size 9 to 14) (size 15 to 20)
#    0.000    2.182    0.000    1.091    5.091    2.909 
#   19.636    0.000    0.000    0.000    0.000    0.000 
#    0.000    0.000    0.000    0.000    0.000    0.000 
#
# Total GULP energy -122932.223902 kJ/mol
# GULP energy per Si atom -5587.828359 kJ/mol
# Density = 2.002888 g / cm^3
# Si number density = 20.074575 Si / 1000 Ang^3
#
#
#
# Elastic Constant Matrix: (Units=GPa)
#
#
# Indices 1 2 3 4 5 6 
#
# 1 27.2774 24.9777 15.8205 0.0000 5.3124 0.0000
# 2 24.9777 108.6173 41.2785 0.0000 1.8974 0.0000
# 3 15.8205 41.2785 37.1626 0.0000 8.6380 0.0000
# 4 0.0000 0.0000 0.0000 37.0087 0.0000 1.3580
# 5 5.3124 1.8974 8.6380 0.0000 30.9931 0.0000
# 6 0.0000 0.0000 0.0000 1.3580 0.0000 10.1997
#
#
#
# Elastic Compliance Matrix: (Units=1/GPa)
#
#
# Indices 1 2 3 4 5 6 
#
# 1 0.051445 -0.006641 -0.013439 0.000000 -0.004666 0.000000
# 2 -0.006641 0.017326 -0.017574 0.000000 0.004976 0.000000
# 3 -0.013439 -0.017574 0.054922 0.000000 -0.011928 0.000000
# 4 0.000000 0.000000 0.000000 0.027153 0.000000 -0.003615
# 5 -0.004666 0.004976 -0.011928 0.000000 0.036085 0.000000
# 6 0.000000 0.000000 0.000000 -0.003615 0.000000 0.098523
#
#
# Mechanical properties :
#
#
# Convention : Reuss Voigt Hill
#
# Bulk Modulus (GPa) = 20.66773 37.46787 29.06780
# Shear Modulus (GPa) = 13.26642 21.70568 17.48605
#
# Velocity S-wave (km/s) = 2.57350 3.29181 2.95457
# Velocity P-wave (km/s) = 4.37589 5.75785 5.11377
#
# Compressibility (1/GPa) = 0.04838460
#
# Stress axis : x y z
#
# Youngs Moduli (GPa) = 19.43822 57.71790 18.20749
#
# Poissons Ratio (x) = 0.38333 0.24469
# Poissons Ratio (y) = 0.12910 0.31997
# Poissons Ratio (z) = 0.26123 1.01432
#
# Static dielectric constant tensor:
#      x y z
#    x 1.694240 0.000000 0.001960 
#    y 0.000000 1.709150 0.000000 
#    z 0.001960 0.000000 1.684250 
# 
# From -- ./inp_files/159383.got.cif
#   From: 2010.05.17/outbox.cif.g08.bks.cpg/sg15_80_cif.got.tgz:159383.got - 2010.06.03 18:47:42.
