data_PCOD9284007
_publ_section_title
;
Structure prediction by ZEFSAII (Michael W. Deem and Ramdas Pophale) SiO2 
 PCOD9284007
Probable space group: C 2/C
;
_chemical_formula_sum "Si O2"
_cell_formula_units_Z 60
_cell_length_a 20.681032
_cell_length_b 13.932684
_cell_length_c 9.095111
_cell_angle_alpha 90.000000
_cell_angle_beta 56.054014
_cell_angle_gamma 90.000000
_cell_volume 2174.027769
_symmetry_space_group_name_H-M "C 2/C"
_symmetry_group_IT_number 15
_symmetry_cell_setting 'monoclinic'
loop_
_space_group_symop_operation_xyz
x,y,z
-x,y,1/2-z
-x,-y,-z
x,-y,1/2+z
1/2+x,1/2+y,z
1/2-x,1/2+y,1/2-z
1/2-x,1/2-y,-z
1/2+x,1/2-y,1/2+z
loop_
_atom_site_type_symbol
_atom_site_label
_atom_site_fract_x
_atom_site_fract_y
_atom_site_fract_z
Si Si1 0.543661 0.806583 0.438233
Si Si2 0.000000 0.455655 0.750000
Si Si3 0.267709 0.472375 0.768148
Si Si4 0.897464 0.747612 0.936415
Si Si5 0.159123 0.508198 0.665356
Si Si6 0.929186 0.959405 0.992050
Si Si7 0.679092 0.217082 0.189593
Si Si8 0.113441 0.148274 0.554702
O O1 0.535425 0.890110 0.572106
O O2 0.606200 0.793301 0.223677
O O3 0.463223 0.806771 0.449696
O O4 0.563057 0.710291 0.504849
O O5 0.930212 0.519748 0.770396
O O6 0.198627 0.529792 0.771756
O O7 0.345786 0.534397 0.684155
O O8 0.303898 0.382418 0.630003
O O9 0.224362 0.451245 0.973212
O O10 0.925935 0.857728 0.913927
O O11 0.822642 0.735430 0.134612
O O12 0.160584 0.391627 0.670787
O O13 0.919178 0.042704 0.883910
O O14 0.000000 0.000000 0.000000
O O15 0.750000 0.250000 0.000000
O O16 0.614991 0.288097 0.197834
#
# Coordination Sequence:
#
# PCOD9284007 Si02
#       8
#     8   4   8   8   8   8   8   8
#     4  11  22  43  66 112 144 184 259 321 376 445
#     4  12  26  50  84 102 140 204 264 330 390 448
#     4  10  26  45  68 109 152 193 248 311 384 456
#     4  11  23  38  67 106 154 184 250 314 365 456
#     4  12  25  50  74 104 146 197 258 324 381 455
#     4  10  21  40  66 109 159 204 238 301 376 462
#     4  12  22  44  71 102 142 210 242 303 387 456
#     4  10  22  39  68 100 150 194 242 300 375 458
#
# _framework density 27.598541000000001
#
# number of rings (size 3 to 8) (size 9 to 14) (size 15 to 20)
#    0.800    0.267    5.333    0.800    1.867    1.600 
#    2.400    0.667    0.000    0.000    0.000    0.000 
#    0.000    0.000    0.000    0.000    0.000    0.000 
#
# Total GULP energy -167627.504822 kJ/mol
# GULP energy per Si atom -5587.583494 kJ/mol
# Density = 2.753573 g / cm^3
# Si number density = 27.598541 Si / 1000 Ang^3
#
#
#
# Elastic Constant Matrix: (Units=GPa)
#
#
# Indices 1 2 3 4 5 6 
#
# 1 126.6110 28.0735 23.2702 0.0000 -14.5453 0.0000
# 2 28.0735 146.6275 46.8771 0.0000 1.7974 0.0000
# 3 23.2702 46.8771 195.3054 0.0000 -9.0637 0.0000
# 4 0.0000 0.0000 0.0000 24.4964 0.0000 -0.2673
# 5 -14.5453 1.7974 -9.0637 0.0000 59.8773 0.0000
# 6 0.0000 0.0000 0.0000 -0.2673 0.0000 36.3082
#
#
#
# Elastic Compliance Matrix: (Units=1/GPa)
#
#
# Indices 1 2 3 4 5 6 
#
# 1 0.008566 -0.001483 -0.000570 0.000000 0.002039 0.000000
# 2 -0.001483 0.007658 -0.001701 0.000000 -0.000848 0.000000
# 3 -0.000570 -0.001701 0.005632 0.000000 0.000765 0.000000
# 4 0.000000 0.000000 0.000000 0.040826 0.000000 0.000301
# 5 0.002039 -0.000848 0.000765 0.000000 0.017337 0.000000
# 6 0.000000 0.000000 0.000000 0.000301 0.000000 0.027544
#
#
# Mechanical properties :
#
#
# Convention : Reuss Voigt Hill
#
# Bulk Modulus (GPa) = 69.69313 73.88728 71.79020
# Shear Modulus (GPa) = 41.71775 48.82461 45.27118
#
# Velocity S-wave (km/s) = 3.89214 4.21063 4.05451
# Velocity P-wave (km/s) = 6.74578 7.10419 6.92731
#
# Compressibility (1/GPa) = 0.01434862
#
# Stress axis : x y z
#
# Youngs Moduli (GPa) = 116.74038 130.58213 177.56237
#
# Poissons Ratio (x) = 0.19363 0.10123
# Poissons Ratio (y) = 0.17310 0.30199
# Poissons Ratio (z) = 0.06655 0.22209
#
# Static dielectric constant tensor:
#      x y z
#    x 2.191180 0.000000 -0.042660 
#    y 0.000000 2.172780 0.000000 
#    z -0.042660 0.000000 2.191230 
# 
# From -- ./inp_files/62721.got.cif
#   From: 2010.05.17/outbox.cif.g08.bks.cpg/sg15_32_cif.got.tgz:62721.got - 2010.06.03 18:47:42.
