data_PCOD9284078
_publ_section_title
;
Structure prediction by ZEFSAII (Michael W. Deem and Ramdas Pophale) SiO2 
 PCOD9284078
Probable space group: C 2/C
;
_chemical_formula_sum "Si O2"
_cell_formula_units_Z 48
_cell_length_a 10.631312
_cell_length_b 11.684599
_cell_length_c 19.221293
_cell_angle_alpha 90.000000
_cell_angle_beta 125.847704
_cell_angle_gamma 90.000000
_cell_volume 1935.429194
_symmetry_space_group_name_H-M "C 2/C"
_symmetry_group_IT_number 15
_symmetry_cell_setting 'monoclinic'
loop_
_space_group_symop_operation_xyz
x,y,z
-x,y,1/2-z
-x,-y,-z
x,-y,1/2+z
1/2+x,1/2+y,z
1/2-x,1/2+y,1/2-z
1/2-x,1/2-y,-z
1/2+x,1/2-y,1/2+z
loop_
_atom_site_type_symbol
_atom_site_label
_atom_site_fract_x
_atom_site_fract_y
_atom_site_fract_z
Si Si1 0.564349 0.235634 0.193409
Si Si2 0.626755 0.149812 0.980654
Si Si3 0.195926 0.441337 0.107297
Si Si4 0.697140 0.446017 0.717423
Si Si5 0.558540 0.423717 0.424948
Si Si6 0.314129 0.040577 0.110124
O O1 0.500000 0.272046 0.250000
O O2 0.564555 0.325694 0.130584
O O3 0.441485 0.135992 0.135161
O O4 0.735404 0.180696 0.251046
O O5 0.439580 0.152958 0.927103
O O6 0.643447 0.067960 0.920059
O O7 0.750000 0.250000 0.000000
O O8 0.659373 0.065415 0.058193
O O9 0.273302 0.477365 0.205155
O O10 0.309309 0.389316 0.086910
O O11 0.522651 0.462806 0.632699
O O12 0.804304 0.484199 0.687749
O O13 0.642230 0.427835 0.525442
#
# Coordination Sequence:
#
# PCOD9284078 Si02
#       6
#     8   8   8   8   8   8
#     4  10  21  40  66  94 133 179 225 290 352 420
#     4  10  22  44  71 103 144 191 238 297 377 437
#     4  10  22  43  70 100 145 184 237 301 352 446
#     4  11  22  41  69 100 140 178 237 301 357 431
#     4  11  23  43  66 101 136 185 234 292 372 434
#     4  10  22  43  67  99 137 179 242 296 354 446
#
# _framework density 24.800702000000001
#
# number of rings (size 3 to 8) (size 9 to 14) (size 15 to 20)
#    0.000    1.667    1.667    2.500    0.000    1.333 
#   21.000    0.000    7.333    0.000    0.000    0.000 
#    0.000    0.000    0.000    0.000    0.000    0.000 
#
# Total GULP energy -133843.974453 kJ/mol
# GULP energy per Si atom -5576.832269 kJ/mol
# Density = 2.474425 g / cm^3
# Si number density = 24.800702 Si / 1000 Ang^3
#
#
#
# Elastic Constant Matrix: (Units=GPa)
#
#
# Indices 1 2 3 4 5 6 
#
# 1 69.9820 100.8650 84.3992 0.0000 -25.9063 0.0000
# 2 100.8650 -261.5656 -300.8532 0.0000 154.2594 0.0000
# 3 84.3992 -300.8532 -195.7053 0.0000 130.2112 0.0000
# 4 0.0000 0.0000 0.0000 11.4342 0.0000 25.2221
# 5 -25.9063 154.2594 130.2112 0.0000 -15.2000 0.0000
# 6 0.0000 0.0000 0.0000 25.2221 0.0000 36.7022
#
#
#
# Elastic Compliance Matrix: (Units=1/GPa)
#
#
# Indices 1 2 3 4 5 6 
#
# 1 0.010747 0.000592 0.000950 0.000000 -0.004170 0.000000
# 2 0.000592 0.005866 -0.006421 0.000000 0.003520 0.000000
# 3 0.000950 -0.006421 0.008354 0.000000 0.004785 0.000000
# 4 0.000000 0.000000 0.000000 -0.169531 0.000000 0.116503
# 5 -0.004170 0.003520 0.004785 0.000000 0.018027 0.000000
# 6 0.000000 0.000000 0.000000 0.116503 0.000000 -0.052816
#
#
# Mechanical properties :
#
#
# Convention : Reuss Voigt Hill
#
# Bulk Modulus (GPa) = 65.74871 -68.71854 -1.48492
# Shear Modulus (GPa) = -30.39040 -11.52605 -20.95822
#
# Velocity S-wave (km/s) = -3.50435 -2.15814 -2.91016
# Velocity P-wave (km/s) = 3.19287 5.82911 3.44848
#
# Compressibility (1/GPa) = 0.01520942
#
# Stress axis : x y z
#
# Youngs Moduli (GPa) = 93.05184 170.46959 119.69710
#
# Poissons Ratio (x) = -0.10088 -0.11374
# Poissons Ratio (y) = -0.05507 0.76857
# Poissons Ratio (z) = -0.08842 1.09458
#
# Static dielectric constant tensor:
#      x y z
#    x 2.269060 0.000000 0.304090 
#    y 0.000000 2.112190 0.000000 
#    z 0.304090 0.000000 2.202520 
# 
# From -- ./inp_files/237241.got.cif
#   From: 2010.05.17/outbox.cif.g08.bks.cpg/sg15_119_cif.got.tgz:237241.got - 2010.06.03 18:47:42.
