data_PCOD9284109
_publ_section_title
;
Structure prediction by ZEFSAII (Michael W. Deem and Ramdas Pophale) SiO2 
 PCOD9284109
Probable space group: C 2/C
;
_chemical_formula_sum "Si O2"
_cell_formula_units_Z 56
_cell_length_a 11.977093
_cell_length_b 13.930403
_cell_length_c 14.395216
_cell_angle_alpha 90.000000
_cell_angle_beta 110.146483
_cell_angle_gamma 90.000000
_cell_volume 2254.827756
_symmetry_space_group_name_H-M "C 2/C"
_symmetry_group_IT_number 15
_symmetry_cell_setting 'monoclinic'
loop_
_space_group_symop_operation_xyz
x,y,z
-x,y,1/2-z
-x,-y,-z
x,-y,1/2+z
1/2+x,1/2+y,z
1/2-x,1/2+y,1/2-z
1/2-x,1/2-y,-z
1/2+x,1/2-y,1/2+z
loop_
_atom_site_type_symbol
_atom_site_label
_atom_site_fract_x
_atom_site_fract_y
_atom_site_fract_z
Si Si1 0.247592 0.629292 0.524030
Si Si2 0.648515 0.213221 0.672819
Si Si3 0.964080 0.064673 0.635224
Si Si4 0.847225 0.084056 0.362273
Si Si5 0.003874 0.704813 0.361550
Si Si6 0.563046 0.101209 0.990561
Si Si7 0.137960 0.444063 0.316671
O O1 0.029063 0.669840 0.592191
O O2 0.322323 0.541174 0.588750
O O3 0.334027 0.633524 0.459511
O O4 0.122281 0.653781 0.439762
O O5 0.635052 0.323316 0.695562
O O6 0.743858 0.192682 0.617700
O O7 0.675180 0.149036 0.769332
O O8 0.000000 0.045724 0.750000
O O9 0.993571 0.179203 0.629459
O O10 0.048829 0.992602 0.605457
O O11 0.724919 0.028385 0.310685
O O12 0.907807 0.656770 0.405055
O O13 0.000000 0.684389 0.250000
O O14 0.649785 0.072085 0.930712
O O15 0.500000 0.000000 0.000000
O O16 0.000000 0.463800 0.250000
#
# Coordination Sequence:
#
# PCOD9284109 Si02
#       7
#     8   8   8   8   8   8   8
#     4  11  22  41  67  98 140 184 227 282 347 411
#     4  10  22  42  67  98 139 186 233 289 358 420
#     4  11  24  42  67 102 141 184 236 289 350 422
#     4  12  24  41  68 101 138 184 235 292 351 418
#     4  10  22  42  71 103 136 183 238 290 346 420
#     4  10  21  40  66  97 134 181 231 285 346 416
#     4  10  23  44  69 101 139 184 235 289 353 425
#
# _framework density 24.835601
#
# number of rings (size 3 to 8) (size 9 to 14) (size 15 to 20)
#    0.000    1.429    0.000    6.429    0.000    7.429 
#    0.000    5.714    0.000    3.429    0.000    0.000 
#    0.000    0.000    0.000    0.000    0.000    0.000 
#
# Total GULP energy -155924.101577 kJ/mol
# GULP energy per Si atom -5568.717913 kJ/mol
# Density = 2.477907 g / cm^3
# Si number density = 24.835601 Si / 1000 Ang^3
#
#
#
# Elastic Constant Matrix: (Units=GPa)
#
#
# Indices 1 2 3 4 5 6 
#
# 1 79.8206 68.6114 41.2500 0.0000 17.0040 0.0000
# 2 68.6114 190.9074 63.7775 0.0000 -13.9603 0.0000
# 3 41.2500 63.7775 160.2816 0.0000 -2.6746 0.0000
# 4 0.0000 0.0000 0.0000 -269.1295 0.0000 82.8976
# 5 17.0040 -13.9603 -2.6746 0.0000 25.9984 0.0000
# 6 0.0000 0.0000 0.0000 82.8976 0.0000 11.1387
#
#
#
# Elastic Compliance Matrix: (Units=1/GPa)
#
#
# Indices 1 2 3 4 5 6 
#
# 1 0.029614 -0.011351 -0.003536 0.000000 -0.025827 0.000000
# 2 -0.011351 0.010635 -0.001093 0.000000 0.013022 0.000000
# 3 -0.003536 -0.001093 0.007626 0.000000 0.002510 0.000000
# 4 0.000000 0.000000 0.000000 -0.001129 0.000000 0.008399
# 5 -0.025827 0.013022 0.002510 0.000000 0.062607 0.000000
# 6 0.000000 0.000000 0.000000 0.008399 0.000000 0.027268
#
#
# Mechanical properties :
#
#
# Convention : Reuss Voigt Hill
#
# Bulk Modulus (GPa) = 62.83245 86.47640 74.65443
# Shear Modulus (GPa) = 28.75452 -29.24045 -0.24296
#
# Velocity S-wave (km/s) = 3.40633 -3.43499 -0.31312
# Velocity P-wave (km/s) = 6.38945 4.37755 5.47668
#
# Compressibility (1/GPa) = 0.01591534
#
# Stress axis : x y z
#
# Youngs Moduli (GPa) = 33.76788 94.02949 131.13139
#
# Poissons Ratio (x) = 1.06728 0.46367
# Poissons Ratio (y) = 0.38328 0.14336
# Poissons Ratio (z) = 0.11940 0.10280
#
# Static dielectric constant tensor:
#      x y z
#    x 0.756630 0.000000 -0.468700 
#    y 0.000000 2.076400 0.000000 
#    z -0.468700 0.000000 1.904080 
# 
# From -- ./inp_files/144230.got.cif
#   From: 2010.05.17/outbox.cif.g08.bks.cpg/sg15_73_cif.got.tgz:144230.got - 2010.06.03 18:47:42.
