data_PCOD9284911
_publ_section_title
;
Structure prediction by ZEFSAII (Michael W. Deem and Ramdas Pophale) SiO2 
 PCOD9284911
Probable space group: C 2/C
;
_chemical_formula_sum "Si O2"
_cell_formula_units_Z 36
_cell_length_a 12.030680
_cell_length_b 7.549041
_cell_length_c 19.926984
_cell_angle_alpha 90.000000
_cell_angle_beta 45.234018
_cell_angle_gamma 90.000000
_cell_volume 1284.917174
_symmetry_space_group_name_H-M "C 2/C"
_symmetry_group_IT_number 15
_symmetry_cell_setting 'monoclinic'
loop_
_space_group_symop_operation_xyz
x,y,z
-x,y,1/2-z
-x,-y,-z
x,-y,1/2+z
1/2+x,1/2+y,z
1/2-x,1/2+y,1/2-z
1/2-x,1/2-y,-z
1/2+x,1/2-y,1/2+z
loop_
_atom_site_type_symbol
_atom_site_label
_atom_site_fract_x
_atom_site_fract_y
_atom_site_fract_z
Si Si1 0.055534 0.969113 0.086987
Si Si2 0.183312 0.226743 0.366836
Si Si3 0.882637 0.587694 0.408499
Si Si4 0.000000 0.651493 0.750000
Si Si5 0.716900 0.588364 0.209291
O O1 0.049460 0.754868 0.079047
O O2 0.972109 0.106034 0.071314
O O3 0.952721 0.001815 0.197366
O O4 0.240900 0.002047 0.009523
O O5 0.173678 0.438655 0.367872
O O6 0.260430 0.173128 0.262441
O O7 0.294665 0.171963 0.380245
O O8 0.990365 0.447841 0.324969
O O9 0.164181 0.755262 0.683569
#
# Coordination Sequence:
#
# PCOD9284911 Si02
#       5
#     8   8   8   4   8
#     4   9  23  40  68  95 136 179 223 289 336 411
#     4  10  21  41  65  94 129 181 226 280 337 415
#     4  11  21  42  67  98 137 173 231 282 348 405
#     4  12  24  38  70 102 130 184 220 286 344 412
#     4  10  22  40  63  94 134 175 229 274 343 402
#
# _framework density 28.01737
#
# number of rings (size 3 to 8) (size 9 to 14) (size 15 to 20)
#    1.333    0.444    0.000    4.667    0.000    0.889 
#    0.000    1.111    0.000    0.000    0.000    0.000 
#    0.000    0.000    0.000    0.000    0.000    0.000 
#
# Total GULP energy -100557.867873 kJ/mol
# GULP energy per Si atom -5586.548215 kJ/mol
# Density = 2.795360 g / cm^3
# Si number density = 28.017370 Si / 1000 Ang^3
#
#
#
# Elastic Constant Matrix: (Units=GPa)
#
#
# Indices 1 2 3 4 5 6 
#
# 1 109.4597 50.1666 2.7267 0.0000 9.5654 0.0000
# 2 50.1666 140.6973 35.4699 0.0000 -10.9772 0.0001
# 3 2.7267 35.4699 91.2129 0.0000 -13.5389 0.0000
# 4 0.0000 0.0000 0.0000 47.5316 0.0000 -9.5848
# 5 9.5654 -10.9772 -13.5389 0.0000 29.6933 0.0000
# 6 0.0000 0.0001 0.0000 -9.5848 0.0000 57.8884
#
#
#
# Elastic Compliance Matrix: (Units=1/GPa)
#
#
# Indices 1 2 3 4 5 6 
#
# 1 0.011769 -0.004789 0.000735 0.000000 -0.005227 0.000000
# 2 -0.004789 0.009903 -0.003148 0.000000 0.003768 0.000000
# 3 0.000735 -0.003148 0.012826 0.000000 0.004447 0.000000
# 4 0.000000 0.000000 0.000000 0.021765 0.000000 0.003604
# 5 -0.005227 0.003768 0.004447 0.000000 0.038782 0.000000
# 6 0.000000 0.000000 0.000000 0.003604 0.000000 0.017871
#
#
# Mechanical properties :
#
#
# Convention : Reuss Voigt Hill
#
# Bulk Modulus (GPa) = 49.77133 57.56625 53.66879
# Shear Modulus (GPa) = 37.30768 43.88976 40.59872
#
# Velocity S-wave (km/s) = 3.65306 3.96222 3.81078
# Velocity P-wave (km/s) = 5.96625 6.44387 6.20965
#
# Compressibility (1/GPa) = 0.02009189
#
# Stress axis : x y z
#
# Youngs Moduli (GPa) = 84.96665 100.98039 77.96753
#
# Poissons Ratio (x) = 0.48364 -0.05729
# Poissons Ratio (y) = 0.40695 0.24547
# Poissons Ratio (z) = -0.06243 0.31793
#
# Static dielectric constant tensor:
#      x y z
#    x 2.233300 0.000000 -0.131520 
#    y 0.000000 2.317940 0.000000 
#    z -0.131520 0.000000 2.275950 
# 
# From -- ./inp_files/224051.got.cif
#   From: 2010.05.17/outbox.cif.g08.bks.cpg/sg15_113_cif.got.tgz:224051.got - 2010.06.03 18:47:42.
