data_PCOD9284124
_publ_section_title
;
Structure prediction by ZEFSAII (Michael W. Deem and Ramdas Pophale) SiO2 
 PCOD9284124
Probable space group: C 2/C
;
_chemical_formula_sum "Si O2"
_cell_formula_units_Z 40
_cell_length_a 11.517131
_cell_length_b 9.345795
_cell_length_c 27.147161
_cell_angle_alpha 90.000000
_cell_angle_beta 29.449603
_cell_angle_gamma 90.000000
_cell_volume 1436.639882
_symmetry_space_group_name_H-M "C 2/C"
_symmetry_group_IT_number 15
_symmetry_cell_setting 'monoclinic'
loop_
_space_group_symop_operation_xyz
x,y,z
-x,y,1/2-z
-x,-y,-z
x,-y,1/2+z
1/2+x,1/2+y,z
1/2-x,1/2+y,1/2-z
1/2-x,1/2-y,-z
1/2+x,1/2-y,1/2+z
loop_
_atom_site_type_symbol
_atom_site_label
_atom_site_fract_x
_atom_site_fract_y
_atom_site_fract_z
Si Si1 0.662172 0.617920 0.150088
Si Si2 0.345148 0.161347 0.354912
Si Si3 0.064426 0.400459 0.307856
Si Si4 0.936551 0.346831 0.460460
Si Si5 0.525228 0.281732 0.386011
O O1 0.500000 0.534624 0.250000
O O2 0.500440 0.740250 0.185090
O O3 0.845429 0.700944 0.117358
O O4 0.794803 0.556172 0.052858
O O5 0.500000 0.164817 0.250000
O O6 0.513337 0.225147 0.334808
O O7 0.110943 0.247219 0.427776
O O8 0.341216 0.996285 0.373113
O O9 0.310402 0.423663 0.186427
O O10 0.070108 0.418608 0.364809
O O11 0.750000 0.250000 0.500000
O O12 0.250000 0.250000 0.500000
#
# Coordination Sequence:
#
# PCOD9284124 Si02
#       5
#     8   8   8   8   8
#     4   9  19  38  63  92 138 186 226 294 362 419
#     4  12  23  42  73 101 136 196 241 292 375 432
#     4  10  23  43  66 101 139 185 250 296 354 448
#     4  10  21  40  67 100 141 181 241 303 355 439
#     4  11  21  40  66 101 146 188 239 309 363 428
#
# _framework density 27.842748
#
# number of rings (size 3 to 8) (size 9 to 14) (size 15 to 20)
#    0.000    1.600    4.000    1.800    0.000    3.200 
#    7.200    1.000   13.200    0.000    0.000    0.000 
#    0.000    0.000    0.000    0.000    0.000    0.000 
#
# Total GULP energy -111546.216293 kJ/mol
# GULP energy per Si atom -5577.310815 kJ/mol
# Density = 2.777938 g / cm^3
# Si number density = 27.842748 Si / 1000 Ang^3
#
#
#
# Elastic Constant Matrix: (Units=GPa)
#
#
# Indices 1 2 3 4 5 6 
#
# 1 217.2112 33.9982 95.8574 -0.0003 10.3805 0.0000
# 2 33.9982 63.7114 27.2500 -0.0004 -5.5599 -0.0001
# 3 95.8574 27.2500 173.7991 -0.0019 30.7095 0.0001
# 4 -0.0003 -0.0004 -0.0019 21.1863 -0.0002 -29.0557
# 5 10.3805 -5.5599 30.7095 -0.0002 85.8531 -0.0001
# 6 0.0000 -0.0001 0.0001 -29.0557 -0.0001 50.4415
#
#
#
# Elastic Compliance Matrix: (Units=1/GPa)
#
#
# Indices 1 2 3 4 5 6 
#
# 1 0.006323 -0.001972 -0.003224 -0.000001 0.000261 -0.000001
# 2 -0.001972 0.017827 -0.002085 0.000001 0.002139 0.000001
# 3 -0.003224 -0.002085 0.008341 0.000003 -0.002729 0.000002
# 4 -0.000001 0.000001 0.000003 0.224752 0.000000 0.129464
# 5 0.000261 0.002139 -0.002729 0.000000 0.012731 0.000000
# 6 -0.000001 0.000001 0.000002 0.129464 0.000000 0.094400
#
#
# Mechanical properties :
#
#
# Convention : Reuss Voigt Hill
#
# Bulk Modulus (GPa) = 55.78043 85.43699 70.60871
# Shear Modulus (GPa) = 12.98995 51.33725 32.16360
#
# Velocity S-wave (km/s) = 2.16231 4.29864 3.40249
# Velocity P-wave (km/s) = 5.12950 7.44244 6.39146
#
# Compressibility (1/GPa) = 0.01792743
#
# Stress axis : x y z
#
# Youngs Moduli (GPa) = 158.15436 56.09552 119.88698
#
# Poissons Ratio (x) = 0.11064 0.38655
# Poissons Ratio (y) = 0.31192 0.24999
# Poissons Ratio (z) = 0.50993 0.11697
#
# Static dielectric constant tensor:
#      x y z
#    x -1.708190 -0.000010 0.076430 
#    y -0.000010 2.354790 0.000000 
#    z 0.076430 0.000000 2.404480 
# 
# From -- ./inp_files/310725.got.cif
#   From: 2010.05.17/outbox.cif.g08.bks.cpg/sg15_156_cif.got.tgz:310725.got - 2010.06.03 18:47:42.
