data_PCOD9284221
_publ_section_title
;
Structure prediction by ZEFSAII (Michael W. Deem and Ramdas Pophale) SiO2 
 PCOD9284221
Probable space group: C 2/C
;
_chemical_formula_sum "Si O2"
_cell_formula_units_Z 56
_cell_length_a 27.211882
_cell_length_b 8.115144
_cell_length_c 10.967159
_cell_angle_alpha 90.000000
_cell_angle_beta 75.662866
_cell_angle_gamma 90.000000
_cell_volume 2346.431790
_symmetry_space_group_name_H-M "C 2/C"
_symmetry_group_IT_number 15
_symmetry_cell_setting 'monoclinic'
loop_
_space_group_symop_operation_xyz
x,y,z
-x,y,1/2-z
-x,-y,-z
x,-y,1/2+z
1/2+x,1/2+y,z
1/2-x,1/2+y,1/2-z
1/2-x,1/2-y,-z
1/2+x,1/2-y,1/2+z
loop_
_atom_site_type_symbol
_atom_site_label
_atom_site_fract_x
_atom_site_fract_y
_atom_site_fract_z
Si Si1 0.362700 0.555747 0.976413
Si Si2 0.956189 0.091430 0.103634
Si Si3 0.431466 0.924282 0.239704
Si Si4 0.738589 0.681903 0.373968
Si Si5 0.622670 0.201756 0.511069
Si Si6 0.321197 0.018404 0.685533
Si Si7 0.415804 0.715060 0.734278
O O1 0.407622 0.596490 0.043737
O O2 0.309130 0.562133 0.076862
O O3 0.364561 0.368743 0.925592
O O4 0.372856 0.687256 0.862766
O O5 0.961426 0.276719 0.153816
O O6 0.945305 0.958057 0.216595
O O7 0.000000 0.000000 0.000000
O O8 0.422410 0.879568 0.386049
O O9 0.374604 0.931973 0.214804
O O10 0.447222 0.115915 0.227417
O O11 0.750000 0.750000 0.500000
O O12 0.714735 0.826803 0.309064
O O13 0.788074 0.606957 0.283778
O O14 0.607058 0.264957 0.386807
O O15 0.664929 0.066578 0.453038
#
# Coordination Sequence:
#
# PCOD9284221 Si02
#       7
#     8   8   8   8   8   8   8
#     4  11  22  44  69  94 145 183 229 303 349 413
#     4  11  25  46  73 101 132 180 240 295 364 425
#     4  11  22  44  71  97 140 184 231 292 361 418
#     4  12  24  39  62 100 138 184 242 286 343 428
#     4  10  21  40  67  98 133 187 233 282 352 426
#     4  11  23  40  63  99 141 187 239 287 352 418
#     4  10  23  41  69 103 134 181 232 288 364 428
#
# _framework density 23.866025
#
# number of rings (size 3 to 8) (size 9 to 14) (size 15 to 20)
#    0.000    1.143    2.857    4.286    2.000    3.429 
#    0.000    2.857    6.286    0.000    0.000    0.000 
#    0.000    0.000    0.000    0.000    0.000    0.000 
#
# Total GULP energy -156398.798008 kJ/mol
# GULP energy per Si atom -5585.671357 kJ/mol
# Density = 2.381170 g / cm^3
# Si number density = 23.866025 Si / 1000 Ang^3
#
#
#
# Elastic Constant Matrix: (Units=GPa)
#
#
# Indices 1 2 3 4 5 6 
#
# 1 107.0087 19.5512 21.1231 0.0000 -11.9644 0.0000
# 2 19.5512 156.7016 41.2805 0.0000 -17.7466 0.0000
# 3 21.1231 41.2805 91.7247 0.0000 -20.7700 0.0000
# 4 0.0000 0.0000 0.0000 92.9093 0.0000 -67.4425
# 5 -11.9644 -17.7466 -20.7700 0.0000 34.4111 0.0000
# 6 0.0000 0.0000 0.0000 -67.4425 0.0000 102.0770
#
#
#
# Elastic Compliance Matrix: (Units=1/GPa)
#
#
# Indices 1 2 3 4 5 6 
#
# 1 0.010006 -0.000591 -0.001529 0.000000 0.002252 0.000000
# 2 -0.000591 0.007401 -0.002753 0.000000 0.001950 0.000000
# 3 -0.001529 -0.002753 0.013959 0.000000 0.006474 0.000000
# 4 0.000000 0.000000 0.000000 0.020683 0.000000 0.013665
# 5 0.002252 0.001950 0.006474 0.000000 0.034757 0.000000
# 6 0.000000 0.000000 0.000000 0.013665 0.000000 0.018825
#
#
# Mechanical properties :
#
#
# Convention : Reuss Voigt Hill
#
# Bulk Modulus (GPa) = 46.24991 57.70496 51.97744
# Shear Modulus (GPa) = 40.78823 64.11149 52.44986
#
# Velocity S-wave (km/s) = 4.13855 5.18858 4.69303
# Velocity P-wave (km/s) = 6.50060 7.75412 7.15487
#
# Compressibility (1/GPa) = 0.02162166
#
# Stress axis : x y z
#
# Youngs Moduli (GPa) = 99.93519 135.10899 71.63636
#
# Poissons Ratio (x) = 0.07982 0.10950
# Poissons Ratio (y) = 0.05904 0.19725
# Poissons Ratio (z) = 0.15276 0.37202
#
# Static dielectric constant tensor:
#      x y z
#    x 1.946280 0.000000 -0.016590 
#    y 0.000000 2.017850 0.000000 
#    z -0.016590 0.000000 1.937350 
# 
# From -- ./inp_files/121911.got.cif
#   From: 2010.05.17/outbox.cif.g08.bks.cpg/sg15_61_cif.got.tgz:121911.got - 2010.06.03 18:47:42.
