data_PCOD9284019
_publ_section_title
;
Structure prediction by ZEFSAII (Michael W. Deem and Ramdas Pophale) SiO2 
 PCOD9284019
Probable space group: C 2/C
;
_chemical_formula_sum "Si O2"
_cell_formula_units_Z 56
_cell_length_a 10.864545
_cell_length_b 11.037685
_cell_length_c 24.220210
_cell_angle_alpha 90.000000
_cell_angle_beta 101.979617
_cell_angle_gamma 90.000000
_cell_volume 2841.218596
_symmetry_space_group_name_H-M "C 2/C"
_symmetry_group_IT_number 15
_symmetry_cell_setting 'monoclinic'
loop_
_space_group_symop_operation_xyz
x,y,z
-x,y,1/2-z
-x,-y,-z
x,-y,1/2+z
1/2+x,1/2+y,z
1/2-x,1/2+y,1/2-z
1/2-x,1/2-y,-z
1/2+x,1/2-y,1/2+z
loop_
_atom_site_type_symbol
_atom_site_label
_atom_site_fract_x
_atom_site_fract_y
_atom_site_fract_z
Si Si1 0.798985 0.053839 0.741200
Si Si2 0.534869 0.357180 0.561630
Si Si3 0.863187 0.678803 0.265873
Si Si4 0.036076 0.018468 0.845230
Si Si5 0.923222 0.769888 0.389948
Si Si6 0.306632 0.565112 0.958813
Si Si7 0.950925 0.369146 0.006050
O O1 0.696394 0.953778 0.749648
O O2 0.916040 0.035396 0.793977
O O3 0.845875 0.015911 0.684354
O O4 0.781514 0.200985 0.740562
O O5 0.490271 0.406426 0.616780
O O6 0.661518 0.426560 0.554359
O O7 0.423224 0.397002 0.509065
O O8 0.535722 0.213983 0.553863
O O9 0.884347 0.695208 0.333230
O O10 0.000000 0.690514 0.250000
O O11 0.035682 0.138971 0.883275
O O12 0.816453 0.861957 0.402256
O O13 0.949286 0.690333 0.445481
O O14 0.184498 0.609807 0.978889
O O15 0.000000 0.500000 0.000000
#
# Coordination Sequence:
#
# PCOD9284019 Si02
#       7
#     8   8   8   8   8   8   8
#     4  10  21  40  66  89 128 159 210 263 305 373
#     4   9  18  36  60  81 112 154 204 238 286 368
#     4  11  22  44  63  94 125 165 207 258 313 368
#     4   9  18  39  64  87 112 167 205 247 312 360
#     4   9  18  39  62  80 117 158 198 240 303 359
#     4   9  19  35  60  85 105 155 206 231 288 370
#     4  11  23  37  53  92 126 151 194 253 306 363
#
# _framework density 19.709852000000001
#
# number of rings (size 3 to 8) (size 9 to 14) (size 15 to 20)
#    0.000    2.286    2.857    2.571    4.000    0.571 
#   12.857    0.000    0.000    0.000    0.000    0.000 
#    0.000    0.000    0.000    0.000    0.000    0.000 
#
# Total GULP energy -155891.639999 kJ/mol
# GULP energy per Si atom -5567.558571 kJ/mol
# Density = 1.966499 g / cm^3
# Si number density = 19.709852 Si / 1000 Ang^3
#
#
#
# Elastic Constant Matrix: (Units=GPa)
#
#
# Indices 1 2 3 4 5 6 
#
# 1 30.8192 38.5303 27.1895 0.0000 -10.3352 0.0000
# 2 38.5303 149.4582 30.5271 0.0000 -13.9421 0.0000
# 3 27.1895 30.5271 93.5753 0.0000 -34.1508 0.0000
# 4 0.0000 0.0000 0.0000 14.5693 0.0000 -6.8515
# 5 -10.3352 -13.9421 -34.1508 0.0000 13.7698 0.0000
# 6 0.0000 0.0000 0.0000 -6.8515 0.0000 15.8582
#
#
#
# Elastic Compliance Matrix: (Units=1/GPa)
#
#
# Indices 1 2 3 4 5 6 
#
# 1 0.060293 -0.012997 -0.016505 0.000000 -0.008840 0.000000
# 2 -0.012997 0.010293 0.006977 0.000000 0.017969 0.000000
# 3 -0.016505 0.006977 0.118732 0.000000 0.289147 0.000000
# 4 0.000000 0.000000 0.000000 0.086139 0.000000 0.037217
# 5 -0.008840 0.017969 0.289147 0.000000 0.801304 0.000000
# 6 0.000000 0.000000 0.000000 0.037217 0.000000 0.079138
#
#
# Mechanical properties :
#
#
# Convention : Reuss Voigt Hill
#
# Bulk Modulus (GPa) = 6.93161 51.81628 29.37394
# Shear Modulus (GPa) = 4.00308 20.67984 12.34146
#
# Velocity S-wave (km/s) = 1.42668 3.24267 2.50503
# Velocity P-wave (km/s) = 2.49767 6.35346 4.82726
#
# Compressibility (1/GPa) = 0.14426672
#
# Stress axis : x y z
#
# Youngs Moduli (GPa) = 16.58576 97.15628 8.42232
#
# Poissons Ratio (x) = 1.26273 0.13901
# Poissons Ratio (y) = 0.21556 -0.05876
# Poissons Ratio (z) = 0.27375 -0.67782
#
# Static dielectric constant tensor:
#      x y z
#    x -117.167230 0.000000 50.415020 
#    y 0.000000 1.659920 0.000000 
#    z 50.415020 0.000000 -19.703310 
# 
# From -- ./inp_files/268477.got.cif
#   From: 2010.05.17/outbox.cif.g08.bks.cpg/sg15_135_cif.got.tgz:268477.got - 2010.06.03 18:47:42.
