data_PCOD9284107
_publ_section_title
;
Structure prediction by ZEFSAII (Michael W. Deem and Ramdas Pophale) SiO2 
 PCOD9284107
Probable space group: C 2/C
;
_chemical_formula_sum "Si O2"
_cell_formula_units_Z 64
_cell_length_a 8.067883
_cell_length_b 15.263535
_cell_length_c 30.080459
_cell_angle_alpha 90.000000
_cell_angle_beta 129.466501
_cell_angle_gamma 90.000000
_cell_volume 2859.660140
_symmetry_space_group_name_H-M "C 2/C"
_symmetry_group_IT_number 15
_symmetry_cell_setting 'monoclinic'
loop_
_space_group_symop_operation_xyz
x,y,z
-x,y,1/2-z
-x,-y,-z
x,-y,1/2+z
1/2+x,1/2+y,z
1/2-x,1/2+y,1/2-z
1/2-x,1/2-y,-z
1/2+x,1/2-y,1/2+z
loop_
_atom_site_type_symbol
_atom_site_label
_atom_site_fract_x
_atom_site_fract_y
_atom_site_fract_z
Si Si1 0.598517 0.102080 0.845680
Si Si2 0.490452 0.716639 0.133786
Si Si3 0.839066 0.154530 0.022598
Si Si4 0.711416 0.188885 0.450953
Si Si5 0.197072 0.916041 0.216072
Si Si6 0.347233 0.390239 0.763525
Si Si7 0.738765 0.000252 0.452588
Si Si8 0.540781 0.239312 0.329732
O O1 0.619581 0.189169 0.879216
O O2 0.723687 0.105301 0.820500
O O3 0.358892 0.095748 0.785381
O O4 0.667035 0.023756 0.890234
O O5 0.373386 0.649590 0.081080
O O6 0.512161 0.680113 0.186367
O O7 0.731014 0.723881 0.155082
O O8 0.066872 0.163810 0.036307
O O9 0.750000 0.250000 0.000000
O O10 0.689586 0.079843 0.977142
O O11 0.750000 0.250000 0.500000
O O12 0.569829 0.231523 0.388020
O O13 0.635297 0.091152 0.450340
O O14 0.026232 0.838458 0.194020
O O15 0.176236 0.021527 0.211853
O O16 0.500000 0.419882 0.750000
O O17 0.130473 0.336437 0.713969
O O18 0.000000 0.000000 0.500000
#
# Coordination Sequence:
#
# PCOD9284107 Si02
#       8
#     8   8   8   8   8   8   8   8
#     4  11  23  43  70  98 132 178 231 277 347 416
#     4  11  24  42  68  97 139 176 228 289 350 410
#     4  10  21  40  66  97 127 173 223 280 332 406
#     4  10  24  41  65  96 131 176 223 280 342 400
#     4  11  27  41  71  99 136 178 230 283 350 412
#     4  12  27  43  66 101 133 180 231 278 351 418
#     4  10  22  40  70  95 134 177 230 270 343 407
#     4  11  25  45  66  97 142 177 226 289 351 409
#
# _framework density 22.380282000000001
#
# number of rings (size 3 to 8) (size 9 to 14) (size 15 to 20)
#    0.000    1.250    2.500    1.875   14.000    1.000 
#    0.000    0.625    0.000    0.000    0.000    0.000 
#    0.000    0.000    0.000    0.000    0.000    0.000 
#
# Total GULP energy -178487.210654 kJ/mol
# GULP energy per Si atom -5577.725333 kJ/mol
# Density = 2.232934 g / cm^3
# Si number density = 22.380282 Si / 1000 Ang^3
#
#
#
# Elastic Constant Matrix: (Units=GPa)
#
#
# Indices 1 2 3 4 5 6 
#
# 1 32.1192 7.6884 6.4083 0.0000 -4.8490 0.0000
# 2 7.6884 120.8006 38.8920 0.0000 -4.7913 0.0000
# 3 6.4083 38.8920 124.5993 0.0000 -13.0064 0.0000
# 4 0.0000 0.0000 0.0000 40.9096 0.0000 -13.5571
# 5 -4.8490 -4.7913 -13.0064 0.0000 11.5353 0.0000
# 6 0.0000 0.0000 0.0000 -13.5571 0.0000 15.2064
#
#
#
# Elastic Compliance Matrix: (Units=1/GPa)
#
#
# Indices 1 2 3 4 5 6 
#
# 1 0.033551 -0.001664 0.000220 0.000000 0.013660 0.000000
# 2 -0.001664 0.009290 -0.002816 0.000000 -0.000016 0.000000
# 3 0.000220 -0.002816 0.009952 0.000000 0.010144 0.000000
# 4 0.000000 0.000000 0.000000 0.034695 0.000000 0.030932
# 5 0.013660 -0.000016 0.010144 0.000000 0.103864 0.000000
# 6 0.000000 0.000000 0.000000 0.030932 0.000000 0.093339
#
#
# Mechanical properties :
#
#
# Convention : Reuss Voigt Hill
#
# Bulk Modulus (GPa) = 22.58740 42.61074 32.59907
# Shear Modulus (GPa) = 16.23542 28.49893 22.36717
#
# Velocity S-wave (km/s) = 2.69631 3.57234 3.16478
# Velocity P-wave (km/s) = 4.45061 6.00801 5.28697
#
# Compressibility (1/GPa) = 0.04427247
#
# Stress axis : x y z
#
# Youngs Moduli (GPa) = 29.80551 107.64317 100.47974
#
# Poissons Ratio (x) = 0.17916 -0.02209
# Poissons Ratio (y) = 0.04961 0.28293
# Poissons Ratio (z) = -0.00655 0.30310
#
# Static dielectric constant tensor:
#      x y z
#    x 1.816810 0.000000 0.007200 
#    y 0.000000 1.991260 0.000000 
#    z 0.007200 0.000000 1.923790 
# 
# From -- ./inp_files/308039.got.cif
#   From: 2010.05.17/outbox.cif.g08.bks.cpg/sg15_155_cif.got.tgz:308039.got - 2010.06.03 18:47:42.
