data_PCOD9284435
_publ_section_title
;
Structure prediction by ZEFSAII (Michael W. Deem and Ramdas Pophale) SiO2 
 PCOD9284435
Probable space group: C 2/C
;
_chemical_formula_sum "Si O2"
_cell_formula_units_Z 56
_cell_length_a 16.580635
_cell_length_b 7.297079
_cell_length_c 22.470478
_cell_angle_alpha 90.000000
_cell_angle_beta 121.057749
_cell_angle_gamma 90.000000
_cell_volume 2328.974847
_symmetry_space_group_name_H-M "C 2/C"
_symmetry_group_IT_number 15
_symmetry_cell_setting 'monoclinic'
loop_
_space_group_symop_operation_xyz
x,y,z
-x,y,1/2-z
-x,-y,-z
x,-y,1/2+z
1/2+x,1/2+y,z
1/2-x,1/2+y,1/2-z
1/2-x,1/2-y,-z
1/2+x,1/2-y,1/2+z
loop_
_atom_site_type_symbol
_atom_site_label
_atom_site_fract_x
_atom_site_fract_y
_atom_site_fract_z
Si Si1 0.904980 0.333631 0.326043
Si Si2 0.448248 0.407621 0.035411
Si Si3 0.224367 0.763530 0.326992
Si Si4 0.125104 0.231250 0.670754
Si Si5 0.799942 0.388881 0.472817
Si Si6 0.688639 0.151384 0.831105
Si Si7 0.878868 0.254966 0.065849
O O1 0.825681 0.230759 0.334302
O O2 0.885827 0.549931 0.327743
O O3 0.883408 0.294051 0.248775
O O4 0.009770 0.293040 0.385805
O O5 0.527184 0.355596 0.113732
O O6 0.375545 0.556973 0.033796
O O7 0.500000 0.500000 0.000000
O O8 0.396030 0.223395 0.995717
O O9 0.160542 0.836813 0.248829
O O10 0.240719 0.891365 0.389545
O O11 0.185114 0.570093 0.334913
O O12 0.207454 0.196069 0.654259
O O13 0.750000 0.250000 0.500000
O O14 0.829747 0.584663 0.509525
O O15 0.662379 0.233748 0.883957
#
# Coordination Sequence:
#
# PCOD9284435 Si02
#       7
#     8   8   8   8   8   8   8
#     4  10  21  40  72 100 136 188 236 296 361 431
#     4  12  28  47  74 106 147 186 247 296 356 440
#     4  10  22  43  71  97 144 186 241 293 360 438
#     4  10  22  44  71 106 138 192 240 296 358 438
#     4  12  26  47  70 107 143 189 238 302 366 422
#     4  10  21  42  67 102 143 179 237 303 361 427
#     4  12  25  44  73 102 146 186 232 300 367 420
#
# _framework density 24.044916000000001
#
# number of rings (size 3 to 8) (size 9 to 14) (size 15 to 20)
#    0.000    1.143    2.857    3.000    2.000    4.000 
#    0.000    2.143    0.000    0.000    0.000    0.000 
#    0.000    0.000    0.000    0.000    0.000    0.000 
#
# Total GULP energy -157047.447685 kJ/mol
# GULP energy per Si atom -5608.837417 kJ/mol
# Density = 2.399019 g / cm^3
# Si number density = 24.044916 Si / 1000 Ang^3
#
#
#
# Elastic Constant Matrix: (Units=GPa)
#
#
# Indices 1 2 3 4 5 6 
#
# 1 51.5747 27.2575 32.0280 0.0000 -10.2496 0.0000
# 2 27.2575 98.1191 35.9050 0.0000 -7.0029 0.0000
# 3 32.0280 35.9050 126.7070 0.0000 -4.0198 0.0000
# 4 0.0000 0.0000 0.0000 30.0901 0.0000 4.8711
# 5 -10.2496 -7.0029 -4.0198 0.0000 52.2058 0.0000
# 6 0.0000 0.0000 0.0000 4.8711 0.0000 39.3278
#
#
#
# Elastic Compliance Matrix: (Units=1/GPa)
#
#
# Indices 1 2 3 4 5 6 
#
# 1 0.025991 -0.005104 -0.004995 0.000000 0.004033 0.000000
# 2 -0.005104 0.012459 -0.002225 0.000000 0.000498 0.000000
# 3 -0.004995 -0.002225 0.009769 0.000000 -0.000527 0.000000
# 4 0.000000 0.000000 0.000000 0.033913 0.000000 -0.004201
# 5 0.004033 0.000498 -0.000527 0.000000 0.019973 0.000000
# 6 0.000000 0.000000 0.000000 -0.004201 0.000000 0.025948
#
#
# Mechanical properties :
#
#
# Convention : Reuss Voigt Hill
#
# Bulk Modulus (GPa) = 42.42677 51.86463 47.14570
# Shear Modulus (GPa) = 31.14140 36.40543 33.77342
#
# Velocity S-wave (km/s) = 3.60270 3.89531 3.75186
# Velocity P-wave (km/s) = 5.91515 6.46900 6.19827
#
# Compressibility (1/GPa) = 0.02357002
#
# Stress axis : x y z
#
# Youngs Moduli (GPa) = 38.47517 80.26157 102.36929
#
# Poissons Ratio (x) = 0.40969 0.51137
# Poissons Ratio (y) = 0.19639 0.22772
# Poissons Ratio (z) = 0.19220 0.17854
#
# Static dielectric constant tensor:
#      x y z
#    x 1.910520 0.000000 0.012910 
#    y 0.000000 1.914330 0.000000 
#    z 0.012910 0.000000 1.892040 
# 
# From -- ./inp_files/273259.got.cif
#   From: 2010.05.17/outbox.cif.g08.bks.cpg/sg15_137_cif.got.tgz:273259.got - 2010.06.03 18:47:42.
