data_PCOD9284504
_publ_section_title
;
Structure prediction by ZEFSAII (Michael W. Deem and Ramdas Pophale) SiO2 
 PCOD9284504
Probable space group: C 2/C
;
_chemical_formula_sum "Si O2"
_cell_formula_units_Z 32
_cell_length_a 13.382182
_cell_length_b 5.541150
_cell_length_c 31.360741
_cell_angle_alpha 90.000000
_cell_angle_beta 35.137939
_cell_angle_gamma 90.000000
_cell_volume 1338.424423
_symmetry_space_group_name_H-M "C 2/C"
_symmetry_group_IT_number 15
_symmetry_cell_setting 'monoclinic'
loop_
_space_group_symop_operation_xyz
x,y,z
-x,y,1/2-z
-x,-y,-z
x,-y,1/2+z
1/2+x,1/2+y,z
1/2-x,1/2+y,1/2-z
1/2-x,1/2-y,-z
1/2+x,1/2-y,1/2+z
loop_
_atom_site_type_symbol
_atom_site_label
_atom_site_fract_x
_atom_site_fract_y
_atom_site_fract_z
Si Si1 0.434031 0.497460 0.683515
Si Si2 0.241520 0.757263 0.952636
Si Si3 0.688204 0.196380 0.700015
Si Si4 0.219123 0.259725 0.927362
O O1 0.565444 0.724380 0.635404
O O2 0.346046 0.435273 0.759186
O O3 0.297152 0.524933 0.693381
O O4 0.576339 0.284456 0.629218
O O5 0.150362 0.510409 0.969999
O O6 0.160137 0.007455 0.966848
O O7 0.250000 0.750000 0.000000
O O8 0.500000 0.102826 0.750000
O O9 0.785074 0.254052 0.622267
#
# Coordination Sequence:
#
# PCOD9284504 Si02
#       4
#     8   8   8   8
#     4   9  23  37  64  95 130 167 208 273 326 378
#     4  10  21  43  67  91 132 175 215 267 321 381
#     4  10  21  41  60 101 127 170 214 271 331 393
#     4   9  22  41  63  94 125 168 215 265 321 387
#
# _framework density 23.908711
#
# number of rings (size 3 to 8) (size 9 to 14) (size 15 to 20)
#    1.500    1.000    0.000    0.750    7.000    2.000 
#    4.500    2.500    0.000    0.000    0.000    0.000 
#    0.000    0.000    0.000    0.000    0.000    0.000 
#
# Total GULP energy -89217.123288 kJ/mol
# GULP energy per Si atom -5576.070205 kJ/mol
# Density = 2.385429 g / cm^3
# Si number density = 23.908711 Si / 1000 Ang^3
#
#
#
# Elastic Constant Matrix: (Units=GPa)
#
#
# Indices 1 2 3 4 5 6 
#
# 1 198.3777 59.2750 57.9309 -0.7525 23.0786 0.8105
# 2 59.2750 187.6250 67.0828 -2.2832 29.8528 3.3438
# 3 57.9309 67.0828 111.4650 0.2948 40.0671 0.4268
# 4 -0.7525 -2.2832 0.2948 167.5962 0.5455 -190.9853
# 5 23.0786 29.8528 40.0671 0.5455 45.5262 -0.3888
# 6 0.8105 3.3438 0.4268 -190.9853 -0.3888 343.8639
#
#
#
# Elastic Compliance Matrix: (Units=1/GPa)
#
#
# Indices 1 2 3 4 5 6 
#
# 1 0.006091 -0.001000 -0.002472 0.000046 -0.000257 0.000024
# 2 -0.001000 0.007006 -0.003258 0.000078 -0.001221 -0.000020
# 3 -0.002472 -0.003258 0.016089 -0.000116 -0.010769 -0.000059
# 4 0.000046 0.000078 -0.000116 0.016257 -0.000090 0.009028
# 5 -0.000257 -0.001221 -0.010769 -0.000090 0.032375 0.000012
# 6 0.000024 -0.000020 -0.000059 0.009028 0.000012 0.007923
#
#
# Mechanical properties :
#
#
# Convention : Reuss Voigt Hill
#
# Bulk Modulus (GPa) = 63.58697 96.22724 79.90710
# Shear Modulus (GPa) = 47.87320 132.27587 90.07453
#
# Velocity S-wave (km/s) = 4.47960 7.44617 6.14460
# Velocity P-wave (km/s) = 7.30816 10.68936 9.15619
#
# Compressibility (1/GPa) = 0.01572649
#
# Stress axis : x y z
#
# Youngs Moduli (GPa) = 164.16464 142.73382 62.15584
#
# Poissons Ratio (x) = 0.14266 0.15365
# Poissons Ratio (y) = 0.16408 0.20252
# Poissons Ratio (z) = 0.40583 0.46506
#
# Static dielectric constant tensor:
#      x y z
#    x 1.938600 -0.000140 -0.110900 
#    y -0.000140 1.919330 -0.000350 
#    z -0.110900 -0.000350 1.921040 
# 
# From -- ./inp_files/235200.got.cif
#   From: 2010.05.17/outbox.cif.g08.bks.cpg/sg15_118_cif.got.tgz:235200.got - 2010.06.03 18:47:42.
