data_PCOD9284900
_publ_section_title
;
Structure prediction by ZEFSAII (Michael W. Deem and Ramdas Pophale) SiO2 
 PCOD9284900
Probable space group: C 2/C
;
_chemical_formula_sum "Si O2"
_cell_formula_units_Z 48
_cell_length_a 31.506633
_cell_length_b 14.324221
_cell_length_c 17.216626
_cell_angle_alpha 90.000000
_cell_angle_beta 163.651915
_cell_angle_gamma 90.000000
_cell_volume 2187.038530
_symmetry_space_group_name_H-M "C 2/C"
_symmetry_group_IT_number 15
_symmetry_cell_setting 'monoclinic'
loop_
_space_group_symop_operation_xyz
x,y,z
-x,y,1/2-z
-x,-y,-z
x,-y,1/2+z
1/2+x,1/2+y,z
1/2-x,1/2+y,1/2-z
1/2-x,1/2-y,-z
1/2+x,1/2-y,1/2+z
loop_
_atom_site_type_symbol
_atom_site_label
_atom_site_fract_x
_atom_site_fract_y
_atom_site_fract_z
Si Si1 0.157676 0.258205 0.707001
Si Si2 0.659257 0.106962 0.070786
Si Si3 0.467888 0.383352 0.606273
Si Si4 0.375072 0.905390 0.464508
Si Si5 0.535431 0.560358 0.983500
Si Si6 0.940332 0.274737 0.807292
O O1 0.205811 0.315753 0.715475
O O2 0.013926 0.194942 0.427127
O O3 0.096370 0.316299 0.672882
O O4 0.302210 0.212683 0.004471
O O5 0.790624 0.082508 0.238360
O O6 0.500000 0.130704 0.750000
O O7 0.629633 0.012941 0.068606
O O8 0.526219 0.486511 0.689133
O O9 0.500000 0.355604 0.750000
O O10 0.287320 0.387762 0.285491
O O11 0.500000 0.901445 0.750000
O O12 0.416424 0.828292 0.474513
O O13 0.500000 0.500000 0.000000
O O14 0.462832 0.662902 0.855173
#
# Coordination Sequence:
#
# PCOD9284900 Si02
#       6
#     8   8   8   8   8   8
#     4  11  23  42  65  98 131 174 228 278 337 405
#     4  10  24  42  68  94 136 178 216 279 349 403
#     4  11  23  40  64  96 134 167 219 280 338 391
#     4  10  21  41  65  93 129 175 218 271 331 401
#     4  11  24  44  68 101 132 176 226 283 333 402
#     4  11  24  40  68  95 130 178 227 279 328 407
#
# _framework density 21.947486999999999
#
# number of rings (size 3 to 8) (size 9 to 14) (size 15 to 20)
#    0.000    1.333    3.333    1.500    4.667    0.667 
#    3.000    1.667    0.000    0.000    0.000    0.000 
#    0.000    0.000    0.000    0.000    0.000    0.000 
#
# Total GULP energy -133609.286862 kJ/mol
# GULP energy per Si atom -5567.053619 kJ/mol
# Density = 2.189753 g / cm^3
# Si number density = 21.947487 Si / 1000 Ang^3
#
#
#
# Elastic Constant Matrix: (Units=GPa)
#
#
# Indices 1 2 3 4 5 6 
#
# 1 101.6832 35.5855 29.0846 0.0000 -7.7010 0.0000
# 2 35.5855 87.8049 8.1987 0.0000 -9.6323 0.0000
# 3 29.0846 8.1987 68.9964 0.0000 -19.9060 0.0000
# 4 0.0000 0.0000 0.0000 14.3845 0.0000 5.1881
# 5 -7.7010 -9.6323 -19.9060 0.0000 37.1062 0.0000
# 6 0.0000 0.0000 0.0000 5.1881 0.0000 34.0137
#
#
#
# Elastic Compliance Matrix: (Units=1/GPa)
#
#
# Indices 1 2 3 4 5 6 
#
# 1 0.012960 -0.004915 -0.005290 0.000000 -0.001424 0.000000
# 2 -0.004915 0.013608 0.001396 0.000000 0.003261 0.000000
# 3 -0.005290 0.001396 0.019338 0.000000 0.009639 0.000000
# 4 0.000000 0.000000 0.000000 0.073566 0.000000 -0.011221
# 5 -0.001424 0.003261 0.009639 0.000000 0.032672 0.000000
# 6 0.000000 0.000000 0.000000 -0.011221 0.000000 0.031111
#
#
# Mechanical properties :
#
#
# Convention : Reuss Voigt Hill
#
# Bulk Modulus (GPa) = 35.35011 44.91357 40.13184
# Shear Modulus (GPa) = 23.77530 29.47527 26.62528
#
# Velocity S-wave (km/s) = 3.29489 3.66866 3.48679
# Velocity P-wave (km/s) = 5.53324 6.20112 5.87668
#
# Compressibility (1/GPa) = 0.02828846
#
# Stress axis : x y z
#
# Youngs Moduli (GPa) = 77.16298 73.48576 51.71066
#
# Poissons Ratio (x) = 0.36115 0.27354
# Poissons Ratio (y) = 0.37922 -0.07216
# Poissons Ratio (z) = 0.40817 -0.10255
#
# Static dielectric constant tensor:
#      x y z
#    x 1.856550 0.000000 0.017510 
#    y 0.000000 2.046550 0.000000 
#    z 0.017510 0.000000 1.789930 
# 
# From -- ./inp_files/182520.got.cif
#   From: 2010.05.17/outbox.cif.g08.bks.cpg/sg15_92_cif.got.tgz:182520.got - 2010.06.03 18:47:42.
