data_PCOD9284321
_publ_section_title
;
Structure prediction by ZEFSAII (Michael W. Deem and Ramdas Pophale) SiO2 
 PCOD9284321
Probable space group: C 2/C
;
_chemical_formula_sum "Si O2"
_cell_formula_units_Z 40
_cell_length_a 14.245494
_cell_length_b 24.370117
_cell_length_c 8.641489
_cell_angle_alpha 90.000000
_cell_angle_beta 147.322739
_cell_angle_gamma 90.000000
_cell_volume 1619.728078
_symmetry_space_group_name_H-M "C 2/C"
_symmetry_group_IT_number 15
_symmetry_cell_setting 'monoclinic'
loop_
_space_group_symop_operation_xyz
x,y,z
-x,y,1/2-z
-x,-y,-z
x,-y,1/2+z
1/2+x,1/2+y,z
1/2-x,1/2+y,1/2-z
1/2-x,1/2-y,-z
1/2+x,1/2-y,1/2+z
loop_
_atom_site_type_symbol
_atom_site_label
_atom_site_fract_x
_atom_site_fract_y
_atom_site_fract_z
Si Si1 0.804530 0.633507 0.700469
Si Si2 0.801973 0.448354 0.451071
Si Si3 0.060668 0.727273 0.014800
Si Si4 0.899088 0.831732 0.882051
Si Si5 0.500000 0.574050 0.750000
Si Si6 0.500000 0.051769 0.750000
O O1 0.725902 0.595629 0.725223
O O2 0.923929 0.685904 0.906259
O O3 0.671112 0.654092 0.385775
O O4 0.929108 0.590649 0.783916
O O5 0.665131 0.455224 0.400418
O O6 0.854102 0.510570 0.479160
O O7 0.000000 0.425370 0.750000
O O8 0.052060 0.787527 0.075080
O O9 0.000000 0.730905 0.750000
O O10 0.247177 0.700001 0.263504
O O11 0.930696 0.886023 0.020729
#
# Coordination Sequence:
#
# PCOD9284321 Si02
#       6
#     8   8   8   8   4   4
#     4  11  20  44  77 102 136 193 230 292 359 419
#     4  10  26  44  74 100 148 181 238 292 357 413
#     4  10  21  40  69 102 136 178 241 285 345 433
#     4  11  25  41  71 100 147 182 240 284 355 420
#     4  12  28  48  63 112 149 184 238 298 342 428
#     4  10  22  44  81 102 135 188 240 294 360 416
#
# _framework density 24.695502000000001
#
# number of rings (size 3 to 8) (size 9 to 14) (size 15 to 20)
#    0.600    0.800    3.000    4.200    5.600    0.800 
#    1.800    4.000    0.000    0.000    0.000    0.000 
#    0.000    0.000    0.000    0.000    0.000    0.000 
#
# Total GULP energy -111830.021204 kJ/mol
# GULP energy per Si atom -5591.501060 kJ/mol
# Density = 2.463929 g / cm^3
# Si number density = 24.695502 Si / 1000 Ang^3
#
#
#
# Elastic Constant Matrix: (Units=GPa)
#
#
# Indices 1 2 3 4 5 6 
#
# 1 133.1330 27.0718 21.1107 0.0000 25.8107 0.0000
# 2 27.0718 121.1368 13.8181 0.0000 4.5038 0.0000
# 3 21.1107 13.8181 42.7403 0.0000 14.2695 0.0000
# 4 0.0000 0.0000 0.0000 19.7275 0.0000 10.5169
# 5 25.8107 4.5038 14.2695 0.0000 26.6675 0.0000
# 6 0.0000 0.0000 0.0000 10.5169 0.0000 -5.5503
#
#
#
# Elastic Compliance Matrix: (Units=1/GPa)
#
#
# Indices 1 2 3 4 5 6 
#
# 1 0.009701 -0.001691 -0.001468 0.000000 -0.008318 0.000000
# 2 -0.001691 0.008866 -0.002530 0.000000 0.001493 0.000000
# 3 -0.001468 -0.002530 0.029613 0.000000 -0.013998 0.000000
# 4 0.000000 0.000000 0.000000 0.025217 0.000000 0.047783
# 5 -0.008318 0.001493 -0.013998 0.000000 0.052788 0.000000
# 6 0.000000 0.000000 0.000000 0.047783 0.000000 -0.089630
#
#
# Mechanical properties :
#
#
# Convention : Reuss Voigt Hill
#
# Bulk Modulus (GPa) = 27.17150 46.77904 36.97527
# Shear Modulus (GPa) = 83.05773 23.83624 53.44698
#
# Velocity S-wave (km/s) = 5.80567 3.11015 4.65719
# Velocity P-wave (km/s) = 7.48114 5.64631 6.62753
#
# Compressibility (1/GPa) = 0.03680327
#
# Stress axis : x y z
#
# Youngs Moduli (GPa) = 103.08744 112.78882 33.76861
#
# Poissons Ratio (x) = 0.19075 0.04956
# Poissons Ratio (y) = 0.17434 0.08542
# Poissons Ratio (z) = 0.15128 0.28531
#
# Static dielectric constant tensor:
#      x y z
#    x 2.051510 0.000000 0.036030 
#    y 0.000000 1.907750 0.000000 
#    z 0.036030 0.000000 2.076640 
# 
# From -- ./inp_files/43304.got.cif
#   From: 2010.05.17/outbox.cif.g08.bks.cpg/sg15_22_cif.got.tgz:43304.got - 2010.06.03 18:47:42.
