data_PCOD9284293
_publ_section_title
;
Structure prediction by ZEFSAII (Michael W. Deem and Ramdas Pophale) SiO2 
 PCOD9284293
Probable space group: C 2/C
;
_chemical_formula_sum "Si O2"
_cell_formula_units_Z 40
_cell_length_a 10.658797
_cell_length_b 24.081982
_cell_length_c 8.477951
_cell_angle_alpha 90.000000
_cell_angle_beta 44.950001
_cell_angle_gamma 90.000000
_cell_volume 1537.435858
_symmetry_space_group_name_H-M "C 2/C"
_symmetry_group_IT_number 15
_symmetry_cell_setting 'monoclinic'
loop_
_space_group_symop_operation_xyz
x,y,z
-x,y,1/2-z
-x,-y,-z
x,-y,1/2+z
1/2+x,1/2+y,z
1/2-x,1/2+y,1/2-z
1/2-x,1/2-y,-z
1/2+x,1/2-y,1/2+z
loop_
_atom_site_type_symbol
_atom_site_label
_atom_site_fract_x
_atom_site_fract_y
_atom_site_fract_z
Si Si1 0.810453 0.309739 0.497067
Si Si2 0.233064 0.031548 0.312779
Si Si3 0.283275 0.925730 0.433319
Si Si4 0.729823 0.690184 0.434446
Si Si5 0.000000 0.108219 0.750000
Si Si6 0.500000 0.898678 0.750000
O O1 0.750000 0.250000 0.500000
O O2 0.715870 0.363042 0.505377
O O3 0.811195 0.311213 0.686578
O O4 0.000000 0.314518 0.250000
O O5 0.423748 0.060202 0.186250
O O6 0.108735 0.063102 0.547568
O O7 0.231233 0.965779 0.338187
O O8 0.204624 0.045898 0.158752
O O9 0.500000 0.927347 0.250000
O O10 0.750000 0.750000 0.500000
O O11 0.538620 0.660481 0.587968
O O12 0.840960 0.643888 0.436804
#
# Coordination Sequence:
#
# PCOD9284293 Si02
#       6
#     8   8   8   8   4   4
#     4  11  27  47  67 100 141 175 227 285 341 397
#     4  11  23  41  70  98 135 171 228 277 342 398
#     4  11  23  43  68  98 133 178 225 277 330 414
#     4  11  24  42  72  94 134 185 234 272 333 411
#     4  10  23  44  62 102 135 168 230 280 332 408
#     4  10  21  40  68  98 123 178 232 278 322 398
#
# _framework density 26.017344999999999
#
# number of rings (size 3 to 8) (size 9 to 14) (size 15 to 20)
#    0.000    1.200    5.000    1.200    5.600    0.800 
#    5.400    0.000    0.000    0.000    0.000    0.000 
#    0.000    0.000    0.000    0.000    0.000    0.000 
#
# Total GULP energy -111422.942223 kJ/mol
# GULP energy per Si atom -5571.147111 kJ/mol
# Density = 2.595813 g / cm^3
# Si number density = 26.017345 Si / 1000 Ang^3
#
#
#
# Elastic Constant Matrix: (Units=GPa)
#
#
# Indices 1 2 3 4 5 6 
#
# 1 64.9856 44.7397 17.0617 0.0000 9.2063 0.0000
# 2 44.7397 263.2367 38.5446 0.0000 9.9595 0.0000
# 3 17.0617 38.5446 178.8907 0.0000 13.8251 0.0000
# 4 0.0000 0.0000 0.0000 37.9782 0.0000 -7.0873
# 5 9.2063 9.9595 13.8251 0.0000 16.8129 0.0000
# 6 0.0000 0.0000 0.0000 -7.0873 0.0000 -10.4371
#
#
#
# Elastic Compliance Matrix: (Units=1/GPa)
#
#
# Indices 1 2 3 4 5 6 
#
# 1 0.018586 -0.002773 -0.000551 0.000000 -0.008082 0.000000
# 2 -0.002773 0.004384 -0.000637 0.000000 -0.000555 0.000000
# 3 -0.000551 -0.000637 0.006116 0.000000 -0.004350 0.000000
# 4 0.000000 0.000000 0.000000 0.023369 0.000000 -0.015869
# 5 -0.008082 -0.000555 -0.004350 0.000000 0.067810 0.000000
# 6 0.000000 0.000000 0.000000 -0.015869 0.000000 -0.085037
#
#
# Mechanical properties :
#
#
# Convention : Reuss Voigt Hill
#
# Bulk Modulus (GPa) = 47.24638 78.64501 62.94570
# Shear Modulus (GPa) = 99.59046 35.98861 67.78954
#
# Velocity S-wave (km/s) = 6.19367 3.72325 5.11000
# Velocity P-wave (km/s) = 8.32753 6.98405 7.68520
#
# Compressibility (1/GPa) = 0.02116564
#
# Stress axis : x y z
#
# Youngs Moduli (GPa) = 53.80300 228.08128 163.50452
#
# Poissons Ratio (x) = 0.63236 0.09004
# Poissons Ratio (y) = 0.14917 0.10421
# Poissons Ratio (z) = 0.02963 0.14537
#
# Static dielectric constant tensor:
#      x y z
#    x 2.418440 0.000000 -0.232090 
#    y 0.000000 2.430060 0.000000 
#    z -0.232090 0.000000 2.168800 
# 
# From -- ./inp_files/41975.got.cif
#   From: 2010.05.17/outbox.cif.g08.bks.cpg/sg15_21_cif.got.tgz:41975.got - 2010.06.03 18:47:42.
