data_PCOD9284515
_publ_section_title
;
Structure prediction by ZEFSAII (Michael W. Deem and Ramdas Pophale) SiO2 
 PCOD9284515
Probable space group: C 2/C
;
_chemical_formula_sum "Si O2"
_cell_formula_units_Z 60
_cell_length_a 19.847471
_cell_length_b 23.265080
_cell_length_c 11.070245
_cell_angle_alpha 90.000000
_cell_angle_beta 145.983569
_cell_angle_gamma 90.000000
_cell_volume 2859.652083
_symmetry_space_group_name_H-M "C 2/C"
_symmetry_group_IT_number 15
_symmetry_cell_setting 'monoclinic'
loop_
_space_group_symop_operation_xyz
x,y,z
-x,y,1/2-z
-x,-y,-z
x,-y,1/2+z
1/2+x,1/2+y,z
1/2-x,1/2+y,1/2-z
1/2-x,1/2-y,-z
1/2+x,1/2-y,1/2+z
loop_
_atom_site_type_symbol
_atom_site_label
_atom_site_fract_x
_atom_site_fract_y
_atom_site_fract_z
Si Si1 0.897945 0.046136 0.856661
Si Si2 0.608303 0.345353 0.993707
Si Si3 0.126583 0.221106 0.774877
Si Si4 0.197045 0.485109 0.699020
Si Si5 0.500000 0.066796 0.750000
Si Si6 0.462322 0.843041 0.831000
Si Si7 0.663332 0.901931 0.291665
Si Si8 0.695259 0.385880 0.500486
O O1 0.874682 0.072642 0.692940
O O2 0.772694 0.019211 0.712531
O O3 0.932576 0.095076 0.004291
O O4 0.000000 0.000000 0.000000
O O5 0.500000 0.322044 0.750000
O O6 0.636703 0.306480 0.155011
O O7 0.722021 0.363317 0.078546
O O8 0.035204 0.274646 0.636359
O O9 0.250000 0.250000 0.000000
O O10 0.117637 0.172033 0.864954
O O11 0.066873 0.469959 0.452281
O O12 0.189798 0.531121 0.797871
O O13 0.270476 0.426401 0.836475
O O14 0.391898 0.101061 0.655725
O O15 0.500000 0.850357 0.750000
O O16 0.328212 0.867633 0.650941
O O17 0.554813 0.878597 0.048308
#
# Coordination Sequence:
#
# PCOD9284515 Si02
#       8
#     8   8   8   8   4   8   8   8
#     4  10  23  37  62  90 132 179 219 266 328 418
#     4  10  23  44  67  92 135 179 222 270 346 412
#     4   9  20  43  67  90 124 173 232 280 322 398
#     4  11  23  38  62  96 140 175 216 277 344 415
#     4  12  24  38  60 102 138 166 226 280 344 420
#     4  11  21  40  69  95 126 171 233 288 333 392
#     4  11  24  40  66  99 135 182 216 280 350 409
#     4  10  21  41  60  92 128 176 216 274 335 401
#
# _framework density 20.981573999999998
#
# number of rings (size 3 to 8) (size 9 to 14) (size 15 to 20)
#    0.000    1.600    1.333    4.400    8.400    0.000 
#    6.000    0.667    0.000    0.000    0.000    0.000 
#    0.000    0.000    0.000    0.000    0.000    0.000 
#
# Total GULP energy -167241.548553 kJ/mol
# GULP energy per Si atom -5574.718285 kJ/mol
# Density = 2.093382 g / cm^3
# Si number density = 20.981574 Si / 1000 Ang^3
#
#
#
# Elastic Constant Matrix: (Units=GPa)
#
#
# Indices 1 2 3 4 5 6 
#
# 1 42.2230 2.7900 11.9737 0.0000 5.3479 0.0000
# 2 2.7900 88.5096 25.1804 0.0000 -10.6406 0.0000
# 3 11.9737 25.1804 92.2210 0.0000 -3.5146 0.0000
# 4 0.0000 0.0000 0.0000 21.3787 0.0000 -7.4788
# 5 5.3479 -10.6406 -3.5146 0.0000 27.9332 0.0000
# 6 0.0000 0.0000 0.0000 -7.4788 0.0000 4.1981
#
#
#
# Elastic Compliance Matrix: (Units=1/GPa)
#
#
# Indices 1 2 3 4 5 6 
#
# 1 0.025364 -0.000500 -0.003365 0.000000 -0.005470 0.000000
# 2 -0.000500 0.012787 -0.003253 0.000000 0.004557 0.000000
# 3 -0.003365 -0.003253 0.012204 0.000000 0.000941 0.000000
# 4 0.000000 0.000000 0.000000 0.124139 0.000000 0.221149
# 5 -0.005470 0.004557 0.000941 0.000000 0.038701 0.000000
# 6 0.000000 0.000000 0.000000 0.221149 0.000000 0.632170
#
#
# Mechanical properties :
#
#
# Convention : Reuss Voigt Hill
#
# Bulk Modulus (GPa) = 27.68549 33.64909 30.66729
# Shear Modulus (GPa) = 5.73630 22.90265 14.31948
#
# Velocity S-wave (km/s) = 1.65527 3.30746 2.61526
# Velocity P-wave (km/s) = 4.10816 5.53697 4.87519
#
# Compressibility (1/GPa) = 0.03612000
#
# Stress axis : x y z
#
# Youngs Moduli (GPa) = 39.42614 78.20270 81.93718
#
# Poissons Ratio (x) = 0.03908 0.27573
# Poissons Ratio (y) = 0.01970 0.26653
# Poissons Ratio (z) = 0.13268 0.25439
#
# Static dielectric constant tensor:
#      x y z
#    x 1.727790 0.000000 -0.014350 
#    y 0.000000 1.792170 0.000000 
#    z -0.014350 0.000000 1.749370 
# 
# From -- ./inp_files/114855.got.cif
#   From: 2010.05.17/outbox.cif.g08.bks.cpg/sg15_58_cif.got.tgz:114855.got - 2010.06.03 18:47:42.
