data_PCOD9284960
_publ_section_title
;
Structure prediction by ZEFSAII (Michael W. Deem and Ramdas Pophale) SiO2 
 PCOD9284960
Probable space group: C 2/C
;
_chemical_formula_sum "Si O2"
_cell_formula_units_Z 64
_cell_length_a 25.966611
_cell_length_b 11.757096
_cell_length_c 23.432788
_cell_angle_alpha 90.000000
_cell_angle_beta 20.314152
_cell_angle_gamma 90.000000
_cell_volume 2483.579748
_symmetry_space_group_name_H-M "C 2/C"
_symmetry_group_IT_number 15
_symmetry_cell_setting 'monoclinic'
loop_
_space_group_symop_operation_xyz
x,y,z
-x,y,1/2-z
-x,-y,-z
x,-y,1/2+z
1/2+x,1/2+y,z
1/2-x,1/2+y,1/2-z
1/2-x,1/2-y,-z
1/2+x,1/2-y,1/2+z
loop_
_atom_site_type_symbol
_atom_site_label
_atom_site_fract_x
_atom_site_fract_y
_atom_site_fract_z
Si Si1 0.343596 0.545277 0.946069
Si Si2 0.609593 0.883218 0.222147
Si Si3 0.617328 0.718824 0.371539
Si Si4 0.881375 0.858380 0.749006
Si Si5 0.941602 0.934297 0.468135
Si Si6 0.547140 0.918128 0.001019
Si Si7 0.657013 0.962501 0.538609
Si Si8 0.271712 0.878874 0.143937
O O1 0.500000 0.546391 0.750000
O O2 0.486147 0.042225 0.818463
O O3 0.360081 0.594224 0.993267
O O4 0.219224 0.593257 0.031759
O O5 0.580102 0.749085 0.251746
O O6 0.579129 0.920000 0.318967
O O7 0.770821 0.920197 0.033142
O O8 0.689715 0.699590 0.233994
O O9 0.619984 0.601998 0.406094
O O10 0.467549 0.789768 0.508899
O O11 0.686189 0.800822 0.347619
O O12 0.786638 0.948094 0.884079
O O13 0.015713 0.932786 0.583048
O O14 0.099883 0.870473 0.306954
O O15 0.680985 0.992898 0.887989
O O16 0.500000 0.000000 0.000000
O O17 0.642420 0.866534 0.505060
#
# Coordination Sequence:
#
# PCOD9284960 Si02
#       8
#     8   8   8   8   8   8   8   8
#     4  12  24  47  68  95 144 185 236 301 348 411
#     4  10  23  40  69 102 131 183 238 278 360 425
#     4  10  21  41  66 103 136 181 235 279 357 434
#     4  10  22  41  64 102 141 177 225 297 355 421
#     4  11  24  43  63 100 141 184 229 291 356 406
#     4   8  17  40  67  99 136 176 223 292 341 423
#     4  10  22  44  68  94 137 183 230 286 354 410
#     4   9  19  40  67  96 135 183 226 292 352 408
#
# _framework density 25.769254
#
# number of rings (size 3 to 8) (size 9 to 14) (size 15 to 20)
#    0.000    2.000    2.500    0.750    1.750    4.500 
#   29.250    0.625    0.000    0.000    0.000    0.000 
#    0.000    0.000    0.000    0.000    0.000    0.000 
#
# Total GULP energy -178213.080566 kJ/mol
# GULP energy per Si atom -5569.158768 kJ/mol
# Density = 2.571060 g / cm^3
# Si number density = 25.769254 Si / 1000 Ang^3
#
#
#
# Elastic Constant Matrix: (Units=GPa)
#
#
# Indices 1 2 3 4 5 6 
#
# 1 190.8730 1.8238 8.1467 -0.0004 1.4961 -0.0034
# 2 1.8238 66.5169 8.3655 -0.0001 -0.7757 -0.0017
# 3 8.1467 8.3655 48.1799 0.0001 19.0394 -0.0020
# 4 -0.0004 -0.0001 0.0001 12.5903 -0.0004 -3.9694
# 5 1.4961 -0.7757 19.0394 -0.0004 40.2478 -0.0016
# 6 -0.0034 -0.0017 -0.0020 -3.9694 -0.0016 6.4591
#
#
#
# Elastic Compliance Matrix: (Units=1/GPa)
#
#
# Indices 1 2 3 4 5 6 
#
# 1 0.005280 -0.000016 -0.000999 0.000001 0.000276 0.000003
# 2 -0.000016 0.015491 -0.003450 0.000002 0.001931 0.000005
# 3 -0.000999 -0.003450 0.026486 0.000001 -0.012559 0.000004
# 4 0.000001 0.000002 0.000001 0.098513 0.000003 0.060540
# 5 0.000276 0.001931 -0.012559 0.000003 0.030814 0.000006
# 6 0.000003 0.000005 0.000004 0.060540 0.000006 0.192025
#
#
# Mechanical properties :
#
#
# Convention : Reuss Voigt Hill
#
# Bulk Modulus (GPa) = 26.09155 38.02686 32.05920
# Shear Modulus (GPa) = 12.81018 31.00835 21.90926
#
# Velocity S-wave (km/s) = 2.23202 3.47264 2.91900
# Velocity P-wave (km/s) = 4.09751 5.55587 4.88146
#
# Compressibility (1/GPa) = 0.03832659
#
# Stress axis : x y z
#
# Youngs Moduli (GPa) = 189.40410 64.55510 37.75517
#
# Poissons Ratio (x) = 0.00103 0.03772
# Poissons Ratio (y) = 0.00301 0.13026
# Poissons Ratio (z) = 0.18923 0.22272
#
# Static dielectric constant tensor:
#      x y z
#    x 2.151960 0.000000 -0.040190 
#    y 0.000000 2.084660 0.000000 
#    z -0.040190 0.000000 2.274480 
# 
# From -- ./inp_files/281823.got.cif
#   From: 2010.05.17/outbox.cif.g08.bks.cpg/sg15_141_cif.got.tgz:281823.got - 2010.06.03 18:47:42.
