data_PCOD9284760
_publ_section_title
;
Structure prediction by ZEFSAII (Michael W. Deem and Ramdas Pophale) SiO2 
 PCOD9284760
Probable space group: C 2/C
;
_chemical_formula_sum "Si O2"
_cell_formula_units_Z 52
_cell_length_a 10.373669
_cell_length_b 16.166878
_cell_length_c 22.718263
_cell_angle_alpha 90.000000
_cell_angle_beta 48.529695
_cell_angle_gamma 90.000000
_cell_volume 2854.886498
_symmetry_space_group_name_H-M "C 2/C"
_symmetry_group_IT_number 15
_symmetry_cell_setting 'monoclinic'
loop_
_space_group_symop_operation_xyz
x,y,z
-x,y,1/2-z
-x,-y,-z
x,-y,1/2+z
1/2+x,1/2+y,z
1/2-x,1/2+y,1/2-z
1/2-x,1/2-y,-z
1/2+x,1/2-y,1/2+z
loop_
_atom_site_type_symbol
_atom_site_label
_atom_site_fract_x
_atom_site_fract_y
_atom_site_fract_z
Si Si1 0.802184 0.783067 0.825957
Si Si2 0.173774 0.503577 0.527221
Si Si3 0.795183 0.821283 0.032127
Si Si4 0.161920 0.846960 0.967920
Si Si5 0.529829 0.724428 0.633767
Si Si6 0.000000 0.903310 0.250000
Si Si7 0.275446 0.972932 0.623803
O O1 0.760401 0.716934 0.889093
O O2 0.655587 0.766530 0.821315
O O3 0.000000 0.772140 0.750000
O O4 0.778782 0.877534 0.854204
O O5 0.197963 0.595408 0.544266
O O6 0.271598 0.438780 0.538962
O O7 0.242450 0.501256 0.439262
O O8 0.974095 0.479889 0.582091
O O9 0.750000 0.750000 0.000000
O O10 0.998698 0.840473 0.974519
O O11 0.320742 0.791094 0.897586
O O12 0.095953 0.813538 0.051572
O O13 0.509949 0.655649 0.689981
O O14 0.837603 0.965095 0.302901
#
# Coordination Sequence:
#
# PCOD9284760 Si02
#       7
#     8   8   8   8   8   4   8
#     4  11  23  42  59  90 130 165 194 261 318 372
#     4  11  22  41  63  93 121 164 211 260 306 380
#     4  11  24  37  65  96 120 163 214 257 310 372
#     4  10  21  41  64  90 126 163 207 263 311 371
#     4  10  23  39  64  91 124 161 210 253 320 368
#     4  12  24  40  64  96 120 170 206 268 302 382
#     4  11  23  38  67  91 123 161 212 254 313 378
#
# _framework density 18.214385
#
# number of rings (size 3 to 8) (size 9 to 14) (size 15 to 20)
#    0.000    1.231    5.385    0.462    4.308    0.000 
#    0.000    0.000    1.692    0.000    0.000    0.000 
#    0.000    0.000    0.000    0.000    0.000    0.000 
#
# Total GULP energy -145134.697187 kJ/mol
# GULP energy per Si atom -5582.103738 kJ/mol
# Density = 1.817293 g / cm^3
# Si number density = 18.214385 Si / 1000 Ang^3
#
#
#
# Elastic Constant Matrix: (Units=GPa)
#
#
# Indices 1 2 3 4 5 6 
#
# 1 87.4885 36.7515 34.9374 0.0000 -16.6790 0.0000
# 2 36.7515 118.4927 41.2294 0.0000 -12.2436 0.0000
# 3 34.9374 41.2294 78.8634 0.0002 -23.5716 0.0000
# 4 0.0000 0.0000 0.0002 36.9653 0.0000 1.9651
# 5 -16.6790 -12.2436 -23.5716 0.0000 23.7789 0.0000
# 6 0.0000 0.0000 0.0000 1.9651 0.0000 37.4870
#
#
#
# Elastic Compliance Matrix: (Units=1/GPa)
#
#
# Indices 1 2 3 4 5 6 
#
# 1 0.015117 -0.002888 -0.003499 0.000000 0.005648 0.000000
# 2 -0.002888 0.010867 -0.004739 0.000000 -0.001128 0.000000
# 3 -0.003499 -0.004739 0.021664 0.000000 0.016580 0.000000
# 4 0.000000 0.000000 0.000000 0.027128 0.000000 -0.001422
# 5 0.005648 -0.001128 0.016580 0.000000 0.061870 0.000000
# 6 0.000000 0.000000 0.000000 -0.001422 0.000000 0.026750
#
#
# Mechanical properties :
#
#
# Convention : Reuss Voigt Hill
#
# Bulk Modulus (GPa) = 39.37649 56.74235 48.05942
# Shear Modulus (GPa) = 25.75792 31.10801 28.43297
#
# Velocity S-wave (km/s) = 3.76460 4.13714 3.95526
# Velocity P-wave (km/s) = 6.36880 7.35128 6.87760
#
# Compressibility (1/GPa) = 0.02539587
#
# Stress axis : x y z
#
# Youngs Moduli (GPa) = 66.14978 92.01801 46.16000
#
# Poissons Ratio (x) = 0.26570 0.16153
# Poissons Ratio (y) = 0.19101 0.21877
# Poissons Ratio (z) = 0.23149 0.43610
#
# Static dielectric constant tensor:
#      x y z
#    x 1.555300 0.000000 -0.032990 
#    y 0.000000 1.603240 0.000000 
#    z -0.032990 0.000000 1.598720 
# 
# From -- ./inp_files/197678.got.cif
#   From: 2010.05.17/outbox.cif.g08.bks.cpg/sg15_99_cif.got.tgz:197678.got - 2010.06.03 18:47:42.
