data_PCOD9284673
_publ_section_title
;
Structure prediction by ZEFSAII (Michael W. Deem and Ramdas Pophale) SiO2 
 PCOD9284673
Probable space group: C 2/C
;
_chemical_formula_sum "Si O2"
_cell_formula_units_Z 32
_cell_length_a 7.686600
_cell_length_b 14.128534
_cell_length_c 22.004838
_cell_angle_alpha 90.000000
_cell_angle_beta 141.146244
_cell_angle_gamma 90.000000
_cell_volume 1499.163108
_symmetry_space_group_name_H-M "C 2/C"
_symmetry_group_IT_number 15
_symmetry_cell_setting 'monoclinic'
loop_
_space_group_symop_operation_xyz
x,y,z
-x,y,1/2-z
-x,-y,-z
x,-y,1/2+z
1/2+x,1/2+y,z
1/2-x,1/2+y,1/2-z
1/2-x,1/2-y,-z
1/2+x,1/2-y,1/2+z
loop_
_atom_site_type_symbol
_atom_site_label
_atom_site_fract_x
_atom_site_fract_y
_atom_site_fract_z
Si Si1 0.725011 0.946846 0.713484
Si Si2 0.691680 0.284285 0.663398
Si Si3 0.297877 0.657032 0.472750
Si Si4 0.403211 0.866385 0.160697
O O1 0.791227 0.872882 0.785646
O O2 0.483592 0.902968 0.605187
O O3 0.000000 0.964743 0.750000
O O4 0.591986 0.041787 0.703884
O O5 0.649532 0.316829 0.583305
O O6 0.470936 0.208997 0.626892
O O7 0.000000 0.238924 0.750000
O O8 0.250000 0.750000 0.500000
O O9 0.578931 0.608548 0.572878
O O10 0.500000 0.819147 0.250000
#
# Coordination Sequence:
#
# PCOD9284673 Si02
#       4
#     8   8   8   8
#     4  11  24  42  63  92 127 164 208 258 309 370
#     4  10  21  41  63  90 126 165 205 256 311 366
#     4  11  23  41  65  92 125 166 207 256 312 369
#     4  12  23  40  65  94 125 165 209 256 310 371
#
# _framework density 21.345243
#
# number of rings (size 3 to 8) (size 9 to 14) (size 15 to 20)
#    0.000    1.000    0.000    9.750    0.000    0.000 
#    0.000    3.750    0.000    0.000    0.000    0.000 
#    0.000    0.000    0.000    0.000    0.000    0.000 
#
# Total GULP energy -89517.735526 kJ/mol
# GULP energy per Si atom -5594.858470 kJ/mol
# Density = 2.129666 g / cm^3
# Si number density = 21.345243 Si / 1000 Ang^3
#
#
#
# Elastic Constant Matrix: (Units=GPa)
#
#
# Indices 1 2 3 4 5 6 
#
# 1 104.9823 31.2368 50.3339 0.0000 24.8651 0.0000
# 2 31.2368 77.2746 9.1207 0.0001 14.0724 0.0000
# 3 50.3339 9.1207 126.5223 0.0005 19.5584 0.0002
# 4 0.0000 0.0001 0.0005 27.0128 0.0001 11.0687
# 5 24.8651 14.0724 19.5584 0.0001 38.0047 0.0000
# 6 0.0000 0.0000 0.0002 11.0687 0.0000 25.1848
#
#
#
# Elastic Compliance Matrix: (Units=1/GPa)
#
#
# Indices 1 2 3 4 5 6 
#
# 1 0.014236 -0.004234 -0.004521 0.000000 -0.005420 0.000000
# 2 -0.004234 0.015142 0.001121 0.000000 -0.003413 0.000000
# 3 -0.004521 0.001121 0.010026 0.000000 -0.002617 0.000000
# 4 0.000000 0.000000 0.000000 0.045150 0.000000 -0.019844
# 5 -0.005420 -0.003413 -0.002617 0.000000 0.032469 0.000000
# 6 0.000000 0.000000 0.000000 -0.019844 0.000000 0.048428
#
#
# Mechanical properties :
#
#
# Convention : Reuss Voigt Hill
#
# Bulk Modulus (GPa) = 41.43233 54.46244 47.94739
# Shear Modulus (GPa) = 26.48796 32.57965 29.53381
#
# Velocity S-wave (km/s) = 3.52651 3.91105 3.72375
# Velocity P-wave (km/s) = 6.00286 6.77979 6.40312
#
# Compressibility (1/GPa) = 0.02413574
#
# Stress axis : x y z
#
# Youngs Moduli (GPa) = 70.24253 66.04260 99.74183
#
# Poissons Ratio (x) = 0.27964 0.45088
# Poissons Ratio (y) = 0.29742 -0.11176
# Poissons Ratio (z) = 0.31753 -0.07400
#
# Static dielectric constant tensor:
#      x y z
#    x 1.766670 0.000000 0.001610 
#    y 0.000000 1.759760 0.000000 
#    z 0.001610 0.000000 1.785250 
# 
# From -- ./inp_files/187535.got.cif
#   From: 2010.05.17/outbox.cif.g08.bks.cpg/sg15_94_cif.got.tgz:187535.got - 2010.06.03 18:47:42.
