data_PCOD9284108
_publ_section_title
;
Structure prediction by ZEFSAII (Michael W. Deem and Ramdas Pophale) SiO2 
 PCOD9284108
Probable space group: C 2/C
;
_chemical_formula_sum "Si O2"
_cell_formula_units_Z 32
_cell_length_a 10.414068
_cell_length_b 14.489282
_cell_length_c 10.286255
_cell_angle_alpha 90.000000
_cell_angle_beta 86.866112
_cell_angle_gamma 90.000000
_cell_volume 1549.796200
_symmetry_space_group_name_H-M "C 2/C"
_symmetry_group_IT_number 15
_symmetry_cell_setting 'monoclinic'
loop_
_space_group_symop_operation_xyz
x,y,z
-x,y,1/2-z
-x,-y,-z
x,-y,1/2+z
1/2+x,1/2+y,z
1/2-x,1/2+y,1/2-z
1/2-x,1/2-y,-z
1/2+x,1/2-y,1/2+z
loop_
_atom_site_type_symbol
_atom_site_label
_atom_site_fract_x
_atom_site_fract_y
_atom_site_fract_z
Si Si1 0.644160 0.249663 0.118618
Si Si2 0.464474 0.432266 0.115529
Si Si3 0.467236 0.896806 0.042300
Si Si4 0.798413 0.648920 0.798273
O O1 0.549952 0.338103 0.109234
O O2 0.722557 0.261128 0.248348
O O3 0.750000 0.250000 0.000000
O O4 0.568333 0.157810 0.086865
O O5 0.500000 0.478702 0.250000
O O6 0.313887 0.409981 0.129400
O O7 0.500000 0.500000 0.000000
O O8 0.585266 0.844402 0.107573
O O9 0.357077 0.895082 0.161563
O O10 0.500000 0.000000 0.000000
#
# Coordination Sequence:
#
# PCOD9284108 Si02
#       4
#     8   8   8   8
#     4   9  20  41  62  87 132 168 215 274 323 392
#     4  10  22  41  63  95 133 176 220 272 334 405
#     4  10  21  40  66  97 129 174 220 277 334 398
#     4   9  21  40  60  96 131 164 228 269 328 403
#
# _framework density 20.647876
#
# number of rings (size 3 to 8) (size 9 to 14) (size 15 to 20)
#    0.000    2.500    0.000    0.000   10.500    1.000 
#   22.500    0.000    0.000    0.000    0.000    0.000 
#    0.000    0.000    0.000    0.000    0.000    0.000 
#
# Total GULP energy -89176.814276 kJ/mol
# GULP energy per Si atom -5573.550892 kJ/mol
# Density = 2.060088 g / cm^3
# Si number density = 20.647876 Si / 1000 Ang^3
#
#
#
# Elastic Constant Matrix: (Units=GPa)
#
#
# Indices 1 2 3 4 5 6 
#
# 1 127.4698 34.9525 40.4787 0.0000 -11.0484 0.0000
# 2 34.9525 105.0101 54.1436 0.0000 20.5562 0.0000
# 3 40.4787 54.1436 99.2562 0.0000 -1.3782 0.0000
# 4 0.0000 0.0000 0.0000 36.2622 0.0000 -8.5147
# 5 -11.0484 20.5562 -1.3782 0.0000 36.1401 0.0000
# 6 0.0000 0.0000 0.0000 -8.5147 0.0000 16.3270
#
#
#
# Elastic Compliance Matrix: (Units=1/GPa)
#
#
# Indices 1 2 3 4 5 6 
#
# 1 0.009790 -0.002966 -0.002311 0.000000 0.004592 0.000000
# 2 -0.002966 0.016795 -0.008102 0.000000 -0.010769 0.000000
# 3 -0.002311 -0.008102 0.015499 0.000000 0.004493 0.000000
# 4 0.000000 0.000000 0.000000 0.031425 0.000000 0.016388
# 5 0.004592 -0.010769 0.004493 0.000000 0.035370 0.000000
# 6 0.000000 0.000000 0.000000 0.016388 0.000000 0.069795
#
#
# Mechanical properties :
#
#
# Convention : Reuss Voigt Hill
#
# Bulk Modulus (GPa) = 65.24235 65.65397 65.44816
# Shear Modulus (GPa) = 23.74831 31.22330 27.48580
#
# Velocity S-wave (km/s) = 3.39508 3.89289 3.65248
# Velocity P-wave (km/s) = 6.85820 7.21610 7.03943
#
# Compressibility (1/GPa) = 0.01532747
#
# Stress axis : x y z
#
# Youngs Moduli (GPa) = 102.14385 59.54000 64.51946
#
# Poissons Ratio (x) = 0.17659 0.14910
# Poissons Ratio (y) = 0.30296 0.52272
# Poissons Ratio (z) = 0.23605 0.48238
#
# Static dielectric constant tensor:
#      x y z
#    x 1.798760 0.000000 0.029370 
#    y 0.000000 1.731000 0.000000 
#    z 0.029370 0.000000 1.717500 
# 
# From -- ./inp_files/84049.got.cif
#   From: 2010.05.17/outbox.cif.g08.bks.cpg/sg15_43_cif.got.tgz:84049.got - 2010.06.03 18:47:42.
