data_PCOD9284753
_publ_section_title
;
Structure prediction by ZEFSAII (Michael W. Deem and Ramdas Pophale) SiO2 
 PCOD9284753
Probable space group: C 2/C
;
_chemical_formula_sum "Si O2"
_cell_formula_units_Z 64
_cell_length_a 8.522987
_cell_length_b 16.700065
_cell_length_c 22.716069
_cell_angle_alpha 90.000000
_cell_angle_beta 85.842737
_cell_angle_gamma 90.000000
_cell_volume 3224.771577
_symmetry_space_group_name_H-M "C 2/C"
_symmetry_group_IT_number 15
_symmetry_cell_setting 'monoclinic'
loop_
_space_group_symop_operation_xyz
x,y,z
-x,y,1/2-z
-x,-y,-z
x,-y,1/2+z
1/2+x,1/2+y,z
1/2-x,1/2+y,1/2-z
1/2-x,1/2-y,-z
1/2+x,1/2-y,1/2+z
loop_
_atom_site_type_symbol
_atom_site_label
_atom_site_fract_x
_atom_site_fract_y
_atom_site_fract_z
Si Si1 0.154504 0.024721 0.722212
Si Si2 0.541434 0.742450 0.045390
Si Si3 0.405763 0.028758 0.120009
Si Si4 0.247587 0.977519 0.350946
Si Si5 0.297351 0.116579 0.546593
Si Si6 0.998705 0.146374 0.864590
Si Si7 0.410243 0.566321 0.043919
Si Si8 0.854148 0.711996 0.089623
O O1 0.244804 0.035358 0.780915
O O2 0.078674 0.102325 0.690222
O O3 0.000000 0.977737 0.750000
O O4 0.272470 0.985362 0.673301
O O5 0.398532 0.804617 0.058240
O O6 0.503093 0.648734 0.043279
O O7 0.674299 0.743167 0.092185
O O8 0.594797 0.767583 0.978460
O O9 0.379071 0.118235 0.098350
O O10 0.579663 0.007142 0.137776
O O11 0.374086 0.961942 0.071753
O O12 0.165485 0.895516 0.374999
O O13 0.126636 0.036601 0.388969
O O14 0.128422 0.129850 0.581560
O O15 0.255385 0.092895 0.481195
O O16 0.040745 0.239574 0.866079
O O17 0.500000 0.500000 0.000000
#
# Coordination Sequence:
#
# PCOD9284753 Si02
#       8
#     8   8   8   8   8   8   8   8
#     4   9  22  43  67  89 121 171 216 274 330 396
#     4  11  24  37  61  94 147 174 216 269 332 409
#     4  11  24  40  69  97 130 168 226 277 326 404
#     4  11  22  40  66  93 126 170 218 276 335 392
#     4  11  22  39  61  94 134 177 213 259 333 401
#     4  10  21  41  64  89 128 174 216 264 329 396
#     4  12  22  37  65  99 134 176 222 268 337 408
#     4  11  23  40  61  97 134 175 217 274 328 389
#
# _framework density 19.846367000000001
#
# number of rings (size 3 to 8) (size 9 to 14) (size 15 to 20)
#    0.000    1.250    2.500    3.000    5.250    4.000 
#    0.000    3.750    0.000    0.000    0.000    0.000 
#    0.000    0.000    0.000    0.000    0.000    0.000 
#
# Total GULP energy -178161.427942 kJ/mol
# GULP energy per Si atom -5567.544623 kJ/mol
# Density = 1.980120 g / cm^3
# Si number density = 19.846367 Si / 1000 Ang^3
#
#
#
# Elastic Constant Matrix: (Units=GPa)
#
#
# Indices 1 2 3 4 5 6 
#
# 1 103.5109 56.0659 31.4061 0.0000 10.5985 0.0000
# 2 56.0659 156.7057 39.4528 0.0000 11.3015 0.0000
# 3 31.4061 39.4528 76.1182 0.0000 5.4288 0.0000
# 4 0.0000 0.0000 0.0000 12.5953 0.0000 -1.9522
# 5 10.5985 11.3015 5.4288 0.0000 31.7423 0.0000
# 6 0.0000 0.0000 0.0000 -1.9522 0.0000 26.9462
#
#
#
# Elastic Compliance Matrix: (Units=1/GPa)
#
#
# Indices 1 2 3 4 5 6 
#
# 1 0.012851 -0.003600 -0.003262 0.000000 -0.002451 0.000000
# 2 -0.003600 0.008473 -0.002811 0.000000 -0.001334 0.000000
# 3 -0.003262 -0.002811 0.015986 0.000000 -0.000644 0.000000
# 4 0.000000 0.000000 0.000000 0.080296 0.000000 0.005817
# 5 -0.002451 -0.001334 -0.000644 0.000000 0.032907 0.000000
# 6 0.000000 0.000000 0.000000 0.005817 0.000000 0.037532
#
#
# Mechanical properties :
#
#
# Convention : Reuss Voigt Hill
#
# Bulk Modulus (GPa) = 55.66371 65.57603 60.61987
# Shear Modulus (GPa) = 23.43223 28.21744 25.82483
#
# Velocity S-wave (km/s) = 3.43983 3.77476 3.61118
# Velocity P-wave (km/s) = 6.62456 7.21886 6.92809
#
# Compressibility (1/GPa) = 0.01796503
#
# Stress axis : x y z
#
# Youngs Moduli (GPa) = 77.81295 118.01656 62.55350
#
# Poissons Ratio (x) = 0.42486 0.20403
# Poissons Ratio (y) = 0.28012 0.17586
# Poissons Ratio (z) = 0.25380 0.33179
#
# Static dielectric constant tensor:
#      x y z
#    x 1.810920 0.000000 0.023910 
#    y 0.000000 1.717450 0.000000 
#    z 0.023910 0.000000 1.733140 
# 
# From -- ./inp_files/264723.got.cif
#   From: 2010.05.17/outbox.cif.g08.bks.cpg/sg15_133_cif.got.tgz:264723.got - 2010.06.03 18:47:42.
