data_PCOD9284540
_publ_section_title
;
Structure prediction by ZEFSAII (Michael W. Deem and Ramdas Pophale) SiO2 
 PCOD9284540
Probable space group: C 2/C
;
_chemical_formula_sum "Si O2"
_cell_formula_units_Z 40
_cell_length_a 27.571496
_cell_length_b 7.498476
_cell_length_c 19.431716
_cell_angle_alpha 90.000000
_cell_angle_beta 25.493218
_cell_angle_gamma 90.000000
_cell_volume 1729.103735
_symmetry_space_group_name_H-M "C 2/C"
_symmetry_group_IT_number 15
_symmetry_cell_setting 'monoclinic'
loop_
_space_group_symop_operation_xyz
x,y,z
-x,y,1/2-z
-x,-y,-z
x,-y,1/2+z
1/2+x,1/2+y,z
1/2-x,1/2+y,1/2-z
1/2-x,1/2-y,-z
1/2+x,1/2-y,1/2+z
loop_
_atom_site_type_symbol
_atom_site_label
_atom_site_fract_x
_atom_site_fract_y
_atom_site_fract_z
Si Si1 0.317635 0.634764 0.138070
Si Si2 0.233829 0.425997 0.109862
Si Si3 0.416377 0.292317 0.040338
Si Si4 0.126110 0.077692 0.207655
Si Si5 0.460770 0.803307 0.632489
O O1 0.284308 0.526336 0.111725
O O2 0.381081 0.494103 0.105034
O O3 0.202622 0.699327 0.318476
O O4 0.411177 0.786722 0.004206
O O5 0.203052 0.216232 0.152302
O O6 0.117952 0.534979 0.243136
O O7 0.319658 0.440598 0.936584
O O8 0.468948 0.197284 0.039113
O O9 0.504226 0.324551 0.867048
O O10 0.104599 0.878671 0.262856
#
# Coordination Sequence:
#
# PCOD9284540 Si02
#       5
#     8   8   8   8   8
#     4  10  22  37  62  93 126 164 214 263 312 374
#     4  10  23  39  65  91 123 171 205 254 320 377
#     4  10  23  36  63  93 123 164 210 265 307 372
#     4  10  21  41  61  89 127 161 208 261 311 373
#     4  10  22  41  61  91 128 163 211 258 312 368
#
# _framework density 23.133372000000001
#
# number of rings (size 3 to 8) (size 9 to 14) (size 15 to 20)
#    0.000    2.000    0.000    3.000    8.400    4.800 
#    0.000    0.000    0.000    4.800    0.000    0.000 
#    0.000    0.000    0.000    0.000    0.000    0.000 
#
# Total GULP energy -111668.591843 kJ/mol
# GULP energy per Si atom -5583.429592 kJ/mol
# Density = 2.308072 g / cm^3
# Si number density = 23.133372 Si / 1000 Ang^3
#
#
#
# Elastic Constant Matrix: (Units=GPa)
#
#
# Indices 1 2 3 4 5 6 
#
# 1 63.9284 27.8354 39.7348 0.0000 -1.9326 0.0001
# 2 27.8354 113.0396 68.2118 0.0022 8.5079 -0.0002
# 3 39.7348 68.2118 117.0231 0.0007 15.0255 0.0005
# 4 0.0000 0.0022 0.0007 56.6812 -0.0003 -10.8747
# 5 -1.9326 8.5079 15.0255 -0.0003 31.3530 0.0000
# 6 0.0001 -0.0002 0.0005 -10.8747 0.0000 32.2144
#
#
#
# Elastic Compliance Matrix: (Units=1/GPa)
#
#
# Indices 1 2 3 4 5 6 
#
# 1 0.020634 -0.001299 -0.006881 0.000000 0.004922 0.000000
# 2 -0.001299 0.013729 -0.007536 0.000000 -0.000194 0.000000
# 3 -0.006881 -0.007536 0.016054 0.000000 -0.006073 0.000000
# 4 0.000000 0.000000 0.000000 0.018864 0.000000 0.006368
# 5 0.004922 -0.000194 -0.006073 0.000000 0.035161 0.000000
# 6 0.000000 0.000000 0.000000 0.006368 0.000000 0.033192
#
#
# Mechanical properties :
#
#
# Convention : Reuss Voigt Hill
#
# Bulk Modulus (GPa) = 52.67594 62.83945 57.75770
# Shear Modulus (GPa) = 28.50718 34.59699 31.55208
#
# Velocity S-wave (km/s) = 3.51422 3.87142 3.69714
# Velocity P-wave (km/s) = 6.26788 6.87072 6.57621
#
# Compressibility (1/GPa) = 0.01898400
#
# Stress axis : x y z
#
# Youngs Moduli (GPa) = 48.46423 72.84053 62.28896
#
# Poissons Ratio (x) = 0.09465 0.42859
# Poissons Ratio (y) = 0.06297 0.46942
# Poissons Ratio (z) = 0.33347 0.54894
#
# Static dielectric constant tensor:
#      x y z
#    x 1.883590 0.000000 -0.051640 
#    y 0.000000 1.946940 0.000000 
#    z -0.051640 0.000000 1.898690 
# 
# From -- ./inp_files/125457.got.cif
#   From: 2010.05.17/outbox.cif.g08.bks.cpg/sg15_63_cif.got.tgz:125457.got - 2010.06.03 18:47:42.
