data_PCOD9284453
_publ_section_title
;
Structure prediction by ZEFSAII (Michael W. Deem and Ramdas Pophale) SiO2 
 PCOD9284453
Probable space group: C 2/C
;
_chemical_formula_sum "Si O2"
_cell_formula_units_Z 56
_cell_length_a 14.453088
_cell_length_b 8.289670
_cell_length_c 27.914077
_cell_angle_alpha 90.000000
_cell_angle_beta 42.398695
_cell_angle_gamma 90.000000
_cell_volume 2255.095954
_symmetry_space_group_name_H-M "C 2/C"
_symmetry_group_IT_number 15
_symmetry_cell_setting 'monoclinic'
loop_
_space_group_symop_operation_xyz
x,y,z
-x,y,1/2-z
-x,-y,-z
x,-y,1/2+z
1/2+x,1/2+y,z
1/2-x,1/2+y,1/2-z
1/2-x,1/2-y,-z
1/2+x,1/2-y,1/2+z
loop_
_atom_site_type_symbol
_atom_site_label
_atom_site_fract_x
_atom_site_fract_y
_atom_site_fract_z
Si Si1 0.163436 0.240421 0.845251
Si Si2 0.986043 0.259540 0.393171
Si Si3 0.235998 0.612708 0.223434
Si Si4 0.063924 0.323410 0.983283
Si Si5 0.459552 0.012308 0.812992
Si Si6 0.289495 0.332252 0.562025
Si Si7 0.880118 0.091544 0.925766
O O1 0.233570 0.364940 0.782056
O O2 0.002399 0.217440 0.892270
O O3 0.223005 0.066812 0.807931
O O4 0.166913 0.286366 0.900039
O O5 0.970223 0.386505 0.357087
O O6 0.149775 0.235258 0.340283
O O7 0.903920 0.306009 0.472844
O O8 0.938684 0.083903 0.393539
O O9 0.076504 0.626958 0.270016
O O10 0.941306 0.193708 0.022766
O O11 0.000000 0.500000 0.000000
O O12 0.500000 0.110245 0.750000
O O13 0.309390 0.937425 0.867982
O O14 0.214819 0.163106 0.579244
O O15 0.297254 0.415626 0.507116
#
# Coordination Sequence:
#
# PCOD9284453 Si02
#       7
#     8   8   8   8   8   8   8
#     4  10  21  40  72  97 135 177 232 277 336 413
#     4  11  25  44  68 100 137 177 229 283 337 410
#     4  11  21  42  69  98 136 181 221 279 338 408
#     4  11  25  44  70 104 133 184 237 285 342 411
#     4  12  25  43  67 100 135 180 224 281 350 407
#     4  10  22  44  68  96 134 177 224 280 342 405
#     4   9  21  41  70  96 132 175 223 280 337 395
#
# _framework density 24.832646
#
# number of rings (size 3 to 8) (size 9 to 14) (size 15 to 20)
#    0.000    1.429    2.857    1.714    4.000    6.857 
#    2.571    0.714    0.000    0.000    0.000    0.000 
#    0.000    0.000    0.000    0.000    0.000    0.000 
#
# Total GULP energy -156673.708041 kJ/mol
# GULP energy per Si atom -5595.489573 kJ/mol
# Density = 2.477613 g / cm^3
# Si number density = 24.832646 Si / 1000 Ang^3
#
#
#
# Elastic Constant Matrix: (Units=GPa)
#
#
# Indices 1 2 3 4 5 6 
#
# 1 57.8954 9.4894 21.7929 -0.0004 13.9621 -0.0004
# 2 9.4894 79.2308 46.2375 -0.0011 13.0804 -0.0009
# 3 21.7929 46.2375 186.5564 0.0001 40.4927 0.0001
# 4 -0.0004 -0.0011 0.0001 39.0697 -0.0001 -3.8266
# 5 13.9621 13.0804 40.4927 -0.0001 49.7668 -0.0002
# 6 -0.0004 -0.0009 0.0001 -3.8266 -0.0002 27.0145
#
#
#
# Elastic Compliance Matrix: (Units=1/GPa)
#
#
# Indices 1 2 3 4 5 6 
#
# 1 0.018833 -0.000949 -0.001059 0.000000 -0.004172 0.000000
# 2 -0.000949 0.014853 -0.003377 0.000000 -0.000890 0.000001
# 3 -0.001059 -0.003377 0.007365 0.000000 -0.004807 0.000000
# 4 0.000000 0.000000 0.000000 0.025955 0.000000 0.003677
# 5 -0.004172 -0.000890 -0.004807 0.000000 0.025410 0.000000
# 6 0.000000 0.000001 0.000000 0.003677 0.000000 0.037538
#
#
# Mechanical properties :
#
#
# Convention : Reuss Voigt Hill
#
# Bulk Modulus (GPa) = 33.02513 53.19136 43.10825
# Shear Modulus (GPa) = 33.15280 39.58106 36.36693
#
# Velocity S-wave (km/s) = 3.65780 3.99671 3.83101
# Velocity P-wave (km/s) = 5.58276 6.53948 6.07997
#
# Compressibility (1/GPa) = 0.03027997
#
# Stress axis : x y z
#
# Youngs Moduli (GPa) = 53.09842 67.32746 135.78581
#
# Poissons Ratio (x) = 0.06387 0.14383
# Poissons Ratio (y) = 0.05037 0.45859
# Poissons Ratio (z) = 0.05624 0.22738
#
# Static dielectric constant tensor:
#      x y z
#    x 2.067330 0.000000 -0.015460 
#    y 0.000000 1.955110 0.000000 
#    z -0.015460 0.000000 1.998360 
# 
# From -- ./inp_files/298489.got.cif
#   From: 2010.05.17/outbox.cif.g08.bks.cpg/sg15_150_cif.got.tgz:298489.got - 2010.06.03 18:47:42.
