data_PCOD9284734
_publ_section_title
;
Structure prediction by ZEFSAII (Michael W. Deem and Ramdas Pophale) SiO2 
 PCOD9284734
Probable space group: C 2/C
;
_chemical_formula_sum "Si O2"
_cell_formula_units_Z 64
_cell_length_a 12.441293
_cell_length_b 16.717560
_cell_length_c 32.197843
_cell_angle_alpha 90.000000
_cell_angle_beta 27.080625
_cell_angle_gamma 90.000000
_cell_volume 3048.661973
_symmetry_space_group_name_H-M "C 2/C"
_symmetry_group_IT_number 15
_symmetry_cell_setting 'monoclinic'
loop_
_space_group_symop_operation_xyz
x,y,z
-x,y,1/2-z
-x,-y,-z
x,-y,1/2+z
1/2+x,1/2+y,z
1/2-x,1/2+y,1/2-z
1/2-x,1/2-y,-z
1/2+x,1/2-y,1/2+z
loop_
_atom_site_type_symbol
_atom_site_label
_atom_site_fract_x
_atom_site_fract_y
_atom_site_fract_z
Si Si1 0.175361 0.658060 0.526271
Si Si2 0.185061 0.658222 0.051406
Si Si3 0.024790 0.108078 0.859738
Si Si4 0.948294 0.640619 0.835040
Si Si5 0.082738 0.730455 0.427342
Si Si6 0.074189 0.590981 0.962659
Si Si7 0.364488 0.567544 0.145200
Si Si8 0.884608 0.547710 0.350101
O O1 0.250000 0.750000 0.500000
O O2 0.402382 0.616209 0.427913
O O3 0.122177 0.641652 0.592548
O O4 0.966236 0.621500 0.570186
O O5 0.146580 0.580744 0.092878
O O6 0.961332 0.696005 0.104277
O O7 0.366658 0.639964 0.951843
O O8 0.338442 0.723063 0.023907
O O9 0.846019 0.101888 0.882861
O O10 0.270704 0.152786 0.767038
O O11 0.092025 0.020322 0.852353
O O12 0.792402 0.706449 0.863944
O O13 0.899719 0.548150 0.839036
O O14 0.085813 0.652116 0.454972
O O15 0.000000 0.500000 0.000000
O O16 0.321637 0.571298 0.110495
O O17 0.121451 0.590181 0.251385
#
# Coordination Sequence:
#
# PCOD9284734 Si02
#       8
#     8   8   8   8   8   8   8   8
#     4  12  24  42  67  97 135 183 233 285 354 424
#     4  10  21  41  66  98 134 175 228 272 361 409
#     4  10  22  41  68  97 133 180 225 286 346 423
#     4  11  23  41  67 102 137 174 237 281 350 422
#     4  10  22  40  62  97 132 172 223 289 340 413
#     4  11  23  44  70  91 135 184 229 287 353 415
#     4  10  21  41  64 100 135 172 232 284 341 415
#     4  10  22  39  71 100 132 180 226 290 343 419
#
# _framework density 20.992816000000001
#
# number of rings (size 3 to 8) (size 9 to 14) (size 15 to 20)
#    0.000    1.500    2.500    2.250    1.750    3.500 
#    6.750    1.250    0.000    2.250    0.000    0.000 
#    0.000    0.000    0.000    0.000    0.000    0.000 
#
# Total GULP energy -178469.043762 kJ/mol
# GULP energy per Si atom -5577.157618 kJ/mol
# Density = 2.094504 g / cm^3
# Si number density = 20.992816 Si / 1000 Ang^3
#
#
#
# Elastic Constant Matrix: (Units=GPa)
#
#
# Indices 1 2 3 4 5 6 
#
# 1 134.5937 37.4308 42.0331 0.0168 -27.4889 0.0189
# 2 37.4308 98.3492 36.2261 0.0202 -13.6447 0.0095
# 3 42.0331 36.2261 80.2830 0.1644 -20.7630 0.0318
# 4 0.0168 0.0202 0.1644 16.8184 -0.0759 -10.6170
# 5 -27.4889 -13.6447 -20.7630 -0.0759 20.1710 -0.0313
# 6 0.0189 0.0095 0.0318 -10.6170 -0.0313 36.3487
#
#
#
# Elastic Compliance Matrix: (Units=1/GPa)
#
#
# Indices 1 2 3 4 5 6 
#
# 1 0.010915 -0.001846 -0.001850 0.000081 0.011722 0.000030
# 2 -0.001846 0.012694 -0.004349 0.000047 0.001594 0.000016
# 3 -0.001850 -0.004349 0.019044 -0.000143 0.014139 -0.000044
# 4 0.000081 0.000047 -0.000143 0.072904 0.000303 0.021295
# 5 0.011722 0.001594 0.014139 0.000303 0.081184 0.000139
# 6 0.000030 0.000016 -0.000044 0.021295 0.000139 0.033731
#
#
# Mechanical properties :
#
#
# Convention : Reuss Voigt Hill
#
# Bulk Modulus (GPa) = 37.64835 60.51177 49.08006
# Shear Modulus (GPa) = 19.57581 27.83666 23.70624
#
# Velocity S-wave (km/s) = 3.05700 3.64539 3.36408
# Velocity P-wave (km/s) = 5.51663 6.82686 6.20642
#
# Compressibility (1/GPa) = 0.02656159
#
# Stress axis : x y z
#
# Youngs Moduli (GPa) = 91.61639 78.77984 52.51010
#
# Poissons Ratio (x) = 0.14546 0.09715
# Poissons Ratio (y) = 0.16916 0.22836
# Poissons Ratio (z) = 0.16951 0.34260
#
# Static dielectric constant tensor:
#      x y z
#    x 1.803890 -0.000060 -0.018900 
#    y -0.000060 1.730840 0.000040 
#    z -0.018900 0.000040 1.756170 
# 
# From -- ./inp_files/311633.got.cif
#   From: 2010.05.17/outbox.cif.g08.bks.cpg/sg15_156_cif.got.tgz:311633.got - 2010.06.03 18:47:42.
