data_PCOD9284599
_publ_section_title
;
Structure prediction by ZEFSAII (Michael W. Deem and Ramdas Pophale) SiO2 
 PCOD9284599
Probable space group: C 2/C
;
_chemical_formula_sum "Si O2"
_cell_formula_units_Z 56
_cell_length_a 24.372452
_cell_length_b 7.114567
_cell_length_c 25.304979
_cell_angle_alpha 90.000000
_cell_angle_beta 139.535898
_cell_angle_gamma 90.000000
_cell_volume 2847.602082
_symmetry_space_group_name_H-M "C 2/C"
_symmetry_group_IT_number 15
_symmetry_cell_setting 'monoclinic'
loop_
_space_group_symop_operation_xyz
x,y,z
-x,y,1/2-z
-x,-y,-z
x,-y,1/2+z
1/2+x,1/2+y,z
1/2-x,1/2+y,1/2-z
1/2-x,1/2-y,-z
1/2+x,1/2-y,1/2+z
loop_
_atom_site_type_symbol
_atom_site_label
_atom_site_fract_x
_atom_site_fract_y
_atom_site_fract_z
Si Si1 0.570592 0.544923 0.008658
Si Si2 0.578901 0.580584 0.842499
Si Si3 0.981559 0.777677 0.620146
Si Si4 0.768275 0.015900 0.625440
Si Si5 0.752560 0.154030 0.308271
Si Si6 0.590285 0.127722 0.444833
Si Si7 0.322076 0.768111 0.245583
O O1 0.661248 0.573657 0.102377
O O2 0.500000 0.500000 0.000000
O O3 0.567389 0.376181 0.964227
O O4 0.552018 0.737287 0.962502
O O5 0.500000 0.648627 0.750000
O O6 0.548885 0.391651 0.850767
O O7 0.657090 0.539984 0.861748
O O8 0.600986 0.736330 0.902464
O O9 0.081743 0.803939 0.684819
O O10 0.962632 0.556980 0.607660
O O11 0.775554 0.168510 0.677849
O O12 0.680084 0.054452 0.532058
O O13 0.775917 0.818129 0.660802
O O14 0.775040 0.207670 0.264818
O O15 0.682824 0.992459 0.259285
#
# Coordination Sequence:
#
# PCOD9284599 Si02
#       7
#     8   8   8   8   8   8   8
#     4  10  21  41  62  90 134 170 208 267 324 381
#     4  11  24  43  68  94 132 168 214 275 323 377
#     4  11  24  41  63  97 126 166 219 266 324 385
#     4  11  24  46  63  94 132 172 214 267 326 385
#     4  11  24  39  63  94 128 168 214 261 323 387
#     4  10  25  42  67  97 125 175 221 259 324 395
#     4  12  23  38  64  94 130 168 210 269 319 382
#
# _framework density 19.665669000000001
#
# number of rings (size 3 to 8) (size 9 to 14) (size 15 to 20)
#    0.000    1.143    4.286    1.286    2.000    4.000 
#    0.000    0.000    0.000    0.000    0.000    0.000 
#    0.000    0.000    0.000    0.000    0.000    0.000 
#
# Total GULP energy -156508.053714 kJ/mol
# GULP energy per Si atom -5589.573347 kJ/mol
# Density = 1.962091 g / cm^3
# Si number density = 19.665669 Si / 1000 Ang^3
#
#
#
# Elastic Constant Matrix: (Units=GPa)
#
#
# Indices 1 2 3 4 5 6 
#
# 1 129.4759 27.9583 18.1479 -0.0004 -9.0412 -0.0004
# 2 27.9583 79.1515 8.1632 0.0000 -1.6242 0.0019
# 3 18.1479 8.1632 56.4767 -0.0003 -13.8793 -0.0004
# 4 -0.0004 0.0000 -0.0003 31.8887 -0.0001 6.8562
# 5 -9.0412 -1.6242 -13.8793 -0.0001 25.1911 -0.0001
# 6 -0.0004 0.0019 -0.0004 6.8562 -0.0001 10.6362
#
#
#
# Elastic Compliance Matrix: (Units=1/GPa)
#
#
# Indices 1 2 3 4 5 6 
#
# 1 0.008742 -0.002850 -0.001933 0.000000 0.001889 0.000001
# 2 -0.002850 0.013755 -0.001279 0.000001 -0.000841 -0.000003
# 3 -0.001933 -0.001279 0.021191 0.000000 0.010899 0.000001
# 4 0.000000 0.000001 0.000000 0.036405 0.000000 -0.023467
# 5 0.001889 -0.000841 0.010899 0.000000 0.046325 0.000001
# 6 0.000001 -0.000003 0.000001 -0.023467 0.000001 0.109145
#
#
# Mechanical properties :
#
#
# Convention : Reuss Voigt Hill
#
# Bulk Modulus (GPa) = 31.68125 41.51585 36.59855
# Shear Modulus (GPa) = 19.36427 27.59885 23.48156
#
# Velocity S-wave (km/s) = 3.14136 3.75027 3.45923
# Velocity P-wave (km/s) = 5.41317 6.31738 5.88267
#
# Compressibility (1/GPa) = 0.03156441
#
# Stress axis : x y z
#
# Youngs Moduli (GPa) = 114.39567 72.69960 47.19010
#
# Poissons Ratio (x) = 0.20717 0.09121
# Poissons Ratio (y) = 0.32599 0.06036
# Poissons Ratio (z) = 0.22112 0.09299
#
# Static dielectric constant tensor:
#      x y z
#    x 1.646480 0.000000 -0.004600 
#    y 0.000000 1.675340 0.000000 
#    z -0.004600 0.000000 1.691740 
# 
# From -- ./inp_files/302951.got.cif
#   From: 2010.05.17/outbox.cif.g08.bks.cpg/sg15_152_cif.got.tgz:302951.got - 2010.06.03 18:47:42.
