data_PCOD9284488
_publ_section_title
;
Structure prediction by ZEFSAII (Michael W. Deem and Ramdas Pophale) SiO2 
 PCOD9284488
Probable space group: C 2/C
;
_chemical_formula_sum "Si O2"
_cell_formula_units_Z 40
_cell_length_a 18.062515
_cell_length_b 6.764218
_cell_length_c 34.880308
_cell_angle_alpha 90.000000
_cell_angle_beta 158.673183
_cell_angle_gamma 90.000000
_cell_volume 1549.901935
_symmetry_space_group_name_H-M "C 2/C"
_symmetry_group_IT_number 15
_symmetry_cell_setting 'monoclinic'
loop_
_space_group_symop_operation_xyz
x,y,z
-x,y,1/2-z
-x,-y,-z
x,-y,1/2+z
1/2+x,1/2+y,z
1/2-x,1/2+y,1/2-z
1/2-x,1/2-y,-z
1/2+x,1/2-y,1/2+z
loop_
_atom_site_type_symbol
_atom_site_label
_atom_site_fract_x
_atom_site_fract_y
_atom_site_fract_z
Si Si1 0.469565 0.240069 0.862991
Si Si2 0.242120 0.263534 0.373070
Si Si3 0.776150 0.522579 0.459990
Si Si4 0.308926 0.580549 0.827966
Si Si5 0.914560 0.346733 0.668998
O O1 0.603634 0.326201 0.893013
O O2 0.468867 0.414532 0.893898
O O3 0.252272 0.194545 0.740041
O O4 0.557438 0.049051 0.926726
O O5 0.338403 0.112998 0.449172
O O6 0.347247 0.278954 0.382459
O O7 0.237489 0.482656 0.389484
O O8 0.000000 0.216743 0.250000
O O9 0.682732 0.310181 0.406355
O O10 0.105350 0.458714 0.741970
O O11 0.000000 0.251774 0.750000
#
# Coordination Sequence:
#
# PCOD9284488 Si02
#       5
#     8   8   8   8   8
#     4  11  23  37  59  90 122 154 201 249 311 352
#     4   9  18  39  61  84 118 161 199 238 298 363
#     4  11  21  38  62  91 114 157 205 249 297 361
#     4  10  21  41  58  88 124 163 197 248 303 365
#     4   9  19  36  63  85 112 156 204 235 294 365
#
# _framework density 25.808085999999999
#
# number of rings (size 3 to 8) (size 9 to 14) (size 15 to 20)
#    0.000    2.400    4.000    1.800    0.000    1.600 
#    3.600    4.000    0.000    0.000    0.000    0.000 
#    0.000    0.000    0.000    0.000    0.000    0.000 
#
# Total GULP energy -111959.201009 kJ/mol
# GULP energy per Si atom -5597.960050 kJ/mol
# Density = 2.574935 g / cm^3
# Si number density = 25.808086 Si / 1000 Ang^3
#
#
#
# Elastic Constant Matrix: (Units=GPa)
#
#
# Indices 1 2 3 4 5 6 
#
# 1 87.5017 21.1866 16.9964 -0.0075 -18.4205 0.0012
# 2 21.1866 87.4746 36.8370 0.0049 -13.7096 0.0014
# 3 16.9964 36.8370 74.1340 0.0262 -14.3847 -0.0047
# 4 -0.0075 0.0049 0.0262 48.1792 -0.0078 -19.8711
# 5 -18.4205 -13.7096 -14.3847 -0.0078 26.2482 0.0013
# 6 0.0012 0.0014 -0.0047 -19.8711 0.0013 29.1685
#
#
#
# Elastic Compliance Matrix: (Units=1/GPa)
#
#
# Indices 1 2 3 4 5 6 
#
# 1 0.013740 -0.001737 -0.000663 0.000005 0.008372 0.000002
# 2 -0.001737 0.015071 -0.006490 0.000002 0.003096 0.000000
# 3 -0.000663 -0.006490 0.018036 -0.000010 0.006029 -0.000004
# 4 0.000005 0.000002 -0.000010 0.028867 0.000007 0.019665
# 5 0.008372 0.003096 0.006029 0.000007 0.048895 0.000003
# 6 0.000002 0.000000 -0.000004 0.019665 0.000003 0.047681
#
#
# Mechanical properties :
#
#
# Convention : Reuss Voigt Hill
#
# Bulk Modulus (GPa) = 34.40157 44.35004 39.37581
# Shear Modulus (GPa) = 25.03056 32.32521 28.67788
#
# Velocity S-wave (km/s) = 3.11766 3.54294 3.33708
# Velocity P-wave (km/s) = 5.13015 5.82738 5.48985
#
# Compressibility (1/GPa) = 0.02906844
#
# Stress axis : x y z
#
# Youngs Moduli (GPa) = 72.77983 66.35401 55.44585
#
# Poissons Ratio (x) = 0.11523 0.03674
# Poissons Ratio (y) = 0.12639 0.35982
# Poissons Ratio (z) = 0.04823 0.43061
#
# Static dielectric constant tensor:
#      x y z
#    x 2.004050 0.000000 -0.006310 
#    y 0.000000 2.007070 0.000020 
#    z -0.006310 0.000020 2.046840 
# 
# From -- ./inp_files/176035.got.cif
#   From: 2010.05.17/outbox.cif.g08.bks.cpg/sg15_89_cif.got.tgz:176035.got - 2010.06.03 18:47:42.
