data_PCOD9284700
_publ_section_title
;
Structure prediction by ZEFSAII (Michael W. Deem and Ramdas Pophale) SiO2 
 PCOD9284700
Probable space group: C 2/C
;
_chemical_formula_sum "Si O2"
_cell_formula_units_Z 52
_cell_length_a 24.080149
_cell_length_b 11.277784
_cell_length_c 14.723730
_cell_angle_alpha 90.000000
_cell_angle_beta 143.457480
_cell_angle_gamma 90.000000
_cell_volume 2380.803788
_symmetry_space_group_name_H-M "C 2/C"
_symmetry_group_IT_number 15
_symmetry_cell_setting 'monoclinic'
loop_
_space_group_symop_operation_xyz
x,y,z
-x,y,1/2-z
-x,-y,-z
x,-y,1/2+z
1/2+x,1/2+y,z
1/2-x,1/2+y,1/2-z
1/2-x,1/2-y,-z
1/2+x,1/2-y,1/2+z
loop_
_atom_site_type_symbol
_atom_site_label
_atom_site_fract_x
_atom_site_fract_y
_atom_site_fract_z
Si Si1 0.800097 0.654367 0.004329
Si Si2 0.412318 0.189137 0.853402
Si Si3 0.713877 0.686891 0.170218
Si Si4 0.911859 0.608900 0.504613
Si Si5 0.754741 0.518540 0.592852
Si Si6 0.500000 0.087958 0.250000
Si Si7 0.907384 0.192882 0.151008
O O1 0.777380 0.528841 0.021215
O O2 0.911264 0.664697 0.160876
O O3 0.750000 0.750000 0.000000
O O4 0.767826 0.689687 0.860923
O O5 0.371585 0.274876 0.877684
O O6 0.520331 0.149318 0.988971
O O7 0.348314 0.070425 0.762632
O O8 0.399524 0.260003 0.742352
O O9 0.804147 0.630650 0.337793
O O10 0.701738 0.585171 0.078225
O O11 0.920026 0.700169 0.598177
O O12 0.955835 0.490572 0.608901
O O13 0.686042 0.627185 0.496417
O O14 0.000000 0.116310 0.250000
#
# Coordination Sequence:
#
# PCOD9284700 Si02
#       7
#     8   8   8   8   8   4   8
#     4  10  25  47  62 100 138 183 225 281 352 419
#     4  11  22  41  68  95 127 176 228 292 326 403
#     4  11  27  40  63 103 144 163 234 298 339 400
#     4  11  22  41  70 105 126 172 239 279 331 411
#     4  11  22  43  66  90 135 186 216 280 362 401
#     4  12  22  42  82  94 128 192 234 272 342 416
#     4  10  21  41  63  93 127 172 228 273 335 417
#
# _framework density 21.841363999999999
#
# number of rings (size 3 to 8) (size 9 to 14) (size 15 to 20)
#    0.000    1.231    5.385    0.462    4.308    3.077 
#    8.308    1.538    0.000    0.000    0.000    0.000 
#    0.000    0.000    0.000    0.000    0.000    0.000 
#
# Total GULP energy -144918.546535 kJ/mol
# GULP energy per Si atom -5573.790251 kJ/mol
# Density = 2.179165 g / cm^3
# Si number density = 21.841364 Si / 1000 Ang^3
#
#
#
# Elastic Constant Matrix: (Units=GPa)
#
#
# Indices 1 2 3 4 5 6 
#
# 1 145.1303 31.1197 10.2479 0.0000 7.2938 0.0000
# 2 31.1197 57.1953 8.0903 0.0000 8.4873 0.0000
# 3 10.2479 8.0903 50.0767 0.0000 10.7430 0.0000
# 4 0.0000 0.0000 0.0000 29.0568 0.0000 12.6484
# 5 7.2938 8.4873 10.7430 0.0000 39.1324 0.0000
# 6 0.0000 0.0000 0.0000 12.6484 0.0000 8.2723
#
#
#
# Elastic Compliance Matrix: (Units=1/GPa)
#
#
# Indices 1 2 3 4 5 6 
#
# 1 0.007847 -0.004097 -0.000872 0.000000 -0.000335 0.000000
# 2 -0.004097 0.020437 -0.001781 0.000000 -0.003180 0.000000
# 3 -0.000872 -0.001781 0.021589 0.000000 -0.005378 0.000000
# 4 0.000000 0.000000 0.000000 0.102910 0.000000 -0.157350
# 5 -0.000335 -0.003180 -0.005378 0.000000 0.027783 0.000000
# 6 0.000000 0.000000 0.000000 -0.157350 0.000000 0.361475
#
#
# Mechanical properties :
#
#
# Convention : Reuss Voigt Hill
#
# Bulk Modulus (GPa) = 27.49273 39.03534 33.26404
# Shear Modulus (GPa) = 8.80801 28.82194 18.81497
#
# Velocity S-wave (km/s) = 2.01034 3.63658 2.93821
# Velocity P-wave (km/s) = 4.24304 5.96187 5.17433
#
# Compressibility (1/GPa) = 0.03637325
#
# Stress axis : x y z
#
# Youngs Moduli (GPa) = 127.43436 48.93158 46.31907
#
# Poissons Ratio (x) = 0.20045 0.04040
# Poissons Ratio (y) = 0.52204 0.08250
# Poissons Ratio (z) = 0.11115 0.08716
#
# Static dielectric constant tensor:
#      x y z
#    x 1.847050 0.000000 0.002570 
#    y 0.000000 1.818800 0.000000 
#    z 0.002570 0.000000 1.866910 
# 
# From -- ./inp_files/173194.got.cif
#   From: 2010.05.17/outbox.cif.g08.bks.cpg/sg15_87_cif.got.tgz:173194.got - 2010.06.03 18:47:42.
