data_PCOD9284417
_publ_section_title
;
Structure prediction by ZEFSAII (Michael W. Deem and Ramdas Pophale) SiO2 
 PCOD9284417
Probable space group: C 2/C
;
_chemical_formula_sum "Si O2"
_cell_formula_units_Z 56
_cell_length_a 7.952011
_cell_length_b 17.702854
_cell_length_c 17.289571
_cell_angle_alpha 90.000000
_cell_angle_beta 54.791430
_cell_angle_gamma 90.000000
_cell_volume 1988.647093
_symmetry_space_group_name_H-M "C 2/C"
_symmetry_group_IT_number 15
_symmetry_cell_setting 'monoclinic'
loop_
_space_group_symop_operation_xyz
x,y,z
-x,y,1/2-z
-x,-y,-z
x,-y,1/2+z
1/2+x,1/2+y,z
1/2-x,1/2+y,1/2-z
1/2-x,1/2-y,-z
1/2+x,1/2-y,1/2+z
loop_
_atom_site_type_symbol
_atom_site_label
_atom_site_fract_x
_atom_site_fract_y
_atom_site_fract_z
Si Si1 0.450746 0.173269 0.915166
Si Si2 0.784331 0.440535 0.085091
Si Si3 0.000000 0.479662 0.250000
Si Si4 0.380096 0.610772 0.381643
Si Si5 0.042797 0.608551 0.364879
Si Si6 0.814269 0.157030 0.651108
Si Si7 0.500000 0.666889 0.750000
Si Si8 0.645974 0.680196 0.427776
O O1 0.560582 0.091369 0.889378
O O2 0.359598 0.196667 0.857563
O O3 0.589718 0.234682 0.920868
O O4 0.257203 0.159269 0.022026
O O5 0.683734 0.522354 0.101737
O O6 0.596533 0.388222 0.159792
O O7 0.916691 0.421552 0.974252
O O8 0.959192 0.538993 0.192031
O O9 0.202229 0.425557 0.187028
O O10 0.593525 0.625786 0.368887
O O11 0.273411 0.631766 0.328240
O O12 0.888980 0.673557 0.377604
O O13 0.011512 0.158719 0.539508
O O14 0.837244 0.197529 0.729456
#
# Coordination Sequence:
#
# PCOD9284417 Si02
#       8
#     8   8   4   8   8   8   4   8
#     4  10  22  45  73 100 142 198 244 306 379 444
#     4  11  23  43  71 107 144 191 249 310 370 432
#     4  12  26  44  77 105 152 192 240 318 376 428
#     4  10  21  40  71 106 141 187 240 309 367 428
#     4  11  23  44  69 109 145 189 246 302 370 440
#     4  11  22  42  68 107 145 184 245 304 363 443
#     4  12  24  38  67 113 144 186 244 312 354 450
#     4  11  24  45  77 105 142 204 251 302 375 460
#
# _framework density 28.159848
#
# number of rings (size 3 to 8) (size 9 to 14) (size 15 to 20)
#    0.000    1.143    1.429    7.714    2.000    3.429 
#    2.571    0.714   12.571    0.857    0.000    0.000 
#    0.000    0.000    0.000    0.000    0.000    0.000 
#
# Total GULP energy -156363.293911 kJ/mol
# GULP energy per Si atom -5584.403354 kJ/mol
# Density = 2.809575 g / cm^3
# Si number density = 28.159848 Si / 1000 Ang^3
#
#
#
# Elastic Constant Matrix: (Units=GPa)
#
#
# Indices 1 2 3 4 5 6 
#
# 1 149.0674 42.5513 36.3733 0.0000 40.1743 0.0000
# 2 42.5513 126.8280 49.1469 0.0000 16.9419 0.0000
# 3 36.3733 49.1469 169.0455 0.0000 34.4779 0.0000
# 4 0.0000 0.0000 0.0000 36.7773 0.0000 -5.8901
# 5 40.1743 16.9419 34.4779 0.0000 65.6923 0.0000
# 6 0.0000 0.0000 0.0000 -5.8901 0.0000 44.9156
#
#
#
# Elastic Compliance Matrix: (Units=1/GPa)
#
#
# Indices 1 2 3 4 5 6 
#
# 1 0.008630 -0.002172 -0.000295 0.000000 -0.004563 0.000000
# 2 -0.002172 0.009497 -0.002313 0.000000 0.000093 0.000000
# 3 -0.000295 -0.002313 0.007271 0.000000 -0.003039 0.000000
# 4 0.000000 0.000000 0.000000 0.027774 0.000000 0.003642
# 5 -0.004563 0.000093 -0.003039 0.000000 0.019584 0.000000
# 6 0.000000 0.000000 0.000000 0.003642 0.000000 0.022742
#
#
# Mechanical properties :
#
#
# Convention : Reuss Voigt Hill
#
# Bulk Modulus (GPa) = 63.13179 77.89820 70.51499
# Shear Modulus (GPa) = 45.31587 50.60166 47.95876
#
# Velocity S-wave (km/s) = 4.01588 4.24364 4.13133
# Velocity P-wave (km/s) = 6.63105 7.19265 6.91755
#
# Compressibility (1/GPa) = 0.01583988
#
# Stress axis : x y z
#
# Youngs Moduli (GPa) = 115.87606 105.29527 137.52639
#
# Poissons Ratio (x) = 0.22866 0.04056
# Poissons Ratio (y) = 0.25163 0.31806
# Poissons Ratio (z) = 0.03418 0.24352
#
# Static dielectric constant tensor:
#      x y z
#    x 2.746990 0.000000 0.029670 
#    y 0.000000 2.175250 0.000000 
#    z 0.029670 0.000000 2.231530 
# 
# From -- ./inp_files/190964.got.cif
#   From: 2010.05.17/outbox.cif.g08.bks.cpg/sg15_96_cif.got.tgz:190964.got - 2010.06.03 18:47:42.
