data_PCOD9284632
_publ_section_title
;
Structure prediction by ZEFSAII (Michael W. Deem and Ramdas Pophale) SiO2 
 PCOD9284632
Probable space group: C 2/C
;
_chemical_formula_sum "Si O2"
_cell_formula_units_Z 40
_cell_length_a 25.760046
_cell_length_b 14.148170
_cell_length_c 16.969882
_cell_angle_alpha 90.000000
_cell_angle_beta 163.893038
_cell_angle_gamma 90.000000
_cell_volume 1715.857955
_symmetry_space_group_name_H-M "C 2/C"
_symmetry_group_IT_number 15
_symmetry_cell_setting 'monoclinic'
loop_
_space_group_symop_operation_xyz
x,y,z
-x,y,1/2-z
-x,-y,-z
x,-y,1/2+z
1/2+x,1/2+y,z
1/2-x,1/2+y,1/2-z
1/2-x,1/2-y,-z
1/2+x,1/2-y,1/2+z
loop_
_atom_site_type_symbol
_atom_site_label
_atom_site_fract_x
_atom_site_fract_y
_atom_site_fract_z
Si Si1 0.231984 0.133811 0.305750
Si Si2 0.935213 0.655655 0.934573
Si Si3 0.716473 0.248013 0.544540
Si Si4 0.824454 0.440865 0.433979
Si Si5 0.341081 0.147411 0.630557
O O1 0.134251 0.235242 0.152374
O O2 0.229601 0.104837 0.395162
O O3 0.444637 0.152553 0.585833
O O4 0.196043 0.028963 0.220534
O O5 0.909148 0.599256 0.976386
O O6 0.836830 0.612143 0.714059
O O7 0.152599 0.670231 0.230851
O O8 0.750000 0.250000 0.500000
O O9 0.773543 0.147051 0.665461
O O10 0.500000 0.260760 0.250000
O O11 0.000000 0.463410 0.750000
O O12 0.250000 0.250000 0.500000
#
# Coordination Sequence:
#
# PCOD9284632 Si02
#       5
#     8   8   8   8   8
#     4  10  21  41  62  98 135 171 222 282 335 396
#     4  11  22  39  68  95 131 179 228 270 341 402
#     4  11  22  39  63  95 130 178 225 270 335 398
#     4  11  21  40  65  97 134 176 217 276 338 395
#     4   9  19  35  61  91 125 172 215 270 330 393
#
# _framework density 23.311952999999999
#
# number of rings (size 3 to 8) (size 9 to 14) (size 15 to 20)
#    0.000    1.600    6.000    1.200    0.000    1.600 
#    0.000    0.000    0.000    0.000   10.400    0.000 
#    0.000    0.000    0.000    0.000    0.000    0.000 
#
# Total GULP energy -111434.358438 kJ/mol
# GULP energy per Si atom -5571.717922 kJ/mol
# Density = 2.325889 g / cm^3
# Si number density = 23.311953 Si / 1000 Ang^3
#
#
#
# Elastic Constant Matrix: (Units=GPa)
#
#
# Indices 1 2 3 4 5 6 
#
# 1 132.0292 40.3902 26.6819 0.0000 -15.9728 0.0000
# 2 40.3902 73.5521 17.9857 0.0000 8.5800 0.0000
# 3 26.6819 17.9857 40.0902 0.0000 -1.4080 0.0000
# 4 0.0000 0.0000 0.0000 26.0154 0.0000 10.6617
# 5 -15.9728 8.5800 -1.4080 0.0000 38.4179 0.0000
# 6 0.0000 0.0000 0.0000 10.6617 0.0000 28.4965
#
#
#
# Elastic Compliance Matrix: (Units=1/GPa)
#
#
# Indices 1 2 3 4 5 6 
#
# 1 0.010850 -0.005493 -0.004561 0.000000 0.005571 0.000000
# 2 -0.005493 0.018585 -0.004915 0.000000 -0.006614 0.000000
# 3 -0.004561 -0.004915 0.030195 0.000000 0.000308 0.000000
# 4 0.000000 0.000000 0.000000 0.045400 0.000000 -0.016986
# 5 0.005571 -0.006614 0.000308 0.000000 0.029834 0.000000
# 6 0.000000 0.000000 0.000000 -0.016986 0.000000 0.041447
#
#
# Mechanical properties :
#
#
# Convention : Reuss Voigt Hill
#
# Bulk Modulus (GPa) = 33.67767 46.19858 39.93813
# Shear Modulus (GPa) = 23.13236 29.29354 26.21295
#
# Velocity S-wave (km/s) = 3.15349 3.54869 3.35691
# Velocity P-wave (km/s) = 5.26661 6.05405 5.67401
#
# Compressibility (1/GPa) = 0.02969326
#
# Stress axis : x y z
#
# Youngs Moduli (GPa) = 92.16473 53.80574 33.11774
#
# Poissons Ratio (x) = 0.29553 0.15107
# Poissons Ratio (y) = 0.50623 0.16276
# Poissons Ratio (z) = 0.42041 0.26444
#
# Static dielectric constant tensor:
#      x y z
#    x 1.900230 0.000000 -0.112250 
#    y 0.000000 1.946180 0.000000 
#    z -0.112250 0.000000 1.757160 
# 
# From -- ./inp_files/222730.got.cif
#   From: 2010.05.17/outbox.cif.g08.bks.cpg/sg15_112_cif.got.tgz:222730.got - 2010.06.03 18:47:42.
