data_PCOD9284972
_publ_section_title
;
Structure prediction by ZEFSAII (Michael W. Deem and Ramdas Pophale) SiO2 
 PCOD9284972
Probable space group: C 2/C
;
_chemical_formula_sum "Si O2"
_cell_formula_units_Z 48
_cell_length_a 20.991973
_cell_length_b 15.355169
_cell_length_c 9.901542
_cell_angle_alpha 90.000000
_cell_angle_beta 140.402963
_cell_angle_gamma 90.000000
_cell_volume 2034.285709
_symmetry_space_group_name_H-M "C 2/C"
_symmetry_group_IT_number 15
_symmetry_cell_setting 'monoclinic'
loop_
_space_group_symop_operation_xyz
x,y,z
-x,y,1/2-z
-x,-y,-z
x,-y,1/2+z
1/2+x,1/2+y,z
1/2-x,1/2+y,1/2-z
1/2-x,1/2-y,-z
1/2+x,1/2-y,1/2+z
loop_
_atom_site_type_symbol
_atom_site_label
_atom_site_fract_x
_atom_site_fract_y
_atom_site_fract_z
Si Si1 0.589592 0.182730 0.489711
Si Si2 0.729026 0.485233 0.607275
Si Si3 0.021139 0.222483 0.143467
Si Si4 0.565746 0.016723 0.975155
Si Si5 0.401203 0.559477 0.855224
Si Si6 0.770746 0.827042 0.431527
O O1 0.500000 0.220095 0.250000
O O2 0.552432 0.211276 0.577886
O O3 0.593064 0.080190 0.465258
O O4 0.709216 0.203513 0.696548
O O5 0.665481 0.517171 0.633548
O O6 0.660930 0.439342 0.385338
O O7 0.768147 0.575791 0.602760
O O8 0.829860 0.437133 0.817981
O O9 0.111966 0.161435 0.345697
O O10 0.000000 0.268355 0.250000
O O11 0.937635 0.156468 0.952279
O O12 0.500000 0.055764 0.750000
O O13 0.500000 0.000000 0.000000
O O14 0.500000 0.500000 0.000000
O O15 0.750000 0.750000 0.500000
#
# Coordination Sequence:
#
# PCOD9284972 Si02
#       6
#     8   8   8   8   8   8
#     4   9  21  38  62  87 118 156 206 260 309 361
#     4  11  22  38  62  93 125 164 212 257 314 380
#     4  11  20  38  60  87 124 162 200 247 312 377
#     4  10  21  41  66  88 122 163 211 266 319 366
#     4  12  22  37  59  93 131 169 206 253 318 382
#     4   9  18  37  61  82 115 162 203 246 306 370
#
# _framework density 23.595504999999999
#
# number of rings (size 3 to 8) (size 9 to 14) (size 15 to 20)
#    0.000    1.667    3.333    1.500    0.000    2.000 
#    0.000    2.500    0.000    0.000    0.000    0.000 
#    0.000    0.000    0.000    0.000    0.000    0.000 
#
# Total GULP energy -133618.275201 kJ/mol
# GULP energy per Si atom -5567.428133 kJ/mol
# Density = 2.354180 g / cm^3
# Si number density = 23.595505 Si / 1000 Ang^3
#
#
#
# Elastic Constant Matrix: (Units=GPa)
#
#
# Indices 1 2 3 4 5 6 
#
# 1 79.0570 7.8231 52.6899 0.0000 3.6083 0.0000
# 2 7.8231 61.7024 26.1568 0.0000 -0.7216 0.0000
# 3 52.6899 26.1568 271.9864 0.0000 16.8341 0.0000
# 4 0.0000 0.0000 0.0000 0.0486 0.0000 -1.6138
# 5 3.6083 -0.7216 16.8341 0.0000 34.5566 0.0000
# 6 0.0000 0.0000 0.0000 -1.6138 0.0000 14.4487
#
#
#
# Elastic Compliance Matrix: (Units=1/GPa)
#
#
# Indices 1 2 3 4 5 6 
#
# 1 0.014553 -0.000685 -0.002741 0.000000 -0.000199 0.000000
# 2 -0.000685 0.016975 -0.001573 0.000000 0.001193 0.000000
# 3 -0.002741 -0.001573 0.004478 0.000000 -0.001928 0.000000
# 4 0.000000 0.000000 0.000000 -7.595105 0.000000 -0.848307
# 5 -0.000199 0.001193 -0.001928 0.000000 0.029923 0.000000
# 6 0.000000 0.000000 0.000000 -0.848307 0.000000 -0.025538
#
#
# Mechanical properties :
#
#
# Convention : Reuss Voigt Hill
#
# Bulk Modulus (GPa) = 38.45273 65.12060 51.78667
# Shear Modulus (GPa) = -0.66348 31.54918 15.44285
#
# Velocity S-wave (km/s) = -0.53085 3.66058 2.56106
# Velocity P-wave (km/s) = 3.99453 6.74723 5.54443
#
# Compressibility (1/GPa) = 0.02600596
#
# Stress axis : x y z
#
# Youngs Moduli (GPa) = 68.71524 58.91118 223.29851
#
# Poissons Ratio (x) = 0.04038 0.61206
# Poissons Ratio (y) = 0.04710 0.35135
# Poissons Ratio (z) = 0.18835 0.09269
#
# Static dielectric constant tensor:
#      x y z
#    x 2.066550 0.000000 0.115880 
#    y 0.000000 1.890760 0.000000 
#    z 0.115880 0.000000 2.040200 
# 
# From -- ./inp_files/57968.got.cif
#   From: 2010.05.17/outbox.cif.g08.bks.cpg/sg15_29_cif.got.tgz:57968.got - 2010.06.03 18:47:42.
