data_PCOD9284461
_publ_section_title
;
Structure prediction by ZEFSAII (Michael W. Deem and Ramdas Pophale) SiO2 
 PCOD9284461
Probable space group: C 2/C
;
_chemical_formula_sum "Si O2"
_cell_formula_units_Z 36
_cell_length_a 24.080812
_cell_length_b 6.855012
_cell_length_c 15.599017
_cell_angle_alpha 90.000000
_cell_angle_beta 33.480930
_cell_angle_gamma 90.000000
_cell_volume 1420.520834
_symmetry_space_group_name_H-M "C 2/C"
_symmetry_group_IT_number 15
_symmetry_cell_setting 'monoclinic'
loop_
_space_group_symop_operation_xyz
x,y,z
-x,y,1/2-z
-x,-y,-z
x,-y,1/2+z
1/2+x,1/2+y,z
1/2-x,1/2+y,1/2-z
1/2-x,1/2-y,-z
1/2+x,1/2-y,1/2+z
loop_
_atom_site_type_symbol
_atom_site_label
_atom_site_fract_x
_atom_site_fract_y
_atom_site_fract_z
Si Si1 0.038329 0.323593 0.292920
Si Si2 0.000000 0.703184 0.250000
Si Si3 0.286715 0.774872 0.048282
Si Si4 0.143619 0.853291 0.375500
Si Si5 0.785711 0.183588 0.322293
O O1 0.030295 0.556583 0.288692
O O2 0.959149 0.243019 0.463661
O O3 0.000000 0.244603 0.250000
O O4 0.147359 0.256447 0.185487
O O5 0.898865 0.810605 0.408856
O O6 0.199751 0.729988 0.228306
O O7 0.293487 0.010909 0.053622
O O8 0.250000 0.750000 0.000000
O O9 0.221255 0.840745 0.354703
O O10 0.140638 0.068950 0.339039
#
# Coordination Sequence:
#
# PCOD9284461 Si02
#       5
#     8   4   8   8   8
#     4  10  21  40  73  93 132 176 229 270 332 405
#     4  10  22  44  62 100 124 180 220 268 338 386
#     4  10  24  43  64  96 136 175 227 273 333 394
#     4  10  22  43  63 102 131 177 223 276 339 393
#     4  10  22  42  65  99 131 178 221 279 329 394
#
# _framework density 25.342818000000001
#
# number of rings (size 3 to 8) (size 9 to 14) (size 15 to 20)
#    2.000    0.000    2.222    0.667    0.000    8.889 
#    2.000    3.333    0.000    0.000    0.000    0.000 
#    0.000    0.000    0.000    0.000    0.000    0.000 
#
# Total GULP energy -100529.057042 kJ/mol
# GULP energy per Si atom -5584.947613 kJ/mol
# Density = 2.528514 g / cm^3
# Si number density = 25.342818 Si / 1000 Ang^3
#
#
#
# Elastic Constant Matrix: (Units=GPa)
#
#
# Indices 1 2 3 4 5 6 
#
# 1 127.6642 1.1606 32.5133 -0.0017 -4.2521 -0.0015
# 2 1.1606 56.7926 1.5905 -0.0052 11.1931 -0.0101
# 3 32.5133 1.5905 182.6738 0.0059 -8.0944 -0.0029
# 4 -0.0017 -0.0052 0.0059 30.3031 -0.0022 -2.0957
# 5 -4.2521 11.1931 -8.0944 -0.0022 20.7547 -0.0016
# 6 -0.0015 -0.0101 -0.0029 -2.0957 -0.0016 38.8081
#
#
#
# Elastic Compliance Matrix: (Units=1/GPa)
#
#
# Indices 1 2 3 4 5 6 
#
# 1 0.008239 -0.000396 -0.001403 0.000001 0.001354 0.000000
# 2 -0.000396 0.019798 -0.000589 0.000003 -0.010988 0.000005
# 3 -0.001403 -0.000589 0.005831 -0.000001 0.002304 0.000000
# 4 0.000001 0.000003 -0.000001 0.033124 0.000002 0.001789
# 5 0.001354 -0.010988 0.002304 0.000002 0.055284 0.000000
# 6 0.000000 0.000005 0.000000 0.001789 0.000000 0.025864
#
#
# Mechanical properties :
#
#
# Convention : Reuss Voigt Hill
#
# Bulk Modulus (GPa) = 34.37273 48.62880 41.50076
# Shear Modulus (GPa) = 30.74781 40.09760 35.42270
#
# Velocity S-wave (km/s) = 3.48699 3.98201 3.74269
# Velocity P-wave (km/s) = 5.45937 6.35389 5.92354
#
# Compressibility (1/GPa) = 0.02909283
#
# Stress axis : x y z
#
# Youngs Moduli (GPa) = 121.37300 50.50994 171.49196
#
# Poissons Ratio (x) = 0.02000 0.24060
# Poissons Ratio (y) = 0.04806 0.10097
# Poissons Ratio (z) = 0.17028 0.02974
#
# Static dielectric constant tensor:
#      x y z
#    x 1.951380 0.000000 0.043870 
#    y 0.000000 2.083840 0.000000 
#    z 0.043870 0.000000 2.006550 
# 
# From -- ./inp_files/166612.got.cif
#   From: 2010.05.17/outbox.cif.g08.bks.cpg/sg15_84_cif.got.tgz:166612.got - 2010.06.03 18:47:42.
