data_PCOD9284957
_publ_section_title
;
Structure prediction by ZEFSAII (Michael W. Deem and Ramdas Pophale) SiO2 
 PCOD9284957
Probable space group: C 2/C
;
_chemical_formula_sum "Si O2"
_cell_formula_units_Z 56
_cell_length_a 5.271573
_cell_length_b 28.076393
_cell_length_c 18.650591
_cell_angle_alpha 90.000000
_cell_angle_beta 104.347340
_cell_angle_gamma 90.000000
_cell_volume 2674.319807
_symmetry_space_group_name_H-M "C 2/C"
_symmetry_group_IT_number 15
_symmetry_cell_setting 'monoclinic'
loop_
_space_group_symop_operation_xyz
x,y,z
-x,y,1/2-z
-x,-y,-z
x,-y,1/2+z
1/2+x,1/2+y,z
1/2-x,1/2+y,1/2-z
1/2-x,1/2-y,-z
1/2+x,1/2-y,1/2+z
loop_
_atom_site_type_symbol
_atom_site_label
_atom_site_fract_x
_atom_site_fract_y
_atom_site_fract_z
Si Si1 0.666122 0.882081 0.122535
Si Si2 0.539606 0.733645 0.044595
Si Si3 0.194169 0.713678 0.701306
Si Si4 0.500000 0.001464 0.250000
Si Si5 0.745218 0.953220 0.470770
Si Si6 0.000000 0.062114 0.750000
Si Si7 0.059242 0.546775 0.404081
Si Si8 0.659390 0.629694 0.018674
O O1 0.594174 0.839322 0.170746
O O2 0.481951 0.927071 0.092039
O O3 0.916138 0.905253 0.177612
O O4 0.710069 0.858089 0.048308
O O5 0.640950 0.754220 0.127376
O O6 0.537494 0.676158 0.044039
O O7 0.750000 0.750000 0.000000
O O8 0.250000 0.750000 0.000000
O O9 0.500000 0.712612 0.750000
O O10 0.000000 0.730388 0.750000
O O11 0.757245 0.968817 0.261130
O O12 0.483496 0.033625 0.319339
O O13 0.649130 0.959269 0.546233
O O14 0.962934 0.912863 0.484516
O O15 0.774070 0.005768 0.439589
O O16 0.145962 0.601307 0.416158
#
# Coordination Sequence:
#
# PCOD9284957 Si02
#       8
#     8   8   8   4   8   4   8   8
#     4  11  23  39  68 104 135 177 224 287 354 418
#     4  12  26  49  75 104 138 187 243 293 348 432
#     4  12  27  45  70 106 146 180 226 298 369 417
#     4  12  26  44  62  95 142 191 222 278 342 410
#     4  10  21  41  66 102 136 177 232 284 338 411
#     4  12  26  38  64  99 138 177 222 278 352 414
#     4  10  23  40  65  98 137 182 229 281 335 409
#     4  11  24  42  72  99 132 184 237 284 340 410
#
# _framework density 20.939903000000001
#
# number of rings (size 3 to 8) (size 9 to 14) (size 15 to 20)
#    0.000    0.857    3.571    3.000    7.000    0.000 
#    1.286    0.000    0.000    0.000    0.000    0.000 
#    0.000    0.000    0.000    0.000    0.000    0.000 
#
# Total GULP energy -156338.524988 kJ/mol
# GULP energy per Si atom -5583.518750 kJ/mol
# Density = 2.089224 g / cm^3
# Si number density = 20.939903 Si / 1000 Ang^3
#
#
#
# Elastic Constant Matrix: (Units=GPa)
#
#
# Indices 1 2 3 4 5 6 
#
# 1 75.0476 20.5866 18.9492 0.0000 -4.2607 0.0000
# 2 20.5866 123.9605 46.1130 0.0000 -3.7114 0.0000
# 3 18.9492 46.1130 128.6721 0.0000 -7.3820 0.0000
# 4 0.0000 0.0000 0.0000 16.2023 0.0000 -13.3541
# 5 -4.2607 -3.7114 -7.3820 0.0000 23.7118 0.0000
# 6 0.0000 0.0000 0.0000 -13.3541 0.0000 26.0068
#
#
#
# Elastic Compliance Matrix: (Units=1/GPa)
#
#
# Indices 1 2 3 4 5 6 
#
# 1 0.014268 -0.001814 -0.001344 0.000000 0.001861 0.000000
# 2 -0.001814 0.009543 -0.003142 0.000000 0.000190 0.000000
# 3 -0.001344 -0.003142 0.009218 0.000000 0.002136 0.000000
# 4 0.000000 0.000000 0.000000 0.107008 0.000000 0.054947
# 5 0.001861 0.000190 0.002136 0.000000 0.043202 0.000000
# 6 0.000000 0.000000 0.000000 0.054947 0.000000 0.066666
#
#
# Mechanical properties :
#
#
# Convention : Reuss Voigt Hill
#
# Bulk Modulus (GPa) = 48.95097 55.44197 52.19647
# Shear Modulus (GPa) = 18.56565 29.31958 23.94261
#
# Velocity S-wave (km/s) = 2.98084 3.74595 3.38508
# Velocity P-wave (km/s) = 5.93926 6.72635 6.34502
#
# Compressibility (1/GPa) = 0.02042860
#
# Stress axis : x y z
#
# Youngs Moduli (GPa) = 70.08931 104.79156 108.48051
#
# Poissons Ratio (x) = 0.19005 0.14584
# Poissons Ratio (y) = 0.12712 0.34084
# Poissons Ratio (z) = 0.09423 0.32925
#
# Static dielectric constant tensor:
#      x y z
#    x 1.874290 0.000000 0.093080 
#    y 0.000000 1.777070 0.000000 
#    z 0.093080 0.000000 1.856540 
# 
# From -- ./inp_files/186603.got.cif
#   From: 2010.05.17/outbox.cif.g08.bks.cpg/sg15_94_cif.got.tgz:186603.got - 2010.06.03 18:47:42.
