data_PCOD9284166
_publ_section_title
;
Structure prediction by ZEFSAII (Michael W. Deem and Ramdas Pophale) SiO2 
 PCOD9284166
Probable space group: C 2/C
;
_chemical_formula_sum "Si O2"
_cell_formula_units_Z 40
_cell_length_a 8.214050
_cell_length_b 17.124709
_cell_length_c 19.092267
_cell_angle_alpha 90.000000
_cell_angle_beta 46.362834
_cell_angle_gamma 90.000000
_cell_volume 1943.619471
_symmetry_space_group_name_H-M "C 2/C"
_symmetry_group_IT_number 15
_symmetry_cell_setting 'monoclinic'
loop_
_space_group_symop_operation_xyz
x,y,z
-x,y,1/2-z
-x,-y,-z
x,-y,1/2+z
1/2+x,1/2+y,z
1/2-x,1/2+y,1/2-z
1/2-x,1/2-y,-z
1/2+x,1/2-y,1/2+z
loop_
_atom_site_type_symbol
_atom_site_label
_atom_site_fract_x
_atom_site_fract_y
_atom_site_fract_z
Si Si1 0.303261 0.910916 0.232456
Si Si2 0.000000 0.805026 0.750000
Si Si3 0.763867 0.190992 0.060806
Si Si4 0.267118 0.839940 0.392517
Si Si5 0.000000 0.790061 0.250000
Si Si6 0.880247 0.411381 0.707750
O O1 0.282414 0.900101 0.322653
O O2 0.522756 0.874574 0.127931
O O3 0.115017 0.849341 0.268126
O O4 0.295245 0.001494 0.217833
O O5 0.154766 0.745099 0.658886
O O6 0.169350 0.854751 0.749596
O O7 0.669647 0.236457 0.156295
O O8 0.589855 0.120311 0.099939
O O9 0.750000 0.250000 0.000000
O O10 0.019131 0.163793 0.995795
O O11 0.000000 0.413484 0.750000
#
# Coordination Sequence:
#
# PCOD9284166 Si02
#       6
#     8   4   8   8   4   8
#     4  10  22  42  63  96 136 166 215 275 336 391
#     4  10  21  40  67  92 134 170 218 278 321 396
#     4  12  23  42  69  98 131 173 230 275 322 404
#     4  10  21  43  63  88 139 167 205 287 323 374
#     4  12  23  42  71  96 128 184 218 268 343 396
#     4  12  23  42  67 100 132 176 221 276 336 393
#
# _framework density 20.580159999999999
#
# number of rings (size 3 to 8) (size 9 to 14) (size 15 to 20)
#    0.000    1.200    7.000    1.800    0.000    1.600 
#    0.000    1.000    0.000    0.000    0.000    0.000 
#    0.000    0.000    0.000    0.000    0.000    0.000 
#
# Total GULP energy -111335.636521 kJ/mol
# GULP energy per Si atom -5566.781826 kJ/mol
# Density = 2.053332 g / cm^3
# Si number density = 20.580160 Si / 1000 Ang^3
#
#
#
# Elastic Constant Matrix: (Units=GPa)
#
#
# Indices 1 2 3 4 5 6 
#
# 1 34.1142 12.1120 10.3919 0.0001 -13.7929 0.0006
# 2 12.1120 156.9759 42.6196 0.0001 -14.9700 0.0003
# 3 10.3919 42.6196 105.8712 0.0000 -24.9880 -0.0001
# 4 0.0001 0.0001 0.0000 20.2733 -0.0001 -7.3401
# 5 -13.7929 -14.9700 -24.9880 -0.0001 34.0931 0.0001
# 6 0.0006 0.0003 -0.0001 -7.3401 0.0001 30.7923
#
#
#
# Elastic Compliance Matrix: (Units=1/GPa)
#
#
# Indices 1 2 3 4 5 6 
#
# 1 0.035363 -0.001515 0.000433 0.000000 0.013959 -0.000001
# 2 -0.001515 0.007261 -0.002620 0.000000 0.000655 0.000000
# 3 0.000433 -0.002620 0.012367 0.000000 0.008089 0.000000
# 4 0.000000 0.000000 0.000000 0.053985 0.000000 0.012869
# 5 0.013959 0.000655 0.008089 0.000000 0.041195 0.000000
# 6 -0.000001 0.000000 0.000000 0.012869 0.000000 0.035543
#
#
# Mechanical properties :
#
#
# Convention : Reuss Voigt Hill
#
# Bulk Modulus (GPa) = 21.01354 47.46759 34.24056
# Shear Modulus (GPa) = 23.92578 32.48758 28.20668
#
# Velocity S-wave (km/s) = 3.41334 3.97745 3.70615
# Velocity P-wave (km/s) = 5.07615 6.64893 5.91505
#
# Compressibility (1/GPa) = 0.04758837
#
# Stress axis : x y z
#
# Youngs Moduli (GPa) = 28.27810 137.72133 80.86258
#
# Poissons Ratio (x) = 0.20865 -0.03505
# Poissons Ratio (y) = 0.04284 0.21183
# Poissons Ratio (z) = -0.01226 0.36078
#
# Static dielectric constant tensor:
#      x y z
#    x 1.744340 0.000000 -0.015600 
#    y 0.000000 1.722570 0.000000 
#    z -0.015600 0.000000 1.733230 
# 
# From -- ./inp_files/232456.got.cif
#   From: 2010.05.17/outbox.cif.g08.bks.cpg/sg15_117_cif.got.tgz:232456.got - 2010.06.03 18:47:42.
