data_PCOD9284450
_publ_section_title
;
Structure prediction by ZEFSAII (Michael W. Deem and Ramdas Pophale) SiO2 
 PCOD9284450
Probable space group: C 2/C
;
_chemical_formula_sum "Si O2"
_cell_formula_units_Z 48
_cell_length_a 10.229798
_cell_length_b 26.380393
_cell_length_c 16.015249
_cell_angle_alpha 90.000000
_cell_angle_beta 35.978463
_cell_angle_gamma 90.000000
_cell_volume 2539.077283
_symmetry_space_group_name_H-M "C 2/C"
_symmetry_group_IT_number 15
_symmetry_cell_setting 'monoclinic'
loop_
_space_group_symop_operation_xyz
x,y,z
-x,y,1/2-z
-x,-y,-z
x,-y,1/2+z
1/2+x,1/2+y,z
1/2-x,1/2+y,1/2-z
1/2-x,1/2-y,-z
1/2+x,1/2-y,1/2+z
loop_
_atom_site_type_symbol
_atom_site_label
_atom_site_fract_x
_atom_site_fract_y
_atom_site_fract_z
Si Si1 0.002083 0.764920 0.349673
Si Si2 0.866330 0.518644 0.986248
Si Si3 0.438826 0.356436 0.059053
Si Si4 0.264525 0.161844 0.242900
Si Si5 0.000000 0.579023 0.750000
Si Si6 0.000000 0.906500 0.750000
Si Si7 0.354832 0.918311 0.900457
O O1 0.750000 0.750000 0.500000
O O2 0.000000 0.769140 0.250000
O O3 0.079825 0.815410 0.357367
O O4 0.146396 0.718497 0.311374
O O5 0.983348 0.546477 0.845521
O O6 0.795485 0.463714 0.991166
O O7 0.667011 0.556401 0.114076
O O8 0.000000 0.500000 0.000000
O O9 0.215016 0.384668 0.148318
O O10 0.571351 0.333023 0.912284
O O11 0.621000 0.396913 0.993464
O O12 0.481370 0.127439 0.155102
O O13 0.151023 0.130351 0.227929
O O14 0.500000 0.940803 0.750000
#
# Coordination Sequence:
#
# PCOD9284450 Si02
#       7
#     8   8   8   8   4   4   8
#     4  12  23  44  75 104 130 177 237 287 345 423
#     4  12  26  44  68 103 141 188 240 279 346 422
#     4  11  25  44  70 101 140 179 226 292 354 410
#     4  11  22  45  68 104 139 179 227 293 357 409
#     4  12  28  47  66 106 148 181 234 292 344 420
#     4  12  26  43  70 102 148 183 228 294 354 416
#     4  10  21  40  72  95 134 187 229 283 349 410
#
# _framework density 18.904505
#
# number of rings (size 3 to 8) (size 9 to 14) (size 15 to 20)
#    0.000    0.667    7.500    0.500    2.333    4.000 
#    0.000    1.667    0.000    0.000    0.000    0.000 
#    0.000    0.000    0.000    0.000    0.000    0.000 
#
# Total GULP energy -133702.414670 kJ/mol
# GULP energy per Si atom -5570.933945 kJ/mol
# Density = 1.886148 g / cm^3
# Si number density = 18.904505 Si / 1000 Ang^3
#
#
#
# Elastic Constant Matrix: (Units=GPa)
#
#
# Indices 1 2 3 4 5 6 
#
# 1 104.5176 42.1354 55.3942 0.0000 -16.7354 0.0000
# 2 42.1354 89.6244 53.4308 0.0000 -1.3064 0.0000
# 3 55.3942 53.4308 106.1490 0.0000 -5.9093 0.0000
# 4 0.0000 0.0000 0.0000 109.3932 0.0000 -43.5516
# 5 -16.7354 -1.3064 -5.9093 0.0000 38.6327 0.0000
# 6 0.0000 0.0000 0.0000 -43.5516 0.0000 71.6683
#
#
#
# Elastic Compliance Matrix: (Units=1/GPa)
#
#
# Indices 1 2 3 4 5 6 
#
# 1 0.014875 -0.003525 -0.005685 0.000000 0.005455 0.000000
# 2 -0.003525 0.016795 -0.006725 0.000000 -0.001988 0.000000
# 3 -0.005685 -0.006725 0.015757 0.000000 -0.000280 0.000000
# 4 0.000000 0.000000 0.000000 0.012059 0.000000 0.007328
# 5 0.005455 -0.001988 -0.000280 0.000000 0.028138 0.000000
# 6 0.000000 0.000000 0.000000 0.007328 0.000000 0.018406
#
#
# Mechanical properties :
#
#
# Convention : Reuss Voigt Hill
#
# Bulk Modulus (GPa) = 64.27641 66.91241 65.59441
# Shear Modulus (GPa) = 34.94422 53.89421 44.41921
#
# Velocity S-wave (km/s) = 4.30404 5.34514 4.85259
# Velocity P-wave (km/s) = 7.66642 8.57705 8.13449
#
# Compressibility (1/GPa) = 0.01555781
#
# Stress axis : x y z
#
# Youngs Moduli (GPa) = 67.22642 59.54121 63.46415
#
# Poissons Ratio (x) = 0.20987 0.36078
# Poissons Ratio (y) = 0.23695 0.42681
# Poissons Ratio (z) = 0.38217 0.40043
#
# Static dielectric constant tensor:
#      x y z
#    x 1.642810 0.000000 0.025950 
#    y 0.000000 1.633550 0.000000 
#    z 0.025950 0.000000 1.697320 
# 
# From -- ./inp_files/138955.got.cif
#   From: 2010.05.17/outbox.cif.g08.bks.cpg/sg15_70_cif.got.tgz:138955.got - 2010.06.03 18:47:42.
