data_PCOD9284797
_publ_section_title
;
Structure prediction by ZEFSAII (Michael W. Deem and Ramdas Pophale) SiO2 
 PCOD9284797
Probable space group: C 2/C
;
_chemical_formula_sum "Si O2"
_cell_formula_units_Z 40
_cell_length_a 8.115548
_cell_length_b 22.347147
_cell_length_c 8.426933
_cell_angle_alpha 90.000000
_cell_angle_beta 84.049817
_cell_angle_gamma 90.000000
_cell_volume 1520.069162
_symmetry_space_group_name_H-M "C 2/C"
_symmetry_group_IT_number 15
_symmetry_cell_setting 'monoclinic'
loop_
_space_group_symop_operation_xyz
x,y,z
-x,y,1/2-z
-x,-y,-z
x,-y,1/2+z
1/2+x,1/2+y,z
1/2-x,1/2+y,1/2-z
1/2-x,1/2-y,-z
1/2+x,1/2-y,1/2+z
loop_
_atom_site_type_symbol
_atom_site_label
_atom_site_fract_x
_atom_site_fract_y
_atom_site_fract_z
Si Si1 0.827298 0.511536 0.601244
Si Si2 0.428536 0.776761 0.430124
Si Si3 0.603935 0.673706 0.537811
Si Si4 0.669602 0.575563 0.323813
Si Si5 0.748152 0.378140 0.328742
O O1 0.701561 0.537412 0.481043
O O2 0.795095 0.447406 0.681129
O O3 0.801034 0.558587 0.749713
O O4 0.000000 0.500000 0.500000
O O5 0.500000 0.758546 0.250000
O O6 0.250000 0.750000 0.500000
O O7 0.551822 0.742258 0.534362
O O8 0.389322 0.847095 0.419965
O O9 0.681906 0.644255 0.374244
O O10 0.434800 0.632176 0.575943
O O11 0.721831 0.662356 0.673807
O O12 0.500000 0.562601 0.250000
#
# Coordination Sequence:
#
# PCOD9284797 Si02
#       5
#     8   8   8   8   8
#     4  11  25  43  66 101 144 183 232 296 366 424
#     4  10  21  41  64  93 129 175 229 288 351 415
#     4   9  20  41  68  99 130 181 238 285 343 428
#     4  11  24  41  68  99 135 182 239 287 347 437
#     4   9  21  40  68  97 136 179 231 290 354 418
#
# _framework density 26.314592000000001
#
# number of rings (size 3 to 8) (size 9 to 14) (size 15 to 20)
#    0.000    2.000    0.000    1.800    8.400    2.400 
#    7.200    0.000    0.000    2.400    0.000    0.000 
#    0.000    0.000    0.000    0.000    0.000    0.000 
#
# Total GULP energy -111768.196480 kJ/mol
# GULP energy per Si atom -5588.409824 kJ/mol
# Density = 2.625470 g / cm^3
# Si number density = 26.314592 Si / 1000 Ang^3
#
#
#
# Elastic Constant Matrix: (Units=GPa)
#
#
# Indices 1 2 3 4 5 6 
#
# 1 91.9043 52.3624 36.1162 0.0000 4.7045 0.0000
# 2 52.3624 139.4668 57.7380 0.0000 5.0332 0.0000
# 3 36.1162 57.7380 83.8817 0.0000 -9.2482 0.0000
# 4 0.0000 0.0000 0.0000 45.0493 0.0000 7.2549
# 5 4.7045 5.0332 -9.2482 0.0000 47.6624 0.0000
# 6 0.0000 0.0000 0.0000 7.2549 0.0000 29.3443
#
#
#
# Elastic Compliance Matrix: (Units=1/GPa)
#
#
# Indices 1 2 3 4 5 6 
#
# 1 0.014686 -0.003845 -0.003875 0.000000 -0.001795 0.000000
# 2 -0.003845 0.011323 -0.006364 0.000000 -0.002051 0.000000
# 3 -0.003875 -0.006364 0.018482 0.000000 0.004641 0.000000
# 4 0.000000 0.000000 0.000000 0.023118 0.000000 -0.005716
# 5 -0.001795 -0.002051 0.004641 0.000000 0.022275 0.000000
# 6 0.000000 0.000000 0.000000 -0.005716 0.000000 0.035491
#
#
# Mechanical properties :
#
#
# Convention : Reuss Voigt Hill
#
# Bulk Modulus (GPa) = 61.26286 67.52067 64.39177
# Shear Modulus (GPa) = 31.44967 35.68027 33.56497
#
# Velocity S-wave (km/s) = 3.46083 3.68627 3.57533
# Velocity P-wave (km/s) = 6.26908 6.62063 6.44725
#
# Compressibility (1/GPa) = 0.01632310
#
# Stress axis : x y z
#
# Youngs Moduli (GPa) = 68.09155 88.31969 54.10646
#
# Poissons Ratio (x) = 0.33959 0.20964
# Poissons Ratio (y) = 0.26181 0.34434
# Poissons Ratio (z) = 0.26383 0.56208
#
# Static dielectric constant tensor:
#      x y z
#    x 2.188200 0.000000 0.008750 
#    y 0.000000 2.056690 0.000000 
#    z 0.008750 0.000000 2.103580 
# 
# From -- ./inp_files/23443.got.cif
#   From: 2010.05.17/outbox.cif.g08.bks.cpg/sg15_12_cif.got.tgz:23443.got - 2010.06.03 18:47:42.
