data_PCOD9284079
_publ_section_title
;
Structure prediction by ZEFSAII (Michael W. Deem and Ramdas Pophale) SiO2 
 PCOD9284079
Probable space group: C 2/C
;
_chemical_formula_sum "Si O2"
_cell_formula_units_Z 56
_cell_length_a 28.805374
_cell_length_b 9.976111
_cell_length_c 26.544363
_cell_angle_alpha 90.000000
_cell_angle_beta 161.949341
_cell_angle_gamma 90.000000
_cell_volume 2363.575523
_symmetry_space_group_name_H-M "C 2/C"
_symmetry_group_IT_number 15
_symmetry_cell_setting 'monoclinic'
loop_
_space_group_symop_operation_xyz
x,y,z
-x,y,1/2-z
-x,-y,-z
x,-y,1/2+z
1/2+x,1/2+y,z
1/2-x,1/2+y,1/2-z
1/2-x,1/2-y,-z
1/2+x,1/2-y,1/2+z
loop_
_atom_site_type_symbol
_atom_site_label
_atom_site_fract_x
_atom_site_fract_y
_atom_site_fract_z
Si Si1 0.500000 0.896650 0.750000
Si Si2 0.682008 0.889640 0.036265
Si Si3 0.057134 0.762903 0.147114
Si Si4 0.639502 0.930737 0.580513
Si Si5 0.195301 0.525519 0.778129
Si Si6 0.195531 0.601554 0.891189
Si Si7 0.000000 0.185863 0.250000
Si Si8 0.328230 0.654300 0.833634
O O1 0.622812 0.853685 0.919429
O O2 0.608807 0.975310 0.824089
O O3 0.586854 0.791465 0.973798
O O4 0.855466 0.860353 0.224781
O O5 0.654995 0.035668 0.036017
O O6 0.161121 0.630654 0.247831
O O7 0.047213 0.819086 0.080240
O O8 0.461827 0.920634 0.406976
O O9 0.708018 0.797713 0.676987
O O10 0.711286 0.061664 0.681201
O O11 0.205642 0.593893 0.842409
O O12 0.340686 0.561038 0.895619
O O13 0.091399 0.722073 0.804451
O O14 0.364638 0.606195 0.085611
#
# Coordination Sequence:
#
# PCOD9284079 Si02
#       8
#     4   8   8   8   8   8   4   8
#     4  11  20  42  69  96 130 188 223 289 354 408
#     4  10  23  42  67  93 134 177 236 280 349 409
#     4  10  22  43  62  94 132 176 224 286 327 425
#     4  10  22  40  63  94 132 180 230 278 340 419
#     4  11  22  41  65  92 135 186 221 279 352 417
#     4  10  21  40  66  94 135 178 229 282 350 405
#     4   9  22  40  63  96 136 174 231 289 334 416
#     4  11  22  37  68  93 131 182 227 279 347 399
#
# _framework density 23.692917000000001
#
# number of rings (size 3 to 8) (size 9 to 14) (size 15 to 20)
#    0.000    1.714    4.286    0.429    6.000    1.714 
#    2.571    4.286    0.000    0.000    0.000    0.000 
#    0.000    0.000    0.000    0.000    0.000    0.000 
#
# Total GULP energy -155923.443630 kJ/mol
# GULP energy per Si atom -5568.694415 kJ/mol
# Density = 2.363899 g / cm^3
# Si number density = 23.692917 Si / 1000 Ang^3
#
#
#
# Elastic Constant Matrix: (Units=GPa)
#
#
# Indices 1 2 3 4 5 6 
#
# 1 72.4803 6.5340 -7.3030 0.0006 -70.5997 0.0004
# 2 6.5340 48.0617 41.6831 -0.0003 8.3311 0.0002
# 3 -7.3030 41.6831 54.9395 0.0021 -43.1106 0.0028
# 4 0.0006 -0.0003 0.0021 24.9137 0.0003 3.2732
# 5 -70.5997 8.3311 -43.1106 0.0003 -27.9723 0.0002
# 6 0.0004 0.0002 0.0028 3.2732 0.0002 7.4253
#
#
#
# Elastic Compliance Matrix: (Units=1/GPa)
#
#
# Indices 1 2 3 4 5 6 
#
# 1 0.007595 0.006713 -0.007947 0.000000 -0.004923 0.000002
# 2 0.006713 0.028822 -0.012463 0.000001 0.010848 0.000003
# 3 -0.007947 -0.012463 0.017845 -0.000001 -0.011158 -0.000005
# 4 0.000000 0.000001 -0.000001 0.042606 0.000001 -0.018782
# 5 -0.004923 0.010848 -0.011158 0.000001 -0.002896 0.000004
# 6 0.000002 0.000003 -0.000005 -0.018782 0.000004 0.142954
#
#
# Mechanical properties :
#
#
# Convention : Reuss Voigt Hill
#
# Bulk Modulus (GPa) = 37.21617 28.59000 32.90308
# Shear Modulus (GPa) = 18.29649 9.84449 14.07049
#
# Velocity S-wave (km/s) = 2.78193 2.04060 2.43959
# Velocity P-wave (km/s) = 5.10496 4.20061 4.67471
#
# Compressibility (1/GPa) = 0.02687004
#
# Stress axis : x y z
#
# Youngs Moduli (GPa) = 131.65838 34.69570 56.03672
#
# Poissons Ratio (x) = -0.23291 0.44531
# Poissons Ratio (y) = -0.88381 0.69836
# Poissons Ratio (z) = 1.04626 0.43240
#
# Static dielectric constant tensor:
#      x y z
#    x 1.894920 0.000000 -0.040950 
#    y 0.000000 1.956320 0.000000 
#    z -0.040950 0.000000 2.146940 
# 
# From -- ./inp_files/304306.got.cif
#   From: 2010.05.17/outbox.cif.g08.bks.cpg/sg15_153_cif.got.tgz:304306.got - 2010.06.03 18:47:42.
