data_PCOD9284639
_publ_section_title
;
Structure prediction by ZEFSAII (Michael W. Deem and Ramdas Pophale) SiO2 
 PCOD9284639
Probable space group: C 2/C
;
_chemical_formula_sum "Si O2"
_cell_formula_units_Z 40
_cell_length_a 22.791606
_cell_length_b 9.467676
_cell_length_c 9.047421
_cell_angle_alpha 90.000000
_cell_angle_beta 104.104645
_cell_angle_gamma 90.000000
_cell_volume 1893.427579
_symmetry_space_group_name_H-M "C 2/C"
_symmetry_group_IT_number 15
_symmetry_cell_setting 'monoclinic'
loop_
_space_group_symop_operation_xyz
x,y,z
-x,y,1/2-z
-x,-y,-z
x,-y,1/2+z
1/2+x,1/2+y,z
1/2-x,1/2+y,1/2-z
1/2-x,1/2-y,-z
1/2+x,1/2-y,1/2+z
loop_
_atom_site_type_symbol
_atom_site_label
_atom_site_fract_x
_atom_site_fract_y
_atom_site_fract_z
Si Si1 0.056758 0.405410 0.486990
Si Si2 0.369162 0.062961 0.741154
Si Si3 0.778718 0.666771 0.157157
Si Si4 0.371256 0.358732 0.402502
Si Si5 0.834971 0.880253 0.719241
O O1 0.112241 0.480136 0.603330
O O2 0.071919 0.421961 0.325217
O O3 0.069111 0.240790 0.538316
O O4 0.000000 0.500000 0.500000
O O5 0.349661 0.219232 0.766153
O O6 0.317800 0.968972 0.632657
O O7 0.823079 0.774364 0.271123
O O8 0.730341 0.604192 0.244582
O O9 0.750000 0.750000 0.000000
O O10 0.342138 0.387892 0.546393
O O11 0.379141 0.506923 0.323752
#
# Coordination Sequence:
#
# PCOD9284639 Si02
#       5
#     8   8   8   8   8
#     4  10  21  41  63  84 111 151 205 264 310 357
#     4  10  22  37  60  90 117 156 206 247 302 371
#     4  11  21  36  59  90 128 170 202 245 306 370
#     4  10  23  37  57  88 123 165 209 247 303 373
#     4  11  21  37  56  86 129 162 197 251 302 369
#
# _framework density 21.125709000000001
#
# number of rings (size 3 to 8) (size 9 to 14) (size 15 to 20)
#    0.000    1.600    0.000    4.800    0.000    8.000 
#    0.000    1.000    0.000    7.200    0.000    0.000 
#    0.000    0.000    0.000    0.000    0.000    0.000 
#
# Total GULP energy -111531.606282 kJ/mol
# GULP energy per Si atom -5576.580314 kJ/mol
# Density = 2.107763 g / cm^3
# Si number density = 21.125709 Si / 1000 Ang^3
#
#
#
# Elastic Constant Matrix: (Units=GPa)
#
#
# Indices 1 2 3 4 5 6 
#
# 1 89.5322 37.2482 14.9439 0.0000 -13.1936 0.0000
# 2 37.2482 157.5584 41.1026 0.0000 2.8716 0.0000
# 3 14.9439 41.1026 78.6379 0.0000 7.9559 0.0000
# 4 0.0000 0.0000 0.0000 27.9472 0.0000 -3.3892
# 5 -13.1936 2.8716 7.9559 0.0000 23.3092 0.0000
# 6 0.0000 0.0000 0.0000 -3.3892 0.0000 16.6652
#
#
#
# Elastic Compliance Matrix: (Units=1/GPa)
#
#
# Indices 1 2 3 4 5 6 
#
# 1 0.014071 -0.002959 -0.002041 0.000000 0.009025 0.000000
# 2 -0.002959 0.007975 -0.003457 0.000000 -0.001477 0.000000
# 3 -0.002041 -0.003457 0.015521 0.000000 -0.006027 0.000000
# 4 0.000000 0.000000 0.000000 0.036687 0.000000 0.007461
# 5 0.009025 -0.001477 -0.006027 0.000000 0.050249 0.000000
# 6 0.000000 0.000000 0.000000 0.007461 0.000000 0.061523
#
#
# Mechanical properties :
#
#
# Convention : Reuss Voigt Hill
#
# Bulk Modulus (GPa) = 48.41530 56.92420 52.66975
# Shear Modulus (GPa) = 23.82982 29.07991 26.45486
#
# Velocity S-wave (km/s) = 3.36222 3.71417 3.54257
# Velocity P-wave (km/s) = 6.16767 6.73776 6.45901
#
# Compressibility (1/GPa) = 0.02065463
#
# Stress axis : x y z
#
# Youngs Moduli (GPa) = 71.07010 125.39248 64.42981
#
# Poissons Ratio (x) = 0.37098 0.13148
# Poissons Ratio (y) = 0.21027 0.22271
# Poissons Ratio (z) = 0.14503 0.43344
#
# Static dielectric constant tensor:
#      x y z
#    x 1.785500 0.000000 0.033240 
#    y 0.000000 1.806060 0.000000 
#    z 0.033240 0.000000 1.616930 
# 
# From -- ./inp_files/59902.got.cif
#   From: 2010.05.17/outbox.cif.g08.bks.cpg/sg15_30_cif.got.tgz:59902.got - 2010.06.03 18:47:42.
