data_PCOD9284796
_publ_section_title
;
Structure prediction by ZEFSAII (Michael W. Deem and Ramdas Pophale) SiO2 
 PCOD9284796
Probable space group: C 2/C
;
_chemical_formula_sum "Si O2"
_cell_formula_units_Z 56
_cell_length_a 16.406943
_cell_length_b 22.101230
_cell_length_c 17.833749
_cell_angle_alpha 90.000000
_cell_angle_beta 155.174320
_cell_angle_gamma 90.000000
_cell_volume 2715.126908
_symmetry_space_group_name_H-M "C 2/C"
_symmetry_group_IT_number 15
_symmetry_cell_setting 'monoclinic'
loop_
_space_group_symop_operation_xyz
x,y,z
-x,y,1/2-z
-x,-y,-z
x,-y,1/2+z
1/2+x,1/2+y,z
1/2-x,1/2+y,1/2-z
1/2-x,1/2-y,-z
1/2+x,1/2-y,1/2+z
loop_
_atom_site_type_symbol
_atom_site_label
_atom_site_fract_x
_atom_site_fract_y
_atom_site_fract_z
Si Si1 0.927590 0.811781 0.576802
Si Si2 0.776954 0.320888 0.536819
Si Si3 0.283241 0.113392 0.715125
Si Si4 0.777872 0.482578 0.644479
Si Si5 0.182072 0.328017 0.515538
Si Si6 0.544117 0.596100 0.652917
Si Si7 0.300339 0.942309 0.487062
O O1 0.850448 0.835841 0.434540
O O2 0.905684 0.739544 0.562942
O O3 0.784517 0.838996 0.521090
O O4 0.145538 0.828802 0.780297
O O5 0.750000 0.250000 0.500000
O O6 0.595742 0.349351 0.433263
O O7 0.778563 0.368960 0.470637
O O8 0.000000 0.328442 0.750000
O O9 0.243836 0.050924 0.639051
O O10 0.507920 0.128028 0.888900
O O11 0.226144 0.113372 0.754195
O O12 0.602440 0.440397 0.523461
O O13 0.782352 0.468218 0.557553
O O14 0.982671 0.462025 0.851007
O O15 0.628881 0.547532 0.784769
#
# Coordination Sequence:
#
# PCOD9284796 Si02
#       7
#     8   8   8   8   8   8   8
#     4  10  21  41  66  88 135 175 224 272 323 390
#     4  11  20  42  68  95 124 173 225 267 322 406
#     4  12  25  39  67 102 134 175 225 274 345 399
#     4  10  22  42  67  91 131 178 219 281 322 398
#     4  10  21  41  64  93 128 181 222 274 321 394
#     4  11  24  44  63  99 139 170 213 287 345 384
#     4  10  21  42  68  93 127 173 224 275 322 400
#
# _framework density 20.625185999999999
#
# number of rings (size 3 to 8) (size 9 to 14) (size 15 to 20)
#    0.000    1.429    4.286    3.429    4.000    2.857 
#    7.714    0.000    0.000    0.000    0.000    0.000 
#    0.000    0.000    0.000    0.000    0.000    0.000 
#
# Total GULP energy -155981.298475 kJ/mol
# GULP energy per Si atom -5570.760660 kJ/mol
# Density = 2.057824 g / cm^3
# Si number density = 20.625186 Si / 1000 Ang^3
#
#
#
# Elastic Constant Matrix: (Units=GPa)
#
#
# Indices 1 2 3 4 5 6 
#
# 1 60.0230 18.3285 29.7252 0.0012 -0.6435 0.0013
# 2 18.3285 66.5297 7.6827 0.0051 10.8156 0.0015
# 3 29.7252 7.6827 117.9969 0.0143 5.4511 0.0091
# 4 0.0012 0.0051 0.0143 19.6772 0.0054 -1.6425
# 5 -0.6435 10.8156 5.4511 0.0054 20.4254 0.0015
# 6 0.0013 0.0015 0.0091 -1.6425 0.0015 7.1490
#
#
#
# Elastic Compliance Matrix: (Units=1/GPa)
#
#
# Indices 1 2 3 4 5 6 
#
# 1 0.021135 -0.006081 -0.005172 0.000003 0.005266 0.000004
# 2 -0.006081 0.018250 0.000809 -0.000002 -0.010071 -0.000002
# 3 -0.005172 0.000809 0.009874 -0.000007 -0.003226 -0.000013
# 4 0.000003 -0.000002 -0.000007 0.051814 -0.000011 0.011905
# 5 0.005266 -0.010071 -0.003226 -0.000011 0.055319 -0.000009
# 6 0.000004 -0.000002 -0.000013 0.011905 -0.000009 0.142615
#
#
# Mechanical properties :
#
#
# Convention : Reuss Voigt Hill
#
# Bulk Modulus (GPa) = 35.24719 39.55804 37.40262
# Shear Modulus (GPa) = 15.18137 22.03786 18.60961
#
# Velocity S-wave (km/s) = 2.71599 3.27233 3.00705
# Velocity P-wave (km/s) = 5.19249 5.78780 5.49821
#
# Compressibility (1/GPa) = 0.02837106
#
# Stress axis : x y z
#
# Youngs Moduli (GPa) = 47.31515 54.79410 101.27641
#
# Poissons Ratio (x) = 0.33323 0.52375
# Poissons Ratio (y) = 0.28775 -0.08194
# Poissons Ratio (z) = 0.24469 -0.04433
#
# Static dielectric constant tensor:
#      x y z
#    x 1.850420 0.000000 -0.045750 
#    y 0.000000 1.743700 0.000000 
#    z -0.045750 0.000000 1.845340 
# 
# From -- ./inp_files/250058.got.cif
#   From: 2010.05.17/outbox.cif.g08.bks.cpg/sg15_126_cif.got.tgz:250058.got - 2010.06.03 18:47:42.
