data_PCOD9284489
_publ_section_title
;
Structure prediction by ZEFSAII (Michael W. Deem and Ramdas Pophale) SiO2 
 PCOD9284489
Probable space group: C 2/C
;
_chemical_formula_sum "Si O2"
_cell_formula_units_Z 56
_cell_length_a 8.411436
_cell_length_b 28.278611
_cell_length_c 10.838837
_cell_angle_alpha 90.000000
_cell_angle_beta 119.268289
_cell_angle_gamma 90.000000
_cell_volume 2249.037451
_symmetry_space_group_name_H-M "C 2/C"
_symmetry_group_IT_number 15
_symmetry_cell_setting 'monoclinic'
loop_
_space_group_symop_operation_xyz
x,y,z
-x,y,1/2-z
-x,-y,-z
x,-y,1/2+z
1/2+x,1/2+y,z
1/2-x,1/2+y,1/2-z
1/2-x,1/2-y,-z
1/2+x,1/2-y,1/2+z
loop_
_atom_site_type_symbol
_atom_site_label
_atom_site_fract_x
_atom_site_fract_y
_atom_site_fract_z
Si Si1 0.623770 0.363843 0.674057
Si Si2 0.240452 0.895531 0.045999
Si Si3 0.782863 0.504791 0.433331
Si Si4 0.712795 0.959020 0.818638
Si Si5 0.415963 0.278407 0.000774
Si Si6 0.839067 0.144789 0.758650
Si Si7 0.514501 0.190181 0.904186
O O1 0.500000 0.361353 0.750000
O O2 0.473344 0.385684 0.525157
O O3 0.772511 0.404854 0.723971
O O4 0.669017 0.313061 0.636203
O O5 0.285839 0.890480 0.206806
O O6 0.336207 0.850430 0.019081
O O7 0.263627 0.943945 0.988463
O O8 0.714771 0.469396 0.515357
O O9 0.705818 0.509680 0.263986
O O10 0.000000 0.500000 0.500000
O O11 0.500000 0.970859 0.750000
O O12 0.542516 0.239275 0.982818
O O13 0.250000 0.250000 0.000000
O O14 0.551603 0.310902 0.135215
O O15 0.678487 0.169493 0.621106
O O16 0.000000 0.118820 0.750000
O O17 0.500000 0.197856 0.750000
#
# Coordination Sequence:
#
# PCOD9284489 Si02
#       7
#     8   8   8   8   8   8   8
#     4  11  23  44  66  95 139 175 228 291 350 417
#     4  10  23  42  66  94 129 177 225 281 344 413
#     4  10  22  44  70 102 137 181 236 290 354 431
#     4  10  23  45  70 102 141 183 236 293 357 435
#     4  11  23  39  63  97 130 176 230 284 349 414
#     4  10  21  41  58  92 134 166 223 286 331 410
#     4  10  22  40  65  90 129 174 227 276 342 414
#
# _framework density 24.899539999999998
#
# number of rings (size 3 to 8) (size 9 to 14) (size 15 to 20)
#    0.000    1.714    2.857    0.429    0.000   14.286 
#    7.714    0.000    0.000    0.000    0.000    0.000 
#    0.000    0.000    0.000    0.000    0.000    0.000 
#
# Total GULP energy -156101.551321 kJ/mol
# GULP energy per Si atom -5575.055404 kJ/mol
# Density = 2.484287 g / cm^3
# Si number density = 24.899540 Si / 1000 Ang^3
#
#
#
# Elastic Constant Matrix: (Units=GPa)
#
#
# Indices 1 2 3 4 5 6 
#
# 1 110.7511 44.8151 24.8662 0.0000 -28.9305 0.0000
# 2 44.8151 101.2122 18.8188 0.0000 -34.5440 0.0000
# 3 24.8662 18.8188 56.7091 0.0000 -26.8747 0.0000
# 4 0.0000 0.0000 0.0000 18.6028 0.0000 -18.6544
# 5 -28.9305 -34.5440 -26.8747 0.0000 43.5427 0.0000
# 6 0.0000 0.0000 0.0000 -18.6544 0.0000 48.1227
#
#
#
# Elastic Compliance Matrix: (Units=1/GPa)
#
#
# Indices 1 2 3 4 5 6 
#
# 1 0.011969 -0.003624 -0.002317 0.000000 0.003647 0.000000
# 2 -0.003624 0.014675 0.001548 0.000000 0.010190 0.000000
# 3 -0.002317 0.001548 0.025425 0.000000 0.015381 0.000000
# 4 0.000000 0.000000 0.000000 0.087939 0.000000 0.034089
# 5 0.003647 0.010190 0.015381 0.000000 0.042966 0.000000
# 6 0.000000 0.000000 0.000000 0.034089 0.000000 0.033995
#
#
# Mechanical properties :
#
#
# Convention : Reuss Voigt Hill
#
# Bulk Modulus (GPa) = 23.10370 49.51918 36.31144
# Shear Modulus (GPa) = 20.81755 34.06512 27.44133
#
# Velocity S-wave (km/s) = 2.89461 3.70280 3.32336
# Velocity P-wave (km/s) = 4.52444 6.18156 5.41675
#
# Compressibility (1/GPa) = 0.04328312
#
# Stress axis : x y z
#
# Youngs Moduli (GPa) = 83.55199 68.14404 39.33072
#
# Poissons Ratio (x) = 0.24695 0.09114
# Poissons Ratio (y) = 0.30279 -0.06089
# Poissons Ratio (z) = 0.19360 -0.10550
#
# Static dielectric constant tensor:
#      x y z
#    x 1.977710 0.000000 0.084060 
#    y 0.000000 2.265850 0.000000 
#    z 0.084060 0.000000 2.011950 
# 
# From -- ./inp_files/82262.got.cif
#   From: 2010.05.17/outbox.cif.g08.bks.cpg/sg15_42_cif.got.tgz:82262.got - 2010.06.03 18:47:42.
