data_PCOD9284667
_publ_section_title
;
Structure prediction by ZEFSAII (Michael W. Deem and Ramdas Pophale) SiO2 
 PCOD9284667
Probable space group: C 2/C
;
_chemical_formula_sum "Si O2"
_cell_formula_units_Z 52
_cell_length_a 10.332162
_cell_length_b 13.878418
_cell_length_c 18.299165
_cell_angle_alpha 90.000000
_cell_angle_beta 53.575874
_cell_angle_gamma 90.000000
_cell_volume 2111.378720
_symmetry_space_group_name_H-M "C 2/C"
_symmetry_group_IT_number 15
_symmetry_cell_setting 'monoclinic'
loop_
_space_group_symop_operation_xyz
x,y,z
-x,y,1/2-z
-x,-y,-z
x,-y,1/2+z
1/2+x,1/2+y,z
1/2-x,1/2+y,1/2-z
1/2-x,1/2-y,-z
1/2+x,1/2-y,1/2+z
loop_
_atom_site_type_symbol
_atom_site_label
_atom_site_fract_x
_atom_site_fract_y
_atom_site_fract_z
Si Si1 0.731369 0.518965 0.883230
Si Si2 0.022012 0.268750 0.440969
Si Si3 0.910946 0.058976 0.429282
Si Si4 0.136022 0.685138 0.146712
Si Si5 0.041340 0.414493 0.926205
Si Si6 0.680093 0.084196 0.788003
Si Si7 0.500000 0.470802 0.250000
O O1 0.548564 0.512735 0.915334
O O2 0.801271 0.415398 0.841481
O O3 0.815517 0.591324 0.800457
O O4 0.737642 0.534691 0.967627
O O5 0.202523 0.249179 0.413071
O O6 0.908516 0.327757 0.534980
O O7 0.062435 0.338097 0.360549
O O8 0.954358 0.167637 0.436154
O O9 0.915430 0.034749 0.342347
O O10 0.070502 0.651145 0.090019
O O11 0.000000 0.718337 0.250000
O O12 0.133294 0.478280 0.834701
O O13 0.000000 0.500000 0.000000
O O14 0.860599 0.091533 0.759335
#
# Coordination Sequence:
#
# PCOD9284667 Si02
#       7
#     8   8   8   8   8   8   4
#     4   9  19  38  62  87 124 166 201 247 318 378
#     4  10  23  39  62  96 125 157 213 265 308 360
#     4   9  20  40  61  88 123 161 207 258 304 366
#     4  11  21  37  64  97 122 158 209 263 310 365
#     4  10  22  40  60  87 130 165 201 257 321 372
#     4  10  21  41  63  89 126 165 204 256 318 376
#     4  10  22  40  66  88 122 172 210 248 316 382
#
# _framework density 24.628457999999998
#
# number of rings (size 3 to 8) (size 9 to 14) (size 15 to 20)
#    0.000    2.154    1.538    0.462    5.385    1.231 
#    2.769    3.846    0.000    0.000    0.000    0.000 
#    0.000    0.000    0.000    0.000    0.000    0.000 
#
# Total GULP energy -144873.181098 kJ/mol
# GULP energy per Si atom -5572.045427 kJ/mol
# Density = 2.457240 g / cm^3
# Si number density = 24.628458 Si / 1000 Ang^3
#
#
#
# Elastic Constant Matrix: (Units=GPa)
#
#
# Indices 1 2 3 4 5 6 
#
# 1 53.5236 4.8997 29.1023 0.0000 4.5362 0.0000
# 2 4.8997 86.0497 60.4633 0.0000 -1.5787 0.0000
# 3 29.1023 60.4633 177.7707 0.0000 29.6908 0.0000
# 4 0.0000 0.0000 0.0000 26.8280 0.0000 -1.7072
# 5 4.5362 -1.5787 29.6908 0.0000 38.4744 0.0000
# 6 0.0000 0.0000 0.0000 -1.7072 0.0000 12.2666
#
#
#
# Elastic Compliance Matrix: (Units=1/GPa)
#
#
# Indices 1 2 3 4 5 6 
#
# 1 0.020691 0.001722 -0.004107 0.000000 0.000800 0.000000
# 2 0.001722 0.016426 -0.006827 0.000000 0.005739 0.000000
# 3 -0.004107 -0.006827 0.009856 0.000000 -0.007402 0.000000
# 4 0.000000 0.000000 0.000000 0.037607 0.000000 0.005234
# 5 0.000800 0.005739 -0.007402 0.000000 0.031844 0.000000
# 6 0.000000 0.000000 0.000000 0.005234 0.000000 0.082250
#
#
# Mechanical properties :
#
#
# Convention : Reuss Voigt Hill
#
# Bulk Modulus (GPa) = 35.02788 56.25275 45.64032
# Shear Modulus (GPa) = 22.06396 30.37239 26.21818
#
# Velocity S-wave (km/s) = 2.99636 3.51554 3.26628
# Velocity P-wave (km/s) = 5.12097 6.27446 5.72683
#
# Compressibility (1/GPa) = 0.02854869
#
# Stress axis : x y z
#
# Youngs Moduli (GPa) = 48.33080 60.88064 101.46344
#
# Poissons Ratio (x) = -0.10484 0.41667
# Poissons Ratio (y) = -0.08323 0.69271
# Poissons Ratio (z) = 0.19847 0.41564
#
# Static dielectric constant tensor:
#      x y z
#    x 2.098850 0.000000 -0.054230 
#    y 0.000000 1.901600 0.000000 
#    z -0.054230 0.000000 1.989790 
# 
# From -- ./inp_files/197697.got.cif
#   From: 2010.05.17/outbox.cif.g08.bks.cpg/sg15_99_cif.got.tgz:197697.got - 2010.06.03 18:47:42.
