data_PCOD9284466
_publ_section_title
;
Structure prediction by ZEFSAII (Michael W. Deem and Ramdas Pophale) SiO2 
 PCOD9284466
Probable space group: C 2/C
;
_chemical_formula_sum "Si O2"
_cell_formula_units_Z 32
_cell_length_a 10.952707
_cell_length_b 16.357649
_cell_length_c 11.796306
_cell_angle_alpha 90.000000
_cell_angle_beta 144.117763
_cell_angle_gamma 90.000000
_cell_volume 1238.727595
_symmetry_space_group_name_H-M "C 2/C"
_symmetry_group_IT_number 15
_symmetry_cell_setting 'monoclinic'
loop_
_space_group_symop_operation_xyz
x,y,z
-x,y,1/2-z
-x,-y,-z
x,-y,1/2+z
1/2+x,1/2+y,z
1/2-x,1/2+y,1/2-z
1/2-x,1/2-y,-z
1/2+x,1/2-y,1/2+z
loop_
_atom_site_type_symbol
_atom_site_label
_atom_site_fract_x
_atom_site_fract_y
_atom_site_fract_z
Si Si1 0.500000 0.779248 0.750000
Si Si2 0.303588 0.306473 0.322729
Si Si3 0.640606 0.871775 0.567549
Si Si4 0.179001 0.098757 0.070562
Si Si5 0.000000 0.979394 0.750000
O O1 0.595671 0.727816 0.719133
O O2 0.305162 0.840276 0.581465
O O3 0.277885 0.222475 0.370693
O O4 0.495014 0.360603 0.507300
O O5 0.097004 0.358577 0.150060
O O6 0.792868 0.926010 0.608810
O O7 0.652455 0.913779 0.702149
O O8 0.058539 0.034583 0.903001
#
# Coordination Sequence:
#
# PCOD9284466 Si02
#       5
#     4   8   8   8   4
#     4  10  21  40  74 105 134 174 242 300 341 396
#     4  11  22  44  75 106 135 187 242 297 340 419
#     4  11  25  48  73 104 145 184 245 291 346 425
#     4  11  25  44  69 109 142 184 238 292 356 421
#     4  12  29  48  68 107 152 194 220 292 375 418
#
# _framework density 25.83296
#
# number of rings (size 3 to 8) (size 9 to 14) (size 15 to 20)
#    0.000    1.000    5.000    2.250   10.500    2.000 
#    4.500    0.000    0.000    0.000    0.000    0.000 
#    0.000    0.000    0.000    0.000    0.000    0.000 
#
# Total GULP energy -89402.801347 kJ/mol
# GULP energy per Si atom -5587.675084 kJ/mol
# Density = 2.577416 g / cm^3
# Si number density = 25.832960 Si / 1000 Ang^3
#
#
#
# Elastic Constant Matrix: (Units=GPa)
#
#
# Indices 1 2 3 4 5 6 
#
# 1 47.1074 19.6168 8.3883 0.0000 22.2414 0.0000
# 2 19.6168 69.7225 25.5053 0.0000 20.6168 0.0000
# 3 8.3883 25.5053 152.3963 0.0000 48.2621 0.0000
# 4 0.0000 0.0000 0.0000 -69.1195 0.0000 16.8988
# 5 22.2414 20.6168 48.2621 0.0000 41.4989 0.0000
# 6 0.0000 0.0000 0.0000 16.8988 0.0000 38.3433
#
#
#
# Elastic Compliance Matrix: (Units=1/GPa)
#
#
# Indices 1 2 3 4 5 6 
#
# 1 0.032575 -0.004846 0.005991 0.000000 -0.022019 0.000000
# 2 -0.004846 0.017540 -0.001158 0.000000 -0.004770 0.000000
# 3 0.005991 -0.001158 0.011494 0.000000 -0.016002 0.000000
# 4 0.000000 0.000000 0.000000 -0.013060 0.000000 0.005756
# 5 -0.022019 -0.004770 -0.016002 0.000000 0.056878 0.000000
# 6 0.000000 0.000000 0.000000 0.005756 0.000000 0.023543
#
#
# Mechanical properties :
#
#
# Convention : Reuss Voigt Hill
#
# Bulk Modulus (GPa) = 16.23834 41.80521 29.02177
# Shear Modulus (GPa) = 33.43953 16.52559 24.98256
#
# Velocity S-wave (km/s) = 3.60175 2.53199 3.11317
# Velocity P-wave (km/s) = 4.85761 4.97655 4.91744
#
# Compressibility (1/GPa) = 0.06158267
#
# Stress axis : x y z
#
# Youngs Moduli (GPa) = 30.69827 57.01215 87.00434
#
# Poissons Ratio (x) = 0.27628 -0.52125
# Poissons Ratio (y) = 0.14876 0.10077
# Poissons Ratio (z) = -0.18391 0.06604
#
# Static dielectric constant tensor:
#      x y z
#    x 2.025080 0.000000 -0.058220 
#    y 0.000000 2.172190 0.000000 
#    z -0.058220 0.000000 2.039280 
# 
# From -- ./inp_files/145918.got.cif
#   From: 2010.05.17/outbox.cif.g08.bks.cpg/sg15_73_cif.got.tgz:145918.got - 2010.06.03 18:47:42.
