data_PCOD9284899
_publ_section_title
;
Structure prediction by ZEFSAII (Michael W. Deem and Ramdas Pophale) SiO2 
 PCOD9284899
Probable space group: C 2/C
;
_chemical_formula_sum "Si O2"
_cell_formula_units_Z 36
_cell_length_a 7.680895
_cell_length_b 16.108320
_cell_length_c 19.566903
_cell_angle_alpha 90.000000
_cell_angle_beta 139.149781
_cell_angle_gamma 90.000000
_cell_volume 1583.498274
_symmetry_space_group_name_H-M "C 2/C"
_symmetry_group_IT_number 15
_symmetry_cell_setting 'monoclinic'
loop_
_space_group_symop_operation_xyz
x,y,z
-x,y,1/2-z
-x,-y,-z
x,-y,1/2+z
1/2+x,1/2+y,z
1/2-x,1/2+y,1/2-z
1/2-x,1/2-y,-z
1/2+x,1/2-y,1/2+z
loop_
_atom_site_type_symbol
_atom_site_label
_atom_site_fract_x
_atom_site_fract_y
_atom_site_fract_z
Si Si1 0.117116 0.252602 0.034364
Si Si2 0.248514 0.898144 0.918554
Si Si3 0.237257 0.090571 0.140466
Si Si4 0.000000 0.143761 0.750000
Si Si5 0.561615 0.983237 0.136730
O O1 0.089305 0.158363 0.050816
O O2 0.319824 0.302149 0.144894
O O3 0.250000 0.250000 0.000000
O O4 0.838806 0.302363 0.947607
O O5 0.324514 0.935325 0.867924
O O6 0.953155 0.923499 0.852153
O O7 0.414331 0.939477 0.029420
O O8 0.500000 0.131114 0.250000
O O9 0.350715 0.013204 0.131025
O O10 0.791554 0.081546 0.726085
#
# Coordination Sequence:
#
# PCOD9284899 Si02
#       5
#     8   8   8   4   8
#     4  11  22  43  67  93 135 176 217 268 336 391
#     4  10  22  40  68  91 128 174 214 273 331 385
#     4  12  23  39  65  96 128 168 223 267 324 396
#     4  10  22  42  68  96 134 176 216 280 328 388
#     4  10  21  41  65  93 129 168 220 268 330 391
#
# _framework density 22.734473999999999
#
# number of rings (size 3 to 8) (size 9 to 14) (size 15 to 20)
#    0.000    1.333    3.333    2.667    0.000    0.000 
#    4.000    0.000    4.889    0.000    0.000    0.000 
#    0.000    0.000    0.000    0.000    0.000    0.000 
#
# Total GULP energy -100523.912661 kJ/mol
# GULP energy per Si atom -5584.661815 kJ/mol
# Density = 2.268273 g / cm^3
# Si number density = 22.734474 Si / 1000 Ang^3
#
#
#
# Elastic Constant Matrix: (Units=GPa)
#
#
# Indices 1 2 3 4 5 6 
#
# 1 104.6130 6.9377 12.8615 0.0004 -2.8807 0.0001
# 2 6.9377 68.4919 8.0880 0.0003 -9.6233 -0.0006
# 3 12.8615 8.0880 48.0249 0.0008 -6.2187 -0.0025
# 4 0.0004 0.0003 0.0008 22.6223 0.0005 5.6457
# 5 -2.8807 -9.6233 -6.2187 0.0005 37.5965 -0.0005
# 6 0.0001 -0.0006 -0.0025 5.6457 -0.0005 0.0221
#
#
#
# Elastic Compliance Matrix: (Units=1/GPa)
#
#
# Indices 1 2 3 4 5 6 
#
# 1 0.009919 -0.000684 -0.002519 -0.000001 0.000168 0.000005
# 2 -0.000684 0.015401 -0.001949 0.000001 0.003567 -0.000005
# 3 -0.002519 -0.001949 0.022212 0.000010 0.002982 -0.000043
# 4 -0.000001 0.000001 0.000010 -0.000706 0.000004 0.179953
# 5 0.000168 0.003567 0.002982 0.000004 0.028017 -0.000019
# 6 0.000005 -0.000005 -0.000043 0.179953 -0.000019 -0.721067
#
#
# Mechanical properties :
#
#
# Convention : Reuss Voigt Hill
#
# Bulk Modulus (GPa) = 26.86163 30.76715 28.81439
# Shear Modulus (GPa) = -8.01909 24.93104 8.45597
#
# Velocity S-wave (km/s) = -1.88014 3.31512 1.93068
# Velocity P-wave (km/s) = 2.66979 5.31187 4.20379
#
# Compressibility (1/GPa) = 0.03722782
#
# Stress axis : x y z
#
# Youngs Moduli (GPa) = 100.81910 64.93158 45.02151
#
# Poissons Ratio (x) = 0.04438 0.11343
# Poissons Ratio (y) = 0.06891 0.08773
# Poissons Ratio (z) = 0.25401 0.12653
#
# Static dielectric constant tensor:
#      x y z
#    x 1.867360 0.000000 0.025740 
#    y 0.000000 1.864670 0.000000 
#    z 0.025740 0.000000 1.851310 
# 
# From -- ./inp_files/184186.got.cif
#   From: 2010.05.17/outbox.cif.g08.bks.cpg/sg15_93_cif.got.tgz:184186.got - 2010.06.03 18:47:42.
