data_PCOD9284918
_publ_section_title
;
Structure prediction by ZEFSAII (Michael W. Deem and Ramdas Pophale) SiO2 
 PCOD9284918
Probable space group: C 2/C
;
_chemical_formula_sum "Si O2"
_cell_formula_units_Z 48
_cell_length_a 15.376041
_cell_length_b 11.107514
_cell_length_c 22.284566
_cell_angle_alpha 90.000000
_cell_angle_beta 39.504604
_cell_angle_gamma 90.000000
_cell_volume 2421.131813
_symmetry_space_group_name_H-M "C 2/C"
_symmetry_group_IT_number 15
_symmetry_cell_setting 'monoclinic'
loop_
_space_group_symop_operation_xyz
x,y,z
-x,y,1/2-z
-x,-y,-z
x,-y,1/2+z
1/2+x,1/2+y,z
1/2-x,1/2+y,1/2-z
1/2-x,1/2-y,-z
1/2+x,1/2-y,1/2+z
loop_
_atom_site_type_symbol
_atom_site_label
_atom_site_fract_x
_atom_site_fract_y
_atom_site_fract_z
Si Si1 0.339284 0.995299 0.582209
Si Si2 0.125552 0.986222 0.104229
Si Si3 0.000000 0.799287 0.750000
Si Si4 0.725815 0.746396 0.344390
Si Si5 0.500000 0.725529 0.750000
Si Si6 0.519808 0.604838 0.536502
Si Si7 0.257399 0.746399 0.301864
O O1 0.292049 0.875429 0.640059
O O2 0.500000 0.000000 0.500000
O O3 0.280192 0.001511 0.546087
O O4 0.274670 0.108911 0.650626
O O5 0.065514 0.865893 0.167165
O O6 0.096231 0.958460 0.051325
O O7 0.055109 0.106007 0.169782
O O8 0.884844 0.720637 0.777405
O O9 0.615266 0.701232 0.451370
O O10 0.697513 0.717617 0.290241
O O11 0.876234 0.703498 0.284970
O O12 0.500000 0.500000 0.500000
O O13 0.372792 0.663824 0.631051
#
# Coordination Sequence:
#
# PCOD9284918 Si02
#       7
#     8   8   4   8   4   8   8
#     4  10  21  41  65  95 119 170 211 251 319 377
#     4   9  19  38  63  88 128 159 209 255 310 384
#     4   9  20  42  67  84 120 188 205 243 322 384
#     4  11  23  38  66  93 126 163 207 261 316 370
#     4   9  18  36  63  90 116 164 201 249 326 360
#     4  12  25  40  61  95 125 164 209 269 318 361
#     4  11  23  42  64  89 130 163 214 262 307 390
#
# _framework density 19.825437999999998
#
# number of rings (size 3 to 8) (size 9 to 14) (size 15 to 20)
#    0.000    1.667    3.333    2.000    2.333    4.000 
#    3.000    3.333    0.000    0.000    0.000    0.000 
#    0.000    0.000    0.000    0.000    0.000    0.000 
#
# Total GULP energy -133820.915567 kJ/mol
# GULP energy per Si atom -5575.871482 kJ/mol
# Density = 1.978031 g / cm^3
# Si number density = 19.825438 Si / 1000 Ang^3
#
#
#
# Elastic Constant Matrix: (Units=GPa)
#
#
# Indices 1 2 3 4 5 6 
#
# 1 204.2430 23.7201 67.0939 0.0000 5.7919 0.0000
# 2 23.7201 32.6969 -5.3528 0.0000 4.1712 0.0000
# 3 67.0939 -5.3528 65.9558 0.0000 0.0281 0.0000
# 4 0.0000 0.0000 0.0000 6.8192 0.0000 4.2717
# 5 5.7919 4.1712 0.0281 0.0000 45.5073 0.0000
# 6 0.0000 0.0000 0.0000 4.2717 0.0000 27.0111
#
#
#
# Elastic Compliance Matrix: (Units=1/GPa)
#
#
# Indices 1 2 3 4 5 6 
#
# 1 0.009129 -0.008201 -0.009952 0.000000 -0.000404 0.000000
# 2 -0.008201 0.038734 0.011487 0.000000 -0.002514 0.000000
# 3 -0.009952 0.011487 0.026218 0.000000 0.000198 0.000000
# 4 0.000000 0.000000 0.000000 0.162771 0.000000 -0.025742
# 5 -0.000404 -0.002514 0.000198 0.000000 0.022256 0.000000
# 6 0.000000 0.000000 0.000000 -0.025742 0.000000 0.041093
#
#
# Mechanical properties :
#
#
# Convention : Reuss Voigt Hill
#
# Bulk Modulus (GPa) = 16.46109 52.64645 34.55377
# Shear Modulus (GPa) = 14.97981 30.36316 22.67149
#
# Velocity S-wave (km/s) = 2.75177 3.91772 3.38532
# Velocity P-wave (km/s) = 4.29155 6.86129 5.72253
#
# Compressibility (1/GPa) = 0.06074932
#
# Stress axis : x y z
#
# Youngs Moduli (GPa) = 109.53778 25.81691 38.14212
#
# Poissons Ratio (x) = 0.21171 0.37960
# Poissons Ratio (y) = 0.89828 -0.43813
# Poissons Ratio (z) = 1.09014 -0.29655
#
# Static dielectric constant tensor:
#      x y z
#    x 2.032020 0.000000 0.265800 
#    y 0.000000 1.718290 0.000000 
#    z 0.265800 0.000000 2.155160 
# 
# From -- ./inp_files/151993.got.cif
#   From: 2010.05.17/outbox.cif.g08.bks.cpg/sg15_76_cif.got.tgz:151993.got - 2010.06.03 18:47:42.
