data_PCOD9284193
_publ_section_title
;
Structure prediction by ZEFSAII (Michael W. Deem and Ramdas Pophale) SiO2 
 PCOD9284193
Probable space group: C 2/C
;
_chemical_formula_sum "Si O2"
_cell_formula_units_Z 60
_cell_length_a 8.552976
_cell_length_b 12.031562
_cell_length_c 22.334222
_cell_angle_alpha 90.000000
_cell_angle_beta 90.998961
_cell_angle_gamma 90.000000
_cell_volume 2297.968561
_symmetry_space_group_name_H-M "C 2/C"
_symmetry_group_IT_number 15
_symmetry_cell_setting 'monoclinic'
loop_
_space_group_symop_operation_xyz
x,y,z
-x,y,1/2-z
-x,-y,-z
x,-y,1/2+z
1/2+x,1/2+y,z
1/2-x,1/2+y,1/2-z
1/2-x,1/2-y,-z
1/2+x,1/2-y,1/2+z
loop_
_atom_site_type_symbol
_atom_site_label
_atom_site_fract_x
_atom_site_fract_y
_atom_site_fract_z
Si Si1 0.500000 0.743081 0.250000
Si Si2 0.958354 0.333641 0.492204
Si Si3 0.455899 0.264806 0.116544
Si Si4 0.766572 0.625906 0.201705
Si Si5 0.741380 0.609351 0.566566
Si Si6 0.020893 0.449663 0.327946
Si Si7 0.251681 0.016820 0.906891
Si Si8 0.441276 0.604914 0.420574
O O1 0.657144 0.671513 0.253097
O O2 0.478853 0.827997 0.304549
O O3 0.918906 0.318754 0.561395
O O4 0.861391 0.432388 0.460473
O O5 0.920818 0.217044 0.458458
O O6 0.144367 0.347716 0.484323
O O7 0.401816 0.207037 0.177253
O O8 0.629769 0.305194 0.101291
O O9 0.351912 0.375558 0.111238
O O10 0.861516 0.513846 0.215774
O O11 0.644044 0.612282 0.144897
O O12 0.866939 0.568050 0.615058
O O13 0.632611 0.504809 0.549229
O O14 0.870439 0.510110 0.353815
O O15 0.125162 0.920853 0.915366
#
# Coordination Sequence:
#
# PCOD9284193 Si02
#       8
#     4   8   8   8   8   8   8   8
#     4  12  24  50  72  90 128 154 218 284 334 390
#     4  11  21  40  62  97 137 183 220 258 304 375
#     4  11  21  41  64  95 140 176 217 265 315 377
#     4  11  24  45  68  95 127 171 210 277 335 391
#     4   9  22  41  61  96 134 170 216 263 314 386
#     4  10  23  46  67  96 124 166 217 267 341 397
#     4  10  21  40  67  95 134 174 218 263 312 383
#     4  10  22  41  66  94 135 174 215 261 330 375
#
# _framework density 26.110016999999999
#
# number of rings (size 3 to 8) (size 9 to 14) (size 15 to 20)
#    0.000    1.600    2.667    1.600    1.867    3.200 
#    9.600    2.000    0.000    0.000    0.000    0.000 
#    0.000    0.000    0.000    0.000    0.000    0.000 
#
# Total GULP energy -168051.218518 kJ/mol
# GULP energy per Si atom -5601.707284 kJ/mol
# Density = 2.605059 g / cm^3
# Si number density = 26.110017 Si / 1000 Ang^3
#
#
#
# Elastic Constant Matrix: (Units=GPa)
#
#
# Indices 1 2 3 4 5 6 
#
# 1 169.9140 40.4254 29.4918 0.0000 -39.0177 0.0000
# 2 40.4254 78.6760 5.4199 0.0000 -16.7162 0.0000
# 3 29.4918 5.4199 51.3261 0.0000 -19.6858 0.0000
# 4 0.0000 0.0000 0.0000 24.3848 0.0000 -22.4842
# 5 -39.0177 -16.7162 -19.6858 0.0000 53.2865 0.0000
# 6 0.0000 0.0000 0.0000 -22.4842 0.0000 55.8531
#
#
#
# Elastic Compliance Matrix: (Units=1/GPa)
#
#
# Indices 1 2 3 4 5 6 
#
# 1 0.007990 -0.003095 -0.002787 0.000000 0.003849 0.000000
# 2 -0.003095 0.014820 0.001314 0.000000 0.002868 0.000000
# 3 -0.002787 0.001314 0.023676 0.000000 0.007118 0.000000
# 4 0.000000 0.000000 0.000000 0.065217 0.000000 0.026254
# 5 0.003849 0.002868 0.007118 0.000000 0.025114 0.000000
# 6 0.000000 0.000000 0.000000 0.026254 0.000000 0.028473
#
#
# Mechanical properties :
#
#
# Convention : Reuss Voigt Hill
#
# Bulk Modulus (GPa) = 26.77601 50.06558 38.42080
# Shear Modulus (GPa) = 26.75566 41.67682 34.21624
#
# Velocity S-wave (km/s) = 3.20461 3.99958 3.62396
# Velocity P-wave (km/s) = 4.89592 6.36752 5.67959
#
# Compressibility (1/GPa) = 0.03734686
#
# Stress axis : x y z
#
# Youngs Moduli (GPa) = 125.16421 67.47816 42.23647
#
# Poissons Ratio (x) = 0.20886 0.11773
# Poissons Ratio (y) = 0.38742 -0.05548
# Poissons Ratio (z) = 0.34890 -0.08864
#
# Static dielectric constant tensor:
#      x y z
#    x 2.051830 0.000000 -0.025390 
#    y 0.000000 2.034090 0.000000 
#    z -0.025390 0.000000 2.136690 
# 
# From -- ./inp_files/307113.got.cif
#   From: 2010.05.17/outbox.cif.g08.bks.cpg/sg15_154_cif.got.tgz:307113.got - 2010.06.03 18:47:42.
