data_PCOD9284603
_publ_section_title
;
Structure prediction by ZEFSAII (Michael W. Deem and Ramdas Pophale) SiO2 
 PCOD9284603
Probable space group: C 2/C
;
_chemical_formula_sum "Si O2"
_cell_formula_units_Z 52
_cell_length_a 13.883910
_cell_length_b 27.918372
_cell_length_c 5.522618
_cell_angle_alpha 90.000000
_cell_angle_beta 79.470275
_cell_angle_gamma 90.000000
_cell_volume 2104.607854
_symmetry_space_group_name_H-M "C 2/C"
_symmetry_group_IT_number 15
_symmetry_cell_setting 'monoclinic'
loop_
_space_group_symop_operation_xyz
x,y,z
-x,y,1/2-z
-x,-y,-z
x,-y,1/2+z
1/2+x,1/2+y,z
1/2-x,1/2+y,1/2-z
1/2-x,1/2-y,-z
1/2+x,1/2-y,1/2+z
loop_
_atom_site_type_symbol
_atom_site_label
_atom_site_fract_x
_atom_site_fract_y
_atom_site_fract_z
Si Si1 0.412624 0.829161 0.103437
Si Si2 0.779975 0.969972 0.873743
Si Si3 0.500000 0.529315 0.250000
Si Si4 0.106358 0.866710 0.221869
Si Si5 0.290814 0.115371 0.344223
Si Si6 0.642158 0.740771 0.656206
Si Si7 0.719867 0.686763 0.012496
O O1 0.500000 0.834655 0.250000
O O2 0.309558 0.822589 0.288980
O O3 0.389779 0.874601 0.944116
O O4 0.422628 0.781100 0.938691
O O5 0.891121 0.949151 0.809422
O O6 0.707305 0.925788 0.855849
O O7 0.767947 0.004731 0.641693
O O8 0.500000 0.500000 0.500000
O O9 0.102694 0.812446 0.107809
O O10 0.136823 0.852258 0.478727
O O11 0.000000 0.889566 0.250000
O O12 0.196853 0.894380 0.060766
O O13 0.265681 0.166903 0.235730
O O14 0.750000 0.750000 0.500000
O O15 0.664571 0.734924 0.937114
#
# Coordination Sequence:
#
# PCOD9284603 Si02
#       7
#     8   8   4   8   8   8   8
#     4  10  21  41  62  91 126 170 222 276 326 389
#     4  10  23  39  67  96 131 177 219 274 346 415
#     4   8  16  36  54  90 122 158 208 252 312 402
#     4   9  20  38  55  90 129 169 211 255 320 387
#     4  11  22  39  66  90 128 170 218 279 330 393
#     4   8  16  40  56  81 124 163 210 261 316 378
#     4   8  20  37  60  86 122 160 214 262 326 381
#
# _framework density 24.707691000000001
#
# number of rings (size 3 to 8) (size 9 to 14) (size 15 to 20)
#    0.923    1.846    1.538    0.000    4.308    3.077 
#   11.077    0.000    0.000    0.923    0.000    0.000 
#    0.000    0.000    0.000    0.000    0.000    0.000 
#
# Total GULP energy -144855.572585 kJ/mol
# GULP energy per Si atom -5571.368176 kJ/mol
# Density = 2.465146 g / cm^3
# Si number density = 24.707691 Si / 1000 Ang^3
#
#
#
# Elastic Constant Matrix: (Units=GPa)
#
#
# Indices 1 2 3 4 5 6 
#
# 1 113.2522 30.2183 38.3909 0.0000 40.9430 0.0000
# 2 30.2183 107.4356 45.0621 0.0000 21.0213 0.0000
# 3 38.3909 45.0621 97.8472 0.0000 30.4099 0.0000
# 4 0.0000 0.0000 0.0000 43.0552 0.0000 14.1691
# 5 40.9430 21.0213 30.4099 0.0000 56.9410 0.0000
# 6 0.0000 0.0000 0.0000 14.1691 0.0000 21.9394
#
#
#
# Elastic Compliance Matrix: (Units=1/GPa)
#
#
# Indices 1 2 3 4 5 6 
#
# 1 0.012552 -0.001209 -0.002040 0.000000 -0.007489 0.000000
# 2 -0.001209 0.011792 -0.004644 0.000000 -0.001004 0.000000
# 3 -0.002040 -0.004644 0.014593 0.000000 -0.004612 0.000000
# 4 0.000000 0.000000 0.000000 0.029495 0.000000 -0.019049
# 5 -0.007489 -0.001004 -0.004612 0.000000 0.025780 0.000000
# 6 0.000000 0.000000 0.000000 -0.019049 0.000000 0.057882
#
#
# Mechanical properties :
#
#
# Convention : Reuss Voigt Hill
#
# Bulk Modulus (GPa) = 43.19883 60.65305 51.92594
# Shear Modulus (GPa) = 28.47408 38.04471 33.25939
#
# Velocity S-wave (km/s) = 3.39844 3.92828 3.67292
# Velocity P-wave (km/s) = 5.73769 6.72136 6.24891
#
# Compressibility (1/GPa) = 0.02314877
#
# Stress axis : x y z
#
# Youngs Moduli (GPa) = 79.67128 84.80014 68.52723
#
# Poissons Ratio (x) = 0.10255 0.13981
# Poissons Ratio (y) = 0.09634 0.31827
# Poissons Ratio (z) = 0.16255 0.39385
#
# Static dielectric constant tensor:
#      x y z
#    x 1.975260 0.000000 0.059600 
#    y 0.000000 2.055880 0.000000 
#    z 0.059600 0.000000 2.131950 
# 
# From -- ./inp_files/9062.got.cif
#   From: 2010.05.17/outbox.cif.g08.bks.cpg/sg15_5_cif.got.tgz:9062.got - 2010.06.03 18:47:42.
