data_PCOD9284790
_publ_section_title
;
Structure prediction by ZEFSAII (Michael W. Deem and Ramdas Pophale) SiO2 
 PCOD9284790
Probable space group: C 2/C
;
_chemical_formula_sum "Si O2"
_cell_formula_units_Z 32
_cell_length_a 8.538392
_cell_length_b 19.283061
_cell_length_c 15.775076
_cell_angle_alpha 90.000000
_cell_angle_beta 27.551012
_cell_angle_gamma 90.000000
_cell_volume 1201.354262
_symmetry_space_group_name_H-M "C 2/C"
_symmetry_group_IT_number 15
_symmetry_cell_setting 'monoclinic'
loop_
_space_group_symop_operation_xyz
x,y,z
-x,y,1/2-z
-x,-y,-z
x,-y,1/2+z
1/2+x,1/2+y,z
1/2-x,1/2+y,1/2-z
1/2-x,1/2-y,-z
1/2+x,1/2-y,1/2+z
loop_
_atom_site_type_symbol
_atom_site_label
_atom_site_fract_x
_atom_site_fract_y
_atom_site_fract_z
Si Si1 0.809535 0.268440 0.756383
Si Si2 0.109289 0.648521 0.570456
Si Si3 0.004829 0.604118 0.068626
Si Si4 0.083219 0.984853 0.557106
O O1 0.694342 0.200056 0.761722
O O2 0.046099 0.325777 0.601298
O O3 0.000000 0.247819 0.750000
O O4 0.450764 0.310846 0.935176
O O5 0.085402 0.633462 0.480565
O O6 0.109457 0.570352 0.601589
O O7 0.697276 0.559345 0.257193
O O8 0.310516 0.550968 0.937747
O O9 0.000000 0.000000 0.500000
#
# Coordination Sequence:
#
# PCOD9284790 Si02
#       4
#     8   8   8   8
#     4  10  21  41  64  92 132 177 222 273 335 399
#     4  10  23  41  64  96 135 177 224 274 332 408
#     4  11  23  43  68  97 135 177 224 279 337 400
#     4  11  22  41  68  98 135 175 224 280 336 400
#
# _framework density 26.636603999999998
#
# number of rings (size 3 to 8) (size 9 to 14) (size 15 to 20)
#    0.000    1.500    0.000    7.500    0.000    3.000 
#    0.000   17.500    0.000    0.000    0.000    0.000 
#    0.000    0.000    0.000    0.000    0.000    0.000 
#
# Total GULP energy -89523.771439 kJ/mol
# GULP energy per Si atom -5595.235715 kJ/mol
# Density = 2.657598 g / cm^3
# Si number density = 26.636604 Si / 1000 Ang^3
#
#
#
# Elastic Constant Matrix: (Units=GPa)
#
#
# Indices 1 2 3 4 5 6 
#
# 1 113.7014 23.6928 38.9122 -0.0064 -24.3730 0.0037
# 2 23.6928 164.7396 30.9129 0.0014 -20.1668 0.0063
# 3 38.9122 30.9129 107.0225 -0.1222 -9.2906 -0.0108
# 4 -0.0064 0.0014 -0.1222 33.8176 0.0271 -9.1760
# 5 -24.3730 -20.1668 -9.2906 0.0271 36.5689 -0.0074
# 6 0.0037 0.0063 -0.0108 -9.1760 -0.0074 59.5250
#
#
#
# Elastic Compliance Matrix: (Units=1/GPa)
#
#
# Indices 1 2 3 4 5 6 
#
# 1 0.011469 -0.000170 -0.003543 -0.000017 0.006650 -0.000003
# 2 -0.000170 0.006793 -0.001621 -0.000009 0.003221 -0.000002
# 3 -0.003543 -0.001621 0.011062 0.000042 -0.000445 0.000009
# 4 -0.000017 -0.000009 0.000042 0.030861 -0.000027 0.004757
# 5 0.006650 0.003221 -0.000445 -0.000027 0.033441 -0.000001
# 6 -0.000003 -0.000002 0.000009 0.004757 -0.000001 0.017533
#
#
# Mechanical properties :
#
#
# Convention : Reuss Voigt Hill
#
# Bulk Modulus (GPa) = 53.60656 63.61104 58.60880
# Shear Modulus (GPa) = 39.04865 45.44534 42.24700
#
# Velocity S-wave (km/s) = 3.83296 4.13501 3.98685
# Velocity P-wave (km/s) = 6.30537 6.83598 6.57603
#
# Compressibility (1/GPa) = 0.01865443
#
# Stress axis : x y z
#
# Youngs Moduli (GPa) = 87.19510 147.20850 90.40230
#
# Poissons Ratio (x) = 0.02510 0.32033
# Poissons Ratio (y) = 0.01487 0.14650
# Poissons Ratio (z) = 0.30896 0.23856
#
# Static dielectric constant tensor:
#      x y z
#    x 2.066470 0.000020 -0.011270 
#    y 0.000020 2.030580 0.000070 
#    z -0.011270 0.000070 2.230890 
# 
# From -- ./inp_files/191862.got.cif
#   From: 2010.05.17/outbox.cif.g08.bks.cpg/sg15_96_cif.got.tgz:191862.got - 2010.06.03 18:47:42.
