data_PCOD9284690
_publ_section_title
;
Structure prediction by ZEFSAII (Michael W. Deem and Ramdas Pophale) SiO2 
 PCOD9284690
Probable space group: C 2/C
;
_chemical_formula_sum "Si O2"
_cell_formula_units_Z 56
_cell_length_a 29.637087
_cell_length_b 11.930315
_cell_length_c 8.646361
_cell_angle_alpha 90.000000
_cell_angle_beta 66.562139
_cell_angle_gamma 90.000000
_cell_volume 2804.936742
_symmetry_space_group_name_H-M "C 2/C"
_symmetry_group_IT_number 15
_symmetry_cell_setting 'monoclinic'
loop_
_space_group_symop_operation_xyz
x,y,z
-x,y,1/2-z
-x,-y,-z
x,-y,1/2+z
1/2+x,1/2+y,z
1/2-x,1/2+y,1/2-z
1/2-x,1/2-y,-z
1/2+x,1/2-y,1/2+z
loop_
_atom_site_type_symbol
_atom_site_label
_atom_site_fract_x
_atom_site_fract_y
_atom_site_fract_z
Si Si1 0.525162 0.897685 0.383600
Si Si2 0.137868 0.117621 0.440294
Si Si3 0.582645 0.533023 0.809449
Si Si4 0.137120 0.631015 0.798615
Si Si5 0.254611 0.626793 0.065273
Si Si6 0.500317 0.337873 0.930143
Si Si7 0.804240 0.460190 0.566376
O O1 0.500000 0.897863 0.250000
O O2 0.583802 0.906016 0.309738
O O3 0.514414 0.779852 0.484476
O O4 0.500000 0.000000 0.500000
O O5 0.096357 0.083495 0.624339
O O6 0.134552 0.242204 0.370133
O O7 0.190046 0.109166 0.452815
O O8 0.130356 0.022665 0.320207
O O9 0.542128 0.433274 0.881755
O O10 0.553753 0.627922 0.942107
O O11 0.157409 0.546462 0.903524
O O12 0.172165 0.615862 0.600880
O O13 0.219698 0.610832 0.262712
O O14 0.250000 0.750000 0.000000
O O15 0.236322 0.537124 0.963777
O O16 0.500000 0.318751 0.750000
#
# Coordination Sequence:
#
# PCOD9284690 Si02
#       7
#     8   8   8   8   8   8   8
#     4  11  24  42  64  95 134 172 221 271 323 399
#     4  12  24  43  67 100 135 170 234 273 339 411
#     4  11  23  41  66  95 132 176 216 280 327 399
#     4  11  23  45  69 100 132 182 226 274 341 408
#     4  11  23  47  68 102 130 176 225 282 344 405
#     4  10  21  41  63  91 133 171 219 267 333 382
#     4  10  24  46  71  92 141 175 221 284 344 407
#
# _framework density 19.964798999999999
#
# number of rings (size 3 to 8) (size 9 to 14) (size 15 to 20)
#    0.000    1.143    4.286    1.714    0.000    2.857 
#   10.286    0.000    0.000    0.000    0.000    0.000 
#    0.000    0.000    0.000    0.000    0.000    0.000 
#
# Total GULP energy -156145.452700 kJ/mol
# GULP energy per Si atom -5576.623311 kJ/mol
# Density = 1.991936 g / cm^3
# Si number density = 19.964799 Si / 1000 Ang^3
#
#
#
# Elastic Constant Matrix: (Units=GPa)
#
#
# Indices 1 2 3 4 5 6 
#
# 1 134.9904 39.6961 31.0459 0.0000 7.2132 0.0000
# 2 39.6961 119.5563 79.6026 0.0000 -9.4783 0.0000
# 3 31.0459 79.6026 121.2585 0.0000 7.9312 0.0000
# 4 0.0000 0.0000 0.0000 39.4548 0.0000 -2.7020
# 5 7.2132 -9.4783 7.9312 0.0000 26.1251 0.0000
# 6 0.0000 0.0000 0.0000 -2.7020 0.0000 31.9056
#
#
#
# Elastic Compliance Matrix: (Units=1/GPa)
#
#
# Indices 1 2 3 4 5 6 
#
# 1 0.008507 -0.003220 0.000169 0.000000 -0.003568 0.000000
# 2 -0.003220 0.018203 -0.011851 0.000000 0.011091 0.000000
# 3 0.000169 -0.011851 0.016597 0.000000 -0.009385 0.000000
# 4 0.000000 0.000000 0.000000 0.025493 0.000000 0.002159
# 5 -0.003568 0.011091 -0.009385 0.000000 0.046136 0.000000
# 6 0.000000 0.000000 0.000000 0.002159 0.000000 0.031525
#
#
# Mechanical properties :
#
#
# Convention : Reuss Voigt Hill
#
# Bulk Modulus (GPa) = 74.05401 75.16604 74.61002
# Shear Modulus (GPa) = 27.66017 34.52781 31.09399
#
# Velocity S-wave (km/s) = 3.72620 4.16316 3.95072
# Velocity P-wave (km/s) = 7.46227 7.80001 7.63301
#
# Compressibility (1/GPa) = 0.01350366
#
# Stress axis : x y z
#
# Youngs Moduli (GPa) = 117.55612 54.93546 60.25168
#
# Poissons Ratio (x) = 0.17690 -0.01020
# Poissons Ratio (y) = 0.37854 0.71403
# Poissons Ratio (z) = -0.01990 0.65103
#
# Static dielectric constant tensor:
#      x y z
#    x 1.753790 0.000000 -0.023410 
#    y 0.000000 1.778500 0.000000 
#    z -0.023410 0.000000 1.708290 
# 
# From -- ./inp_files/65410.got.cif
#   From: 2010.05.17/outbox.cif.g08.bks.cpg/sg15_33_cif.got.tgz:65410.got - 2010.06.03 18:47:42.
