data_PCOD9284264
_publ_section_title
;
Structure prediction by ZEFSAII (Michael W. Deem and Ramdas Pophale) SiO2 
 PCOD9284264
Probable space group: C 2/C
;
_chemical_formula_sum "Si O2"
_cell_formula_units_Z 48
_cell_length_a 27.488946
_cell_length_b 9.811797
_cell_length_c 13.661509
_cell_angle_alpha 90.000000
_cell_angle_beta 137.405541
_cell_angle_gamma 90.000000
_cell_volume 2493.840836
_symmetry_space_group_name_H-M "C 2/C"
_symmetry_group_IT_number 15
_symmetry_cell_setting 'monoclinic'
loop_
_space_group_symop_operation_xyz
x,y,z
-x,y,1/2-z
-x,-y,-z
x,-y,1/2+z
1/2+x,1/2+y,z
1/2-x,1/2+y,1/2-z
1/2-x,1/2-y,-z
1/2+x,1/2-y,1/2+z
loop_
_atom_site_type_symbol
_atom_site_label
_atom_site_fract_x
_atom_site_fract_y
_atom_site_fract_z
Si Si1 0.496332 0.406881 0.628410
Si Si2 0.834544 0.402402 0.681076
Si Si3 0.851638 0.318009 0.320938
Si Si4 0.877218 0.980483 0.816533
Si Si5 0.008576 0.660422 0.030053
Si Si6 0.741945 0.175086 0.626561
O O1 0.500000 0.393091 0.750000
O O2 0.566128 0.484752 0.688908
O O3 0.426893 0.487694 0.485053
O O4 0.495407 0.260397 0.570313
O O5 0.843000 0.557138 0.732149
O O6 0.911491 0.328224 0.809509
O O7 0.771035 0.327325 0.647695
O O8 0.811402 0.380281 0.535553
O O9 0.842064 0.168876 0.261712
O O10 0.796790 0.336951 0.327664
O O11 0.935280 0.309860 0.480522
O O12 0.813397 0.086170 0.722883
O O13 0.000000 0.500000 0.000000
#
# Coordination Sequence:
#
# PCOD9284264 Si02
#       6
#     8   8   8   8   8   8
#     4  10  21  40  68  93 122 170 213 266 325 371
#     4  10  22  40  59  88 128 163 209 256 315 378
#     4  10  22  40  60  90 126 163 210 266 316 370
#     4  10  22  41  61  96 130 157 221 266 300 395
#     4   9  19  42  59  88 128 153 211 267 300 385
#     4  11  22  39  64  87 126 174 201 262 323 370
#
# _framework density 19.247420000000002
#
# number of rings (size 3 to 8) (size 9 to 14) (size 15 to 20)
#    0.000    2.000    1.667    1.000    0.000    5.333 
#   18.000    0.000    0.000    0.000    0.000    0.000 
#    0.000    0.000    0.000    0.000    0.000    0.000 
#
# Total GULP energy -133727.809412 kJ/mol
# GULP energy per Si atom -5571.992059 kJ/mol
# Density = 1.920361 g / cm^3
# Si number density = 19.247420 Si / 1000 Ang^3
#
#
#
# Elastic Constant Matrix: (Units=GPa)
#
#
# Indices 1 2 3 4 5 6 
#
# 1 54.5979 15.6658 52.9756 0.0000 7.4084 0.0000
# 2 15.6658 110.6810 25.3104 0.0000 -3.0137 0.0000
# 3 52.9756 25.3104 95.6874 0.0000 6.7695 0.0000
# 4 0.0000 0.0000 0.0000 20.2807 0.0000 11.7408
# 5 7.4084 -3.0137 6.7695 0.0000 13.3163 0.0000
# 6 0.0000 0.0000 0.0000 11.7408 0.0000 11.9786
#
#
#
# Elastic Compliance Matrix: (Units=1/GPa)
#
#
# Indices 1 2 3 4 5 6 
#
# 1 0.041432 -0.001226 -0.021746 0.000000 -0.012273 0.000000
# 2 -0.001226 0.009822 -0.002204 0.000000 0.004025 0.000000
# 3 -0.021746 -0.002204 0.023082 0.000000 -0.000135 0.000000
# 4 0.000000 0.000000 0.000000 0.113987 0.000000 -0.111724
# 5 -0.012273 0.004025 -0.000135 0.000000 0.082904 0.000000
# 6 0.000000 0.000000 0.000000 -0.111724 0.000000 0.192989
#
#
# Mechanical properties :
#
#
# Convention : Reuss Voigt Hill
#
# Bulk Modulus (GPa) = 41.69188 49.87442 45.78315
# Shear Modulus (GPa) = 9.56823 20.24941 14.90882
#
# Velocity S-wave (km/s) = 2.23203 3.24706 2.78616
# Velocity P-wave (km/s) = 5.32453 6.32664 5.84710
#
# Compressibility (1/GPa) = 0.02398549
#
# Stress axis : x y z
#
# Youngs Moduli (GPa) = 24.13567 101.81081 43.32294
#
# Poissons Ratio (x) = 0.12479 0.94209
# Poissons Ratio (y) = 0.02958 0.09549
# Poissons Ratio (z) = 0.52485 0.22442
#
# Static dielectric constant tensor:
#      x y z
#    x 1.649440 0.000000 0.034440 
#    y 0.000000 1.725120 0.000000 
#    z 0.034440 0.000000 1.684030 
# 
# From -- ./inp_files/117712.got.cif
#   From: 2010.05.17/outbox.cif.g08.bks.cpg/sg15_59_cif.got.tgz:117712.got - 2010.06.03 18:47:42.
