data_PCOD9284951
_publ_section_title
;
Structure prediction by ZEFSAII (Michael W. Deem and Ramdas Pophale) SiO2 
 PCOD9284951
Probable space group: C 2/C
;
_chemical_formula_sum "Si O2"
_cell_formula_units_Z 56
_cell_length_a 19.711706
_cell_length_b 8.482273
_cell_length_c 28.386174
_cell_angle_alpha 90.000000
_cell_angle_beta 36.054126
_cell_angle_gamma 90.000000
_cell_volume 2793.354983
_symmetry_space_group_name_H-M "C 2/C"
_symmetry_group_IT_number 15
_symmetry_cell_setting 'monoclinic'
loop_
_space_group_symop_operation_xyz
x,y,z
-x,y,1/2-z
-x,-y,-z
x,-y,1/2+z
1/2+x,1/2+y,z
1/2-x,1/2+y,1/2-z
1/2-x,1/2-y,-z
1/2+x,1/2-y,1/2+z
loop_
_atom_site_type_symbol
_atom_site_label
_atom_site_fract_x
_atom_site_fract_y
_atom_site_fract_z
Si Si1 0.142144 0.083562 0.017517
Si Si2 0.938229 0.495927 0.734715
Si Si3 0.383568 0.480593 0.159220
Si Si4 0.281729 0.683660 0.626638
Si Si5 0.628295 0.974284 0.447001
Si Si6 0.636567 0.953967 0.047706
Si Si7 0.257353 0.739014 0.803486
O O1 0.130748 0.267707 0.038483
O O2 0.018894 0.001392 0.091980
O O3 0.182982 0.087786 0.940235
O O4 0.242997 0.014485 0.993496
O O5 0.850116 0.643156 0.786961
O O6 0.857011 0.349533 0.767930
O O7 0.000000 0.478897 0.750000
O O8 0.032300 0.512184 0.641301
O O9 0.359784 0.375771 0.125977
O O10 0.314886 0.396341 0.239693
O O11 0.326079 0.650202 0.180790
O O12 0.301955 0.866010 0.604223
O O13 0.627364 0.954805 0.503647
O O14 0.500000 0.000000 0.500000
O O15 0.684911 0.833240 0.386670
#
# Coordination Sequence:
#
# PCOD9284951 Si02
#       7
#     8   8   8   8   8   8   8
#     4  10  21  41  66 100 125 174 225 265 324 401
#     4  11  24  46  68  97 138 174 223 275 332 395
#     4  11  24  41  68  97 133 170 224 275 331 393
#     4  10  22  41  70  96 131 175 220 269 332 391
#     4  11  25  44  67  99 136 173 223 278 331 397
#     4  10  23  42  67  97 133 176 218 270 331 390
#     4  11  26  42  66 100 131 176 223 275 340 393
#
# _framework density 20.047577
#
# number of rings (size 3 to 8) (size 9 to 14) (size 15 to 20)
#    0.000    1.429    1.429    3.000   12.000    2.286 
#    0.000    2.143    0.000    0.000    0.000    0.000 
#    0.000    0.000    0.000    0.000    0.000    0.000 
#
# Total GULP energy -156656.044018 kJ/mol
# GULP energy per Si atom -5594.858715 kJ/mol
# Density = 2.000195 g / cm^3
# Si number density = 20.047577 Si / 1000 Ang^3
#
#
#
# Elastic Constant Matrix: (Units=GPa)
#
#
# Indices 1 2 3 4 5 6 
#
# 1 133.7683 29.6391 83.4910 0.0165 -8.9320 0.0006
# 2 29.6391 52.0347 59.6919 0.0223 0.1853 0.0064
# 3 83.4910 59.6919 161.8349 0.0051 -5.3195 -0.0001
# 4 0.0165 0.0223 0.0051 11.7972 -0.0032 1.4074
# 5 -8.9320 0.1853 -5.3195 -0.0032 38.8827 -0.0018
# 6 0.0006 0.0064 -0.0001 1.4074 -0.0018 20.4331
#
#
#
# Elastic Compliance Matrix: (Units=1/GPa)
#
#
# Indices 1 2 3 4 5 6 
#
# 1 0.011150 0.000303 -0.005806 -0.000013 0.001766 0.000001
# 2 0.000303 0.033455 -0.012555 -0.000058 -0.001807 -0.000007
# 3 -0.005806 -0.012555 0.013826 0.000026 0.000618 0.000002
# 4 -0.000013 -0.000058 0.000026 0.085469 0.000008 -0.005887
# 5 0.001766 -0.001807 0.000618 0.000008 0.026217 0.000002
# 6 0.000001 -0.000007 0.000002 -0.005887 0.000002 0.049346
#
#
# Mechanical properties :
#
#
# Convention : Reuss Voigt Hill
#
# Bulk Modulus (GPa) = 44.81509 77.03132 60.92320
# Shear Modulus (GPa) = 19.01018 25.87699 22.44358
#
# Velocity S-wave (km/s) = 3.08271 3.59664 3.34955
# Velocity P-wave (km/s) = 5.92231 7.46695 6.73903
#
# Compressibility (1/GPa) = 0.02231391
#
# Stress axis : x y z
#
# Youngs Moduli (GPa) = 89.68384 29.89113 72.32821
#
# Poissons Ratio (x) = -0.00906 0.41995
# Poissons Ratio (y) = -0.02719 0.90811
# Poissons Ratio (z) = 0.52072 0.37529
#
# Static dielectric constant tensor:
#      x y z
#    x 1.690480 0.000000 0.009110 
#    y 0.000000 1.707940 0.000000 
#    z 0.009110 0.000000 1.681980 
# 
# From -- ./inp_files/298518.got.cif
#   From: 2010.05.17/outbox.cif.g08.bks.cpg/sg15_150_cif.got.tgz:298518.got - 2010.06.03 18:47:42.
