data_PCOD9284828
_publ_section_title
;
Structure prediction by ZEFSAII (Michael W. Deem and Ramdas Pophale) SiO2 
 PCOD9284828
Probable space group: C 2/C
;
_chemical_formula_sum "Si O2"
_cell_formula_units_Z 64
_cell_length_a 18.336717
_cell_length_b 16.500058
_cell_length_c 15.591530
_cell_angle_alpha 90.000000
_cell_angle_beta 139.549259
_cell_angle_gamma 90.000000
_cell_volume 3060.572383
_symmetry_space_group_name_H-M "C 2/C"
_symmetry_group_IT_number 15
_symmetry_cell_setting 'monoclinic'
loop_
_space_group_symop_operation_xyz
x,y,z
-x,y,1/2-z
-x,-y,-z
x,-y,1/2+z
1/2+x,1/2+y,z
1/2-x,1/2+y,1/2-z
1/2-x,1/2-y,-z
1/2+x,1/2-y,1/2+z
loop_
_atom_site_type_symbol
_atom_site_label
_atom_site_fract_x
_atom_site_fract_y
_atom_site_fract_z
Si Si1 0.627508 0.544140 0.718460
Si Si2 0.503514 0.394817 0.852169
Si Si3 0.592869 0.005278 0.206935
Si Si4 0.710529 0.311070 0.770067
Si Si5 0.885091 0.811928 0.171290
Si Si6 0.272069 0.627786 0.859324
Si Si7 0.853151 0.543265 0.445249
Si Si8 0.260274 0.844013 0.620946
O O1 0.535269 0.474410 0.630526
O O2 0.584394 0.616867 0.737187
O O3 0.670733 0.579933 0.668253
O O4 0.739624 0.506470 0.863029
O O5 0.500000 0.417199 0.750000
O O6 0.407492 0.330450 0.790532
O O7 0.627706 0.365022 0.983641
O O8 0.613741 0.022088 0.123732
O O9 0.645186 0.085598 0.297412
O O10 0.669401 0.927927 0.298808
O O11 0.461103 0.982932 0.097449
O O12 0.733865 0.216048 0.794800
O O13 0.810268 0.363606 0.904345
O O14 0.706892 0.343507 0.668346
O O15 0.809512 0.745885 0.150814
O O16 0.000000 0.767881 0.250000
O O17 0.825203 0.849885 0.034602
#
# Coordination Sequence:
#
# PCOD9284828 Si02
#       8
#     8   8   8   8   8   8   8   8
#     4  10  21  41  64  98 127 174 217 267 333 396
#     4  11  26  43  67  94 132 171 220 289 326 389
#     4   9  19  36  63  89 122 167 214 265 314 391
#     4  10  22  42  67  95 131 170 220 276 328 393
#     4  11  24  38  64  97 141 174 208 268 333 402
#     4  11  23  39  70  98 122 171 225 268 334 399
#     4   8  18  38  61  88 126 164 216 266 317 380
#     4  10  23  41  59 100 133 170 219 263 330 400
#
# _framework density 20.911121000000001
#
# number of rings (size 3 to 8) (size 9 to 14) (size 15 to 20)
#    0.000    2.000    1.250    1.500    7.000    2.500 
#    2.250    0.000    0.000    0.000    0.000    0.000 
#    0.000    0.000    0.000    0.000    0.000    0.000 
#
# Total GULP energy -178624.843092 kJ/mol
# GULP energy per Si atom -5582.026347 kJ/mol
# Density = 2.086353 g / cm^3
# Si number density = 20.911121 Si / 1000 Ang^3
#
#
#
# Elastic Constant Matrix: (Units=GPa)
#
#
# Indices 1 2 3 4 5 6 
#
# 1 32.4034 13.4730 10.7800 0.0000 9.6779 0.0000
# 2 13.4730 80.4745 22.2443 0.0000 -0.1377 0.0000
# 3 10.7800 22.2443 81.0957 0.0000 16.4725 0.0000
# 4 0.0000 0.0000 0.0000 16.2463 0.0000 -1.5466
# 5 9.6779 -0.1377 16.4725 0.0000 21.6584 0.0000
# 6 0.0000 0.0000 0.0000 -1.5466 0.0000 17.0062
#
#
#
# Elastic Compliance Matrix: (Units=1/GPa)
#
#
# Indices 1 2 3 4 5 6 
#
# 1 0.038759 -0.006577 0.000211 0.000000 -0.017521 0.000000
# 2 -0.006577 0.014779 -0.004489 0.000000 0.006447 0.000000
# 3 0.000211 -0.004489 0.016037 0.000000 -0.012320 0.000000
# 4 0.000000 0.000000 0.000000 0.062090 0.000000 0.005647
# 5 -0.017521 0.006447 -0.012320 0.000000 0.063412 0.000000
# 6 0.000000 0.000000 0.000000 0.005647 0.000000 0.059316
#
#
# Mechanical properties :
#
#
# Convention : Reuss Voigt Hill
#
# Bulk Modulus (GPa) = 20.89259 31.88534 26.38897
# Shear Modulus (GPa) = 17.11992 20.81395 18.96694
#
# Velocity S-wave (km/s) = 2.86440 3.15834 3.01496
# Velocity P-wave (km/s) = 4.57739 5.34615 4.97664
#
# Compressibility (1/GPa) = 0.04786385
#
# Stress axis : x y z
#
# Youngs Moduli (GPa) = 25.80073 67.66187 62.35627
#
# Poissons Ratio (x) = 0.44503 -0.01315
# Poissons Ratio (y) = 0.16970 0.27993
# Poissons Ratio (z) = -0.00544 0.30375
#
# Static dielectric constant tensor:
#      x y z
#    x 1.735140 0.000000 -0.002080 
#    y 0.000000 1.722860 0.000000 
#    z -0.002080 0.000000 1.765990 
# 
# From -- ./inp_files/163291.got.cif
#   From: 2010.05.17/outbox.cif.g08.bks.cpg/sg15_82_cif.got.tgz:163291.got - 2010.06.03 18:47:42.
