data_PCOD9284508
_publ_section_title
;
Structure prediction by ZEFSAII (Michael W. Deem and Ramdas Pophale) SiO2 
 PCOD9284508
Probable space group: C 2/C
;
_chemical_formula_sum "Si O2"
_cell_formula_units_Z 64
_cell_length_a 27.620346
_cell_length_b 18.517664
_cell_length_c 11.486717
_cell_angle_alpha 90.000000
_cell_angle_beta 34.222121
_cell_angle_gamma 90.000000
_cell_volume 3304.141220
_symmetry_space_group_name_H-M "C 2/C"
_symmetry_group_IT_number 15
_symmetry_cell_setting 'monoclinic'
loop_
_space_group_symop_operation_xyz
x,y,z
-x,y,1/2-z
-x,-y,-z
x,-y,1/2+z
1/2+x,1/2+y,z
1/2-x,1/2+y,1/2-z
1/2-x,1/2-y,-z
1/2+x,1/2-y,1/2+z
loop_
_atom_site_type_symbol
_atom_site_label
_atom_site_fract_x
_atom_site_fract_y
_atom_site_fract_z
Si Si1 0.727621 0.841953 0.160753
Si Si2 0.782967 0.791663 0.288667
Si Si3 0.481718 0.277105 0.920151
Si Si4 0.124872 0.203323 0.314124
Si Si5 0.729557 0.364825 0.793579
Si Si6 0.010555 0.394132 0.096126
Si Si7 0.202340 0.598985 0.114171
Si Si8 0.833766 0.449981 0.390523
O O1 0.766854 0.843072 0.210094
O O2 0.647721 0.785134 0.310319
O O3 0.700322 0.917751 0.162769
O O4 0.801878 0.812973 0.927429
O O5 0.762612 0.713418 0.273206
O O6 0.722839 0.826331 0.507120
O O7 0.880703 0.789904 0.137288
O O8 0.500000 0.301732 0.750000
O O9 0.537214 0.307520 0.917372
O O10 0.506242 0.192012 0.874028
O O11 0.144969 0.152288 0.385150
O O12 0.730803 0.408778 0.911364
O O13 0.796419 0.400774 0.569760
O O14 0.935863 0.438270 0.181496
O O15 0.000000 0.417499 0.250000
O O16 0.106939 0.402119 0.858527
O O17 0.200548 0.530914 0.031885
#
# Coordination Sequence:
#
# PCOD9284508 Si02
#       8
#     8   8   8   8   8   8   8   8
#     4   9  18  33  57  89 117 150 213 263 310 372
#     4  11  22  37  63  92 129 166 217 270 323 381
#     4  11  18  33  62  96 121 160 217 267 317 373
#     4   9  17  32  60  89 114 153 209 270 312 367
#     4  10  21  41  60  86 124 171 211 262 323 381
#     4  11  21  37  60  90 130 173 208 251 316 395
#     4  12  25  38  61  91 133 173 213 261 325 391
#     4  11  22  39  63  89 126 174 215 259 317 392
#
# _framework density 19.369631999999999
#
# number of rings (size 3 to 8) (size 9 to 14) (size 15 to 20)
#    0.000    1.500    5.000    2.250    1.750    0.000 
#    0.000    1.250    0.000    3.000    6.500    0.000 
#    0.000    0.000    0.000    0.000    0.000    0.000 
#
# Total GULP energy -178316.739847 kJ/mol
# GULP energy per Si atom -5572.398120 kJ/mol
# Density = 1.932555 g / cm^3
# Si number density = 19.369632 Si / 1000 Ang^3
#
#
#
# Elastic Constant Matrix: (Units=GPa)
#
#
# Indices 1 2 3 4 5 6 
#
# 1 156.8904 35.3894 39.9187 0.0000 -18.3449 0.0000
# 2 35.3894 69.3485 33.8845 0.0000 -0.3789 0.0000
# 3 39.9187 33.8845 57.9179 0.0000 -2.1530 0.0000
# 4 0.0000 0.0000 0.0000 19.0875 0.0000 3.1146
# 5 -18.3449 -0.3789 -2.1530 0.0000 29.3992 0.0000
# 6 0.0000 0.0000 0.0000 3.1146 0.0000 23.1245
#
#
#
# Elastic Compliance Matrix: (Units=1/GPa)
#
#
# Indices 1 2 3 4 5 6 
#
# 1 0.008583 -0.002175 -0.004458 0.000000 0.005002 0.000000
# 2 -0.002175 0.020754 -0.010713 0.000000 -0.001874 0.000000
# 3 -0.004458 -0.010713 0.026569 0.000000 -0.000974 0.000000
# 4 0.000000 0.000000 0.000000 0.053568 0.000000 -0.007215
# 5 0.005002 -0.001874 -0.000974 0.000000 0.037040 0.000000
# 6 0.000000 0.000000 0.000000 -0.007215 0.000000 0.044216
#
#
# Mechanical properties :
#
#
# Convention : Reuss Voigt Hill
#
# Bulk Modulus (GPa) = 47.13339 55.83801 51.48570
# Shear Modulus (GPa) = 21.50605 25.98650 23.74628
#
# Velocity S-wave (km/s) = 3.33573 3.66677 3.50516
# Velocity P-wave (km/s) = 6.26279 6.84231 6.55895
#
# Compressibility (1/GPa) = 0.02121638
#
# Stress axis : x y z
#
# Youngs Moduli (GPa) = 116.50287 48.18387 37.63738
#
# Poissons Ratio (x) = 0.10479 0.16778
# Poissons Ratio (y) = 0.25338 0.40319
# Poissons Ratio (z) = 0.51933 0.51617
#
# Static dielectric constant tensor:
#      x y z
#    x 1.732190 0.000000 0.015170 
#    y 0.000000 1.707890 0.000000 
#    z 0.015170 0.000000 1.677860 
# 
# From -- ./inp_files/127273.got.cif
#   From: 2010.05.17/outbox.cif.g08.bks.cpg/sg15_64_cif.got.tgz:127273.got - 2010.06.03 18:47:42.
