data_PCOD9284629
_publ_section_title
;
Structure prediction by ZEFSAII (Michael W. Deem and Ramdas Pophale) SiO2 
 PCOD9284629
Probable space group: C 2/C
;
_chemical_formula_sum "Si O2"
_cell_formula_units_Z 44
_cell_length_a 10.578569
_cell_length_b 8.486913
_cell_length_c 20.559451
_cell_angle_alpha 90.000000
_cell_angle_beta 75.170039
_cell_angle_gamma 90.000000
_cell_volume 1784.330376
_symmetry_space_group_name_H-M "C 2/C"
_symmetry_group_IT_number 15
_symmetry_cell_setting 'monoclinic'
loop_
_space_group_symop_operation_xyz
x,y,z
-x,y,1/2-z
-x,-y,-z
x,-y,1/2+z
1/2+x,1/2+y,z
1/2-x,1/2+y,1/2-z
1/2-x,1/2-y,-z
1/2+x,1/2-y,1/2+z
loop_
_atom_site_type_symbol
_atom_site_label
_atom_site_fract_x
_atom_site_fract_y
_atom_site_fract_z
Si Si1 0.994094 0.791155 0.930741
Si Si2 0.862807 0.953624 0.773433
Si Si3 0.257175 0.076309 0.574653
Si Si4 0.517422 0.656577 0.922993
Si Si5 0.250000 0.250000 0.000000
Si Si6 0.895450 0.294419 0.713860
O O1 0.115299 0.676266 0.922185
O O2 0.859873 0.727486 0.919573
O O3 0.922413 0.816284 0.012944
O O4 0.037628 0.968674 0.907389
O O5 0.745673 0.862106 0.756759
O O6 0.000000 0.862220 0.750000
O O7 0.812495 0.015904 0.849615
O O8 0.889338 0.110426 0.729688
O O9 0.139262 0.174465 0.556151
O O10 0.283521 0.933326 0.522837
O O11 0.567182 0.787234 0.866707
O O12 0.000000 0.365447 0.750000
#
# Coordination Sequence:
#
# PCOD9284629 Si02
#       6
#     8   8   8   8   4   8
#     4  10  22  38  67  95 133 177 217 278 349 402
#     4  11  25  45  69  96 137 179 229 288 336 405
#     4  11  21  41  65  93 132 178 222 279 344 402
#     4  10  21  41  62  97 130 170 223 282 333 409
#     4  10  22  36  58  96 132 166 222 274 328 408
#     4  11  24  44  67  96 135 179 229 280 339 408
#
# _framework density 24.659109999999998
#
# number of rings (size 3 to 8) (size 9 to 14) (size 15 to 20)
#    0.000    1.455    3.636    2.182    2.545    0.727 
#    0.000    3.636    0.000    0.000    0.000    0.000 
#    0.000    0.000    0.000    0.000    0.000    0.000 
#
# Total GULP energy -122489.903272 kJ/mol
# GULP energy per Si atom -5567.722876 kJ/mol
# Density = 2.460298 g / cm^3
# Si number density = 24.659110 Si / 1000 Ang^3
#
#
#
# Elastic Constant Matrix: (Units=GPa)
#
#
# Indices 1 2 3 4 5 6 
#
# 1 201.9318 55.9710 17.0205 0.0000 -24.9761 0.0000
# 2 55.9710 40.3652 0.7636 0.0000 -18.3856 0.0000
# 3 17.0205 0.7636 78.4445 0.0000 -0.1229 0.0000
# 4 0.0000 0.0000 0.0000 -19.0501 0.0000 -24.4076
# 5 -24.9761 -18.3856 -0.1229 0.0000 36.9241 0.0000
# 6 0.0000 0.0000 0.0000 -24.4076 0.0000 55.3900
#
#
#
# Elastic Compliance Matrix: (Units=1/GPa)
#
#
# Indices 1 2 3 4 5 6 
#
# 1 0.008260 -0.011484 -0.001681 0.000000 -0.000137 0.000000
# 2 -0.011484 0.048013 0.002050 0.000000 0.016146 0.000000
# 3 -0.001681 0.002050 0.013092 0.000000 -0.000073 0.000000
# 4 0.000000 0.000000 0.000000 -0.033551 0.000000 -0.014784
# 5 -0.000137 0.016146 -0.000073 0.000000 0.035030 0.000000
# 6 0.000000 0.000000 0.000000 -0.014784 0.000000 0.011539
#
#
# Mechanical properties :
#
#
# Convention : Reuss Voigt Hill
#
# Bulk Modulus (GPa) = 21.21538 52.02797 36.62167
# Shear Modulus (GPa) = 41.55432 31.11857 36.33644
#
# Velocity S-wave (km/s) = 4.10951 3.55625 3.84285
# Velocity P-wave (km/s) = 5.58029 6.16500 5.87992
#
# Compressibility (1/GPa) = 0.04713561
#
# Stress axis : x y z
#
# Youngs Moduli (GPa) = 121.06535 20.82776 76.37987
#
# Poissons Ratio (x) = 0.23918 0.12837
# Poissons Ratio (y) = 1.39029 -0.15655
# Poissons Ratio (z) = 0.20347 -0.04269
#
# Static dielectric constant tensor:
#      x y z
#    x 2.443260 0.000000 0.134070 
#    y 0.000000 1.970890 0.000000 
#    z 0.134070 0.000000 2.138080 
# 
# From -- ./inp_files/236065.got.cif
#   From: 2010.05.17/outbox.cif.g08.bks.cpg/sg15_119_cif.got.tgz:236065.got - 2010.06.03 18:47:42.
