data_PCOD9284607
_publ_section_title
;
Structure prediction by ZEFSAII (Michael W. Deem and Ramdas Pophale) SiO2 
 PCOD9284607
Probable space group: C 2/C
;
_chemical_formula_sum "Si O2"
_cell_formula_units_Z 64
_cell_length_a 23.354204
_cell_length_b 13.357239
_cell_length_c 14.500664
_cell_angle_alpha 90.000000
_cell_angle_beta 35.232366
_cell_angle_gamma 90.000000
_cell_volume 2609.549536
_symmetry_space_group_name_H-M "C 2/C"
_symmetry_group_IT_number 15
_symmetry_cell_setting 'monoclinic'
loop_
_space_group_symop_operation_xyz
x,y,z
-x,y,1/2-z
-x,-y,-z
x,-y,1/2+z
1/2+x,1/2+y,z
1/2-x,1/2+y,1/2-z
1/2-x,1/2-y,-z
1/2+x,1/2-y,1/2+z
loop_
_atom_site_type_symbol
_atom_site_label
_atom_site_fract_x
_atom_site_fract_y
_atom_site_fract_z
Si Si1 0.596183 0.902461 0.411440
Si Si2 0.283284 0.501238 0.239143
Si Si3 0.864878 0.458977 0.343836
Si Si4 0.908064 0.121836 0.720838
Si Si5 0.642395 0.466354 0.560066
Si Si6 0.367090 0.745895 0.373859
Si Si7 0.428768 0.173631 0.263456
Si Si8 0.610018 0.690019 0.355517
O O1 0.668931 0.976923 0.368893
O O2 0.582673 0.939444 0.324710
O O3 0.495615 0.867468 0.591658
O O4 0.652614 0.795057 0.335769
O O5 0.337428 0.422348 0.234629
O O6 0.304827 0.607826 0.255876
O O7 0.337380 0.505430 0.068595
O O8 0.750029 0.461097 0.466910
O O9 0.890545 0.360353 0.368758
O O10 0.883173 0.569496 0.359019
O O11 0.868804 0.229262 0.809930
O O12 0.015560 0.147586 0.535418
O O13 0.915739 0.039548 0.793086
O O14 0.612377 0.349783 0.590254
O O15 0.250000 0.750000 0.500000
O O16 0.421105 0.715765 0.207416
O O17 0.500000 0.213176 0.250000
#
# Coordination Sequence:
#
# PCOD9284607 Si02
#       8
#     8   8   8   8   8   8   8   8
#     4   9  22  41  63  91 127 173 218 275 331 398
#     4  11  23  40  68  96 127 179 225 268 345 410
#     4   9  20  42  64  90 125 173 219 274 335 395
#     4  11  25  42  63  97 137 173 216 287 337 403
#     4  10  22  38  66  99 127 167 223 276 338 407
#     4   9  18  38  65  90 126 167 212 272 323 383
#     4  11  25  41  64  93 134 178 219 269 341 410
#     4  10  21  41  62  91 135 171 213 276 342 385
#
# _framework density 24.525307000000002
#
# number of rings (size 3 to 8) (size 9 to 14) (size 15 to 20)
#    0.000    2.000    1.250    1.500    5.250    2.500 
#    0.000    5.000    0.000    0.000    0.000    0.000 
#    0.000    0.000    0.000    0.000    0.000    0.000 
#
# Total GULP energy -178725.886874 kJ/mol
# GULP energy per Si atom -5585.183965 kJ/mol
# Density = 2.446949 g / cm^3
# Si number density = 24.525307 Si / 1000 Ang^3
#
#
#
# Elastic Constant Matrix: (Units=GPa)
#
#
# Indices 1 2 3 4 5 6 
#
# 1 45.0491 12.4965 6.9422 0.0000 3.1264 0.0000
# 2 12.4965 166.3614 -2.5498 0.0000 3.9824 0.0000
# 3 6.9422 -2.5498 83.7004 0.0000 31.3553 0.0000
# 4 0.0000 0.0000 0.0000 11.2189 0.0000 -6.3153
# 5 3.1264 3.9824 31.3553 0.0000 30.2953 0.0000
# 6 0.0000 0.0000 0.0000 -6.3153 0.0000 14.7924
#
#
#
# Elastic Compliance Matrix: (Units=1/GPa)
#
#
# Indices 1 2 3 4 5 6 
#
# 1 0.022988 -0.001751 -0.001891 0.000000 -0.000185 0.000000
# 2 -0.001751 0.006195 0.000933 0.000000 -0.001599 0.000000
# 3 -0.001891 0.000933 0.019771 0.000000 -0.020391 0.000000
# 4 0.000000 0.000000 0.000000 0.117333 0.000000 0.050093
# 5 -0.000185 -0.001599 -0.020391 0.000000 0.054342 0.000000
# 6 0.000000 0.000000 0.000000 0.050093 0.000000 0.088988
#
#
# Mechanical properties :
#
#
# Convention : Reuss Voigt Hill
#
# Bulk Modulus (GPa) = 22.96900 36.54318 29.75609
# Shear Modulus (GPa) = 15.17230 29.80944 22.49087
#
# Velocity S-wave (km/s) = 2.48994 3.49012 3.03156
# Velocity P-wave (km/s) = 4.20145 5.58335 4.94095
#
# Compressibility (1/GPa) = 0.04353694
#
# Stress axis : x y z
#
# Youngs Moduli (GPa) = 43.50090 161.41652 50.57862
#
# Poissons Ratio (x) = 0.28269 0.09562
# Poissons Ratio (y) = 0.07618 -0.04720
# Poissons Ratio (z) = 0.08224 -0.15063
#
# Static dielectric constant tensor:
#      x y z
#    x 1.893560 0.000000 -0.015580 
#    y 0.000000 2.011070 0.000000 
#    z -0.015580 0.000000 2.079480 
# 
# From -- ./inp_files/173651.got.cif
#   From: 2010.05.17/outbox.cif.g08.bks.cpg/sg15_87_cif.got.tgz:173651.got - 2010.06.03 18:47:42.
