data_PCOD9284939
_publ_section_title
;
Structure prediction by ZEFSAII (Michael W. Deem and Ramdas Pophale) SiO2 
 PCOD9284939
Probable space group: C 2/C
;
_chemical_formula_sum "Si O2"
_cell_formula_units_Z 40
_cell_length_a 7.213885
_cell_length_b 28.465575
_cell_length_c 8.203877
_cell_angle_alpha 90.000000
_cell_angle_beta 77.808397
_cell_angle_gamma 90.000000
_cell_volume 1646.650648
_symmetry_space_group_name_H-M "C 2/C"
_symmetry_group_IT_number 15
_symmetry_cell_setting 'monoclinic'
loop_
_space_group_symop_operation_xyz
x,y,z
-x,y,1/2-z
-x,-y,-z
x,-y,1/2+z
1/2+x,1/2+y,z
1/2-x,1/2+y,1/2-z
1/2-x,1/2-y,-z
1/2+x,1/2-y,1/2+z
loop_
_atom_site_type_symbol
_atom_site_label
_atom_site_fract_x
_atom_site_fract_y
_atom_site_fract_z
Si Si1 0.279154 0.943757 0.736431
Si Si2 0.281687 0.643348 0.779505
Si Si3 0.201819 0.843670 0.870028
Si Si4 0.217788 0.543718 0.651881
Si Si5 0.726287 0.304763 0.533280
O O1 0.500000 0.938884 0.750000
O O2 0.176841 0.898436 0.828848
O O3 0.271545 0.945596 0.542011
O O4 0.199703 0.992534 0.822878
O O5 0.500000 0.659359 0.750000
O O6 0.288006 0.587858 0.742766
O O7 0.193904 0.667068 0.636413
O O8 0.201352 0.656580 0.970971
O O9 0.301295 0.820406 0.695932
O O10 0.996812 0.818982 0.920741
O O11 0.000000 0.539434 0.750000
O O12 0.750000 0.250000 0.500000
#
# Coordination Sequence:
#
# PCOD9284939 Si02
#       5
#     8   8   8   8   8
#     4  11  21  38  64  99 135 181 222 269 330 396
#     4  10  21  41  65  97 132 171 218 275 328 393
#     4  10  21  42  66  93 132 167 221 275 330 399
#     4  11  21  38  63  98 141 179 224 267 324 403
#     4  10  22  43  66  90 128 171 219 279 337 394
#
# _framework density 24.291734999999999
#
# number of rings (size 3 to 8) (size 9 to 14) (size 15 to 20)
#    0.000    1.600    2.000    4.800    0.000    0.800 
#    7.200    6.000    0.000    0.000    0.000    0.000 
#    0.000    0.000    0.000    0.000    0.000    0.000 
#
# Total GULP energy -111913.730129 kJ/mol
# GULP energy per Si atom -5595.686506 kJ/mol
# Density = 2.423645 g / cm^3
# Si number density = 24.291735 Si / 1000 Ang^3
#
#
#
# Elastic Constant Matrix: (Units=GPa)
#
#
# Indices 1 2 3 4 5 6 
#
# 1 85.1333 22.2863 44.4654 0.0000 4.2628 0.0000
# 2 22.2863 190.8340 90.8394 0.0000 3.8031 0.0000
# 3 44.4654 90.8394 238.4713 0.0000 27.6949 0.0000
# 4 0.0000 0.0000 0.0000 19.2588 0.0000 -18.3487
# 5 4.2628 3.8031 27.6949 0.0000 34.1187 0.0000
# 6 0.0000 0.0000 0.0000 -18.3487 0.0000 28.0728
#
#
#
# Elastic Compliance Matrix: (Units=1/GPa)
#
#
# Indices 1 2 3 4 5 6 
#
# 1 0.013047 -0.000434 -0.002301 0.000000 0.000286 0.000000
# 2 -0.000434 0.006476 -0.002549 0.000000 0.001401 0.000000
# 3 -0.002301 -0.002549 0.006102 0.000000 -0.004382 0.000000
# 4 0.000000 0.000000 0.000000 0.137630 0.000000 0.089957
# 5 0.000286 0.001401 -0.004382 0.000000 0.032674 0.000000
# 6 0.000000 0.000000 0.000000 0.089957 0.000000 0.094419
#
#
# Mechanical properties :
#
#
# Convention : Reuss Voigt Hill
#
# Bulk Modulus (GPa) = 66.40805 92.18010 79.29408
# Shear Modulus (GPa) = 16.34333 40.07989 28.21161
#
# Velocity S-wave (km/s) = 2.59664 4.06635 3.41158
# Velocity P-wave (km/s) = 6.03217 7.75090 6.94491
#
# Compressibility (1/GPa) = 0.01505842
#
# Stress axis : x y z
#
# Youngs Moduli (GPa) = 76.64454 154.41273 163.87955
#
# Poissons Ratio (x) = 0.06706 0.37701
# Poissons Ratio (y) = 0.03329 0.41767
# Poissons Ratio (z) = 0.17632 0.39355
#
# Static dielectric constant tensor:
#      x y z
#    x 1.830440 0.000000 0.061830 
#    y 0.000000 1.895890 0.000000 
#    z 0.061830 0.000000 1.947790 
# 
# From -- ./inp_files/24404.got.cif
#   From: 2010.05.17/outbox.cif.g08.bks.cpg/sg15_13_cif.got.tgz:24404.got - 2010.06.03 18:47:42.
