data_PCOD9284715
_publ_section_title
;
Structure prediction by ZEFSAII (Michael W. Deem and Ramdas Pophale) SiO2 
 PCOD9284715
Probable space group: C 2/C
;
_chemical_formula_sum "Si O2"
_cell_formula_units_Z 48
_cell_length_a 11.124446
_cell_length_b 14.029448
_cell_length_c 15.741526
_cell_angle_alpha 90.000000
_cell_angle_beta 96.524912
_cell_angle_gamma 90.000000
_cell_volume 2440.863718
_symmetry_space_group_name_H-M "C 2/C"
_symmetry_group_IT_number 15
_symmetry_cell_setting 'monoclinic'
loop_
_space_group_symop_operation_xyz
x,y,z
-x,y,1/2-z
-x,-y,-z
x,-y,1/2+z
1/2+x,1/2+y,z
1/2-x,1/2+y,1/2-z
1/2-x,1/2-y,-z
1/2+x,1/2-y,1/2+z
loop_
_atom_site_type_symbol
_atom_site_label
_atom_site_fract_x
_atom_site_fract_y
_atom_site_fract_z
Si Si1 0.500000 0.348658 0.250000
Si Si2 0.591422 0.967628 0.581632
Si Si3 0.350948 0.755024 0.881794
Si Si4 0.000000 0.448943 0.250000
Si Si5 0.864513 0.958783 0.092454
Si Si6 0.982677 0.854720 0.527084
Si Si7 0.076291 0.737876 0.831875
O O1 0.580875 0.282554 0.195742
O O2 0.412923 0.412822 0.183658
O O3 0.597469 0.853626 0.579605
O O4 0.500000 0.000000 0.500000
O O5 0.553756 0.993379 0.675743
O O6 0.723691 0.014869 0.579768
O O7 0.210992 0.773492 0.853475
O O8 0.374982 0.673885 0.954013
O O9 0.087011 0.372543 0.304990
O O10 0.940670 0.054632 0.078381
O O11 0.903860 0.885219 0.020992
O O12 0.997268 0.764289 0.589705
O O13 0.000000 0.784220 0.750000
#
# Coordination Sequence:
#
# PCOD9284715 Si02
#       7
#     4   8   8   4   8   8   8
#     4  10  23  43  64  98 122 176 206 281 313 388
#     4  12  25  44  64 100 132 175 212 273 323 392
#     4  11  22  42  67  84 135 167 218 251 337 384
#     4  10  25  41  62  96 130 168 222 257 329 382
#     4  10  23  40  66  95 130 155 226 260 325 374
#     4  10  21  41  63  95 118 174 206 269 316 384
#     4  10  22  39  66  93 121 169 219 262 317 390
#
# _framework density 19.665171000000001
#
# number of rings (size 3 to 8) (size 9 to 14) (size 15 to 20)
#    0.500    1.000    1.667    3.000    3.500    0.000 
#    9.000    2.500    0.000    0.000    0.000    0.000 
#    0.000    0.000    0.000    0.000    0.000    0.000 
#
# Total GULP energy -133820.666853 kJ/mol
# GULP energy per Si atom -5575.861119 kJ/mol
# Density = 1.962041 g / cm^3
# Si number density = 19.665171 Si / 1000 Ang^3
#
#
#
# Elastic Constant Matrix: (Units=GPa)
#
#
# Indices 1 2 3 4 5 6 
#
# 1 87.3039 36.7319 63.2201 0.0000 -1.7916 0.0000
# 2 36.7319 88.9272 42.7038 0.0000 4.5850 0.0000
# 3 63.2201 42.7038 92.7043 0.0000 -4.2616 0.0000
# 4 0.0000 0.0000 0.0000 50.3160 0.0000 -8.1118
# 5 -1.7916 4.5850 -4.2616 0.0000 18.8436 0.0000
# 6 0.0000 0.0000 0.0000 -8.1118 0.0000 21.3410
#
#
#
# Elastic Compliance Matrix: (Units=1/GPa)
#
#
# Indices 1 2 3 4 5 6 
#
# 1 0.023070 -0.002487 -0.014610 0.000000 -0.000506 0.000000
# 2 -0.002487 0.015203 -0.005546 0.000000 -0.005190 0.000000
# 3 -0.014610 -0.005546 0.023548 0.000000 0.005286 0.000000
# 4 0.000000 0.000000 0.000000 0.021172 0.000000 0.008047
# 5 -0.000506 -0.005190 0.005286 0.000000 0.055479 0.000000
# 6 0.000000 0.000000 0.000000 0.008047 0.000000 0.049917
#
#
# Mechanical properties :
#
#
# Convention : Reuss Voigt Hill
#
# Bulk Modulus (GPa) = 60.47747 61.58300 61.03023
# Shear Modulus (GPa) = 20.90410 26.51876 23.71143
#
# Velocity S-wave (km/s) = 3.26391 3.67620 3.47617
# Velocity P-wave (km/s) = 6.71003 7.02873 6.87122
#
# Compressibility (1/GPa) = 0.01653508
#
# Stress axis : x y z
#
# Youngs Moduli (GPa) = 43.34579 65.77561 42.46599
#
# Poissons Ratio (x) = 0.16359 0.62045
# Poissons Ratio (y) = 0.10781 0.23551
# Poissons Ratio (z) = 0.63330 0.36478
#
# Static dielectric constant tensor:
#      x y z
#    x 1.671050 0.000000 -0.026900 
#    y 0.000000 1.714110 0.000000 
#    z -0.026900 0.000000 1.708250 
# 
# From -- ./inp_files/143783.got.cif
#   From: 2010.05.17/outbox.cif.g08.bks.cpg/sg15_72_cif.got.tgz:143783.got - 2010.06.03 18:47:42.
