data_PCOD9284989
_publ_section_title
;
Structure prediction by ZEFSAII (Michael W. Deem and Ramdas Pophale) SiO2 
 PCOD9284989
Probable space group: C 2/C
;
_chemical_formula_sum "Si O2"
_cell_formula_units_Z 36
_cell_length_a 19.606081
_cell_length_b 8.713566
_cell_length_c 14.962331
_cell_angle_alpha 90.000000
_cell_angle_beta 148.686079
_cell_angle_gamma 90.000000
_cell_volume 1328.498309
_symmetry_space_group_name_H-M "C 2/C"
_symmetry_group_IT_number 15
_symmetry_cell_setting 'monoclinic'
loop_
_space_group_symop_operation_xyz
x,y,z
-x,y,1/2-z
-x,-y,-z
x,-y,1/2+z
1/2+x,1/2+y,z
1/2-x,1/2+y,1/2-z
1/2-x,1/2-y,-z
1/2+x,1/2-y,1/2+z
loop_
_atom_site_type_symbol
_atom_site_label
_atom_site_fract_x
_atom_site_fract_y
_atom_site_fract_z
Si Si1 0.500000 0.155726 0.250000
Si Si2 0.898382 0.577717 0.816643
Si Si3 0.537768 0.572506 0.137652
Si Si4 0.708397 0.901055 0.119151
Si Si5 0.315763 0.404537 0.997629
O O1 0.567270 0.072239 0.409929
O O2 0.616470 0.280260 0.358652
O O3 0.953813 0.744584 0.854968
O O4 0.784907 0.588882 0.767032
O O5 0.815454 0.505577 0.641288
O O6 0.000000 0.500000 0.000000
O O7 0.686231 0.507139 0.312506
O O8 0.500000 0.500000 0.000000
O O9 0.433729 0.509375 0.092452
O O10 0.726890 0.719652 0.125185
#
# Coordination Sequence:
#
# PCOD9284989 Si02
#       5
#     4   8   8   8   8
#     4   8  22  44  66  90 134 168 214 260 340 390
#     4  12  24  38  65  97 132 170 218 270 324 379
#     4  12  21  37  65  97 125 169 216 272 317 383
#     4  10  21  41  66  92 125 170 218 257 321 391
#     4  10  23  42  63  93 128 166 218 268 316 389
#
# _framework density 27.098264
#
# number of rings (size 3 to 8) (size 9 to 14) (size 15 to 20)
#    1.333    0.000    4.444    1.333    3.111    0.889 
#    4.000    2.222    0.000    0.000    0.000    0.000 
#    0.000    0.000    0.000    0.000    0.000    0.000 
#
# Total GULP energy -100330.682166 kJ/mol
# GULP energy per Si atom -5573.926787 kJ/mol
# Density = 2.703659 g / cm^3
# Si number density = 27.098264 Si / 1000 Ang^3
#
#
#
# Elastic Constant Matrix: (Units=GPa)
#
#
# Indices 1 2 3 4 5 6 
#
# 1 59.5044 -4.8542 30.1972 0.0000 -23.6531 0.0000
# 2 -4.8542 162.8237 53.6019 0.0000 -15.6438 0.0000
# 3 30.1972 53.6019 208.8576 0.0000 -10.9385 0.0000
# 4 0.0000 0.0000 0.0000 64.4858 0.0000 -6.9304
# 5 -23.6531 -15.6438 -10.9385 0.0000 55.4084 0.0000
# 6 0.0000 0.0000 0.0000 -6.9304 0.0000 34.1788
#
#
#
# Elastic Compliance Matrix: (Units=1/GPa)
#
#
# Indices 1 2 3 4 5 6 
#
# 1 0.022680 0.002759 -0.003475 0.000000 0.009775 0.000000
# 2 0.002759 0.007182 -0.002096 0.000000 0.002792 0.000000
# 3 -0.003475 -0.002096 0.005779 0.000000 -0.000934 0.000000
# 4 0.000000 0.000000 0.000000 0.015853 0.000000 0.003214
# 5 0.009775 0.002792 -0.000934 0.000000 0.022824 0.000000
# 6 0.000000 0.000000 0.000000 0.003214 0.000000 0.029910
#
#
# Mechanical properties :
#
#
# Convention : Reuss Voigt Hill
#
# Bulk Modulus (GPa) = 33.31414 65.45283 49.38348
# Shear Modulus (GPa) = 41.71617 54.29732 48.00674
#
# Velocity S-wave (km/s) = 3.92783 4.48115 4.21358
# Velocity P-wave (km/s) = 5.73506 7.14007 6.47578
#
# Compressibility (1/GPa) = 0.03001729
#
# Stress axis : x y z
#
# Youngs Moduli (GPa) = 44.09235 139.23472 173.02817
#
# Poissons Ratio (x) = -0.38420 0.60133
# Poissons Ratio (y) = -0.12167 0.36266
# Poissons Ratio (z) = 0.15324 0.29183
#
# Static dielectric constant tensor:
#      x y z
#    x 2.354450 0.000000 0.175690 
#    y 0.000000 2.151890 0.000000 
#    z 0.175690 0.000000 2.312430 
# 
# From -- ./inp_files/109357.got.cif
#   From: 2010.05.17/outbox.cif.g08.bks.cpg/sg15_55_cif.got.tgz:109357.got - 2010.06.03 18:47:42.
