data_PCOD9284568
_publ_section_title
;
Structure prediction by ZEFSAII (Michael W. Deem and Ramdas Pophale) SiO2 
 PCOD9284568
Probable space group: C 2/C
;
_chemical_formula_sum "Si O2"
_cell_formula_units_Z 52
_cell_length_a 28.265959
_cell_length_b 13.903239
_cell_length_c 8.535891
_cell_angle_alpha 90.000000
_cell_angle_beta 40.290019
_cell_angle_gamma 90.000000
_cell_volume 2169.214495
_symmetry_space_group_name_H-M "C 2/C"
_symmetry_group_IT_number 15
_symmetry_cell_setting 'monoclinic'
loop_
_space_group_symop_operation_xyz
x,y,z
-x,y,1/2-z
-x,-y,-z
x,-y,1/2+z
1/2+x,1/2+y,z
1/2-x,1/2+y,1/2-z
1/2-x,1/2-y,-z
1/2+x,1/2-y,1/2+z
loop_
_atom_site_type_symbol
_atom_site_label
_atom_site_fract_x
_atom_site_fract_y
_atom_site_fract_z
Si Si1 0.209579 0.365991 0.943271
Si Si2 0.343777 0.948241 0.741234
Si Si3 0.076399 0.119519 0.901114
Si Si4 0.590256 0.447460 0.687740
Si Si5 0.425285 0.183486 0.246718
Si Si6 0.500000 0.032732 0.250000
Si Si7 0.138982 0.794190 0.805640
O O1 0.199990 0.400750 0.790344
O O2 0.286628 0.319338 0.792348
O O3 0.193031 0.455646 0.099830
O O4 0.152287 0.283098 0.134206
O O5 0.356384 0.876130 0.854732
O O6 0.425560 0.974133 0.469218
O O7 0.063081 0.231749 0.907177
O O8 0.109364 0.058431 0.672885
O O9 0.120039 0.094693 0.949258
O O10 0.995975 0.072955 0.110565
O O11 0.611792 0.388741 0.787293
O O12 0.484635 0.102643 0.139940
O O13 0.411682 0.241700 0.440688
#
# Coordination Sequence:
#
# PCOD9284568 Si02
#       7
#     8   8   8   8   8   4   8
#     4  11  25  45  66  95 135 181 233 280 338 415
#     4  12  25  45  68 102 139 177 232 288 353 414
#     4  10  22  37  64  98 133 175 221 290 340 412
#     4  10  21  41  61  96 136 176 229 278 347 401
#     4  12  24  41  68 103 134 178 228 282 357 413
#     4  12  24  42  72 104 142 180 220 300 352 416
#     4  11  24  44  68  93 135 185 227 281 336 412
#
# _framework density 23.971810000000001
#
# number of rings (size 3 to 8) (size 9 to 14) (size 15 to 20)
#    0.000    0.923    3.077    3.231    0.000    6.769 
#    0.000    0.000    0.000    0.000    0.000    0.000 
#    0.000    0.000    0.000    0.000    0.000    0.000 
#
# Total GULP energy -145386.468390 kJ/mol
# GULP energy per Si atom -5591.787246 kJ/mol
# Density = 2.391725 g / cm^3
# Si number density = 23.971810 Si / 1000 Ang^3
#
#
#
# Elastic Constant Matrix: (Units=GPa)
#
#
# Indices 1 2 3 4 5 6 
#
# 1 103.7072 15.5727 -0.4452 0.0000 20.3433 0.0000
# 2 15.5727 101.1170 -4.1596 0.0000 6.6621 0.0000
# 3 -0.4452 -4.1596 21.6647 0.0000 5.7591 0.0000
# 4 0.0000 0.0000 0.0000 25.0821 0.0000 6.0483
# 5 20.3433 6.6621 5.7591 0.0000 26.2394 0.0000
# 6 0.0000 0.0000 0.0000 6.0483 0.0000 53.5109
#
#
#
# Elastic Compliance Matrix: (Units=1/GPa)
#
#
# Indices 1 2 3 4 5 6 
#
# 1 0.011639 -0.001077 0.002505 0.000000 -0.009300 0.000000
# 2 -0.001077 0.010317 0.002584 0.000000 -0.002352 0.000000
# 3 0.002505 0.002584 0.050333 0.000000 -0.013645 0.000000
# 4 0.000000 0.000000 0.000000 0.040986 0.000000 -0.004633
# 5 -0.009300 -0.002352 -0.013645 0.000000 0.048913 0.000000
# 6 0.000000 0.000000 0.000000 -0.004633 0.000000 0.019211
#
#
# Mechanical properties :
#
#
# Convention : Reuss Voigt Hill
#
# Bulk Modulus (GPa) = 12.45140 27.60276 20.02708
# Shear Modulus (GPa) = 24.98164 35.33451 30.15808
#
# Velocity S-wave (km/s) = 3.23170 3.84344 3.55077
# Velocity P-wave (km/s) = 4.37386 5.58889 5.01828
#
# Compressibility (1/GPa) = 0.08031227
#
# Stress axis : x y z
#
# Youngs Moduli (GPa) = 85.91557 96.93125 19.86772
#
# Poissons Ratio (x) = 0.10437 -0.04976
# Poissons Ratio (y) = 0.09251 -0.05133
# Poissons Ratio (z) = -0.21519 -0.25045
#
# Static dielectric constant tensor:
#      x y z
#    x 1.894230 0.000000 0.067660 
#    y 0.000000 1.921790 0.000000 
#    z 0.067660 0.000000 2.034570 
# 
# From -- ./inp_files/66105.got.cif
#   From: 2010.05.17/outbox.cif.g08.bks.cpg/sg15_34_cif.got.tgz:66105.got - 2010.06.03 18:47:42.
