data_PCOD9284561
_publ_section_title
;
Structure prediction by ZEFSAII (Michael W. Deem and Ramdas Pophale) SiO2 
 PCOD9284561
Probable space group: C 2/C
;
_chemical_formula_sum "Si O2"
_cell_formula_units_Z 48
_cell_length_a 5.861060
_cell_length_b 17.387738
_cell_length_c 25.762641
_cell_angle_alpha 90.000000
_cell_angle_beta 49.752971
_cell_angle_gamma 90.000000
_cell_volume 2003.943802
_symmetry_space_group_name_H-M "C 2/C"
_symmetry_group_IT_number 15
_symmetry_cell_setting 'monoclinic'
loop_
_space_group_symop_operation_xyz
x,y,z
-x,y,1/2-z
-x,-y,-z
x,-y,1/2+z
1/2+x,1/2+y,z
1/2-x,1/2+y,1/2-z
1/2-x,1/2-y,-z
1/2+x,1/2-y,1/2+z
loop_
_atom_site_type_symbol
_atom_site_label
_atom_site_fract_x
_atom_site_fract_y
_atom_site_fract_z
Si Si1 0.201060 0.561275 0.094651
Si Si2 0.332634 0.524705 0.856115
Si Si3 0.912729 0.142573 0.156357
Si Si4 0.149561 0.294746 0.135957
Si Si5 0.000000 0.216118 0.250000
Si Si6 0.365528 0.422353 0.459485
Si Si7 0.500000 0.368033 0.250000
O O1 0.206448 0.627116 0.136744
O O2 0.493069 0.507540 0.054212
O O3 0.935928 0.500788 0.141656
O O4 0.178063 0.591633 0.039008
O O5 0.473165 0.443380 0.850308
O O6 0.218506 0.569396 0.924241
O O7 0.556176 0.577452 0.791367
O O8 0.132185 0.213131 0.108576
O O9 0.843571 0.169389 0.226057
O O10 0.224720 0.269392 0.184132
O O11 0.804372 0.323585 0.190599
O O12 0.376989 0.357820 0.082098
#
# Coordination Sequence:
#
# PCOD9284561 Si02
#       7
#     8   8   8   8   4   8   4
#     4  10  21  41  66  96 130 177 219 271 338 401
#     4  11  22  40  64 100 124 172 224 278 333 402
#     4   9  22  41  63  90 135 167 217 278 336 402
#     4  10  21  41  61  93 130 173 221 282 338 401
#     4   8  19  40  58  85 130 166 214 274 335 390
#     4  10  21  41  66  93 134 172 223 276 328 406
#     4  12  23  38  66  95 124 172 226 268 341 400
#
# _framework density 23.952764999999999
#
# number of rings (size 3 to 8) (size 9 to 14) (size 15 to 20)
#    1.000    1.000    1.667    2.000    0.000    2.000 
#    0.000    0.833    0.000    0.000    0.000    0.000 
#    0.000    0.000    0.000    0.000    0.000    0.000 
#
# Total GULP energy -133602.845983 kJ/mol
# GULP energy per Si atom -5566.785249 kJ/mol
# Density = 2.389825 g / cm^3
# Si number density = 23.952765 Si / 1000 Ang^3
#
#
#
# Elastic Constant Matrix: (Units=GPa)
#
#
# Indices 1 2 3 4 5 6 
#
# 1 43.0049 39.6740 36.8702 -0.0001 17.8194 -0.0004
# 2 39.6740 129.6144 44.4317 -0.0001 10.8810 0.0000
# 3 36.8702 44.4317 91.6712 0.0003 24.9749 -0.0001
# 4 -0.0001 -0.0001 0.0003 27.6837 0.0000 0.8995
# 5 17.8194 10.8810 24.9749 0.0000 34.2458 0.0001
# 6 -0.0004 0.0000 -0.0001 0.8995 0.0001 36.5634
#
#
#
# Elastic Compliance Matrix: (Units=1/GPa)
#
#
# Indices 1 2 3 4 5 6 
#
# 1 0.046661 -0.009568 -0.010412 0.000000 -0.013646 0.000001
# 2 -0.009568 0.011219 -0.002464 0.000000 0.003211 0.000000
# 3 -0.010412 -0.002464 0.018222 0.000000 -0.007088 0.000000
# 4 0.000000 0.000000 0.000000 0.036151 0.000000 -0.000889
# 5 -0.013646 0.003211 -0.007088 0.000000 0.040450 0.000000
# 6 0.000001 0.000000 0.000000 -0.000889 0.000000 0.027372
#
#
# Mechanical properties :
#
#
# Convention : Reuss Voigt Hill
#
# Bulk Modulus (GPa) = 32.03727 56.24913 44.14320
# Shear Modulus (GPa) = 21.24338 29.25290 25.24814
#
# Velocity S-wave (km/s) = 2.98129 3.49847 3.25018
# Velocity P-wave (km/s) = 5.02544 6.31295 5.70563
#
# Compressibility (1/GPa) = 0.03121365
#
# Stress axis : x y z
#
# Youngs Moduli (GPa) = 21.43121 89.13432 54.87945
#
# Poissons Ratio (x) = 0.85282 0.57140
# Poissons Ratio (y) = 0.20505 0.13524
# Poissons Ratio (z) = 0.22314 0.21966
#
# Static dielectric constant tensor:
#      x y z
#    x 2.074950 0.000000 0.057660 
#    y 0.000000 1.925470 0.000000 
#    z 0.057660 0.000000 1.945090 
# 
# From -- ./inp_files/285775.got.cif
#   From: 2010.05.17/outbox.cif.g08.bks.cpg/sg15_143_cif.got.tgz:285775.got - 2010.06.03 18:47:42.
