data_PCOD9284389
_publ_section_title
;
Structure prediction by ZEFSAII (Michael W. Deem and Ramdas Pophale) SiO2 
 PCOD9284389
Probable space group: C 2/C
;
_chemical_formula_sum "Si O2"
_cell_formula_units_Z 48
_cell_length_a 12.188811
_cell_length_b 14.562945
_cell_length_c 23.907746
_cell_angle_alpha 90.000000
_cell_angle_beta 34.767612
_cell_angle_gamma 90.000000
_cell_volume 2419.992087
_symmetry_space_group_name_H-M "C 2/C"
_symmetry_group_IT_number 15
_symmetry_cell_setting 'monoclinic'
loop_
_space_group_symop_operation_xyz
x,y,z
-x,y,1/2-z
-x,-y,-z
x,-y,1/2+z
1/2+x,1/2+y,z
1/2-x,1/2+y,1/2-z
1/2-x,1/2-y,-z
1/2+x,1/2-y,1/2+z
loop_
_atom_site_type_symbol
_atom_site_label
_atom_site_fract_x
_atom_site_fract_y
_atom_site_fract_z
Si Si1 0.000000 0.317532 0.750000
Si Si2 0.586764 0.008976 0.603944
Si Si3 0.274883 0.309904 0.544002
Si Si4 0.500000 0.112810 0.750000
Si Si5 0.301739 0.341672 0.942206
Si Si6 0.811784 0.256073 0.628259
Si Si7 0.247276 0.608778 0.246169
O O1 0.862973 0.267763 0.850784
O O2 0.850995 0.372717 0.772969
O O3 0.597773 0.056444 0.659815
O O4 0.671879 0.076332 0.521675
O O5 0.706186 0.913725 0.559820
O O6 0.359907 0.985009 0.690526
O O7 0.250000 0.250000 0.500000
O O8 0.494744 0.297193 0.469207
O O9 0.657318 0.180100 0.709869
O O10 0.258865 0.314416 0.895800
O O11 0.524347 0.375640 0.853239
O O12 0.250000 0.250000 0.000000
O O13 0.829392 0.320443 0.674868
#
# Coordination Sequence:
#
# PCOD9284389 Si02
#       7
#     4   8   8   4   8   8   8
#     4  10  21  40  70  93 138 184 227 282 348 419
#     4  11  25  43  68 104 141 186 237 290 354 428
#     4  11  23  45  68 103 141 184 230 291 355 422
#     4  12  25  42  68 107 130 186 237 292 350 413
#     4  12  24  45  71 106 139 189 232 293 359 424
#     4  12  23  45  74  97 142 182 229 294 359 418
#     4  11  23  45  66 103 142 179 234 290 349 423
#
# _framework density 19.834775
#
# number of rings (size 3 to 8) (size 9 to 14) (size 15 to 20)
#    0.000    0.667    6.667    3.000    2.333    1.333 
#    0.000    0.000    0.000    0.000    0.000    0.000 
#    0.000    0.000    0.000    0.000    0.000    0.000 
#
# Total GULP energy -133844.953741 kJ/mol
# GULP energy per Si atom -5576.873073 kJ/mol
# Density = 1.978963 g / cm^3
# Si number density = 19.834775 Si / 1000 Ang^3
#
#
#
# Elastic Constant Matrix: (Units=GPa)
#
#
# Indices 1 2 3 4 5 6 
#
# 1 100.9541 42.8904 42.7317 -0.0002 -5.8405 0.0000
# 2 42.8904 86.2553 41.6281 -0.0004 10.2959 0.0001
# 3 42.7317 41.6281 133.8590 -0.0010 -4.6839 0.0002
# 4 -0.0002 -0.0004 -0.0010 46.0837 0.0003 -9.2218
# 5 -5.8405 10.2959 -4.6839 0.0003 49.1997 0.0000
# 6 0.0000 0.0001 0.0002 -9.2218 0.0000 25.7269
#
#
#
# Elastic Compliance Matrix: (Units=1/GPa)
#
#
# Indices 1 2 3 4 5 6 
#
# 1 0.013586 -0.005906 -0.002409 0.000000 0.002619 0.000000
# 2 -0.005906 0.016753 -0.003483 0.000000 -0.004539 0.000000
# 3 -0.002409 -0.003483 0.009370 0.000000 0.001335 0.000000
# 4 0.000000 0.000000 0.000000 0.023376 0.000000 0.008379
# 5 0.002619 -0.004539 0.001335 0.000000 0.021713 0.000000
# 6 0.000000 0.000000 0.000000 0.008379 0.000000 0.041873
#
#
# Mechanical properties :
#
#
# Convention : Reuss Voigt Hill
#
# Bulk Modulus (GPa) = 62.06375 63.95209 63.00792
# Shear Modulus (GPa) = 32.12599 37.12329 34.62464
#
# Velocity S-wave (km/s) = 4.02889 4.33092 4.18263
# Velocity P-wave (km/s) = 7.28017 7.57110 7.42706
#
# Compressibility (1/GPa) = 0.01611246
#
# Stress axis : x y z
#
# Youngs Moduli (GPa) = 73.60749 59.69094 106.72917
#
# Poissons Ratio (x) = 0.35251 0.25708
# Poissons Ratio (y) = 0.43470 0.37179
# Poissons Ratio (z) = 0.17730 0.20793
#
# Static dielectric constant tensor:
#      x y z
#    x 1.724610 0.000000 -0.036990 
#    y 0.000000 1.701270 0.000000 
#    z -0.036990 0.000000 1.728140 
# 
# From -- ./inp_files/238970.got.cif
#   From: 2010.05.17/outbox.cif.g08.bks.cpg/sg15_120_cif.got.tgz:238970.got - 2010.06.03 18:47:42.
