data_PCOD9284840
_publ_section_title
;
Structure prediction by ZEFSAII (Michael W. Deem and Ramdas Pophale) SiO2 
 PCOD9284840
Probable space group: C 2/C
;
_chemical_formula_sum "Si O2"
_cell_formula_units_Z 40
_cell_length_a 11.518267
_cell_length_b 19.259694
_cell_length_c 17.211383
_cell_angle_alpha 90.000000
_cell_angle_beta 154.401950
_cell_angle_gamma 90.000000
_cell_volume 1649.648379
_symmetry_space_group_name_H-M "C 2/C"
_symmetry_group_IT_number 15
_symmetry_cell_setting 'monoclinic'
loop_
_space_group_symop_operation_xyz
x,y,z
-x,y,1/2-z
-x,-y,-z
x,-y,1/2+z
1/2+x,1/2+y,z
1/2-x,1/2+y,1/2-z
1/2-x,1/2-y,-z
1/2+x,1/2-y,1/2+z
loop_
_atom_site_type_symbol
_atom_site_label
_atom_site_fract_x
_atom_site_fract_y
_atom_site_fract_z
Si Si1 0.511050 0.698189 0.585841
Si Si2 0.445872 0.922316 0.939792
Si Si3 0.000000 0.841774 0.250000
Si Si4 0.916577 0.706545 0.509578
Si Si5 0.500000 0.829702 0.250000
Si Si6 0.029766 0.078162 0.047275
O O1 0.453940 0.700083 0.642103
O O2 0.459822 0.761198 0.496731
O O3 0.387746 0.629614 0.473652
O O4 0.841872 0.692691 0.783648
O O5 0.319283 0.869701 0.927506
O O6 0.251279 0.918709 0.748427
O O7 0.742465 0.891492 0.104651
O O8 0.500000 0.000000 0.000000
O O9 0.715540 0.767659 0.407419
O O10 0.744908 0.888808 0.400442
O O11 0.000000 0.000000 0.000000
#
# Coordination Sequence:
#
# PCOD9284840 Si02
#       6
#     8   8   4   8   4   8
#     4  10  22  40  66  99 136 180 237 292 346 425
#     4  11  25  44  68  99 138 186 242 295 355 439
#     4  10  24  45  66  93 136 188 234 298 366 403
#     4  10  21  41  65 100 135 175 239 287 345 426
#     4  10  24  43  74 103 142 190 224 302 366 409
#     4  11  24  42  65 102 142 182 237 289 356 443
#
# _framework density 24.247591
#
# number of rings (size 3 to 8) (size 9 to 14) (size 15 to 20)
#    0.000    1.600    0.000    4.800    0.000   15.200 
#    0.000    0.000    0.000    0.000    0.000    0.000 
#    0.000    0.000    0.000    0.000    0.000    0.000 
#
# Total GULP energy -111416.018716 kJ/mol
# GULP energy per Si atom -5570.800936 kJ/mol
# Density = 2.419240 g / cm^3
# Si number density = 24.247591 Si / 1000 Ang^3
#
#
#
# Elastic Constant Matrix: (Units=GPa)
#
#
# Indices 1 2 3 4 5 6 
#
# 1 63.3959 37.4641 55.4106 -0.0139 -4.6734 0.0040
# 2 37.4641 227.0019 90.0093 0.0042 -15.5170 0.0051
# 3 55.4106 90.0093 217.4049 -0.0175 -27.9924 -0.0003
# 4 -0.0139 0.0042 -0.0175 56.0818 -0.0162 -10.2073
# 5 -4.6734 -15.5170 -27.9924 -0.0162 60.4112 -0.0006
# 6 0.0040 0.0051 -0.0003 -10.2073 -0.0006 -19.4646
#
#
#
# Elastic Compliance Matrix: (Units=1/GPa)
#
#
# Indices 1 2 3 4 5 6 
#
# 1 0.020822 -0.001615 -0.004769 0.000004 -0.001014 0.000002
# 2 -0.001615 0.005403 -0.001768 -0.000001 0.000444 0.000002
# 3 -0.004769 -0.001768 0.006850 0.000001 0.002351 -0.000002
# 4 0.000004 -0.000001 0.000001 0.016278 0.000005 -0.008536
# 5 -0.001014 0.000444 0.002351 0.000005 0.017678 -0.000003
# 6 0.000002 0.000002 -0.000002 -0.008536 -0.000003 -0.046899
#
#
# Mechanical properties :
#
#
# Convention : Reuss Voigt Hill
#
# Bulk Modulus (GPa) = 59.62714 97.06340 78.34527
# Shear Modulus (GPa) = 118.97555 41.06694 80.02124
#
# Velocity S-wave (km/s) = 7.01238 4.11986 5.75095
# Velocity P-wave (km/s) = 9.49784 7.92137 8.74520
#
# Compressibility (1/GPa) = 0.01677089
#
# Stress axis : x y z
#
# Youngs Moduli (GPa) = 48.02717 185.07395 145.98565
#
# Poissons Ratio (x) = 0.29885 0.69618
# Poissons Ratio (y) = 0.07755 0.25816
# Poissons Ratio (z) = 0.22903 0.32728
#
# Static dielectric constant tensor:
#      x y z
#    x 1.724240 0.000000 0.130270 
#    y 0.000000 1.836500 -0.000010 
#    z 0.130270 -0.000010 1.914030 
# 
# From -- ./inp_files/245095.got.cif
#   From: 2010.05.17/outbox.cif.g08.bks.cpg/sg15_123_cif.got.tgz:245095.got - 2010.06.03 18:47:42.
