data_PCOD9284642
_publ_section_title
;
Structure prediction by ZEFSAII (Michael W. Deem and Ramdas Pophale) SiO2 
 PCOD9284642
Probable space group: C 2/C
;
_chemical_formula_sum "Si O2"
_cell_formula_units_Z 48
_cell_length_a 6.766673
_cell_length_b 14.005461
_cell_length_c 24.406330
_cell_angle_alpha 90.000000
_cell_angle_beta 86.792084
_cell_angle_gamma 90.000000
_cell_volume 2309.372673
_symmetry_space_group_name_H-M "C 2/C"
_symmetry_group_IT_number 15
_symmetry_cell_setting 'monoclinic'
loop_
_space_group_symop_operation_xyz
x,y,z
-x,y,1/2-z
-x,-y,-z
x,-y,1/2+z
1/2+x,1/2+y,z
1/2-x,1/2+y,1/2-z
1/2-x,1/2-y,-z
1/2+x,1/2-y,1/2+z
loop_
_atom_site_type_symbol
_atom_site_label
_atom_site_fract_x
_atom_site_fract_y
_atom_site_fract_z
Si Si1 0.254265 0.415826 0.340675
Si Si2 0.662330 0.900191 0.899367
Si Si3 0.559654 0.312005 0.519365
Si Si4 0.659702 0.260552 0.077931
Si Si5 0.792949 0.321884 0.724216
Si Si6 0.500000 0.845673 0.250000
Si Si7 0.500000 0.521751 0.250000
O O1 0.164067 0.486918 0.387642
O O2 0.320610 0.315439 0.365201
O O3 0.082162 0.405152 0.298781
O O4 0.436337 0.460746 0.303563
O O5 0.839478 0.884897 0.940101
O O6 0.466994 0.838683 0.919676
O O7 0.705845 0.855538 0.838737
O O8 0.750000 0.250000 0.500000
O O9 0.453514 0.331492 0.462769
O O10 0.381858 0.259264 0.553990
O O11 0.674826 0.223927 0.728839
O O12 0.678774 0.405410 0.758944
O O13 0.000000 0.309936 0.750000
#
# Coordination Sequence:
#
# PCOD9284642 Si02
#       7
#     8   8   8   8   8   4   4
#     4  11  24  41  61  96 131 171 215 265 318 390
#     4  10  22  38  61  93 125 161 210 263 321 381
#     4   9  20  43  66  92 122 159 215 266 324 393
#     4  10  21  42  68  88 124 168 206 268 328 377
#     4  10  21  41  63  84 125 176 215 261 314 374
#     4  11  24  38  57  90 128 168 223 258 306 381
#     4   9  24  40  57  92 130 162 217 262 312 381
#
# _framework density 20.784863999999999
#
# number of rings (size 3 to 8) (size 9 to 14) (size 15 to 20)
#    0.000    2.000    0.000    2.000    8.167    3.333 
#    0.000    7.500    0.000    0.000    0.000    0.000 
#    0.000    0.000    0.000    0.000    0.000    0.000 
#
# Total GULP energy -133800.267092 kJ/mol
# GULP energy per Si atom -5575.011129 kJ/mol
# Density = 2.073756 g / cm^3
# Si number density = 20.784864 Si / 1000 Ang^3
#
#
#
# Elastic Constant Matrix: (Units=GPa)
#
#
# Indices 1 2 3 4 5 6 
#
# 1 112.0172 15.5089 19.7436 0.0000 -7.2286 0.0000
# 2 15.5089 33.9668 -3.0995 0.0000 -8.9105 0.0000
# 3 19.7436 -3.0995 49.6725 0.0000 3.5150 0.0000
# 4 0.0000 0.0000 0.0000 40.1749 0.0000 2.2076
# 5 -7.2286 -8.9105 3.5150 0.0000 32.7379 0.0000
# 6 0.0000 0.0000 0.0000 2.2076 0.0000 9.7687
#
#
#
# Elastic Compliance Matrix: (Units=1/GPa)
#
#
# Indices 1 2 3 4 5 6 
#
# 1 0.010498 -0.004818 -0.004579 0.000000 0.001498 0.000000
# 2 -0.004818 0.034009 0.003484 0.000000 0.007819 0.000000
# 3 -0.004579 0.003484 0.022344 0.000000 -0.002462 0.000000
# 4 0.000000 0.000000 0.000000 0.025204 0.000000 -0.005696
# 5 0.001498 0.007819 -0.002462 0.000000 0.033269 0.000000
# 6 0.000000 0.000000 0.000000 -0.005696 0.000000 0.103654
#
#
# Mechanical properties :
#
#
# Convention : Reuss Voigt Hill
#
# Bulk Modulus (GPa) = 18.17386 28.88472 23.52929
# Shear Modulus (GPa) = 19.29405 27.43655 23.36530
#
# Velocity S-wave (km/s) = 3.05006 3.63716 3.35647
# Velocity P-wave (km/s) = 4.60072 5.61834 5.13480
#
# Compressibility (1/GPa) = 0.05502408
#
# Stress axis : x y z
#
# Youngs Moduli (GPa) = 95.25513 29.40357 44.75538
#
# Poissons Ratio (x) = 0.14167 0.20495
# Poissons Ratio (y) = 0.45896 -0.15593
# Poissons Ratio (z) = 0.43621 -0.10244
#
# Static dielectric constant tensor:
#      x y z
#    x 1.711800 0.000000 -0.021460 
#    y 0.000000 1.766080 0.000000 
#    z -0.021460 0.000000 1.768820 
# 
# From -- ./inp_files/285606.got.cif
#   From: 2010.05.17/outbox.cif.g08.bks.cpg/sg15_143_cif.got.tgz:285606.got - 2010.06.03 18:47:42.
