data_PCOD9284405
_publ_section_title
;
Structure prediction by ZEFSAII (Michael W. Deem and Ramdas Pophale) SiO2 
 PCOD9284405
Probable space group: C 2/C
;
_chemical_formula_sum "Si O2"
_cell_formula_units_Z 48
_cell_length_a 24.107048
_cell_length_b 14.515007
_cell_length_c 11.641792
_cell_angle_alpha 90.000000
_cell_angle_beta 28.053989
_cell_angle_gamma 90.000000
_cell_volume 1915.839768
_symmetry_space_group_name_H-M "C 2/C"
_symmetry_group_IT_number 15
_symmetry_cell_setting 'monoclinic'
loop_
_space_group_symop_operation_xyz
x,y,z
-x,y,1/2-z
-x,-y,-z
x,-y,1/2+z
1/2+x,1/2+y,z
1/2-x,1/2+y,1/2-z
1/2-x,1/2-y,-z
1/2+x,1/2-y,1/2+z
loop_
_atom_site_type_symbol
_atom_site_label
_atom_site_fract_x
_atom_site_fract_y
_atom_site_fract_z
Si Si1 0.592810 0.434416 0.264521
Si Si2 0.128329 0.731558 0.469133
Si Si3 0.160497 0.559248 0.045449
Si Si4 0.831820 0.635342 0.892279
Si Si5 0.305162 0.425497 0.070715
Si Si6 0.951099 0.276034 0.628357
O O1 0.500000 0.500000 0.500000
O O2 0.714119 0.432787 0.117015
O O3 0.551976 0.329354 0.328204
O O4 0.622444 0.483603 0.089767
O O5 0.210565 0.681094 0.411094
O O6 0.133954 0.841192 0.475322
O O7 0.138940 0.711080 0.316017
O O8 0.000000 0.701647 0.750000
O O9 0.191145 0.551495 0.855272
O O10 0.109195 0.463151 0.184995
O O11 0.085674 0.649011 0.211130
O O12 0.728728 0.614860 0.991384
O O13 0.923860 0.698482 0.656104
#
# Coordination Sequence:
#
# PCOD9284405 Si02
#       6
#     8   8   8   8   8   8
#     4  11  24  43  68  98 133 176 224 277 331 396
#     4  10  21  40  70  97 132 180 224 272 331 402
#     4  11  25  42  68 100 135 177 220 281 332 404
#     4  10  24  41  66 101 137 175 220 282 332 397
#     4  11  24  41  67 100 140 168 228 275 344 389
#     4  11  23  46  71  98 133 181 229 267 337 406
#
# _framework density 25.054286999999999
#
# number of rings (size 3 to 8) (size 9 to 14) (size 15 to 20)
#    0.000    1.333    1.667    3.500    4.667    2.000 
#    3.000    1.667    0.000    0.000    0.000    0.000 
#    0.000    0.000    0.000    0.000    0.000    0.000 
#
# Total GULP energy -134358.087777 kJ/mol
# GULP energy per Si atom -5598.253657 kJ/mol
# Density = 2.499726 g / cm^3
# Si number density = 25.054287 Si / 1000 Ang^3
#
#
#
# Elastic Constant Matrix: (Units=GPa)
#
#
# Indices 1 2 3 4 5 6 
#
# 1 60.9497 21.8040 21.6868 0.0000 11.4761 0.0000
# 2 21.8040 208.2308 68.4090 0.0000 21.7177 0.0000
# 3 21.6868 68.4090 82.8082 0.0000 30.8939 0.0000
# 4 0.0000 0.0000 0.0000 40.3837 0.0000 -2.6940
# 5 11.4761 21.7177 30.8939 0.0000 38.6552 0.0000
# 6 0.0000 0.0000 0.0000 -2.6940 0.0000 24.8707
#
#
#
# Elastic Compliance Matrix: (Units=1/GPa)
#
#
# Indices 1 2 3 4 5 6 
#
# 1 0.018274 -0.000527 -0.003472 0.000000 -0.002354 0.000000
# 2 -0.000527 0.006630 -0.005710 0.000000 0.000995 0.000000
# 3 -0.003472 -0.005710 0.022970 0.000000 -0.014119 0.000000
# 4 0.000000 0.000000 0.000000 0.024943 0.000000 0.002702
# 5 -0.002354 0.000995 -0.014119 0.000000 0.037294 0.000000
# 6 0.000000 0.000000 0.000000 0.002702 0.000000 0.040501
#
#
# Mechanical properties :
#
#
# Convention : Reuss Voigt Hill
#
# Bulk Modulus (GPa) = 35.14284 63.97647 49.55966
# Shear Modulus (GPa) = 27.85283 36.78786 32.32034
#
# Velocity S-wave (km/s) = 3.33783 3.83603 3.59557
# Velocity P-wave (km/s) = 5.37698 6.72389 6.08780
#
# Compressibility (1/GPa) = 0.02845530
#
# Stress axis : x y z
#
# Youngs Moduli (GPa) = 54.72175 150.83672 43.53474
#
# Poissons Ratio (x) = 0.07955 0.15115
# Poissons Ratio (y) = 0.02886 0.24859
# Poissons Ratio (z) = 0.18999 0.86130
#
# Static dielectric constant tensor:
#      x y z
#    x 2.100610 0.000000 -0.044810 
#    y 0.000000 1.976350 0.000000 
#    z -0.044810 0.000000 1.954360 
# 
# From -- ./inp_files/123433.got.cif
#   From: 2010.05.17/outbox.cif.g08.bks.cpg/sg15_62_cif.got.tgz:123433.got - 2010.06.03 18:47:42.
