data_PCOD9284565
_publ_section_title
;
Structure prediction by ZEFSAII (Michael W. Deem and Ramdas Pophale) SiO2 
 PCOD9284565
Probable space group: C 2/C
;
_chemical_formula_sum "Si O2"
_cell_formula_units_Z 52
_cell_length_a 15.384811
_cell_length_b 17.250003
_cell_length_c 15.928205
_cell_angle_alpha 90.000000
_cell_angle_beta 140.001445
_cell_angle_gamma 90.000000
_cell_volume 2717.081216
_symmetry_space_group_name_H-M "C 2/C"
_symmetry_group_IT_number 15
_symmetry_cell_setting 'monoclinic'
loop_
_space_group_symop_operation_xyz
x,y,z
-x,y,1/2-z
-x,-y,-z
x,-y,1/2+z
1/2+x,1/2+y,z
1/2-x,1/2+y,1/2-z
1/2-x,1/2-y,-z
1/2+x,1/2-y,1/2+z
loop_
_atom_site_type_symbol
_atom_site_label
_atom_site_fract_x
_atom_site_fract_y
_atom_site_fract_z
Si Si1 0.201109 0.489307 0.097748
Si Si2 0.860620 0.043236 0.375172
Si Si3 0.837486 0.494480 0.617075
Si Si4 0.986608 0.374028 0.442057
Si Si5 0.986472 0.190611 0.047841
Si Si6 0.192367 0.654070 0.847602
Si Si7 0.000000 0.213989 0.250000
O O1 0.314911 0.508771 0.251084
O O2 0.112911 0.418378 0.068805
O O3 0.221116 0.465413 0.015315
O O4 0.115728 0.570012 0.036401
O O5 0.745827 0.030334 0.361374
O O6 0.898009 0.134405 0.400573
O O7 0.000000 0.000000 0.500000
O O8 0.805664 0.585923 0.585101
O O9 0.000000 0.480292 0.750000
O O10 0.915481 0.375668 0.299323
O O11 0.003268 0.281635 0.467112
O O12 0.990602 0.176046 0.152110
O O13 0.836214 0.165143 0.911061
O O14 0.133092 0.732190 0.841715
#
# Coordination Sequence:
#
# PCOD9284565 Si02
#       7
#     8   8   8   8   8   8   4
#     4  11  22  40  68  90 124 174 219 253 318 385
#     4  12  26  43  61  97 135 168 207 269 326 369
#     4  12  21  41  68  90 126 172 221 259 307 392
#     4  10  21  41  61  95 124 166 214 265 312 383
#     4  11  24  36  60  93 134 161 203 267 330 375
#     4  11  19  39  59  89 135 155 198 268 324 375
#     4  10  22  34  58  96 118 166 202 252 330 394
#
# _framework density 19.138183000000001
#
# number of rings (size 3 to 8) (size 9 to 14) (size 15 to 20)
#    0.000    0.923    5.385    2.308    6.462    0.615 
#    0.000    0.769    0.000    0.000    0.000    0.000 
#    0.000    0.000    0.000    0.000    0.000    0.000 
#
# Total GULP energy -144889.262312 kJ/mol
# GULP energy per Si atom -5572.663935 kJ/mol
# Density = 1.909462 g / cm^3
# Si number density = 19.138183 Si / 1000 Ang^3
#
#
#
# Elastic Constant Matrix: (Units=GPa)
#
#
# Indices 1 2 3 4 5 6 
#
# 1 89.0886 33.3207 35.0020 0.0001 6.7599 0.0001
# 2 33.3207 67.8897 34.3510 0.0000 0.2955 0.0000
# 3 35.0020 34.3510 106.9362 0.0001 3.4410 0.0001
# 4 0.0001 0.0000 0.0001 18.3063 0.0001 0.9717
# 5 6.7599 0.2955 3.4410 0.0001 27.9731 0.0001
# 6 0.0001 0.0000 0.0001 0.9717 0.0001 21.5253
#
#
#
# Elastic Compliance Matrix: (Units=1/GPa)
#
#
# Indices 1 2 3 4 5 6 
#
# 1 0.014752 -0.005773 -0.002873 0.000000 -0.003151 0.000000
# 2 -0.005773 0.019855 -0.004545 0.000000 0.001744 0.000000
# 3 -0.002873 -0.004545 0.011774 0.000000 -0.000706 0.000000
# 4 0.000000 0.000000 0.000000 0.054757 0.000000 -0.002472
# 5 -0.003151 0.001744 -0.000706 0.000000 0.036578 0.000000
# 6 0.000000 0.000000 0.000000 -0.002472 0.000000 0.046569
#
#
# Mechanical properties :
#
#
# Convention : Reuss Voigt Hill
#
# Bulk Modulus (GPa) = 49.99861 52.14020 51.06941
# Shear Modulus (GPa) = 23.00626 24.31035 23.65830
#
# Velocity S-wave (km/s) = 3.47091 3.56793 3.51975
# Velocity P-wave (km/s) = 6.49960 6.65407 6.57729
#
# Compressibility (1/GPa) = 0.02000056
#
# Stress axis : x y z
#
# Youngs Moduli (GPa) = 67.78895 50.36500 84.93153
#
# Poissons Ratio (x) = 0.29076 0.24398
# Poissons Ratio (y) = 0.39135 0.38598
# Poissons Ratio (z) = 0.19473 0.22889
#
# Static dielectric constant tensor:
#      x y z
#    x 1.714030 0.000000 -0.011240 
#    y 0.000000 1.722360 0.000000 
#    z -0.011240 0.000000 1.728430 
# 
# From -- ./inp_files/155545.got.cif
#   From: 2010.05.17/outbox.cif.g08.bks.cpg/sg15_78_cif.got.tgz:155545.got - 2010.06.03 18:47:42.
