data_PCOD9284941
_publ_section_title
;
Structure prediction by ZEFSAII (Michael W. Deem and Ramdas Pophale) SiO2 
 PCOD9284941
Probable space group: C 2/C
;
_chemical_formula_sum "Si O2"
_cell_formula_units_Z 52
_cell_length_a 19.114471
_cell_length_b 18.983981
_cell_length_c 8.710242
_cell_angle_alpha 90.000000
_cell_angle_beta 126.660584
_cell_angle_gamma 90.000000
_cell_volume 2535.450812
_symmetry_space_group_name_H-M "C 2/C"
_symmetry_group_IT_number 15
_symmetry_cell_setting 'monoclinic'
loop_
_space_group_symop_operation_xyz
x,y,z
-x,y,1/2-z
-x,-y,-z
x,-y,1/2+z
1/2+x,1/2+y,z
1/2-x,1/2+y,1/2-z
1/2-x,1/2-y,-z
1/2+x,1/2-y,1/2+z
loop_
_atom_site_type_symbol
_atom_site_label
_atom_site_fract_x
_atom_site_fract_y
_atom_site_fract_z
Si Si1 0.097297 0.140572 0.387687
Si Si2 0.434134 0.518499 0.553288
Si Si3 0.247845 0.589356 0.348682
Si Si4 0.000000 0.519697 0.750000
Si Si5 0.281222 0.293664 0.689017
Si Si6 0.125881 0.545431 0.663588
Si Si7 0.750608 0.838978 0.185802
O O1 0.139769 0.164131 0.283952
O O2 0.155172 0.165807 0.607861
O O3 0.000000 0.168587 0.250000
O O4 0.091677 0.056307 0.402714
O O5 0.500000 0.560557 0.750000
O O6 0.500000 0.500000 0.500000
O O7 0.341572 0.557016 0.421203
O O8 0.221109 0.645976 0.184217
O O9 0.179825 0.525678 0.271151
O O10 0.255844 0.630070 0.521587
O O11 0.935277 0.563285 0.773024
O O12 0.939291 0.472041 0.561418
O O13 0.250000 0.250000 0.500000
O O14 0.294263 0.236622 0.841594
O O15 0.194317 0.604806 0.708755
#
# Coordination Sequence:
#
# PCOD9284941 Si02
#       7
#     8   8   8   4   8   8   8
#     4  10  21  41  65  97 136 172 217 267 332 400
#     4  11  22  35  62 102 136 164 216 270 325 392
#     4  12  23  40  72  94 134 178 216 283 335 392
#     4  10  24  42  64  98 132 160 222 298 332 388
#     4  10  25  42  64  92 134 178 224 266 327 410
#     4  11  23  42  70  99 128 168 223 284 343 385
#     4  11  23  42  67  99 133 176 228 268 333 406
#
# _framework density 20.509173000000001
#
# number of rings (size 3 to 8) (size 9 to 14) (size 15 to 20)
#    0.000    1.231    3.077    3.231    6.462    0.000 
#    1.385    1.538    1.692    0.000    0.000    0.000 
#    0.000    0.000    0.000    0.000    0.000    0.000 
#
# Total GULP energy -144925.689760 kJ/mol
# GULP energy per Si atom -5574.064991 kJ/mol
# Density = 2.046249 g / cm^3
# Si number density = 20.509173 Si / 1000 Ang^3
#
#
#
# Elastic Constant Matrix: (Units=GPa)
#
#
# Indices 1 2 3 4 5 6 
#
# 1 153.1596 55.6607 47.3236 0.0000 -9.1189 0.0000
# 2 55.6607 90.9651 10.8403 0.0000 -8.8362 0.0000
# 3 47.3236 10.8403 94.1175 0.0000 4.0758 0.0000
# 4 0.0000 0.0000 0.0000 13.3433 0.0000 -7.9467
# 5 -9.1189 -8.8362 4.0758 0.0000 21.5458 0.0000
# 6 0.0000 0.0000 0.0000 -7.9467 0.0000 18.6535
#
#
#
# Elastic Compliance Matrix: (Units=1/GPa)
#
#
# Indices 1 2 3 4 5 6 
#
# 1 0.010048 -0.005319 -0.004567 0.000000 0.002935 0.000000
# 2 -0.005319 0.014489 0.000853 0.000000 0.003530 0.000000
# 3 -0.004567 0.000853 0.012998 0.000000 -0.004042 0.000000
# 4 0.000000 0.000000 0.000000 0.100423 0.000000 0.042782
# 5 0.002935 0.003530 -0.004042 0.000000 0.049867 0.000000
# 6 0.000000 0.000000 0.000000 0.042782 0.000000 0.071835
#
#
# Mechanical properties :
#
#
# Convention : Reuss Voigt Hill
#
# Bulk Modulus (GPa) = 51.36304 62.87685 57.11995
# Shear Modulus (GPa) = 17.59225 25.66970 21.63098
#
# Velocity S-wave (km/s) = 2.93196 3.54166 3.25113
# Velocity P-wave (km/s) = 6.04650 6.88832 6.48109
#
# Compressibility (1/GPa) = 0.01946925
#
# Stress axis : x y z
#
# Youngs Moduli (GPa) = 99.52337 69.01763 76.93470
#
# Poissons Ratio (x) = 0.36710 0.35134
# Poissons Ratio (y) = 0.52935 -0.06560
# Poissons Ratio (z) = 0.45449 -0.05885
#
# Static dielectric constant tensor:
#      x y z
#    x 1.758550 0.000000 -0.028230 
#    y 0.000000 1.753370 0.000000 
#    z -0.028230 0.000000 1.813750 
# 
# From -- ./inp_files/50716.got.cif
#   From: 2010.05.17/outbox.cif.g08.bks.cpg/sg15_26_cif.got.tgz:50716.got - 2010.06.03 18:47:42.
