data_PCOD9284614
_publ_section_title
;
Structure prediction by ZEFSAII (Michael W. Deem and Ramdas Pophale) SiO2 
 PCOD9284614
Probable space group: C 2/C
;
_chemical_formula_sum "Si O2"
_cell_formula_units_Z 60
_cell_length_a 21.635500
_cell_length_b 16.958274
_cell_length_c 9.442446
_cell_angle_alpha 90.000000
_cell_angle_beta 59.299888
_cell_angle_gamma 90.000000
_cell_volume 2978.903488
_symmetry_space_group_name_H-M "C 2/C"
_symmetry_group_IT_number 15
_symmetry_cell_setting 'monoclinic'
loop_
_space_group_symop_operation_xyz
x,y,z
-x,y,1/2-z
-x,-y,-z
x,-y,1/2+z
1/2+x,1/2+y,z
1/2-x,1/2+y,1/2-z
1/2-x,1/2-y,-z
1/2+x,1/2-y,1/2+z
loop_
_atom_site_type_symbol
_atom_site_label
_atom_site_fract_x
_atom_site_fract_y
_atom_site_fract_z
Si Si1 0.000000 0.533176 0.250000
Si Si2 0.797780 0.898907 0.607417
Si Si3 0.433584 0.247581 0.723091
Si Si4 0.292233 0.175210 0.507883
Si Si5 0.706581 0.327349 0.586255
Si Si6 0.585736 0.074490 0.869324
Si Si7 0.245928 0.436820 0.204215
Si Si8 0.576334 0.712378 0.583474
O O1 0.051261 0.478042 0.285584
O O2 0.959227 0.576880 0.429436
O O3 0.728007 0.889450 0.587670
O O4 0.788910 0.842767 0.752723
O O5 0.871161 0.863804 0.452439
O O6 0.797495 0.988506 0.663162
O O7 0.500000 0.238892 0.750000
O O8 0.374128 0.303950 0.861765
O O9 0.405498 0.160647 0.711648
O O10 0.446073 0.285507 0.555042
O O11 0.250000 0.250000 0.500000
O O12 0.254175 0.137867 0.689812
O O13 0.371635 0.211702 0.441292
O O14 0.750000 0.250000 0.500000
O O15 0.736592 0.401966 0.469243
O O16 0.662960 0.038657 0.816055
O O17 0.500000 0.713181 0.750000
#
# Coordination Sequence:
#
# PCOD9284614 Si02
#       8
#     4   8   8   8   8   8   8   8
#     4  10  26  42  56  90 138 168 204 250 330 396
#     4  10  24  40  64  97 128 171 217 270 335 381
#     4  11  23  40  62  91 126 169 219 261 323 379
#     4  10  21  41  62  93 125 166 221 266 323 388
#     4  11  22  42  64  93 129 168 219 274 312 390
#     4  11  23  41  61  91 127 173 206 256 316 400
#     4  12  23  40  66  94 130 165 216 270 327 385
#     4  10  22  43  66  93 128 171 225 274 319 388
#
# _framework density 20.141638
#
# number of rings (size 3 to 8) (size 9 to 14) (size 15 to 20)
#    0.000    1.333    3.333    2.400    4.667    3.200 
#    2.400    0.667    0.000    6.400    0.000    0.000 
#    0.000    0.000    0.000    0.000    0.000    0.000 
#
# Total GULP energy -167074.923399 kJ/mol
# GULP energy per Si atom -5569.164113 kJ/mol
# Density = 2.009580 g / cm^3
# Si number density = 20.141638 Si / 1000 Ang^3
#
#
#
# Elastic Constant Matrix: (Units=GPa)
#
#
# Indices 1 2 3 4 5 6 
#
# 1 90.7206 15.0368 37.6891 0.0000 2.7245 0.0000
# 2 15.0368 55.6056 16.0163 0.0000 -12.7005 0.0000
# 3 37.6891 16.0163 86.8146 0.0000 -10.0734 0.0000
# 4 0.0000 0.0000 0.0000 28.5493 0.0000 0.5767
# 5 2.7245 -12.7005 -10.0734 0.0000 31.0388 0.0000
# 6 0.0000 0.0000 0.0000 0.5767 0.0000 29.6739
#
#
#
# Elastic Compliance Matrix: (Units=1/GPa)
#
#
# Indices 1 2 3 4 5 6 
#
# 1 0.014217 -0.003111 -0.006121 0.000000 -0.004507 0.000000
# 2 -0.003111 0.021208 -0.001583 0.000000 0.008437 0.000000
# 3 -0.006121 -0.001583 0.015021 0.000000 0.004764 0.000000
# 4 0.000000 0.000000 0.000000 0.035041 0.000000 -0.000681
# 5 -0.004507 0.008437 0.004764 0.000000 0.037612 0.000000
# 6 0.000000 0.000000 0.000000 -0.000681 0.000000 0.033713
#
#
# Mechanical properties :
#
#
# Convention : Reuss Voigt Hill
#
# Bulk Modulus (GPa) = 34.70316 41.18058 37.94187
# Shear Modulus (GPa) = 26.58908 28.81231 27.70069
#
# Velocity S-wave (km/s) = 3.63727 3.78628 3.71252
# Velocity P-wave (km/s) = 5.90818 6.29320 6.10373
#
# Compressibility (1/GPa) = 0.02881582
#
# Stress axis : x y z
#
# Youngs Moduli (GPa) = 70.33936 47.15171 66.57316
#
# Poissons Ratio (x) = 0.14668 0.40750
# Poissons Ratio (y) = 0.21882 0.10539
# Poissons Ratio (z) = 0.43055 0.07465
#
# Static dielectric constant tensor:
#      x y z
#    x 1.805550 0.000000 0.000720 
#    y 0.000000 1.773460 0.000000 
#    z 0.000720 0.000000 1.748540 
# 
# From -- ./inp_files/56994.got.cif
#   From: 2010.05.17/outbox.cif.g08.bks.cpg/sg15_29_cif.got.tgz:56994.got - 2010.06.03 18:47:42.
