data_PCOD9284381
_publ_section_title
;
Structure prediction by ZEFSAII (Michael W. Deem and Ramdas Pophale) SiO2 
 PCOD9284381
Probable space group: C 2/C
;
_chemical_formula_sum "Si O2"
_cell_formula_units_Z 56
_cell_length_a 19.378690
_cell_length_b 18.531455
_cell_length_c 21.973784
_cell_angle_alpha 90.000000
_cell_angle_beta 160.111426
_cell_angle_gamma 90.000000
_cell_volume 2684.496985
_symmetry_space_group_name_H-M "C 2/C"
_symmetry_group_IT_number 15
_symmetry_cell_setting 'monoclinic'
loop_
_space_group_symop_operation_xyz
x,y,z
-x,y,1/2-z
-x,-y,-z
x,-y,1/2+z
1/2+x,1/2+y,z
1/2-x,1/2+y,1/2-z
1/2-x,1/2-y,-z
1/2+x,1/2-y,1/2+z
loop_
_atom_site_type_symbol
_atom_site_label
_atom_site_fract_x
_atom_site_fract_y
_atom_site_fract_z
Si Si1 0.174168 0.822008 0.018157
Si Si2 0.500000 0.935977 0.750000
Si Si3 0.914179 0.663616 0.979316
Si Si4 0.125740 0.185643 0.121770
Si Si5 0.000000 0.796305 0.750000
Si Si6 0.369807 0.564810 0.835427
Si Si7 0.729855 0.669776 0.957933
Si Si8 0.743962 0.974007 0.359405
O O1 0.004175 0.798794 0.925503
O O2 0.085688 0.839821 0.878147
O O3 0.329076 0.756939 0.135469
O O4 0.270923 0.893080 0.127439
O O5 0.314450 0.885362 0.577234
O O6 0.426440 0.981464 0.746912
O O7 0.852828 0.740248 0.898006
O O8 0.782388 0.602294 0.837315
O O9 0.861633 0.664847 0.006540
O O10 0.156263 0.656748 0.176490
O O11 0.006095 0.127233 0.981426
O O12 0.242465 0.528744 0.784914
O O13 0.532273 0.508569 0.942616
O O14 0.500000 0.654455 0.750000
O O15 0.750000 0.750000 0.000000
#
# Coordination Sequence:
#
# PCOD9284381 Si02
#       8
#     8   4   8   8   4   8   8   8
#     4  10  22  42  64  97 124 164 216 264 334 386
#     4  12  25  46  68  93 140 178 216 266 338 391
#     4  12  23  39  67 101 128 171 221 276 325 377
#     4  11  22  38  67 100 128 168 220 274 326 373
#     4  10  21  40  70  91 126 162 212 282 318 385
#     4  10  23  44  66  91 136 171 220 269 324 395
#     4  12  26  42  67 102 134 174 224 276 325 385
#     4  10  23  45  65  90 132 180 205 265 337 399
#
# _framework density 20.860519
#
# number of rings (size 3 to 8) (size 9 to 14) (size 15 to 20)
#    0.000    1.143    2.143    3.857    4.000    0.000 
#    6.429   11.429    0.000    0.000    0.000    0.000 
#    0.000    0.000    0.000    0.000    0.000    0.000 
#
# Total GULP energy -156626.330639 kJ/mol
# GULP energy per Si atom -5593.797523 kJ/mol
# Density = 2.081304 g / cm^3
# Si number density = 20.860519 Si / 1000 Ang^3
#
#
#
# Elastic Constant Matrix: (Units=GPa)
#
#
# Indices 1 2 3 4 5 6 
#
# 1 66.9015 11.4583 -2.1913 -0.0329 10.5428 -0.0471
# 2 11.4583 44.8670 -10.3000 -0.2452 -2.8664 0.1574
# 3 -2.1913 -10.3000 76.1120 -0.1269 -0.2549 0.0793
# 4 -0.0329 -0.2452 -0.1269 63.8733 -0.0823 -54.8436
# 5 10.5428 -2.8664 -0.2549 -0.0823 33.7761 0.0115
# 6 -0.0471 0.1574 0.0793 -54.8436 0.0115 70.6860
#
#
#
# Elastic Compliance Matrix: (Units=1/GPa)
#
#
# Indices 1 2 3 4 5 6 
#
# 1 0.016616 -0.004639 -0.000168 0.000008 -0.005581 0.000028
# 2 -0.004639 0.024431 0.003185 0.000148 0.003546 0.000053
# 3 -0.000168 0.003185 0.013566 0.000061 0.000425 0.000025
# 4 0.000008 0.000148 0.000061 0.046903 0.000113 0.036390
# 5 -0.005581 0.003546 0.000425 0.000113 0.031653 0.000070
# 6 0.000028 0.000053 0.000025 0.036390 0.000070 0.042381
#
#
# Mechanical properties :
#
#
# Convention : Reuss Voigt Hill
#
# Bulk Modulus (GPa) = 19.46700 20.64605 20.05652
# Shear Modulus (GPa) = 25.52097 46.26133 35.89115
#
# Velocity S-wave (km/s) = 3.50152 4.71430 4.15243
# Velocity P-wave (km/s) = 5.06950 6.28900 5.71189
#
# Compressibility (1/GPa) = 0.05136899
#
# Stress axis : x y z
#
# Youngs Moduli (GPa) = 60.18341 40.93168 73.71281
#
# Poissons Ratio (x) = 0.18987 0.01239
# Poissons Ratio (y) = 0.27917 -0.23475
# Poissons Ratio (z) = 0.01011 -0.13035
#
# Static dielectric constant tensor:
#      x y z
#    x 23.685500 -0.024070 19.304570 
#    y -0.024070 1.744790 -0.021190 
#    z 19.304570 -0.021190 18.702870 
# 
# From -- ./inp_files/280465.got.cif
#   From: 2010.05.17/outbox.cif.g08.bks.cpg/sg15_141_cif.got.tgz:280465.got - 2010.06.03 18:47:42.
