data_PCOD9284204
_publ_section_title
;
Structure prediction by ZEFSAII (Michael W. Deem and Ramdas Pophale) SiO2 
 PCOD9284204
Probable space group: C 2/C
;
_chemical_formula_sum "Si O2"
_cell_formula_units_Z 24
_cell_length_a 13.577227
_cell_length_b 4.808013
_cell_length_c 21.267721
_cell_angle_alpha 90.000000
_cell_angle_beta 139.729357
_cell_angle_gamma 90.000000
_cell_volume 897.425261
_symmetry_space_group_name_H-M "C 2/C"
_symmetry_group_IT_number 15
_symmetry_cell_setting 'monoclinic'
loop_
_space_group_symop_operation_xyz
x,y,z
-x,y,1/2-z
-x,-y,-z
x,-y,1/2+z
1/2+x,1/2+y,z
1/2-x,1/2+y,1/2-z
1/2-x,1/2-y,-z
1/2+x,1/2-y,1/2+z
loop_
_atom_site_type_symbol
_atom_site_label
_atom_site_fract_x
_atom_site_fract_y
_atom_site_fract_z
Si Si1 0.419009 0.842988 0.152850
Si Si2 0.924717 0.692755 0.514482
Si Si3 0.860786 0.037800 0.805937
O O1 0.500000 0.996536 0.250000
O O2 0.246133 0.776072 0.085970
O O3 0.527186 0.572855 0.194003
O O4 0.409128 0.957844 0.076288
O O5 0.000000 0.500000 0.500000
O O6 0.037312 0.949540 0.584791
O O7 0.712082 0.838296 0.733326
#
# Coordination Sequence:
#
# PCOD9284204 Si02
#       3
#     8   8   8
#     4   9  19  38  66  99 137 178 233 281 346 416
#     4   9  19  38  68  97 136 180 228 285 347 412
#     4  10  21  40  67  96 133 179 225 281 345 410
#
# _framework density 26.743178
#
# number of rings (size 3 to 8) (size 9 to 14) (size 15 to 20)
#    2.000    0.667    0.000    2.000    0.000    0.000 
#    0.000   18.333    0.000    0.000    0.000    0.000 
#    0.000    0.000    0.000    0.000    0.000    0.000 
#
# Total GULP energy -67117.732097 kJ/mol
# GULP energy per Si atom -5593.144341 kJ/mol
# Density = 2.668231 g / cm^3
# Si number density = 26.743178 Si / 1000 Ang^3
#
#
#
# Elastic Constant Matrix: (Units=GPa)
#
#
# Indices 1 2 3 4 5 6 
#
# 1 197.4951 28.5807 74.6733 -0.0008 14.9921 0.0018
# 2 28.5807 72.4009 17.7416 -0.0025 -2.1956 0.0048
# 3 74.6733 17.7416 217.2230 0.0003 16.2283 -0.0002
# 4 -0.0008 -0.0025 0.0003 25.5641 0.0000 -5.5749
# 5 14.9921 -2.1956 16.2283 0.0000 76.6852 -0.0009
# 6 0.0018 0.0048 -0.0002 -5.5749 -0.0009 37.6513
#
#
#
# Elastic Compliance Matrix: (Units=1/GPa)
#
#
# Indices 1 2 3 4 5 6 
#
# 1 0.006126 -0.001984 -0.001880 0.000000 -0.000857 0.000000
# 2 -0.001984 0.014769 -0.000594 0.000001 0.000936 -0.000002
# 3 -0.001880 -0.000594 0.005357 0.000000 -0.000783 0.000000
# 4 0.000000 0.000001 0.000000 0.040423 0.000000 0.005985
# 5 -0.000857 0.000936 -0.000783 0.000000 0.013400 0.000000
# 6 0.000000 -0.000002 0.000000 0.005985 0.000000 0.027446
#
#
# Mechanical properties :
#
#
# Convention : Reuss Voigt Hill
#
# Bulk Modulus (GPa) = 57.68233 81.01225 69.34729
# Shear Modulus (GPa) = 40.91124 52.38835 46.64979
#
# Velocity S-wave (km/s) = 3.91549 4.43080 4.18109
# Velocity P-wave (km/s) = 6.48515 7.51893 7.02110
#
# Compressibility (1/GPa) = 0.01733633
#
# Stress axis : x y z
#
# Youngs Moduli (GPa) = 163.22930 67.70894 186.67572
#
# Poissons Ratio (x) = 0.13431 0.35095
# Poissons Ratio (y) = 0.32380 0.11094
# Poissons Ratio (z) = 0.30687 0.04024
#
# Static dielectric constant tensor:
#      x y z
#    x 2.116530 0.000000 -0.141630 
#    y 0.000000 2.124360 0.000000 
#    z -0.141630 0.000000 2.138220 
# 
# From -- ./inp_files/149353.got.cif
#   From: 2010.05.17/outbox.cif.g08.bks.cpg/sg15_75_cif.got.tgz:149353.got - 2010.06.03 18:47:42.
