data_PCOD9284377
_publ_section_title
;
Structure prediction by ZEFSAII (Michael W. Deem and Ramdas Pophale) SiO2 
 PCOD9284377
Probable space group: C 2/C
;
_chemical_formula_sum "Si O2"
_cell_formula_units_Z 48
_cell_length_a 19.459627
_cell_length_b 8.846763
_cell_length_c 15.092301
_cell_angle_alpha 90.000000
_cell_angle_beta 115.715312
_cell_angle_gamma 90.000000
_cell_volume 2340.886736
_symmetry_space_group_name_H-M "C 2/C"
_symmetry_group_IT_number 15
_symmetry_cell_setting 'monoclinic'
loop_
_space_group_symop_operation_xyz
x,y,z
-x,y,1/2-z
-x,-y,-z
x,-y,1/2+z
1/2+x,1/2+y,z
1/2-x,1/2+y,1/2-z
1/2-x,1/2-y,-z
1/2+x,1/2-y,1/2+z
loop_
_atom_site_type_symbol
_atom_site_label
_atom_site_fract_x
_atom_site_fract_y
_atom_site_fract_z
Si Si1 0.660255 0.646531 0.126511
Si Si2 0.583794 0.671212 0.612117
Si Si3 0.427326 0.191625 0.074477
Si Si4 0.554010 0.831967 0.410496
Si Si5 0.333840 0.850120 0.697341
Si Si6 0.112479 0.687973 0.757834
O O1 0.606968 0.499270 0.102582
O O2 0.744402 0.619853 0.135761
O O3 0.668290 0.713387 0.229821
O O4 0.619356 0.765813 0.039276
O O5 0.503199 0.705041 0.616111
O O6 0.576687 0.761455 0.516117
O O7 0.648124 0.736970 0.712834
O O8 0.375093 0.210790 0.132017
O O9 0.448270 0.014134 0.084286
O O10 0.470639 0.781522 0.330920
O O11 0.609741 0.784531 0.361296
O O12 0.371168 0.010689 0.742635
#
# Coordination Sequence:
#
# PCOD9284377 Si02
#       6
#     8   8   8   8   8   8
#     4  12  25  40  62  98 138 161 202 280 334 369
#     4  12  23  40  66 100 126 166 218 266 324 378
#     4  11  22  42  66  92 121 174 222 260 304 394
#     4  10  21  40  70  89 113 168 221 264 295 388
#     4  11  24  43  64  91 131 176 213 254 324 395
#     4  10  21  42  65  90 121 164 220 253 316 377
#
# _framework density 20.505050000000001
#
# number of rings (size 3 to 8) (size 9 to 14) (size 15 to 20)
#    0.000    1.000    3.333    4.000    0.000    1.333 
#    3.000    9.167    0.000    0.000    0.000    0.000 
#    0.000    0.000    0.000    0.000    0.000    0.000 
#
# Total GULP energy -134130.682912 kJ/mol
# GULP energy per Si atom -5588.778455 kJ/mol
# Density = 2.045838 g / cm^3
# Si number density = 20.505050 Si / 1000 Ang^3
#
#
#
# Elastic Constant Matrix: (Units=GPa)
#
#
# Indices 1 2 3 4 5 6 
#
# 1 119.2345 42.8289 46.0986 0.0000 -15.6953 0.0000
# 2 42.8289 46.1915 29.0413 0.0000 -19.9148 0.0000
# 3 46.0986 29.0413 68.3901 0.0000 -25.2653 0.0000
# 4 0.0000 0.0000 0.0000 -2.6977 0.0000 -11.6130
# 5 -15.6953 -19.9148 -25.2653 0.0000 28.0691 0.0000
# 6 0.0000 0.0000 0.0000 -11.6130 0.0000 4.0829
#
#
#
# Elastic Compliance Matrix: (Units=1/GPa)
#
#
# Indices 1 2 3 4 5 6 
#
# 1 0.014578 -0.011873 -0.007319 0.000000 -0.006860 0.000000
# 2 -0.011873 0.043735 -0.002334 0.000000 0.022290 0.000000
# 3 -0.007319 -0.002334 0.027601 0.000000 0.019095 0.000000
# 4 0.000000 0.000000 0.000000 -0.027989 0.000000 -0.079609
# 5 -0.006860 0.022290 0.019095 0.000000 0.064793 0.000000
# 6 0.000000 0.000000 0.000000 -0.079609 0.000000 0.018493
#
#
# Mechanical properties :
#
#
# Convention : Reuss Voigt Hill
#
# Bulk Modulus (GPa) = 23.33079 52.19488 37.76283
# Shear Modulus (GPa) = 25.18228 13.61400 19.39814
#
# Velocity S-wave (km/s) = 3.50823 2.57949 3.07908
# Velocity P-wave (km/s) = 5.27380 5.86358 5.57649
#
# Compressibility (1/GPa) = 0.04286181
#
# Stress axis : x y z
#
# Youngs Moduli (GPa) = 68.59487 22.86479 36.23047
#
# Poissons Ratio (x) = 0.27148 0.26518
# Poissons Ratio (y) = 0.81444 0.08457
# Poissons Ratio (z) = 0.50205 0.05337
#
# Static dielectric constant tensor:
#      x y z
#    x 1.774490 0.000000 -0.026450 
#    y 0.000000 1.694110 0.000000 
#    z -0.026450 0.000000 1.706170 
# 
# From -- ./inp_files/166406.got.cif
#   From: 2010.05.17/outbox.cif.g08.bks.cpg/sg15_84_cif.got.tgz:166406.got - 2010.06.03 18:47:42.
