data_PCOD9284346
_publ_section_title
;
Structure prediction by ZEFSAII (Michael W. Deem and Ramdas Pophale) SiO2 
 PCOD9284346
Probable space group: C 2/C
;
_chemical_formula_sum "Si O2"
_cell_formula_units_Z 52
_cell_length_a 11.174418
_cell_length_b 29.176571
_cell_length_c 17.006621
_cell_angle_alpha 90.000000
_cell_angle_beta 150.836624
_cell_angle_gamma 90.000000
_cell_volume 2701.935735
_symmetry_space_group_name_H-M "C 2/C"
_symmetry_group_IT_number 15
_symmetry_cell_setting 'monoclinic'
loop_
_space_group_symop_operation_xyz
x,y,z
-x,y,1/2-z
-x,-y,-z
x,-y,1/2+z
1/2+x,1/2+y,z
1/2-x,1/2+y,1/2-z
1/2-x,1/2-y,-z
1/2+x,1/2-y,1/2+z
loop_
_atom_site_type_symbol
_atom_site_label
_atom_site_fract_x
_atom_site_fract_y
_atom_site_fract_z
Si Si1 0.168223 0.918515 0.422778
Si Si2 0.629507 0.965365 0.743994
Si Si3 0.000000 0.637759 0.750000
Si Si4 0.488318 0.758497 0.950516
Si Si5 0.633149 0.439006 0.094038
Si Si6 0.017124 0.282102 0.377236
Si Si7 0.332226 0.822503 0.582840
O O1 0.428900 0.946239 0.567204
O O2 0.216745 0.865252 0.471316
O O3 0.000000 0.923382 0.250000
O O4 0.008899 0.935667 0.405176
O O5 0.500000 0.948903 0.750000
O O6 0.674254 0.019644 0.781392
O O7 0.911959 0.948178 0.904669
O O8 0.777043 0.605767 0.649782
O O9 0.063570 0.669855 0.860961
O O10 0.212532 0.740919 0.797645
O O11 0.519211 0.793684 0.896707
O O12 0.554462 0.781976 0.071369
O O13 0.649586 0.714035 0.019336
O O14 0.250000 0.250000 0.500000
O O15 0.500000 0.840338 0.750000
#
# Coordination Sequence:
#
# PCOD9284346 Si02
#       7
#     8   8   4   8   8   8   8
#     4  11  25  38  63  99 130 164 211 268 325 379
#     4   9  19  42  68  94 126 164 212 265 322 382
#     4  12  24  38  72  92 126 172 224 258 320 388
#     4  11  24  41  63  87 127 167 213 267 325 367
#     4  10  21  40  69  95 123 167 217 261 318 396
#     4  12  24  41  59  89 127 171 208 259 312 386
#     4  11  23  40  66  91 122 165 216 272 319 377
#
# _framework density 19.245460999999999
#
# number of rings (size 3 to 8) (size 9 to 14) (size 15 to 20)
#    0.000    1.231    3.846    2.308    4.308    1.846 
#    0.000    0.000    0.000    0.000    0.000    0.000 
#    0.000    0.000    0.000    0.000    0.000    0.000 
#
# Total GULP energy -144996.996704 kJ/mol
# GULP energy per Si atom -5576.807566 kJ/mol
# Density = 1.920166 g / cm^3
# Si number density = 19.245461 Si / 1000 Ang^3
#
#
#
# Elastic Constant Matrix: (Units=GPa)
#
#
# Indices 1 2 3 4 5 6 
#
# 1 78.8179 43.3490 44.3356 -0.0001 -0.3330 -0.0001
# 2 43.3490 125.2018 59.4222 0.0000 2.7874 0.0000
# 3 44.3356 59.4222 113.6780 0.0000 -24.8520 0.0000
# 4 -0.0001 0.0000 0.0000 29.6791 0.0000 10.3296
# 5 -0.3330 2.7874 -24.8520 0.0000 23.4467 -0.0001
# 6 -0.0001 0.0000 0.0000 10.3296 -0.0001 23.7614
#
#
#
# Elastic Compliance Matrix: (Units=1/GPa)
#
#
# Indices 1 2 3 4 5 6 
#
# 1 0.018222 -0.002717 -0.007236 0.000000 -0.007088 0.000000
# 2 -0.002717 0.012855 -0.007813 0.000000 -0.009848 0.000000
# 3 -0.007236 -0.007813 0.020674 0.000000 0.022740 0.000000
# 4 0.000000 0.000000 0.000000 0.039701 0.000000 -0.017259
# 5 -0.007088 -0.009848 0.022740 0.000000 0.067823 0.000000
# 6 0.000000 0.000000 0.000000 -0.017259 0.000000 0.049588
#
#
# Mechanical properties :
#
#
# Convention : Reuss Voigt Hill
#
# Bulk Modulus (GPa) = 61.65510 67.99014 64.82262
# Shear Modulus (GPa) = 20.01583 26.75014 23.38298
#
# Velocity S-wave (km/s) = 3.22845 3.73224 3.48945
# Velocity P-wave (km/s) = 6.78254 7.34693 7.07037
#
# Compressibility (1/GPa) = 0.01621926
#
# Stress axis : x y z
#
# Youngs Moduli (GPa) = 54.87793 77.78918 48.36898
#
# Poissons Ratio (x) = 0.21135 0.35001
# Poissons Ratio (y) = 0.14910 0.37791
# Poissons Ratio (z) = 0.39711 0.60778
#
# Static dielectric constant tensor:
#      x y z
#    x 1.686840 0.000000 -0.013980 
#    y 0.000000 1.691360 0.000000 
#    z -0.013980 0.000000 1.708720 
# 
# From -- ./inp_files/201200.got.cif
#   From: 2010.05.17/outbox.cif.g08.bks.cpg/sg15_101_cif.got.tgz:201200.got - 2010.06.03 18:47:42.
