data_PCOD9284513
_publ_section_title
;
Structure prediction by ZEFSAII (Michael W. Deem and Ramdas Pophale) SiO2 
 PCOD9284513
Probable space group: C 2/C
;
_chemical_formula_sum "Si O2"
_cell_formula_units_Z 56
_cell_length_a 22.481437
_cell_length_b 13.788383
_cell_length_c 8.069978
_cell_angle_alpha 90.000000
_cell_angle_beta 105.460197
_cell_angle_gamma 90.000000
_cell_volume 2411.036746
_symmetry_space_group_name_H-M "C 2/C"
_symmetry_group_IT_number 15
_symmetry_cell_setting 'monoclinic'
loop_
_space_group_symop_operation_xyz
x,y,z
-x,y,1/2-z
-x,-y,-z
x,-y,1/2+z
1/2+x,1/2+y,z
1/2-x,1/2+y,1/2-z
1/2-x,1/2-y,-z
1/2+x,1/2-y,1/2+z
loop_
_atom_site_type_symbol
_atom_site_label
_atom_site_fract_x
_atom_site_fract_y
_atom_site_fract_z
Si Si1 0.701678 0.125659 0.844384
Si Si2 0.089150 0.123981 0.555425
Si Si3 0.311037 0.229452 0.320712
Si Si4 0.500000 0.948407 0.750000
Si Si5 0.150755 0.978222 0.796820
Si Si6 0.737834 0.416630 0.580614
Si Si7 0.071772 0.381947 0.115680
Si Si8 0.500000 0.718185 0.250000
O O1 0.756156 0.197306 0.830725
O O2 0.645214 0.123743 0.674478
O O3 0.725888 0.016957 0.876031
O O4 0.680759 0.159515 0.012870
O O5 0.124334 0.216228 0.657622
O O6 0.091268 0.033251 0.680526
O O7 0.027439 0.155156 0.419309
O O8 0.133351 0.086561 0.439115
O O9 0.285034 0.169513 0.146017
O O10 0.462335 0.887094 0.586341
O O11 0.452170 0.020675 0.808127
O O12 0.187249 0.914432 0.691134
O O13 0.196800 0.064527 0.888301
O O14 0.049938 0.289859 0.206696
#
# Coordination Sequence:
#
# PCOD9284513 Si02
#       8
#     8   8   8   4   8   8   8   4
#     4  11  21  37  63  95 125 172 198 256 329 374
#     4  11  23  44  65  87 123 168 212 265 318 375
#     4  11  21  38  63  91 126 165 202 253 325 375
#     4   9  22  42  60  87 124 170 214 257 304 374
#     4  10  21  41  60  89 124 161 205 260 309 383
#     4  11  21  36  63  96 128 159 205 253 320 391
#     4  10  22  40  64  89 125 166 214 260 309 380
#     4  11  24  42  64  89 120 168 216 259 314 370
#
# _framework density 23.226523
#
# number of rings (size 3 to 8) (size 9 to 14) (size 15 to 20)
#    0.000    1.429    5.714    0.857    2.000    2.286 
#    2.571    0.000    0.000    0.000    0.000    0.000 
#    0.000    0.000    0.000    0.000    0.000    0.000 
#
# Total GULP energy -156617.370517 kJ/mol
# GULP energy per Si atom -5593.477518 kJ/mol
# Density = 2.317366 g / cm^3
# Si number density = 23.226523 Si / 1000 Ang^3
#
#
#
# Elastic Constant Matrix: (Units=GPa)
#
#
# Indices 1 2 3 4 5 6 
#
# 1 16.2132 4.1143 7.4680 0.0000 15.4200 0.0000
# 2 4.1143 66.2206 20.0967 0.0000 18.4971 0.0000
# 3 7.4680 20.0967 99.1935 0.0000 25.8625 0.0000
# 4 0.0000 0.0000 0.0000 48.7934 0.0000 5.3269
# 5 15.4200 18.4971 25.8625 0.0000 45.4074 0.0000
# 6 0.0000 0.0000 0.0000 5.3269 0.0000 4.0595
#
#
#
# Elastic Compliance Matrix: (Units=1/GPa)
#
#
# Indices 1 2 3 4 5 6 
#
# 1 0.091865 0.003219 0.001066 0.000000 -0.033115 0.000000
# 2 0.003219 0.017473 -0.001928 0.000000 -0.007113 0.000000
# 3 0.001066 -0.001928 0.012074 0.000000 -0.006454 0.000000
# 4 0.000000 0.000000 0.000000 0.023922 0.000000 -0.031390
# 5 -0.033115 -0.007113 -0.006454 0.000000 0.039842 0.000000
# 6 0.000000 0.000000 0.000000 -0.031390 0.000000 0.287528
#
#
# Mechanical properties :
#
#
# Convention : Reuss Voigt Hill
#
# Bulk Modulus (GPa) = 7.92859 27.22062 17.57461
# Shear Modulus (GPa) = 9.80329 29.64860 19.72595
#
# Velocity S-wave (km/s) = 2.05667 3.57669 2.91741
# Velocity P-wave (km/s) = 3.01013 5.36675 4.35103
#
# Compressibility (1/GPa) = 0.12612576
#
# Stress axis : x y z
#
# Youngs Moduli (GPa) = 10.88549 57.23143 82.82049
#
# Poissons Ratio (x) = -0.18422 -0.08825
# Poissons Ratio (y) = -0.03504 0.15967
# Poissons Ratio (z) = -0.01160 0.11033
#
# Static dielectric constant tensor:
#      x y z
#    x 1.882730 0.000000 0.010290 
#    y 0.000000 1.881420 0.000000 
#    z 0.010290 0.000000 1.907790 
# 
# From -- ./inp_files/62014.got.cif
#   From: 2010.05.17/outbox.cif.g08.bks.cpg/sg15_32_cif.got.tgz:62014.got - 2010.06.03 18:47:42.
