data_PCOD9284179
_publ_section_title
;
Structure prediction by ZEFSAII (Michael W. Deem and Ramdas Pophale) SiO2 
 PCOD9284179
Probable space group: C 2/C
;
_chemical_formula_sum "Si O2"
_cell_formula_units_Z 64
_cell_length_a 15.993376
_cell_length_b 11.545407
_cell_length_c 29.657165
_cell_angle_alpha 90.000000
_cell_angle_beta 143.265169
_cell_angle_gamma 90.000000
_cell_volume 3275.381334
_symmetry_space_group_name_H-M "C 2/C"
_symmetry_group_IT_number 15
_symmetry_cell_setting 'monoclinic'
loop_
_space_group_symop_operation_xyz
x,y,z
-x,y,1/2-z
-x,-y,-z
x,-y,1/2+z
1/2+x,1/2+y,z
1/2-x,1/2+y,1/2-z
1/2-x,1/2-y,-z
1/2+x,1/2-y,1/2+z
loop_
_atom_site_type_symbol
_atom_site_label
_atom_site_fract_x
_atom_site_fract_y
_atom_site_fract_z
Si Si1 0.340843 0.318348 0.667271
Si Si2 0.341515 0.793472 0.333822
Si Si3 0.156318 0.547339 0.576063
Si Si4 0.315690 0.491350 0.955386
Si Si5 0.359231 0.765140 0.507557
Si Si6 0.146642 0.318406 0.421817
Si Si7 0.120721 0.957392 0.611350
Si Si8 0.156591 0.797400 0.166350
O O1 0.500000 0.341941 0.750000
O O2 0.258993 0.437642 0.622104
O O3 0.342398 0.242656 0.622254
O O4 0.263685 0.251098 0.674855
O O5 0.330736 0.881556 0.371344
O O6 0.491220 0.814350 0.374452
O O7 0.335515 0.663154 0.349575
O O8 0.223510 0.795729 0.244511
O O9 0.180037 0.634520 0.544425
O O10 0.000000 0.500000 0.500000
O O11 0.351287 0.358018 0.978984
O O12 0.202150 0.550846 0.937992
O O13 0.282371 0.495734 0.888363
O O14 0.461017 0.559633 0.025562
O O15 0.250000 0.750000 0.500000
O O16 0.514471 0.774415 0.595653
O O17 0.250000 0.250000 0.500000
O O18 0.120631 0.067501 0.643484
#
# Coordination Sequence:
#
# PCOD9284179 Si02
#       8
#     8   8   8   8   8   8   8   8
#     4  12  26  46  69 104 145 187 229 293 362 423
#     4  12  26  43  69 105 140 184 229 289 356 417
#     4  12  27  45  72 101 147 189 236 292 356 424
#     4  10  21  40  67  94 129 169 233 283 323 401
#     4  11  26  46  71 100 135 186 235 285 351 422
#     4  12  24  39  71 105 133 176 242 281 335 420
#     4  10  21  41  68  93 128 178 223 279 346 394
#     4  11  25  45  71 101 142 179 230 295 357 411
#
# _framework density 19.539711
#
# number of rings (size 3 to 8) (size 9 to 14) (size 15 to 20)
#    0.000    0.750    6.250    0.750    5.250    1.000 
#    0.000    0.000    0.000    0.000    0.000    0.000 
#    0.000    0.000    0.000    0.000    0.000    0.000 
#
# Total GULP energy -178742.112031 kJ/mol
# GULP energy per Si atom -5585.691001 kJ/mol
# Density = 1.949524 g / cm^3
# Si number density = 19.539711 Si / 1000 Ang^3
#
#
#
# Elastic Constant Matrix: (Units=GPa)
#
#
# Indices 1 2 3 4 5 6 
#
# 1 99.3527 23.3293 43.9371 0.0000 -4.7372 0.0000
# 2 23.3293 86.7073 35.2086 0.0000 -4.6787 0.0000
# 3 43.9371 35.2086 121.6190 0.0000 -7.8398 0.0000
# 4 0.0000 0.0000 0.0000 26.3622 0.0000 0.2628
# 5 -4.7372 -4.6787 -7.8398 0.0000 36.4418 0.0000
# 6 0.0000 0.0000 0.0000 0.2628 0.0000 36.7740
#
#
#
# Elastic Compliance Matrix: (Units=1/GPa)
#
#
# Indices 1 2 3 4 5 6 
#
# 1 0.012204 -0.001675 -0.003889 0.000000 0.000535 0.000000
# 2 -0.001675 0.013327 -0.003201 0.000000 0.000805 0.000000
# 3 -0.003889 -0.003201 0.010643 0.000000 0.001373 0.000000
# 4 0.000000 0.000000 0.000000 0.037936 0.000000 -0.000271
# 5 0.000535 0.000805 0.001373 0.000000 0.027909 0.000000
# 6 0.000000 0.000000 0.000000 -0.000271 0.000000 0.027195
#
#
# Mechanical properties :
#
#
# Convention : Reuss Voigt Hill
#
# Bulk Modulus (GPa) = 53.64201 56.95878 55.30039
# Shear Modulus (GPa) = 32.68834 33.59588 33.14211
#
# Velocity S-wave (km/s) = 4.09457 4.15102 4.12289
# Velocity P-wave (km/s) = 7.06162 7.22414 7.14334
#
# Compressibility (1/GPa) = 0.01864211
#
# Stress axis : x y z
#
# Youngs Moduli (GPa) = 81.93963 75.03527 93.96074
#
# Poissons Ratio (x) = 0.12571 0.36546
# Poissons Ratio (y) = 0.13728 0.30077
# Poissons Ratio (z) = 0.31870 0.24019
#
# Static dielectric constant tensor:
#      x y z
#    x 1.629470 0.000000 0.031650 
#    y 0.000000 1.929640 0.000000 
#    z 0.031650 0.000000 1.671080 
# 
# From -- ./inp_files/296148.got.cif
#   From: 2010.05.17/outbox.cif.g08.bks.cpg/sg15_149_cif.got.tgz:296148.got - 2010.06.03 18:47:42.
