data_PCOD9284223
_publ_section_title
;
Structure prediction by ZEFSAII (Michael W. Deem and Ramdas Pophale) SiO2 
 PCOD9284223
Probable space group: C 2/C
;
_chemical_formula_sum "Si O2"
_cell_formula_units_Z 56
_cell_length_a 20.017453
_cell_length_b 7.940991
_cell_length_c 24.503762
_cell_angle_alpha 90.000000
_cell_angle_beta 38.609876
_cell_angle_gamma 90.000000
_cell_volume 2430.585076
_symmetry_space_group_name_H-M "C 2/C"
_symmetry_group_IT_number 15
_symmetry_cell_setting 'monoclinic'
loop_
_space_group_symop_operation_xyz
x,y,z
-x,y,1/2-z
-x,-y,-z
x,-y,1/2+z
1/2+x,1/2+y,z
1/2-x,1/2+y,1/2-z
1/2-x,1/2-y,-z
1/2+x,1/2-y,1/2+z
loop_
_atom_site_type_symbol
_atom_site_label
_atom_site_fract_x
_atom_site_fract_y
_atom_site_fract_z
Si Si1 0.865095 0.560132 0.033484
Si Si2 0.234753 0.948502 0.827647
Si Si3 0.215374 0.164699 0.221497
Si Si4 0.505177 0.473958 0.371211
Si Si5 0.594763 0.242986 0.219125
Si Si6 0.980786 0.226064 0.995872
Si Si7 0.206597 0.071068 0.551340
O O1 0.774086 0.551849 0.138722
O O2 0.937948 0.718235 0.007444
O O3 0.803087 0.542373 0.015105
O O4 0.940458 0.397858 0.992883
O O5 0.263756 0.879571 0.749331
O O6 0.254656 0.146107 0.812071
O O7 0.121343 0.868123 0.914835
O O8 0.310990 0.877170 0.825090
O O9 0.088968 0.125266 0.307211
O O10 0.548083 0.332295 0.302049
O O11 0.519013 0.391604 0.421854
O O12 0.380255 0.504739 0.435797
O O13 0.500000 0.144346 0.250000
O O14 0.636047 0.378902 0.149232
O O15 0.250000 0.250000 0.500000
#
# Coordination Sequence:
#
# PCOD9284223 Si02
#       7
#     8   8   8   8   8   8   8
#     4  11  22  41  67 107 136 188 233 300 356 425
#     4  12  24  46  66 102 140 185 239 298 360 428
#     4  12  26  42  71  96 139 184 238 297 358 428
#     4  11  22  42  71 104 132 194 236 298 361 438
#     4  10  21  40  67  98 137 184 237 281 351 435
#     4  11  23  41  74 103 143 179 248 298 359 430
#     4  11  20  41  72 103 142 187 235 287 363 437
#
# _framework density 23.039719999999999
#
# number of rings (size 3 to 8) (size 9 to 14) (size 15 to 20)
#    0.000    0.857    4.286    3.429    0.000    3.429 
#    2.571    0.000    0.000    2.571    0.000    0.000 
#    0.000    0.000    0.000    0.000    0.000    0.000 
#
# Total GULP energy -156480.356679 kJ/mol
# GULP energy per Si atom -5588.584167 kJ/mol
# Density = 2.298728 g / cm^3
# Si number density = 23.039720 Si / 1000 Ang^3
#
#
#
# Elastic Constant Matrix: (Units=GPa)
#
#
# Indices 1 2 3 4 5 6 
#
# 1 193.4976 58.9922 33.5261 0.0046 -38.2362 -0.0100
# 2 58.9922 85.1533 19.3492 0.0075 -19.9126 -0.0117
# 3 33.5261 19.3492 58.8692 0.0013 -14.9157 -0.0051
# 4 0.0046 0.0075 0.0013 23.1609 -0.0002 9.9137
# 5 -38.2362 -19.9126 -14.9157 -0.0002 38.2102 0.0015
# 6 -0.0100 -0.0117 -0.0051 9.9137 0.0015 20.9535
#
#
#
# Elastic Compliance Matrix: (Units=1/GPa)
#
#
# Indices 1 2 3 4 5 6 
#
# 1 0.007590 -0.003678 -0.001859 -0.000001 0.004953 0.000001
# 2 -0.003678 0.015623 -0.002120 -0.000009 0.003634 0.000010
# 3 -0.001859 -0.002120 0.019966 -0.000001 0.004829 0.000003
# 4 -0.000001 -0.000009 -0.000001 0.054141 -0.000004 -0.025615
# 5 0.004953 0.003634 0.004829 -0.000004 0.034906 0.000005
# 6 0.000001 0.000010 0.000003 -0.025615 0.000005 0.059844
#
#
# Mechanical properties :
#
#
# Convention : Reuss Voigt Hill
#
# Bulk Modulus (GPa) = 35.88590 62.36168 49.12379
# Shear Modulus (GPa) = 23.07653 31.50843 27.29248
#
# Velocity S-wave (km/s) = 3.16824 3.70208 3.44551
# Velocity P-wave (km/s) = 5.38452 6.73793 6.09888
#
# Compressibility (1/GPa) = 0.02786610
#
# Stress axis : x y z
#
# Youngs Moduli (GPa) = 131.75159 64.00937 50.08597
#
# Poissons Ratio (x) = 0.23540 0.09310
# Poissons Ratio (y) = 0.48453 0.10617
# Poissons Ratio (z) = 0.24490 0.13568
#
# Static dielectric constant tensor:
#      x y z
#    x 1.909900 0.000000 -0.050970 
#    y 0.000000 1.845710 0.000000 
#    z -0.050970 0.000000 1.882250 
# 
# From -- ./inp_files/213347.got.cif
#   From: 2010.05.17/outbox.cif.g08.bks.cpg/sg15_107_cif.got.tgz:213347.got - 2010.06.03 18:47:42.
