data_PCOD9284208
_publ_section_title
;
Structure prediction by ZEFSAII (Michael W. Deem and Ramdas Pophale) SiO2 
 PCOD9284208
Probable space group: C 2/C
;
_chemical_formula_sum "Si O2"
_cell_formula_units_Z 48
_cell_length_a 30.820321
_cell_length_b 14.015417
_cell_length_c 14.876971
_cell_angle_alpha 90.000000
_cell_angle_beta 20.574189
_cell_angle_gamma 90.000000
_cell_volume 2258.312747
_symmetry_space_group_name_H-M "C 2/C"
_symmetry_group_IT_number 15
_symmetry_cell_setting 'monoclinic'
loop_
_space_group_symop_operation_xyz
x,y,z
-x,y,1/2-z
-x,-y,-z
x,-y,1/2+z
1/2+x,1/2+y,z
1/2-x,1/2+y,1/2-z
1/2-x,1/2-y,-z
1/2+x,1/2-y,1/2+z
loop_
_atom_site_type_symbol
_atom_site_label
_atom_site_fract_x
_atom_site_fract_y
_atom_site_fract_z
Si Si1 0.589402 0.585100 0.849760
Si Si2 0.823053 0.349560 0.829836
Si Si3 0.863195 0.583142 0.050128
Si Si4 0.304498 0.257083 0.035611
Si Si5 0.868062 0.941497 0.024354
Si Si6 0.058015 0.271570 0.418305
O O1 0.723029 0.570988 0.546704
O O2 0.619100 0.594692 0.897800
O O3 0.500000 0.500000 0.000000
O O4 0.518937 0.674185 0.942197
O O5 0.861266 0.368704 0.653034
O O6 0.951525 0.350288 0.633926
O O7 0.750000 0.250000 0.000000
O O8 0.823618 0.669756 0.063774
O O9 0.754743 0.504273 0.251670
O O10 0.000000 0.552048 0.750000
O O11 0.360362 0.352061 0.971469
O O12 0.160408 0.273543 0.295453
O O13 0.369790 0.226824 0.816236
O O14 0.000000 0.993262 0.750000
#
# Coordination Sequence:
#
# PCOD9284208 Si02
#       6
#     8   8   8   8   8   8
#     4  11  22  41  66  99 137 174 225 281 342 415
#     4  10  22  41  66  96 131 177 222 279 342 411
#     4  12  25  45  69 103 137 181 231 288 349 409
#     4  11  22  42  70  94 135 177 227 282 340 416
#     4  12  25  44  70 102 135 181 232 284 344 415
#     4  10  21  40  67  97 126 179 224 273 350 402
#
# _framework density 21.254807
#
# number of rings (size 3 to 8) (size 9 to 14) (size 15 to 20)
#    0.000    1.000    3.333    4.500    0.000    2.667 
#    0.000    5.833    0.000    0.000    0.000    0.000 
#    0.000    0.000    0.000    0.000    0.000    0.000 
#
# Total GULP energy -133924.993886 kJ/mol
# GULP energy per Si atom -5580.208079 kJ/mol
# Density = 2.120643 g / cm^3
# Si number density = 21.254807 Si / 1000 Ang^3
#
#
#
# Elastic Constant Matrix: (Units=GPa)
#
#
# Indices 1 2 3 4 5 6 
#
# 1 65.9272 6.6417 47.5690 0.0000 -20.8106 0.0000
# 2 6.6417 26.8410 15.9719 0.0000 -5.6618 0.0000
# 3 47.5690 15.9719 160.1176 0.0000 -24.3301 0.0000
# 4 0.0000 0.0000 0.0000 25.5915 0.0000 -4.1961
# 5 -20.8106 -5.6618 -24.3301 0.0000 41.5488 0.0000
# 6 0.0000 0.0000 0.0000 -4.1961 0.0000 17.2411
#
#
#
# Elastic Compliance Matrix: (Units=1/GPa)
#
#
# Indices 1 2 3 4 5 6 
#
# 1 0.021322 -0.000628 -0.005117 0.000000 0.007597 0.000000
# 2 -0.000628 0.040064 -0.003324 0.000000 0.003199 0.000000
# 3 -0.005117 -0.003324 0.008385 0.000000 0.001894 0.000000
# 4 0.000000 0.000000 0.000000 0.040700 0.000000 0.009905
# 5 0.007597 0.003199 0.001894 0.000000 0.029418 0.000000
# 6 0.000000 0.000000 0.000000 0.009905 0.000000 0.060412
#
#
# Mechanical properties :
#
#
# Convention : Reuss Voigt Hill
#
# Bulk Modulus (GPa) = 19.36763 43.69456 31.53109
# Shear Modulus (GPa) = 21.21777 29.05648 25.13712
#
# Velocity S-wave (km/s) = 3.16295 3.70138 3.44271
# Velocity P-wave (km/s) = 4.74035 6.23451 5.53805
#
# Compressibility (1/GPa) = 0.05163256
#
# Stress axis : x y z
#
# Youngs Moduli (GPa) = 46.89957 24.95977 119.25933
#
# Poissons Ratio (x) = 0.01568 0.61030
# Poissons Ratio (y) = 0.02947 0.39639
# Poissons Ratio (z) = 0.24001 0.08296
#
# Static dielectric constant tensor:
#      x y z
#    x 1.779700 0.000000 0.021900 
#    y 0.000000 1.798520 0.000000 
#    z 0.021900 0.000000 1.839960 
# 
# From -- ./inp_files/182405.got.cif
#   From: 2010.05.17/outbox.cif.g08.bks.cpg/sg15_92_cif.got.tgz:182405.got - 2010.06.03 18:47:42.
