data_PCOD9284577
_publ_section_title
;
Structure prediction by ZEFSAII (Michael W. Deem and Ramdas Pophale) SiO2 
 PCOD9284577
Probable space group: C 2/C
;
_chemical_formula_sum "Si O2"
_cell_formula_units_Z 52
_cell_length_a 7.814849
_cell_length_b 11.766147
_cell_length_c 27.368688
_cell_angle_alpha 90.000000
_cell_angle_beta 99.352205
_cell_angle_gamma 90.000000
_cell_volume 2483.118903
_symmetry_space_group_name_H-M "C 2/C"
_symmetry_group_IT_number 15
_symmetry_cell_setting 'monoclinic'
loop_
_space_group_symop_operation_xyz
x,y,z
-x,y,1/2-z
-x,-y,-z
x,-y,1/2+z
1/2+x,1/2+y,z
1/2-x,1/2+y,1/2-z
1/2-x,1/2-y,-z
1/2+x,1/2-y,1/2+z
loop_
_atom_site_type_symbol
_atom_site_label
_atom_site_fract_x
_atom_site_fract_y
_atom_site_fract_z
Si Si1 0.135840 0.031617 0.548651
Si Si2 0.298297 0.193607 0.328761
Si Si3 0.895043 0.445269 0.333083
Si Si4 0.769673 0.206915 0.446140
Si Si5 0.051783 0.125311 0.868759
Si Si6 0.380637 0.785859 0.086114
Si Si7 0.500000 0.215693 0.750000
O O1 0.266427 0.926315 0.556626
O O2 0.238799 0.149200 0.546786
O O3 0.000000 0.000000 0.500000
O O4 0.041202 0.044390 0.596451
O O5 0.412928 0.307775 0.330036
O O6 0.215512 0.204067 0.379557
O O7 0.142581 0.206433 0.283209
O O8 0.411726 0.080414 0.326838
O O9 0.700983 0.433006 0.344955
O O10 0.916500 0.368348 0.286172
O O11 0.026886 0.385539 0.377296
O O12 0.750000 0.250000 0.500000
O O13 0.644856 0.278167 0.405775
O O14 0.965671 0.226806 0.436223
#
# Coordination Sequence:
#
# PCOD9284577 Si02
#       7
#     8   8   8   8   8   8   4
#     4  11  21  37  55  84 116 154 201 241 278 338
#     4  10  21  41  62  85 117 151 187 237 297 347
#     4  10  21  41  62  85 117 151 187 237 297 347
#     4  11  21  37  55  84 116 154 201 241 278 338
#     4  10  22  39  58  84 116 156 194 231 290 345
#     4   9  22  39  58  84 120 156 192 241 292 342
#     4  10  24  38  60  94 112 138 196 236 284 362
#
# _framework density 20.941406000000001
#
# number of rings (size 3 to 8) (size 9 to 14) (size 15 to 20)
#    0.000    1.846    1.538    1.846    0.000    4.308 
#    2.769    3.077    0.000    0.000    0.000    0.000 
#    0.000    0.000    0.000    0.000    0.000    0.000 
#
# Total GULP energy -145258.987003 kJ/mol
# GULP energy per Si atom -5586.884116 kJ/mol
# Density = 2.089374 g / cm^3
# Si number density = 20.941406 Si / 1000 Ang^3
#
#
#
# Elastic Constant Matrix: (Units=GPa)
#
#
# Indices 1 2 3 4 5 6 
#
# 1 35.5967 -16.6997 -4.8862 0.0000 0.8098 0.0000
# 2 -16.6997 73.9273 15.9933 0.0000 -0.7462 0.0000
# 3 -4.8862 15.9933 50.3565 0.0000 14.3581 0.0000
# 4 0.0000 0.0000 0.0000 21.1059 0.0000 -0.4590
# 5 0.8098 -0.7462 14.3581 0.0000 33.1993 0.0000
# 6 0.0000 0.0000 0.0000 -0.4590 0.0000 31.9201
#
#
#
# Elastic Compliance Matrix: (Units=1/GPa)
#
#
# Indices 1 2 3 4 5 6 
#
# 1 0.031494 0.006842 0.001207 0.000000 -0.001136 0.000000
# 2 0.006842 0.016218 -0.005182 0.000000 0.002439 0.000000
# 3 0.001207 -0.005182 0.024710 0.000000 -0.010833 0.000000
# 4 0.000000 0.000000 0.000000 0.047395 0.000000 0.000682
# 5 -0.001136 0.002439 -0.010833 0.000000 0.034889 0.000000
# 6 0.000000 0.000000 0.000000 0.000682 0.000000 0.031338
#
#
# Mechanical properties :
#
#
# Convention : Reuss Voigt Hill
#
# Bulk Modulus (GPa) = 12.79517 16.52168 14.65843
# Shear Modulus (GPa) = 24.22922 28.27661 26.25291
#
# Velocity S-wave (km/s) = 3.40516 3.67859 3.54451
# Velocity P-wave (km/s) = 4.64580 5.09405 4.87508
#
# Compressibility (1/GPa) = 0.07815447
#
# Stress axis : x y z
#
# Youngs Moduli (GPa) = 31.75236 61.65969 40.46916
#
# Poissons Ratio (x) = -0.42185 -0.04885
# Poissons Ratio (y) = -0.21724 0.20973
# Poissons Ratio (z) = -0.03833 0.31955
#
# Static dielectric constant tensor:
#      x y z
#    x 1.777340 0.000000 0.040540 
#    y 0.000000 1.756970 0.000000 
#    z 0.040540 0.000000 1.750700 
# 
# From -- ./inp_files/287635.got.cif
#   From: 2010.05.17/outbox.cif.g08.bks.cpg/sg15_144_cif.got.tgz:287635.got - 2010.06.03 18:47:42.
