data_PCOD9284816
_publ_section_title
;
Structure prediction by ZEFSAII (Michael W. Deem and Ramdas Pophale) SiO2 
 PCOD9284816
Probable space group: C 2/C
;
_chemical_formula_sum "Si O2"
_cell_formula_units_Z 60
_cell_length_a 11.233931
_cell_length_b 28.125369
_cell_length_c 17.691568
_cell_angle_alpha 90.000000
_cell_angle_beta 147.482711
_cell_angle_gamma 90.000000
_cell_volume 3004.820042
_symmetry_space_group_name_H-M "C 2/C"
_symmetry_group_IT_number 15
_symmetry_cell_setting 'monoclinic'
loop_
_space_group_symop_operation_xyz
x,y,z
-x,y,1/2-z
-x,-y,-z
x,-y,1/2+z
1/2+x,1/2+y,z
1/2-x,1/2+y,1/2-z
1/2-x,1/2-y,-z
1/2+x,1/2-y,1/2+z
loop_
_atom_site_type_symbol
_atom_site_label
_atom_site_fract_x
_atom_site_fract_y
_atom_site_fract_z
Si Si1 0.363704 0.650401 0.452212
Si Si2 0.986936 0.953451 0.440501
Si Si3 0.208121 0.779419 0.210459
Si Si4 0.427768 0.063126 0.882903
Si Si5 0.500000 0.280303 0.750000
Si Si6 0.709856 0.517632 0.905623
Si Si7 0.933539 0.334582 0.004998
Si Si8 0.965895 0.681854 0.347248
O O1 0.426124 0.595275 0.476815
O O2 0.572848 0.680427 0.593265
O O3 0.256353 0.669000 0.317558
O O4 0.171934 0.660053 0.412133
O O5 0.740784 0.944866 0.276086
O O6 0.132924 0.961609 0.443614
O O7 0.000000 0.000000 0.500000
O O8 0.371176 0.751941 0.240952
O O9 0.364349 0.802067 0.357665
O O10 0.038793 0.739354 0.150579
O O11 0.295678 0.056686 0.891651
O O12 0.537655 0.114475 0.941163
O O13 0.605859 0.021399 0.980309
O O14 0.693504 0.311696 0.891612
O O15 0.500000 0.494815 0.750000
O O16 0.954752 0.337851 0.925848
#
# Coordination Sequence:
#
# PCOD9284816 Si02
#       8
#     8   8   8   8   4   8   8   8
#     4  11  23  42  63  96 132 169 217 268 332 385
#     4  11  24  43  63  92 130 171 214 268 328 389
#     4  11  22  44  64  93 132 170 218 267 326 391
#     4  10  21  41  64  96 118 167 214 265 319 381
#     4  10  24  40  62  92 132 172 206 272 314 388
#     4   9  21  40  66  89 126 157 208 272 322 372
#     4  11  22  40  66  94 125 169 222 254 322 389
#     4  10  23  38  66  96 128 168 210 273 328 383
#
# _framework density 19.967917
#
# number of rings (size 3 to 8) (size 9 to 14) (size 15 to 20)
#    0.000    1.600    1.333    3.200    0.933    8.533 
#    4.800    0.000    0.000    0.000    0.000    0.000 
#    0.000    0.000    0.000    0.000    0.000    0.000 
#
# Total GULP energy -167606.256929 kJ/mol
# GULP energy per Si atom -5586.875231 kJ/mol
# Density = 1.992247 g / cm^3
# Si number density = 19.967917 Si / 1000 Ang^3
#
#
#
# Elastic Constant Matrix: (Units=GPa)
#
#
# Indices 1 2 3 4 5 6 
#
# 1 42.2530 19.1346 34.9576 0.0001 -0.0885 0.0004
# 2 19.1346 121.5036 51.1604 0.0001 -7.2973 0.0001
# 3 34.9576 51.1604 129.2048 0.0006 -4.1294 0.0019
# 4 0.0001 0.0001 0.0006 25.1128 0.0002 -7.7064
# 5 -0.0885 -7.2973 -4.1294 0.0002 28.2062 0.0008
# 6 0.0004 0.0001 0.0019 -7.7064 0.0008 -0.2793
#
#
#
# Elastic Compliance Matrix: (Units=1/GPa)
#
#
# Indices 1 2 3 4 5 6 
#
# 1 0.030812 -0.001693 -0.007713 0.000000 -0.001471 -0.000002
# 2 -0.001693 0.010083 -0.003467 0.000000 0.002096 -0.000002
# 3 -0.007713 -0.003467 0.011223 0.000002 0.000722 0.000008
# 4 0.000000 0.000000 0.000002 0.004207 0.000003 -0.116054
# 5 -0.001471 0.002096 0.000722 0.000003 0.036096 0.000012
# 6 -0.000002 -0.000002 0.000008 -0.116054 0.000012 -0.378184
#
#
# Mechanical properties :
#
#
# Convention : Reuss Voigt Hill
#
# Bulk Modulus (GPa) = 37.92146 55.94071 46.93109
# Shear Modulus (GPa) = -19.90234 23.12185 1.60976
#
# Velocity S-wave (km/s) = -3.16051 3.40656 0.89885
# Velocity P-wave (km/s) = 2.39040 6.59916 4.96301
#
# Compressibility (1/GPa) = 0.02637029
#
# Stress axis : x y z
#
# Youngs Moduli (GPa) = 32.45497 99.18045 89.10659
#
# Poissons Ratio (x) = 0.16791 0.68729
# Poissons Ratio (y) = 0.05494 0.30896
# Poissons Ratio (z) = 0.25033 0.34389
#
# Static dielectric constant tensor:
#      x y z
#    x 1.708810 0.000000 0.013580 
#    y 0.000000 1.693820 0.000000 
#    z 0.013580 0.000000 1.693530 
# 
# From -- ./inp_files/201297.got.cif
#   From: 2010.05.17/outbox.cif.g08.bks.cpg/sg15_101_cif.got.tgz:201297.got - 2010.06.03 18:47:42.
