data_PCOD9284467
_publ_section_title
;
Structure prediction by ZEFSAII (Michael W. Deem and Ramdas Pophale) SiO2 
 PCOD9284467
Probable space group: C 2/C
;
_chemical_formula_sum "Si O2"
_cell_formula_units_Z 48
_cell_length_a 14.458462
_cell_length_b 15.152341
_cell_length_c 29.332423
_cell_angle_alpha 90.000000
_cell_angle_beta 162.107340
_cell_angle_gamma 90.000000
_cell_volume 1974.331389
_symmetry_space_group_name_H-M "C 2/C"
_symmetry_group_IT_number 15
_symmetry_cell_setting 'monoclinic'
loop_
_space_group_symop_operation_xyz
x,y,z
-x,y,1/2-z
-x,-y,-z
x,-y,1/2+z
1/2+x,1/2+y,z
1/2-x,1/2+y,1/2-z
1/2-x,1/2-y,-z
1/2+x,1/2-y,1/2+z
loop_
_atom_site_type_symbol
_atom_site_label
_atom_site_fract_x
_atom_site_fract_y
_atom_site_fract_z
Si Si1 0.779484 0.427029 0.414885
Si Si2 0.331678 0.235797 0.388776
Si Si3 0.318201 0.588582 0.428586
Si Si4 0.550649 0.345788 0.602504
Si Si5 0.917717 0.035507 0.575924
Si Si6 0.644721 0.196338 0.712451
O O1 0.500000 0.430144 0.250000
O O2 0.739144 0.448105 0.449425
O O3 0.000000 0.500000 0.500000
O O4 0.928264 0.331748 0.480579
O O5 0.438679 0.333081 0.451593
O O6 0.315569 0.238655 0.326992
O O7 0.000000 0.213612 0.250000
O O8 0.500000 0.500000 0.500000
O O9 0.222253 0.618499 0.330531
O O10 0.244287 0.565010 0.447661
O O11 0.510029 0.432878 0.614836
O O12 0.667626 0.252508 0.676960
O O13 0.196647 0.318504 0.430200
O O14 0.202330 0.101357 0.714027
#
# Coordination Sequence:
#
# PCOD9284467 Si02
#       6
#     8   8   8   8   8   8
#     4  12  31  49  75 108 148 201 252 309 378 449
#     4  11  23  45  77 105 152 192 247 309 378 445
#     4   9  20  43  70 106 144 195 244 299 370 448
#     4  10  21  40  74 107 147 199 242 300 378 460
#     4  10  25  43  68 104 149 187 249 309 361 443
#     4  10  23  39  74 109 144 195 251 297 378 450
#
# _framework density 24.312028000000002
#
# number of rings (size 3 to 8) (size 9 to 14) (size 15 to 20)
#    0.000    1.667    1.667    0.500    9.333    2.667 
#    0.000    2.500    0.000    0.000    0.000    0.000 
#    0.000    0.000    0.000    0.000    0.000    0.000 
#
# Total GULP energy -133793.107588 kJ/mol
# GULP energy per Si atom -5574.712816 kJ/mol
# Density = 2.425669 g / cm^3
# Si number density = 24.312028 Si / 1000 Ang^3
#
#
#
# Elastic Constant Matrix: (Units=GPa)
#
#
# Indices 1 2 3 4 5 6 
#
# 1 227.1768 23.1053 140.3354 -0.1268 6.0558 -0.0027
# 2 23.1053 149.0380 22.3462 0.0129 -15.8529 -0.0075
# 3 140.3354 22.3462 257.3358 -0.2556 10.4531 -0.0276
# 4 -0.1268 0.0129 -0.2556 20.3047 -0.0460 -21.3170
# 5 6.0558 -15.8529 10.4531 -0.0460 32.8837 -0.0129
# 6 -0.0027 -0.0075 -0.0276 -21.3170 -0.0129 24.5336
#
#
#
# Elastic Compliance Matrix: (Units=1/GPa)
#
#
# Indices 1 2 3 4 5 6 
#
# 1 0.006678 -0.000536 -0.003581 -0.000087 -0.000350 -0.000079
# 2 -0.000536 0.007266 -0.000492 -0.000022 0.003758 -0.000015
# 3 -0.003581 -0.000492 0.005942 0.000627 -0.001465 0.000550
# 4 -0.000087 -0.000022 0.000627 0.561121 0.000781 0.487555
# 5 -0.000350 0.003758 -0.001465 0.000781 0.032753 0.000696
# 6 -0.000079 -0.000015 0.000550 0.487555 0.000696 0.464394
#
#
# Mechanical properties :
#
#
# Convention : Reuss Voigt Hill
#
# Bulk Modulus (GPa) = 93.72655 111.68051 102.70353
# Shear Modulus (GPa) = 4.58326 45.39531 24.98929
#
# Velocity S-wave (km/s) = 1.37451 4.32579 3.20950
# Velocity P-wave (km/s) = 6.41516 8.42532 7.48800
#
# Compressibility (1/GPa) = 0.01066934
#
# Stress axis : x y z
#
# Youngs Moduli (GPa) = 149.75174 137.62469 168.30128
#
# Poissons Ratio (x) = 0.07370 0.60269
# Poissons Ratio (y) = 0.08020 0.08274
# Poissons Ratio (z) = 0.53626 0.06766
#
# Static dielectric constant tensor:
#      x y z
#    x 2.219060 -0.000070 -0.321400 
#    y -0.000070 1.751490 0.000010 
#    z -0.321400 0.000010 2.011680 
# 
# From -- ./inp_files/314122.got.cif
#   From: 2010.05.17/outbox.cif.g08.bks.cpg/sg15_158_cif.got.tgz:314122.got - 2010.06.03 18:47:42.
