data_PCOD9284458
_publ_section_title
;
Structure prediction by ZEFSAII (Michael W. Deem and Ramdas Pophale) SiO2 
 PCOD9284458
Probable space group: C 2/C
;
_chemical_formula_sum "Si O2"
_cell_formula_units_Z 36
_cell_length_a 4.965506
_cell_length_b 20.961450
_cell_length_c 14.454792
_cell_angle_alpha 90.000000
_cell_angle_beta 97.034337
_cell_angle_gamma 90.000000
_cell_volume 1493.190963
_symmetry_space_group_name_H-M "C 2/C"
_symmetry_group_IT_number 15
_symmetry_cell_setting 'monoclinic'
loop_
_space_group_symop_operation_xyz
x,y,z
-x,y,1/2-z
-x,-y,-z
x,-y,1/2+z
1/2+x,1/2+y,z
1/2-x,1/2+y,1/2-z
1/2-x,1/2-y,-z
1/2+x,1/2-y,1/2+z
loop_
_atom_site_type_symbol
_atom_site_label
_atom_site_fract_x
_atom_site_fract_y
_atom_site_fract_z
Si Si1 0.476830 0.468795 0.898058
Si Si2 0.500000 0.431180 0.250000
Si Si3 0.482336 0.885312 0.911796
Si Si4 0.884432 0.660192 0.879208
Si Si5 0.136948 0.755399 0.100044
O O1 0.383242 0.523070 0.824275
O O2 0.766375 0.440098 0.882262
O O3 0.272507 0.409615 0.891476
O O4 0.500000 0.500000 0.000000
O O5 0.270345 0.388912 0.192291
O O6 0.396422 0.816889 0.867582
O O7 0.504851 0.875486 0.024131
O O8 0.650683 0.709411 0.903847
O O9 0.134235 0.699541 0.846736
O O10 0.250000 0.750000 0.000000
#
# Coordination Sequence:
#
# PCOD9284458 Si02
#       5
#     8   4   8   8   8
#     4  12  26  45  70 105 146 194 238 294 357 425
#     4  12  30  44  72 108 150 190 250 300 358 432
#     4  11  22  45  73 102 141 186 243 285 360 433
#     4  11  23  42  70 108 138 182 238 302 357 431
#     4  10  21  40  73 104 132 178 235 296 366 421
#
# _framework density 24.109442000000001
#
# number of rings (size 3 to 8) (size 9 to 14) (size 15 to 20)
#    0.000    0.889    2.222    7.333    0.000    3.556 
#    0.000    4.444    0.000    2.667    0.000    0.000 
#    0.000    0.000    0.000    0.000    0.000    0.000 
#
# Total GULP energy -100898.291137 kJ/mol
# GULP energy per Si atom -5605.460619 kJ/mol
# Density = 2.405457 g / cm^3
# Si number density = 24.109442 Si / 1000 Ang^3
#
#
#
# Elastic Constant Matrix: (Units=GPa)
#
#
# Indices 1 2 3 4 5 6 
#
# 1 96.8769 18.3467 -0.6924 0.0000 10.7568 0.0000
# 2 18.3467 125.8147 41.9658 0.0000 16.6486 0.0000
# 3 -0.6924 41.9658 73.0701 0.0000 13.3746 0.0000
# 4 0.0000 0.0000 0.0000 34.3134 0.0000 5.8628
# 5 10.7568 16.6486 13.3746 0.0000 30.9139 0.0000
# 6 0.0000 0.0000 0.0000 5.8628 0.0000 52.2675
#
#
#
# Elastic Compliance Matrix: (Units=1/GPa)
#
#
# Indices 1 2 3 4 5 6 
#
# 1 0.011070 -0.001714 0.001765 0.000000 -0.003692 0.000000
# 2 -0.001714 0.010378 -0.005498 0.000000 -0.002614 0.000000
# 3 0.001765 -0.005498 0.017843 0.000000 -0.005373 0.000000
# 4 0.000000 0.000000 0.000000 0.029713 0.000000 -0.003333
# 5 -0.003692 -0.002614 -0.005373 0.000000 0.037365 0.000000
# 6 0.000000 0.000000 0.000000 -0.003333 0.000000 0.019506
#
#
# Mechanical properties :
#
#
# Convention : Reuss Voigt Hill
#
# Bulk Modulus (GPa) = 35.21549 46.11130 40.66339
# Shear Modulus (GPa) = 34.19162 39.24176 36.71669
#
# Velocity S-wave (km/s) = 3.76996 4.03879 3.90669
# Velocity P-wave (km/s) = 5.79555 6.39660 6.10348
#
# Compressibility (1/GPa) = 0.02839659
#
# Stress axis : x y z
#
# Youngs Moduli (GPa) = 90.33707 96.35779 56.04309
#
# Poissons Ratio (x) = 0.16520 -0.09894
# Poissons Ratio (y) = 0.15488 0.30813
# Poissons Ratio (z) = -0.15948 0.52979
#
# Static dielectric constant tensor:
#      x y z
#    x 1.882230 0.000000 0.009610 
#    y 0.000000 1.899360 0.000000 
#    z 0.009610 0.000000 2.007920 
# 
# From -- ./inp_files/128748.got.cif
#   From: 2010.05.17/outbox.cif.g08.bks.cpg/sg15_65_cif.got.tgz:128748.got - 2010.06.03 18:47:42.
