data_PCOD9284104
_publ_section_title
;
Structure prediction by ZEFSAII (Michael W. Deem and Ramdas Pophale) SiO2 
 PCOD9284104
Probable space group: C 2/C
;
_chemical_formula_sum "Si O2"
_cell_formula_units_Z 44
_cell_length_a 8.087781
_cell_length_b 17.208886
_cell_length_c 16.781771
_cell_angle_alpha 90.000000
_cell_angle_beta 102.665611
_cell_angle_gamma 90.000000
_cell_volume 2278.878886
_symmetry_space_group_name_H-M "C 2/C"
_symmetry_group_IT_number 15
_symmetry_cell_setting 'monoclinic'
loop_
_space_group_symop_operation_xyz
x,y,z
-x,y,1/2-z
-x,-y,-z
x,-y,1/2+z
1/2+x,1/2+y,z
1/2-x,1/2+y,1/2-z
1/2-x,1/2-y,-z
1/2+x,1/2-y,1/2+z
loop_
_atom_site_type_symbol
_atom_site_label
_atom_site_fract_x
_atom_site_fract_y
_atom_site_fract_z
Si Si1 0.895280 0.159105 0.484573
Si Si2 0.240374 0.205268 0.868418
Si Si3 0.498179 0.080550 0.655459
Si Si4 0.733387 0.842875 0.486505
Si Si5 0.500000 0.193739 0.250000
Si Si6 0.973218 0.407889 0.589794
O O1 0.895367 0.185330 0.576965
O O2 0.866313 0.235451 0.427105
O O3 0.723140 0.110184 0.453212
O O4 0.076614 0.123788 0.482823
O O5 0.336908 0.129185 0.851681
O O6 0.157306 0.250703 0.786705
O O7 0.500000 0.068781 0.750000
O O8 0.340632 0.131704 0.606793
O O9 0.494034 0.998185 0.610718
O O10 0.750000 0.750000 0.500000
O O11 0.599224 0.877644 0.535011
O O12 0.482994 0.140295 0.325808
#
# Coordination Sequence:
#
# PCOD9284104 Si02
#       6
#     8   8   8   8   4   8
#     4  10  21  42  68  98 122 173 226 262 326 393
#     4  10  21  40  66  96 134 169 220 273 323 387
#     4  12  26  43  65 100 137 171 217 278 335 388
#     4  12  23  42  73  99 127 178 228 268 322 398
#     4  10  22  40  70  90 138 178 212 274 326 390
#     4  11  24  47  65  96 138 175 215 272 340 383
#
# _framework density 19.307739000000002
#
# number of rings (size 3 to 8) (size 9 to 14) (size 15 to 20)
#    0.000    1.091    4.545    2.727    5.091    0.727 
#    0.000    2.727    0.000    0.000    0.000    0.000 
#    0.000    0.000    0.000    0.000    0.000    0.000 
#
# Total GULP energy -122887.637451 kJ/mol
# GULP energy per Si atom -5585.801702 kJ/mol
# Density = 1.926379 g / cm^3
# Si number density = 19.307739 Si / 1000 Ang^3
#
#
#
# Elastic Constant Matrix: (Units=GPa)
#
#
# Indices 1 2 3 4 5 6 
#
# 1 128.9643 41.7734 41.1930 0.0000 12.6333 0.0000
# 2 41.7734 130.9505 33.0513 0.0000 9.2941 0.0000
# 3 41.1930 33.0513 89.4957 0.0000 5.3327 0.0000
# 4 0.0000 0.0000 0.0000 32.5197 0.0000 0.1023
# 5 12.6333 9.2941 5.3327 0.0000 18.3075 0.0000
# 6 0.0000 0.0000 0.0000 0.1023 0.0000 20.8538
#
#
#
# Elastic Compliance Matrix: (Units=1/GPa)
#
#
# Indices 1 2 3 4 5 6 
#
# 1 0.010010 -0.001938 -0.003601 0.000000 -0.004874 0.000000
# 2 -0.001938 0.009014 -0.002283 0.000000 -0.002573 0.000000
# 3 -0.003601 -0.002283 0.013695 0.000000 -0.000345 0.000000
# 4 0.000000 0.000000 0.000000 0.030751 0.000000 -0.000151
# 5 -0.004874 -0.002573 -0.000345 0.000000 0.059393 0.000000
# 6 0.000000 0.000000 0.000000 -0.000151 0.000000 0.047954
#
#
# Mechanical properties :
#
#
# Convention : Reuss Voigt Hill
#
# Bulk Modulus (GPa) = 58.57140 64.60510 61.58825
# Shear Modulus (GPa) = 26.02108 29.89574 27.95841
#
# Velocity S-wave (km/s) = 3.67509 3.93922 3.80944
# Velocity P-wave (km/s) = 6.95773 7.36364 7.16356
#
# Compressibility (1/GPa) = 0.01707318
#
# Stress axis : x y z
#
# Youngs Moduli (GPa) = 99.90402 110.94182 73.01941
#
# Poissons Ratio (x) = 0.21503 0.26294
# Poissons Ratio (y) = 0.19364 0.16673
# Poissons Ratio (z) = 0.35975 0.25332
#
# Static dielectric constant tensor:
#      x y z
#    x 1.688890 0.000000 0.014830 
#    y 0.000000 1.673520 0.000000 
#    z 0.014830 0.000000 1.682760 
# 
# From -- ./inp_files/188992.got.cif
#   From: 2010.05.17/outbox.cif.g08.bks.cpg/sg15_95_cif.got.tgz:188992.got - 2010.06.03 18:47:42.
