data_PCOD9284106
_publ_section_title
;
Structure prediction by ZEFSAII (Michael W. Deem and Ramdas Pophale) SiO2 
 PCOD9284106
Probable space group: C 2/C
;
_chemical_formula_sum "Si O2"
_cell_formula_units_Z 40
_cell_length_a 5.060580
_cell_length_b 13.077470
_cell_length_c 26.810869
_cell_angle_alpha 90.000000
_cell_angle_beta 103.580450
_cell_angle_gamma 90.000000
_cell_volume 1724.723896
_symmetry_space_group_name_H-M "C 2/C"
_symmetry_group_IT_number 15
_symmetry_cell_setting 'monoclinic'
loop_
_space_group_symop_operation_xyz
x,y,z
-x,y,1/2-z
-x,-y,-z
x,-y,1/2+z
1/2+x,1/2+y,z
1/2-x,1/2+y,1/2-z
1/2-x,1/2-y,-z
1/2+x,1/2-y,1/2+z
loop_
_atom_site_type_symbol
_atom_site_label
_atom_site_fract_x
_atom_site_fract_y
_atom_site_fract_z
Si Si1 0.792507 0.491634 0.038002
Si Si2 0.584253 0.768521 0.442788
Si Si3 0.214449 0.412073 0.618018
Si Si4 0.851335 0.851450 0.131364
Si Si5 0.409514 0.759584 0.189305
O O1 0.806580 0.381971 0.065724
O O2 0.906394 0.570975 0.084163
O O3 0.500000 0.500000 0.000000
O O4 0.000000 0.500000 0.000000
O O5 0.750000 0.750000 0.500000
O O6 0.654301 0.669395 0.413942
O O7 0.262053 0.794073 0.423729
O O8 0.324487 0.527248 0.623053
O O9 0.296293 0.355282 0.672658
O O10 0.650948 0.801451 0.164388
O O11 0.148846 0.825967 0.163033
O O12 0.500000 0.768712 0.250000
#
# Coordination Sequence:
#
# PCOD9284106 Si02
#       5
#     8   8   8   8   8
#     4  11  24  39  62  96 135 180 223 265 326 394
#     4  10  21  40  66  96 136 182 221 263 326 403
#     4  10  24  44  68  99 139 178 227 277 338 401
#     4  10  25  44  66 100 136 169 226 282 333 410
#     4  11  25  46  71  98 129 174 230 289 348 402
#
# _framework density 23.192119000000002
#
# number of rings (size 3 to 8) (size 9 to 14) (size 15 to 20)
#    0.000    1.600    2.000    0.600    2.800   15.200 
#    0.000    0.000    0.000    0.000    0.000    0.000 
#    0.000    0.000    0.000    0.000    0.000    0.000 
#
# Total GULP energy -111596.506899 kJ/mol
# GULP energy per Si atom -5579.825345 kJ/mol
# Density = 2.313933 g / cm^3
# Si number density = 23.192119 Si / 1000 Ang^3
#
#
#
# Elastic Constant Matrix: (Units=GPa)
#
#
# Indices 1 2 3 4 5 6 
#
# 1 138.4561 34.9430 49.0529 0.0000 29.0535 0.0000
# 2 34.9430 199.8641 43.7919 0.0000 16.9797 0.0000
# 3 49.0529 43.7919 159.1162 0.0000 33.3146 0.0000
# 4 0.0000 0.0000 0.0000 37.5198 0.0000 8.2139
# 5 29.0535 16.9797 33.3146 0.0000 37.7651 0.0000
# 6 0.0000 0.0000 0.0000 8.2139 0.0000 33.8471
#
#
#
# Elastic Compliance Matrix: (Units=1/GPa)
#
#
# Indices 1 2 3 4 5 6 
#
# 1 0.009060 -0.000813 -0.001455 0.000000 -0.005321 0.000000
# 2 -0.000813 0.005454 -0.001065 0.000000 -0.000888 0.000000
# 3 -0.001455 -0.001065 0.008208 0.000000 -0.005642 0.000000
# 4 0.000000 0.000000 0.000000 0.028148 0.000000 -0.006831
# 5 -0.005321 -0.000888 -0.005642 0.000000 0.035949 0.000000
# 6 0.000000 0.000000 0.000000 -0.006831 0.000000 0.031202
#
#
# Mechanical properties :
#
#
# Convention : Reuss Voigt Hill
#
# Bulk Modulus (GPa) = 62.28268 83.66799 72.97534
# Shear Modulus (GPa) = 38.45006 46.46964 42.45985
#
# Velocity S-wave (km/s) = 4.07614 4.48111 4.28341
# Velocity P-wave (km/s) = 7.00476 7.93272 7.48314
#
# Compressibility (1/GPa) = 0.01605583
#
# Stress axis : x y z
#
# Youngs Moduli (GPa) = 110.37849 183.34399 121.83740
#
# Poissons Ratio (x) = 0.14907 0.17730
# Poissons Ratio (y) = 0.08975 0.12971
# Poissons Ratio (z) = 0.16062 0.19519
#
# Static dielectric constant tensor:
#      x y z
#    x 1.998710 0.000000 -0.044840 
#    y 0.000000 1.825220 0.000000 
#    z -0.044840 0.000000 1.933170 
# 
# From -- ./inp_files/305005.got.cif
#   From: 2010.05.17/outbox.cif.g08.bks.cpg/sg15_153_cif.got.tgz:305005.got - 2010.06.03 18:47:42.
