data_PCOD9284630
_publ_section_title
;
Structure prediction by ZEFSAII (Michael W. Deem and Ramdas Pophale) SiO2 
 PCOD9284630
Probable space group: C 2/C
;
_chemical_formula_sum "Si O2"
_cell_formula_units_Z 44
_cell_length_a 14.942753
_cell_length_b 23.579549
_cell_length_c 5.114450
_cell_angle_alpha 90.000000
_cell_angle_beta 64.067983
_cell_angle_gamma 90.000000
_cell_volume 1620.601317
_symmetry_space_group_name_H-M "C 2/C"
_symmetry_group_IT_number 15
_symmetry_cell_setting 'monoclinic'
loop_
_space_group_symop_operation_xyz
x,y,z
-x,y,1/2-z
-x,-y,-z
x,-y,1/2+z
1/2+x,1/2+y,z
1/2-x,1/2+y,1/2-z
1/2-x,1/2-y,-z
1/2+x,1/2-y,1/2+z
loop_
_atom_site_type_symbol
_atom_site_label
_atom_site_fract_x
_atom_site_fract_y
_atom_site_fract_z
Si Si1 0.109323 0.975384 0.933514
Si Si2 0.250000 0.750000 0.000000
Si Si3 0.398274 0.769840 0.300154
Si Si4 0.594116 0.357073 0.811276
Si Si5 0.385439 0.037556 0.355294
Si Si6 0.759295 0.645748 0.667287
O O1 0.161341 0.989997 0.594746
O O2 0.102841 0.909249 0.003445
O O3 0.000000 0.000000 0.000000
O O4 0.170432 0.739658 0.359521
O O5 0.207117 0.816493 0.014429
O O6 0.500000 0.801174 0.250000
O O7 0.430289 0.709708 0.137778
O O8 0.335269 0.801394 0.152592
O O9 0.500000 0.377810 0.750000
O O10 0.690095 0.363458 0.500998
O O11 0.500000 0.056835 0.250000
O O12 0.316617 0.091330 0.500463
O O13 0.372955 0.987263 0.582062
#
# Coordination Sequence:
#
# PCOD9284630 Si02
#       6
#     8   4   8   8   8   8
#     4  10  21  41  62  97 144 202 262 321 377 471
#     4   8  22  44  68 114 150 200 270 336 390 524
#     4   9  21  44  70 106 152 212 263 341 418 479
#     4  11  22  41  70 103 155 211 261 330 404 484
#     4  10  24  49  79 118 159 211 280 349 424 502
#     4  10  23  46  73 113 163 205 275 344 413 505
#
# _framework density 27.150414000000001
#
# number of rings (size 3 to 8) (size 9 to 14) (size 15 to 20)
#    1.091    1.091    1.818    0.545    0.000    6.545 
#    6.545    2.727    0.000    0.000    0.000    0.000 
#    0.000    0.000    0.000    0.000    0.000    0.000 
#
# Total GULP energy -122803.692095 kJ/mol
# GULP energy per Si atom -5581.986004 kJ/mol
# Density = 2.708862 g / cm^3
# Si number density = 27.150414 Si / 1000 Ang^3
#
#
#
# Elastic Constant Matrix: (Units=GPa)
#
#
# Indices 1 2 3 4 5 6 
#
# 1 77.4494 -13.5251 -0.3129 0.0000 -0.0550 0.0000
# 2 -13.5251 168.4614 3.5966 0.0000 -14.8558 0.0000
# 3 -0.3129 3.5966 100.4591 0.0000 3.9748 0.0000
# 4 0.0000 0.0000 0.0000 36.8480 0.0000 -16.0819
# 5 -0.0550 -14.8558 3.9748 0.0000 36.7610 0.0000
# 6 0.0000 0.0000 0.0000 -16.0819 0.0000 33.4627
#
#
#
# Elastic Compliance Matrix: (Units=1/GPa)
#
#
# Indices 1 2 3 4 5 6 
#
# 1 0.013103 0.001093 -0.000017 0.000000 0.000463 0.000000
# 2 0.001093 0.006257 -0.000322 0.000000 0.002565 0.000000
# 3 -0.000017 -0.000322 0.010014 0.000000 -0.001213 0.000000
# 4 0.000000 0.000000 0.000000 0.034342 0.000000 0.016504
# 5 0.000463 0.002565 -0.001213 0.000000 0.028371 0.000000
# 6 0.000000 0.000000 0.000000 0.016504 0.000000 0.037816
#
#
# Mechanical properties :
#
#
# Convention : Reuss Voigt Hill
#
# Bulk Modulus (GPa) = 32.38094 36.20968 34.29531
# Shear Modulus (GPa) = 36.05232 45.18843 40.62037
#
# Velocity S-wave (km/s) = 3.64795 4.08410 3.87217
# Velocity P-wave (km/s) = 5.44939 5.96703 5.71407
#
# Compressibility (1/GPa) = 0.03088236
#
# Stress axis : x y z
#
# Youngs Moduli (GPa) = 76.31948 159.82315 99.86248
#
# Poissons Ratio (x) = -0.17471 0.00166
# Poissons Ratio (y) = -0.08343 0.03216
# Poissons Ratio (z) = 0.00127 0.05148
#
# Static dielectric constant tensor:
#      x y z
#    x 2.010780 0.000000 -0.032730 
#    y 0.000000 1.599430 0.000000 
#    z -0.032730 0.000000 2.917090 
# 
# From -- ./inp_files/10856.got.cif
#   From: 2010.05.17/outbox.cif.g08.bks.cpg/sg15_6_cif.got.tgz:10856.got - 2010.06.03 18:47:42.
