data_PCOD9284560
_publ_section_title
;
Structure prediction by ZEFSAII (Michael W. Deem and Ramdas Pophale) SiO2 
 PCOD9284560
Probable space group: C 2/C
;
_chemical_formula_sum "Si O2"
_cell_formula_units_Z 60
_cell_length_a 9.190203
_cell_length_b 21.372981
_cell_length_c 18.529599
_cell_angle_alpha 90.000000
_cell_angle_beta 122.789324
_cell_angle_gamma 90.000000
_cell_volume 3059.711625
_symmetry_space_group_name_H-M "C 2/C"
_symmetry_group_IT_number 15
_symmetry_cell_setting 'monoclinic'
loop_
_space_group_symop_operation_xyz
x,y,z
-x,y,1/2-z
-x,-y,-z
x,-y,1/2+z
1/2+x,1/2+y,z
1/2-x,1/2+y,1/2-z
1/2-x,1/2-y,-z
1/2+x,1/2-y,1/2+z
loop_
_atom_site_type_symbol
_atom_site_label
_atom_site_fract_x
_atom_site_fract_y
_atom_site_fract_z
Si Si1 0.851484 0.184170 0.541074
Si Si2 0.112820 0.594156 0.564088
Si Si3 0.726270 0.735000 0.658124
Si Si4 0.856838 0.859980 0.657926
Si Si5 0.892131 0.539660 0.370566
Si Si6 0.031825 0.293496 0.139780
Si Si7 0.631728 0.339629 0.613883
Si Si8 0.000000 0.599047 0.250000
O O1 0.750000 0.250000 0.500000
O O2 0.769099 0.136270 0.575750
O O3 0.862902 0.146768 0.468835
O O4 0.041423 0.204690 0.614547
O O5 0.139210 0.532648 0.619755
O O6 0.021108 0.644161 0.590859
O O7 0.007163 0.569662 0.466057
O O8 0.706420 0.809156 0.633131
O O9 0.834860 0.712286 0.757159
O O10 0.841770 0.715500 0.621072
O O11 0.789506 0.924719 0.669705
O O12 0.000000 0.831738 0.750000
O O13 0.965250 0.866335 0.613233
O O14 0.974465 0.557208 0.315346
O O15 0.094333 0.234504 0.109717
O O16 0.820823 0.360347 0.695341
#
# Coordination Sequence:
#
# PCOD9284560 Si02
#       8
#     8   8   8   8   8   8   8   4
#     4  12  24  39  63 102 133 164 212 273 339 380
#     4  11  25  44  62  97 131 168 217 266 327 381
#     4  10  22  39  64  97 132 165 213 270 330 395
#     4  11  20  41  64  94 128 170 220 260 316 394
#     4  11  25  44  67  89 130 176 218 267 309 392
#     4  10  21  41  61  93 130 171 208 268 333 384
#     4  11  23  36  66  98 123 163 220 269 328 384
#     4  12  22  42  70  92 126 172 218 270 322 384
#
# _framework density 19.609691999999999
#
# number of rings (size 3 to 8) (size 9 to 14) (size 15 to 20)
#    0.000    1.067    6.667    0.800    3.733    2.667 
#    2.400    2.000    0.000    0.000    0.000    0.000 
#    0.000    0.000    0.000    0.000    0.000    0.000 
#
# Total GULP energy -167157.002503 kJ/mol
# GULP energy per Si atom -5571.900083 kJ/mol
# Density = 1.956506 g / cm^3
# Si number density = 19.609692 Si / 1000 Ang^3
#
#
#
# Elastic Constant Matrix: (Units=GPa)
#
#
# Indices 1 2 3 4 5 6 
#
# 1 75.7628 41.9766 9.4659 0.0000 -9.2479 0.0000
# 2 41.9766 119.8011 15.1965 0.0000 -10.4887 0.0000
# 3 9.4659 15.1965 15.2520 0.0000 -9.8280 0.0000
# 4 0.0000 0.0000 0.0000 20.4797 0.0000 -4.2264
# 5 -9.2479 -10.4887 -9.8280 0.0000 42.4362 0.0000
# 6 0.0000 0.0000 0.0000 -4.2264 0.0000 23.0099
#
#
#
# Elastic Compliance Matrix: (Units=1/GPa)
#
#
# Indices 1 2 3 4 5 6 
#
# 1 0.016798 -0.005215 -0.004351 0.000000 0.001364 0.000000
# 2 -0.005215 0.011175 -0.008052 0.000000 -0.000239 0.000000
# 3 -0.004351 -0.008052 0.087445 0.000000 0.017313 0.000000
# 4 0.000000 0.000000 0.000000 0.050753 0.000000 0.009322
# 5 0.001364 -0.000239 0.017313 0.000000 0.027813 0.000000
# 6 0.000000 0.000000 0.000000 0.009322 0.000000 0.045172
#
#
# Mechanical properties :
#
#
# Convention : Reuss Voigt Hill
#
# Bulk Modulus (GPa) = 12.47149 38.23264 25.35207
# Shear Modulus (GPa) = 16.60483 26.79696 21.70089
#
# Velocity S-wave (km/s) = 2.91308 3.70065 3.33023
# Velocity P-wave (km/s) = 4.20576 6.14808 5.26722
#
# Compressibility (1/GPa) = 0.08018286
#
# Stress axis : x y z
#
# Youngs Moduli (GPa) = 59.52957 89.48792 11.43582
#
# Poissons Ratio (x) = 0.46664 0.04976
# Poissons Ratio (y) = 0.31042 0.09208
# Poissons Ratio (z) = 0.25901 0.72054
#
# Static dielectric constant tensor:
#      x y z
#    x 1.750170 0.000000 0.022650 
#    y 0.000000 1.690760 0.000000 
#    z 0.022650 0.000000 1.771070 
# 
# From -- ./inp_files/192565.got.cif
#   From: 2010.05.17/outbox.cif.g08.bks.cpg/sg15_97_cif.got.tgz:192565.got - 2010.06.03 18:47:42.
