data_PCOD9284121
_publ_section_title
;
Structure prediction by ZEFSAII (Michael W. Deem and Ramdas Pophale) SiO2 
 PCOD9284121
Probable space group: C 2/C
;
_chemical_formula_sum "Si O2"
_cell_formula_units_Z 44
_cell_length_a 33.243455
_cell_length_b 5.188066
_cell_length_c 10.159332
_cell_angle_alpha 90.000000
_cell_angle_beta 66.752910
_cell_angle_gamma 90.000000
_cell_volume 1609.915593
_symmetry_space_group_name_H-M "C 2/C"
_symmetry_group_IT_number 15
_symmetry_cell_setting 'monoclinic'
loop_
_space_group_symop_operation_xyz
x,y,z
-x,y,1/2-z
-x,-y,-z
x,-y,1/2+z
1/2+x,1/2+y,z
1/2-x,1/2+y,1/2-z
1/2-x,1/2-y,-z
1/2+x,1/2-y,1/2+z
loop_
_atom_site_type_symbol
_atom_site_label
_atom_site_fract_x
_atom_site_fract_y
_atom_site_fract_z
Si Si1 0.060275 0.501498 0.989702
Si Si2 0.240302 0.344194 0.844282
Si Si3 0.833397 0.239499 0.290066
Si Si4 0.149718 0.545115 0.007802
Si Si5 0.923165 0.996514 0.198567
Si Si6 0.000000 0.779972 0.750000
O O1 0.099251 0.484704 0.047258
O O2 0.062812 0.785013 0.925749
O O3 0.071628 0.284522 0.867733
O O4 0.015900 0.409018 0.114277
O O5 0.247989 0.623458 0.772753
O O6 0.283056 0.332811 0.885176
O O7 0.187684 0.337068 0.924734
O O8 0.841302 0.523159 0.346210
O O9 0.841219 0.249301 0.121545
O O10 0.872666 0.064538 0.296593
O O11 0.958618 0.044210 0.266284
#
# Coordination Sequence:
#
# PCOD9284121 Si02
#       6
#     8   8   8   8   8   4
#     4  11  25  44  66  98 133 173 222 276 333 399
#     4  10  21  40  67 100 135 176 221 272 327 394
#     4  10  21  43  67 101 135 178 221 274 331 396
#     4  10  21  43  67 101 135 178 221 274 331 396
#     4  11  25  44  66  98 133 173 222 276 333 399
#     4  12  24  46  68  98 128 178 224 278 338 392
#
# _framework density 27.330627
#
# number of rings (size 3 to 8) (size 9 to 14) (size 15 to 20)
#    0.000    1.455    1.818    2.727    0.000    2.909 
#    3.273   30.000    0.000    0.000    0.000    0.000 
#    0.000    0.000    0.000    0.000    0.000    0.000 
#
# Total GULP energy -122829.587302 kJ/mol
# GULP energy per Si atom -5583.163059 kJ/mol
# Density = 2.726842 g / cm^3
# Si number density = 27.330627 Si / 1000 Ang^3
#
#
#
# Elastic Constant Matrix: (Units=GPa)
#
#
# Indices 1 2 3 4 5 6 
#
# 1 191.8621 3.0288 26.0439 0.0000 -15.1727 0.0000
# 2 3.0288 83.9326 23.6098 0.0000 8.5007 0.0000
# 3 26.0439 23.6098 71.8820 0.0000 -24.1840 0.0000
# 4 0.0000 0.0000 0.0000 21.5482 0.0000 -7.0679
# 5 -15.1727 8.5007 -24.1840 0.0000 58.4664 0.0000
# 6 0.0000 0.0000 0.0000 -7.0679 0.0000 34.9517
#
#
#
# Elastic Compliance Matrix: (Units=1/GPa)
#
#
# Indices 1 2 3 4 5 6 
#
# 1 0.005511 0.000267 -0.001878 0.000000 0.000615 0.000000
# 2 0.000267 0.014136 -0.006282 0.000000 -0.004585 0.000000
# 3 -0.001878 -0.006282 0.019515 0.000000 0.008498 0.000000
# 4 0.000000 0.000000 0.000000 0.049704 0.000000 0.010051
# 5 0.000615 -0.004585 0.008498 0.000000 0.021445 0.000000
# 6 0.000000 0.000000 0.000000 0.010051 0.000000 0.030643
#
#
# Mechanical properties :
#
#
# Convention : Reuss Voigt Hill
#
# Bulk Modulus (GPa) = 42.77856 50.33796 46.55826
# Shear Modulus (GPa) = 30.38904 42.65953 36.52429
#
# Velocity S-wave (km/s) = 3.33814 3.95507 3.65963
# Velocity P-wave (km/s) = 5.52664 6.27016 5.91011
#
# Compressibility (1/GPa) = 0.02337619
#
# Stress axis : x y z
#
# Youngs Moduli (GPa) = 181.44319 70.74049 51.24383
#
# Poissons Ratio (x) = -0.01889 0.09622
# Poissons Ratio (y) = -0.04846 0.32193
# Poissons Ratio (z) = 0.34071 0.44441
#
# Static dielectric constant tensor:
#      x y z
#    x 2.172670 0.000000 0.075600 
#    y 0.000000 2.085440 0.000000 
#    z 0.075600 0.000000 2.281320 
# 
# From -- ./inp_files/124971.got.cif
#   From: 2010.05.17/outbox.cif.g08.bks.cpg/sg15_63_cif.got.tgz:124971.got - 2010.06.03 18:47:42.
