data_PCOD9284527
_publ_section_title
;
Structure prediction by ZEFSAII (Michael W. Deem and Ramdas Pophale) SiO2 
 PCOD9284527
Probable space group: C 2/C
;
_chemical_formula_sum "Si O2"
_cell_formula_units_Z 48
_cell_length_a 12.070053
_cell_length_b 21.702420
_cell_length_c 9.565414
_cell_angle_alpha 90.000000
_cell_angle_beta 108.292605
_cell_angle_gamma 90.000000
_cell_volume 2379.033339
_symmetry_space_group_name_H-M "C 2/C"
_symmetry_group_IT_number 15
_symmetry_cell_setting 'monoclinic'
loop_
_space_group_symop_operation_xyz
x,y,z
-x,y,1/2-z
-x,-y,-z
x,-y,1/2+z
1/2+x,1/2+y,z
1/2-x,1/2+y,1/2-z
1/2-x,1/2-y,-z
1/2+x,1/2-y,1/2+z
loop_
_atom_site_type_symbol
_atom_site_label
_atom_site_fract_x
_atom_site_fract_y
_atom_site_fract_z
Si Si1 0.143311 0.470129 0.212504
Si Si2 0.175190 0.191511 0.020348
Si Si3 0.734492 0.185241 0.150041
Si Si4 0.406709 0.695620 0.974129
Si Si5 0.920596 0.575764 0.512264
Si Si6 0.626705 0.408322 0.261345
O O1 0.130393 0.460518 0.372848
O O2 0.274478 0.458628 0.218397
O O3 0.057136 0.419754 0.105452
O O4 0.097452 0.534163 0.132042
O O5 0.236316 0.164572 0.182501
O O6 0.250000 0.250000 0.000000
O O7 0.162494 0.140645 0.894987
O O8 0.043208 0.210459 0.011874
O O9 0.670395 0.251079 0.128416
O O10 0.853102 0.190858 0.107439
O O11 0.647593 0.138748 0.036949
O O12 0.385039 0.631877 0.884201
O O13 0.500000 0.433922 0.250000
#
# Coordination Sequence:
#
# PCOD9284527 Si02
#       6
#     8   8   8   8   8   8
#     4  10  22  44  61  92 117 157 205 254 304 358
#     4  11  23  37  57  91 124 160 196 249 295 365
#     4  11  22  39  62  89 120 163 202 250 305 365
#     4  10  22  40  59  88 126 159 202 244 304 369
#     4  10  23  40  67  88 119 155 206 259 302 360
#     4  10  21  41  61  84 126 161 193 247 301 360
#
# _framework density 20.176262999999999
#
# number of rings (size 3 to 8) (size 9 to 14) (size 15 to 20)
#    0.000    1.667    3.333    0.500    4.667    0.000 
#    3.000    2.500    0.000    0.000    0.000    0.000 
#    0.000    0.000    0.000    0.000    0.000    0.000 
#
# Total GULP energy -134016.353916 kJ/mol
# GULP energy per Si atom -5584.014746 kJ/mol
# Density = 2.013034 g / cm^3
# Si number density = 20.176263 Si / 1000 Ang^3
#
#
#
# Elastic Constant Matrix: (Units=GPa)
#
#
# Indices 1 2 3 4 5 6 
#
# 1 97.5761 10.1900 3.2251 0.0000 7.4370 0.0000
# 2 10.1900 8.3505 -7.4830 0.0000 0.2587 0.0000
# 3 3.2251 -7.4830 68.3314 0.0000 -2.3029 0.0000
# 4 0.0000 0.0000 0.0000 19.0788 0.0000 4.5253
# 5 7.4370 0.2587 -2.3029 0.0000 16.1773 0.0000
# 6 0.0000 0.0000 0.0000 4.5253 0.0000 28.3120
#
#
#
# Elastic Compliance Matrix: (Units=1/GPa)
#
#
# Indices 1 2 3 4 5 6 
#
# 1 0.012637 -0.017686 -0.002733 0.000000 -0.005915 0.000000
# 2 -0.017686 0.157537 0.018364 0.000000 0.008226 0.000000
# 3 -0.002733 0.018364 0.016888 0.000000 0.003367 0.000000
# 4 0.000000 0.000000 0.000000 0.054480 0.000000 -0.008708
# 5 -0.005915 0.008226 0.003367 0.000000 0.064882 0.000000
# 6 0.000000 0.000000 0.000000 -0.008708 0.000000 0.036713
#
#
# Mechanical properties :
#
#
# Convention : Reuss Voigt Hill
#
# Bulk Modulus (GPa) = 5.46589 20.68024 13.07307
# Shear Modulus (GPa) = 12.24803 23.93533 18.09168
#
# Velocity S-wave (km/s) = 2.46651 3.44802 2.99771
# Velocity P-wave (km/s) = 3.29037 5.11115 4.29828
#
# Compressibility (1/GPa) = 0.18295280
#
# Stress axis : x y z
#
# Youngs Moduli (GPa) = 79.13549 6.34772 59.21345
#
# Poissons Ratio (x) = 0.11226 0.16180
# Poissons Ratio (y) = 1.39957 -1.08739
# Poissons Ratio (z) = 0.21624 -0.11657
#
# Static dielectric constant tensor:
#      x y z
#    x 1.724860 0.000000 0.000410 
#    y 0.000000 1.683360 0.000000 
#    z 0.000410 0.000000 1.711150 
# 
# From -- ./inp_files/31885.got.cif
#   From: 2010.05.17/outbox.cif.g08.bks.cpg/sg15_16_cif.got.tgz:31885.got - 2010.06.03 18:47:42.
