data_PCOD9284916
_publ_section_title
;
Structure prediction by ZEFSAII (Michael W. Deem and Ramdas Pophale) SiO2 
 PCOD9284916
Probable space group: C 2/C
;
_chemical_formula_sum "Si O2"
_cell_formula_units_Z 32
_cell_length_a 7.939851
_cell_length_b 19.231993
_cell_length_c 14.807701
_cell_angle_alpha 90.000000
_cell_angle_beta 149.508179
_cell_angle_gamma 90.000000
_cell_volume 1147.328788
_symmetry_space_group_name_H-M "C 2/C"
_symmetry_group_IT_number 15
_symmetry_cell_setting 'monoclinic'
loop_
_space_group_symop_operation_xyz
x,y,z
-x,y,1/2-z
-x,-y,-z
x,-y,1/2+z
1/2+x,1/2+y,z
1/2-x,1/2+y,1/2-z
1/2-x,1/2-y,-z
1/2+x,1/2-y,1/2+z
loop_
_atom_site_type_symbol
_atom_site_label
_atom_site_fract_x
_atom_site_fract_y
_atom_site_fract_z
Si Si1 0.846907 0.203840 0.458329
Si Si2 0.983584 0.951264 0.903272
Si Si3 0.682115 0.833588 0.536703
Si Si4 0.780773 0.581251 0.988458
O O1 0.500000 0.189915 0.250000
O O2 0.750000 0.250000 0.500000
O O3 0.947831 0.132256 0.555178
O O4 0.055805 0.253792 0.487911
O O5 0.196744 0.880041 0.992362
O O6 0.614649 0.933350 0.701031
O O7 0.133473 0.006334 0.902235
O O8 0.000000 0.000000 0.000000
O O9 0.392251 0.877804 0.451122
O O10 0.000000 0.835027 0.750000
#
# Coordination Sequence:
#
# PCOD9284916 Si02
#       4
#     8   8   8   8
#     4  10  21  41  65  94 135 180 229 287 339 402
#     4  11  21  37  61  92 128 167 214 275 338 398
#     4   9  21  41  65  93 129 177 227 278 340 409
#     4  10  22  41  61  91 133 174 222 280 335 405
#
# _framework density 27.890871000000001
#
# number of rings (size 3 to 8) (size 9 to 14) (size 15 to 20)
#    0.000    2.000    0.000    3.000    0.000    4.000 
#    0.000   28.750    0.000    0.000    0.000    0.000 
#    0.000    0.000    0.000    1.250    0.000    0.000 
#
# Total GULP energy -89507.668716 kJ/mol
# GULP energy per Si atom -5594.229295 kJ/mol
# Density = 2.782739 g / cm^3
# Si number density = 27.890871 Si / 1000 Ang^3
#
#
#
# Elastic Constant Matrix: (Units=GPa)
#
#
# Indices 1 2 3 4 5 6 
#
# 1 148.7754 70.5226 39.6621 -0.0149 10.4838 -0.0231
# 2 70.5226 287.7549 19.9835 -0.0277 15.4608 -0.0380
# 3 39.6621 19.9835 67.5063 -0.1648 -7.6176 -0.2561
# 4 -0.0149 -0.0277 -0.1648 -443.0792 -0.0103 -688.4936
# 5 10.4838 15.4608 -7.6176 -0.0103 39.2787 -0.0165
# 6 -0.0231 -0.0380 -0.2561 -688.4936 -0.0165 -978.9835
#
#
#
# Elastic Compliance Matrix: (Units=1/GPa)
#
#
# Indices 1 2 3 4 5 6 
#
# 1 0.009107 -0.001726 -0.005150 0.000002 -0.002750 0.000000
# 2 -0.001726 0.003981 -0.000296 0.000000 -0.001164 0.000000
# 3 -0.005150 -0.000296 0.018500 -0.000007 0.005079 0.000000
# 4 0.000002 0.000000 -0.000007 0.024319 -0.000003 -0.017103
# 5 -0.002750 -0.001164 0.005079 -0.000003 0.027636 0.000000
# 6 0.000000 0.000000 0.000000 -0.017103 0.000000 0.011006
#
#
# Mechanical properties :
#
#
# Convention : Reuss Voigt Hill
#
# Bulk Modulus (GPa) = 57.99036 84.93032 71.46034
# Shear Modulus (GPa) = 43.61484 -251.63225 -104.00871
#
# Velocity S-wave (km/s) = 3.95874 -9.50874 -6.11329
# Velocity P-wave (km/s) = 6.46007 9.48883 4.91454
#
# Compressibility (1/GPa) = 0.01724425
#
# Stress axis : x y z
#
# Youngs Moduli (GPa) = 109.81157 251.17157 54.05546
#
# Poissons Ratio (x) = 0.43364 0.27836
# Poissons Ratio (y) = 0.18958 0.01598
# Poissons Ratio (z) = 0.56548 0.07423
#
# Static dielectric constant tensor:
#      x y z
#    x 2.448750 0.000090 -0.074050 
#    y 0.000090 2.183030 -0.000050 
#    z -0.074050 -0.000050 2.120260 
# 
# From -- ./inp_files/192415.got.cif
#   From: 2010.05.17/outbox.cif.g08.bks.cpg/sg15_97_cif.got.tgz:192415.got - 2010.06.03 18:47:42.
