data_PCOD9284201
_publ_section_title
;
Structure prediction by ZEFSAII (Michael W. Deem and Ramdas Pophale) SiO2 
 PCOD9284201
Probable space group: C 2/C
;
_chemical_formula_sum "Si O2"
_cell_formula_units_Z 40
_cell_length_a 17.442151
_cell_length_b 6.673847
_cell_length_c 16.168633
_cell_angle_alpha 90.000000
_cell_angle_beta 87.745289
_cell_angle_gamma 90.000000
_cell_volume 1880.672753
_symmetry_space_group_name_H-M "C 2/C"
_symmetry_group_IT_number 15
_symmetry_cell_setting 'monoclinic'
loop_
_space_group_symop_operation_xyz
x,y,z
-x,y,1/2-z
-x,-y,-z
x,-y,1/2+z
1/2+x,1/2+y,z
1/2-x,1/2+y,1/2-z
1/2-x,1/2-y,-z
1/2+x,1/2-y,1/2+z
loop_
_atom_site_type_symbol
_atom_site_label
_atom_site_fract_x
_atom_site_fract_y
_atom_site_fract_z
Si Si1 0.183262 0.995393 0.209807
Si Si2 0.358541 0.139042 0.698976
Si Si3 0.405137 0.108125 0.341862
Si Si4 0.168826 0.271901 0.048499
Si Si5 0.551822 0.884159 0.932400
O O1 0.151448 0.123824 0.288235
O O2 0.171114 0.126735 0.127390
O O3 0.273038 0.948453 0.216583
O O4 0.139656 0.790229 0.197001
O O5 0.411897 0.059052 0.770716
O O6 0.392424 0.042955 0.615118
O O7 0.487055 0.185912 0.370811
O O8 0.354150 0.992605 0.414198
O O9 0.250000 0.250000 0.000000
O O10 0.103611 0.230377 0.982066
O O11 0.500000 0.000000 0.000000
#
# Coordination Sequence:
#
# PCOD9284201 Si02
#       5
#     8   8   8   8   8
#     4  11  22  39  69  99 123 174 225 270 322 390
#     4  11  21  41  68  93 129 172 225 268 326 392
#     4  10  23  41  64  98 133 167 216 272 328 381
#     4  10  21  40  67  96 131 170 219 264 325 395
#     4  10  22  44  64  91 136 171 205 275 333 383
#
# _framework density 21.268984
#
# number of rings (size 3 to 8) (size 9 to 14) (size 15 to 20)
#    0.000    1.600    4.000    0.600    0.000    1.600 
#    0.000   12.000    0.000    0.000    0.000    0.000 
#    0.000    0.000    0.000    0.000    0.000    0.000 
#
# Total GULP energy -111579.232297 kJ/mol
# GULP energy per Si atom -5578.961615 kJ/mol
# Density = 2.122057 g / cm^3
# Si number density = 21.268984 Si / 1000 Ang^3
#
#
#
# Elastic Constant Matrix: (Units=GPa)
#
#
# Indices 1 2 3 4 5 6 
#
# 1 122.2093 11.9611 4.5081 0.0000 26.0286 0.0000
# 2 11.9611 66.2405 -2.7897 0.0000 4.5716 0.0000
# 3 4.5081 -2.7897 45.7857 0.0000 -0.1072 0.0000
# 4 0.0000 0.0000 0.0000 24.5880 0.0000 9.0436
# 5 26.0286 4.5716 -0.1072 0.0000 42.7919 0.0000
# 6 0.0000 0.0000 0.0000 9.0436 0.0000 24.7487
#
#
#
# Elastic Compliance Matrix: (Units=1/GPa)
#
#
# Indices 1 2 3 4 5 6 
#
# 1 0.009564 -0.001379 -0.001039 0.000000 -0.005673 0.000000
# 2 -0.001379 0.015447 0.001075 0.000000 -0.000809 0.000000
# 3 -0.001039 0.001075 0.022010 0.000000 0.000572 0.000000
# 4 0.000000 0.000000 0.000000 0.046985 0.000000 -0.017169
# 5 -0.005673 -0.000809 0.000572 0.000000 0.026907 0.000000
# 6 0.000000 0.000000 0.000000 -0.017169 0.000000 0.046680
#
#
# Mechanical properties :
#
#
# Convention : Reuss Voigt Hill
#
# Bulk Modulus (GPa) = 22.55581 29.06604 25.81092
# Shear Modulus (GPa) = 27.01857 33.12947 30.07402
#
# Velocity S-wave (km/s) = 3.56803 3.95098 3.76438
# Velocity P-wave (km/s) = 5.25381 5.87446 5.57278
#
# Compressibility (1/GPa) = 0.04433448
#
# Stress axis : x y z
#
# Youngs Moduli (GPa) = 104.55640 64.73899 45.43383
#
# Poissons Ratio (x) = 0.08929 0.04721
# Poissons Ratio (y) = 0.14421 -0.04885
# Poissons Ratio (z) = 0.10864 -0.06960
#
# Static dielectric constant tensor:
#      x y z
#    x 1.807930 0.000000 0.059340 
#    y 0.000000 1.758950 0.000000 
#    z 0.059340 0.000000 1.843720 
# 
# From -- ./inp_files/207981.got.cif
#   From: 2010.05.17/outbox.cif.g08.bks.cpg/sg15_104_cif.got.tgz:207981.got - 2010.06.03 18:47:42.
