data_PCOD9284452
_publ_section_title
;
Structure prediction by ZEFSAII (Michael W. Deem and Ramdas Pophale) SiO2 
 PCOD9284452
Probable space group: C 2/C
;
_chemical_formula_sum "Si O2"
_cell_formula_units_Z 64
_cell_length_a 9.525812
_cell_length_b 29.372150
_cell_length_c 19.862191
_cell_angle_alpha 90.000000
_cell_angle_beta 145.879064
_cell_angle_gamma 90.000000
_cell_volume 3117.327952
_symmetry_space_group_name_H-M "C 2/C"
_symmetry_group_IT_number 15
_symmetry_cell_setting 'monoclinic'
loop_
_space_group_symop_operation_xyz
x,y,z
-x,y,1/2-z
-x,-y,-z
x,-y,1/2+z
1/2+x,1/2+y,z
1/2-x,1/2+y,1/2-z
1/2-x,1/2-y,-z
1/2+x,1/2-y,1/2+z
loop_
_atom_site_type_symbol
_atom_site_label
_atom_site_fract_x
_atom_site_fract_y
_atom_site_fract_z
Si Si1 0.601810 0.409482 0.215605
Si Si2 0.770045 0.193961 0.769423
Si Si3 0.212466 0.287464 0.785439
Si Si4 0.802386 0.127951 0.231532
Si Si5 0.685484 0.688011 0.556312
Si Si6 0.443373 0.028388 0.647849
Si Si7 0.342774 0.069317 0.060535
Si Si8 0.520125 0.589817 0.056695
O O1 0.500000 0.417149 0.250000
O O2 0.638776 0.355438 0.218177
O O3 0.861432 0.435383 0.304767
O O4 0.401977 0.429052 0.083047
O O5 0.869551 0.237423 0.769205
O O6 0.468017 0.196154 0.645138
O O7 0.836488 0.199679 0.874147
O O8 0.251795 0.321168 0.738364
O O9 0.000000 0.307530 0.750000
O O10 0.474507 0.287010 0.929258
O O11 0.542973 0.104114 0.109629
O O12 0.000000 0.127623 0.250000
O O13 0.902431 0.099759 0.336097
O O14 0.629801 0.634399 0.526956
O O15 0.500000 0.023381 0.750000
O O16 0.163581 0.047364 0.525727
O O17 0.459955 0.980398 0.616576
O O18 0.253449 0.084392 0.099460
#
# Coordination Sequence:
#
# PCOD9284452 Si02
#       8
#     8   8   8   8   8   8   8   8
#     4  12  28  45  68 106 141 179 229 287 349 404
#     4  11  22  44  69 100 136 181 226 282 339 404
#     4  11  25  44  67 102 136 181 232 280 337 410
#     4  11  27  45  67 101 141 182 226 286 352 404
#     4  10  21  40  72  97 134 177 229 281 336 402
#     4  12  24  44  73 103 131 182 235 280 342 413
#     4  12  26  45  73  99 136 182 233 283 339 414
#     4  11  21  45  71 100 136 178 233 284 332 412
#
# _framework density 20.530403
#
# number of rings (size 3 to 8) (size 9 to 14) (size 15 to 20)
#    0.000    0.750    3.750    3.750    5.250    1.500 
#    2.250    0.000    0.000    0.000    0.000    0.000 
#    0.000    0.000    0.000    0.000    0.000    0.000 
#
# Total GULP energy -179044.209146 kJ/mol
# GULP energy per Si atom -5595.131536 kJ/mol
# Density = 2.048367 g / cm^3
# Si number density = 20.530403 Si / 1000 Ang^3
#
#
#
# Elastic Constant Matrix: (Units=GPa)
#
#
# Indices 1 2 3 4 5 6 
#
# 1 117.3315 26.4076 -0.7310 -0.0015 0.9436 -0.0011
# 2 26.4076 101.9347 21.5039 0.0006 -4.0927 -0.0011
# 3 -0.7310 21.5039 27.9281 -0.0007 -0.8552 0.0005
# 4 -0.0015 0.0006 -0.0007 16.1710 0.0008 -1.1624
# 5 0.9436 -4.0927 -0.8552 0.0008 21.5409 0.0009
# 6 -0.0011 -0.0011 0.0005 -1.1624 0.0009 18.3625
#
#
#
# Elastic Compliance Matrix: (Units=1/GPa)
#
#
# Indices 1 2 3 4 5 6 
#
# 1 0.009208 -0.002943 0.002481 0.000001 -0.000864 0.000000
# 2 -0.002943 0.012729 -0.009812 -0.000001 0.002158 0.000001
# 3 0.002481 -0.009812 0.043419 0.000002 -0.000249 -0.000001
# 4 0.000001 -0.000001 0.000002 0.062122 -0.000003 0.003933
# 5 -0.000864 0.002158 -0.000249 -0.000003 0.046861 -0.000002
# 6 0.000000 0.000001 -0.000001 0.003933 -0.000002 0.054708
#
#
# Mechanical properties :
#
#
# Convention : Reuss Voigt Hill
#
# Bulk Modulus (GPa) = 22.31833 37.95060 30.13447
# Shear Modulus (GPa) = 18.90134 24.54914 21.72524
#
# Velocity S-wave (km/s) = 3.03752 3.46171 3.25653
# Velocity P-wave (km/s) = 4.81627 5.87393 5.37120
#
# Compressibility (1/GPa) = 0.04480621
#
# Stress axis : x y z
#
# Youngs Moduli (GPa) = 108.60426 78.55857 23.03158
#
# Poissons Ratio (x) = 0.23123 -0.05714
# Poissons Ratio (y) = 0.31967 0.22599
# Poissons Ratio (z) = -0.26944 0.77083
#
# Static dielectric constant tensor:
#      x y z
#    x 1.700740 0.000000 -0.000830 
#    y 0.000000 1.725950 0.000000 
#    z -0.000830 0.000000 1.732020 
# 
# From -- ./inp_files/194249.got.cif
#   From: 2010.05.17/outbox.cif.g08.bks.cpg/sg15_98_cif.got.tgz:194249.got - 2010.06.03 18:47:42.
