data_PCOD9284141
_publ_section_title
;
Structure prediction by ZEFSAII (Michael W. Deem and Ramdas Pophale) SiO2 
 PCOD9284141
Probable space group: C 2/C
;
_chemical_formula_sum "Si O2"
_cell_formula_units_Z 36
_cell_length_a 13.850026
_cell_length_b 23.770968
_cell_length_c 8.075575
_cell_angle_alpha 90.000000
_cell_angle_beta 32.771021
_cell_angle_gamma 90.000000
_cell_volume 1439.114333
_symmetry_space_group_name_H-M "C 2/C"
_symmetry_group_IT_number 15
_symmetry_cell_setting 'monoclinic'
loop_
_space_group_symop_operation_xyz
x,y,z
-x,y,1/2-z
-x,-y,-z
x,-y,1/2+z
1/2+x,1/2+y,z
1/2-x,1/2+y,1/2-z
1/2-x,1/2-y,-z
1/2+x,1/2-y,1/2+z
loop_
_atom_site_type_symbol
_atom_site_label
_atom_site_fract_x
_atom_site_fract_y
_atom_site_fract_z
Si Si1 0.777700 0.435954 0.880856
Si Si2 0.348153 0.840940 0.356881
Si Si3 0.466053 0.271475 0.599441
Si Si4 0.210847 0.560191 0.756360
Si Si5 0.000000 0.844406 0.250000
O O1 0.734904 0.498451 0.879259
O O2 0.993598 0.433384 0.560693
O O3 0.730835 0.432077 0.141248
O O4 0.660365 0.387198 0.968665
O O5 0.500000 0.868142 0.250000
O O6 0.445849 0.795316 0.096856
O O7 0.228302 0.799498 0.638232
O O8 0.230766 0.888389 0.441718
O O9 0.500000 0.280298 0.750000
O O10 0.565387 0.304938 0.309643
#
# Coordination Sequence:
#
# PCOD9284141 Si02
#       5
#     8   8   8   8   4
#     4  10  24  39  62  93 123 168 213 256 325 365
#     4  10  21  40  67  89 123 172 207 257 318 381
#     4  10  23  42  64  96 128 163 209 263 325 375
#     4  10  22  42  61  88 126 168 214 259 304 394
#     4  12  24  42  64 102 130 162 212 274 318 380
#
# _framework density 25.015385999999999
#
# number of rings (size 3 to 8) (size 9 to 14) (size 15 to 20)
#    0.000    1.778    0.000    2.667    9.333    2.667 
#    2.000   12.222    0.000    0.000    0.000    0.000 
#    0.000    0.000    0.000    0.000    0.000    0.000 
#
# Total GULP energy -100471.895120 kJ/mol
# GULP energy per Si atom -5581.771951 kJ/mol
# Density = 2.495845 g / cm^3
# Si number density = 25.015386 Si / 1000 Ang^3
#
#
#
# Elastic Constant Matrix: (Units=GPa)
#
#
# Indices 1 2 3 4 5 6 
#
# 1 93.1577 45.5806 6.3481 0.0000 20.8630 0.0000
# 2 45.5806 153.8349 13.1947 0.0000 30.5579 0.0000
# 3 6.3481 13.1947 32.4319 0.0000 -0.5104 0.0000
# 4 0.0000 0.0000 0.0000 35.0692 0.0000 8.4787
# 5 20.8630 30.5579 -0.5104 0.0000 30.7074 0.0000
# 6 0.0000 0.0000 0.0000 8.4787 0.0000 44.4836
#
#
#
# Elastic Compliance Matrix: (Units=1/GPa)
#
#
# Indices 1 2 3 4 5 6 
#
# 1 0.013607 -0.002544 -0.001735 0.000000 -0.006743 0.000000
# 2 -0.002544 0.008976 -0.003268 0.000000 -0.007259 0.000000
# 3 -0.001735 -0.003268 0.032581 0.000000 0.004973 0.000000
# 4 0.000000 0.000000 0.000000 0.029893 0.000000 -0.005698
# 5 -0.006743 -0.007259 0.004973 0.000000 0.044453 0.000000
# 6 0.000000 0.000000 0.000000 -0.005698 0.000000 0.023566
#
#
# Mechanical properties :
#
#
# Convention : Reuss Voigt Hill
#
# Bulk Modulus (GPa) = 24.95528 45.51903 35.23715
# Shear Modulus (GPa) = 27.54412 36.33878 31.94145
#
# Velocity S-wave (km/s) = 3.32186 3.81551 3.57721
# Velocity P-wave (km/s) = 4.97098 6.13569 5.58379
#
# Compressibility (1/GPa) = 0.04007168
#
# Stress axis : x y z
#
# Youngs Moduli (GPa) = 73.49016 111.40345 30.69237
#
# Poissons Ratio (x) = 0.28337 0.05324
# Poissons Ratio (y) = 0.18693 0.10031
# Poissons Ratio (z) = 0.12748 0.36410
#
# Static dielectric constant tensor:
#      x y z
#    x 1.969000 0.000000 -0.008650 
#    y 0.000000 2.012500 0.000000 
#    z -0.008650 0.000000 2.142290 
# 
# From -- ./inp_files/41183.got.cif
#   From: 2010.05.17/outbox.cif.g08.bks.cpg/sg15_21_cif.got.tgz:41183.got - 2010.06.03 18:47:42.
