data_PCOD9284217
_publ_section_title
;
Structure prediction by ZEFSAII (Michael W. Deem and Ramdas Pophale) SiO2 
 PCOD9284217
Probable space group: C 2/C
;
_chemical_formula_sum "Si O2"
_cell_formula_units_Z 24
_cell_length_a 13.968871
_cell_length_b 9.477620
_cell_length_c 7.917765
_cell_angle_alpha 90.000000
_cell_angle_beta 109.902580
_cell_angle_gamma 90.000000
_cell_volume 985.637183
_symmetry_space_group_name_H-M "C 2/C"
_symmetry_group_IT_number 15
_symmetry_cell_setting 'monoclinic'
loop_
_space_group_symop_operation_xyz
x,y,z
-x,y,1/2-z
-x,-y,-z
x,-y,1/2+z
1/2+x,1/2+y,z
1/2-x,1/2+y,1/2-z
1/2-x,1/2-y,-z
1/2+x,1/2-y,1/2+z
loop_
_atom_site_type_symbol
_atom_site_label
_atom_site_fract_x
_atom_site_fract_y
_atom_site_fract_z
Si Si1 0.439708 0.370612 0.381339
Si Si2 0.782081 0.623050 0.897751
Si Si3 0.146689 0.334441 0.407091
O O1 0.500000 0.323903 0.250000
O O2 0.500000 0.500000 0.500000
O O3 0.325989 0.420136 0.254663
O O4 0.427610 0.247733 0.512346
O O5 0.859955 0.668999 0.798317
O O6 0.750000 0.750000 0.000000
O O7 0.833330 0.494762 0.026794
O O8 0.250000 0.250000 0.500000
#
# Coordination Sequence:
#
# PCOD9284217 Si02
#       3
#     8   8   8
#     4  11  24  41  66 104 140 179 230 294 349 402
#     4  11  23  45  71  98 136 188 235 280 345 430
#     4  10  21  40  67  98 131 181 232 276 338 424
#
# _framework density 24.349730999999998
#
# number of rings (size 3 to 8) (size 9 to 14) (size 15 to 20)
#    0.000    1.333    0.000    8.000    0.000    5.333 
#    0.000    6.667    0.000    6.000    0.000    2.333 
#    0.000    0.000    0.000    0.000    0.000    0.000 
#
# Total GULP energy -67200.856973 kJ/mol
# GULP energy per Si atom -5600.071414 kJ/mol
# Density = 2.429431 g / cm^3
# Si number density = 24.349731 Si / 1000 Ang^3
#
#
#
# Elastic Constant Matrix: (Units=GPa)
#
#
# Indices 1 2 3 4 5 6 
#
# 1 160.1732 64.6802 89.1534 0.0000 -29.3039 0.0000
# 2 64.6802 203.5277 98.4161 0.0000 -45.1189 0.0000
# 3 89.1534 98.4161 158.8140 0.0000 -61.6377 0.0000
# 4 0.0000 0.0000 0.0000 44.9332 0.0000 -10.2424
# 5 -29.3039 -45.1189 -61.6377 0.0000 82.4904 0.0000
# 6 0.0000 0.0000 0.0000 -10.2424 0.0000 43.5813
#
#
#
# Elastic Compliance Matrix: (Units=1/GPa)
#
#
# Indices 1 2 3 4 5 6 
#
# 1 0.009180 -0.000652 -0.005102 0.000000 -0.000907 0.000000
# 2 -0.000652 0.007102 -0.003687 0.000000 0.000898 0.000000
# 3 -0.005102 -0.003687 0.014027 0.000000 0.006652 0.000000
# 4 0.000000 0.000000 0.000000 0.023515 0.000000 0.005526
# 5 -0.000907 0.000898 0.006652 0.000000 0.017262 0.000000
# 6 0.000000 0.000000 0.000000 0.005526 0.000000 0.024244
#
#
# Mechanical properties :
#
#
# Convention : Reuss Voigt Hill
#
# Bulk Modulus (GPa) = 87.49471 114.11269 100.80370
# Shear Modulus (GPa) = 42.36513 52.21865 47.29189
#
# Velocity S-wave (km/s) = 4.17569 4.63593 4.41181
# Velocity P-wave (km/s) = 7.69799 8.69606 8.21220
#
# Compressibility (1/GPa) = 0.01142926
#
# Stress axis : x y z
#
# Youngs Moduli (GPa) = 108.93215 140.79881 71.28978
#
# Poissons Ratio (x) = 0.09174 0.36371
# Poissons Ratio (y) = 0.07097 0.26283
# Poissons Ratio (z) = 0.55575 0.51910
#
# Static dielectric constant tensor:
#      x y z
#    x 1.979460 0.000000 0.001960 
#    y 0.000000 1.892030 0.000000 
#    z 0.001960 0.000000 2.068690 
# 
# From -- ./inp_files/36116.got.cif
#   From: 2010.05.17/outbox.cif.g08.bks.cpg/sg15_19_cif.got.tgz:36116.got - 2010.06.03 18:47:42.
