data_PCOD9284276
_publ_section_title
;
Structure prediction by ZEFSAII (Michael W. Deem and Ramdas Pophale) SiO2 
 PCOD9284276
Probable space group: C 2/C
;
_chemical_formula_sum "Si O2"
_cell_formula_units_Z 56
_cell_length_a 9.754580
_cell_length_b 18.582365
_cell_length_c 15.963873
_cell_angle_alpha 90.000000
_cell_angle_beta 52.962883
_cell_angle_gamma 90.000000
_cell_volume 2309.852736
_symmetry_space_group_name_H-M "C 2/C"
_symmetry_group_IT_number 15
_symmetry_cell_setting 'monoclinic'
loop_
_space_group_symop_operation_xyz
x,y,z
-x,y,1/2-z
-x,-y,-z
x,-y,1/2+z
1/2+x,1/2+y,z
1/2-x,1/2+y,1/2-z
1/2-x,1/2-y,-z
1/2+x,1/2-y,1/2+z
loop_
_atom_site_type_symbol
_atom_site_label
_atom_site_fract_x
_atom_site_fract_y
_atom_site_fract_z
Si Si1 0.360868 0.951509 0.184492
Si Si2 0.243776 0.663991 0.011217
Si Si3 0.655458 0.837637 0.877887
Si Si4 0.247059 0.413263 0.017045
Si Si5 0.129793 0.964183 0.127052
Si Si6 0.702254 0.912690 0.695639
Si Si7 0.294311 0.819565 0.311103
O O1 0.565635 0.949874 0.108874
O O2 0.306633 0.976566 0.112760
O O3 0.293606 0.871645 0.230721
O O4 0.285893 0.003291 0.284383
O O5 0.282333 0.630270 0.088716
O O6 0.046993 0.645992 0.057265
O O7 0.250000 0.750000 0.000000
O O8 0.366979 0.616982 0.906949
O O9 0.749267 0.876870 0.766565
O O10 0.693661 0.754399 0.846265
O O11 0.718949 0.863953 0.944924
O O12 0.283931 0.363129 0.081947
O O13 0.375978 0.476808 0.943703
O O14 0.000000 0.974918 0.250000
O O15 0.500000 0.902130 0.750000
O O16 0.500000 0.806346 0.250000
#
# Coordination Sequence:
#
# PCOD9284276 Si02
#       7
#     8   8   8   8   8   8   8
#     4  11  21  43  71  93 128 174 220 273 327 392
#     4  11  26  43  65  96 134 178 218 267 331 402
#     4  11  22  41  68  97 132 175 211 269 331 397
#     4  11  21  45  68  95 129 173 219 267 335 394
#     4  12  26  42  67  98 132 168 226 279 324 384
#     4  10  21  40  68  95 122 167 225 262 318 395
#     4  10  24  39  68 100 133 168 220 273 328 395
#
# _framework density 24.243970999999998
#
# number of rings (size 3 to 8) (size 9 to 14) (size 15 to 20)
#    0.000    1.143    2.857    4.714    4.000    1.143 
#    2.571    1.429    0.000    0.000    0.000    0.000 
#    0.000    0.000    0.000    0.000    0.000    0.000 
#
# Total GULP energy -156603.286921 kJ/mol
# GULP energy per Si atom -5592.974533 kJ/mol
# Density = 2.418879 g / cm^3
# Si number density = 24.243971 Si / 1000 Ang^3
#
#
#
# Elastic Constant Matrix: (Units=GPa)
#
#
# Indices 1 2 3 4 5 6 
#
# 1 21.1021 -6.0300 17.4302 0.0000 -7.3663 0.0000
# 2 -6.0300 148.3762 60.8758 0.0000 -3.9828 0.0000
# 3 17.4302 60.8758 112.7083 0.0000 -0.7765 0.0000
# 4 0.0000 0.0000 0.0000 45.0069 0.0000 1.1245
# 5 -7.3663 -3.9828 -0.7765 0.0000 39.6823 0.0000
# 6 0.0000 0.0000 0.0000 1.1245 0.0000 30.1028
#
#
#
# Elastic Compliance Matrix: (Units=1/GPa)
#
#
# Indices 1 2 3 4 5 6 
#
# 1 0.067413 0.009421 -0.015423 0.000000 0.013158 0.000000
# 2 0.009421 0.009999 -0.006839 0.000000 0.002618 0.000000
# 3 -0.015423 -0.006839 0.014929 0.000000 -0.003257 0.000000
# 4 0.000000 0.000000 0.000000 0.022240 0.000000 -0.000831
# 5 0.013158 0.002618 -0.003257 0.000000 0.027842 0.000000
# 6 0.000000 0.000000 0.000000 -0.000831 0.000000 0.033251
#
#
# Mechanical properties :
#
#
# Convention : Reuss Voigt Hill
#
# Bulk Modulus (GPa) = 15.00208 47.41542 31.20875
# Shear Modulus (GPa) = 22.36382 36.95242 29.65812
#
# Velocity S-wave (km/s) = 3.04048 3.90832 3.50139
# Velocity P-wave (km/s) = 4.30435 6.32192 5.40806
#
# Compressibility (1/GPa) = 0.06665741
#
# Stress axis : x y z
#
# Youngs Moduli (GPa) = 14.83397 100.01172 66.98267
#
# Poissons Ratio (x) = -0.94216 1.03307
# Poissons Ratio (y) = -0.13974 0.45812
# Poissons Ratio (z) = 0.22878 0.68402
#
# Static dielectric constant tensor:
#      x y z
#    x 2.017030 0.000000 -0.036780 
#    y 0.000000 1.921800 0.000000 
#    z -0.036780 0.000000 1.918000 
# 
# From -- ./inp_files/145990.got.cif
#   From: 2010.05.17/outbox.cif.g08.bks.cpg/sg15_73_cif.got.tgz:145990.got - 2010.06.03 18:47:42.
