data_PCOD9284243
_publ_section_title
;
Structure prediction by ZEFSAII (Michael W. Deem and Ramdas Pophale) SiO2 
 PCOD9284243
Probable space group: C 2/C
;
_chemical_formula_sum "Si O2"
_cell_formula_units_Z 60
_cell_length_a 11.266634
_cell_length_b 21.335486
_cell_length_c 12.621831
_cell_angle_alpha 90.000000
_cell_angle_beta 130.614989
_cell_angle_gamma 90.000000
_cell_volume 2303.131156
_symmetry_space_group_name_H-M "C 2/C"
_symmetry_group_IT_number 15
_symmetry_cell_setting 'monoclinic'
loop_
_space_group_symop_operation_xyz
x,y,z
-x,y,1/2-z
-x,-y,-z
x,-y,1/2+z
1/2+x,1/2+y,z
1/2-x,1/2+y,1/2-z
1/2-x,1/2-y,-z
1/2+x,1/2-y,1/2+z
loop_
_atom_site_type_symbol
_atom_site_label
_atom_site_fract_x
_atom_site_fract_y
_atom_site_fract_z
Si Si1 0.906026 0.381986 0.097994
Si Si2 0.545584 0.560845 0.652727
Si Si3 0.593710 0.299364 0.128569
Si Si4 0.782420 0.519818 0.093487
Si Si5 0.869652 0.448234 0.416005
Si Si6 0.500000 0.884325 0.750000
Si Si7 0.816377 0.797091 0.667528
Si Si8 0.753112 0.214071 0.368884
O O1 0.843419 0.449376 0.106519
O O2 0.767520 0.346129 0.958769
O O3 0.000000 0.351484 0.250000
O O4 0.042656 0.391767 0.090199
O O5 0.500000 0.572257 0.750000
O O6 0.577121 0.626527 0.613280
O O7 0.403346 0.524354 0.516874
O O8 0.717488 0.530742 0.761246
O O9 0.704952 0.265226 0.106702
O O10 0.670737 0.278006 0.283727
O O11 0.417706 0.274313 0.018849
O O12 0.882085 0.562405 0.232171
O O13 0.819429 0.559859 0.007048
O O14 0.000000 0.500000 0.500000
O O15 0.366343 0.832344 0.644183
O O16 0.000000 0.789764 0.750000
O O17 0.202609 0.817115 0.720149
#
# Coordination Sequence:
#
# PCOD9284243 Si02
#       8
#     8   8   8   8   8   4   8   8
#     4  11  23  43  70 101 133 189 245 296 354 423
#     4  10  21  40  70 104 142 183 230 296 367 441
#     4  10  24  44  66 105 138 185 241 295 365 427
#     4  10  21  40  68 102 143 180 232 288 369 439
#     4   9  21  39  64  99 138 181 228 287 356 430
#     4  12  20  40  68 104 148 174 224 304 364 448
#     4  10  26  48  66  95 141 191 241 295 350 428
#     4  10  25  42  69 103 140 184 238 292 368 428
#
# _framework density 26.051490999999999
#
# number of rings (size 3 to 8) (size 9 to 14) (size 15 to 20)
#    0.800    1.067    2.000    0.800    2.800    5.867 
#    0.000    1.333    0.000    0.000    0.000    0.000 
#    0.000    0.000    0.000    0.000    0.000    0.000 
#
# Total GULP energy -167459.101880 kJ/mol
# GULP energy per Si atom -5581.970063 kJ/mol
# Density = 2.599220 g / cm^3
# Si number density = 26.051491 Si / 1000 Ang^3
#
#
#
# Elastic Constant Matrix: (Units=GPa)
#
#
# Indices 1 2 3 4 5 6 
#
# 1 109.5546 51.1410 55.7057 0.0000 28.4453 0.0000
# 2 51.1410 85.5567 55.2531 0.0000 18.6646 0.0000
# 3 55.7057 55.2531 226.5039 0.0000 51.4676 0.0000
# 4 0.0000 0.0000 0.0000 32.8488 0.0000 5.9459
# 5 28.4453 18.6646 51.4676 0.0000 55.4974 0.0000
# 6 0.0000 0.0000 0.0000 5.9459 0.0000 32.3743
#
#
#
# Elastic Compliance Matrix: (Units=1/GPa)
#
#
# Indices 1 2 3 4 5 6 
#
# 1 0.013770 -0.006834 -0.000808 0.000000 -0.004010 0.000000
# 2 -0.006834 0.017432 -0.002579 0.000000 0.000032 0.000000
# 3 -0.000808 -0.002579 0.006274 0.000000 -0.004536 0.000000
# 4 0.000000 0.000000 0.000000 0.031489 0.000000 -0.005783
# 5 -0.004010 0.000032 -0.004536 0.000000 0.024270 0.000000
# 6 0.000000 0.000000 0.000000 -0.005783 0.000000 0.031951
#
#
# Mechanical properties :
#
#
# Convention : Reuss Voigt Hill
#
# Bulk Modulus (GPa) = 58.70977 82.86831 70.78904
# Shear Modulus (GPa) = 33.04543 41.44513 37.24528
#
# Velocity S-wave (km/s) = 3.56542 3.99293 3.78521
# Velocity P-wave (km/s) = 6.28765 7.28947 6.80702
#
# Compressibility (1/GPa) = 0.01703294
#
# Stress axis : x y z
#
# Youngs Moduli (GPa) = 72.61971 57.36662 159.39848
#
# Poissons Ratio (x) = 0.39206 0.12884
# Poissons Ratio (y) = 0.49631 0.41104
# Poissons Ratio (z) = 0.05870 0.14793
#
# Static dielectric constant tensor:
#      x y z
#    x 2.170620 0.000000 -0.100770 
#    y 0.000000 2.050000 0.000000 
#    z -0.100770 0.000000 2.324850 
# 
# From -- ./inp_files/200951.got.cif
#   From: 2010.05.17/outbox.cif.g08.bks.cpg/sg15_101_cif.got.tgz:200951.got - 2010.06.03 18:47:42.
