data_PCOD9284980
_publ_section_title
;
Structure prediction by ZEFSAII (Michael W. Deem and Ramdas Pophale) SiO2 
 PCOD9284980
Probable space group: C 2/C
;
_chemical_formula_sum "Si O2"
_cell_formula_units_Z 48
_cell_length_a 4.991916
_cell_length_b 23.700897
_cell_length_c 18.508326
_cell_angle_alpha 90.000000
_cell_angle_beta 93.175996
_cell_angle_gamma 90.000000
_cell_volume 2186.410127
_symmetry_space_group_name_H-M "C 2/C"
_symmetry_group_IT_number 15
_symmetry_cell_setting 'monoclinic'
loop_
_space_group_symop_operation_xyz
x,y,z
-x,y,1/2-z
-x,-y,-z
x,-y,1/2+z
1/2+x,1/2+y,z
1/2-x,1/2+y,1/2-z
1/2-x,1/2-y,-z
1/2+x,1/2-y,1/2+z
loop_
_atom_site_type_symbol
_atom_site_label
_atom_site_fract_x
_atom_site_fract_y
_atom_site_fract_z
Si Si1 0.065066 0.426627 0.385504
Si Si2 0.506595 0.237235 0.407563
Si Si3 0.657202 0.554183 0.471398
Si Si4 0.492045 0.677948 0.464166
Si Si5 0.064729 0.007292 0.832780
Si Si6 0.266836 0.322574 0.298766
O O1 0.088203 0.434543 0.472396
O O2 0.281085 0.470913 0.358156
O O3 0.171898 0.366371 0.359459
O O4 0.780197 0.442191 0.346845
O O5 0.570421 0.289655 0.462193
O O6 0.773589 0.200785 0.404490
O O7 0.387834 0.266508 0.335696
O O8 0.283285 0.198636 0.442610
O O9 0.500000 0.500000 0.500000
O O10 0.490227 0.611572 0.474782
O O11 0.689451 0.540239 0.387408
O O12 0.000000 0.991008 0.750000
O O13 0.500000 0.346588 0.250000
O O14 0.000000 0.310754 0.250000
#
# Coordination Sequence:
#
# PCOD9284980 Si02
#       6
#     8   8   8   8   8   8
#     4  11  22  40  61  92 128 171 220 272 325 390
#     4  10  22  40  63  91 125 170 211 268 321 399
#     4  10  23  42  67  99 129 172 225 278 318 398
#     4  10  21  41  66  90 125 166 218 265 324 376
#     4  11  23  39  60  89 131 173 214 266 334 395
#     4  12  23  38  63  96 134 173 219 281 339 390
#
# _framework density 21.953793000000001
#
# number of rings (size 3 to 8) (size 9 to 14) (size 15 to 20)
#    0.000    1.333    1.667    4.500    0.000    5.333 
#    0.000    2.500    0.000    2.000    0.000    0.000 
#    0.000    0.000    0.000    0.000    0.000    0.000 
#
# Total GULP energy -134152.900930 kJ/mol
# GULP energy per Si atom -5589.704205 kJ/mol
# Density = 2.190382 g / cm^3
# Si number density = 21.953793 Si / 1000 Ang^3
#
#
#
# Elastic Constant Matrix: (Units=GPa)
#
#
# Indices 1 2 3 4 5 6 
#
# 1 89.2533 32.8591 35.4711 0.0000 26.1206 0.0000
# 2 32.8591 128.5576 33.9872 0.0000 9.7946 0.0000
# 3 35.4711 33.9872 144.7917 0.0000 34.9298 0.0000
# 4 0.0000 0.0000 0.0000 26.0936 0.0000 5.4269
# 5 26.1206 9.7946 34.9298 0.0000 28.9902 0.0000
# 6 0.0000 0.0000 0.0000 5.4269 0.0000 19.1414
#
#
#
# Elastic Compliance Matrix: (Units=1/GPa)
#
#
# Indices 1 2 3 4 5 6 
#
# 1 0.016365 -0.003148 0.000043 0.000000 -0.013733 0.000000
# 2 -0.003148 0.008907 -0.001802 0.000000 0.001998 0.000000
# 3 0.000043 -0.001802 0.010124 0.000000 -0.011628 0.000000
# 4 0.000000 0.000000 0.000000 0.040725 0.000000 -0.011546
# 5 -0.013733 0.001998 -0.011628 0.000000 0.060204 0.000000
# 6 0.000000 0.000000 0.000000 -0.011546 0.000000 0.055516
#
#
# Mechanical properties :
#
#
# Convention : Reuss Voigt Hill
#
# Bulk Modulus (GPa) = 39.08806 63.02636 51.05721
# Shear Modulus (GPa) = 23.78880 32.19740 27.99310
#
# Velocity S-wave (km/s) = 3.29536 3.83377 3.57472
# Velocity P-wave (km/s) = 5.68529 6.95472 6.35179
#
# Compressibility (1/GPa) = 0.02558326
#
# Stress axis : x y z
#
# Youngs Moduli (GPa) = 61.10567 112.26751 98.77437
#
# Poissons Ratio (x) = 0.35341 -0.00423
# Poissons Ratio (y) = 0.19235 0.17795
# Poissons Ratio (z) = -0.00262 0.20225
#
# Static dielectric constant tensor:
#      x y z
#    x 1.801090 0.000000 -0.006380 
#    y 0.000000 1.797230 0.000000 
#    z -0.006380 0.000000 1.881220 
# 
# From -- ./inp_files/185342.got.cif
#   From: 2010.05.17/outbox.cif.g08.bks.cpg/sg15_93_cif.got.tgz:185342.got - 2010.06.03 18:47:42.
