data_PCOD9284165
_publ_section_title
;
Structure prediction by ZEFSAII (Michael W. Deem and Ramdas Pophale) SiO2 
 PCOD9284165
Probable space group: C 2/C
;
_chemical_formula_sum "Si O2"
_cell_formula_units_Z 44
_cell_length_a 4.953094
_cell_length_b 12.882871
_cell_length_c 25.803575
_cell_angle_alpha 90.000000
_cell_angle_beta 87.086072
_cell_angle_gamma 90.000000
_cell_volume 1644.399041
_symmetry_space_group_name_H-M "C 2/C"
_symmetry_group_IT_number 15
_symmetry_cell_setting 'monoclinic'
loop_
_space_group_symop_operation_xyz
x,y,z
-x,y,1/2-z
-x,-y,-z
x,-y,1/2+z
1/2+x,1/2+y,z
1/2-x,1/2+y,1/2-z
1/2-x,1/2-y,-z
1/2+x,1/2-y,1/2+z
loop_
_atom_site_type_symbol
_atom_site_label
_atom_site_fract_x
_atom_site_fract_y
_atom_site_fract_z
Si Si1 0.000000 0.708626 0.750000
Si Si2 0.408618 0.120975 0.200581
Si Si3 0.024516 0.658775 0.500521
Si Si4 0.991692 0.907449 0.061378
Si Si5 0.210333 0.718132 0.854759
Si Si6 0.689041 0.380058 0.598589
O O1 0.767746 0.785160 0.773883
O O2 0.895103 0.660076 0.696558
O O3 0.500000 0.057517 0.250000
O O4 0.651106 0.178192 0.169129
O O5 0.244139 0.074403 0.155070
O O6 0.250000 0.750000 0.500000
O O7 0.190135 0.589752 0.540844
O O8 0.045242 0.637206 0.438954
O O9 0.715823 0.647430 0.521407
O O10 0.075465 0.848177 0.114060
O O11 0.050783 0.028254 0.068696
O O12 0.971066 0.771213 0.891350
#
# Coordination Sequence:
#
# PCOD9284165 Si02
#       6
#     4   8   8   8   8   8
#     4   8  18  38  64  94 118 172 214 270 328 404
#     4   9  19  39  69  91 126 169 217 266 336 392
#     4  12  25  45  67  95 136 178 225 270 335 399
#     4  12  27  42  66 102 133 175 223 274 333 401
#     4  10  21  40  67  92 132 174 223 272 340 401
#     4  11  24  40  66  96 133 172 220 280 331 398
#
# _framework density 26.757497000000001
#
# number of rings (size 3 to 8) (size 9 to 14) (size 15 to 20)
#    0.000    1.455    1.818    2.727    7.636    0.000 
#    1.636    0.000   32.000    0.000    0.000    0.000 
#    0.000    0.000    0.000    0.000    0.000    0.000 
#
# Total GULP energy -122703.399645 kJ/mol
# GULP energy per Si atom -5577.427257 kJ/mol
# Density = 2.669660 g / cm^3
# Si number density = 26.757497 Si / 1000 Ang^3
#
#
#
# Elastic Constant Matrix: (Units=GPa)
#
#
# Indices 1 2 3 4 5 6 
#
# 1 145.0354 6.9720 44.6820 0.0000 -2.7824 0.0000
# 2 6.9720 58.1700 15.9249 0.0000 6.2643 0.0000
# 3 44.6820 15.9249 138.3820 0.0000 5.6975 0.0000
# 4 0.0000 0.0000 0.0000 27.8744 0.0000 11.7329
# 5 -2.7824 6.2643 5.6975 0.0000 49.3324 0.0000
# 6 0.0000 0.0000 0.0000 11.7329 0.0000 19.0148
#
#
#
# Elastic Compliance Matrix: (Units=1/GPa)
#
#
# Indices 1 2 3 4 5 6 
#
# 1 0.007688 -0.000325 -0.002476 0.000000 0.000761 0.000000
# 2 -0.000325 0.017968 -0.001877 0.000000 -0.002083 0.000000
# 3 -0.002476 -0.001877 0.008277 0.000000 -0.000857 0.000000
# 4 0.000000 0.000000 0.000000 0.048462 0.000000 -0.029903
# 5 0.000761 -0.002083 -0.000857 0.000000 0.020677 0.000000
# 6 0.000000 0.000000 0.000000 -0.029903 0.000000 0.071042
#
#
# Mechanical properties :
#
#
# Convention : Reuss Voigt Hill
#
# Bulk Modulus (GPa) = 40.68990 52.97169 46.83080
# Shear Modulus (GPa) = 26.08736 37.51155 31.79945
#
# Velocity S-wave (km/s) = 3.12581 3.74827 3.45110
# Velocity P-wave (km/s) = 5.31672 6.21069 5.78101
#
# Compressibility (1/GPa) = 0.02457612
#
# Stress axis : x y z
#
# Youngs Moduli (GPa) = 130.07312 55.65395 120.81368
#
# Poissons Ratio (x) = 0.01811 0.29916
# Poissons Ratio (y) = 0.04234 0.22675
# Poissons Ratio (z) = 0.32209 0.10446
#
# Static dielectric constant tensor:
#      x y z
#    x 2.220340 0.000000 -0.012830 
#    y 0.000000 2.166870 0.000000 
#    z -0.012830 0.000000 2.293640 
# 
# From -- ./inp_files/260336.got.cif
#   From: 2010.05.17/outbox.cif.g08.bks.cpg/sg15_131_cif.got.tgz:260336.got - 2010.06.03 18:47:42.
