data_PCOD9284312
_publ_section_title
;
Structure prediction by ZEFSAII (Michael W. Deem and Ramdas Pophale) SiO2 
 PCOD9284312
Probable space group: C 2/C
;
_chemical_formula_sum "Si O2"
_cell_formula_units_Z 40
_cell_length_a 15.773919
_cell_length_b 10.454255
_cell_length_c 12.162108
_cell_angle_alpha 90.000000
_cell_angle_beta 112.775096
_cell_angle_gamma 90.000000
_cell_volume 1849.214584
_symmetry_space_group_name_H-M "C 2/C"
_symmetry_group_IT_number 15
_symmetry_cell_setting 'monoclinic'
loop_
_space_group_symop_operation_xyz
x,y,z
-x,y,1/2-z
-x,-y,-z
x,-y,1/2+z
1/2+x,1/2+y,z
1/2-x,1/2+y,1/2-z
1/2-x,1/2-y,-z
1/2+x,1/2-y,1/2+z
loop_
_atom_site_type_symbol
_atom_site_label
_atom_site_fract_x
_atom_site_fract_y
_atom_site_fract_z
Si Si1 0.245558 0.895672 0.536144
Si Si2 0.827113 0.759194 0.442176
Si Si3 0.185482 0.756166 0.709541
Si Si4 0.593266 0.423796 0.850765
Si Si5 0.606587 0.979853 0.034818
O O1 0.250000 0.750000 0.500000
O O2 0.214015 0.873435 0.644398
O O3 0.170644 0.972799 0.425469
O O4 0.345924 0.954413 0.560980
O O5 0.750000 0.750000 0.500000
O O6 0.773256 0.812679 0.310533
O O7 0.910012 0.839408 0.537551
O O8 0.852242 0.617859 0.416818
O O9 0.126464 0.822882 0.775222
O O10 0.134797 0.643261 0.619860
O O11 0.500000 0.478405 0.750000
O O12 0.500000 0.000000 0.000000
#
# Coordination Sequence:
#
# PCOD9284312 Si02
#       5
#     8   8   8   8   8
#     4  10  23  43  66  97 143 177 236 290 357 414
#     4  10  21  40  68  99 137 182 224 282 358 409
#     4  10  23  41  70 101 144 182 230 298 353 418
#     4  11  23  43  73 101 137 189 242 285 357 431
#     4  11  22  42  69 103 140 182 237 286 349 425
#
# _framework density 21.630804999999999
#
# number of rings (size 3 to 8) (size 9 to 14) (size 15 to 20)
#    0.000    1.600    4.000    1.200    2.800    0.800 
#    0.000   13.000    0.000    1.200    0.000    0.000 
#    0.000    0.000    0.000    0.000    0.000    0.000 
#
# Total GULP energy -111353.003268 kJ/mol
# GULP energy per Si atom -5567.650163 kJ/mol
# Density = 2.158157 g / cm^3
# Si number density = 21.630805 Si / 1000 Ang^3
#
#
#
# Elastic Constant Matrix: (Units=GPa)
#
#
# Indices 1 2 3 4 5 6 
#
# 1 98.9052 37.7667 57.4222 0.0000 22.2849 0.0000
# 2 37.7667 123.2510 42.0373 0.0000 6.7288 0.0000
# 3 57.4222 42.0373 111.1556 0.0000 18.4366 0.0000
# 4 0.0000 0.0000 0.0000 42.8280 0.0000 4.7761
# 5 22.2849 6.7288 18.4366 0.0000 20.2205 0.0000
# 6 0.0000 0.0000 0.0000 4.7761 0.0000 26.8050
#
#
#
# Elastic Compliance Matrix: (Units=1/GPa)
#
#
# Indices 1 2 3 4 5 6 
#
# 1 0.017452 -0.002639 -0.005859 0.000000 -0.013014 0.000000
# 2 -0.002639 0.009714 -0.002659 0.000000 0.002100 0.000000
# 3 -0.005859 -0.002659 0.013915 0.000000 -0.005345 0.000000
# 4 0.000000 0.000000 0.000000 0.023823 0.000000 -0.004245
# 5 -0.013014 0.002100 -0.005345 0.000000 0.067972 0.000000
# 6 0.000000 0.000000 0.000000 -0.004245 0.000000 0.038063
#
#
# Mechanical properties :
#
#
# Convention : Reuss Voigt Hill
#
# Bulk Modulus (GPa) = 53.28230 67.52937 60.40584
# Shear Modulus (GPa) = 25.06149 31.04308 28.05228
#
# Velocity S-wave (km/s) = 3.40752 3.79242 3.60511
# Velocity P-wave (km/s) = 6.33779 7.10377 6.73168
#
# Compressibility (1/GPa) = 0.01876796
#
# Stress axis : x y z
#
# Youngs Moduli (GPa) = 57.29921 102.94051 71.86270
#
# Poissons Ratio (x) = 0.27164 0.42106
# Poissons Ratio (y) = 0.15120 0.19108
# Poissons Ratio (z) = 0.33573 0.27371
#
# Static dielectric constant tensor:
#      x y z
#    x 1.891320 0.000000 0.021460 
#    y 0.000000 1.780050 0.000000 
#    z 0.021460 0.000000 1.898460 
# 
# From -- ./inp_files/95162.got.cif
#   From: 2010.05.17/outbox.cif.g08.bks.cpg/sg15_48_cif.got.tgz:95162.got - 2010.06.03 18:47:42.
