data_PCOD9284702
_publ_section_title
;
Structure prediction by ZEFSAII (Michael W. Deem and Ramdas Pophale) SiO2 
 PCOD9284702
Probable space group: C 2/C
;
_chemical_formula_sum "Si O2"
_cell_formula_units_Z 44
_cell_length_a 6.316421
_cell_length_b 24.376399
_cell_length_c 14.346245
_cell_angle_alpha 90.000000
_cell_angle_beta 119.662473
_cell_angle_gamma 90.000000
_cell_volume 1919.448957
_symmetry_space_group_name_H-M "C 2/C"
_symmetry_group_IT_number 15
_symmetry_cell_setting 'monoclinic'
loop_
_space_group_symop_operation_xyz
x,y,z
-x,y,1/2-z
-x,-y,-z
x,-y,1/2+z
1/2+x,1/2+y,z
1/2-x,1/2+y,1/2-z
1/2-x,1/2-y,-z
1/2+x,1/2-y,1/2+z
loop_
_atom_site_type_symbol
_atom_site_label
_atom_site_fract_x
_atom_site_fract_y
_atom_site_fract_z
Si Si1 0.581655 0.780617 0.867335
Si Si2 0.259125 0.493113 0.823083
Si Si3 0.198391 0.066135 0.967834
Si Si4 0.946043 0.182667 0.949675
Si Si5 0.632986 0.862981 0.528306
Si Si6 0.000000 0.089358 0.250000
O O1 0.500000 0.801082 0.750000
O O2 0.461274 0.721660 0.863056
O O3 0.489861 0.821489 0.926651
O O4 0.872689 0.783961 0.941168
O O5 0.504512 0.529041 0.870728
O O6 0.288972 0.446816 0.750935
O O7 0.000000 0.522121 0.750000
O O8 0.258421 0.464668 0.924691
O O9 0.058936 0.123283 0.954565
O O10 0.455098 0.084527 0.978306
O O11 0.697160 0.168650 0.947735
O O12 0.879440 0.879702 0.636485
#
# Coordination Sequence:
#
# PCOD9284702 Si02
#       6
#     8   8   8   8   8   4
#     4  10  22  38  64  95 133 174 222 270 325 402
#     4  11  23  41  62  95 128 171 225 281 327 399
#     4  10  23  40  64  89 133 172 217 277 338 393
#     4  10  21  41  63  93 131 174 218 274 335 390
#     4  11  21  36  65  96 129 175 222 277 330 389
#     4  12  22  34  64  96 122 168 234 270 326 386
#
# _framework density 22.923245000000001
#
# number of rings (size 3 to 8) (size 9 to 14) (size 15 to 20)
#    0.000    1.455    3.636    1.636    2.545    2.182 
#    1.636    0.000   10.000    0.000    0.000    0.000 
#    0.000    0.000    0.000    0.000    0.000    0.000 
#
# Total GULP energy -122871.212455 kJ/mol
# GULP energy per Si atom -5585.055112 kJ/mol
# Density = 2.287107 g / cm^3
# Si number density = 22.923245 Si / 1000 Ang^3
#
#
#
# Elastic Constant Matrix: (Units=GPa)
#
#
# Indices 1 2 3 4 5 6 
#
# 1 87.7993 19.6826 7.5651 0.0000 6.3212 0.0000
# 2 19.6826 76.0131 7.5055 0.0000 4.8240 0.0000
# 3 7.5651 7.5055 19.2637 0.0000 5.1461 0.0000
# 4 0.0000 0.0000 0.0000 16.3358 0.0000 1.9067
# 5 6.3212 4.8240 5.1461 0.0000 28.8669 0.0000
# 6 0.0000 0.0000 0.0000 1.9067 0.0000 33.4904
#
#
#
# Elastic Compliance Matrix: (Units=1/GPa)
#
#
# Indices 1 2 3 4 5 6 
#
# 1 0.012421 -0.002780 -0.003352 0.000000 -0.001658 0.000000
# 2 -0.002780 0.014359 -0.004225 0.000000 -0.001037 0.000000
# 3 -0.003352 -0.004225 0.057214 0.000000 -0.008759 0.000000
# 4 0.000000 0.000000 0.000000 0.061625 0.000000 -0.003508
# 5 -0.001658 -0.001037 -0.008759 0.000000 0.036740 0.000000
# 6 0.000000 0.000000 0.000000 -0.003508 0.000000 0.030059
#
#
# Mechanical properties :
#
#
# Convention : Reuss Voigt Hill
#
# Bulk Modulus (GPa) = 15.80316 28.06472 21.93394
# Shear Modulus (GPa) = 19.66768 25.62682 22.64725
#
# Velocity S-wave (km/s) = 2.93231 3.34719 3.14659
# Velocity P-wave (km/s) = 4.28643 5.21610 4.77395
#
# Compressibility (1/GPa) = 0.06327848
#
# Stress axis : x y z
#
# Youngs Moduli (GPa) = 80.50879 69.64489 17.47834
#
# Poissons Ratio (x) = 0.19362 0.05858
# Poissons Ratio (y) = 0.22382 0.07385
# Poissons Ratio (z) = 0.26985 0.29428
#
# Static dielectric constant tensor:
#      x y z
#    x 1.973350 0.000000 0.051620 
#    y 0.000000 1.888460 0.000000 
#    z 0.051620 0.000000 1.831180 
# 
# From -- ./inp_files/130128.got.cif
#   From: 2010.05.17/outbox.cif.g08.bks.cpg/sg15_66_cif.got.tgz:130128.got - 2010.06.03 18:47:42.
