data_PCOD9284212
_publ_section_title
;
Structure prediction by ZEFSAII (Michael W. Deem and Ramdas Pophale) SiO2 
 PCOD9284212
Probable space group: C 2/C
;
_chemical_formula_sum "Si O2"
_cell_formula_units_Z 52
_cell_length_a 20.972458
_cell_length_b 11.531088
_cell_length_c 13.393756
_cell_angle_alpha 90.000000
_cell_angle_beta 50.793787
_cell_angle_gamma 90.000000
_cell_volume 2509.887085
_symmetry_space_group_name_H-M "C 2/C"
_symmetry_group_IT_number 15
_symmetry_cell_setting 'monoclinic'
loop_
_space_group_symop_operation_xyz
x,y,z
-x,y,1/2-z
-x,-y,-z
x,-y,1/2+z
1/2+x,1/2+y,z
1/2-x,1/2+y,1/2-z
1/2-x,1/2-y,-z
1/2+x,1/2-y,1/2+z
loop_
_atom_site_type_symbol
_atom_site_label
_atom_site_fract_x
_atom_site_fract_y
_atom_site_fract_z
Si Si1 0.139556 0.425425 0.219429
Si Si2 0.371687 0.562449 0.148391
Si Si3 0.293365 0.785635 0.156285
Si Si4 0.547936 0.353347 0.527494
Si Si5 0.000000 0.282349 0.250000
Si Si6 0.212243 0.480988 0.939940
Si Si7 0.123937 0.654179 0.355278
O O1 0.183845 0.353542 0.263633
O O2 0.113146 0.550564 0.288463
O O3 0.058837 0.358329 0.261582
O O4 0.199644 0.443991 0.065846
O O5 0.349528 0.671402 0.100740
O O6 0.458792 0.588186 0.112917
O O7 0.299704 0.546726 0.300947
O O8 0.384758 0.447063 0.070900
O O9 0.303050 0.881976 0.061467
O O10 0.202086 0.732813 0.248372
O O11 0.558259 0.298652 0.625489
O O12 0.551856 0.245200 0.446911
O O13 0.147466 0.410015 0.935756
#
# Coordination Sequence:
#
# PCOD9284212 Si02
#       7
#     8   8   8   8   4   8   8
#     4  11  24  40  69 100 128 170 225 268 327 392
#     4  10  22  40  64  90 128 177 208 263 331 382
#     4  10  21  42  62  98 129 171 212 269 331 375
#     4  11  22  42  62  92 133 171 215 262 324 393
#     4  12  24  42  66 100 128 176 218 268 326 392
#     4  10  21  40  67  98 126 168 221 271 322 385
#     4  10  22  40  66  94 131 172 212 275 322 384
#
# _framework density 20.718063999999998
#
# number of rings (size 3 to 8) (size 9 to 14) (size 15 to 20)
#    0.000    1.538    4.615    0.000    0.000    6.154 
#    0.000    1.538    0.000    0.000    0.000    0.000 
#    0.000    0.000    0.000    0.000    0.000    0.000 
#
# Total GULP energy -145231.233944 kJ/mol
# GULP energy per Si atom -5585.816690 kJ/mol
# Density = 2.067091 g / cm^3
# Si number density = 20.718064 Si / 1000 Ang^3
#
#
#
# Elastic Constant Matrix: (Units=GPa)
#
#
# Indices 1 2 3 4 5 6 
#
# 1 49.0722 18.4653 20.2761 0.0000 -0.6206 0.0000
# 2 18.4653 141.5299 47.8885 0.0000 -2.7270 0.0000
# 3 20.2761 47.8885 89.4670 0.0000 -3.7452 0.0000
# 4 0.0000 0.0000 0.0000 12.0167 0.0000 -3.5577
# 5 -0.6206 -2.7270 -3.7452 0.0000 15.7488 0.0000
# 6 0.0000 0.0000 0.0000 -3.5577 0.0000 27.1729
#
#
#
# Elastic Compliance Matrix: (Units=1/GPa)
#
#
# Indices 1 2 3 4 5 6 
#
# 1 0.022742 -0.001496 -0.004370 0.000000 -0.000402 0.000000
# 2 -0.001496 0.008729 -0.004316 0.000000 0.000426 0.000000
# 3 -0.004370 -0.004316 0.014584 0.000000 0.002549 0.000000
# 4 0.000000 0.000000 0.000000 0.086573 0.000000 0.011335
# 5 -0.000402 0.000426 0.002549 0.000000 0.064161 0.000000
# 6 0.000000 0.000000 0.000000 0.011335 0.000000 0.038285
#
#
# Mechanical properties :
#
#
# Convention : Reuss Voigt Hill
#
# Bulk Modulus (GPa) = 38.92280 50.36988 44.64634
# Shear Modulus (GPa) = 18.93923 23.88364 21.41143
#
# Velocity S-wave (km/s) = 3.02676 3.39896 3.21825
# Velocity P-wave (km/s) = 5.57160 6.30625 5.95027
#
# Compressibility (1/GPa) = 0.02569188
#
# Stress axis : x y z
#
# Youngs Moduli (GPa) = 43.97213 114.55684 68.56676
#
# Poissons Ratio (x) = 0.17140 0.29963
# Poissons Ratio (y) = 0.06579 0.29590
# Poissons Ratio (z) = 0.19216 0.49438
#
# Static dielectric constant tensor:
#      x y z
#    x 1.724180 0.000000 -0.017640 
#    y 0.000000 1.762950 0.000000 
#    z -0.017640 0.000000 1.746200 
# 
# From -- ./inp_files/111500.got.cif
#   From: 2010.05.17/outbox.cif.g08.bks.cpg/sg15_56_cif.got.tgz:111500.got - 2010.06.03 18:47:42.
