data_PCOD9284131
_publ_section_title
;
Structure prediction by ZEFSAII (Michael W. Deem and Ramdas Pophale) SiO2 
 PCOD9284131
Probable space group: C 2/C
;
_chemical_formula_sum "Si O2"
_cell_formula_units_Z 36
_cell_length_a 10.203821
_cell_length_b 29.115933
_cell_length_c 5.173944
_cell_angle_alpha 90.000000
_cell_angle_beta 106.781439
_cell_angle_gamma 90.000000
_cell_volume 1471.684184
_symmetry_space_group_name_H-M "C 2/C"
_symmetry_group_IT_number 15
_symmetry_cell_setting 'monoclinic'
loop_
_space_group_symop_operation_xyz
x,y,z
-x,y,1/2-z
-x,-y,-z
x,-y,1/2+z
1/2+x,1/2+y,z
1/2-x,1/2+y,1/2-z
1/2-x,1/2-y,-z
1/2+x,1/2-y,1/2+z
loop_
_atom_site_type_symbol
_atom_site_label
_atom_site_fract_x
_atom_site_fract_y
_atom_site_fract_z
Si Si1 0.500000 0.196056 0.750000
Si Si2 0.622256 0.892590 0.147967
Si Si3 0.089954 0.865611 0.054219
Si Si4 0.662061 0.024472 0.342917
Si Si5 0.854914 0.241039 0.796068
O O1 0.435110 0.159143 0.915863
O O2 0.375422 0.226670 0.563970
O O3 0.500000 0.914683 0.250000
O O4 0.763948 0.889963 0.381640
O O5 0.660918 0.921825 0.918865
O O6 0.127601 0.812117 0.119202
O O7 0.000000 0.880489 0.250000
O O8 0.000000 0.870540 0.750000
O O9 0.500000 0.014876 0.250000
O O10 0.721962 0.994764 0.613356
O O11 0.750000 0.250000 0.500000
O O12 0.000000 0.252833 0.750000
#
# Coordination Sequence:
#
# PCOD9284131 Si02
#       5
#     4   8   8   8   8
#     4  10  24  42  66 100 138 174 242 292 336 398
#     4  10  24  41  70 101 134 175 228 287 336 410
#     4  11  26  45  67  95 138 189 229 280 340 411
#     4  10  21  40  67 102 139 170 212 281 355 411
#     4  11  24  40  64  91 134 188 230 288 340 404
#
# _framework density 24.461773000000001
#
# number of rings (size 3 to 8) (size 9 to 14) (size 15 to 20)
#    0.667    0.889    1.111    3.333    6.222    8.000 
#    0.000    0.000    0.000    4.000    0.000    0.000 
#    0.000    0.000    0.000    0.000    0.000    0.000 
#
# Total GULP energy -100507.666693 kJ/mol
# GULP energy per Si atom -5583.759261 kJ/mol
# Density = 2.440610 g / cm^3
# Si number density = 24.461773 Si / 1000 Ang^3
#
#
#
# Elastic Constant Matrix: (Units=GPa)
#
#
# Indices 1 2 3 4 5 6 
#
# 1 93.8383 11.7156 62.5770 0.0000 26.9044 0.0000
# 2 11.7156 111.8344 47.9279 0.0000 7.6841 0.0000
# 3 62.5770 47.9279 209.2207 0.0000 16.1634 0.0000
# 4 0.0000 0.0000 0.0000 31.4871 0.0000 1.7975
# 5 26.9044 7.6841 16.1634 0.0000 49.6016 0.0000
# 6 0.0000 0.0000 0.0000 1.7975 0.0000 -4.8103
#
#
#
# Elastic Compliance Matrix: (Units=1/GPa)
#
#
# Indices 1 2 3 4 5 6 
#
# 1 0.015420 0.000681 -0.004220 0.000000 -0.007094 0.000000
# 2 0.000681 0.009978 -0.002402 0.000000 -0.001132 0.000000
# 3 -0.004220 -0.002402 0.006551 0.000000 0.000526 0.000000
# 4 0.000000 0.000000 0.000000 0.031096 0.000000 0.011620
# 5 -0.007094 -0.001132 0.000526 0.000000 0.024013 0.000000
# 6 0.000000 0.000000 0.000000 0.011620 0.000000 -0.203544
#
#
# Mechanical properties :
#
#
# Convention : Reuss Voigt Hill
#
# Bulk Modulus (GPa) = 49.83413 73.25937 61.54675
# Shear Modulus (GPa) = -51.06378 34.76720 -8.14829
#
# Velocity S-wave (km/s) = -4.57387 3.77409 -1.82709
# Velocity P-wave (km/s) = 2.73444 7.00037 4.55675
#
# Compressibility (1/GPa) = 0.02006657
#
# Stress axis : x y z
#
# Youngs Moduli (GPa) = 64.85240 100.22471 152.64142
#
# Poissons Ratio (x) = -0.06821 0.64411
# Poissons Ratio (y) = -0.04413 0.36660
# Poissons Ratio (z) = 0.27366 0.24071
#
# Static dielectric constant tensor:
#      x y z
#    x 5.224360 0.000000 -2.859600 
#    y 0.000000 1.957290 0.000000 
#    z -2.859600 0.000000 4.446170 
# 
# From -- ./inp_files/5647.got.cif
#   From: 2010.05.17/outbox.cif.g08.bks.cpg/sg15_3_cif.got.tgz:5647.got - 2010.06.03 18:47:42.
