data_PCOD9284495
_publ_section_title
;
Structure prediction by ZEFSAII (Michael W. Deem and Ramdas Pophale) SiO2 
 PCOD9284495
Probable space group: C 2/C
;
_chemical_formula_sum "Si O2"
_cell_formula_units_Z 36
_cell_length_a 9.682484
_cell_length_b 24.435103
_cell_length_c 6.662444
_cell_angle_alpha 90.000000
_cell_angle_beta 68.379855
_cell_angle_gamma 90.000000
_cell_volume 1465.387911
_symmetry_space_group_name_H-M "C 2/C"
_symmetry_group_IT_number 15
_symmetry_cell_setting 'monoclinic'
loop_
_space_group_symop_operation_xyz
x,y,z
-x,y,1/2-z
-x,-y,-z
x,-y,1/2+z
1/2+x,1/2+y,z
1/2-x,1/2+y,1/2-z
1/2-x,1/2-y,-z
1/2+x,1/2-y,1/2+z
loop_
_atom_site_type_symbol
_atom_site_label
_atom_site_fract_x
_atom_site_fract_y
_atom_site_fract_z
Si Si1 0.767577 0.868993 0.944940
Si Si2 0.000000 0.782151 0.750000
Si Si3 0.619921 0.488231 0.556017
Si Si4 0.670962 0.087783 0.083548
Si Si5 0.460314 0.184783 0.508026
O O1 0.884379 0.821406 0.921153
O O2 0.768476 0.885794 0.707774
O O3 0.605557 0.841293 0.036909
O O4 0.818356 0.926586 0.011297
O O5 0.923056 0.741820 0.631071
O O6 0.573674 0.509424 0.337727
O O7 0.756659 0.530956 0.510905
O O8 0.500000 0.078799 0.250000
O O9 0.659780 0.136016 0.926208
O O10 0.500000 0.193692 0.250000
#
# Coordination Sequence:
#
# PCOD9284495 Si02
#       5
#     8   4   8   8   8
#     4  10  21  41  59  88 135 163 208 275 322 379
#     4  12  20  40  66  90 130 172 212 270 326 384
#     4  12  22  39  63  93 128 169 209 265 331 386
#     4   9  21  42  63  93 130 171 213 267 327 390
#     4   9  23  40  63  93 123 169 220 267 322 386
#
# _framework density 24.566873999999999
#
# number of rings (size 3 to 8) (size 9 to 14) (size 15 to 20)
#    0.000    2.222    3.333    0.667    0.000    8.889 
#    2.000    6.667    0.000    0.000    0.000    0.000 
#    0.000    0.000    0.000    0.000    0.000    0.000 
#
# Total GULP energy -100438.778714 kJ/mol
# GULP energy per Si atom -5579.932151 kJ/mol
# Density = 2.451096 g / cm^3
# Si number density = 24.566874 Si / 1000 Ang^3
#
#
#
# Elastic Constant Matrix: (Units=GPa)
#
#
# Indices 1 2 3 4 5 6 
#
# 1 74.9605 59.8204 14.4529 0.0000 17.4990 0.0000
# 2 59.8204 225.5760 38.7028 0.0000 -5.1579 0.0000
# 3 14.4529 38.7028 88.2649 0.0000 6.2781 0.0000
# 4 0.0000 0.0000 0.0000 113.5613 0.0000 62.9735
# 5 17.4990 -5.1579 6.2781 0.0000 38.8265 0.0000
# 6 0.0000 0.0000 0.0000 62.9735 0.0000 112.8475
#
#
#
# Elastic Compliance Matrix: (Units=1/GPa)
#
#
# Indices 1 2 3 4 5 6 
#
# 1 0.020042 -0.005508 -0.000174 0.000000 -0.009736 0.000000
# 2 -0.005508 0.006345 -0.002142 0.000000 0.003672 0.000000
# 3 -0.000174 -0.002142 0.012455 0.000000 -0.002220 0.000000
# 4 0.000000 0.000000 0.000000 0.012752 0.000000 -0.007116
# 5 -0.009736 0.003672 -0.002220 0.000000 0.030991 0.000000
# 6 0.000000 0.000000 0.000000 -0.007116 0.000000 0.012833
#
#
# Mechanical properties :
#
#
# Convention : Reuss Voigt Hill
#
# Bulk Modulus (GPa) = 43.11210 68.30593 55.70902
# Shear Modulus (GPa) = 42.08902 71.43540 56.76221
#
# Velocity S-wave (km/s) = 4.14362 5.39825 4.81200
# Velocity P-wave (km/s) = 6.36237 8.16818 7.32117
#
# Compressibility (1/GPa) = 0.02319535
#
# Stress axis : x y z
#
# Youngs Moduli (GPa) = 49.89485 157.60295 80.28924
#
# Poissons Ratio (x) = 0.86803 0.01399
# Poissons Ratio (y) = 0.27481 0.17194
# Poissons Ratio (z) = 0.00869 0.33751
#
# Static dielectric constant tensor:
#      x y z
#    x 1.911190 0.000000 0.002140 
#    y 0.000000 1.845410 0.000000 
#    z 0.002140 0.000000 2.203460 
# 
# From -- ./inp_files/4700.got.cif
#   From: 2010.05.17/outbox.cif.g08.bks.cpg/sg15_3_cif.got.tgz:4700.got - 2010.06.03 18:47:42.
