data_PCOD9284510
_publ_section_title
;
Structure prediction by ZEFSAII (Michael W. Deem and Ramdas Pophale) SiO2 
 PCOD9284510
Probable space group: C 2/C
;
_chemical_formula_sum "Si O2"
_cell_formula_units_Z 64
_cell_length_a 33.237640
_cell_length_b 13.371101
_cell_length_c 9.607270
_cell_angle_alpha 90.000000
_cell_angle_beta 136.734431
_cell_angle_gamma 90.000000
_cell_volume 2926.370657
_symmetry_space_group_name_H-M "C 2/C"
_symmetry_group_IT_number 15
_symmetry_cell_setting 'monoclinic'
loop_
_space_group_symop_operation_xyz
x,y,z
-x,y,1/2-z
-x,-y,-z
x,-y,1/2+z
1/2+x,1/2+y,z
1/2-x,1/2+y,1/2-z
1/2-x,1/2-y,-z
1/2+x,1/2-y,1/2+z
loop_
_atom_site_type_symbol
_atom_site_label
_atom_site_fract_x
_atom_site_fract_y
_atom_site_fract_z
Si Si1 0.228615 0.166313 0.112632
Si Si2 0.386109 0.072128 0.106870
Si Si3 0.829012 0.771833 0.510501
Si Si4 0.051166 0.721325 0.060978
Si Si5 0.686077 0.411003 0.777560
Si Si6 0.691695 0.001278 0.333735
Si Si7 0.929591 0.635779 0.695111
Si Si8 0.365489 0.626624 0.829837
O O1 0.264005 0.250337 0.286425
O O2 0.184867 0.114459 0.112524
O O3 0.276687 0.087966 0.177241
O O4 0.186615 0.190657 0.877317
O O5 0.417182 0.175029 0.225324
O O6 0.339971 0.049524 0.113854
O O7 0.433680 0.982072 0.229912
O O8 0.352497 0.059015 0.876958
O O9 0.829741 0.820398 0.662448
O O10 0.868205 0.672684 0.602708
O O11 0.859954 0.845580 0.477673
O O12 0.074500 0.831529 0.083710
O O13 0.070367 0.658210 0.970485
O O14 0.982104 0.700611 0.891629
O O15 0.649892 0.510598 0.723719
O O16 0.754412 0.434398 0.979518
#
# Coordination Sequence:
#
# PCOD9284510 Si02
#       8
#     8   8   8   8   8   8   8   8
#     4  11  21  37  56  90 122 154 190 238 298 358
#     4  12  20  38  59  89 121 156 193 238 293 361
#     4  11  21  38  61  85 114 157 193 246 294 348
#     4  10  22  39  63  84 117 159 201 246 286 354
#     4  11  23  37  58  87 126 154 192 242 300 348
#     4  11  21  34  57  88 124 154 188 232 291 362
#     4  10  21  41  60  88 117 153 206 243 294 347
#     4  10  22  38  58  86 115 157 204 238 286 351
#
# _framework density 21.870093000000001
#
# number of rings (size 3 to 8) (size 9 to 14) (size 15 to 20)
#    0.000    1.250    3.750    3.375    3.500    0.000 
#    0.000    0.625    0.000    1.500    0.000    0.000 
#    0.000    0.000    0.000    0.000    0.000    0.000 
#
# Total GULP energy -178925.099971 kJ/mol
# GULP energy per Si atom -5591.409374 kJ/mol
# Density = 2.182032 g / cm^3
# Si number density = 21.870093 Si / 1000 Ang^3
#
#
#
# Elastic Constant Matrix: (Units=GPa)
#
#
# Indices 1 2 3 4 5 6 
#
# 1 53.2828 11.2326 13.5812 0.0000 -2.5092 0.0000
# 2 11.2326 37.1713 -1.1928 0.0000 -2.7251 0.0000
# 3 13.5812 -1.1928 54.9123 0.0000 -2.3489 0.0000
# 4 0.0000 0.0000 0.0000 22.9961 0.0000 -4.1295
# 5 -2.5092 -2.7251 -2.3489 0.0000 33.4384 0.0000
# 6 0.0000 0.0000 0.0000 -4.1295 0.0000 24.7010
#
#
#
# Elastic Compliance Matrix: (Units=1/GPa)
#
#
# Indices 1 2 3 4 5 6 
#
# 1 0.021593 -0.006649 -0.005455 0.000000 0.000695 0.000000
# 2 -0.006649 0.029137 0.002365 0.000000 0.002042 0.000000
# 3 -0.005455 0.002365 0.019661 0.000000 0.001164 0.000000
# 4 0.000000 0.000000 0.000000 0.044832 0.000000 0.007495
# 5 0.000695 0.002042 0.001164 0.000000 0.030206 0.000000
# 6 0.000000 0.000000 0.000000 0.007495 0.000000 0.041737
#
#
# Mechanical properties :
#
#
# Convention : Reuss Voigt Hill
#
# Bulk Modulus (GPa) = 19.64163 21.40095 20.52129
# Shear Modulus (GPa) = 22.35981 24.34346 23.35164
#
# Velocity S-wave (km/s) = 3.20096 3.33993 3.27118
# Velocity P-wave (km/s) = 4.76047 4.96792 4.86530
#
# Compressibility (1/GPa) = 0.05091227
#
# Stress axis : x y z
#
# Youngs Moduli (GPa) = 46.31204 34.32034 50.86157
#
# Poissons Ratio (x) = 0.22820 0.27745
# Poissons Ratio (y) = 0.30793 -0.12027
# Poissons Ratio (z) = 0.25264 -0.08116
#
# Static dielectric constant tensor:
#      x y z
#    x 1.796320 0.000000 0.000870 
#    y 0.000000 1.811510 0.000000 
#    z 0.000870 0.000000 1.818960 
# 
# From -- ./inp_files/70160.got.cif
#   From: 2010.05.17/outbox.cif.g08.bks.cpg/sg15_36_cif.got.tgz:70160.got - 2010.06.03 18:47:42.
