data_PCOD9284143
_publ_section_title
;
Structure prediction by ZEFSAII (Michael W. Deem and Ramdas Pophale) SiO2 
 PCOD9284143
Probable space group: C 2/C
;
_chemical_formula_sum "Si O2"
_cell_formula_units_Z 60
_cell_length_a 20.763078
_cell_length_b 22.552086
_cell_length_c 5.328679
_cell_angle_alpha 90.000000
_cell_angle_beta 112.970694
_cell_angle_gamma 90.000000
_cell_volume 2297.303214
_symmetry_space_group_name_H-M "C 2/C"
_symmetry_group_IT_number 15
_symmetry_cell_setting 'monoclinic'
loop_
_space_group_symop_operation_xyz
x,y,z
-x,y,1/2-z
-x,-y,-z
x,-y,1/2+z
1/2+x,1/2+y,z
1/2-x,1/2+y,1/2-z
1/2-x,1/2-y,-z
1/2+x,1/2-y,1/2+z
loop_
_atom_site_type_symbol
_atom_site_label
_atom_site_fract_x
_atom_site_fract_y
_atom_site_fract_z
Si Si1 0.569353 0.060896 0.249122
Si Si2 0.224248 0.532107 0.405175
Si Si3 0.401603 0.643594 0.199317
Si Si4 0.888265 0.322991 0.426892
Si Si5 0.921949 0.018381 0.970391
Si Si6 0.602234 0.292185 0.292310
Si Si7 0.734791 0.343493 0.275976
Si Si8 0.000000 0.650247 0.750000
O O1 0.500000 0.028206 0.250000
O O2 0.638596 0.028448 0.262517
O O3 0.597536 0.107928 0.497624
O O4 0.539940 0.106094 0.998740
O O5 0.317339 0.643314 0.033584
O O6 0.245580 0.597463 0.535090
O O7 0.247283 0.512241 0.163557
O O8 0.418932 0.667448 0.500411
O O9 0.421160 0.578907 0.126716
O O10 0.428843 0.684702 0.014004
O O11 0.911174 0.276028 0.670535
O O12 0.805767 0.316343 0.276876
O O13 0.939139 0.310749 0.276997
O O14 0.889872 0.024759 0.639070
O O15 0.000000 0.000000 0.000000
O O16 0.685594 0.302542 0.373884
#
# Coordination Sequence:
#
# PCOD9284143 Si02
#       8
#     8   8   8   8   8   8   8   4
#     4   9  22  41  62  90 127 169 222 263 324 405
#     4  11  26  40  63  94 128 169 213 274 333 382
#     4  10  23  40  63 100 128 169 221 283 319 393
#     4  10  21  42  65  98 126 180 212 272 334 406
#     4  10  21  40  67  89 124 178 228 262 329 386
#     4  10  23  41  65  96 135 167 217 274 337 387
#     4   9  24  41  66  94 136 167 224 269 331 400
#     4  10  22  38  72  88 134 168 228 266 330 402
#
# _framework density 26.117578000000002
#
# number of rings (size 3 to 8) (size 9 to 14) (size 15 to 20)
#    0.800    1.333    0.000    1.200    9.333    3.200 
#    0.000    4.000    0.000    0.000    0.000    0.000 
#    0.000    0.000    0.000    0.000    0.000    0.000 
#
# Total GULP energy -167578.587689 kJ/mol
# GULP energy per Si atom -5585.952923 kJ/mol
# Density = 2.605813 g / cm^3
# Si number density = 26.117578 Si / 1000 Ang^3
#
#
#
# Elastic Constant Matrix: (Units=GPa)
#
#
# Indices 1 2 3 4 5 6 
#
# 1 138.5818 19.4118 60.8923 0.0000 -13.4753 0.0000
# 2 19.4118 82.2054 14.7236 0.0000 -17.2346 0.0000
# 3 60.8923 14.7236 129.1510 0.0000 -25.3525 0.0000
# 4 0.0000 0.0000 0.0000 45.6606 0.0000 -10.3140
# 5 -13.4753 -17.2346 -25.3525 0.0000 40.8313 0.0000
# 6 0.0000 0.0000 0.0000 -10.3140 0.0000 21.3712
#
#
#
# Elastic Compliance Matrix: (Units=1/GPa)
#
#
# Indices 1 2 3 4 5 6 
#
# 1 0.009266 -0.001469 -0.004239 0.000000 -0.000195 0.000000
# 2 -0.001469 0.013604 0.000198 0.000000 0.005380 0.000000
# 3 -0.004239 0.000198 0.010774 0.000000 0.005374 0.000000
# 4 0.000000 0.000000 0.000000 0.024580 0.000000 0.011863
# 5 -0.000195 0.005380 0.005374 0.000000 0.030035 0.000000
# 6 0.000000 0.000000 0.000000 0.011863 0.000000 0.052517
#
#
# Mechanical properties :
#
#
# Convention : Reuss Voigt Hill
#
# Bulk Modulus (GPa) = 44.20382 59.99928 52.10155
# Shear Modulus (GPa) = 31.37989 38.56665 34.97327
#
# Velocity S-wave (km/s) = 3.47001 3.84690 3.66330
# Velocity P-wave (km/s) = 5.74598 6.53866 6.15509
#
# Compressibility (1/GPa) = 0.02262248
#
# Stress axis : x y z
#
# Youngs Moduli (GPa) = 107.92657 73.50689 92.81628
#
# Poissons Ratio (x) = 0.10802 0.39347
# Poissons Ratio (y) = 0.15859 -0.01838
# Poissons Ratio (z) = 0.45752 -0.01456
#
# Static dielectric constant tensor:
#      x y z
#    x 2.126480 0.000000 0.059650 
#    y 0.000000 2.036890 0.000000 
#    z 0.059650 0.000000 2.172080 
# 
# From -- ./inp_files/13912.got.cif
#   From: 2010.05.17/outbox.cif.g08.bks.cpg/sg15_7_cif.got.tgz:13912.got - 2010.06.03 18:47:42.
