data_PCOD9284583
_publ_section_title
;
Structure prediction by ZEFSAII (Michael W. Deem and Ramdas Pophale) SiO2 
 PCOD9284583
Probable space group: C 2/C
;
_chemical_formula_sum "Si O2"
_cell_formula_units_Z 60
_cell_length_a 24.130734
_cell_length_b 25.441092
_cell_length_c 9.039102
_cell_angle_alpha 90.000000
_cell_angle_beta 146.456413
_cell_angle_gamma 90.000000
_cell_volume 3066.336469
_symmetry_space_group_name_H-M "C 2/C"
_symmetry_group_IT_number 15
_symmetry_cell_setting 'monoclinic'
loop_
_space_group_symop_operation_xyz
x,y,z
-x,y,1/2-z
-x,-y,-z
x,-y,1/2+z
1/2+x,1/2+y,z
1/2-x,1/2+y,1/2-z
1/2-x,1/2-y,-z
1/2+x,1/2-y,1/2+z
loop_
_atom_site_type_symbol
_atom_site_label
_atom_site_fract_x
_atom_site_fract_y
_atom_site_fract_z
Si Si1 0.370329 0.657524 0.724675
Si Si2 0.894882 0.950026 0.438336
Si Si3 0.673224 0.462148 0.911097
Si Si4 0.406182 0.652487 0.324807
Si Si5 0.500000 0.985006 0.750000
Si Si6 0.275584 0.160515 0.355874
Si Si7 0.884340 0.766550 0.510187
Si Si8 0.380066 0.058715 0.707784
O O1 0.389480 0.609988 0.879651
O O2 0.278506 0.642540 0.415694
O O3 0.349908 0.709015 0.777317
O O4 0.477249 0.663354 0.878500
O O5 0.812977 0.962226 0.382444
O O6 0.880771 0.985873 0.264882
O O7 0.000000 0.962110 0.750000
O O8 0.608666 0.409783 0.734453
O O9 0.774125 0.458769 0.041431
O O10 0.318599 0.666681 0.243553
O O11 0.384201 0.686578 0.129720
O O12 0.422422 0.023394 0.666415
O O13 0.453280 0.949777 0.512930
O O14 0.323624 0.216865 0.431830
O O15 0.354949 0.117685 0.593576
O O16 0.000000 0.750490 0.750000
#
# Coordination Sequence:
#
# PCOD9284583 Si02
#       8
#     8   8   8   8   4   8   8   8
#     4  11  22  40  62  92 129 172 200 252 321 376
#     4  12  23  37  57  91 132 169 201 240 299 371
#     4  11  23  37  60  94 123 162 209 249 297 375
#     4  10  21  41  62  86 130 166 202 253 320 366
#     4  10  22  48  68  84 132 166 202 262 334 364
#     4  11  24  38  66  98 119 159 219 265 297 379
#     4  10  21  43  65  84 124 168 210 260 317 365
#     4  10  24  42  67  93 120 165 208 263 317 372
#
# _framework density 19.567325
#
# number of rings (size 3 to 8) (size 9 to 14) (size 15 to 20)
#    0.000    1.333    2.667    2.800    6.533    0.000 
#    0.000    0.000   14.667    0.000    0.000    0.000 
#    0.000    0.000    0.000    0.000    0.000    0.000 
#
# Total GULP energy -167393.790318 kJ/mol
# GULP energy per Si atom -5579.793011 kJ/mol
# Density = 1.952279 g / cm^3
# Si number density = 19.567325 Si / 1000 Ang^3
#
#
#
# Elastic Constant Matrix: (Units=GPa)
#
#
# Indices 1 2 3 4 5 6 
#
# 1 105.5664 52.6511 18.6585 0.0000 -1.7210 0.0000
# 2 52.6511 112.0035 49.7973 0.0000 6.1490 0.0000
# 3 18.6585 49.7973 62.7288 0.0000 -6.3826 0.0000
# 4 0.0000 0.0000 0.0000 23.8115 0.0000 -1.5063
# 5 -1.7210 6.1490 -6.3826 0.0000 20.1657 0.0000
# 6 0.0000 0.0000 0.0000 -1.5063 0.0000 34.1321
#
#
#
# Elastic Compliance Matrix: (Units=1/GPa)
#
#
# Indices 1 2 3 4 5 6 
#
# 1 0.012748 -0.007286 0.002406 0.000000 0.004071 0.000000
# 2 -0.007286 0.019310 -0.014284 0.000000 -0.011031 0.000000
# 3 0.002406 -0.014284 0.027929 0.000000 0.013401 0.000000
# 4 0.000000 0.000000 0.000000 0.042114 0.000000 0.001859
# 5 0.004071 -0.011031 0.013401 0.000000 0.057542 0.000000
# 6 0.000000 0.000000 0.000000 0.001859 0.000000 0.029380
#
#
# Mechanical properties :
#
#
# Convention : Reuss Voigt Hill
#
# Bulk Modulus (GPa) = 46.17060 58.05695 52.11378
# Shear Modulus (GPa) = 21.31567 26.23464 23.77516
#
# Velocity S-wave (km/s) = 3.30411 3.66558 3.48953
# Velocity P-wave (km/s) = 6.18087 6.90290 6.55184
#
# Compressibility (1/GPa) = 0.02165880
#
# Stress axis : x y z
#
# Youngs Moduli (GPa) = 78.44643 51.78738 35.80506
#
# Poissons Ratio (x) = 0.37731 -0.08616
# Poissons Ratio (y) = 0.57155 0.51145
# Poissons Ratio (z) = -0.18877 0.73975
#
# Static dielectric constant tensor:
#      x y z
#    x 1.735970 0.000000 -0.006990 
#    y 0.000000 1.649060 0.000000 
#    z -0.006990 0.000000 1.711750 
# 
# From -- ./inp_files/64125.got.cif
#   From: 2010.05.17/outbox.cif.g08.bks.cpg/sg15_33_cif.got.tgz:64125.got - 2010.06.03 18:47:42.
