data_PCOD9284841
_publ_section_title
;
Structure prediction by ZEFSAII (Michael W. Deem and Ramdas Pophale) SiO2 
 PCOD9284841
Probable space group: C 2/C
;
_chemical_formula_sum "Si O2"
_cell_formula_units_Z 48
_cell_length_a 8.135403
_cell_length_b 19.287467
_cell_length_c 14.116783
_cell_angle_alpha 90.000000
_cell_angle_beta 78.632149
_cell_angle_gamma 90.000000
_cell_volume 2171.627351
_symmetry_space_group_name_H-M "C 2/C"
_symmetry_group_IT_number 15
_symmetry_cell_setting 'monoclinic'
loop_
_space_group_symop_operation_xyz
x,y,z
-x,y,1/2-z
-x,-y,-z
x,-y,1/2+z
1/2+x,1/2+y,z
1/2-x,1/2+y,1/2-z
1/2-x,1/2-y,-z
1/2+x,1/2-y,1/2+z
loop_
_atom_site_type_symbol
_atom_site_label
_atom_site_fract_x
_atom_site_fract_y
_atom_site_fract_z
Si Si1 0.721582 0.528068 0.009013
Si Si2 0.926836 0.096201 0.161239
Si Si3 0.666863 0.543530 0.797414
Si Si4 0.052560 0.606356 0.020215
Si Si5 0.283436 0.785451 0.895399
Si Si6 0.365753 0.168550 0.689531
O O1 0.438202 0.451742 0.909473
O O2 0.676156 0.557191 0.909681
O O3 0.881180 0.564785 0.037671
O O4 0.788748 0.448053 0.995471
O O5 0.865794 0.160994 0.109480
O O6 0.000000 0.124085 0.250000
O O7 0.790635 0.038458 0.209293
O O8 0.500000 0.551723 0.750000
O O9 0.794718 0.596985 0.737948
O O10 0.057462 0.647892 0.920566
O O11 0.063869 0.662025 0.103539
O O12 0.276395 0.725727 0.817728
O O13 0.250000 0.750000 0.000000
O O14 0.500000 0.195282 0.750000
#
# Coordination Sequence:
#
# PCOD9284841 Si02
#       6
#     8   8   8   8   8   8
#     4  11  22  40  70 100 133 166 223 278 327 385
#     4  11  23  42  65  98 130 176 223 274 328 387
#     4  11  23  38  68 102 127 170 221 277 326 390
#     4  10  21  41  65 101 131 171 214 274 331 385
#     4  10  23  40  67  90 135 181 214 265 331 394
#     4  11  22  42  63  96 134 176 219 267 329 394
#
# _framework density 22.103238000000001
#
# number of rings (size 3 to 8) (size 9 to 14) (size 15 to 20)
#    0.000    1.333    3.333    3.000    4.667    0.000 
#    0.000    7.500    0.000    0.000    0.000    0.000 
#    0.000    0.000    0.000    0.000    0.000    0.000 
#
# Total GULP energy -133766.158476 kJ/mol
# GULP energy per Si atom -5573.589936 kJ/mol
# Density = 2.205293 g / cm^3
# Si number density = 22.103238 Si / 1000 Ang^3
#
#
#
# Elastic Constant Matrix: (Units=GPa)
#
#
# Indices 1 2 3 4 5 6 
#
# 1 31.8936 24.3158 17.8721 0.0000 13.2479 0.0000
# 2 24.3158 121.5036 37.8369 0.0000 14.1728 0.0000
# 3 17.8721 37.8369 122.9561 0.0000 25.7177 0.0000
# 4 0.0000 0.0000 0.0000 39.6661 0.0000 13.6725
# 5 13.2479 14.1728 25.7177 0.0000 23.8108 0.0000
# 6 0.0000 0.0000 0.0000 13.6725 0.0000 18.1393
#
#
#
# Elastic Compliance Matrix: (Units=1/GPa)
#
#
# Indices 1 2 3 4 5 6 
#
# 1 0.045179 -0.006536 -0.000144 0.000000 -0.021090 0.000000
# 2 -0.006536 0.010228 -0.002176 0.000000 -0.000101 0.000000
# 3 -0.000144 -0.002176 0.011027 0.000000 -0.010535 0.000000
# 4 0.000000 0.000000 0.000000 0.034060 0.000000 -0.025673
# 5 -0.021090 -0.000101 -0.010535 0.000000 0.065170 0.000000
# 6 0.000000 0.000000 0.000000 -0.025673 0.000000 0.074480
#
#
# Mechanical properties :
#
#
# Convention : Reuss Voigt Hill
#
# Bulk Modulus (GPa) = 20.52548 48.48922 34.50735
# Shear Modulus (GPa) = 18.24174 29.41180 23.82677
#
# Velocity S-wave (km/s) = 2.87592 3.65177 3.28682
# Velocity P-wave (km/s) = 4.50935 6.30602 5.48179
#
# Compressibility (1/GPa) = 0.04871992
#
# Stress axis : x y z
#
# Youngs Moduli (GPa) = 22.13426 97.77353 90.68610
#
# Poissons Ratio (x) = 0.63909 0.01308
# Poissons Ratio (y) = 0.14468 0.19735
# Poissons Ratio (z) = 0.00319 0.21278
#
# Static dielectric constant tensor:
#      x y z
#    x 1.866190 0.000000 0.019560 
#    y 0.000000 1.830000 0.000000 
#    z 0.019560 0.000000 1.867860 
# 
# From -- ./inp_files/239155.got.cif
#   From: 2010.05.17/outbox.cif.g08.bks.cpg/sg15_120_cif.got.tgz:239155.got - 2010.06.03 18:47:42.
