data_PCOD9284392
_publ_section_title
;
Structure prediction by ZEFSAII (Michael W. Deem and Ramdas Pophale) SiO2 
 PCOD9284392
Probable space group: C 2/C
;
_chemical_formula_sum "Si O2"
_cell_formula_units_Z 56
_cell_length_a 20.152107
_cell_length_b 16.597620
_cell_length_c 14.239653
_cell_angle_alpha 90.000000
_cell_angle_beta 147.866808
_cell_angle_gamma 90.000000
_cell_volume 2533.301531
_symmetry_space_group_name_H-M "C 2/C"
_symmetry_group_IT_number 15
_symmetry_cell_setting 'monoclinic'
loop_
_space_group_symop_operation_xyz
x,y,z
-x,y,1/2-z
-x,-y,-z
x,-y,1/2+z
1/2+x,1/2+y,z
1/2-x,1/2+y,1/2-z
1/2-x,1/2-y,-z
1/2+x,1/2-y,1/2+z
loop_
_atom_site_type_symbol
_atom_site_label
_atom_site_fract_x
_atom_site_fract_y
_atom_site_fract_z
Si Si1 0.814097 0.655714 0.982732
Si Si2 0.075824 0.165167 0.198324
Si Si3 0.321342 0.628933 0.986427
Si Si4 0.629444 0.535763 0.019235
Si Si5 0.359786 0.482078 0.263763
Si Si6 0.324484 0.823468 0.707645
Si Si7 0.420654 0.177791 0.907510
O O1 0.748825 0.569199 0.910021
O O2 0.720995 0.730929 0.850600
O O3 0.889642 0.657705 0.977221
O O4 0.868746 0.666378 0.152154
O O5 0.150347 0.178275 0.384678
O O6 0.099456 0.229373 0.146070
O O7 0.120504 0.076450 0.226236
O O8 0.928083 0.163054 0.044317
O O9 0.358372 0.534384 0.044528
O O10 0.179889 0.634439 0.780425
O O11 0.666191 0.483235 0.155490
O O12 0.713263 0.612655 0.095299
O O13 0.487416 0.557782 0.876581
O O14 0.430774 0.837544 0.913721
#
# Coordination Sequence:
#
# PCOD9284392 Si02
#       7
#     8   8   8   8   8   8   8
#     4  11  24  43  60  94 128 173 219 266 321 386
#     4  10  22  39  68  96 122 166 215 272 322 378
#     4  10  21  41  65  95 127 160 216 273 324 382
#     4  10  21  41  67  98 125 167 222 272 327 376
#     4  10  21  40  70  94 123 167 223 279 314 370
#     4  11  26  39  64  91 132 175 214 263 329 395
#     4  12  23  41  63  93 136 168 206 264 332 404
#
# _framework density 22.105540000000001
#
# number of rings (size 3 to 8) (size 9 to 14) (size 15 to 20)
#    0.000    1.429    1.429    3.429    6.000    2.286 
#    0.000    0.000    0.000    0.000    0.000    0.000 
#    0.000    0.000    0.000    0.000    0.000    0.000 
#
# Total GULP energy -156055.168313 kJ/mol
# GULP energy per Si atom -5573.398868 kJ/mol
# Density = 2.205523 g / cm^3
# Si number density = 22.105540 Si / 1000 Ang^3
#
#
#
# Elastic Constant Matrix: (Units=GPa)
#
#
# Indices 1 2 3 4 5 6 
#
# 1 52.0286 30.0782 13.9806 0.0000 1.5595 0.0000
# 2 30.0782 83.6851 22.1133 0.0000 14.3121 0.0000
# 3 13.9806 22.1133 93.5842 0.0000 -10.1793 0.0000
# 4 0.0000 0.0000 0.0000 15.7668 0.0000 4.8942
# 5 1.5595 14.3121 -10.1793 0.0000 13.4131 0.0000
# 6 0.0000 0.0000 0.0000 4.8942 0.0000 31.5781
#
#
#
# Elastic Compliance Matrix: (Units=1/GPa)
#
#
# Indices 1 2 3 4 5 6 
#
# 1 0.024990 -0.010126 -0.000525 0.000000 0.007501 0.000000
# 2 -0.010126 0.022041 -0.006676 0.000000 -0.027407 0.000000
# 3 -0.000525 -0.006676 0.014304 0.000000 0.018040 0.000000
# 4 0.000000 0.000000 0.000000 0.066630 0.000000 -0.010327
# 5 0.007501 -0.027407 0.018040 0.000000 0.116617 0.000000
# 6 0.000000 0.000000 0.000000 -0.010327 0.000000 0.033268
#
#
# Mechanical properties :
#
#
# Convention : Reuss Voigt Hill
#
# Bulk Modulus (GPa) = 37.48110 40.18247 38.83179
# Shear Modulus (GPa) = 15.55699 23.02664 19.29182
#
# Velocity S-wave (km/s) = 2.65573 3.23099 2.95738
# Velocity P-wave (km/s) = 5.13772 5.66887 5.40982
#
# Compressibility (1/GPa) = 0.02668011
#
# Stress axis : x y z
#
# Youngs Moduli (GPa) = 40.01523 45.37061 69.91145
#
# Poissons Ratio (x) = 0.45944 0.03668
# Poissons Ratio (y) = 0.40521 0.46676
# Poissons Ratio (z) = 0.02099 0.30291
#
# Static dielectric constant tensor:
#      x y z
#    x 1.898330 0.000000 -0.041080 
#    y 0.000000 1.781800 0.000000 
#    z -0.041080 0.000000 1.877010 
# 
# From -- ./inp_files/169173.got.cif
#   From: 2010.05.17/outbox.cif.g08.bks.cpg/sg15_85_cif.got.tgz:169173.got - 2010.06.03 18:47:42.
