data_PCOD9284159
_publ_section_title
;
Structure prediction by ZEFSAII (Michael W. Deem and Ramdas Pophale) SiO2 
 PCOD9284159
Probable space group: C 2/C
;
_chemical_formula_sum "Si O2"
_cell_formula_units_Z 56
_cell_length_a 20.447133
_cell_length_b 9.228754
_cell_length_c 16.963667
_cell_angle_alpha 90.000000
_cell_angle_beta 56.435203
_cell_angle_gamma 90.000000
_cell_volume 2667.327445
_symmetry_space_group_name_H-M "C 2/C"
_symmetry_group_IT_number 15
_symmetry_cell_setting 'monoclinic'
loop_
_space_group_symop_operation_xyz
x,y,z
-x,y,1/2-z
-x,-y,-z
x,-y,1/2+z
1/2+x,1/2+y,z
1/2-x,1/2+y,1/2-z
1/2-x,1/2-y,-z
1/2+x,1/2-y,1/2+z
loop_
_atom_site_type_symbol
_atom_site_label
_atom_site_fract_x
_atom_site_fract_y
_atom_site_fract_z
Si Si1 0.729775 0.218392 0.136320
Si Si2 0.752947 0.722641 0.803846
Si Si3 0.944822 0.208032 0.351020
Si Si4 0.970192 0.543753 0.934366
Si Si5 0.218309 0.473336 0.947043
Si Si6 0.683440 0.460724 0.476452
Si Si7 0.608282 0.028581 0.728763
O O1 0.734407 0.240396 0.226930
O O2 0.738063 0.373617 0.091194
O O3 0.803965 0.124878 0.056869
O O4 0.654723 0.115200 0.169933
O O5 0.687211 0.629311 0.893327
O O6 0.830111 0.620522 0.758307
O O7 0.753242 0.867413 0.856858
O O8 0.979912 0.286291 0.404770
O O9 0.886395 0.090430 0.423008
O O10 0.914044 0.349489 0.321714
O O11 0.000000 0.136052 0.250000
O O12 0.031144 0.479070 0.828941
O O13 0.876102 0.513862 0.995994
O O14 0.000000 0.500000 0.000000
O O15 0.242532 0.416716 0.017291
#
# Coordination Sequence:
#
# PCOD9284159 Si02
#       7
#     8   8   8   8   8   8   8
#     4  11  24  36  59  99 131 159 209 275 326 379
#     4  11  20  38  62  89 125 165 212 264 318 382
#     4  10  21  40  67  92 122 170 223 264 308 400
#     4  11  21  36  62  92 123 167 214 264 324 375
#     4  12  22  39  65  94 127 169 220 268 316 388
#     4  11  22  41  66  93 124 173 219 259 321 385
#     4  10  22  40  62  90 124 168 217 256 321 388
#
# _framework density 20.994796999999998
#
# number of rings (size 3 to 8) (size 9 to 14) (size 15 to 20)
#    0.000    1.143    2.857    6.000    0.000    0.000 
#    0.000    1.429    0.000    4.286    0.000    0.000 
#    0.000    0.000    0.000    0.000    0.000    0.000 
#
# Total GULP energy -156067.536642 kJ/mol
# GULP energy per Si atom -5573.840594 kJ/mol
# Density = 2.094701 g / cm^3
# Si number density = 20.994797 Si / 1000 Ang^3
#
#
#
# Elastic Constant Matrix: (Units=GPa)
#
#
# Indices 1 2 3 4 5 6 
#
# 1 36.8067 -9.7323 33.7088 0.0000 -2.8610 0.0000
# 2 -9.7323 93.6134 31.9677 -0.0001 -8.0290 0.0002
# 3 33.7088 31.9677 142.4333 0.0000 -3.8903 0.0000
# 4 0.0000 -0.0001 0.0000 28.4488 0.0000 2.7947
# 5 -2.8610 -8.0290 -3.8903 0.0000 45.1161 0.0000
# 6 0.0000 0.0002 0.0000 2.7947 0.0000 16.8758
#
#
#
# Elastic Compliance Matrix: (Units=1/GPa)
#
#
# Indices 1 2 3 4 5 6 
#
# 1 0.039823 0.008220 -0.011187 0.000000 0.003023 0.000000
# 2 0.008220 0.013420 -0.004889 0.000000 0.002488 0.000000
# 3 -0.011187 -0.004889 0.010748 0.000000 -0.000653 0.000000
# 4 0.000000 0.000000 0.000000 0.035732 0.000000 -0.005917
# 5 0.003023 0.002488 -0.000653 0.000000 0.022743 0.000000
# 6 0.000000 0.000000 0.000000 -0.005917 0.000000 0.060237
#
#
# Mechanical properties :
#
#
# Convention : Reuss Voigt Hill
#
# Bulk Modulus (GPa) = 20.71373 42.74908 31.73141
# Shear Modulus (GPa) = 23.30922 32.54874 27.92898
#
# Velocity S-wave (km/s) = 3.33564 3.94169 3.65126
# Velocity P-wave (km/s) = 4.97221 6.41263 5.73780
#
# Compressibility (1/GPa) = 0.04827715
#
# Stress axis : x y z
#
# Youngs Moduli (GPa) = 25.11141 74.51710 93.04191
#
# Poissons Ratio (x) = -0.61249 1.04084
# Poissons Ratio (y) = -0.20640 0.45490
# Poissons Ratio (z) = 0.28092 0.36433
#
# Static dielectric constant tensor:
#      x y z
#    x 1.835370 0.000000 -0.030340 
#    y 0.000000 1.755310 0.000000 
#    z -0.030340 0.000000 1.840460 
# 
# From -- ./inp_files/218513.got.cif
#   From: 2010.05.17/outbox.cif.g08.bks.cpg/sg15_110_cif.got.tgz:218513.got - 2010.06.03 18:47:42.
