data_PCOD9284893
_publ_section_title
;
Structure prediction by ZEFSAII (Michael W. Deem and Ramdas Pophale) SiO2 
 PCOD9284893
Probable space group: C 2/C
;
_chemical_formula_sum "Si O2"
_cell_formula_units_Z 48
_cell_length_a 12.644532
_cell_length_b 30.664088
_cell_length_c 7.434517
_cell_angle_alpha 90.000000
_cell_angle_beta 47.718631
_cell_angle_gamma 90.000000
_cell_volume 2132.697163
_symmetry_space_group_name_H-M "C 2/C"
_symmetry_group_IT_number 15
_symmetry_cell_setting 'monoclinic'
loop_
_space_group_symop_operation_xyz
x,y,z
-x,y,1/2-z
-x,-y,-z
x,-y,1/2+z
1/2+x,1/2+y,z
1/2-x,1/2+y,1/2-z
1/2-x,1/2-y,-z
1/2+x,1/2-y,1/2+z
loop_
_atom_site_type_symbol
_atom_site_label
_atom_site_fract_x
_atom_site_fract_y
_atom_site_fract_z
Si Si1 0.137601 0.785906 0.463417
Si Si2 0.305355 0.192697 0.111987
Si Si3 0.972602 0.448827 0.569148
Si Si4 0.845960 0.059024 0.222266
Si Si5 0.500000 0.505004 0.750000
Si Si6 0.530786 0.644473 0.519560
Si Si7 0.500000 0.882998 0.250000
O O1 0.269907 0.794736 0.444192
O O2 0.143617 0.738638 0.364733
O O3 0.107259 0.828591 0.382283
O O4 0.000000 0.783876 0.750000
O O5 0.160974 0.178696 0.376038
O O6 0.405138 0.150734 0.975942
O O7 0.808577 0.440188 0.693354
O O8 0.060601 0.416645 0.332942
O O9 0.000000 0.440332 0.750000
O O10 0.000000 0.500000 0.500000
O O11 0.864355 0.026736 0.369197
O O12 0.907728 0.107181 0.180698
O O13 0.957085 0.036243 0.960126
O O14 0.500000 0.625763 0.750000
#
# Coordination Sequence:
#
# PCOD9284893 Si02
#       7
#     8   8   8   8   4   8   4
#     4   9  20  39  67  92 121 171 213 267 329 397
#     4  10  21  41  65  93 128 167 220 264 329 404
#     4  12  26  45  67  97 136 183 226 278 339 401
#     4  11  23  43  63  97 128 171 223 273 337 398
#     4  10  24  40  67  90 130 171 216 282 332 394
#     4  11  23  39  63  95 132 165 217 276 330 399
#     4  12  24  42  67  98 130 177 226 274 330 402
#
# _framework density 22.506710000000002
#
# number of rings (size 3 to 8) (size 9 to 14) (size 15 to 20)
#    0.000    1.333    4.167    1.000    3.500    2.000 
#    3.000    0.833    0.000    0.000    0.000    0.000 
#    0.000    0.000    0.000    0.000    0.000    0.000 
#
# Total GULP energy -133771.236591 kJ/mol
# GULP energy per Si atom -5573.801525 kJ/mol
# Density = 2.245548 g / cm^3
# Si number density = 22.506710 Si / 1000 Ang^3
#
#
#
# Elastic Constant Matrix: (Units=GPa)
#
#
# Indices 1 2 3 4 5 6 
#
# 1 83.6026 37.6383 3.7015 0.0000 1.5147 0.0000
# 2 37.6383 156.7323 -2.3278 0.0000 1.8680 0.0000
# 3 3.7015 -2.3278 15.9983 0.0000 7.2518 0.0000
# 4 0.0000 0.0000 0.0000 28.4666 0.0000 -4.9590
# 5 1.5147 1.8680 7.2518 0.0000 24.7416 0.0000
# 6 0.0000 0.0000 0.0000 -4.9590 0.0000 28.5927
#
#
#
# Elastic Compliance Matrix: (Units=1/GPa)
#
#
# Indices 1 2 3 4 5 6 
#
# 1 0.013626 -0.003337 -0.003891 0.000000 0.000558 0.000000
# 2 -0.003337 0.007227 0.002281 0.000000 -0.001010 0.000000
# 3 -0.003891 0.002281 0.073470 0.000000 -0.021468 0.000000
# 4 0.000000 0.000000 0.000000 0.036223 0.000000 0.006282
# 5 0.000558 -0.001010 -0.021468 0.000000 0.046752 0.000000
# 6 0.000000 0.000000 0.000000 0.006282 0.000000 0.036064
#
#
# Mechanical properties :
#
#
# Convention : Reuss Voigt Hill
#
# Bulk Modulus (GPa) = 11.84404 37.15082 24.49743
# Shear Modulus (GPa) = 19.88880 30.84826 25.36853
#
# Velocity S-wave (km/s) = 2.97591 3.70621 3.36095
# Velocity P-wave (km/s) = 4.13302 5.90399 5.09603
#
# Compressibility (1/GPa) = 0.08443062
#
# Stress axis : x y z
#
# Youngs Moduli (GPa) = 73.39098 138.36075 13.61103
#
# Poissons Ratio (x) = 0.46165 0.05296
# Poissons Ratio (y) = 0.24487 -0.03105
# Poissons Ratio (z) = 0.28557 -0.31566
#
# Static dielectric constant tensor:
#      x y z
#    x 1.952920 0.000000 0.018880 
#    y 0.000000 1.894550 0.000000 
#    z 0.018880 0.000000 1.862940 
# 
# From -- ./inp_files/43861.got.cif
#   From: 2010.05.17/outbox.cif.g08.bks.cpg/sg15_22_cif.got.tgz:43861.got - 2010.06.03 18:47:42.
