data_PCOD9284382
_publ_section_title
;
Structure prediction by ZEFSAII (Michael W. Deem and Ramdas Pophale) SiO2 
 PCOD9284382
Probable space group: C 2/C
;
_chemical_formula_sum "Si O2"
_cell_formula_units_Z 64
_cell_length_a 25.765452
_cell_length_b 11.531232
_cell_length_c 10.139320
_cell_angle_alpha 90.000000
_cell_angle_beta 88.978824
_cell_angle_gamma 90.000000
_cell_volume 3011.988599
_symmetry_space_group_name_H-M "C 2/C"
_symmetry_group_IT_number 15
_symmetry_cell_setting 'monoclinic'
loop_
_space_group_symop_operation_xyz
x,y,z
-x,y,1/2-z
-x,-y,-z
x,-y,1/2+z
1/2+x,1/2+y,z
1/2-x,1/2+y,1/2-z
1/2-x,1/2-y,-z
1/2+x,1/2-y,1/2+z
loop_
_atom_site_type_symbol
_atom_site_label
_atom_site_fract_x
_atom_site_fract_y
_atom_site_fract_z
Si Si1 0.201348 0.258351 0.833007
Si Si2 0.459533 0.081082 0.079890
Si Si3 0.910148 0.236637 0.408543
Si Si4 0.397637 0.606905 0.664162
Si Si5 0.946062 0.745699 0.403224
Si Si6 0.192082 0.332348 0.126678
Si Si7 0.873380 0.436779 0.808380
Si Si8 0.452337 0.620362 0.176316
O O1 0.161060 0.151555 0.845683
O O2 0.257046 0.204669 0.795284
O O3 0.169662 0.346784 0.743836
O O4 0.207332 0.327559 0.971199
O O5 0.498911 0.183371 0.119059
O O6 0.420813 0.141879 0.979005
O O7 0.500000 0.000000 0.000000
O O8 0.421090 0.041092 0.200093
O O9 0.921146 0.141116 0.519789
O O10 0.851398 0.233014 0.363153
O O11 0.944167 0.224340 0.278953
O O12 0.424577 0.678386 0.781965
O O13 0.406254 0.472169 0.684692
O O14 0.904066 0.638948 0.418821
O O15 0.953731 0.826518 0.531070
O O16 0.161439 0.449774 0.163621
O O17 0.500000 0.556558 0.250000
#
# Coordination Sequence:
#
# PCOD9284382 Si02
#       8
#     8   8   8   8   8   8   8   8
#     4   9  21  43  65  97 131 172 223 285 335 399
#     4  12  24  40  64  94 132 176 218 271 333 395
#     4  11  23  42  59  96 129 169 228 276 326 402
#     4  10  23  43  65  89 130 183 223 266 337 398
#     4  11  24  42  63  95 139 173 221 284 327 405
#     4  10  21  40  70  91 130 175 219 277 344 395
#     4  11  23  41  69  98 131 178 222 273 341 409
#     4  12  26  37  63  95 133 177 224 271 331 402
#
# _framework density 21.248421
#
# number of rings (size 3 to 8) (size 9 to 14) (size 15 to 20)
#    0.000    1.250    5.000    1.875    3.500    2.000 
#    0.000    3.750    0.000    4.500    0.000    0.000 
#    0.000    0.000    0.000    0.000    0.000    0.000 
#
# Total GULP energy -178233.218961 kJ/mol
# GULP energy per Si atom -5569.788093 kJ/mol
# Density = 2.120006 g / cm^3
# Si number density = 21.248421 Si / 1000 Ang^3
#
#
#
# Elastic Constant Matrix: (Units=GPa)
#
#
# Indices 1 2 3 4 5 6 
#
# 1 126.0627 33.8861 57.0439 0.0000 13.7531 0.0000
# 2 33.8861 79.5505 42.7382 0.0000 -8.9271 0.0000
# 3 57.0439 42.7382 87.4595 0.0000 11.7487 0.0000
# 4 0.0000 0.0000 0.0000 16.3039 0.0000 -8.0759
# 5 13.7531 -8.9271 11.7487 0.0000 27.9514 0.0000
# 6 0.0000 0.0000 0.0000 -8.0759 0.0000 34.9535
#
#
#
# Elastic Compliance Matrix: (Units=1/GPa)
#
#
# Indices 1 2 3 4 5 6 
#
# 1 0.011668 -0.002171 -0.006025 0.000000 -0.003902 0.000000
# 2 -0.002171 0.020203 -0.010033 0.000000 0.011738 0.000000
# 3 -0.006025 -0.010033 0.021514 0.000000 -0.009282 0.000000
# 4 0.000000 0.000000 0.000000 0.069262 0.000000 0.016003
# 5 -0.003902 0.011738 -0.009282 0.000000 0.045347 0.000000
# 6 0.000000 0.000000 0.000000 0.016003 0.000000 0.032307
#
#
# Mechanical properties :
#
#
# Convention : Reuss Voigt Hill
#
# Bulk Modulus (GPa) = 59.08207 62.26768 60.67487
# Shear Modulus (GPa) = 20.62695 26.46872 23.54783
#
# Velocity S-wave (km/s) = 3.11907 3.53325 3.33260
# Velocity P-wave (km/s) = 6.39040 6.78331 6.58979
#
# Compressibility (1/GPa) = 0.01692561
#
# Stress axis : x y z
#
# Youngs Moduli (GPa) = 85.70167 49.49773 46.48232
#
# Poissons Ratio (x) = 0.10747 0.28007
# Poissons Ratio (y) = 0.18607 0.46636
# Poissons Ratio (z) = 0.51638 0.49662
#
# Static dielectric constant tensor:
#      x y z
#    x 1.826870 0.000000 -0.016410 
#    y 0.000000 1.837050 0.000000 
#    z -0.016410 0.000000 1.905370 
# 
# From -- ./inp_files/122464.got.cif
#   From: 2010.05.17/outbox.cif.g08.bks.cpg/sg15_62_cif.got.tgz:122464.got - 2010.06.03 18:47:42.
