data_PCOD9284871
_publ_section_title
;
Structure prediction by ZEFSAII (Michael W. Deem and Ramdas Pophale) SiO2 
 PCOD9284871
Probable space group: C 2/C
;
_chemical_formula_sum "Si O2"
_cell_formula_units_Z 24
_cell_length_a 13.899228
_cell_length_b 15.246887
_cell_length_c 5.208089
_cell_angle_alpha 90.000000
_cell_angle_beta 83.243425
_cell_angle_gamma 90.000000
_cell_volume 1096.032782
_symmetry_space_group_name_H-M "C 2/C"
_symmetry_group_IT_number 15
_symmetry_cell_setting 'monoclinic'
loop_
_space_group_symop_operation_xyz
x,y,z
-x,y,1/2-z
-x,-y,-z
x,-y,1/2+z
1/2+x,1/2+y,z
1/2-x,1/2+y,1/2-z
1/2-x,1/2-y,-z
1/2+x,1/2-y,1/2+z
loop_
_atom_site_type_symbol
_atom_site_label
_atom_site_fract_x
_atom_site_fract_y
_atom_site_fract_z
Si Si1 0.769414 0.191975 0.242673
Si Si2 0.894567 0.445672 0.822794
Si Si3 0.390953 0.461779 0.583578
O O1 0.750000 0.250000 0.500000
O O2 0.689703 0.116518 0.243951
O O3 0.870765 0.136874 0.187095
O O4 0.750000 0.250000 0.000000
O O5 0.890796 0.526272 0.621381
O O6 0.000000 0.403102 0.750000
O O7 0.500000 0.500000 0.500000
O O8 0.346449 0.475423 0.315894
#
# Coordination Sequence:
#
# PCOD9284871 Si02
#       3
#     8   8   8
#     4  12  24  40  62  99 136 164 213 286 338 376
#     4  10  21  41  67  87 119 172 221 255 316 404
#     4  10  21  41  65  90 124 180 224 255 320 414
#
# _framework density 21.897157
#
# number of rings (size 3 to 8) (size 9 to 14) (size 15 to 20)
#    0.000    1.333    0.000    6.000    0.000    0.000 
#   18.000    0.000    0.000    0.000    0.000    0.000 
#    0.000    0.000    0.000    0.000    0.000    0.000 
#
# Total GULP energy -66880.842139 kJ/mol
# GULP energy per Si atom -5573.403512 kJ/mol
# Density = 2.184732 g / cm^3
# Si number density = 21.897157 Si / 1000 Ang^3
#
#
#
# Elastic Constant Matrix: (Units=GPa)
#
#
# Indices 1 2 3 4 5 6 
#
# 1 113.1531 30.2324 1.2123 0.0000 -11.5194 0.0000
# 2 30.2324 88.4496 42.1319 0.0000 -17.3010 0.0000
# 3 1.2123 42.1319 186.4614 0.0000 3.5508 0.0000
# 4 0.0000 0.0000 0.0000 47.4558 0.0000 1.3735
# 5 -11.5194 -17.3010 3.5508 0.0000 17.3532 0.0000
# 6 0.0000 0.0000 0.0000 1.3735 0.0000 36.0964
#
#
#
# Elastic Compliance Matrix: (Units=1/GPa)
#
#
# Indices 1 2 3 4 5 6 
#
# 1 0.009989 -0.002976 0.000540 0.000000 0.003553 0.000000
# 2 -0.002976 0.017562 -0.004261 0.000000 0.016405 0.000000
# 3 0.000540 -0.004261 0.006421 0.000000 -0.005204 0.000000
# 4 0.000000 0.000000 0.000000 0.021095 0.000000 -0.000803
# 5 0.003553 0.016405 -0.005204 0.000000 0.077405 0.000000
# 6 0.000000 0.000000 0.000000 -0.000803 0.000000 0.027734
#
#
# Mechanical properties :
#
#
# Convention : Reuss Voigt Hill
#
# Bulk Modulus (GPa) = 48.59890 59.46857 54.03374
# Shear Modulus (GPa) = 27.70678 41.14692 34.42685
#
# Velocity S-wave (km/s) = 3.56098 4.33956 3.96941
# Velocity P-wave (km/s) = 6.25698 7.23368 6.76299
#
# Compressibility (1/GPa) = 0.02057660
#
# Stress axis : x y z
#
# Youngs Moduli (GPa) = 100.11285 56.94135 155.72732
#
# Poissons Ratio (x) = 0.16948 -0.08409
# Poissons Ratio (y) = 0.29798 0.66359
# Poissons Ratio (z) = -0.05406 0.24264
#
# Static dielectric constant tensor:
#      x y z
#    x 2.386430 0.000000 0.233650 
#    y 0.000000 1.410230 0.000000 
#    z 0.233650 0.000000 1.938480 
# 
# From -- ./inp_files/6124.got.cif
#   From: 2010.05.17/outbox.cif.g08.bks.cpg/sg15_4_cif.got.tgz:6124.got - 2010.06.03 18:47:42.
