data_PCOD9284925
_publ_section_title
;
Structure prediction by ZEFSAII (Michael W. Deem and Ramdas Pophale) SiO2 
 PCOD9284925
Probable space group: C 2/C
;
_chemical_formula_sum "Si O2"
_cell_formula_units_Z 48
_cell_length_a 7.653965
_cell_length_b 28.956241
_cell_length_c 8.716262
_cell_angle_alpha 90.000000
_cell_angle_beta 98.720796
_cell_angle_gamma 90.000000
_cell_volume 1909.452100
_symmetry_space_group_name_H-M "C 2/C"
_symmetry_group_IT_number 15
_symmetry_cell_setting 'monoclinic'
loop_
_space_group_symop_operation_xyz
x,y,z
-x,y,1/2-z
-x,-y,-z
x,-y,1/2+z
1/2+x,1/2+y,z
1/2-x,1/2+y,1/2-z
1/2-x,1/2-y,-z
1/2+x,1/2-y,1/2+z
loop_
_atom_site_type_symbol
_atom_site_label
_atom_site_fract_x
_atom_site_fract_y
_atom_site_fract_z
Si Si1 0.158511 0.611659 0.517415
Si Si2 0.298517 0.222704 0.666955
Si Si3 0.206885 0.311809 0.812502
Si Si4 0.814040 0.937650 0.311663
Si Si5 0.125593 0.032132 0.126871
Si Si6 0.746458 0.365561 0.974899
O O1 0.239936 0.661095 0.474884
O O2 0.191993 0.594503 0.692307
O O3 0.254529 0.572674 0.426107
O O4 0.948545 0.617790 0.475260
O O5 0.500000 0.215404 0.750000
O O6 0.250000 0.250000 0.500000
O O7 0.235695 0.257534 0.792371
O O8 0.228748 0.172785 0.607178
O O9 0.304482 0.339840 0.689044
O O10 0.000000 0.317249 0.750000
O O11 0.845982 0.911139 0.474914
O O12 0.000000 0.938243 0.250000
O O13 0.745432 0.989826 0.304708
O O14 0.000000 0.046122 0.250000
O O15 0.000000 0.000000 0.000000
#
# Coordination Sequence:
#
# PCOD9284925 Si02
#       6
#     8   8   8   8   8   8
#     4  11  22  41  66  93 132 177 220 285 342 415
#     4  10  21  41  65  95 136 178 230 296 353 427
#     4   9  22  41  65  97 132 175 235 287 355 426
#     4  11  23  39  61  94 129 175 225 280 344 410
#     4  11  23  42  63  96 139 173 228 283 342 419
#     4  10  23  43  64  92 135 176 226 287 351 420
#
# _framework density 25.138097999999999
#
# number of rings (size 3 to 8) (size 9 to 14) (size 15 to 20)
#    0.000    1.667    3.333    1.500    2.333    4.667 
#    0.000   15.000    0.000    0.000    0.000    0.000 
#    0.000    0.000    0.000    0.000    0.000    0.000 
#
# Total GULP energy -133891.091043 kJ/mol
# GULP energy per Si atom -5578.795460 kJ/mol
# Density = 2.508088 g / cm^3
# Si number density = 25.138098 Si / 1000 Ang^3
#
#
#
# Elastic Constant Matrix: (Units=GPa)
#
#
# Indices 1 2 3 4 5 6 
#
# 1 50.0201 31.8424 15.5176 0.0000 -6.1328 0.0000
# 2 31.8424 168.5309 43.0974 0.0000 -28.4932 0.0000
# 3 15.5176 43.0974 84.1234 0.0000 -8.8275 0.0000
# 4 0.0000 0.0000 0.0000 51.1075 0.0000 -7.0222
# 5 -6.1328 -28.4932 -8.8275 0.0000 40.8365 0.0000
# 6 0.0000 0.0000 0.0000 -7.0222 0.0000 28.9049
#
#
#
# Elastic Compliance Matrix: (Units=1/GPa)
#
#
# Indices 1 2 3 4 5 6 
#
# 1 0.023121 -0.003710 -0.002324 0.000000 0.000381 0.000000
# 2 -0.003710 0.008168 -0.003029 0.000000 0.004487 0.000000
# 3 -0.002324 -0.003029 0.013925 0.000000 0.000547 0.000000
# 4 0.000000 0.000000 0.000000 0.020242 0.000000 0.004918
# 5 0.000381 0.004487 0.000547 0.000000 0.027794 0.000000
# 6 0.000000 0.000000 0.000000 0.004918 0.000000 0.035791
#
#
# Mechanical properties :
#
#
# Convention : Reuss Voigt Hill
#
# Bulk Modulus (GPa) = 36.91706 53.73213 45.32460
# Shear Modulus (GPa) = 32.01056 38.31758 35.16407
#
# Velocity S-wave (km/s) = 3.57233 3.90844 3.74416
# Velocity P-wave (km/s) = 5.63320 6.46445 6.06309
#
# Compressibility (1/GPa) = 0.02708775
#
# Stress axis : x y z
#
# Youngs Moduli (GPa) = 43.25001 122.43168 71.81076
#
# Poissons Ratio (x) = 0.45418 0.16692
# Poissons Ratio (y) = 0.16044 0.21754
# Poissons Ratio (z) = 0.10053 0.37089
#
# Static dielectric constant tensor:
#      x y z
#    x 2.036710 0.000000 0.057740 
#    y 0.000000 2.224110 0.000000 
#    z 0.057740 0.000000 2.181920 
# 
# From -- ./inp_files/26067.got.cif
#   From: 2010.05.17/outbox.cif.g08.bks.cpg/sg15_14_cif.got.tgz:26067.got - 2010.06.03 18:47:42.
