data_PCOD9284656
_publ_section_title
;
Structure prediction by ZEFSAII (Michael W. Deem and Ramdas Pophale) SiO2 
 PCOD9284656
Probable space group: C 2/C
;
_chemical_formula_sum "Si O2"
_cell_formula_units_Z 64
_cell_length_a 31.162532
_cell_length_b 17.599937
_cell_length_c 9.056256
_cell_angle_alpha 90.000000
_cell_angle_beta 42.164542
_cell_angle_gamma 90.000000
_cell_volume 3334.145963
_symmetry_space_group_name_H-M "C 2/C"
_symmetry_group_IT_number 15
_symmetry_cell_setting 'monoclinic'
loop_
_space_group_symop_operation_xyz
x,y,z
-x,y,1/2-z
-x,-y,-z
x,-y,1/2+z
1/2+x,1/2+y,z
1/2-x,1/2+y,1/2-z
1/2-x,1/2-y,-z
1/2+x,1/2-y,1/2+z
loop_
_atom_site_type_symbol
_atom_site_label
_atom_site_fract_x
_atom_site_fract_y
_atom_site_fract_z
Si Si1 0.076391 0.800552 0.786607
Si Si2 0.570705 0.188250 0.037467
Si Si3 0.572411 0.797707 0.032834
Si Si4 0.318278 0.918487 0.126732
Si Si5 0.066562 0.807818 0.283644
Si Si6 0.684511 0.915216 0.723252
Si Si7 0.185942 0.085849 0.109143
Si Si8 0.817578 0.079541 0.026120
O O1 0.082355 0.779915 0.599920
O O2 0.131187 0.855424 0.703430
O O3 0.079253 0.714734 0.847777
O O4 0.005740 0.833444 0.999374
O O5 0.500000 0.157020 0.250000
O O6 0.572324 0.272058 0.107240
O O7 0.624250 0.134017 0.964093
O O8 0.500000 0.824999 0.250000
O O9 0.575813 0.767489 0.857960
O O10 0.627359 0.859147 0.912875
O O11 0.252958 0.888024 0.366931
O O12 0.326618 0.002675 0.173514
O O13 0.313205 0.921371 0.961478
O O14 0.121054 0.869302 0.165804
O O15 0.753012 0.889067 0.613894
O O16 0.190705 0.077049 0.274603
O O17 0.173123 0.004165 0.066110
#
# Coordination Sequence:
#
# PCOD9284656 Si02
#       8
#     8   8   8   8   8   8   8   8
#     4  10  23  39  65  88 123 155 198 246 296 358
#     4  10  21  41  63  88 119 156 194 245 298 353
#     4  10  23  41  63  91 121 154 199 246 296 353
#     4  11  24  41  62  87 122 158 201 244 298 353
#     4  10  21  43  61  89 121 157 195 247 300 350
#     4  11  24  42  61  88 121 159 199 247 296 352
#     4  11  24  41  60  91 118 160 201 244 298 353
#     4  11  24  40  63  86 123 157 201 247 296 354
#
# _framework density 19.195319999999999
#
# number of rings (size 3 to 8) (size 9 to 14) (size 15 to 20)
#    0.000    1.500    2.500    3.000    7.000    3.000 
#    0.000    1.250    0.000    0.000    0.000    0.000 
#    0.000    0.000    0.000    0.000    0.000    0.000 
#
# Total GULP energy -178526.692658 kJ/mol
# GULP energy per Si atom -5578.959146 kJ/mol
# Density = 1.915163 g / cm^3
# Si number density = 19.195320 Si / 1000 Ang^3
#
#
#
# Elastic Constant Matrix: (Units=GPa)
#
#
# Indices 1 2 3 4 5 6 
#
# 1 131.6350 57.3594 74.7880 0.0000 -32.6720 0.0000
# 2 57.3594 56.4795 65.4242 0.0000 -32.8852 0.0000
# 3 74.7880 65.4242 136.9875 0.0000 -28.5325 0.0000
# 4 0.0000 0.0000 0.0000 33.6863 0.0000 -18.6039
# 5 -32.6720 -32.8852 -28.5325 0.0000 44.2531 0.0000
# 6 0.0000 0.0000 0.0000 -18.6039 0.0000 63.7342
#
#
#
# Elastic Compliance Matrix: (Units=1/GPa)
#
#
# Indices 1 2 3 4 5 6 
#
# 1 0.013845 -0.011615 -0.001941 0.000000 0.000339 0.000000
# 2 -0.011615 0.074043 -0.022348 0.000000 0.032038 0.000000
# 3 -0.001941 -0.022348 0.017645 0.000000 -0.006663 0.000000
# 4 0.000000 0.000000 0.000000 0.035391 0.000000 0.010331
# 5 0.000339 0.032038 -0.006663 0.000000 0.042359 0.000000
# 6 0.000000 0.000000 0.000000 0.010331 0.000000 0.018706
#
#
# Mechanical properties :
#
#
# Convention : Reuss Voigt Hill
#
# Bulk Modulus (GPa) = 29.65156 80.02725 54.83941
# Shear Modulus (GPa) = 17.54150 36.83673 27.18911
#
# Velocity S-wave (km/s) = 3.02626 4.38545 3.76765
# Velocity P-wave (km/s) = 5.26230 8.21123 6.89624
#
# Compressibility (1/GPa) = 0.03372504
#
# Stress axis : x y z
#
# Youngs Moduli (GPa) = 72.23005 13.50559 56.67367
#
# Poissons Ratio (x) = 0.15687 0.10998
# Poissons Ratio (y) = 0.83896 1.26656
# Poissons Ratio (z) = 0.14017 0.30183
#
# Static dielectric constant tensor:
#      x y z
#    x 1.674560 0.000000 0.002520 
#    y 0.000000 1.622490 0.000000 
#    z 0.002520 0.000000 1.669670 
# 
# From -- ./inp_files/70585.got.cif
#   From: 2010.05.17/outbox.cif.g08.bks.cpg/sg15_36_cif.got.tgz:70585.got - 2010.06.03 18:47:42.
