data_PCOD9284050
_publ_section_title
;
Structure prediction by ZEFSAII (Michael W. Deem and Ramdas Pophale) SiO2 
 PCOD9284050
Probable space group: C 2/C
;
_chemical_formula_sum "Si O2"
_cell_formula_units_Z 60
_cell_length_a 16.602708
_cell_length_b 22.207153
_cell_length_c 8.778099
_cell_angle_alpha 90.000000
_cell_angle_beta 117.391749
_cell_angle_gamma 90.000000
_cell_volume 2873.606971
_symmetry_space_group_name_H-M "C 2/C"
_symmetry_group_IT_number 15
_symmetry_cell_setting 'monoclinic'
loop_
_space_group_symop_operation_xyz
x,y,z
-x,y,1/2-z
-x,-y,-z
x,-y,1/2+z
1/2+x,1/2+y,z
1/2-x,1/2+y,1/2-z
1/2-x,1/2-y,-z
1/2+x,1/2-y,1/2+z
loop_
_atom_site_type_symbol
_atom_site_label
_atom_site_fract_x
_atom_site_fract_y
_atom_site_fract_z
Si Si1 0.504624 0.638043 0.426813
Si Si2 0.507495 0.227197 0.012187
Si Si3 0.500000 0.127159 0.750000
Si Si4 0.410448 0.551975 0.566983
Si Si5 0.638963 0.960208 0.222808
Si Si6 0.604117 0.917467 0.855134
Si Si7 0.656673 0.212898 0.397495
Si Si8 0.159860 0.060359 0.678679
O O1 0.500000 0.614215 0.250000
O O2 0.499033 0.709327 0.420983
O O3 0.429877 0.608860 0.474885
O O4 0.600024 0.617522 0.581969
O O5 0.595147 0.231130 0.198624
O O6 0.413667 0.221012 0.024054
O O7 0.517117 0.170896 0.907860
O O8 0.417358 0.082949 0.715844
O O9 0.500000 0.543947 0.750000
O O10 0.334941 0.556232 0.633403
O O11 0.392157 0.496700 0.439367
O O12 0.743223 0.941171 0.314320
O O13 0.624981 0.029609 0.254710
O O14 0.608203 0.947589 0.024232
O O15 0.500000 0.895211 0.750000
O O16 0.668297 0.859423 0.896381
O O17 0.750000 0.250000 0.500000
#
# Coordination Sequence:
#
# PCOD9284050 Si02
#       8
#     8   8   4   8   8   8   8   8
#     4  11  23  41  69  97 138 184 222 274 355 422
#     4  11  25  46  72  97 140 184 230 287 352 425
#     4  12  24  50  68 100 138 190 232 296 360 404
#     4  10  21  40  66  92 140 180 220 278 346 416
#     4  12  27  41  75  99 139 176 235 293 351 408
#     4  12  24  47  70 103 136 183 229 289 355 418
#     4  11  26  47  74 103 138 181 238 288 347 424
#     4  11  23  41  63 103 133 176 232 288 342 418
#
# _framework density 20.879681000000001
#
# number of rings (size 3 to 8) (size 9 to 14) (size 15 to 20)
#    0.000    0.800    4.000    4.000    9.333    1.067 
#    2.400    1.333    0.000    0.000    0.000    0.000 
#    0.000    0.000    0.000    0.000    0.000    0.000 
#
# Total GULP energy -167732.595682 kJ/mol
# GULP energy per Si atom -5591.086523 kJ/mol
# Density = 2.083216 g / cm^3
# Si number density = 20.879681 Si / 1000 Ang^3
#
#
#
# Elastic Constant Matrix: (Units=GPa)
#
#
# Indices 1 2 3 4 5 6 
#
# 1 133.8088 58.9995 40.0047 0.0000 -2.4065 0.0000
# 2 58.9995 151.1147 42.4383 0.0000 -6.0383 0.0000
# 3 40.0047 42.4383 100.0480 0.0000 -16.8881 0.0000
# 4 0.0000 0.0000 0.0000 36.0885 0.0000 -7.1301
# 5 -2.4065 -6.0383 -16.8881 0.0000 32.8951 0.0000
# 6 0.0000 0.0000 0.0000 -7.1301 0.0000 23.2596
#
#
#
# Elastic Compliance Matrix: (Units=1/GPa)
#
#
# Indices 1 2 3 4 5 6 
#
# 1 0.009614 -0.003025 -0.002777 0.000000 -0.001278 0.000000
# 2 -0.003025 0.008466 -0.002361 0.000000 0.000120 0.000000
# 3 -0.002777 -0.002361 0.013138 0.000000 0.006108 0.000000
# 4 0.000000 0.000000 0.000000 0.029496 0.000000 0.009042
# 5 -0.001278 0.000120 0.006108 0.000000 0.033464 0.000000
# 6 0.000000 0.000000 0.000000 0.009042 0.000000 0.045765
#
#
# Mechanical properties :
#
#
# Convention : Reuss Voigt Hill
#
# Bulk Modulus (GPa) = 67.14705 74.20629 70.67667
# Shear Modulus (GPa) = 31.01062 34.68391 32.84727
#
# Velocity S-wave (km/s) = 3.85802 4.08012 3.97062
# Velocity P-wave (km/s) = 7.21627 7.60353 7.41243
#
# Compressibility (1/GPa) = 0.01489269
#
# Stress axis : x y z
#
# Youngs Moduli (GPa) = 104.01137 118.11264 76.11307
#
# Poissons Ratio (x) = 0.35728 0.21136
# Poissons Ratio (y) = 0.31463 0.17974
# Poissons Ratio (z) = 0.28883 0.27892
#
# Static dielectric constant tensor:
#      x y z
#    x 1.789330 0.000000 0.017600 
#    y 0.000000 1.748080 0.000000 
#    z 0.017600 0.000000 1.767200 
# 
# From -- ./inp_files/42694.got.cif
#   From: 2010.05.17/outbox.cif.g08.bks.cpg/sg15_22_cif.got.tgz:42694.got - 2010.06.03 18:47:42.
