data_PCOD9284148
_publ_section_title
;
Structure prediction by ZEFSAII (Michael W. Deem and Ramdas Pophale) SiO2 
 PCOD9284148
Probable space group: C 2/C
;
_chemical_formula_sum "Si O2"
_cell_formula_units_Z 48
_cell_length_a 9.476022
_cell_length_b 16.568372
_cell_length_c 13.825775
_cell_angle_alpha 90.000000
_cell_angle_beta 68.617911
_cell_angle_gamma 90.000000
_cell_volume 2021.269766
_symmetry_space_group_name_H-M "C 2/C"
_symmetry_group_IT_number 15
_symmetry_cell_setting 'monoclinic'
loop_
_space_group_symop_operation_xyz
x,y,z
-x,y,1/2-z
-x,-y,-z
x,-y,1/2+z
1/2+x,1/2+y,z
1/2-x,1/2+y,1/2-z
1/2-x,1/2-y,-z
1/2+x,1/2-y,1/2+z
loop_
_atom_site_type_symbol
_atom_site_label
_atom_site_fract_x
_atom_site_fract_y
_atom_site_fract_z
Si Si1 0.169744 0.418775 0.241653
Si Si2 0.229831 0.233703 0.195113
Si Si3 0.026251 0.987862 0.856422
Si Si4 0.980092 0.185126 0.415347
Si Si5 0.271070 0.621857 0.923739
Si Si6 0.444155 0.779358 0.905889
O O1 0.221117 0.330697 0.190154
O O2 0.302455 0.480082 0.178935
O O3 0.174440 0.408522 0.356797
O O4 0.000000 0.437075 0.250000
O O5 0.172593 0.200688 0.106475
O O6 0.395244 0.200639 0.179740
O O7 0.111534 0.208564 0.306674
O O8 0.902624 0.057165 0.904858
O O9 0.000000 0.963930 0.750000
O O10 0.993221 0.909957 0.928310
O O11 0.006554 0.237673 0.503801
O O12 0.353862 0.706796 0.877330
O O13 0.164890 0.646737 0.039919
#
# Coordination Sequence:
#
# PCOD9284148 Si02
#       6
#     8   8   8   8   8   8
#     4  11  20  39  67  92 122 173 221 259 317 386
#     4  11  20  38  65  97 122 168 217 268 298 395
#     4  10  21  40  67  90 128 171 206 266 330 381
#     4  11  22  40  66  95 129 166 215 262 325 380
#     4  10  22  39  61  93 130 164 214 259 325 382
#     4  11  22  38  65  96 127 167 219 265 311 384
#
# _framework density 23.747450000000001
#
# number of rings (size 3 to 8) (size 9 to 14) (size 15 to 20)
#    0.000    1.333    6.667    0.500    0.000    0.667 
#    0.000    4.167    0.000    0.000    0.000    0.000 
#    0.000    0.000    0.000    0.000    0.000    0.000 
#
# Total GULP energy -134412.123018 kJ/mol
# GULP energy per Si atom -5600.505126 kJ/mol
# Density = 2.369340 g / cm^3
# Si number density = 23.747450 Si / 1000 Ang^3
#
#
#
# Elastic Constant Matrix: (Units=GPa)
#
#
# Indices 1 2 3 4 5 6 
#
# 1 145.1028 0.4763 18.0488 0.0000 -13.7108 0.0000
# 2 0.4763 60.6989 2.4264 0.0000 -3.1098 0.0000
# 3 18.0488 2.4264 52.9074 0.0000 -5.5499 0.0000
# 4 0.0000 0.0000 0.0000 -3.0725 0.0000 10.4193
# 5 -13.7108 -3.1098 -5.5499 0.0000 54.1894 0.0000
# 6 0.0000 0.0000 0.0000 10.4193 0.0000 11.8043
#
#
#
# Elastic Compliance Matrix: (Units=1/GPa)
#
#
# Indices 1 2 3 4 5 6 
#
# 1 0.007335 0.000119 -0.002338 0.000000 0.001623 0.000000
# 2 0.000119 0.016548 -0.000704 0.000000 0.000908 0.000000
# 3 -0.002338 -0.000704 0.019878 0.000000 0.001404 0.000000
# 4 0.000000 0.000000 0.000000 -0.081505 0.000000 0.071941
# 5 0.001623 0.000908 0.001404 0.000000 0.019060 0.000000
# 6 0.000000 0.000000 0.000000 0.071941 0.000000 0.021214
#
#
# Mechanical properties :
#
#
# Convention : Reuss Voigt Hill
#
# Bulk Modulus (GPa) = 26.37398 33.40136 29.88767
# Shear Modulus (GPa) = 237.90590 28.43474 133.17032
#
# Velocity S-wave (km/s) = 10.01994 3.46407 7.49663
# Velocity P-wave (km/s) = 12.04141 5.48594 9.35658
#
# Compressibility (1/GPa) = 0.03791616
#
# Stress axis : x y z
#
# Youngs Moduli (GPa) = 136.32459 60.42848 50.30698
#
# Poissons Ratio (x) = -0.00719 0.11760
# Poissons Ratio (y) = -0.01623 0.03543
# Poissons Ratio (z) = 0.31867 0.04256
#
# Static dielectric constant tensor:
#      x y z
#    x 1.929990 0.000000 0.046510 
#    y 0.000000 1.873090 0.000000 
#    z 0.046510 0.000000 1.983900 
# 
# From -- ./inp_files/190231.got.cif
#   From: 2010.05.17/outbox.cif.g08.bks.cpg/sg15_96_cif.got.tgz:190231.got - 2010.06.03 18:47:42.
