data_PCOD9284439
_publ_section_title
;
Structure prediction by ZEFSAII (Michael W. Deem and Ramdas Pophale) SiO2 
 PCOD9284439
Probable space group: C 2/C
;
_chemical_formula_sum "Si O2"
_cell_formula_units_Z 44
_cell_length_a 10.391203
_cell_length_b 13.318676
_cell_length_c 23.791915
_cell_angle_alpha 90.000000
_cell_angle_beta 145.147205
_cell_angle_gamma 90.000000
_cell_volume 1881.697019
_symmetry_space_group_name_H-M "C 2/C"
_symmetry_group_IT_number 15
_symmetry_cell_setting 'monoclinic'
loop_
_space_group_symop_operation_xyz
x,y,z
-x,y,1/2-z
-x,-y,-z
x,-y,1/2+z
1/2+x,1/2+y,z
1/2-x,1/2+y,1/2-z
1/2-x,1/2-y,-z
1/2+x,1/2-y,1/2+z
loop_
_atom_site_type_symbol
_atom_site_label
_atom_site_fract_x
_atom_site_fract_y
_atom_site_fract_z
Si Si1 0.903864 0.564710 0.098824
Si Si2 0.262702 0.212302 0.336231
Si Si3 0.484369 0.457956 0.558657
Si Si4 0.388173 0.267803 0.940113
Si Si5 0.000000 0.127425 0.750000
Si Si6 0.765837 0.575736 0.738426
O O1 0.779589 0.652989 0.088734
O O2 0.119901 0.619922 0.152596
O O3 0.984792 0.460046 0.155711
O O4 0.721488 0.521792 0.989624
O O5 0.425880 0.229391 0.448865
O O6 0.263724 0.315132 0.299924
O O7 0.000000 0.191097 0.250000
O O8 0.500000 0.500000 0.500000
O O9 0.478534 0.338750 0.555889
O O10 0.699708 0.493561 0.668907
O O11 0.217052 0.191052 0.849814
O O12 0.102296 0.070630 0.733349
#
# Coordination Sequence:
#
# PCOD9284439 Si02
#       6
#     8   8   8   8   4   8
#     4  11  23  43  69 102 143 186 233 295 359 422
#     4  12  25  45  72 106 145 186 239 303 357 424
#     4  10  21  40  72 102 130 176 243 297 343 403
#     4  11  22  47  75 105 134 187 249 298 349 422
#     4  12  26  44  70 102 150 194 226 298 366 432
#     4  12  25  43  67 107 144 185 240 286 365 422
#
# _framework density 23.383147999999998
#
# number of rings (size 3 to 8) (size 9 to 14) (size 15 to 20)
#    0.000    0.727    5.455    3.818    3.818    0.000 
#    3.273    3.636    0.000    0.000    0.000    0.000 
#    0.000    0.000    0.000    0.000    0.000    0.000 
#
# Total GULP energy -122786.290167 kJ/mol
# GULP energy per Si atom -5581.195008 kJ/mol
# Density = 2.332993 g / cm^3
# Si number density = 23.383148 Si / 1000 Ang^3
#
#
#
# Elastic Constant Matrix: (Units=GPa)
#
#
# Indices 1 2 3 4 5 6 
#
# 1 71.9219 13.3081 31.3347 0.0000 9.1198 0.0000
# 2 13.3081 76.0860 32.8593 0.0000 1.9727 0.0000
# 3 31.3347 32.8593 110.1630 -0.0002 12.3964 0.0000
# 4 0.0000 0.0000 -0.0002 -16.2565 0.0000 25.7791
# 5 9.1198 1.9727 12.3964 0.0000 22.9820 0.0000
# 6 0.0000 0.0000 0.0000 25.7791 0.0000 21.9297
#
#
#
# Elastic Compliance Matrix: (Units=1/GPa)
#
#
# Indices 1 2 3 4 5 6 
#
# 1 0.016322 -0.001088 -0.003832 0.000000 -0.004316 0.000000
# 2 -0.001088 0.015190 -0.004390 0.000000 0.001496 0.000000
# 3 -0.003832 -0.004390 0.011991 0.000000 -0.004570 0.000000
# 4 0.000000 0.000000 0.000000 -0.021477 0.000000 0.025247
# 5 -0.004316 0.001496 -0.004570 0.000000 0.047562 0.000000
# 6 0.000000 0.000000 0.000000 0.025247 0.000000 0.015921
#
#
# Mechanical properties :
#
#
# Convention : Reuss Voigt Hill
#
# Bulk Modulus (GPa) = 40.18719 45.90834 43.04776
# Shear Modulus (GPa) = 44.47416 17.77562 31.12489
#
# Velocity S-wave (km/s) = 4.36590 2.76014 3.65236
# Velocity P-wave (km/s) = 6.52981 5.46201 6.01963
#
# Compressibility (1/GPa) = 0.02488355
#
# Stress axis : x y z
#
# Youngs Moduli (GPa) = 61.26581 65.83124 83.39407
#
# Poissons Ratio (x) = 0.07162 0.31961
# Poissons Ratio (y) = 0.06665 0.36609
# Poissons Ratio (z) = 0.23480 0.28899
#
# Static dielectric constant tensor:
#      x y z
#    x 2.035890 0.000000 0.065330 
#    y 0.000000 1.878600 0.000000 
#    z 0.065330 0.000000 1.897540 
# 
# From -- ./inp_files/292944.got.cif
#   From: 2010.05.17/outbox.cif.g08.bks.cpg/sg15_147_cif.got.tgz:292944.got - 2010.06.03 18:47:42.
