data_PCOD9284136
_publ_section_title
;
Structure prediction by ZEFSAII (Michael W. Deem and Ramdas Pophale) SiO2 
 PCOD9284136
Probable space group: C 2/C
;
_chemical_formula_sum "Si O2"
_cell_formula_units_Z 64
_cell_length_a 32.178414
_cell_length_b 8.883550
_cell_length_c 15.922073
_cell_angle_alpha 90.000000
_cell_angle_beta 145.188731
_cell_angle_gamma 90.000000
_cell_volume 2598.315403
_symmetry_space_group_name_H-M "C 2/C"
_symmetry_group_IT_number 15
_symmetry_cell_setting 'monoclinic'
loop_
_space_group_symop_operation_xyz
x,y,z
-x,y,1/2-z
-x,-y,-z
x,-y,1/2+z
1/2+x,1/2+y,z
1/2-x,1/2+y,1/2-z
1/2-x,1/2-y,-z
1/2+x,1/2-y,1/2+z
loop_
_atom_site_type_symbol
_atom_site_label
_atom_site_fract_x
_atom_site_fract_y
_atom_site_fract_z
Si Si1 0.682924 0.463802 0.422256
Si Si2 0.216386 0.676764 0.197634
Si Si3 0.396347 0.162710 0.215403
Si Si4 0.418226 0.484801 0.089467
Si Si5 0.176800 0.972657 0.217332
Si Si6 0.560908 0.802732 0.974105
Si Si7 0.422051 0.082459 0.614445
Si Si8 0.333041 0.039487 0.741919
O O1 0.668475 0.282348 0.407311
O O2 0.633426 0.520608 0.417391
O O3 0.661231 0.485398 0.289343
O O4 0.762250 0.541873 0.563890
O O5 0.223241 0.824705 0.266251
O O6 0.280667 0.619576 0.245381
O O7 0.203630 0.535346 0.237658
O O8 0.145116 0.684911 0.021517
O O9 0.476611 0.238041 0.350727
O O10 0.399587 0.024451 0.154861
O O11 0.383893 0.086034 0.284390
O O12 0.500000 0.514522 0.250000
O O13 0.394307 0.545402 0.958651
O O14 0.413312 0.306099 0.058003
O O15 0.614189 0.824267 0.142454
O O16 0.562180 0.967398 0.935424
O O17 0.500000 0.162062 0.750000
#
# Coordination Sequence:
#
# PCOD9284136 Si02
#       8
#     8   8   8   8   8   8   8   8
#     4  12  24  45  71 110 143 198 255 302 375 458
#     4  11  25  43  67 103 145 185 237 308 371 436
#     4  11  19  39  70 105 144 193 255 296 372 460
#     4  12  25  49  77 102 147 198 247 308 381 458
#     4  12  29  46  74 106 146 194 248 306 376 453
#     4  10  21  40  67 105 143 191 244 304 367 443
#     4   9  19  36  66  98 138 185 238 291 362 432
#     4  11  23  36  69 104 147 182 248 312 359 434
#
# _framework density 24.631343999999999
#
# number of rings (size 3 to 8) (size 9 to 14) (size 15 to 20)
#    0.000    1.000    5.000    1.875    5.250    1.000 
#    0.000    3.750    0.000    0.000    0.000    0.000 
#    0.000    0.000    0.000    0.000    0.000    0.000 
#
# Total GULP energy -178643.443046 kJ/mol
# GULP energy per Si atom -5582.607595 kJ/mol
# Density = 2.457528 g / cm^3
# Si number density = 24.631344 Si / 1000 Ang^3
#
#
#
# Elastic Constant Matrix: (Units=GPa)
#
#
# Indices 1 2 3 4 5 6 
#
# 1 119.5271 0.3133 59.5335 0.0000 -11.8464 0.0000
# 2 0.3133 57.1159 38.9403 0.0000 -0.6557 0.0000
# 3 59.5335 38.9403 179.8685 0.0000 -7.7181 0.0000
# 4 0.0000 0.0000 0.0000 20.7090 0.0000 -8.8262
# 5 -11.8464 -0.6557 -7.7181 0.0000 40.4153 0.0000
# 6 0.0000 0.0000 0.0000 -8.8262 0.0000 26.3011
#
#
#
# Elastic Compliance Matrix: (Units=1/GPa)
#
#
# Indices 1 2 3 4 5 6 
#
# 1 0.010578 0.002682 -0.003979 0.000000 0.002384 0.000000
# 2 0.002682 0.021231 -0.005481 0.000000 0.000084 0.000000
# 3 -0.003979 -0.005481 0.008076 0.000000 0.000287 0.000000
# 4 0.000000 0.000000 0.000000 0.056347 0.000000 0.018909
# 5 0.002384 0.000084 0.000287 0.000000 0.025498 0.000000
# 6 0.000000 0.000000 0.000000 0.018909 0.000000 0.044367
#
#
# Mechanical properties :
#
#
# Convention : Reuss Voigt Hill
#
# Bulk Modulus (GPa) = 37.98092 61.56509 49.77300
# Shear Modulus (GPa) = 26.53537 34.66671 30.60104
#
# Velocity S-wave (km/s) = 3.28579 3.75563 3.52854
# Velocity P-wave (km/s) = 5.46337 6.62233 6.07057
#
# Compressibility (1/GPa) = 0.02632901
#
# Stress axis : x y z
#
# Youngs Moduli (GPa) = 94.53918 47.10076 123.83014
#
# Poissons Ratio (x) = -0.12634 0.49278
# Poissons Ratio (y) = -0.25360 0.67867
# Poissons Ratio (z) = 0.37621 0.25814
#
# Static dielectric constant tensor:
#      x y z
#    x 1.908420 0.000000 0.021150 
#    y 0.000000 2.044760 0.000000 
#    z 0.021150 0.000000 2.092550 
# 
# From -- ./inp_files/181782.got.cif
#   From: 2010.05.17/outbox.cif.g08.bks.cpg/sg15_91_cif.got.tgz:181782.got - 2010.06.03 18:47:42.
