data_PCOD9284478
_publ_section_title
;
Structure prediction by ZEFSAII (Michael W. Deem and Ramdas Pophale) SiO2 
 PCOD9284478
Probable space group: C 2/C
;
_chemical_formula_sum "Si O2"
_cell_formula_units_Z 56
_cell_length_a 11.034302
_cell_length_b 10.845907
_cell_length_c 25.862113
_cell_angle_alpha 90.000000
_cell_angle_beta 78.175314
_cell_angle_gamma 90.000000
_cell_volume 3029.419904
_symmetry_space_group_name_H-M "C 2/C"
_symmetry_group_IT_number 15
_symmetry_cell_setting 'monoclinic'
loop_
_space_group_symop_operation_xyz
x,y,z
-x,y,1/2-z
-x,-y,-z
x,-y,1/2+z
1/2+x,1/2+y,z
1/2-x,1/2+y,1/2-z
1/2-x,1/2-y,-z
1/2+x,1/2-y,1/2+z
loop_
_atom_site_type_symbol
_atom_site_label
_atom_site_fract_x
_atom_site_fract_y
_atom_site_fract_z
Si Si1 0.719482 0.142893 0.201132
Si Si2 0.445727 0.756323 0.119864
Si Si3 0.045226 0.795759 0.155702
Si Si4 0.223368 0.322381 0.817037
Si Si5 0.366502 0.541793 0.391089
Si Si6 0.742105 0.314089 0.055517
Si Si7 0.415844 0.901279 0.308313
O O1 0.847922 0.188065 0.166179
O O2 0.620333 0.252463 0.199684
O O3 0.729056 0.113899 0.260729
O O4 0.663573 0.024144 0.177966
O O5 0.552274 0.656846 0.097663
O O6 0.368083 0.799907 0.077212
O O7 0.503344 0.866503 0.148706
O O8 0.134531 0.753194 0.100594
O O9 0.911926 0.735602 0.164443
O O10 0.047593 0.943266 0.147697
O O11 0.263767 0.410920 0.859866
O O12 0.323870 0.212886 0.807287
O O13 0.301620 0.457127 0.440240
O O14 0.750000 0.250000 0.000000
O O15 0.500000 0.916573 0.250000
#
# Coordination Sequence:
#
# PCOD9284478 Si02
#       7
#     8   8   8   8   8   8   8
#     4  11  22  32  58  82 120 159 187 232 278 347
#     4  10  21  41  55  88 117 151 195 235 285 353
#     4   9  21  37  54  85 113 147 197 231 288 336
#     4  11  21  36  55  83 121 156 191 229 287 343
#     4   9  22  37  60  80 117 149 190 245 281 347
#     4   9  21  41  65  84 111 151 196 253 302 333
#     4  11  22  34  55  83 118 159 190 228 280 339
#
# _framework density 18.485386999999999
#
# number of rings (size 3 to 8) (size 9 to 14) (size 15 to 20)
#    0.857    1.143    1.429    2.143    6.000    0.571 
#    2.571    0.714    0.000    1.714    0.000    0.000 
#    0.000    0.000    0.000    0.000    0.000    0.000 
#
# Total GULP energy -156100.211893 kJ/mol
# GULP energy per Si atom -5575.007568 kJ/mol
# Density = 1.844331 g / cm^3
# Si number density = 18.485387 Si / 1000 Ang^3
#
#
#
# Elastic Constant Matrix: (Units=GPa)
#
#
# Indices 1 2 3 4 5 6 
#
# 1 81.2554 1.1194 14.3880 0.0000 17.3738 0.0000
# 2 1.1194 44.4877 -10.1143 0.0000 6.6974 0.0000
# 3 14.3880 -10.1143 35.3453 0.0000 11.6884 0.0000
# 4 0.0000 0.0000 0.0000 19.0997 0.0000 3.1865
# 5 17.3738 6.6974 11.6884 0.0000 19.2827 0.0000
# 6 0.0000 0.0000 0.0000 3.1865 0.0000 32.1557
#
#
#
# Elastic Compliance Matrix: (Units=1/GPa)
#
#
# Indices 1 2 3 4 5 6 
#
# 1 0.015427 0.001312 -0.001447 0.000000 -0.013478 0.000000
# 2 0.001312 0.028640 0.014185 0.000000 -0.019728 0.000000
# 3 -0.001447 0.014185 0.042698 0.000000 -0.029504 0.000000
# 4 0.000000 0.000000 0.000000 0.053237 0.000000 -0.005275
# 5 -0.013478 -0.019728 -0.029504 0.000000 0.088740 0.000000
# 6 0.000000 0.000000 0.000000 -0.005275 0.000000 0.031621
#
#
# Mechanical properties :
#
#
# Convention : Reuss Voigt Hill
#
# Bulk Modulus (GPa) = 8.70592 19.09720 13.90156
# Shear Modulus (GPa) = 18.48078 24.48733 21.48405
#
# Velocity S-wave (km/s) = 3.16531 3.64357 3.41283
# Velocity P-wave (km/s) = 4.25192 5.29662 4.80276
#
# Compressibility (1/GPa) = 0.11486439
#
# Stress axis : x y z
#
# Youngs Moduli (GPa) = 64.82186 34.91601 23.42050
#
# Poissons Ratio (x) = -0.04580 0.03390
# Poissons Ratio (y) = -0.08503 -0.33223
# Poissons Ratio (z) = 0.09382 -0.49530
#
# Static dielectric constant tensor:
#      x y z
#    x 1.641760 0.000000 0.003070 
#    y 0.000000 1.661200 0.000000 
#    z 0.003070 0.000000 1.614590 
# 
# From -- ./inp_files/268479.got.cif
#   From: 2010.05.17/outbox.cif.g08.bks.cpg/sg15_135_cif.got.tgz:268479.got - 2010.06.03 18:47:42.
