data_PCOD9284730
_publ_section_title
;
Structure prediction by ZEFSAII (Michael W. Deem and Ramdas Pophale) SiO2 
 PCOD9284730
Probable space group: C 2/C
;
_chemical_formula_sum "Si O2"
_cell_formula_units_Z 48
_cell_length_a 18.302957
_cell_length_b 16.921420
_cell_length_c 13.423316
_cell_angle_alpha 90.000000
_cell_angle_beta 31.179449
_cell_angle_gamma 90.000000
_cell_volume 2152.350349
_symmetry_space_group_name_H-M "C 2/C"
_symmetry_group_IT_number 15
_symmetry_cell_setting 'monoclinic'
loop_
_space_group_symop_operation_xyz
x,y,z
-x,y,1/2-z
-x,-y,-z
x,-y,1/2+z
1/2+x,1/2+y,z
1/2-x,1/2+y,1/2-z
1/2-x,1/2-y,-z
1/2+x,1/2-y,1/2+z
loop_
_atom_site_type_symbol
_atom_site_label
_atom_site_fract_x
_atom_site_fract_y
_atom_site_fract_z
Si Si1 0.216544 0.908466 0.928503
Si Si2 0.537131 0.883883 0.594623
Si Si3 0.837703 0.770410 0.656337
Si Si4 0.315307 0.544284 0.814821
Si Si5 0.551813 0.267456 0.586394
Si Si6 0.438866 0.565533 0.462690
O O1 0.387069 0.907035 0.722792
O O2 0.153034 0.836875 0.939313
O O3 0.152473 0.990205 0.963562
O O4 0.822176 0.906421 0.408965
O O5 0.500000 0.856176 0.750000
O O6 0.615572 0.813319 0.445572
O O7 0.651242 0.954494 0.474640
O O8 0.929976 0.779538 0.647721
O O9 0.678454 0.773613 0.881808
O O10 0.399756 0.580625 0.623473
O O11 0.398474 0.462448 0.735742
O O12 0.500000 0.230434 0.750000
O O13 0.601832 0.357157 0.550363
#
# Coordination Sequence:
#
# PCOD9284730 Si02
#       6
#     8   8   8   8   8   8
#     4  11  24  40  69 100 136 173 226 272 338 395
#     4  10  23  41  63  98 139 175 216 277 338 394
#     4  12  24  45  68 100 133 179 222 278 334 396
#     4  10  21  41  63  98 135 173 220 271 328 394
#     4  12  26  46  69  98 136 177 227 273 334 400
#     4  11  23  41  70  97 133 176 225 275 332 393
#
# _framework density 22.301202
#
# number of rings (size 3 to 8) (size 9 to 14) (size 15 to 20)
#    0.000    1.000    3.333    4.000    0.000    6.000 
#    0.000    0.000    0.000    2.000    0.000    0.000 
#    0.000    0.000    0.000    0.000    0.000    0.000 
#
# Total GULP energy -134105.545210 kJ/mol
# GULP energy per Si atom -5587.731050 kJ/mol
# Density = 2.225044 g / cm^3
# Si number density = 22.301202 Si / 1000 Ang^3
#
#
#
# Elastic Constant Matrix: (Units=GPa)
#
#
# Indices 1 2 3 4 5 6 
#
# 1 121.6999 19.4158 58.0524 0.0000 -3.3572 0.0000
# 2 19.4158 44.3633 21.1210 0.0000 -1.6634 0.0000
# 3 58.0524 21.1210 111.2601 0.0000 11.5344 0.0000
# 4 0.0000 0.0000 0.0000 27.3201 0.0000 2.0356
# 5 -3.3572 -1.6634 11.5344 0.0000 54.2444 0.0000
# 6 0.0000 0.0000 0.0000 2.0356 0.0000 15.2732
#
#
#
# Elastic Compliance Matrix: (Units=1/GPa)
#
#
# Indices 1 2 3 4 5 6 
#
# 1 0.011329 -0.002181 -0.005688 0.000000 0.001844 0.000000
# 2 -0.002181 0.025374 -0.003830 0.000000 0.001457 0.000000
# 3 -0.005688 -0.003830 0.013019 0.000000 -0.003238 0.000000
# 4 0.000000 0.000000 0.000000 0.036970 0.000000 -0.004927
# 5 0.001844 0.001457 -0.003238 0.000000 0.019282 0.000000
# 6 0.000000 0.000000 0.000000 -0.004927 0.000000 0.066131
#
#
# Mechanical properties :
#
#
# Convention : Reuss Voigt Hill
#
# Bulk Modulus (GPa) = 37.98955 52.72241 45.35598
# Shear Modulus (GPa) = 24.47646 31.28314 27.87980
#
# Velocity S-wave (km/s) = 3.31651 3.74940 3.53958
# Velocity P-wave (km/s) = 5.63359 6.51432 6.08990
#
# Compressibility (1/GPa) = 0.02632303
#
# Stress axis : x y z
#
# Youngs Moduli (GPa) = 88.26767 39.41092 76.81254
#
# Poissons Ratio (x) = 0.08595 0.43694
# Poissons Ratio (y) = 0.19251 0.29419
# Poissons Ratio (z) = 0.50210 0.15094
#
# Static dielectric constant tensor:
#      x y z
#    x 1.868380 0.000000 -0.009200 
#    y 0.000000 1.839120 0.000000 
#    z -0.009200 0.000000 1.839060 
# 
# From -- ./inp_files/163505.got.cif
#   From: 2010.05.17/outbox.cif.g08.bks.cpg/sg15_82_cif.got.tgz:163505.got - 2010.06.03 18:47:42.
