data_PCOD9284528
_publ_section_title
;
Structure prediction by ZEFSAII (Michael W. Deem and Ramdas Pophale) SiO2 
 PCOD9284528
Probable space group: C 2/C
;
_chemical_formula_sum "Si O2"
_cell_formula_units_Z 56
_cell_length_a 11.444914
_cell_length_b 9.022679
_cell_length_c 28.291862
_cell_angle_alpha 90.000000
_cell_angle_beta 71.459602
_cell_angle_gamma 90.000000
_cell_volume 2769.896734
_symmetry_space_group_name_H-M "C 2/C"
_symmetry_group_IT_number 15
_symmetry_cell_setting 'monoclinic'
loop_
_space_group_symop_operation_xyz
x,y,z
-x,y,1/2-z
-x,-y,-z
x,-y,1/2+z
1/2+x,1/2+y,z
1/2-x,1/2+y,1/2-z
1/2-x,1/2-y,-z
1/2+x,1/2-y,1/2+z
loop_
_atom_site_type_symbol
_atom_site_label
_atom_site_fract_x
_atom_site_fract_y
_atom_site_fract_z
Si Si1 0.002589 0.039110 0.616078
Si Si2 0.387068 0.803635 0.226898
Si Si3 0.802698 0.124294 0.565272
Si Si4 0.347811 0.624115 0.985749
Si Si5 0.611884 0.443469 0.272627
Si Si6 0.455963 0.835563 0.493314
Si Si7 0.956140 0.302726 0.380925
O O1 0.900405 0.052171 0.588308
O O2 0.945407 0.109151 0.669988
O O3 0.118349 0.103685 0.573281
O O4 0.038529 0.873507 0.624836
O O5 0.500000 0.837139 0.250000
O O6 0.372728 0.623604 0.229761
O O7 0.249686 0.873598 0.250192
O O8 0.440860 0.856102 0.168922
O O9 0.835352 0.286033 0.538939
O O10 0.678650 0.134042 0.611566
O O11 0.799499 0.018642 0.519706
O O12 0.250000 0.750000 0.000000
O O13 0.459901 0.698381 0.999919
O O14 0.500000 0.409641 0.250000
O O15 0.463466 0.830994 0.435964
O O16 0.500000 0.000000 0.500000
#
# Coordination Sequence:
#
# PCOD9284528 Si02
#       7
#     8   8   8   8   8   8   8
#     4  10  21  41  61  86 124 165 201 255 321 375
#     4  10  23  45  67  96 128 165 219 274 324 388
#     4  11  21  40  61  87 128 164 204 254 316 384
#     4  11  22  37  58  90 126 160 207 253 303 386
#     4  10  23  45  68  94 127 166 218 274 326 380
#     4  11  22  37  57  92 125 160 208 253 307 386
#     4  11  21  38  65  87 121 168 201 252 328 373
#
# _framework density 20.217359999999999
#
# number of rings (size 3 to 8) (size 9 to 14) (size 15 to 20)
#    0.000    1.429    2.857    3.000    2.000    1.714 
#   12.857    0.000    0.000    0.000    0.000    0.000 
#    0.000    0.000    0.000    0.000    0.000    0.000 
#
# Total GULP energy -155883.141531 kJ/mol
# GULP energy per Si atom -5567.255055 kJ/mol
# Density = 2.017134 g / cm^3
# Si number density = 20.217360 Si / 1000 Ang^3
#
#
#
# Elastic Constant Matrix: (Units=GPa)
#
#
# Indices 1 2 3 4 5 6 
#
# 1 86.0412 24.8805 44.8666 0.0000 -26.3534 0.0000
# 2 24.8805 67.4261 19.2580 0.0000 -22.7920 0.0000
# 3 44.8666 19.2580 135.8588 0.0000 -43.6949 0.0000
# 4 0.0000 0.0000 0.0000 25.0169 0.0000 -8.6410
# 5 -26.3534 -22.7920 -43.6949 0.0000 32.2084 0.0000
# 6 0.0000 0.0000 0.0000 -8.6410 0.0000 35.8084
#
#
#
# Elastic Compliance Matrix: (Units=1/GPa)
#
#
# Indices 1 2 3 4 5 6 
#
# 1 0.016072 -0.002473 -0.002289 0.000000 0.008294 0.000000
# 2 -0.002473 0.020574 0.003427 0.000000 0.017185 0.000000
# 3 -0.002289 0.003427 0.013853 0.000000 0.019345 0.000000
# 4 0.000000 0.000000 0.000000 0.043608 0.000000 0.010523
# 5 0.008294 0.017185 0.019345 0.000000 0.076239 0.000000
# 6 0.000000 0.000000 0.000000 0.010523 0.000000 0.030466
#
#
# Mechanical properties :
#
#
# Convention : Reuss Voigt Hill
#
# Bulk Modulus (GPa) = 20.90823 51.92626 36.41724
# Shear Modulus (GPa) = 22.78703 31.96146 27.37425
#
# Velocity S-wave (km/s) = 3.36088 3.98036 3.68366
# Velocity P-wave (km/s) = 5.04230 6.84573 6.01203
#
# Compressibility (1/GPa) = 0.04782806
#
# Stress axis : x y z
#
# Youngs Moduli (GPa) = 62.22106 48.60557 72.18911
#
# Poissons Ratio (x) = 0.12020 0.16528
# Poissons Ratio (y) = 0.15387 -0.24742
# Poissons Ratio (z) = 0.14245 -0.16659
#
# Static dielectric constant tensor:
#      x y z
#    x 1.245330 0.000000 0.208080 
#    y 0.000000 1.672570 0.000000 
#    z 0.208080 0.000000 1.652900 
# 
# From -- ./inp_files/291526.got.cif
#   From: 2010.05.17/outbox.cif.g08.bks.cpg/sg15_146_cif.got.tgz:291526.got - 2010.06.03 18:47:42.
