data_PCOD9284602
_publ_section_title
;
Structure prediction by ZEFSAII (Michael W. Deem and Ramdas Pophale) SiO2 
 PCOD9284602
Probable space group: C 2/C
;
_chemical_formula_sum "Si O2"
_cell_formula_units_Z 56
_cell_length_a 18.902711
_cell_length_b 10.646335
_cell_length_c 11.480347
_cell_angle_alpha 90.000000
_cell_angle_beta 68.995626
_cell_angle_gamma 90.000000
_cell_volume 2156.841577
_symmetry_space_group_name_H-M "C 2/C"
_symmetry_group_IT_number 15
_symmetry_cell_setting 'monoclinic'
loop_
_space_group_symop_operation_xyz
x,y,z
-x,y,1/2-z
-x,-y,-z
x,-y,1/2+z
1/2+x,1/2+y,z
1/2-x,1/2+y,1/2-z
1/2-x,1/2-y,-z
1/2+x,1/2-y,1/2+z
loop_
_atom_site_type_symbol
_atom_site_label
_atom_site_fract_x
_atom_site_fract_y
_atom_site_fract_z
Si Si1 0.099252 0.613155 0.418762
Si Si2 0.587565 0.396261 0.447939
Si Si3 0.726286 0.547299 0.004916
Si Si4 0.812206 0.666920 0.347283
Si Si5 0.289633 0.252653 0.790641
Si Si6 0.943020 0.116779 0.175020
Si Si7 0.945964 0.410952 0.886537
O O1 0.121303 0.756705 0.426533
O O2 0.147838 0.577851 0.276409
O O3 0.103430 0.520052 0.524352
O O4 0.010074 0.623651 0.441012
O O5 0.638361 0.460090 0.517565
O O6 0.594576 0.479764 0.327651
O O7 0.500376 0.377515 0.532691
O O8 0.759500 0.410433 0.965197
O O9 0.769042 0.637596 0.886232
O O10 0.731536 0.620363 0.123295
O O11 0.756732 0.751983 0.302597
O O12 0.889392 0.697187 0.372981
O O13 0.378966 0.276752 0.715973
O O14 0.000000 0.124151 0.250000
O O15 0.000000 0.457909 0.750000
#
# Coordination Sequence:
#
# PCOD9284602 Si02
#       7
#     8   8   8   8   8   8   8
#     4  10  21  41  62  91 126 162 206 256 317 366
#     4  11  23  41  64  91 122 166 209 252 307 378
#     4  11  23  40  66  93 122 163 211 255 315 367
#     4  11  21  37  62  90 123 159 207 253 307 368
#     4  11  23  40  63  93 125 163 205 262 308 366
#     4  11  24  41  63  91 126 162 208 258 305 369
#     4   9  21  37  62  92 124 162 200 260 310 370
#
# _framework density 25.963889000000002
#
# number of rings (size 3 to 8) (size 9 to 14) (size 15 to 20)
#    0.000    1.429    4.286    0.857    2.000    5.714 
#    0.000    0.000    0.000    5.143    0.000    0.000 
#    0.000    0.000    0.000    0.000    0.000    0.000 
#
# Total GULP energy -156360.150244 kJ/mol
# GULP energy per Si atom -5584.291080 kJ/mol
# Density = 2.590479 g / cm^3
# Si number density = 25.963889 Si / 1000 Ang^3
#
#
#
# Elastic Constant Matrix: (Units=GPa)
#
#
# Indices 1 2 3 4 5 6 
#
# 1 155.2594 -0.5537 22.4853 0.0000 16.6257 0.0000
# 2 -0.5537 30.8901 23.8216 0.0000 1.7241 0.0000
# 3 22.4853 23.8216 65.2117 0.0000 -10.8733 0.0000
# 4 0.0000 0.0000 0.0000 27.7945 0.0000 -2.7782
# 5 16.6257 1.7241 -10.8733 0.0000 53.7398 0.0000
# 6 0.0000 0.0000 0.0000 -2.7782 0.0000 22.1724
#
#
#
# Elastic Compliance Matrix: (Units=1/GPa)
#
#
# Indices 1 2 3 4 5 6 
#
# 1 0.007468 0.003811 -0.004525 0.000000 -0.003348 0.000000
# 2 0.003811 0.048319 -0.020098 0.000000 -0.006796 0.000000
# 3 -0.004525 -0.020098 0.025436 0.000000 0.007191 0.000000
# 4 0.000000 0.000000 0.000000 0.036435 0.000000 0.004565
# 5 -0.003348 -0.006796 0.007191 0.000000 0.021317 0.000000
# 6 0.000000 0.000000 0.000000 0.004565 0.000000 0.045673
#
#
# Mechanical properties :
#
#
# Convention : Reuss Voigt Hill
#
# Bulk Modulus (GPa) = 25.25367 38.09641 31.67504
# Shear Modulus (GPa) = 20.87913 34.44853 27.66383
#
# Velocity S-wave (km/s) = 2.83885 3.64646 3.26770
# Velocity P-wave (km/s) = 4.52692 5.69505 5.14425
#
# Compressibility (1/GPa) = 0.03959821
#
# Stress axis : x y z
#
# Youngs Moduli (GPa) = 133.89777 20.69561 39.31459
#
# Poissons Ratio (x) = -0.07886 0.17792
# Poissons Ratio (y) = -0.51024 0.79014
# Poissons Ratio (z) = 0.60595 0.41594
#
# Static dielectric constant tensor:
#      x y z
#    x 2.089400 0.000000 -0.018990 
#    y 0.000000 2.087730 0.000000 
#    z -0.018990 0.000000 2.029090 
# 
# From -- ./inp_files/111576.got.cif
#   From: 2010.05.17/outbox.cif.g08.bks.cpg/sg15_56_cif.got.tgz:111576.got - 2010.06.03 18:47:42.
