data_PCOD9284794
_publ_section_title
;
Structure prediction by ZEFSAII (Michael W. Deem and Ramdas Pophale) SiO2 
 PCOD9284794
Probable space group: C 2/C
;
_chemical_formula_sum "Si O2"
_cell_formula_units_Z 56
_cell_length_a 29.059084
_cell_length_b 7.504819
_cell_length_c 28.008615
_cell_angle_alpha 90.000000
_cell_angle_beta 27.197530
_cell_angle_gamma 90.000000
_cell_volume 2791.814747
_symmetry_space_group_name_H-M "C 2/C"
_symmetry_group_IT_number 15
_symmetry_cell_setting 'monoclinic'
loop_
_space_group_symop_operation_xyz
x,y,z
-x,y,1/2-z
-x,-y,-z
x,-y,1/2+z
1/2+x,1/2+y,z
1/2-x,1/2+y,1/2-z
1/2-x,1/2-y,-z
1/2+x,1/2-y,1/2+z
loop_
_atom_site_type_symbol
_atom_site_label
_atom_site_fract_x
_atom_site_fract_y
_atom_site_fract_z
Si Si1 0.153883 0.508493 0.294816
Si Si2 0.354379 0.605636 0.660940
Si Si3 0.573319 0.671782 0.726091
Si Si4 0.426629 0.420819 0.910070
Si Si5 0.855386 0.193525 0.379376
Si Si6 0.002450 0.209968 0.439018
Si Si7 0.806142 0.485556 0.352215
O O1 0.242410 0.448959 0.248901
O O2 0.144339 0.720757 0.307175
O O3 0.052599 0.401718 0.400514
O O4 0.183697 0.456585 0.213526
O O5 0.415713 0.663218 0.556854
O O6 0.411094 0.438394 0.631954
O O7 0.500000 0.727883 0.750000
O O8 0.500421 0.587740 0.833522
O O9 0.640246 0.506701 0.645055
O O10 0.641790 0.830145 0.681173
O O11 0.428564 0.314446 0.857877
O O12 0.461323 0.309472 0.923504
O O13 0.311855 0.482290 0.024924
O O14 0.750000 0.250000 0.500000
O O15 0.863223 0.331515 0.328960
#
# Coordination Sequence:
#
# PCOD9284794 Si02
#       7
#     8   8   8   8   8   8   8
#     4  12  23  42  67  93 125 167 219 262 332 388
#     4  11  24  42  64  95 124 169 210 277 324 391
#     4  10  22  39  61  93 130 166 213 265 312 378
#     4  10  21  41  64  93 128 167 212 262 320 384
#     4   9  21  40  62  90 128 167 211 257 314 378
#     4  11  23  43  66  90 133 163 214 272 328 386
#     4  11  23  41  65  92 127 171 214 259 325 381
#
# _framework density 20.058637000000001
#
# number of rings (size 3 to 8) (size 9 to 14) (size 15 to 20)
#    0.000    1.429    2.857    2.143    0.000    8.000 
#    0.000    5.714    0.000    0.000    0.000    0.000 
#    0.000    0.000    0.000    0.000    0.000    0.000 
#
# Total GULP energy -156434.452077 kJ/mol
# GULP energy per Si atom -5586.944717 kJ/mol
# Density = 2.001298 g / cm^3
# Si number density = 20.058637 Si / 1000 Ang^3
#
#
#
# Elastic Constant Matrix: (Units=GPa)
#
#
# Indices 1 2 3 4 5 6 
#
# 1 96.4545 31.1867 14.6294 -0.0064 1.6333 0.0041
# 2 31.1867 63.5168 2.4148 -0.0066 -12.3580 0.0016
# 3 14.6294 2.4148 42.7350 0.0080 -14.2894 -0.0038
# 4 -0.0064 -0.0066 0.0080 31.3785 0.0028 -3.8867
# 5 1.6333 -12.3580 -14.2894 0.0028 35.5562 -0.0023
# 6 0.0041 0.0016 -0.0038 -3.8867 -0.0023 31.9701
#
#
#
# Elastic Compliance Matrix: (Units=1/GPa)
#
#
# Indices 1 2 3 4 5 6 
#
# 1 0.013921 -0.007735 -0.006286 0.000003 -0.005854 -0.000002
# 2 -0.007735 0.021234 0.004661 0.000001 0.009609 0.000001
# 3 -0.006286 0.004661 0.029952 -0.000009 0.013946 0.000004
# 4 0.000003 0.000001 -0.000009 0.032356 -0.000006 0.003934
# 5 -0.005854 0.009609 0.013946 -0.000006 0.037338 0.000004
# 6 -0.000002 0.000001 0.000004 0.003934 0.000004 0.031757
#
#
# Mechanical properties :
#
#
# Convention : Reuss Voigt Hill
#
# Bulk Modulus (GPa) = 21.55804 33.24090 27.39947
# Shear Modulus (GPa) = 24.90772 30.07932 27.49352
#
# Velocity S-wave (km/s) = 3.52766 3.87663 3.70626
# Velocity P-wave (km/s) = 5.23100 6.05355 5.65725
#
# Compressibility (1/GPa) = 0.04638640
#
# Stress axis : x y z
#
# Youngs Moduli (GPa) = 71.83293 47.09385 33.38721
#
# Poissons Ratio (x) = 0.36429 0.20987
# Poissons Ratio (y) = 0.55565 -0.15562
# Poissons Ratio (z) = 0.45154 -0.21951
#
# Static dielectric constant tensor:
#      x y z
#    x 1.704380 -0.000010 0.000680 
#    y -0.000010 1.681120 0.000010 
#    z 0.000680 0.000010 1.738920 
# 
# From -- ./inp_files/320046.got.cif
#   From: 2010.05.17/outbox.cif.g08.bks.cpg/sg15_161_cif.got.tgz:320046.got - 2010.06.03 18:47:42.
