data_PCOD9284917
_publ_section_title
;
Structure prediction by ZEFSAII (Michael W. Deem and Ramdas Pophale) SiO2 
 PCOD9284917
Probable space group: C 2/C
;
_chemical_formula_sum "Si O2"
_cell_formula_units_Z 56
_cell_length_a 16.640196
_cell_length_b 21.118001
_cell_length_c 8.202199
_cell_angle_alpha 90.000000
_cell_angle_beta 66.348309
_cell_angle_gamma 90.000000
_cell_volume 2640.204543
_symmetry_space_group_name_H-M "C 2/C"
_symmetry_group_IT_number 15
_symmetry_cell_setting 'monoclinic'
loop_
_space_group_symop_operation_xyz
x,y,z
-x,y,1/2-z
-x,-y,-z
x,-y,1/2+z
1/2+x,1/2+y,z
1/2-x,1/2+y,1/2-z
1/2-x,1/2-y,-z
1/2+x,1/2-y,1/2+z
loop_
_atom_site_type_symbol
_atom_site_label
_atom_site_fract_x
_atom_site_fract_y
_atom_site_fract_z
Si Si1 0.500000 0.712841 0.750000
Si Si2 0.579066 0.101813 0.065611
Si Si3 0.473724 0.199470 0.952949
Si Si4 0.313270 0.859562 0.731218
Si Si5 0.882973 0.132542 0.051770
Si Si6 0.218354 0.503578 0.380883
Si Si7 0.000000 0.100338 0.250000
Si Si8 0.651290 0.483213 0.462666
O O1 0.484663 0.753414 0.598520
O O2 0.580234 0.667658 0.635551
O O3 0.500000 0.081248 0.250000
O O4 0.639541 0.146411 0.131591
O O5 0.535843 0.140293 0.953569
O O6 0.639442 0.044404 0.961354
O O7 0.500000 0.220488 0.750000
O O8 0.373480 0.175184 0.050379
O O9 0.212199 0.840927 0.823264
O O10 0.310339 0.934935 0.696461
O O11 0.948228 0.138089 0.152786
O O12 0.874965 0.057067 0.027123
O O13 0.309617 0.470072 0.248024
O O14 0.257467 0.529815 0.516978
O O15 0.927646 0.057333 0.402184
#
# Coordination Sequence:
#
# PCOD9284917 Si02
#       8
#     4   8   8   8   8   8   4   8
#     4  12  27  50  68  96 134 183 236 292 328 384
#     4  10  21  41  65  94 137 177 216 275 342 400
#     4  11  26  47  72  94 131 176 234 291 337 392
#     4  10  21  44  63 100 136 176 220 275 345 406
#     4  11  25  40  70  97 136 183 225 277 336 401
#     4  11  21  36  63 100 140 172 214 264 336 417
#     4  12  23  40  62 100 138 173 226 268 344 410
#     4  11  22  39  61  99 142 173 212 270 331 412
#
# _framework density 21.210477000000001
#
# number of rings (size 3 to 8) (size 9 to 14) (size 15 to 20)
#    0.000    1.143    7.857    0.857    5.000    3.429 
#    0.000    0.714    0.000    0.000    0.000    0.000 
#    0.000    0.000    0.000    0.000    0.000    0.000 
#
# Total GULP energy -156176.356881 kJ/mol
# GULP energy per Si atom -5577.727031 kJ/mol
# Density = 2.116220 g / cm^3
# Si number density = 21.210477 Si / 1000 Ang^3
#
#
#
# Elastic Constant Matrix: (Units=GPa)
#
#
# Indices 1 2 3 4 5 6 
#
# 1 111.1980 40.0717 48.7068 0.0000 -16.7884 0.0000
# 2 40.0717 39.3710 50.9849 0.0000 -20.6485 0.0000
# 3 48.7068 50.9849 135.0622 0.0000 -14.7819 0.0000
# 4 0.0000 0.0000 0.0000 30.4120 0.0000 8.2178
# 5 -16.7884 -20.6485 -14.7819 0.0000 39.3653 0.0000
# 6 0.0000 0.0000 0.0000 8.2178 0.0000 -3.0629
#
#
#
# Elastic Compliance Matrix: (Units=1/GPa)
#
#
# Indices 1 2 3 4 5 6 
#
# 1 0.014409 -0.017474 0.001116 0.000000 -0.002602 0.000000
# 2 -0.017474 0.092067 -0.025011 0.000000 0.031448 0.000000
# 3 0.001116 -0.025011 0.015705 0.000000 -0.006746 0.000000
# 4 0.000000 0.000000 0.000000 0.019062 0.000000 0.051144
# 5 -0.002602 0.031448 -0.006746 0.000000 0.038256 0.000000
# 6 0.000000 0.000000 0.000000 0.051144 0.000000 -0.189269
#
#
# Mechanical properties :
#
#
# Convention : Reuss Voigt Hill
#
# Bulk Modulus (GPa) = 25.35439 62.79534 44.07487
# Shear Modulus (GPa) = 58.06059 23.06741 40.56400
#
# Velocity S-wave (km/s) = 5.23765 3.30138 4.37790
# Velocity P-wave (km/s) = 6.96828 6.64847 6.81026
#
# Compressibility (1/GPa) = 0.03944090
#
# Stress axis : x y z
#
# Youngs Moduli (GPa) = 69.40291 10.86160 63.67457
#
# Poissons Ratio (x) = 0.18980 -0.07103
# Poissons Ratio (y) = 1.21278 1.59257
# Poissons Ratio (z) = -0.07742 0.27166
#
# Static dielectric constant tensor:
#      x y z
#    x 1.831240 0.000000 0.111060 
#    y 0.000000 1.779960 0.000000 
#    z 0.111060 0.000000 1.967710 
# 
# From -- ./inp_files/42166.got.cif
#   From: 2010.05.17/outbox.cif.g08.bks.cpg/sg15_22_cif.got.tgz:42166.got - 2010.06.03 18:47:42.
