data_PCOD9284205
_publ_section_title
;
Structure prediction by ZEFSAII (Michael W. Deem and Ramdas Pophale) SiO2 
 PCOD9284205
Probable space group: C 2/C
;
_chemical_formula_sum "Si O2"
_cell_formula_units_Z 64
_cell_length_a 19.142149
_cell_length_b 5.326944
_cell_length_c 25.176582
_cell_angle_alpha 90.000000
_cell_angle_beta 75.373503
_cell_angle_gamma 90.000000
_cell_volume 2484.037137
_symmetry_space_group_name_H-M "C 2/C"
_symmetry_group_IT_number 15
_symmetry_cell_setting 'monoclinic'
loop_
_space_group_symop_operation_xyz
x,y,z
-x,y,1/2-z
-x,-y,-z
x,-y,1/2+z
1/2+x,1/2+y,z
1/2-x,1/2+y,1/2-z
1/2-x,1/2-y,-z
1/2+x,1/2-y,1/2+z
loop_
_atom_site_type_symbol
_atom_site_label
_atom_site_fract_x
_atom_site_fract_y
_atom_site_fract_z
Si Si1 0.837695 0.670744 0.043811
Si Si2 0.314289 0.240784 0.165570
Si Si3 0.511172 0.679149 0.948972
Si Si4 0.285697 0.115821 0.285129
Si Si5 0.465099 0.629777 0.669054
Si Si6 0.151785 0.197417 0.523301
Si Si7 0.876465 0.893868 0.352992
Si Si8 0.576487 0.228135 0.731616
O O1 0.797957 0.665647 0.108633
O O2 0.813075 0.441500 0.011013
O O3 0.920980 0.650116 0.048750
O O4 0.836238 0.942445 0.013843
O O5 0.271090 0.152284 0.225684
O O6 0.288792 0.532085 0.172836
O O7 0.396571 0.195752 0.168331
O O8 0.526240 0.518243 0.892464
O O9 0.432109 0.791429 0.958000
O O10 0.500000 0.500000 0.000000
O O11 0.177124 0.819434 0.183766
O O12 0.352350 0.922406 0.271029
O O13 0.544781 0.743655 0.663448
O O14 0.438697 0.451583 0.722044
O O15 0.161725 0.136164 0.583452
O O16 0.907287 0.165080 0.330388
O O17 0.500000 0.088787 0.750000
#
# Coordination Sequence:
#
# PCOD9284205 Si02
#       8
#     8   8   8   8   8   8   8   8
#     4  10  22  41  64  97 134 182 234 285 347 427
#     4  11  25  42  68 100 135 186 230 284 354 432
#     4   8  16  32  60  93 132 174 224 286 348 413
#     4  12  26  43  67 100 140 182 231 291 364 421
#     4   9  18  40  62  96 134 169 228 285 348 425
#     4  10  21  40  67  96 134 179 232 292 352 414
#     4  10  23  42  69  98 138 174 232 297 353 421
#     4  10  22  39  66  99 131 177 230 290 355 427
#
# _framework density 25.764509
#
# number of rings (size 3 to 8) (size 9 to 14) (size 15 to 20)
#    0.000    2.000    1.250    1.125    3.500    4.000 
#    0.000    1.250    0.000    0.000    0.000    0.000 
#    0.000    0.000    0.000    0.000    0.000    0.000 
#
# Total GULP energy -178261.604065 kJ/mol
# GULP energy per Si atom -5570.675127 kJ/mol
# Density = 2.570587 g / cm^3
# Si number density = 25.764509 Si / 1000 Ang^3
#
#
#
# Elastic Constant Matrix: (Units=GPa)
#
#
# Indices 1 2 3 4 5 6 
#
# 1 129.3392 20.9969 31.2458 -0.0002 9.8467 0.0000
# 2 20.9969 74.9972 59.7031 -0.0005 -1.2620 0.0001
# 3 31.2458 59.7031 208.7152 -0.0011 -0.1522 -0.0004
# 4 -0.0002 -0.0005 -0.0011 35.0380 -0.0004 -10.2262
# 5 9.8467 -1.2620 -0.1522 -0.0004 36.4056 -0.0001
# 6 0.0000 0.0001 -0.0004 -10.2262 -0.0001 19.6745
#
#
#
# Elastic Compliance Matrix: (Units=1/GPa)
#
#
# Indices 1 2 3 4 5 6 
#
# 1 0.008380 -0.001794 -0.000743 0.000000 -0.002332 0.000000
# 2 -0.001794 0.017662 -0.004783 0.000000 0.001077 0.000000
# 3 -0.000743 -0.004783 0.006271 0.000000 0.000061 0.000000
# 4 0.000000 0.000000 0.000000 0.033644 0.000000 0.017487
# 5 -0.002332 0.001077 0.000061 0.000000 0.028137 0.000000
# 6 0.000000 0.000000 0.000000 0.017487 0.000000 0.059917
#
#
# Mechanical properties :
#
#
# Convention : Reuss Voigt Hill
#
# Bulk Modulus (GPa) = 56.58428 70.77144 63.67786
# Shear Modulus (GPa) = 28.64675 38.29735 33.47205
#
# Velocity S-wave (km/s) = 3.33809 3.85962 3.60829
# Velocity P-wave (km/s) = 6.07181 6.88407 6.49066
#
# Compressibility (1/GPa) = 0.01767275
#
# Stress axis : x y z
#
# Youngs Moduli (GPa) = 119.33388 56.62006 159.47371
#
# Poissons Ratio (x) = 0.10156 0.11850
# Poissons Ratio (y) = 0.21406 0.76273
# Poissons Ratio (z) = 0.08868 0.27080
#
# Static dielectric constant tensor:
#      x y z
#    x 1.967850 0.000020 -0.117860 
#    y 0.000020 2.278110 0.000010 
#    z -0.117860 0.000010 1.948060 
# 
# From -- ./inp_files/297979.got.cif
#   From: 2010.05.17/outbox.cif.g08.bks.cpg/sg15_149_cif.got.tgz:297979.got - 2010.06.03 18:47:42.
