data_PCOD9284004
_publ_section_title
;
Structure prediction by ZEFSAII (Michael W. Deem and Ramdas Pophale) SiO2 
 PCOD9284004
Probable space group: C 2/C
;
_chemical_formula_sum "Si O2"
_cell_formula_units_Z 52
_cell_length_a 26.539119
_cell_length_b 5.999125
_cell_length_c 20.298075
_cell_angle_alpha 90.000000
_cell_angle_beta 42.358683
_cell_angle_gamma 90.000000
_cell_volume 2177.412650
_symmetry_space_group_name_H-M "C 2/C"
_symmetry_group_IT_number 15
_symmetry_cell_setting 'monoclinic'
loop_
_space_group_symop_operation_xyz
x,y,z
-x,y,1/2-z
-x,-y,-z
x,-y,1/2+z
1/2+x,1/2+y,z
1/2-x,1/2+y,1/2-z
1/2-x,1/2-y,-z
1/2+x,1/2-y,1/2+z
loop_
_atom_site_type_symbol
_atom_site_label
_atom_site_fract_x
_atom_site_fract_y
_atom_site_fract_z
Si Si1 0.598139 0.774336 0.743964
Si Si2 0.036879 0.750012 0.451247
Si Si3 0.372465 0.621888 0.380903
Si Si4 0.684748 0.443888 0.347285
Si Si5 0.257295 0.831841 0.140062
Si Si6 0.000000 0.591723 0.750000
Si Si7 0.753145 0.213045 0.589761
O O1 0.560536 0.744890 0.851547
O O2 0.595156 0.567453 0.696737
O O3 0.688108 0.792839 0.669402
O O4 0.549434 0.956689 0.753481
O O5 0.113693 0.782370 0.418725
O O6 0.000000 0.500000 0.500000
O O7 0.000000 0.000000 0.500000
O O8 0.440728 0.755476 0.345159
O O9 0.320592 0.767054 0.381864
O O10 0.314479 0.561382 0.494067
O O11 0.677767 0.688398 0.386906
O O12 0.713566 0.435281 0.245408
O O13 0.750079 0.355774 0.331642
O O14 0.282272 0.029193 0.067468
#
# Coordination Sequence:
#
# PCOD9284004 Si02
#       7
#     8   8   8   8   8   4   8
#     4  10  25  44  67 103 144 189 250 304 376 447
#     4  11  29  47  72 108 148 193 244 309 373 455
#     4  10  24  42  67 101 139 193 237 313 364 447
#     4  11  22  38  72  97 145 184 240 301 380 442
#     4  10  21  40  66 106 135 186 239 312 376 452
#     4  12  24  42  74  92 146 198 248 296 382 442
#     4  10  22  42  67 101 142 178 251 301 371 448
#
# _framework density 23.881557000000001
#
# number of rings (size 3 to 8) (size 9 to 14) (size 15 to 20)
#    0.000    1.538    1.538    1.385    6.462    2.462 
#    0.000    4.615    0.000    0.000    0.000    0.000 
#    0.000    0.000    0.000    0.000    0.000    0.000 
#
# Total GULP energy -144762.682652 kJ/mol
# GULP energy per Si atom -5567.795487 kJ/mol
# Density = 2.382720 g / cm^3
# Si number density = 23.881557 Si / 1000 Ang^3
#
#
#
# Elastic Constant Matrix: (Units=GPa)
#
#
# Indices 1 2 3 4 5 6 
#
# 1 88.9735 27.5630 29.2677 -0.0167 11.6037 0.0395
# 2 27.5630 95.9081 43.9439 -0.0204 -4.1263 0.0385
# 3 29.2677 43.9439 92.7306 -0.0038 -2.8448 0.0099
# 4 -0.0167 -0.0204 -0.0038 29.1838 0.0098 0.6284
# 5 11.6037 -4.1263 -2.8448 0.0098 23.1629 -0.0210
# 6 0.0395 0.0385 0.0099 0.6284 -0.0210 48.4981
#
#
#
# Elastic Compliance Matrix: (Units=1/GPa)
#
#
# Indices 1 2 3 4 5 6 
#
# 1 0.014312 -0.002910 -0.003387 0.000009 -0.008104 -0.000012
# 2 -0.002910 0.013970 -0.005602 0.000006 0.003258 -0.000006
# 3 -0.003387 -0.005602 0.014584 -0.000005 0.002490 0.000005
# 4 0.000009 0.000006 -0.000005 0.034275 -0.000019 -0.000444
# 5 -0.008104 0.003258 0.002490 -0.000019 0.048119 0.000025
# 6 -0.000012 -0.000006 0.000005 -0.000444 0.000025 0.020625
#
#
# Mechanical properties :
#
#
# Convention : Reuss Voigt Hill
#
# Bulk Modulus (GPa) = 52.44226 53.24015 52.84121
# Shear Modulus (GPa) = 28.40310 31.95812 30.18061
#
# Velocity S-wave (km/s) = 3.45241 3.66210 3.55880
# Velocity P-wave (km/s) = 6.15623 6.34217 6.24989
#
# Compressibility (1/GPa) = 0.01906859
#
# Stress axis : x y z
#
# Youngs Moduli (GPa) = 69.87275 71.58319 68.56935
#
# Poissons Ratio (x) = 0.20831 0.23222
# Poissons Ratio (y) = 0.20333 0.38410
# Poissons Ratio (z) = 0.23664 0.40099
#
# Static dielectric constant tensor:
#      x y z
#    x 1.876790 0.000130 -0.035580 
#    y 0.000130 2.231940 -0.000210 
#    z -0.035580 -0.000210 1.942960 
# 
# From -- ./inp_files/256712.got.cif
#   From: 2010.05.17/outbox.cif.g08.bks.cpg/sg15_129_cif.got.tgz:256712.got - 2010.06.03 18:47:42.
