data_PCOD9284694
_publ_section_title
;
Structure prediction by ZEFSAII (Michael W. Deem and Ramdas Pophale) SiO2 
 PCOD9284694
Probable space group: C 2/C
;
_chemical_formula_sum "Si O2"
_cell_formula_units_Z 48
_cell_length_a 11.471035
_cell_length_b 11.572306
_cell_length_c 16.772172
_cell_angle_alpha 90.000000
_cell_angle_beta 62.776489
_cell_angle_gamma 90.000000
_cell_volume 1979.818178
_symmetry_space_group_name_H-M "C 2/C"
_symmetry_group_IT_number 15
_symmetry_cell_setting 'monoclinic'
loop_
_space_group_symop_operation_xyz
x,y,z
-x,y,1/2-z
-x,-y,-z
x,-y,1/2+z
1/2+x,1/2+y,z
1/2-x,1/2+y,1/2-z
1/2-x,1/2-y,-z
1/2+x,1/2-y,1/2+z
loop_
_atom_site_type_symbol
_atom_site_label
_atom_site_fract_x
_atom_site_fract_y
_atom_site_fract_z
Si Si1 0.390225 0.184252 0.340966
Si Si2 0.969386 0.100977 0.444248
Si Si3 0.208687 0.480602 0.497782
Si Si4 0.677628 0.255612 0.780598
Si Si5 0.062686 0.445655 0.391086
Si Si6 0.092680 0.721976 0.398962
O O1 0.500000 0.122925 0.250000
O O2 0.296179 0.243597 0.307370
O O3 0.477032 0.263449 0.373326
O O4 0.297948 0.103681 0.424175
O O5 0.841906 0.047188 0.441488
O O6 0.935591 0.210241 0.511325
O O7 0.077187 0.146565 0.345956
O O8 0.000000 0.000000 0.500000
O O9 0.150465 0.411447 0.440372
O O10 0.092006 0.570756 0.551954
O O11 0.610755 0.130991 0.804583
O O12 0.756466 0.263008 0.673842
O O13 0.077409 0.583798 0.389151
#
# Coordination Sequence:
#
# PCOD9284694 Si02
#       6
#     8   8   8   8   8   8
#     4   9  19  38  62  92 127 177 222 270 314 381
#     4  12  25  39  69 102 131 168 216 281 323 378
#     4  10  21  41  63  92 130 166 223 261 326 393
#     4  11  23  41  68  95 133 173 220 275 327 381
#     4  10  23  42  66  87 130 180 215 264 328 399
#     4  10  25  43  63  97 138 170 223 264 331 401
#
# _framework density 24.24465
#
# number of rings (size 3 to 8) (size 9 to 14) (size 15 to 20)
#    0.000    1.667    1.667    3.000    4.667    5.333 
#    0.000    2.500    0.000    0.000    0.000    0.000 
#    0.000    0.000    0.000    0.000    0.000    0.000 
#
# Total GULP energy -133740.145259 kJ/mol
# GULP energy per Si atom -5572.506052 kJ/mol
# Density = 2.418947 g / cm^3
# Si number density = 24.244650 Si / 1000 Ang^3
#
#
#
# Elastic Constant Matrix: (Units=GPa)
#
#
# Indices 1 2 3 4 5 6 
#
# 1 58.1712 -8.9408 3.5844 0.0000 -24.6830 0.0000
# 2 -8.9408 83.7766 3.1216 0.0000 -18.8265 0.0000
# 3 3.5844 3.1216 58.0316 0.0000 -26.9968 0.0000
# 4 0.0000 0.0000 0.0000 28.0018 0.0000 0.1177
# 5 -24.6830 -18.8265 -26.9968 0.0000 45.0358 0.0000
# 6 0.0000 0.0000 0.0000 0.1177 0.0000 11.9422
#
#
#
# Elastic Compliance Matrix: (Units=1/GPa)
#
#
# Indices 1 2 3 4 5 6 
#
# 1 0.028209 0.008141 0.009146 0.000000 0.024346 0.000000
# 2 0.008141 0.015806 0.005265 0.000000 0.014225 0.000000
# 3 0.009146 0.005265 0.027373 0.000000 0.023622 0.000000
# 4 0.000000 0.000000 0.000000 0.035713 0.000000 -0.000352
# 5 0.024346 0.014225 0.023622 0.000000 0.055655 0.000000
# 6 0.000000 0.000000 0.000000 -0.000352 0.000000 0.083740
#
#
# Mechanical properties :
#
#
# Convention : Reuss Voigt Hill
#
# Bulk Modulus (GPa) = 8.58442 21.72331 15.15387
# Shear Modulus (GPa) = 20.81392 30.47692 25.64542
#
# Velocity S-wave (km/s) = 2.93319 3.54935 3.25588
# Velocity P-wave (km/s) = 3.87555 5.07707 4.51644
#
# Compressibility (1/GPa) = 0.11649005
#
# Stress axis : x y z
#
# Youngs Moduli (GPa) = 35.44994 63.26783 36.53213
#
# Poissons Ratio (x) = -0.51505 -0.33411
# Poissons Ratio (y) = -0.28859 -0.19233
# Poissons Ratio (z) = -0.32422 -0.33308
#
# Static dielectric constant tensor:
#      x y z
#    x 2.052270 0.000000 0.051220 
#    y 0.000000 1.978970 0.000000 
#    z 0.051220 0.000000 2.094700 
# 
# From -- ./inp_files/236847.got.cif
#   From: 2010.05.17/outbox.cif.g08.bks.cpg/sg15_119_cif.got.tgz:236847.got - 2010.06.03 18:47:42.
