data_PCOD9284263
_publ_section_title
;
Structure prediction by ZEFSAII (Michael W. Deem and Ramdas Pophale) SiO2 
 PCOD9284263
Probable space group: C 2/C
;
_chemical_formula_sum "Si O2"
_cell_formula_units_Z 64
_cell_length_a 21.182896
_cell_length_b 14.666802
_cell_length_c 14.866715
_cell_angle_alpha 90.000000
_cell_angle_beta 137.341711
_cell_angle_gamma 90.000000
_cell_volume 3129.859655
_symmetry_space_group_name_H-M "C 2/C"
_symmetry_group_IT_number 15
_symmetry_cell_setting 'monoclinic'
loop_
_space_group_symop_operation_xyz
x,y,z
-x,y,1/2-z
-x,-y,-z
x,-y,1/2+z
1/2+x,1/2+y,z
1/2-x,1/2+y,1/2-z
1/2-x,1/2-y,-z
1/2+x,1/2-y,1/2+z
loop_
_atom_site_type_symbol
_atom_site_label
_atom_site_fract_x
_atom_site_fract_y
_atom_site_fract_z
Si Si1 0.613045 0.561619 0.683768
Si Si2 0.289799 0.979675 0.474927
Si Si3 0.142224 0.746526 0.130297
Si Si4 0.407982 0.399789 0.978928
Si Si5 0.707287 0.897930 0.833576
Si Si6 0.567059 0.233779 0.620645
Si Si7 0.895161 0.536106 0.902168
Si Si8 0.224100 0.187160 0.389997
O O1 0.694922 0.566387 0.840807
O O2 0.630711 0.646132 0.635120
O O3 0.615787 0.468807 0.628491
O O4 0.509954 0.569365 0.617884
O O5 0.323993 0.933115 0.602138
O O6 0.364403 0.968058 0.473496
O O7 0.257900 0.085389 0.449063
O O8 0.166092 0.695893 0.249551
O O9 0.221053 0.718093 0.142481
O O10 0.042932 0.716050 0.985589
O O11 0.319496 0.398284 0.950366
O O12 0.421085 0.299160 0.952846
O O13 0.672983 0.970747 0.724221
O O14 0.612821 0.136901 0.647426
O O15 0.616737 0.289842 0.752555
O O16 0.000000 0.500000 0.000000
O O17 0.250000 0.250000 0.500000
#
# Coordination Sequence:
#
# PCOD9284263 Si02
#       8
#     8   8   8   8   8   8   8   8
#     4  10  21  41  67  97 125 178 222 278 342 408
#     4  12  25  42  69 100 137 175 229 280 342 414
#     4  11  23  43  68  94 134 180 225 274 347 402
#     4  10  21  40  68  92 133 169 222 279 341 403
#     4  12  24  43  66  97 136 182 220 281 339 405
#     4  11  21  42  70  92 130 180 216 279 342 398
#     4  12  23  44  68  95 135 182 228 277 338 400
#     4  12  24  42  65 103 133 170 228 284 341 406
#
# _framework density 20.448201999999998
#
# number of rings (size 3 to 8) (size 9 to 14) (size 15 to 20)
#    0.000    0.750    6.250    1.500    1.750    2.000 
#    0.000    3.750    0.000    0.000    0.000    0.000 
#    0.000    0.000    0.000    0.000    0.000    0.000 
#
# Total GULP energy -178734.800667 kJ/mol
# GULP energy per Si atom -5585.462521 kJ/mol
# Density = 2.040166 g / cm^3
# Si number density = 20.448202 Si / 1000 Ang^3
#
#
#
# Elastic Constant Matrix: (Units=GPa)
#
#
# Indices 1 2 3 4 5 6 
#
# 1 66.7016 -14.1722 53.5550 0.0000 10.8213 0.0000
# 2 -14.1722 74.5454 -3.8561 0.0000 4.1052 0.0000
# 3 53.5550 -3.8561 74.8137 0.0000 4.7825 0.0000
# 4 0.0000 0.0000 0.0000 35.1813 0.0000 -1.7882
# 5 10.8213 4.1052 4.7825 0.0000 36.6588 0.0000
# 6 0.0000 0.0000 0.0000 -1.7882 0.0000 16.5035
#
#
#
# Elastic Compliance Matrix: (Units=1/GPa)
#
#
# Indices 1 2 3 4 5 6 
#
# 1 0.040305 0.006714 -0.027931 0.000000 -0.009006 0.000000
# 2 0.006714 0.014664 -0.003851 0.000000 -0.003122 0.000000
# 3 -0.027931 -0.003851 0.032882 0.000000 0.004386 0.000000
# 4 0.000000 0.000000 0.000000 0.028582 0.000000 0.003097
# 5 -0.009006 -0.003122 0.004386 0.000000 0.029714 0.000000
# 6 0.000000 0.000000 0.000000 0.003097 0.000000 0.060929
#
#
# Mechanical properties :
#
#
# Convention : Reuss Voigt Hill
#
# Bulk Modulus (GPa) = 26.51419 31.90159 29.20789
# Shear Modulus (GPa) = 18.53346 29.70432 24.11889
#
# Velocity S-wave (km/s) = 3.01385 3.81551 3.43813
# Velocity P-wave (km/s) = 5.01056 5.91996 5.48414
#
# Compressibility (1/GPa) = 0.03771566
#
# Stress axis : x y z
#
# Youngs Moduli (GPa) = 24.81064 68.19541 30.41206
#
# Poissons Ratio (x) = -0.45785 0.84943
# Poissons Ratio (y) = -0.16657 0.11711
# Poissons Ratio (z) = 0.69298 0.26260
#
# Static dielectric constant tensor:
#      x y z
#    x 1.756740 0.000000 0.055550 
#    y 0.000000 1.740710 0.000000 
#    z 0.055550 0.000000 1.746410 
# 
# From -- ./inp_files/173681.got.cif
#   From: 2010.05.17/outbox.cif.g08.bks.cpg/sg15_87_cif.got.tgz:173681.got - 2010.06.03 18:47:42.
