data_PCOD9284878
_publ_section_title
;
Structure prediction by ZEFSAII (Michael W. Deem and Ramdas Pophale) SiO2 
 PCOD9284878
Probable space group: C 2/C
;
_chemical_formula_sum "Si O2"
_cell_formula_units_Z 40
_cell_length_a 24.747084
_cell_length_b 17.137295
_cell_length_c 13.685805
_cell_angle_alpha 90.000000
_cell_angle_beta 157.464241
_cell_angle_gamma 90.000000
_cell_volume 2224.488196
_symmetry_space_group_name_H-M "C 2/C"
_symmetry_group_IT_number 15
_symmetry_cell_setting 'monoclinic'
loop_
_space_group_symop_operation_xyz
x,y,z
-x,y,1/2-z
-x,-y,-z
x,-y,1/2+z
1/2+x,1/2+y,z
1/2-x,1/2+y,1/2-z
1/2-x,1/2-y,-z
1/2+x,1/2-y,1/2+z
loop_
_atom_site_type_symbol
_atom_site_label
_atom_site_fract_x
_atom_site_fract_y
_atom_site_fract_z
Si Si1 0.580389 0.501653 0.784670
Si Si2 0.366570 0.234380 0.276261
Si Si3 0.891251 0.435170 0.850235
Si Si4 0.356284 0.830231 0.962031
Si Si5 0.584430 0.624989 0.125337
O O1 0.500000 0.481921 0.750000
O O2 0.487025 0.566445 0.572458
O O3 0.598050 0.426280 0.745686
O O4 0.733103 0.538664 0.060734
O O5 0.426456 0.147435 0.357446
O O6 0.308720 0.223741 0.290905
O O7 0.481961 0.301608 0.467842
O O8 0.250000 0.250000 0.000000
O O9 0.894100 0.411369 0.969272
O O10 0.000000 0.500000 0.000000
O O11 0.233539 0.845270 0.833607
O O12 0.500000 0.799849 0.250000
#
# Coordination Sequence:
#
# PCOD9284878 Si02
#       5
#     8   8   8   8   8
#     4  11  21  40  68  94 129 168 217 265 325 392
#     4  10  22  41  66  90 126 170 219 261 321 387
#     4  10  21  41  65  91 130 167 214 267 322 381
#     4  10  22  40  64  90 132 168 211 272 327 374
#     4  11  22  40  67  93 128 172 212 269 323 386
#
# _framework density 17.981663999999999
#
# number of rings (size 3 to 8) (size 9 to 14) (size 15 to 20)
#    1.200    0.400    4.000    1.200    0.000    1.600 
#    3.600    0.000    4.400    0.000    0.000    0.000 
#    0.000    0.000    0.000    0.000    0.000    0.000 
#
# Total GULP energy -111443.748342 kJ/mol
# GULP energy per Si atom -5572.187417 kJ/mol
# Density = 1.794074 g / cm^3
# Si number density = 17.981664 Si / 1000 Ang^3
#
#
#
# Elastic Constant Matrix: (Units=GPa)
#
#
# Indices 1 2 3 4 5 6 
#
# 1 125.6446 54.3768 37.9791 0.0000 3.8913 0.0000
# 2 54.3768 109.7645 27.6438 0.0000 5.4875 0.0000
# 3 37.9791 27.6438 65.0891 0.0000 -5.1645 0.0000
# 4 0.0000 0.0000 0.0000 34.9913 0.0000 6.4598
# 5 3.8913 5.4875 -5.1645 0.0000 31.5623 0.0000
# 6 0.0000 0.0000 0.0000 6.4598 0.0000 28.1783
#
#
#
# Elastic Compliance Matrix: (Units=1/GPa)
#
#
# Indices 1 2 3 4 5 6 
#
# 1 0.011356 -0.004317 -0.004908 0.000000 -0.001453 0.000000
# 2 -0.004317 0.012044 -0.002756 0.000000 -0.002013 0.000000
# 3 -0.004908 -0.002756 0.019740 0.000000 0.004314 0.000000
# 4 0.000000 0.000000 0.000000 0.029841 0.000000 -0.006841
# 5 -0.001453 -0.002013 0.004314 0.000000 0.032918 0.000000
# 6 0.000000 0.000000 0.000000 -0.006841 0.000000 0.037057
#
#
# Mechanical properties :
#
#
# Convention : Reuss Voigt Hill
#
# Bulk Modulus (GPa) = 52.14245 60.05526 56.09886
# Shear Modulus (GPa) = 28.85009 30.97962 29.91486
#
# Velocity S-wave (km/s) = 4.00986 4.15522 4.08319
# Velocity P-wave (km/s) = 7.10628 7.51610 7.31406
#
# Compressibility (1/GPa) = 0.01917823
#
# Stress axis : x y z
#
# Youngs Moduli (GPa) = 88.06106 83.03115 50.65858
#
# Poissons Ratio (x) = 0.35844 0.24862
# Poissons Ratio (y) = 0.38016 0.13961
# Poissons Ratio (z) = 0.43219 0.22882
#
# Static dielectric constant tensor:
#      x y z
#    x 1.618400 0.000000 -0.033260 
#    y 0.000000 1.621020 0.000000 
#    z -0.033260 0.000000 1.603320 
# 
# From -- ./inp_files/178728.got.cif
#   From: 2010.05.17/outbox.cif.g08.bks.cpg/sg15_90_cif.got.tgz:178728.got - 2010.06.03 18:47:42.
