data_PCOD9284170
_publ_section_title
;
Structure prediction by ZEFSAII (Michael W. Deem and Ramdas Pophale) SiO2 
 PCOD9284170
Probable space group: C 2/C
;
_chemical_formula_sum "Si O2"
_cell_formula_units_Z 64
_cell_length_a 26.650454
_cell_length_b 10.812681
_cell_length_c 20.290096
_cell_angle_alpha 90.000000
_cell_angle_beta 150.980494
_cell_angle_gamma 90.000000
_cell_volume 2836.350908
_symmetry_space_group_name_H-M "C 2/C"
_symmetry_group_IT_number 15
_symmetry_cell_setting 'monoclinic'
loop_
_space_group_symop_operation_xyz
x,y,z
-x,y,1/2-z
-x,-y,-z
x,-y,1/2+z
1/2+x,1/2+y,z
1/2-x,1/2+y,1/2-z
1/2-x,1/2-y,-z
1/2+x,1/2-y,1/2+z
loop_
_atom_site_type_symbol
_atom_site_label
_atom_site_fract_x
_atom_site_fract_y
_atom_site_fract_z
Si Si1 0.049399 0.513319 0.466183
Si Si2 0.164733 0.728714 0.665492
Si Si3 0.125535 0.249380 0.537231
Si Si4 0.643278 0.624958 0.007382
Si Si5 0.523979 0.560983 0.202422
Si Si6 0.193548 0.796829 0.842252
Si Si7 0.117246 0.628243 0.408231
Si Si8 0.824624 0.481907 0.152273
O O1 0.092439 0.612408 0.567242
O O2 0.081269 0.373564 0.518159
O O3 0.106569 0.552078 0.463694
O O4 0.927638 0.519546 0.311155
O O5 0.285377 0.691927 0.814015
O O6 0.157297 0.824451 0.597052
O O7 0.142069 0.789476 0.710030
O O8 0.040185 0.153151 0.417771
O O9 0.186782 0.292339 0.541052
O O10 0.526667 0.573012 0.866452
O O11 0.663197 0.739865 0.981511
O O12 0.723520 0.519103 0.077822
O O13 0.500000 0.593730 0.250000
O O14 0.642727 0.589810 0.322158
O O15 0.170901 0.666224 0.851715
O O16 0.170982 0.554882 0.411179
O O17 0.000000 0.650135 0.250000
#
# Coordination Sequence:
#
# PCOD9284170 Si02
#       8
#     8   8   8   8   8   8   8   8
#     4  10  21  40  67  93 124 175 216 278 324 394
#     4   9  24  43  64  94 130 171 228 268 335 392
#     4  10  23  41  62  93 133 166 221 273 332 387
#     4  11  22  44  65  97 135 177 216 279 331 392
#     4  12  26  41  67  96 136 176 216 276 330 400
#     4  10  24  41  61 101 124 181 213 267 343 378
#     4   9  21  39  64  94 130 167 221 271 330 390
#     4  11  21  37  68  98 128 168 227 273 321 393
#
# _framework density 22.564204
#
# number of rings (size 3 to 8) (size 9 to 14) (size 15 to 20)
#    0.750    1.000    2.500    0.750    5.250    3.500 
#    0.000    7.500    0.000    0.000    0.000    0.000 
#    0.000    0.000    0.000    0.000    0.000    0.000 
#
# Total GULP energy -178803.785797 kJ/mol
# GULP energy per Si atom -5587.618306 kJ/mol
# Density = 2.251285 g / cm^3
# Si number density = 22.564204 Si / 1000 Ang^3
#
#
#
# Elastic Constant Matrix: (Units=GPa)
#
#
# Indices 1 2 3 4 5 6 
#
# 1 96.1317 24.1678 8.6446 0.0000 -8.5006 0.0000
# 2 24.1678 70.2728 30.8259 0.0000 -5.0410 0.0000
# 3 8.6446 30.8259 66.8389 0.0000 1.6929 0.0000
# 4 0.0000 0.0000 0.0000 33.7585 0.0000 3.6970
# 5 -8.5006 -5.0410 1.6929 0.0000 27.7842 0.0000
# 6 0.0000 0.0000 0.0000 3.6970 0.0000 21.1206
#
#
#
# Elastic Compliance Matrix: (Units=1/GPa)
#
#
# Indices 1 2 3 4 5 6 
#
# 1 0.011610 -0.003885 0.000219 0.000000 0.002834 0.000000
# 2 -0.003885 0.019537 -0.008581 0.000000 0.002879 0.000000
# 3 0.000219 -0.008581 0.018958 0.000000 -0.002645 0.000000
# 4 0.000000 0.000000 0.000000 0.030201 0.000000 -0.005287
# 5 0.002834 0.002879 -0.002645 0.000000 0.037542 0.000000
# 6 0.000000 0.000000 0.000000 -0.005287 0.000000 0.048272
#
#
# Mechanical properties :
#
#
# Convention : Reuss Voigt Hill
#
# Bulk Modulus (GPa) = 39.04828 40.05778 39.55303
# Shear Modulus (GPa) = 25.10641 27.83969 26.47305
#
# Velocity S-wave (km/s) = 3.33928 3.51636 3.42896
# Velocity P-wave (km/s) = 5.67545 5.85472 5.76578
#
# Compressibility (1/GPa) = 0.02560932
#
# Stress axis : x y z
#
# Youngs Moduli (GPa) = 86.13155 51.18466 52.74956
#
# Poissons Ratio (x) = 0.19888 -0.01153
# Poissons Ratio (y) = 0.33466 0.45263
# Poissons Ratio (z) = -0.01883 0.43921
#
# Static dielectric constant tensor:
#      x y z
#    x 1.834280 0.000000 0.007780 
#    y 0.000000 1.818400 0.000000 
#    z 0.007780 0.000000 1.863610 
# 
# From -- ./inp_files/257534.got.cif
#   From: 2010.05.17/outbox.cif.g08.bks.cpg/sg15_129_cif.got.tgz:257534.got - 2010.06.03 18:47:42.
