data_PCOD9284178
_publ_section_title
;
Structure prediction by ZEFSAII (Michael W. Deem and Ramdas Pophale) SiO2 
 PCOD9284178
Probable space group: C 2/C
;
_chemical_formula_sum "Si O2"
_cell_formula_units_Z 64
_cell_length_a 8.790458
_cell_length_b 29.512910
_cell_length_c 22.590672
_cell_angle_alpha 90.000000
_cell_angle_beta 146.130516
_cell_angle_gamma 90.000000
_cell_volume 3266.209499
_symmetry_space_group_name_H-M "C 2/C"
_symmetry_group_IT_number 15
_symmetry_cell_setting 'monoclinic'
loop_
_space_group_symop_operation_xyz
x,y,z
-x,y,1/2-z
-x,-y,-z
x,-y,1/2+z
1/2+x,1/2+y,z
1/2-x,1/2+y,1/2-z
1/2-x,1/2-y,-z
1/2+x,1/2-y,1/2+z
loop_
_atom_site_type_symbol
_atom_site_label
_atom_site_fract_x
_atom_site_fract_y
_atom_site_fract_z
Si Si1 0.262454 0.059415 0.879221
Si Si2 0.765298 0.457828 0.632592
Si Si3 0.884074 0.218357 0.153591
Si Si4 0.688377 0.227957 0.656723
Si Si5 0.908395 0.223811 0.499989
Si Si6 0.852765 0.648276 0.509649
Si Si7 0.250682 0.146324 0.128517
Si Si8 0.248622 0.505773 0.505020
O O1 0.454895 0.104687 0.939091
O O2 0.000000 0.063895 0.750000
O O3 0.459658 0.018588 0.921916
O O4 0.194033 0.043006 0.924748
O O5 0.828547 0.405279 0.643062
O O6 0.488159 0.468173 0.579104
O O7 0.752150 0.476083 0.561993
O O8 0.000000 0.478388 0.750000
O O9 0.000000 0.197917 0.250000
O O10 0.114435 0.236439 0.183594
O O11 0.718256 0.264180 0.116060
O O12 0.697662 0.179621 0.064219
O O13 0.509774 0.182774 0.604216
O O14 0.000000 0.215054 0.750000
O O15 0.385108 0.253316 0.927771
O O16 0.750000 0.250000 0.500000
O O17 0.799189 0.174294 0.448206
O O18 0.545554 0.642511 0.435199
O O19 0.500000 0.165399 0.250000
#
# Coordination Sequence:
#
# PCOD9284178 Si02
#       8
#     8   8   8   8   8   8   8   8
#     4  11  23  42  67  94 131 169 208 262 325 381
#     4  10  21  40  67  94 129 169 210 262 322 379
#     4  11  23  39  61  90 123 163 213 263 317 381
#     4  11  21  39  62  84 121 165 204 257 316 375
#     4  11  22  37  59  86 120 158 210 258 312 377
#     4  11  22  42  60  91 126 165 210 266 316 388
#     4  11  22  39  65  89 126 165 211 267 328 377
#     4  10  22  41  66  98 128 164 216 260 313 394
#
# _framework density 19.594579
#
# number of rings (size 3 to 8) (size 9 to 14) (size 15 to 20)
#    0.000    1.250    3.750    3.000    1.750    2.000 
#    2.250    1.875    0.000    0.000    0.000    0.000 
#    0.000    0.000    0.000    0.000    0.000    0.000 
#
# Total GULP energy -178167.009667 kJ/mol
# GULP energy per Si atom -5567.719052 kJ/mol
# Density = 1.954998 g / cm^3
# Si number density = 19.594579 Si / 1000 Ang^3
#
#
#
# Elastic Constant Matrix: (Units=GPa)
#
#
# Indices 1 2 3 4 5 6 
#
# 1 105.0669 26.8287 36.4557 -0.0001 -4.8105 0.0001
# 2 26.8287 83.6234 32.4547 0.0000 -8.1424 0.0003
# 3 36.4557 32.4547 121.2905 0.0012 4.4256 0.0026
# 4 -0.0001 0.0000 0.0012 27.0385 0.0000 2.2525
# 5 -4.8105 -8.1424 4.4256 0.0000 31.5325 0.0007
# 6 0.0001 0.0003 0.0026 2.2525 0.0007 17.8706
#
#
#
# Elastic Compliance Matrix: (Units=1/GPa)
#
#
# Indices 1 2 3 4 5 6 
#
# 1 0.011150 -0.002356 -0.002775 0.000000 0.001482 0.000000
# 2 -0.002356 0.014355 -0.003272 0.000000 0.003806 0.000000
# 3 -0.002775 -0.003272 0.010052 0.000000 -0.002679 -0.000001
# 4 0.000000 0.000000 0.000000 0.037377 0.000000 -0.004711
# 5 0.001482 0.003806 -0.002679 0.000000 0.033298 -0.000001
# 6 0.000000 0.000000 -0.000001 -0.004711 -0.000001 0.056552
#
#
# Mechanical properties :
#
#
# Convention : Reuss Voigt Hill
#
# Bulk Modulus (GPa) = 53.32981 55.71766 54.52374
# Shear Modulus (GPa) = 26.90497 29.57110 28.23803
#
# Velocity S-wave (km/s) = 3.70953 3.88899 3.80032
# Velocity P-wave (km/s) = 6.75450 6.97586 6.86607
#
# Compressibility (1/GPa) = 0.01875124
#
# Stress axis : x y z
#
# Youngs Moduli (GPa) = 89.68566 69.66382 99.48332
#
# Poissons Ratio (x) = 0.16412 0.27607
# Poissons Ratio (y) = 0.21129 0.32549
# Poissons Ratio (z) = 0.24888 0.22792
#
# Static dielectric constant tensor:
#      x y z
#    x 1.703960 0.000000 0.022920 
#    y 0.000000 1.743630 0.000000 
#    z 0.022920 0.000000 1.727250 
# 
# From -- ./inp_files/266746.got.cif
#   From: 2010.05.17/outbox.cif.g08.bks.cpg/sg15_134_cif.got.tgz:266746.got - 2010.06.03 18:47:42.
