data_PCOD9284431
_publ_section_title
;
Structure prediction by ZEFSAII (Michael W. Deem and Ramdas Pophale) SiO2 
 PCOD9284431
Probable space group: C 2/C
;
_chemical_formula_sum "Si O2"
_cell_formula_units_Z 56
_cell_length_a 24.508958
_cell_length_b 17.953231
_cell_length_c 15.883299
_cell_angle_alpha 90.000000
_cell_angle_beta 21.477155
_cell_angle_gamma 90.000000
_cell_volume 2558.843681
_symmetry_space_group_name_H-M "C 2/C"
_symmetry_group_IT_number 15
_symmetry_cell_setting 'monoclinic'
loop_
_space_group_symop_operation_xyz
x,y,z
-x,y,1/2-z
-x,-y,-z
x,-y,1/2+z
1/2+x,1/2+y,z
1/2-x,1/2+y,1/2-z
1/2-x,1/2-y,-z
1/2+x,1/2-y,1/2+z
loop_
_atom_site_type_symbol
_atom_site_label
_atom_site_fract_x
_atom_site_fract_y
_atom_site_fract_z
Si Si1 0.116148 0.270779 0.813228
Si Si2 0.624119 0.466419 0.199437
Si Si3 0.600256 0.689087 0.682150
Si Si4 0.201321 0.993335 0.767975
Si Si5 0.298335 0.606521 0.487959
Si Si6 0.968458 0.573511 0.989339
Si Si7 0.098750 0.151847 0.980489
O O1 0.280883 0.261805 0.538342
O O2 0.023313 0.233823 0.869196
O O3 0.082843 0.356358 0.880776
O O4 0.110290 0.223607 0.906398
O O5 0.679183 0.383601 0.106755
O O6 0.451948 0.459013 0.475109
O O7 0.702720 0.506953 0.165104
O O8 0.651153 0.519358 0.080655
O O9 0.500000 0.659483 0.750000
O O10 0.340988 0.952368 0.607969
O O11 0.179256 0.080614 0.822726
O O12 0.421228 0.637485 0.246866
O O13 0.330593 0.650876 0.527821
O O14 0.122578 0.601966 0.725739
O O15 0.000000 0.500000 0.000000
#
# Coordination Sequence:
#
# PCOD9284431 Si02
#       7
#     8   8   8   8   8   8   8
#     4  11  26  44  64 102 144 182 237 289 367 427
#     4  10  21  42  68 101 133 180 242 289 344 432
#     4  11  24  40  69 103 134 181 232 301 359 431
#     4  10  21  40  71  97 137 180 233 288 356 421
#     4  10  23  39  71  98 138 188 236 286 352 426
#     4  12  24  42  69 105 144 185 230 302 359 417
#     4  10  21  45  67  98 135 193 231 282 355 444
#
# _framework density 21.884885000000001
#
# number of rings (size 3 to 8) (size 9 to 14) (size 15 to 20)
#    0.000    1.429    2.857    1.714    6.000    1.143 
#    0.000    2.857    0.000    0.000    0.000    0.000 
#    0.000    0.000    0.000    0.000    0.000    0.000 
#
# Total GULP energy -156219.765849 kJ/mol
# GULP energy per Si atom -5579.277352 kJ/mol
# Density = 2.183507 g / cm^3
# Si number density = 21.884885 Si / 1000 Ang^3
#
#
#
# Elastic Constant Matrix: (Units=GPa)
#
#
# Indices 1 2 3 4 5 6 
#
# 1 125.1050 57.2959 45.7595 0.0000 -2.4476 -0.0001
# 2 57.2959 135.4853 28.1354 -0.0003 16.4237 0.0001
# 3 45.7595 28.1354 99.2615 -0.0001 -10.2589 0.0000
# 4 0.0000 -0.0003 -0.0001 16.1531 0.0000 10.0803
# 5 -2.4476 16.4237 -10.2589 0.0000 24.6462 0.0001
# 6 -0.0001 0.0001 0.0000 10.0803 0.0001 32.2707
#
#
#
# Elastic Compliance Matrix: (Units=1/GPa)
#
#
# Indices 1 2 3 4 5 6 
#
# 1 0.011409 -0.004338 -0.003777 0.000000 0.002452 0.000000
# 2 -0.004338 0.010605 -0.001861 0.000000 -0.008272 0.000000
# 3 -0.003777 -0.001861 0.012991 0.000000 0.006273 0.000000
# 4 0.000000 0.000000 0.000000 0.076898 0.000000 -0.024020
# 5 0.002452 -0.008272 0.006273 0.000000 0.048941 0.000000
# 6 0.000000 0.000000 0.000000 -0.024020 0.000000 0.038491
#
#
# Mechanical properties :
#
#
# Convention : Reuss Voigt Hill
#
# Bulk Modulus (GPa) = 66.42797 69.13705 67.78251
# Shear Modulus (GPa) = 22.29120 29.85806 26.07463
#
# Velocity S-wave (km/s) = 3.19496 3.69768 3.45548
# Velocity P-wave (km/s) = 6.63548 7.06331 6.85273
#
# Compressibility (1/GPa) = 0.01505390
#
# Stress axis : x y z
#
# Youngs Moduli (GPa) = 87.64761 94.29928 76.97477
#
# Poissons Ratio (x) = 0.40905 0.29072
# Poissons Ratio (y) = 0.38020 0.14325
# Poissons Ratio (z) = 0.33102 0.17549
#
# Static dielectric constant tensor:
#      x y z
#    x 1.913790 0.000000 -0.029370 
#    y 0.000000 1.809830 0.000000 
#    z -0.029370 0.000000 1.856150 
# 
# From -- ./inp_files/222921.got.cif
#   From: 2010.05.17/outbox.cif.g08.bks.cpg/sg15_112_cif.got.tgz:222921.got - 2010.06.03 18:47:42.
