data_PCOD9284830
_publ_section_title
;
Structure prediction by ZEFSAII (Michael W. Deem and Ramdas Pophale) SiO2 
 PCOD9284830
Probable space group: C 2/C
;
_chemical_formula_sum "Si O2"
_cell_formula_units_Z 56
_cell_length_a 28.273767
_cell_length_b 7.725587
_cell_length_c 18.449680
_cell_angle_alpha 90.000000
_cell_angle_beta 148.998053
_cell_angle_gamma 90.000000
_cell_volume 2075.715827
_symmetry_space_group_name_H-M "C 2/C"
_symmetry_group_IT_number 15
_symmetry_cell_setting 'monoclinic'
loop_
_space_group_symop_operation_xyz
x,y,z
-x,y,1/2-z
-x,-y,-z
x,-y,1/2+z
1/2+x,1/2+y,z
1/2-x,1/2+y,1/2-z
1/2-x,1/2-y,-z
1/2+x,1/2-y,1/2+z
loop_
_atom_site_type_symbol
_atom_site_label
_atom_site_fract_x
_atom_site_fract_y
_atom_site_fract_z
Si Si1 0.795146 0.853351 0.993977
Si Si2 0.443574 0.536562 0.248474
Si Si3 0.595962 0.970582 0.841460
Si Si4 0.971025 0.837428 0.015431
Si Si5 0.579242 0.838970 0.181405
Si Si6 0.236597 0.638887 0.126308
Si Si7 0.765838 0.746096 0.809552
O O1 0.838385 0.022620 0.084659
O O2 0.878458 0.716792 0.091501
O O3 0.750000 0.750000 0.000000
O O4 0.745999 0.868799 0.852495
O O5 0.500000 0.527843 0.250000
O O6 0.465587 0.379892 0.332722
O O7 0.467364 0.708764 0.322579
O O8 0.500000 0.013880 0.750000
O O9 0.595712 0.995228 0.754074
O O10 0.667810 0.103031 0.971186
O O11 0.977298 0.677407 0.967663
O O12 0.868564 0.803199 0.916302
O O13 0.000000 0.000000 0.000000
O O14 0.673793 0.737732 0.285124
O O15 0.250257 0.444483 0.178118
O O16 0.204599 0.737551 0.157116
#
# Coordination Sequence:
#
# PCOD9284830 Si02
#       7
#     8   8   8   8   8   8   8
#     4  11  24  40  64  95 131 175 226 270 334 405
#     4  11  19  36  65  93 126 172 216 271 330 399
#     4  11  24  44  64  97 138 171 220 281 340 400
#     4   9  20  38  63  94 133 165 216 275 328 399
#     4  10  22  42  62  96 132 172 223 272 333 403
#     4  10  23  42  68  92 136 175 226 277 331 403
#     4  10  21  41  64  98 131 175 223 276 333 394
#
# _framework density 26.978643999999999
#
# number of rings (size 3 to 8) (size 9 to 14) (size 15 to 20)
#    0.000    1.714    1.429    3.000    2.000    3.429 
#   15.429    0.714    0.000    0.000    0.000    0.000 
#    0.000    0.000    0.000    0.000    0.000    0.000 
#
# Total GULP energy -156339.304621 kJ/mol
# GULP energy per Si atom -5583.546594 kJ/mol
# Density = 2.691724 g / cm^3
# Si number density = 26.978644 Si / 1000 Ang^3
#
#
#
# Elastic Constant Matrix: (Units=GPa)
#
#
# Indices 1 2 3 4 5 6 
#
# 1 176.1318 20.2501 36.5995 0.0000 -31.1898 0.0000
# 2 20.2501 100.7565 15.3027 0.0000 2.2399 0.0000
# 3 36.5995 15.3027 52.1300 0.0000 -32.0078 0.0000
# 4 0.0000 0.0000 0.0000 18.3820 0.0000 -25.7508
# 5 -31.1898 2.2399 -32.0078 0.0000 55.6934 0.0000
# 6 0.0000 0.0000 0.0000 -25.7508 0.0000 1.1265
#
#
#
# Elastic Compliance Matrix: (Units=1/GPa)
#
#
# Indices 1 2 3 4 5 6 
#
# 1 0.006817 -0.000908 -0.003327 0.000000 0.001942 0.000000
# 2 -0.000908 0.010931 -0.004873 0.000000 -0.003749 0.000000
# 3 -0.003327 -0.004873 0.033881 0.000000 0.017805 0.000000
# 4 0.000000 0.000000 0.000000 -0.001754 0.000000 -0.040086
# 5 0.001942 -0.003749 0.017805 0.000000 0.029427 0.000000
# 6 0.000000 0.000000 0.000000 -0.040086 0.000000 -0.028615
#
#
# Mechanical properties :
#
#
# Convention : Reuss Voigt Hill
#
# Bulk Modulus (GPa) = 29.92836 52.59143 41.25990
# Shear Modulus (GPa) = 62.46748 32.16478 47.31613
#
# Velocity S-wave (km/s) = 4.81712 3.45662 4.19243
# Velocity P-wave (km/s) = 6.48514 5.95541 6.22591
#
# Compressibility (1/GPa) = 0.03341312
#
# Stress axis : x y z
#
# Youngs Moduli (GPa) = 146.68629 91.48436 29.51476
#
# Poissons Ratio (x) = 0.08307 0.09820
# Poissons Ratio (y) = 0.13319 0.14382
# Poissons Ratio (z) = 0.48806 0.44580
#
# Static dielectric constant tensor:
#      x y z
#    x 2.542440 0.000000 -0.748930 
#    y 0.000000 2.225440 0.000000 
#    z -0.748930 0.000000 3.565900 
# 
# From -- ./inp_files/222101.got.cif
#   From: 2010.05.17/outbox.cif.g08.bks.cpg/sg15_112_cif.got.tgz:222101.got - 2010.06.03 18:47:42.
