data_PCOD9284145
_publ_section_title
;
Structure prediction by ZEFSAII (Michael W. Deem and Ramdas Pophale) SiO2 
 PCOD9284145
Probable space group: C 2/C
;
_chemical_formula_sum "Si O2"
_cell_formula_units_Z 44
_cell_length_a 28.429103
_cell_length_b 13.823433
_cell_length_c 11.514214
_cell_angle_alpha 90.000000
_cell_angle_beta 22.857018
_cell_angle_gamma 90.000000
_cell_volume 1757.637250
_symmetry_space_group_name_H-M "C 2/C"
_symmetry_group_IT_number 15
_symmetry_cell_setting 'monoclinic'
loop_
_space_group_symop_operation_xyz
x,y,z
-x,y,1/2-z
-x,-y,-z
x,-y,1/2+z
1/2+x,1/2+y,z
1/2-x,1/2+y,1/2-z
1/2-x,1/2-y,-z
1/2+x,1/2-y,1/2+z
loop_
_atom_site_type_symbol
_atom_site_label
_atom_site_fract_x
_atom_site_fract_y
_atom_site_fract_z
Si Si1 0.788671 0.005679 0.093553
Si Si2 0.493641 0.762990 0.951007
Si Si3 0.755444 0.681935 0.737410
Si Si4 0.831578 0.846363 0.299587
Si Si5 0.000000 0.116145 0.750000
Si Si6 0.900336 0.370507 0.372942
O O1 0.696951 0.214499 0.385823
O O2 0.768352 0.893718 0.107033
O O3 0.782273 0.069097 0.991414
O O4 0.907623 0.049816 0.886915
O O5 0.609297 0.804596 0.617346
O O6 0.540273 0.688784 0.944790
O O7 0.434605 0.690426 0.990736
O O8 0.442707 0.850029 0.144990
O O9 0.676450 0.630437 0.815831
O O10 0.827005 0.467855 0.563382
O O11 0.750000 0.750000 0.500000
O O12 0.000000 0.361695 0.250000
#
# Coordination Sequence:
#
# PCOD9284145 Si02
#       6
#     8   8   8   8   4   8
#     4  11  24  39  66 100 128 171 226 268 333 392
#     4  10  21  40  67  89 134 177 212 270 336 392
#     4  11  22  42  65 100 130 167 229 276 319 388
#     4   9  16  40  64  82 127 173 208 266 308 382
#     4  10  22  44  58  88 140 170 206 276 330 386
#     4  12  22  42  71  94 123 184 226 263 336 394
#
# _framework density 25.033607
#
# number of rings (size 3 to 8) (size 9 to 14) (size 15 to 20)
#    0.000    1.455    7.273    1.091    1.273    2.909 
#    4.909    3.636    0.000    0.000    0.000    0.000 
#    0.000    0.000    0.000    0.000    0.000    0.000 
#
# Total GULP energy -122827.970408 kJ/mol
# GULP energy per Si atom -5583.089564 kJ/mol
# Density = 2.497663 g / cm^3
# Si number density = 25.033607 Si / 1000 Ang^3
#
#
#
# Elastic Constant Matrix: (Units=GPa)
#
#
# Indices 1 2 3 4 5 6 
#
# 1 70.7694 -11.9139 7.4216 0.0000 -1.6543 0.0000
# 2 -11.9139 69.8598 -2.2059 0.0000 -5.6811 0.0000
# 3 7.4216 -2.2059 69.5280 0.0000 -5.7554 0.0000
# 4 0.0000 0.0000 0.0000 26.6150 0.0000 8.4160
# 5 -1.6543 -5.6811 -5.7554 0.0000 17.6667 0.0000
# 6 0.0000 0.0000 0.0000 8.4160 0.0000 17.9029
#
#
#
# Elastic Compliance Matrix: (Units=1/GPa)
#
#
# Indices 1 2 3 4 5 6 
#
# 1 0.014754 0.002619 -0.001344 0.000000 0.001786 0.000000
# 2 0.002619 0.015216 0.000646 0.000000 0.005349 0.000000
# 3 -0.001344 0.000646 0.014957 0.000000 0.004954 0.000000
# 4 0.000000 0.000000 0.000000 0.044133 0.000000 -0.020747
# 5 0.001786 0.005349 0.004954 0.000000 0.060105 0.000000
# 6 0.000000 0.000000 0.000000 -0.020747 0.000000 0.065610
#
#
# Mechanical properties :
#
#
# Convention : Reuss Voigt Hill
#
# Bulk Modulus (GPa) = 20.50481 21.86233 21.18357
# Shear Modulus (GPa) = 22.00804 26.89394 24.45099
#
# Velocity S-wave (km/s) = 2.96825 3.28123 3.12865
# Velocity P-wave (km/s) = 4.46721 4.80702 4.64023
#
# Compressibility (1/GPa) = 0.04876905
#
# Stress axis : x y z
#
# Youngs Moduli (GPa) = 67.77833 65.71861 66.85938
#
# Poissons Ratio (x) = -0.17211 0.08986
# Poissons Ratio (y) = -0.17751 -0.04319
# Poissons Ratio (z) = 0.09109 -0.04245
#
# Static dielectric constant tensor:
#      x y z
#    x 2.126820 0.000000 0.002160 
#    y 0.000000 1.988650 0.000000 
#    z 0.002160 0.000000 2.024010 
# 
# From -- ./inp_files/126696.got.cif
#   From: 2010.05.17/outbox.cif.g08.bks.cpg/sg15_64_cif.got.tgz:126696.got - 2010.06.03 18:47:42.
