data_PCOD9284570
_publ_section_title
;
Structure prediction by ZEFSAII (Michael W. Deem and Ramdas Pophale) SiO2 
 PCOD9284570
Probable space group: C 2/C
;
_chemical_formula_sum "Si O2"
_cell_formula_units_Z 44
_cell_length_a 5.601448
_cell_length_b 26.171831
_cell_length_c 12.611108
_cell_angle_alpha 90.000000
_cell_angle_beta 98.231342
_cell_angle_gamma 90.000000
_cell_volume 1829.744206
_symmetry_space_group_name_H-M "C 2/C"
_symmetry_group_IT_number 15
_symmetry_cell_setting 'monoclinic'
loop_
_space_group_symop_operation_xyz
x,y,z
-x,y,1/2-z
-x,-y,-z
x,-y,1/2+z
1/2+x,1/2+y,z
1/2-x,1/2+y,1/2-z
1/2-x,1/2-y,-z
1/2+x,1/2-y,1/2+z
loop_
_atom_site_type_symbol
_atom_site_label
_atom_site_fract_x
_atom_site_fract_y
_atom_site_fract_z
Si Si1 0.188388 0.561847 0.626214
Si Si2 0.000000 0.332426 0.750000
Si Si3 0.879685 0.900061 0.856327
Si Si4 0.827744 0.835159 0.039060
Si Si5 0.422097 0.239126 0.412526
Si Si6 0.807413 0.979357 0.369910
O O1 0.199468 0.621793 0.601654
O O2 0.423731 0.538516 0.582520
O O3 0.246555 0.546186 0.751207
O O4 0.926819 0.539092 0.579686
O O5 0.123787 0.372176 0.835859
O O6 0.168152 0.293920 0.693385
O O7 0.000000 0.890873 0.750000
O O8 0.828704 0.959987 0.858719
O O9 0.985724 0.867780 0.962091
O O10 0.989686 0.795456 0.114499
O O11 0.640214 0.796286 0.970813
O O12 0.250000 0.250000 0.500000
#
# Coordination Sequence:
#
# PCOD9284570 Si02
#       6
#     8   4   8   8   8   8
#     4  10  21  41  61  97 124 177 202 270 309 389
#     4  10  22  38  68  88 120 166 218 262 344 376
#     4  11  21  40  63  90 122 173 206 268 318 401
#     4  10  24  39  63  91 127 161 222 265 334 375
#     4  10  22  44  61  93 124 163 218 284 318 400
#     4  10  22  40  64  92 143 162 222 252 324 387
#
# _framework density 24.047077999999999
#
# number of rings (size 3 to 8) (size 9 to 14) (size 15 to 20)
#    0.000    1.818    1.818    2.182    2.545    2.909 
#    3.273    0.000    0.000    0.000    0.000    0.000 
#    0.000    0.000    0.000    0.000    0.000    0.000 
#
# Total GULP energy -122582.440263 kJ/mol
# GULP energy per Si atom -5571.929103 kJ/mol
# Density = 2.399235 g / cm^3
# Si number density = 24.047078 Si / 1000 Ang^3
#
#
#
# Elastic Constant Matrix: (Units=GPa)
#
#
# Indices 1 2 3 4 5 6 
#
# 1 101.2349 42.2025 -8.7847 0.0000 -20.6541 0.0000
# 2 42.2025 224.9740 43.7553 0.0000 -12.3589 0.0000
# 3 -8.7847 43.7553 80.3771 0.0000 -15.7197 0.0000
# 4 0.0000 0.0000 0.0000 21.9795 0.0000 -25.7908
# 5 -20.6541 -12.3589 -15.7197 0.0000 24.4085 0.0000
# 6 0.0000 0.0000 0.0000 -25.7908 0.0000 26.2654
#
#
#
# Elastic Compliance Matrix: (Units=1/GPa)
#
#
# Indices 1 2 3 4 5 6 
#
# 1 0.014795 -0.003173 0.006268 0.000000 0.014949 0.000000
# 2 -0.003173 0.005669 -0.003886 0.000000 -0.002317 0.000000
# 3 0.006268 -0.003886 0.018185 0.000000 0.015048 0.000000
# 4 0.000000 0.000000 0.000000 -0.298920 0.000000 -0.293519
# 5 0.014949 -0.002317 0.015048 0.000000 0.062137 0.000000
# 6 0.000000 0.000000 0.000000 -0.293519 0.000000 -0.250143
#
#
# Mechanical properties :
#
#
# Convention : Reuss Voigt Hill
#
# Bulk Modulus (GPa) = 26.97890 62.32581 44.65236
# Shear Modulus (GPa) = -11.51170 36.49154 12.48992
#
# Velocity S-wave (km/s) = -2.19033 3.89974 2.28150
# Velocity P-wave (km/s) = 2.20155 6.80087 5.05463
#
# Compressibility (1/GPa) = 0.03706600
#
# Stress axis : x y z
#
# Youngs Moduli (GPa) = 67.59190 176.40813 54.99100
#
# Poissons Ratio (x) = 0.55977 -0.34468
# Poissons Ratio (y) = 0.21448 0.21369
# Poissons Ratio (z) = -0.42367 0.68551
#
# Static dielectric constant tensor:
#      x y z
#    x 1.969760 0.000000 -0.080080 
#    y 0.000000 1.868230 0.000000 
#    z -0.080080 0.000000 1.880770 
# 
# From -- ./inp_files/129389.got.cif
#   From: 2010.05.17/outbox.cif.g08.bks.cpg/sg15_65_cif.got.tgz:129389.got - 2010.06.03 18:47:42.
