data_PCOD9284654
_publ_section_title
;
Structure prediction by ZEFSAII (Michael W. Deem and Ramdas Pophale) SiO2 
 PCOD9284654
Probable space group: C 2/C
;
_chemical_formula_sum "Si O2"
_cell_formula_units_Z 44
_cell_length_a 16.179145
_cell_length_b 8.197910
_cell_length_c 23.342761
_cell_angle_alpha 90.000000
_cell_angle_beta 42.569717
_cell_angle_gamma 90.000000
_cell_volume 2094.451347
_symmetry_space_group_name_H-M "C 2/C"
_symmetry_group_IT_number 15
_symmetry_cell_setting 'monoclinic'
loop_
_space_group_symop_operation_xyz
x,y,z
-x,y,1/2-z
-x,-y,-z
x,-y,1/2+z
1/2+x,1/2+y,z
1/2-x,1/2+y,1/2-z
1/2-x,1/2-y,-z
1/2+x,1/2-y,1/2+z
loop_
_atom_site_type_symbol
_atom_site_label
_atom_site_fract_x
_atom_site_fract_y
_atom_site_fract_z
Si Si1 0.098340 0.983920 0.826337
Si Si2 0.982317 0.679340 0.574704
Si Si3 0.814625 0.664830 0.764026
Si Si4 0.500000 0.992590 0.250000
Si Si5 0.655201 0.114754 0.972515
Si Si6 0.914021 0.220978 0.873662
O O1 0.005677 0.864174 0.907964
O O2 0.183412 0.857616 0.747934
O O3 0.182772 0.085089 0.826466
O O4 0.029305 0.102743 0.819015
O O5 0.894858 0.602651 0.668473
O O6 0.907289 0.676761 0.553934
O O7 0.101859 0.567915 0.508344
O O8 0.891448 0.615009 0.779737
O O9 0.554833 0.113576 0.174845
O O10 0.614974 0.228441 0.046198
O O11 0.800924 0.131478 0.900770
#
# Coordination Sequence:
#
# PCOD9284654 Si02
#       6
#     8   8   8   4   8   8
#     4  10  22  40  63  93 123 161 212 244 320 355
#     4   9  21  41  61  90 123 167 205 256 302 371
#     4  10  22  40  61  91 123 160 205 261 298 370
#     4  12  22  42  62  90 128 160 216 256 314 360
#     4  10  21  41  63  87 127 164 207 251 311 367
#     4  11  23  37  65  93 122 169 203 255 312 372
#
# _framework density 21.007888000000001
#
# number of rings (size 3 to 8) (size 9 to 14) (size 15 to 20)
#    1.091    0.727    1.818    2.182    2.545    2.182 
#    0.000    0.000    0.000    0.000    0.000    0.000 
#    0.000    0.000    0.000    0.000    0.000    0.000 
#
# Total GULP energy -122730.604061 kJ/mol
# GULP energy per Si atom -5578.663821 kJ/mol
# Density = 2.096007 g / cm^3
# Si number density = 21.007888 Si / 1000 Ang^3
#
#
#
# Elastic Constant Matrix: (Units=GPa)
#
#
# Indices 1 2 3 4 5 6 
#
# 1 122.4284 49.7479 2.5900 0.0000 -9.5289 0.0000
# 2 49.7479 76.5622 -5.6062 0.0000 -10.8447 0.0001
# 3 2.5900 -5.6062 13.8850 0.0000 6.5633 0.0000
# 4 0.0000 0.0000 0.0000 -38.5738 0.0000 -32.5660
# 5 -9.5289 -10.8447 6.5633 0.0000 34.5276 0.0000
# 6 0.0000 0.0001 0.0000 -32.5660 0.0000 28.8752
#
#
#
# Elastic Compliance Matrix: (Units=1/GPa)
#
#
# Indices 1 2 3 4 5 6 
#
# 1 0.011581 -0.007701 -0.006193 0.000000 0.001954 0.000000
# 2 -0.007701 0.018979 0.008006 0.000000 0.002314 0.000000
# 3 -0.006193 0.008006 0.083533 0.000000 -0.015073 0.000000
# 4 0.000000 0.000000 0.000000 -0.013280 0.000000 -0.014977
# 5 0.001954 0.002314 -0.015073 0.000000 0.033094 0.000000
# 6 0.000000 0.000000 0.000000 -0.014977 0.000000 0.017740
#
#
# Mechanical properties :
#
#
# Convention : Reuss Voigt Hill
#
# Bulk Modulus (GPa) = 9.77374 34.03766 21.90570
# Shear Modulus (GPa) = 25.31257 16.04206 20.67731
#
# Velocity S-wave (km/s) = 3.47494 2.76637 3.14070
# Velocity P-wave (km/s) = 4.55662 5.14210 4.85819
#
# Compressibility (1/GPa) = 0.10231499
#
# Stress axis : x y z
#
# Youngs Moduli (GPa) = 86.35132 52.68864 11.97131
#
# Poissons Ratio (x) = 0.40578 0.07414
# Poissons Ratio (y) = 0.66503 -0.09584
# Poissons Ratio (z) = 0.53482 -0.42182
#
# Static dielectric constant tensor:
#      x y z
#    x 1.727170 0.000000 0.001520 
#    y 0.000000 1.742070 0.000000 
#    z 0.001520 0.000000 1.801040 
# 
# From -- ./inp_files/203078.got.cif
#   From: 2010.05.17/outbox.cif.g08.bks.cpg/sg15_102_cif.got.tgz:203078.got - 2010.06.03 18:47:42.
