data_PCOD9284172
_publ_section_title
;
Structure prediction by ZEFSAII (Michael W. Deem and Ramdas Pophale) SiO2 
 PCOD9284172
Probable space group: C 2/C
;
_chemical_formula_sum "Si O2"
_cell_formula_units_Z 64
_cell_length_a 11.559414
_cell_length_b 29.059504
_cell_length_c 14.062880
_cell_angle_alpha 90.000000
_cell_angle_beta 44.439339
_cell_angle_gamma 90.000000
_cell_volume 3307.437854
_symmetry_space_group_name_H-M "C 2/C"
_symmetry_group_IT_number 15
_symmetry_cell_setting 'monoclinic'
loop_
_space_group_symop_operation_xyz
x,y,z
-x,y,1/2-z
-x,-y,-z
x,-y,1/2+z
1/2+x,1/2+y,z
1/2-x,1/2+y,1/2-z
1/2-x,1/2-y,-z
1/2+x,1/2-y,1/2+z
loop_
_atom_site_type_symbol
_atom_site_label
_atom_site_fract_x
_atom_site_fract_y
_atom_site_fract_z
Si Si1 0.039862 0.050546 0.327463
Si Si2 0.072127 0.689502 0.602685
Si Si3 0.495395 0.368465 0.004045
Si Si4 0.823911 0.381415 0.185501
Si Si5 0.213539 0.510195 0.040571
Si Si6 0.456695 0.708486 0.386309
Si Si7 0.353486 0.009807 0.697734
Si Si8 0.839416 0.893706 0.404165
O O1 0.022914 0.084831 0.427035
O O2 0.000000 0.075551 0.250000
O O3 0.888167 0.014523 0.419079
O O4 0.215534 0.023548 0.230466
O O5 0.266937 0.692627 0.496850
O O6 0.021559 0.739241 0.589682
O O7 0.000000 0.689184 0.750000
O O8 0.996865 0.644080 0.599838
O O9 0.307614 0.367194 0.155520
O O10 0.600319 0.366855 0.038941
O O11 0.541563 0.327502 0.906116
O O12 0.825582 0.436860 0.187973
O O13 0.761589 0.367571 0.117453
O O14 0.178424 0.498268 0.170931
O O15 0.051231 0.497759 0.074026
O O16 0.240859 0.563496 0.003808
O O17 0.500000 0.707245 0.250000
O O18 0.000000 0.910587 0.250000
#
# Coordination Sequence:
#
# PCOD9284172 Si02
#       8
#     8   8   8   8   8   8   8   8
#     4  12  23  38  61  87 123 167 207 261 314 367
#     4  10  21  40  67  93 128 154 204 265 319 382
#     4  11  21  40  62  87 122 157 206 258 308 380
#     4  11  22  38  64  89 115 166 215 252 302 381
#     4  11  22  39  57  83 123 166 213 255 310 362
#     4  10  22  40  64  98 124 159 194 263 339 377
#     4  11  24  38  60  86 123 169 212 256 312 364
#     4  10  22  40  61  83 118 168 210 250 305 363
#
# _framework density 19.350325000000002
#
# number of rings (size 3 to 8) (size 9 to 14) (size 15 to 20)
#    0.000    1.250    3.750    3.375    3.500    2.000 
#    2.250    0.625    0.000    0.000    0.000    0.000 
#    0.000    0.000    0.000    0.000    0.000    0.000 
#
# Total GULP energy -178455.901834 kJ/mol
# GULP energy per Si atom -5576.746932 kJ/mol
# Density = 1.930628 g / cm^3
# Si number density = 19.350325 Si / 1000 Ang^3
#
#
#
# Elastic Constant Matrix: (Units=GPa)
#
#
# Indices 1 2 3 4 5 6 
#
# 1 109.5702 37.5734 29.9721 0.0000 8.6005 0.0000
# 2 37.5734 65.4520 1.9082 0.0000 10.6823 0.0000
# 3 29.9721 1.9082 57.9923 0.0000 3.0903 0.0000
# 4 0.0000 0.0000 0.0000 20.6583 0.0000 -7.0300
# 5 8.6005 10.6823 3.0903 0.0000 31.1149 0.0000
# 6 0.0000 0.0000 0.0000 -7.0300 0.0000 16.9588
#
#
#
# Elastic Compliance Matrix: (Units=1/GPa)
#
#
# Indices 1 2 3 4 5 6 
#
# 1 0.013593 -0.007524 -0.006751 0.000000 -0.000504 0.000000
# 2 -0.007524 0.020353 0.003499 0.000000 -0.005255 0.000000
# 3 -0.006751 0.003499 0.020692 0.000000 -0.001390 0.000000
# 4 0.000000 0.000000 0.000000 0.056357 0.000000 0.023362
# 5 -0.000504 -0.005255 -0.001390 0.000000 0.034220 0.000000
# 6 0.000000 0.000000 0.000000 0.023362 0.000000 0.068651
#
#
# Mechanical properties :
#
#
# Convention : Reuss Voigt Hill
#
# Bulk Modulus (GPa) = 30.22415 41.32465 35.77440
# Shear Modulus (GPa) = 20.28841 24.65045 22.46943
#
# Velocity S-wave (km/s) = 3.24154 3.57305 3.41132
# Velocity P-wave (km/s) = 5.44641 6.19876 5.83473
#
# Compressibility (1/GPa) = 0.03308612
#
# Stress axis : x y z
#
# Youngs Moduli (GPa) = 73.56802 49.13184 48.32877
#
# Poissons Ratio (x) = 0.36967 0.32626
# Poissons Ratio (y) = 0.55354 -0.16910
# Poissons Ratio (z) = 0.49664 -0.17191
#
# Static dielectric constant tensor:
#      x y z
#    x 1.709410 0.000000 -0.001920 
#    y 0.000000 1.679020 0.000000 
#    z -0.001920 0.000000 1.683530 
# 
# From -- ./inp_files/148760.got.cif
#   From: 2010.05.17/outbox.cif.g08.bks.cpg/sg15_75_cif.got.tgz:148760.got - 2010.06.03 18:47:42.
