data_PCOD9284327
_publ_section_title
;
Structure prediction by ZEFSAII (Michael W. Deem and Ramdas Pophale) SiO2 
 PCOD9284327
Probable space group: C 2/C
;
_chemical_formula_sum "Si O2"
_cell_formula_units_Z 40
_cell_length_a 5.068866
_cell_length_b 19.754273
_cell_length_c 15.273097
_cell_angle_alpha 90.000000
_cell_angle_beta 108.858094
_cell_angle_gamma 90.000000
_cell_volume 1447.231200
_symmetry_space_group_name_H-M "C 2/C"
_symmetry_group_IT_number 15
_symmetry_cell_setting 'monoclinic'
loop_
_space_group_symop_operation_xyz
x,y,z
-x,y,1/2-z
-x,-y,-z
x,-y,1/2+z
1/2+x,1/2+y,z
1/2-x,1/2+y,1/2-z
1/2-x,1/2-y,-z
1/2+x,1/2-y,1/2+z
loop_
_atom_site_type_symbol
_atom_site_label
_atom_site_fract_x
_atom_site_fract_y
_atom_site_fract_z
Si Si1 0.810413 0.025756 0.897340
Si Si2 0.944198 0.591149 0.419613
Si Si3 0.261350 0.135103 0.894057
Si Si4 0.500000 0.444690 0.750000
Si Si5 0.506267 0.227292 0.354583
Si Si6 0.000000 0.687487 0.750000
O O1 0.531993 0.983032 0.897575
O O2 0.844192 0.990612 0.804700
O O3 0.985648 0.094812 0.894190
O O4 0.000000 0.000000 0.000000
O O5 0.665750 0.602557 0.335422
O O6 0.110168 0.656576 0.404731
O O7 0.972967 0.602337 0.526501
O O8 0.335900 0.138343 0.799411
O O9 0.213035 0.213760 0.906250
O O10 0.500000 0.217796 0.250000
O O11 0.202297 0.264380 0.329975
#
# Coordination Sequence:
#
# PCOD9284327 Si02
#       6
#     8   8   8   4   8   4
#     4  10  25  46  68 100 140 190 245 300 368 442
#     4  11  24  46  71 104 149 191 251 308 372 451
#     4  10  24  44  71 107 141 201 245 308 374 438
#     4  12  25  42  72 104 138 191 232 304 378 429
#     4  10  21  40  69 105 144 192 241 309 371 436
#     4  10  23  40  68 112 152 187 250 312 364 471
#
# _framework density 27.638981999999999
#
# number of rings (size 3 to 8) (size 9 to 14) (size 15 to 20)
#    0.000    1.600    0.000    3.000    4.200   10.400 
#    0.000    0.000    0.000    0.000    0.000    0.000 
#    0.000    0.000    0.000    0.000    0.000    0.000 
#
# Total GULP energy -111389.445279 kJ/mol
# GULP energy per Si atom -5569.472264 kJ/mol
# Density = 2.757607 g / cm^3
# Si number density = 27.638982 Si / 1000 Ang^3
#
#
#
# Elastic Constant Matrix: (Units=GPa)
#
#
# Indices 1 2 3 4 5 6 
#
# 1 66.6444 9.7229 2.1209 0.0000 -6.8408 0.0000
# 2 9.7229 163.1618 55.2228 0.0000 -26.0887 0.0000
# 3 2.1209 55.2228 132.1414 0.0000 16.9180 0.0000
# 4 0.0000 0.0000 0.0000 42.0072 0.0000 5.5847
# 5 -6.8408 -26.0887 16.9180 0.0000 45.7553 0.0000
# 6 0.0000 0.0000 0.0000 5.5847 0.0000 -13.5464
#
#
#
# Elastic Compliance Matrix: (Units=1/GPa)
#
#
# Indices 1 2 3 4 5 6 
#
# 1 0.015303 -0.000456 -0.000330 0.000000 0.002150 0.000000
# 2 -0.000456 0.008720 -0.004477 0.000000 0.006559 0.000000
# 3 -0.000330 -0.004477 0.010263 0.000000 -0.006396 0.000000
# 4 0.000000 0.000000 0.000000 0.022568 0.000000 0.009304
# 5 0.002150 0.006559 -0.006396 0.000000 0.028282 0.000000
# 6 0.000000 0.000000 0.000000 0.009304 0.000000 -0.069984
#
#
# Mechanical properties :
#
#
# Convention : Reuss Voigt Hill
#
# Bulk Modulus (GPa) = 42.08893 55.12009 48.60451
# Shear Modulus (GPa) = 148.82401 34.50196 91.66298
#
# Velocity S-wave (km/s) = 7.34592 3.53697 5.76510
# Velocity P-wave (km/s) = 9.33870 6.05528 7.87012
#
# Compressibility (1/GPa) = 0.02375922
#
# Stress axis : x y z
#
# Youngs Moduli (GPa) = 65.34766 114.68016 97.44084
#
# Poissons Ratio (x) = 0.05235 0.03216
# Poissons Ratio (y) = 0.02983 0.43619
# Poissons Ratio (z) = 0.02157 0.51337
#
# Static dielectric constant tensor:
#      x y z
#    x 2.640000 0.000000 0.081390 
#    y 0.000000 2.405650 0.000000 
#    z 0.081390 0.000000 2.349140 
# 
# From -- ./inp_files/184413.got.cif
#   From: 2010.05.17/outbox.cif.g08.bks.cpg/sg15_93_cif.got.tgz:184413.got - 2010.06.03 18:47:42.
