data_PCOD9284627
_publ_section_title
;
Structure prediction by ZEFSAII (Michael W. Deem and Ramdas Pophale) SiO2 
 PCOD9284627
Probable space group: C 2/C
;
_chemical_formula_sum "Si O2"
_cell_formula_units_Z 40
_cell_length_a 26.085324
_cell_length_b 8.016334
_cell_length_c 10.501060
_cell_angle_alpha 90.000000
_cell_angle_beta 134.365187
_cell_angle_gamma 90.000000
_cell_volume 1569.817106
_symmetry_space_group_name_H-M "C 2/C"
_symmetry_group_IT_number 15
_symmetry_cell_setting 'monoclinic'
loop_
_space_group_symop_operation_xyz
x,y,z
-x,y,1/2-z
-x,-y,-z
x,-y,1/2+z
1/2+x,1/2+y,z
1/2-x,1/2+y,1/2-z
1/2-x,1/2-y,-z
1/2+x,1/2-y,1/2+z
loop_
_atom_site_type_symbol
_atom_site_label
_atom_site_fract_x
_atom_site_fract_y
_atom_site_fract_z
Si Si1 0.410486 0.901480 0.755975
Si Si2 0.565727 0.150682 0.926787
Si Si3 0.284852 0.351288 0.297146
Si Si4 0.162800 0.950152 0.375231
Si Si5 0.324245 0.217391 0.704372
O O1 0.384683 0.712657 0.688717
O O2 0.430442 0.987352 0.656766
O O3 0.356765 0.043718 0.717864
O O4 0.456451 0.876039 0.965702
O O5 0.500000 0.254084 0.750000
O O6 0.645670 0.229913 0.067598
O O7 0.283650 0.400906 0.147787
O O8 0.303479 0.493620 0.433073
O O9 0.206828 0.295238 0.208214
O O10 0.129278 0.120879 0.254541
O O11 0.250000 0.250000 0.500000
#
# Coordination Sequence:
#
# PCOD9284627 Si02
#       5
#     8   8   8   8   8
#     4  11  24  41  70  96 122 176 217 267 336 374
#     4  11  24  46  66  93 132 173 223 270 314 387
#     4  10  23  41  62  97 131 172 208 266 326 379
#     4  10  23  39  63  95 128 166 212 257 326 386
#     4  10  21  41  62  95 142 158 210 274 324 385
#
# _framework density 25.480675000000002
#
# number of rings (size 3 to 8) (size 9 to 14) (size 15 to 20)
#    0.000    1.600    4.000    0.600    8.400    3.200 
#    0.000    5.000    0.000    0.000    0.000    0.000 
#    0.000    0.000    0.000    0.000    0.000    0.000 
#
# Total GULP energy -111520.969847 kJ/mol
# GULP energy per Si atom -5576.048492 kJ/mol
# Density = 2.542268 g / cm^3
# Si number density = 25.480675 Si / 1000 Ang^3
#
#
#
# Elastic Constant Matrix: (Units=GPa)
#
#
# Indices 1 2 3 4 5 6 
#
# 1 91.6569 48.3223 18.2910 0.0000 -14.2742 0.0000
# 2 48.3223 163.3223 43.5680 0.0000 -1.7737 0.0000
# 3 18.2910 43.5680 115.2464 0.0000 -25.2316 0.0000
# 4 0.0000 0.0000 0.0000 41.7731 0.0000 -18.9932
# 5 -14.2742 -1.7737 -25.2316 0.0000 47.4711 0.0000
# 6 0.0000 0.0000 0.0000 -18.9932 0.0000 43.1072
#
#
#
# Elastic Compliance Matrix: (Units=1/GPa)
#
#
# Indices 1 2 3 4 5 6 
#
# 1 0.013635 -0.004061 0.000267 0.000000 0.004090 0.000000
# 2 -0.004061 0.008086 -0.002958 0.000000 -0.002491 0.000000
# 3 0.000267 -0.002958 0.011030 0.000000 0.005832 0.000000
# 4 0.000000 0.000000 0.000000 0.029936 0.000000 0.013190
# 5 0.004090 -0.002491 0.005832 0.000000 0.025302 0.000000
# 6 0.000000 0.000000 0.000000 0.013190 0.000000 0.029010
#
#
# Mechanical properties :
#
#
# Convention : Reuss Voigt Hill
#
# Bulk Modulus (GPa) = 51.95676 65.62092 58.78884
# Shear Modulus (GPa) = 36.51807 43.80658 40.16233
#
# Velocity S-wave (km/s) = 3.78983 4.15083 3.97443
# Velocity P-wave (km/s) = 6.29169 6.98439 6.64707
#
# Compressibility (1/GPa) = 0.01924677
#
# Stress axis : x y z
#
# Youngs Moduli (GPa) = 73.34110 123.66533 90.66341
#
# Poissons Ratio (x) = 0.50219 -0.02417
# Poissons Ratio (y) = 0.29783 0.26817
# Poissons Ratio (z) = -0.01955 0.36578
#
# Static dielectric constant tensor:
#      x y z
#    x 2.107410 0.000000 0.028120 
#    y 0.000000 2.170710 0.000000 
#    z 0.028120 0.000000 2.085250 
# 
# From -- ./inp_files/125722.got.cif
#   From: 2010.05.17/outbox.cif.g08.bks.cpg/sg15_63_cif.got.tgz:125722.got - 2010.06.03 18:47:42.
