data_PCOD9284704
_publ_section_title
;
Structure prediction by ZEFSAII (Michael W. Deem and Ramdas Pophale) SiO2 
 PCOD9284704
Probable space group: C 2/C
;
_chemical_formula_sum "Si O2"
_cell_formula_units_Z 32
_cell_length_a 10.665015
_cell_length_b 10.532722
_cell_length_c 12.354364
_cell_angle_alpha 90.000000
_cell_angle_beta 64.153490
_cell_angle_gamma 90.000000
_cell_volume 1248.959022
_symmetry_space_group_name_H-M "C 2/C"
_symmetry_group_IT_number 15
_symmetry_cell_setting 'monoclinic'
loop_
_space_group_symop_operation_xyz
x,y,z
-x,y,1/2-z
-x,-y,-z
x,-y,1/2+z
1/2+x,1/2+y,z
1/2-x,1/2+y,1/2-z
1/2-x,1/2-y,-z
1/2+x,1/2-y,1/2+z
loop_
_atom_site_type_symbol
_atom_site_label
_atom_site_fract_x
_atom_site_fract_y
_atom_site_fract_z
Si Si1 0.648675 0.368487 0.739968
Si Si2 0.098217 0.903933 0.395972
Si Si3 0.403346 0.808020 0.048594
Si Si4 0.832868 0.558758 0.974831
O O1 0.500000 0.325847 0.750000
O O2 0.629822 0.517044 0.777509
O O3 0.677178 0.282629 0.835515
O O4 0.758254 0.371954 0.603280
O O5 0.244519 0.901286 0.404444
O O6 0.004112 0.779046 0.436066
O O7 0.000000 0.000000 0.500000
O O8 0.324134 0.908202 0.002810
O O9 0.507828 0.895828 0.081733
#
# Coordination Sequence:
#
# PCOD9284704 Si02
#       4
#     8   8   8   8
#     4  11  23  40  66  96 129 180 213 265 344 385
#     4  10  21  41  63  93 132 167 214 274 323 387
#     4  10  24  41  66  94 132 172 221 275 325 390
#     4  11  23  43  66  97 132 171 225 268 331 401
#
# _framework density 25.621338000000002
#
# number of rings (size 3 to 8) (size 9 to 14) (size 15 to 20)
#    0.000    1.500    5.000    0.750    3.500    4.000 
#    0.000    3.750    0.000    0.000    0.000    0.000 
#    0.000    0.000    0.000    0.000    0.000    0.000 
#
# Total GULP energy -89510.853152 kJ/mol
# GULP energy per Si atom -5594.428322 kJ/mol
# Density = 2.556302 g / cm^3
# Si number density = 25.621338 Si / 1000 Ang^3
#
#
#
# Elastic Constant Matrix: (Units=GPa)
#
#
# Indices 1 2 3 4 5 6 
#
# 1 70.2852 19.5144 11.2769 0.0000 8.0700 0.0000
# 2 19.5144 154.2232 9.7470 0.0000 18.9765 0.0000
# 3 11.2769 9.7470 54.1885 0.0000 10.1424 0.0000
# 4 0.0000 0.0000 0.0000 15.7855 0.0000 -19.4746
# 5 8.0700 18.9765 10.1424 0.0000 23.7783 0.0000
# 6 0.0000 0.0000 0.0000 -19.4746 0.0000 33.2076
#
#
#
# Elastic Compliance Matrix: (Units=1/GPa)
#
#
# Indices 1 2 3 4 5 6 
#
# 1 0.015353 -0.001415 -0.002365 0.000000 -0.003072 0.000000
# 2 -0.001415 0.007323 -0.000020 0.000000 -0.005356 0.000000
# 3 -0.002365 -0.000020 0.020428 0.000000 -0.007894 0.000000
# 4 0.000000 0.000000 0.000000 0.229116 0.000000 0.134366
# 5 -0.003072 -0.005356 -0.007894 0.000000 0.050739 0.000000
# 6 0.000000 0.000000 0.000000 0.134366 0.000000 0.108913
#
#
# Mechanical properties :
#
#
# Convention : Reuss Voigt Hill
#
# Bulk Modulus (GPa) = 28.16748 39.97485 34.07117
# Shear Modulus (GPa) = 11.07892 30.43151 20.75522
#
# Velocity S-wave (km/s) = 2.08170 3.45010 2.84927
# Velocity P-wave (km/s) = 4.09824 5.61311 4.91440
#
# Compressibility (1/GPa) = 0.03550193
#
# Stress axis : x y z
#
# Youngs Moduli (GPa) = 65.13412 136.54789 48.95349
#
# Poissons Ratio (x) = 0.19324 0.11580
# Poissons Ratio (y) = 0.09217 0.00100
# Poissons Ratio (z) = 0.15407 0.00278
#
# Static dielectric constant tensor:
#      x y z
#    x 2.052260 0.000000 -0.010320 
#    y 0.000000 2.013580 0.000000 
#    z -0.010320 0.000000 2.028780 
# 
# From -- ./inp_files/83873.got.cif
#   From: 2010.05.17/outbox.cif.g08.bks.cpg/sg15_42_cif.got.tgz:83873.got - 2010.06.03 18:47:42.
