data_PCOD9284455
_publ_section_title
;
Structure prediction by ZEFSAII (Michael W. Deem and Ramdas Pophale) SiO2 
 PCOD9284455
Probable space group: C 2/C
;
_chemical_formula_sum "Si O2"
_cell_formula_units_Z 40
_cell_length_a 6.493805
_cell_length_b 23.787508
_cell_length_c 11.472165
_cell_angle_alpha 90.000000
_cell_angle_beta 80.278228
_cell_angle_gamma 90.000000
_cell_volume 1746.673049
_symmetry_space_group_name_H-M "C 2/C"
_symmetry_group_IT_number 15
_symmetry_cell_setting 'monoclinic'
loop_
_space_group_symop_operation_xyz
x,y,z
-x,y,1/2-z
-x,-y,-z
x,-y,1/2+z
1/2+x,1/2+y,z
1/2-x,1/2+y,1/2-z
1/2-x,1/2-y,-z
1/2+x,1/2-y,1/2+z
loop_
_atom_site_type_symbol
_atom_site_label
_atom_site_fract_x
_atom_site_fract_y
_atom_site_fract_z
Si Si1 0.799059 0.201186 0.401268
Si Si2 0.341923 0.461640 0.096994
Si Si3 0.500000 0.983340 0.750000
Si Si4 0.500000 0.743138 0.750000
Si Si5 0.911449 0.848049 0.450965
Si Si6 0.517675 0.093414 0.469724
O O1 0.750000 0.250000 0.500000
O O2 0.700386 0.224997 0.289565
O O3 0.667582 0.145113 0.430471
O O4 0.022570 0.176992 0.427923
O O5 0.230265 0.485944 0.224884
O O6 0.439127 0.399679 0.101812
O O7 0.500000 0.500000 0.000000
O O8 0.130280 0.448475 0.046495
O O9 0.523030 0.941833 0.640146
O O10 0.581159 0.703078 0.639376
O O11 0.690033 0.877316 0.468341
#
# Coordination Sequence:
#
# PCOD9284455 Si02
#       6
#     8   8   4   4   8   8
#     4   9  21  44  64  98 138 179 238 298 359 422
#     4  11  25  45  67 103 145 184 237 297 348 427
#     4  12  25  42  72 100 136 196 229 282 366 416
#     4  10  21  40  72  98 138 194 231 298 378 416
#     4  10  23  43  68 101 144 181 240 299 348 439
#     4  11  24  45  67 100 140 181 242 292 349 435
#
# _framework density 22.900677999999999
#
# number of rings (size 3 to 8) (size 9 to 14) (size 15 to 20)
#    0.000    1.600    2.000    1.200    2.800    4.000 
#    0.000   11.000    0.000    0.000    0.000    0.000 
#    0.000    0.000    0.000    0.000    0.000    0.000 
#
# Total GULP energy -111387.984828 kJ/mol
# GULP energy per Si atom -5569.399241 kJ/mol
# Density = 2.284855 g / cm^3
# Si number density = 22.900678 Si / 1000 Ang^3
#
#
#
# Elastic Constant Matrix: (Units=GPa)
#
#
# Indices 1 2 3 4 5 6 
#
# 1 104.1121 28.1490 49.8245 0.0000 3.5901 0.0000
# 2 28.1490 119.2615 28.9470 0.0000 -3.3000 0.0000
# 3 49.8245 28.9470 56.8965 0.0000 -0.8806 0.0000
# 4 0.0000 0.0000 0.0000 38.4213 0.0000 8.4797
# 5 3.5901 -3.3000 -0.8806 0.0000 40.7725 0.0000
# 6 0.0000 0.0000 0.0000 8.4797 0.0000 80.9210
#
#
#
# Elastic Compliance Matrix: (Units=1/GPa)
#
#
# Indices 1 2 3 4 5 6 
#
# 1 0.016689 -0.000497 -0.014390 0.000000 -0.001820 0.000000
# 2 -0.000497 0.009599 -0.004438 0.000000 0.000725 0.000000
# 3 -0.014390 -0.004438 0.032459 0.000000 0.001609 0.000000
# 4 0.000000 0.000000 0.000000 0.026643 0.000000 -0.002792
# 5 -0.001820 0.000725 0.001609 0.000000 0.024780 0.000000
# 6 0.000000 0.000000 0.000000 -0.002792 0.000000 0.012650
#
#
# Mechanical properties :
#
#
# Convention : Reuss Voigt Hill
#
# Bulk Modulus (GPa) = 49.75290 54.90121 52.32706
# Shear Modulus (GPa) = 29.73203 43.57960 36.65581
#
# Velocity S-wave (km/s) = 3.60711 4.36705 4.00514
# Velocity P-wave (km/s) = 6.25468 7.03234 6.65488
#
# Compressibility (1/GPa) = 0.02009933
#
# Stress axis : x y z
#
# Youngs Moduli (GPa) = 59.92149 104.17407 30.80764
#
# Poissons Ratio (x) = 0.05174 0.44331
# Poissons Ratio (y) = 0.02976 0.13671
# Poissons Ratio (z) = 0.86225 0.46229
#
# Static dielectric constant tensor:
#      x y z
#    x 2.014920 0.000000 0.093440 
#    y 0.000000 1.833810 0.000000 
#    z 0.093440 0.000000 2.175420 
# 
# From -- ./inp_files/73255.got.cif
#   From: 2010.05.17/outbox.cif.g08.bks.cpg/sg15_37_cif.got.tgz:73255.got - 2010.06.03 18:47:42.
