data_PCOD9284874
_publ_section_title
;
Structure prediction by ZEFSAII (Michael W. Deem and Ramdas Pophale) SiO2 
 PCOD9284874
Probable space group: C 2/C
;
_chemical_formula_sum "Si O2"
_cell_formula_units_Z 64
_cell_length_a 28.050970
_cell_length_b 9.412893
_cell_length_c 13.447238
_cell_angle_alpha 90.000000
_cell_angle_beta 129.756228
_cell_angle_gamma 90.000000
_cell_volume 2729.617763
_symmetry_space_group_name_H-M "C 2/C"
_symmetry_group_IT_number 15
_symmetry_cell_setting 'monoclinic'
loop_
_space_group_symop_operation_xyz
x,y,z
-x,y,1/2-z
-x,-y,-z
x,-y,1/2+z
1/2+x,1/2+y,z
1/2-x,1/2+y,1/2-z
1/2-x,1/2-y,-z
1/2+x,1/2-y,1/2+z
loop_
_atom_site_type_symbol
_atom_site_label
_atom_site_fract_x
_atom_site_fract_y
_atom_site_fract_z
Si Si1 0.488487 0.607189 0.351258
Si Si2 0.256924 0.449064 0.161167
Si Si3 0.700350 0.651378 0.140982
Si Si4 0.794991 0.083097 0.009823
Si Si5 0.168745 0.700946 0.787017
Si Si6 0.992844 0.424165 0.124066
Si Si7 0.599747 0.403368 0.150233
Si Si8 0.594222 0.081456 0.153911
O O1 0.500000 0.597537 0.250000
O O2 0.475867 0.772378 0.361650
O O3 0.435360 0.500317 0.316074
O O4 0.553090 0.581483 0.495302
O O5 0.242537 0.569268 0.225138
O O6 0.224304 0.298407 0.124667
O O7 0.257398 0.508789 0.050383
O O8 0.330116 0.437516 0.282992
O O9 0.654598 0.712851 0.166638
O O10 0.679003 0.541422 0.026155
O O11 0.837978 0.198916 0.124116
O O12 0.742841 0.170316 0.881198
O O13 0.137373 0.547427 0.744329
O O14 0.000000 0.437356 0.250000
O O15 0.029503 0.550857 0.122655
O O16 0.923650 0.423559 0.987137
O O17 0.608714 0.241998 0.198667
#
# Coordination Sequence:
#
# PCOD9284874 Si02
#       8
#     8   8   8   8   8   8   8   8
#     4   9  20  41  64  95 128 167 217 281 328 400
#     4  11  24  40  65  93 135 175 223 282 330 403
#     4  11  22  42  63  93 128 174 221 277 328 397
#     4  10  22  42  62  93 129 170 221 271 327 392
#     4  10  22  42  65  94 130 173 216 273 340 390
#     4   9  20  41  65  94 124 168 218 269 338 402
#     4  10  22  39  63  94 130 170 217 273 338 388
#     4  10  21  41  65  90 133 167 213 278 326 397
#
# _framework density 23.446505999999999
#
# number of rings (size 3 to 8) (size 9 to 14) (size 15 to 20)
#    0.000    2.000    1.250    1.125    3.500    1.500 
#    9.000    0.000    0.000    0.000    0.000    0.000 
#    0.000    0.000    0.000    0.000    0.000    0.000 
#
# Total GULP energy -178544.597059 kJ/mol
# GULP energy per Si atom -5579.518658 kJ/mol
# Density = 2.339314 g / cm^3
# Si number density = 23.446506 Si / 1000 Ang^3
#
#
#
# Elastic Constant Matrix: (Units=GPa)
#
#
# Indices 1 2 3 4 5 6 
#
# 1 27.1291 22.8714 16.1087 0.0000 -13.7884 0.0000
# 2 22.8714 152.4169 42.0346 0.0000 -12.4989 0.0000
# 3 16.1087 42.0346 77.9887 0.0000 -11.3088 0.0000
# 4 0.0000 0.0000 0.0000 43.6089 0.0000 2.3210
# 5 -13.7884 -12.4989 -11.3088 0.0000 39.4899 0.0000
# 6 0.0000 0.0000 0.0000 2.3210 0.0000 38.8541
#
#
#
# Elastic Compliance Matrix: (Units=1/GPa)
#
#
# Indices 1 2 3 4 5 6 
#
# 1 0.052165 -0.004967 -0.005931 0.000000 0.014944 0.000000
# 2 -0.004967 0.008244 -0.003433 0.000000 -0.000108 0.000000
# 3 -0.005931 -0.003433 0.016109 0.000000 0.001456 0.000000
# 4 0.000000 0.000000 0.000000 0.023004 0.000000 -0.001374
# 5 0.014944 -0.000108 0.001456 0.000000 0.030923 0.000000
# 6 0.000000 0.000000 0.000000 -0.001374 0.000000 0.025819
#
#
# Mechanical properties :
#
#
# Convention : Reuss Voigt Hill
#
# Bulk Modulus (GPa) = 20.89592 46.61823 33.75707
# Shear Modulus (GPa) = 24.89068 36.15858 30.52463
#
# Velocity S-wave (km/s) = 3.26175 3.93131 3.61208
# Velocity P-wave (km/s) = 4.80800 6.36655 5.64135
#
# Compressibility (1/GPa) = 0.04785623
#
# Stress axis : x y z
#
# Youngs Moduli (GPa) = 19.17010 121.29678 62.07722
#
# Poissons Ratio (x) = 0.60244 0.36817
# Poissons Ratio (y) = 0.09521 0.21313
# Poissons Ratio (z) = 0.11369 0.41645
#
# Static dielectric constant tensor:
#      x y z
#    x 1.952390 0.000000 -0.006050 
#    y 0.000000 1.929510 0.000000 
#    z -0.006050 0.000000 1.955750 
# 
# From -- ./inp_files/181177.got.cif
#   From: 2010.05.17/outbox.cif.g08.bks.cpg/sg15_91_cif.got.tgz:181177.got - 2010.06.03 18:47:42.
