data_PCOD9284956
_publ_section_title
;
Structure prediction by ZEFSAII (Michael W. Deem and Ramdas Pophale) SiO2 
 PCOD9284956
Probable space group: C 2/C
;
_chemical_formula_sum "Si O2"
_cell_formula_units_Z 48
_cell_length_a 15.823490
_cell_length_b 25.455814
_cell_length_c 8.135556
_cell_angle_alpha 90.000000
_cell_angle_beta 144.986418
_cell_angle_gamma 90.000000
_cell_volume 1880.246533
_symmetry_space_group_name_H-M "C 2/C"
_symmetry_group_IT_number 15
_symmetry_cell_setting 'monoclinic'
loop_
_space_group_symop_operation_xyz
x,y,z
-x,y,1/2-z
-x,-y,-z
x,-y,1/2+z
1/2+x,1/2+y,z
1/2-x,1/2+y,1/2-z
1/2-x,1/2-y,-z
1/2+x,1/2-y,1/2+z
loop_
_atom_site_type_symbol
_atom_site_label
_atom_site_fract_x
_atom_site_fract_y
_atom_site_fract_z
Si Si1 0.200845 0.086949 0.275463
Si Si2 0.927669 0.373324 0.802643
Si Si3 0.500000 0.313024 0.750000
Si Si4 0.325136 0.487058 0.456533
Si Si5 0.634148 0.609457 0.682913
Si Si6 0.928563 0.747783 0.309191
Si Si7 0.000000 0.383008 0.250000
O O1 0.221268 0.047110 0.461620
O O2 0.324965 0.132699 0.472460
O O3 0.224727 0.045379 0.164920
O O4 0.032541 0.106634 0.015569
O O5 0.753465 0.368372 0.495841
O O6 0.975834 0.312968 0.909959
O O7 0.000000 0.391804 0.750000
O O8 0.990837 0.406387 0.053350
O O9 0.372289 0.354690 0.493036
O O10 0.491724 0.277911 0.571256
O O11 0.310652 0.447893 0.279113
O O12 0.500000 0.492855 0.750000
O O13 0.000000 0.765919 0.250000
O O14 0.750000 0.750000 0.000000
#
# Coordination Sequence:
#
# PCOD9284956 Si02
#       7
#     8   8   4   8   8   8   4
#     4  11  25  43  69 104 140 191 240 299 361 426
#     4  11  26  50  70 104 150 189 234 305 361 432
#     4  12  23  46  78 110 144 192 240 308 359 446
#     4  10  21  41  66 101 137 183 238 300 350 414
#     4  11  22  44  77 101 142 190 246 290 356 429
#     4  11  26  47  72 112 146 190 241 303 377 434
#     4  12  29  44  70 108 144 192 244 290 369 432
#
# _framework density 25.528568
#
# number of rings (size 3 to 8) (size 9 to 14) (size 15 to 20)
#    0.000    1.000    4.167    3.500    4.667    2.667 
#    1.500    0.000    0.000    0.000    0.000    0.000 
#    0.000    0.000    0.000    0.000    0.000    0.000 
#
# Total GULP energy -133676.940289 kJ/mol
# GULP energy per Si atom -5569.872512 kJ/mol
# Density = 2.547046 g / cm^3
# Si number density = 25.528568 Si / 1000 Ang^3
#
#
#
# Elastic Constant Matrix: (Units=GPa)
#
#
# Indices 1 2 3 4 5 6 
#
# 1 139.9752 20.7360 83.2205 0.0000 -16.7021 0.0000
# 2 20.7360 79.4223 40.6324 0.0000 -8.4411 0.0000
# 3 83.2205 40.6324 179.0521 0.0000 -14.6489 0.0000
# 4 0.0000 0.0000 0.0000 21.7164 0.0000 -3.2915
# 5 -16.7021 -8.4411 -14.6489 0.0000 55.6006 0.0000
# 6 0.0000 0.0000 0.0000 -3.2915 0.0000 21.8693
#
#
#
# Elastic Compliance Matrix: (Units=1/GPa)
#
#
# Indices 1 2 3 4 5 6 
#
# 1 0.010052 -0.000133 -0.004493 0.000000 0.001816 0.000000
# 2 -0.000133 0.014345 -0.003085 0.000000 0.001325 0.000000
# 3 -0.004493 -0.003085 0.008406 0.000000 0.000397 0.000000
# 4 0.000000 0.000000 0.000000 0.047123 0.000000 0.007092
# 5 0.001816 0.001325 0.000397 0.000000 0.018836 0.000000
# 6 0.000000 0.000000 0.000000 0.007092 0.000000 0.046794
#
#
# Mechanical properties :
#
#
# Convention : Reuss Voigt Hill
#
# Bulk Modulus (GPa) = 57.53657 76.40305 66.96981
# Shear Modulus (GPa) = 29.98116 36.76131 33.37124
#
# Velocity S-wave (km/s) = 3.43069 3.79886 3.61946
# Velocity P-wave (km/s) = 6.18708 7.01678 6.61495
#
# Compressibility (1/GPa) = 0.01738025
#
# Stress axis : x y z
#
# Youngs Moduli (GPa) = 99.48422 69.71178 118.96343
#
# Poissons Ratio (x) = 0.00925 0.53454
# Poissons Ratio (y) = 0.01320 0.36703
# Poissons Ratio (z) = 0.44701 0.21507
#
# Static dielectric constant tensor:
#      x y z
#    x 2.203550 0.000000 -0.045060 
#    y 0.000000 2.066230 0.000000 
#    z -0.045060 0.000000 2.022240 
# 
# From -- ./inp_files/52902.got.cif
#   From: 2010.05.17/outbox.cif.g08.bks.cpg/sg15_27_cif.got.tgz:52902.got - 2010.06.03 18:47:42.
