data_PCOD9284110
_publ_section_title
;
Structure prediction by ZEFSAII (Michael W. Deem and Ramdas Pophale) SiO2 
 PCOD9284110
Probable space group: C 2/C
;
_chemical_formula_sum "Si O2"
_cell_formula_units_Z 64
_cell_length_a 25.852840
_cell_length_b 6.086048
_cell_length_c 31.042742
_cell_angle_alpha 90.000000
_cell_angle_beta 141.667998
_cell_angle_gamma 90.000000
_cell_volume 3029.336783
_symmetry_space_group_name_H-M "C 2/C"
_symmetry_group_IT_number 15
_symmetry_cell_setting 'monoclinic'
loop_
_space_group_symop_operation_xyz
x,y,z
-x,y,1/2-z
-x,-y,-z
x,-y,1/2+z
1/2+x,1/2+y,z
1/2-x,1/2+y,1/2-z
1/2-x,1/2-y,-z
1/2+x,1/2-y,1/2+z
loop_
_atom_site_type_symbol
_atom_site_label
_atom_site_fract_x
_atom_site_fract_y
_atom_site_fract_z
Si Si1 0.236879 0.327981 0.260986
Si Si2 0.885743 0.924313 0.418633
Si Si3 0.536128 0.647940 0.730225
Si Si4 0.600324 0.955069 0.233098
Si Si5 0.361533 0.847393 0.988356
Si Si6 0.042197 0.684333 0.498078
Si Si7 0.924512 0.212900 0.121449
Si Si8 0.831393 0.202147 0.146014
O O1 0.255335 0.574035 0.251562
O O2 0.304707 0.334315 0.343093
O O3 0.144660 0.361532 0.220096
O O4 0.888723 0.816599 0.467875
O O5 0.965905 0.853924 0.442413
O O6 0.889612 0.184209 0.429282
O O7 0.500000 0.766177 0.750000
O O8 0.460211 0.527775 0.656468
O O9 0.601848 0.475373 0.792977
O O10 0.586106 0.787385 0.727958
O O11 0.508085 0.858025 0.177624
O O12 0.657397 0.892004 0.311366
O O13 0.262648 0.882884 0.918584
O O14 0.382729 0.744220 0.048132
O O15 0.414361 0.068916 0.013790
O O16 0.000000 0.500000 0.500000
O O17 0.862526 0.275923 0.119486
#
# Coordination Sequence:
#
# PCOD9284110 Si02
#       8
#     8   8   8   8   8   8   8   8
#     4  12  31  46  74 109 142 180 243 307 356 428
#     4  10  23  45  64  93 132 181 234 290 360 432
#     4   9  20  40  66  92 131 181 232 282 348 424
#     4  11  23  42  68  92 136 184 233 290 363 420
#     4  11  22  38  68  97 136 179 226 294 356 429
#     4   9  22  40  66  87 126 181 230 281 355 426
#     4  10  23  39  63 102 135 177 238 288 353 426
#     4  10  21  40  66  97 135 181 230 294 352 429
#
# _framework density 21.126738
#
# number of rings (size 3 to 8) (size 9 to 14) (size 15 to 20)
#    0.000    1.750    1.250    2.250   10.500    3.000 
#    0.000    0.000    0.000    6.000    0.000    0.000 
#    0.000    0.000    0.000    0.000    0.000    0.000 
#
# Total GULP energy -178326.979073 kJ/mol
# GULP energy per Si atom -5572.718096 kJ/mol
# Density = 2.107865 g / cm^3
# Si number density = 21.126738 Si / 1000 Ang^3
#
#
#
# Elastic Constant Matrix: (Units=GPa)
#
#
# Indices 1 2 3 4 5 6 
#
# 1 110.0496 25.9500 15.0916 0.0011 7.9297 0.0033
# 2 25.9500 64.0322 1.8433 -0.0036 -14.6370 0.0226
# 3 15.0916 1.8433 60.8479 0.0010 -6.0071 -0.0035
# 4 0.0011 -0.0036 0.0010 15.5465 -0.0006 -4.2967
# 5 7.9297 -14.6370 -6.0071 -0.0006 30.2142 -0.0019
# 6 0.0033 0.0226 -0.0035 -4.2967 -0.0019 30.9481
#
#
#
# Elastic Compliance Matrix: (Units=1/GPa)
#
#
# Indices 1 2 3 4 5 6 
#
# 1 0.011441 -0.006048 -0.003305 -0.000002 -0.006589 0.000002
# 2 -0.006048 0.020765 0.002061 0.000002 0.012056 -0.000013
# 3 -0.003305 0.002061 0.017724 0.000000 0.005390 0.000001
# 4 -0.000002 0.000002 0.000000 0.066890 0.000003 0.009287
# 5 -0.006589 0.012056 0.005390 0.000003 0.041739 -0.000005
# 6 0.000002 -0.000013 0.000001 0.009287 -0.000005 0.033602
#
#
# Mechanical properties :
#
#
# Convention : Reuss Voigt Hill
#
# Bulk Modulus (GPa) = 28.29149 35.63330 31.96240
# Shear Modulus (GPa) = 22.88072 28.14472 25.51272
#
# Velocity S-wave (km/s) = 3.29450 3.65387 3.47883
# Velocity P-wave (km/s) = 5.28129 5.89102 5.59447
#
# Compressibility (1/GPa) = 0.03534632
#
# Stress axis : x y z
#
# Youngs Moduli (GPa) = 87.40558 48.15872 56.42143
#
# Poissons Ratio (x) = 0.29125 0.18647
# Poissons Ratio (y) = 0.52861 -0.11629
# Poissons Ratio (z) = 0.28887 -0.09926
#
# Static dielectric constant tensor:
#      x y z
#    x 1.803000 -0.000010 -0.009950 
#    y -0.000010 1.863790 0.000000 
#    z -0.009950 0.000000 1.748890 
# 
# From -- ./inp_files/319330.got.cif
#   From: 2010.05.17/outbox.cif.g08.bks.cpg/sg15_160_cif.got.tgz:319330.got - 2010.06.03 18:47:42.
