data_PCOD9284959
_publ_section_title
;
Structure prediction by ZEFSAII (Michael W. Deem and Ramdas Pophale) SiO2 
 PCOD9284959
Probable space group: C 2/C
;
_chemical_formula_sum "Si O2"
_cell_formula_units_Z 40
_cell_length_a 15.317271
_cell_length_b 9.527308
_cell_length_c 13.406802
_cell_angle_alpha 90.000000
_cell_angle_beta 121.364195
_cell_angle_gamma 90.000000
_cell_volume 1670.597067
_symmetry_space_group_name_H-M "C 2/C"
_symmetry_group_IT_number 15
_symmetry_cell_setting 'monoclinic'
loop_
_space_group_symop_operation_xyz
x,y,z
-x,y,1/2-z
-x,-y,-z
x,-y,1/2+z
1/2+x,1/2+y,z
1/2-x,1/2+y,1/2-z
1/2-x,1/2-y,-z
1/2+x,1/2-y,1/2+z
loop_
_atom_site_type_symbol
_atom_site_label
_atom_site_fract_x
_atom_site_fract_y
_atom_site_fract_z
Si Si1 0.697773 0.894704 0.415482
Si Si2 0.208128 0.836068 0.568690
Si Si3 0.389763 0.778725 0.969967
Si Si4 0.481016 0.385858 0.350775
Si Si5 0.401179 0.292325 0.807485
O O1 0.664723 0.913998 0.511996
O O2 0.811861 0.833032 0.472519
O O3 0.628784 0.787913 0.310642
O O4 0.708531 0.042345 0.369068
O O5 0.250000 0.750000 0.500000
O O6 0.188488 0.770456 0.665110
O O7 0.093132 0.890497 0.469890
O O8 0.499416 0.777133 0.086300
O O9 0.413182 0.723652 0.873749
O O10 0.500000 0.338258 0.250000
O O11 0.428375 0.541048 0.314449
#
# Coordination Sequence:
#
# PCOD9284959 Si02
#       5
#     8   8   8   8   8
#     4  11  22  41  72 103 138 181 239 283 355 414
#     4  11  25  45  68 108 140 181 241 295 340 422
#     4  10  21  41  66 103 134 177 231 289 337 424
#     4  11  22  42  70 100 141 185 234 286 352 416
#     4  11  22  42  70 100 137 187 231 287 353 419
#
# _framework density 23.943534
#
# number of rings (size 3 to 8) (size 9 to 14) (size 15 to 20)
#    0.000    1.200    4.000    3.000    5.600    0.000 
#    0.000    6.000    0.000    0.000    0.000    0.000 
#    0.000    0.000    0.000    0.000    0.000    0.000 
#
# Total GULP energy -111514.721590 kJ/mol
# GULP energy per Si atom -5575.736079 kJ/mol
# Density = 2.388904 g / cm^3
# Si number density = 23.943534 Si / 1000 Ang^3
#
#
#
# Elastic Constant Matrix: (Units=GPa)
#
#
# Indices 1 2 3 4 5 6 
#
# 1 169.9422 34.0209 29.2761 0.0000 -42.0305 0.0000
# 2 34.0209 28.6073 20.8740 0.0000 -4.3474 0.0000
# 3 29.2761 20.8740 78.5006 0.0000 -10.7223 0.0000
# 4 0.0000 0.0000 0.0000 22.2222 0.0000 -3.8500
# 5 -42.0305 -4.3474 -10.7223 0.0000 61.0577 0.0000
# 6 0.0000 0.0000 0.0000 -3.8500 0.0000 33.3870
#
#
#
# Elastic Compliance Matrix: (Units=1/GPa)
#
#
# Indices 1 2 3 4 5 6 
#
# 1 0.009347 -0.010265 0.000023 0.000000 0.005707 0.000000
# 2 -0.010265 0.054716 -0.011428 0.000000 -0.005178 0.000000
# 3 0.000023 -0.011428 0.016045 0.000000 0.002020 0.000000
# 4 0.000000 0.000000 0.000000 0.045917 0.000000 0.005295
# 5 0.005707 -0.005178 0.002020 0.000000 0.020293 0.000000
# 6 0.000000 0.000000 0.000000 0.005295 0.000000 0.030562
#
#
# Mechanical properties :
#
#
# Convention : Reuss Voigt Hill
#
# Bulk Modulus (GPa) = 27.19813 49.48803 38.34308
# Shear Modulus (GPa) = 21.50748 36.19198 28.84973
#
# Velocity S-wave (km/s) = 3.00035 3.89209 3.47494
# Velocity P-wave (km/s) = 4.83598 6.39620 5.67001
#
# Compressibility (1/GPa) = 0.03676723
#
# Stress axis : x y z
#
# Youngs Moduli (GPa) = 106.98675 18.27610 62.32532
#
# Poissons Ratio (x) = 0.18761 -0.00146
# Poissons Ratio (y) = 1.09827 0.71227
# Poissons Ratio (z) = -0.00250 0.20887
#
# Static dielectric constant tensor:
#      x y z
#    x 1.942700 0.000000 -0.037140 
#    y 0.000000 2.033740 0.000000 
#    z -0.037140 0.000000 1.966800 
# 
# From -- ./inp_files/151501.got.cif
#   From: 2010.05.17/outbox.cif.g08.bks.cpg/sg15_76_cif.got.tgz:151501.got - 2010.06.03 18:47:42.
