data_PCOD9284258
_publ_section_title
;
Structure prediction by ZEFSAII (Michael W. Deem and Ramdas Pophale) SiO2 
 PCOD9284258
Probable space group: C 2/C
;
_chemical_formula_sum "Si O2"
_cell_formula_units_Z 56
_cell_length_a 10.807895
_cell_length_b 11.901210
_cell_length_c 19.586371
_cell_angle_alpha 90.000000
_cell_angle_beta 101.891364
_cell_angle_gamma 90.000000
_cell_volume 2465.271864
_symmetry_space_group_name_H-M "C 2/C"
_symmetry_group_IT_number 15
_symmetry_cell_setting 'monoclinic'
loop_
_space_group_symop_operation_xyz
x,y,z
-x,y,1/2-z
-x,-y,-z
x,-y,1/2+z
1/2+x,1/2+y,z
1/2-x,1/2+y,1/2-z
1/2-x,1/2-y,-z
1/2+x,1/2-y,1/2+z
loop_
_atom_site_type_symbol
_atom_site_label
_atom_site_fract_x
_atom_site_fract_y
_atom_site_fract_z
Si Si1 0.573744 0.405526 0.827910
Si Si2 0.112802 0.231612 0.522770
Si Si3 0.232632 0.599286 0.679817
Si Si4 0.242090 0.978559 0.052884
Si Si5 0.106904 0.540536 0.063709
Si Si6 0.867417 0.650167 0.690912
Si Si7 0.377711 0.311014 0.906686
O O1 0.500000 0.407398 0.750000
O O2 0.655463 0.519167 0.834829
O O3 0.641948 0.281473 0.833576
O O4 0.465483 0.392504 0.871499
O O5 0.250000 0.250000 0.500000
O O6 0.122007 0.104089 0.547630
O O7 0.098935 0.327551 0.577320
O O8 0.987413 0.248273 0.463306
O O9 0.117303 0.527975 0.633821
O O10 0.230743 0.613282 0.760980
O O11 0.204907 0.721592 0.644774
O O12 0.339217 0.925616 0.120369
O O13 0.214594 0.107542 0.063584
O O14 0.277461 0.972088 0.976877
O O15 0.000000 0.500000 0.000000
O O16 0.000000 0.641384 0.750000
#
# Coordination Sequence:
#
# PCOD9284258 Si02
#       7
#     8   8   8   8   8   8   8
#     4  11  22  43  68  95 136 184 233 293 352 416
#     4  10  21  40  68  91 129 179 225 277 347 420
#     4  12  24  40  72 100 135 183 234 286 355 425
#     4  11  24  41  67 102 136 185 235 287 357 423
#     4  11  21  41  65  99 137 173 234 290 340 419
#     4  11  22  42  71  95 133 186 237 286 347 424
#     4  12  23  44  66 100 138 180 227 290 359 420
#
# _framework density 22.715546
#
# number of rings (size 3 to 8) (size 9 to 14) (size 15 to 20)
#    0.000    0.857    4.286    6.429    0.000    0.571 
#    2.571    0.714    0.000    0.000    0.000    0.000 
#    0.000    0.000    0.000    0.000    0.000    0.000 
#
# Total GULP energy -155957.024360 kJ/mol
# GULP energy per Si atom -5569.893727 kJ/mol
# Density = 2.266384 g / cm^3
# Si number density = 22.715546 Si / 1000 Ang^3
#
#
#
# Elastic Constant Matrix: (Units=GPa)
#
#
# Indices 1 2 3 4 5 6 
#
# 1 32.4212 26.7321 -0.4870 0.0000 3.6058 0.0000
# 2 26.7321 91.2980 1.1472 0.0000 -15.8054 0.0000
# 3 -0.4870 1.1472 73.2068 0.0000 2.9600 0.0000
# 4 0.0000 0.0000 0.0000 39.1552 0.0000 23.5257
# 5 3.6058 -15.8054 2.9600 0.0000 34.7636 0.0000
# 6 0.0000 0.0000 0.0000 23.5257 0.0000 56.3086
#
#
#
# Elastic Compliance Matrix: (Units=1/GPa)
#
#
# Indices 1 2 3 4 5 6 
#
# 1 0.044562 -0.015061 0.001000 0.000000 -0.011555 0.000000
# 2 -0.015061 0.016991 -0.000745 0.000000 0.009351 0.000000
# 3 0.001000 -0.000745 0.013743 0.000000 -0.001612 0.000000
# 4 0.000000 0.000000 0.000000 0.034099 0.000000 -0.014247
# 5 -0.011555 0.009351 -0.001612 0.000000 0.034353 0.000000
# 6 0.000000 0.000000 0.000000 -0.014247 0.000000 0.023712
#
#
# Mechanical properties :
#
#
# Convention : Reuss Voigt Hill
#
# Bulk Modulus (GPa) = 21.88882 27.96785 24.92833
# Shear Modulus (GPa) = 23.55162 37.34773 30.44968
#
# Velocity S-wave (km/s) = 3.22344 4.05921 3.66522
# Velocity P-wave (km/s) = 4.84882 5.85735 5.37678
#
# Compressibility (1/GPa) = 0.04568543
#
# Stress axis : x y z
#
# Youngs Moduli (GPa) = 22.44060 58.85458 72.76193
#
# Poissons Ratio (x) = 0.88639 -0.07274
# Poissons Ratio (y) = 0.33797 0.05417
# Poissons Ratio (z) = -0.02243 0.04382
#
# Static dielectric constant tensor:
#      x y z
#    x 2.143740 0.000000 0.156710 
#    y 0.000000 1.848960 0.000000 
#    z 0.156710 0.000000 1.858430 
# 
# From -- ./inp_files/237640.got.cif
#   From: 2010.05.17/outbox.cif.g08.bks.cpg/sg15_119_cif.got.tgz:237640.got - 2010.06.03 18:47:42.
