data_PCOD9284707
_publ_section_title
;
Structure prediction by ZEFSAII (Michael W. Deem and Ramdas Pophale) SiO2 
 PCOD9284707
Probable space group: C 2/C
;
_chemical_formula_sum "Si O2"
_cell_formula_units_Z 40
_cell_length_a 8.184435
_cell_length_b 11.445799
_cell_length_c 21.513880
_cell_angle_alpha 90.000000
_cell_angle_beta 129.635970
_cell_angle_gamma 90.000000
_cell_volume 1552.058083
_symmetry_space_group_name_H-M "C 2/C"
_symmetry_group_IT_number 15
_symmetry_cell_setting 'monoclinic'
loop_
_space_group_symop_operation_xyz
x,y,z
-x,y,1/2-z
-x,-y,-z
x,-y,1/2+z
1/2+x,1/2+y,z
1/2-x,1/2+y,1/2-z
1/2-x,1/2-y,-z
1/2+x,1/2-y,1/2+z
loop_
_atom_site_type_symbol
_atom_site_label
_atom_site_fract_x
_atom_site_fract_y
_atom_site_fract_z
Si Si1 0.970159 0.752561 0.631644
Si Si2 0.603379 0.779250 0.710150
Si Si3 0.230844 0.875766 0.446280
Si Si4 0.291844 0.462126 0.669435
Si Si5 0.979067 0.835185 0.494977
O O1 0.888130 0.851462 0.657322
O O2 0.019760 0.817803 0.578300
O O3 0.774320 0.664183 0.575395
O O4 0.181761 0.710734 0.717221
O O5 0.500000 0.809796 0.750000
O O6 0.454680 0.698530 0.632464
O O7 0.647760 0.901556 0.685925
O O8 0.427383 0.790445 0.506426
O O9 0.118626 0.919114 0.483418
O O10 0.304695 0.961730 0.409308
O O11 0.500000 0.522186 0.750000
#
# Coordination Sequence:
#
# PCOD9284707 Si02
#       5
#     8   8   8   8   8
#     4  10  21  41  63  93 135 169 213 275 328 390
#     4  11  21  42  70  88 133 183 218 274 332 383
#     4  11  22  41  68  95 124 176 224 259 336 406
#     4  10  23  40  65  97 126 168 228 275 315 397
#     4  10  22  39  64  99 130 173 209 270 348 388
#
# _framework density 25.772234000000001
#
# number of rings (size 3 to 8) (size 9 to 14) (size 15 to 20)
#    0.000    1.600    4.000    0.600    0.000    1.600 
#    0.000    8.000    0.000    0.000    0.000    0.000 
#    0.000    0.000    0.000    0.000    0.000    0.000 
#
# Total GULP energy -111796.423050 kJ/mol
# GULP energy per Si atom -5589.821152 kJ/mol
# Density = 2.571358 g / cm^3
# Si number density = 25.772234 Si / 1000 Ang^3
#
#
#
# Elastic Constant Matrix: (Units=GPa)
#
#
# Indices 1 2 3 4 5 6 
#
# 1 136.1820 8.9548 54.0023 0.0000 -27.3073 0.0000
# 2 8.9548 40.0711 26.3964 0.0000 5.0994 0.0000
# 3 54.0023 26.3964 148.5036 0.0000 3.1187 0.0000
# 4 0.0000 0.0000 0.0000 39.1511 0.0000 -1.0485
# 5 -27.3073 5.0994 3.1187 0.0000 67.4622 0.0000
# 6 0.0000 0.0000 0.0000 -1.0485 0.0000 22.5783
#
#
#
# Elastic Compliance Matrix: (Units=1/GPa)
#
#
# Indices 1 2 3 4 5 6 
#
# 1 0.009570 -0.000348 -0.003503 0.000000 0.004062 0.000000
# 2 -0.000348 0.028525 -0.004900 0.000000 -0.002070 0.000000
# 3 -0.003503 -0.004900 0.008910 0.000000 -0.001460 0.000000
# 4 0.000000 0.000000 0.000000 0.025574 0.000000 0.001188
# 5 0.004062 -0.002070 -0.001460 0.000000 0.016691 0.000000
# 6 0.000000 0.000000 0.000000 0.001188 0.000000 0.044345
#
#
# Mechanical properties :
#
#
# Convention : Reuss Voigt Hill
#
# Bulk Modulus (GPa) = 33.89688 55.94041 44.91864
# Shear Modulus (GPa) = 31.06526 41.53188 36.29857
#
# Velocity S-wave (km/s) = 3.47562 4.01870 3.75699
# Velocity P-wave (km/s) = 5.41180 6.57922 6.02386
#
# Compressibility (1/GPa) = 0.02950124
#
# Stress axis : x y z
#
# Youngs Moduli (GPa) = 104.49599 35.05708 112.23894
#
# Poissons Ratio (x) = 0.01219 0.39323
# Poissons Ratio (y) = 0.03632 0.55002
# Poissons Ratio (z) = 0.36610 0.17179
#
# Static dielectric constant tensor:
#      x y z
#    x 2.115840 0.000000 0.001940 
#    y 0.000000 2.097360 0.000000 
#    z 0.001940 0.000000 2.051210 
# 
# From -- ./inp_files/133298.got.cif
#   From: 2010.05.17/outbox.cif.g08.bks.cpg/sg15_67_cif.got.tgz:133298.got - 2010.06.03 18:47:42.
