data_PCOD9284465
_publ_section_title
;
Structure prediction by ZEFSAII (Michael W. Deem and Ramdas Pophale) SiO2 
 PCOD9284465
Probable space group: C 2/C
;
_chemical_formula_sum "Si O2"
_cell_formula_units_Z 40
_cell_length_a 16.603593
_cell_length_b 20.509521
_cell_length_c 9.837832
_cell_angle_alpha 90.000000
_cell_angle_beta 30.390311
_cell_angle_gamma 90.000000
_cell_volume 1694.772045
_symmetry_space_group_name_H-M "C 2/C"
_symmetry_group_IT_number 15
_symmetry_cell_setting 'monoclinic'
loop_
_space_group_symop_operation_xyz
x,y,z
-x,y,1/2-z
-x,-y,-z
x,-y,1/2+z
1/2+x,1/2+y,z
1/2-x,1/2+y,1/2-z
1/2-x,1/2-y,-z
1/2+x,1/2-y,1/2+z
loop_
_atom_site_type_symbol
_atom_site_label
_atom_site_fract_x
_atom_site_fract_y
_atom_site_fract_z
Si Si1 0.242335 0.135804 0.655608
Si Si2 0.369193 0.130684 0.177468
Si Si3 0.622552 0.395204 0.816727
Si Si4 0.645627 0.002739 0.437873
Si Si5 0.786620 0.314235 0.363272
O O1 0.327828 0.150835 0.389996
O O2 0.329169 0.074170 0.601815
O O3 0.247829 0.191545 0.760523
O O4 0.938513 0.115722 0.609468
O O5 0.227128 0.143149 0.277739
O O6 0.378634 0.050611 0.156122
O O7 0.530272 0.163476 0.891359
O O8 0.691527 0.467781 0.734517
O O9 0.674937 0.369125 0.593860
O O10 0.500000 0.018536 0.750000
O O11 0.750000 0.250000 0.500000
#
# Coordination Sequence:
#
# PCOD9284465 Si02
#       5
#     8   8   8   8   8
#     4  12  25  41  72 115 143 187 245 311 364 430
#     4  10  23  45  71 102 144 189 242 297 368 430
#     4  10  23  44  67 106 150 189 240 291 375 433
#     4  10  21  40  74 103 156 187 235 291 377 448
#     4  12  26  48  71  98 142 203 253 295 361 451
#
# _framework density 23.601994000000001
#
# number of rings (size 3 to 8) (size 9 to 14) (size 15 to 20)
#    1.200    0.000    2.000    4.200    2.800    4.800 
#    3.600    6.000    0.000    0.000    0.000    0.000 
#    0.000    0.000    0.000    0.000    0.000    0.000 
#
# Total GULP energy -111854.326024 kJ/mol
# GULP energy per Si atom -5592.716301 kJ/mol
# Density = 2.354827 g / cm^3
# Si number density = 23.601994 Si / 1000 Ang^3
#
#
#
# Elastic Constant Matrix: (Units=GPa)
#
#
# Indices 1 2 3 4 5 6 
#
# 1 102.0942 23.7603 33.5760 -0.0007 -11.4387 0.0029
# 2 23.7603 59.0043 39.8807 -0.0002 0.4491 0.0008
# 3 33.5760 39.8807 129.3558 -0.0013 6.0674 0.0006
# 4 -0.0007 -0.0002 -0.0013 30.3945 -0.0008 9.4917
# 5 -11.4387 0.4491 6.0674 -0.0008 59.7639 0.0014
# 6 0.0029 0.0008 0.0006 9.4917 0.0014 11.9816
#
#
#
# Elastic Compliance Matrix: (Units=1/GPa)
#
#
# Indices 1 2 3 4 5 6 
#
# 1 0.011513 -0.003231 -0.002107 0.000001 0.002442 -0.000004
# 2 -0.003231 0.022331 -0.006038 0.000000 -0.000173 0.000000
# 3 -0.002107 -0.006038 0.010204 0.000000 -0.001394 0.000000
# 4 0.000001 0.000000 0.000000 0.043715 0.000002 -0.034630
# 5 0.002442 -0.000173 -0.001394 0.000002 0.017343 -0.000004
# 6 -0.000004 0.000000 0.000000 -0.034630 -0.000004 0.110895
#
#
# Mechanical properties :
#
#
# Convention : Reuss Voigt Hill
#
# Bulk Modulus (GPa) = 46.95389 53.87647 50.41518
# Shear Modulus (GPa) = 20.33740 33.31049 26.82394
#
# Velocity S-wave (km/s) = 2.93863 3.76086 3.37488
# Velocity P-wave (km/s) = 5.60814 6.46029 6.04924
#
# Compressibility (1/GPa) = 0.02129749
#
# Stress axis : x y z
#
# Youngs Moduli (GPa) = 86.85637 44.78009 97.99672
#
# Poissons Ratio (x) = 0.14468 0.20647
# Poissons Ratio (y) = 0.28062 0.59171
# Poissons Ratio (z) = 0.18300 0.27039
#
# Static dielectric constant tensor:
#      x y z
#    x 1.955490 0.000000 0.018450 
#    y 0.000000 1.882980 0.000000 
#    z 0.018450 0.000000 1.813710 
# 
# From -- ./inp_files/58558.got.cif
#   From: 2010.05.17/outbox.cif.g08.bks.cpg/sg15_30_cif.got.tgz:58558.got - 2010.06.03 18:47:42.
