data_PCOD9284994
_publ_section_title
;
Structure prediction by ZEFSAII (Michael W. Deem and Ramdas Pophale) SiO2 
 PCOD9284994
Probable space group: C 2/C
;
_chemical_formula_sum "Si O2"
_cell_formula_units_Z 64
_cell_length_a 13.830304
_cell_length_b 7.932308
_cell_length_c 26.164030
_cell_angle_alpha 90.000000
_cell_angle_beta 79.324313
_cell_angle_gamma 90.000000
_cell_volume 2820.675528
_symmetry_space_group_name_H-M "C 2/C"
_symmetry_group_IT_number 15
_symmetry_cell_setting 'monoclinic'
loop_
_space_group_symop_operation_xyz
x,y,z
-x,y,1/2-z
-x,-y,-z
x,-y,1/2+z
1/2+x,1/2+y,z
1/2-x,1/2+y,1/2-z
1/2-x,1/2-y,-z
1/2+x,1/2-y,1/2+z
loop_
_atom_site_type_symbol
_atom_site_label
_atom_site_fract_x
_atom_site_fract_y
_atom_site_fract_z
Si Si1 0.131220 0.443260 0.370564
Si Si2 0.082905 0.932616 0.452519
Si Si3 0.225915 0.637413 0.051162
Si Si4 0.202956 0.644753 0.255001
Si Si5 0.159796 0.170663 0.657092
Si Si6 0.054075 0.796110 0.344762
Si Si7 0.389084 0.945355 0.516459
Si Si8 0.596134 0.216811 0.776098
O O1 0.249491 0.461951 0.346998
O O2 0.060100 0.601080 0.364298
O O3 0.139628 0.444340 0.430921
O O4 0.088969 0.290703 0.339386
O O5 0.053291 0.900752 0.397002
O O6 0.119098 0.751160 0.469777
O O7 0.172888 0.059586 0.440275
O O8 0.000000 0.000000 0.500000
O O9 0.171497 0.739165 0.100845
O O10 0.250000 0.750000 0.000000
O O11 0.162730 0.489197 0.031498
O O12 0.185494 0.699653 0.198817
O O13 0.147898 0.780620 0.297585
O O14 0.320449 0.652646 0.249563
O O15 0.146972 0.467442 0.264581
O O16 0.043601 0.139734 0.674297
O O17 0.500000 0.000000 0.500000
O O18 0.500000 0.228242 0.750000
#
# Coordination Sequence:
#
# PCOD9284994 Si02
#       8
#     8   8   8   8   8   8   8   8
#     4   9  20  38  63  90 126 168 217 271 330 414
#     4  11  25  41  62  98 135 172 228 287 336 416
#     4  12  23  40  66  91 129 176 225 275 339 405
#     4  10  22  40  69  97 133 171 226 280 332 419
#     4  11  21  38  70  94 125 178 222 273 346 401
#     4  10  21  42  63  94 132 171 221 280 349 393
#     4  11  22  41  65  91 130 174 220 275 345 401
#     4  10  21  41  66  92 131 172 216 281 342 398
#
# _framework density 22.689602000000001
#
# number of rings (size 3 to 8) (size 9 to 14) (size 15 to 20)
#    0.000    1.500    1.250    5.250    1.750    0.000 
#    0.000    4.375    0.000    0.000    0.000    0.000 
#    0.000    0.000    0.000    0.000    0.000    0.000 
#
# Total GULP energy -178369.126963 kJ/mol
# GULP energy per Si atom -5574.035218 kJ/mol
# Density = 2.263796 g / cm^3
# Si number density = 22.689602 Si / 1000 Ang^3
#
#
#
# Elastic Constant Matrix: (Units=GPa)
#
#
# Indices 1 2 3 4 5 6 
#
# 1 131.6014 18.6092 -1.0354 0.0000 20.4313 0.0000
# 2 18.6092 57.4355 12.5398 0.0000 -3.6235 0.0000
# 3 -1.0354 12.5398 101.5041 0.0000 6.9056 0.0000
# 4 0.0000 0.0000 0.0000 35.3499 0.0000 -3.7294
# 5 20.4313 -3.6235 6.9056 0.0000 34.8967 0.0000
# 6 0.0000 0.0000 0.0000 -3.7294 0.0000 26.5743
#
#
#
# Elastic Compliance Matrix: (Units=1/GPa)
#
#
# Indices 1 2 3 4 5 6 
#
# 1 0.009001 -0.003483 0.000918 0.000000 -0.005813 0.000000
# 2 -0.003483 0.019430 -0.002749 0.000000 0.004601 0.000000
# 3 0.000918 -0.002749 0.010397 0.000000 -0.002880 0.000000
# 4 0.000000 0.000000 0.000000 0.028714 0.000000 0.004030
# 5 -0.005813 0.004601 -0.002880 0.000000 0.033107 0.000000
# 6 0.000000 0.000000 0.000000 0.004030 0.000000 0.038196
#
#
# Mechanical properties :
#
#
# Convention : Reuss Voigt Hill
#
# Bulk Modulus (GPa) = 35.46322 38.97425 37.21873
# Shear Modulus (GPa) = 31.47160 36.72598 34.09879
#
# Velocity S-wave (km/s) = 3.72835 4.02758 3.88085
# Velocity P-wave (km/s) = 5.84789 6.23241 6.04321
#
# Compressibility (1/GPa) = 0.02819823
#
# Stress axis : x y z
#
# Youngs Moduli (GPa) = 111.09868 51.46704 96.18422
#
# Poissons Ratio (x) = 0.17928 -0.08826
# Poissons Ratio (y) = 0.38700 0.26440
# Poissons Ratio (z) = -0.10195 0.14148
#
# Static dielectric constant tensor:
#      x y z
#    x 1.885700 0.000000 0.029620 
#    y 0.000000 1.850000 0.000000 
#    z 0.029620 0.000000 2.020850 
# 
# From -- ./inp_files/295150.got.cif
#   From: 2010.05.17/outbox.cif.g08.bks.cpg/sg15_148_cif.got.tgz:295150.got - 2010.06.03 18:47:42.
