data_PCOD9284662
_publ_section_title
;
Structure prediction by ZEFSAII (Michael W. Deem and Ramdas Pophale) SiO2 
 PCOD9284662
Probable space group: C 2/C
;
_chemical_formula_sum "Si O2"
_cell_formula_units_Z 56
_cell_length_a 9.404014
_cell_length_b 28.723560
_cell_length_c 12.172731
_cell_angle_alpha 90.000000
_cell_angle_beta 60.002898
_cell_angle_gamma 90.000000
_cell_volume 2847.625482
_symmetry_space_group_name_H-M "C 2/C"
_symmetry_group_IT_number 15
_symmetry_cell_setting 'monoclinic'
loop_
_space_group_symop_operation_xyz
x,y,z
-x,y,1/2-z
-x,-y,-z
x,-y,1/2+z
1/2+x,1/2+y,z
1/2-x,1/2+y,1/2-z
1/2-x,1/2-y,-z
1/2+x,1/2-y,1/2+z
loop_
_atom_site_type_symbol
_atom_site_label
_atom_site_fract_x
_atom_site_fract_y
_atom_site_fract_z
Si Si1 0.744341 0.089819 0.575604
Si Si2 0.808388 0.019407 0.359821
Si Si3 0.553924 0.245038 0.601480
Si Si4 0.532476 0.651711 0.369863
Si Si5 0.015326 0.355517 0.457075
Si Si6 0.692514 0.416583 0.193291
Si Si7 0.147502 0.403370 0.775250
O O1 0.776352 0.044867 0.487310
O O2 0.576408 0.114749 0.603105
O O3 0.767207 0.078380 0.693416
O O4 0.882547 0.127001 0.487831
O O5 0.709356 0.049396 0.308625
O O6 0.000000 0.021886 0.250000
O O7 0.760359 0.965516 0.381057
O O8 0.500000 0.238722 0.750000
O O9 0.750000 0.250000 0.500000
O O10 0.469861 0.293820 0.600930
O O11 0.495938 0.198767 0.562660
O O12 0.500000 0.647555 0.250000
O O13 0.696479 0.623565 0.334712
O O14 0.198560 0.374740 0.393683
O O15 0.917700 0.369547 0.603608
O O16 0.500000 0.408925 0.250000
O O17 0.000000 0.412187 0.750000
#
# Coordination Sequence:
#
# PCOD9284662 Si02
#       7
#     8   8   8   8   8   8   8
#     4  11  20  40  69  83 127 162 212 264 306 368
#     4  10  21  41  63  89 118 169 218 252 309 378
#     4  11  21  37  69 100 123 164 226 273 317 379
#     4  11  19  40  67  96 117 161 217 265 313 370
#     4  11  23  42  61  96 128 163 213 265 316 380
#     4  11  27  39  59  96 131 169 203 255 329 379
#     4  11  23  39  66  91 126 164 211 268 317 378
#
# _framework density 19.665507000000002
#
# number of rings (size 3 to 8) (size 9 to 14) (size 15 to 20)
#    0.000    1.143    5.714    2.143    2.000    6.857 
#    0.000    1.429    0.000    0.000    0.000    0.000 
#    0.000    0.000    0.000    0.000    0.000    0.000 
#
# Total GULP energy -156503.738608 kJ/mol
# GULP energy per Si atom -5589.419236 kJ/mol
# Density = 1.962075 g / cm^3
# Si number density = 19.665507 Si / 1000 Ang^3
#
#
#
# Elastic Constant Matrix: (Units=GPa)
#
#
# Indices 1 2 3 4 5 6 
#
# 1 94.5825 30.2332 8.3827 0.0000 -14.0079 0.0000
# 2 30.2332 130.5784 11.5836 0.0000 -20.3100 0.0000
# 3 8.3827 11.5836 48.6756 0.0000 -10.4605 0.0000
# 4 0.0000 0.0000 0.0000 21.9597 0.0000 2.6739
# 5 -14.0079 -20.3100 -10.4605 0.0000 28.4904 0.0000
# 6 0.0000 0.0000 0.0000 2.6739 0.0000 41.2445
#
#
#
# Elastic Compliance Matrix: (Units=1/GPa)
#
#
# Indices 1 2 3 4 5 6 
#
# 1 0.011902 -0.002052 -0.000671 0.000000 0.004143 0.000000
# 2 -0.002052 0.008995 -0.000680 0.000000 0.005154 0.000000
# 3 -0.000671 -0.000680 0.022415 0.000000 0.007415 0.000000
# 4 0.000000 0.000000 0.000000 0.045900 0.000000 -0.002976
# 5 0.004143 0.005154 0.007415 0.000000 0.043533 0.000000
# 6 0.000000 0.000000 0.000000 -0.002976 0.000000 0.024439
#
#
# Mechanical properties :
#
#
# Convention : Reuss Voigt Hill
#
# Bulk Modulus (GPa) = 27.39207 41.58170 34.48689
# Shear Modulus (GPa) = 28.38360 33.24805 30.81583
#
# Velocity S-wave (km/s) = 3.80323 4.11625 3.96283
# Velocity P-wave (km/s) = 5.76587 6.61677 6.20592
#
# Compressibility (1/GPa) = 0.03650692
#
# Stress axis : x y z
#
# Youngs Moduli (GPa) = 84.02207 111.16995 44.61282
#
# Poissons Ratio (x) = 0.22809 0.02994
# Poissons Ratio (y) = 0.17239 0.03032
# Poissons Ratio (z) = 0.05639 0.07556
#
# Static dielectric constant tensor:
#      x y z
#    x 1.701850 0.000000 -0.002140 
#    y 0.000000 1.664860 0.000000 
#    z -0.002140 0.000000 1.695000 
# 
# From -- ./inp_files/82451.got.cif
#   From: 2010.05.17/outbox.cif.g08.bks.cpg/sg15_42_cif.got.tgz:82451.got - 2010.06.03 18:47:42.
