data_PCOD9284191
_publ_section_title
;
Structure prediction by ZEFSAII (Michael W. Deem and Ramdas Pophale) SiO2 
 PCOD9284191
Probable space group: C 2/C
;
_chemical_formula_sum "Si O2"
_cell_formula_units_Z 60
_cell_length_a 25.905371
_cell_length_b 10.158703
_cell_length_c 12.330187
_cell_angle_alpha 90.000000
_cell_angle_beta 50.090803
_cell_angle_gamma 90.000000
_cell_volume 2489.019575
_symmetry_space_group_name_H-M "C 2/C"
_symmetry_group_IT_number 15
_symmetry_cell_setting 'monoclinic'
loop_
_space_group_symop_operation_xyz
x,y,z
-x,y,1/2-z
-x,-y,-z
x,-y,1/2+z
1/2+x,1/2+y,z
1/2-x,1/2+y,1/2-z
1/2-x,1/2-y,-z
1/2+x,1/2-y,1/2+z
loop_
_atom_site_type_symbol
_atom_site_label
_atom_site_fract_x
_atom_site_fract_y
_atom_site_fract_z
Si Si1 0.000000 0.457451 0.250000
Si Si2 0.333642 0.595243 0.272667
Si Si3 0.394330 0.063595 0.546802
Si Si4 0.071349 0.060721 0.025391
Si Si5 0.280324 0.753392 0.160018
Si Si6 0.950058 0.751240 0.644962
Si Si7 0.871430 0.718303 0.170665
Si Si8 0.874726 0.113161 0.863643
O O1 0.935462 0.535946 0.381519
O O2 0.977966 0.361486 0.183532
O O3 0.388995 0.530812 0.114912
O O4 0.279910 0.664132 0.269419
O O5 0.375516 0.705579 0.279282
O O6 0.321001 0.482005 0.375208
O O7 0.500627 0.622358 0.411140
O O8 0.393408 0.930575 0.620562
O O9 0.435822 0.180794 0.549469
O O10 0.113435 0.196614 0.958158
O O11 0.076780 0.980905 0.130117
O O12 0.316258 0.891471 0.140544
O O13 0.207701 0.738776 0.206548
O O14 0.334400 0.697541 0.003507
O O15 0.905117 0.792850 0.228630
#
# Coordination Sequence:
#
# PCOD9284191 Si02
#       8
#     4   8   8   8   8   8   8   8
#     4  12  24  40  66  92 146 172 232 274 350 424
#     4   9  21  39  66  95 135 173 234 283 343 406
#     4  11  27  43  69 104 139 192 229 286 360 411
#     4  10  21  40  67  95 132 182 227 286 347 407
#     4  10  24  45  67 101 139 185 237 289 346 416
#     4  11  22  43  65  98 136 177 229 287 342 417
#     4  11  24  44  69  98 146 181 232 296 347 415
#     4  10  22  41  67 100 131 179 235 278 351 414
#
# _framework density 24.105877
#
# number of rings (size 3 to 8) (size 9 to 14) (size 15 to 20)
#    0.000    1.600    1.333    2.000    7.467    1.067 
#    0.000    3.333    0.000    0.000    0.000    0.000 
#    0.000    0.000    0.000    0.000    0.000    0.000 
#
# Total GULP energy -167367.352743 kJ/mol
# GULP energy per Si atom -5578.911758 kJ/mol
# Density = 2.405101 g / cm^3
# Si number density = 24.105877 Si / 1000 Ang^3
#
#
#
# Elastic Constant Matrix: (Units=GPa)
#
#
# Indices 1 2 3 4 5 6 
#
# 1 65.8409 29.9464 13.1870 0.0000 3.7680 0.0000
# 2 29.9464 117.9774 23.9483 0.0000 7.7351 0.0000
# 3 13.1870 23.9483 42.7420 0.0000 8.9890 0.0000
# 4 0.0000 0.0000 0.0000 -32.4931 0.0000 71.3377
# 5 3.7680 7.7351 8.9890 0.0000 21.7369 0.0000
# 6 0.0000 0.0000 0.0000 71.3377 0.0000 -13.3670
#
#
#
# Elastic Compliance Matrix: (Units=1/GPa)
#
#
# Indices 1 2 3 4 5 6 
#
# 1 0.017576 -0.003782 -0.003226 0.000000 -0.000367 0.000000
# 2 -0.003782 0.010412 -0.004409 0.000000 -0.001226 0.000000
# 3 -0.003226 -0.004409 0.028930 0.000000 -0.009836 0.000000
# 4 0.000000 0.000000 0.000000 0.002872 0.000000 0.015326
# 5 -0.000367 -0.001226 -0.009836 0.000000 0.050572 0.000000
# 6 0.000000 0.000000 0.000000 0.015326 0.000000 0.006981
#
#
# Mechanical properties :
#
#
# Convention : Reuss Voigt Hill
#
# Bulk Modulus (GPa) = 29.34026 40.08040 34.71033
# Shear Modulus (GPa) = 32.99521 5.80729 19.40125
#
# Velocity S-wave (km/s) = 3.70369 1.55380 2.84004
# Velocity P-wave (km/s) = 5.52156 4.45892 5.01845
#
# Compressibility (1/GPa) = 0.03408286
#
# Stress axis : x y z
#
# Youngs Moduli (GPa) = 56.89712 96.04670 34.56590
#
# Poissons Ratio (x) = 0.36328 0.11152
# Poissons Ratio (y) = 0.21520 0.15239
# Poissons Ratio (z) = 0.18356 0.42345
#
# Static dielectric constant tensor:
#      x y z
#    x 1.993630 0.000000 0.010300 
#    y 0.000000 1.991370 0.000000 
#    z 0.010300 0.000000 1.932350 
# 
# From -- ./inp_files/126251.got.cif
#   From: 2010.05.17/outbox.cif.g08.bks.cpg/sg15_64_cif.got.tgz:126251.got - 2010.06.03 18:47:42.
