data_PCOD9284496
_publ_section_title
;
Structure prediction by ZEFSAII (Michael W. Deem and Ramdas Pophale) SiO2 
 PCOD9284496
Probable space group: C 2/C
;
_chemical_formula_sum "Si O2"
_cell_formula_units_Z 48
_cell_length_a 18.595438
_cell_length_b 12.218305
_cell_length_c 14.149868
_cell_angle_alpha 90.000000
_cell_angle_beta 43.075517
_cell_angle_gamma 90.000000
_cell_volume 2195.665188
_symmetry_space_group_name_H-M "C 2/C"
_symmetry_group_IT_number 15
_symmetry_cell_setting 'monoclinic'
loop_
_space_group_symop_operation_xyz
x,y,z
-x,y,1/2-z
-x,-y,-z
x,-y,1/2+z
1/2+x,1/2+y,z
1/2-x,1/2+y,1/2-z
1/2-x,1/2-y,-z
1/2+x,1/2-y,1/2+z
loop_
_atom_site_type_symbol
_atom_site_label
_atom_site_fract_x
_atom_site_fract_y
_atom_site_fract_z
Si Si1 0.197395 0.327501 0.627006
Si Si2 0.804414 0.357467 0.579838
Si Si3 0.628923 0.674448 0.395507
Si Si4 0.894098 0.179276 0.622972
Si Si5 0.328735 0.078848 0.660818
Si Si6 0.884473 0.443769 0.325153
O O1 0.250000 0.250000 0.500000
O O2 0.292206 0.373549 0.601790
O O3 0.125063 0.257608 0.767636
O O4 0.137618 0.427850 0.638010
O O5 0.690628 0.339175 0.737395
O O6 0.873518 0.256786 0.552067
O O7 0.851950 0.469397 0.580230
O O8 0.805796 0.375345 0.467066
O O9 0.510846 0.633384 0.510450
O O10 0.626812 0.805550 0.419342
O O11 0.798039 0.094433 0.718603
O O12 0.369288 0.072008 0.728736
O O13 0.000000 0.414292 0.250000
#
# Coordination Sequence:
#
# PCOD9284496 Si02
#       6
#     8   8   8   8   8   8
#     4  10  22  37  56  96 123 153 211 263 302 363
#     4  10  22  41  58  93 124 156 207 256 300 363
#     4  10  22  40  62  85 125 165 201 252 310 362
#     4  10  22  39  65  85 120 173 198 249 314 365
#     4  10  21  41  59  89 125 154 208 255 294 369
#     4  12  23  36  65  91 118 163 204 254 308 366
#
# _framework density 21.861256999999998
#
# number of rings (size 3 to 8) (size 9 to 14) (size 15 to 20)
#    0.000    2.000    3.333    3.000    4.667    4.667 
#    0.000    2.500    0.000    0.000    0.000    0.000 
#    0.000    0.000    0.000    0.000    0.000    0.000 
#
# Total GULP energy -134159.345396 kJ/mol
# GULP energy per Si atom -5589.972725 kJ/mol
# Density = 2.181150 g / cm^3
# Si number density = 21.861257 Si / 1000 Ang^3
#
#
#
# Elastic Constant Matrix: (Units=GPa)
#
#
# Indices 1 2 3 4 5 6 
#
# 1 62.6856 -12.4998 38.8824 0.0000 -18.6160 0.0000
# 2 -12.4998 58.3528 -12.0501 0.0000 4.3326 0.0000
# 3 38.8824 -12.0501 61.0574 0.0000 -18.4137 0.0000
# 4 0.0000 0.0000 0.0000 22.4407 0.0000 11.7078
# 5 -18.6160 4.3326 -18.4137 0.0000 40.2523 0.0000
# 6 0.0000 0.0000 0.0000 11.7078 0.0000 29.6019
#
#
#
# Elastic Compliance Matrix: (Units=1/GPa)
#
#
# Indices 1 2 3 4 5 6 
#
# 1 0.027652 0.002316 -0.015510 0.000000 0.005444 0.000000
# 2 0.002316 0.018064 0.002119 0.000000 0.000096 0.000000
# 3 -0.015510 0.002119 0.028353 0.000000 0.005569 0.000000
# 4 0.000000 0.000000 0.000000 0.056148 0.000000 -0.022207
# 5 0.005444 0.000096 0.005569 0.000000 0.029898 0.000000
# 6 0.000000 0.000000 0.000000 -0.022207 0.000000 0.042565
#
#
# Mechanical properties :
#
#
# Convention : Reuss Voigt Hill
#
# Bulk Modulus (GPa) = 19.26099 23.41787 21.33943
# Shear Modulus (GPa) = 20.64963 29.64320 25.14641
#
# Velocity S-wave (km/s) = 3.07673 3.68634 3.39525
# Velocity P-wave (km/s) = 4.63156 5.37161 5.01525
#
# Compressibility (1/GPa) = 0.05191840
#
# Stress axis : x y z
#
# Youngs Moduli (GPa) = 36.16390 55.35950 35.26975
#
# Poissons Ratio (x) = -0.12822 0.54704
# Poissons Ratio (y) = -0.08376 -0.07474
# Poissons Ratio (z) = 0.56091 -0.11731
#
# Static dielectric constant tensor:
#      x y z
#    x 1.790430 0.000000 0.003870 
#    y 0.000000 1.837060 0.000000 
#    z 0.003870 0.000000 1.812430 
# 
# From -- ./inp_files/167840.got.cif
#   From: 2010.05.17/outbox.cif.g08.bks.cpg/sg15_84_cif.got.tgz:167840.got - 2010.06.03 18:47:42.
