data_PCOD9284406
_publ_section_title
;
Structure prediction by ZEFSAII (Michael W. Deem and Ramdas Pophale) SiO2 
 PCOD9284406
Probable space group: C 2/C
;
_chemical_formula_sum "Si O2"
_cell_formula_units_Z 28
_cell_length_a 12.530620
_cell_length_b 8.892023
_cell_length_c 11.988892
_cell_angle_alpha 90.000000
_cell_angle_beta 106.845336
_cell_angle_gamma 90.000000
_cell_volume 1278.513122
_symmetry_space_group_name_H-M "C 2/C"
_symmetry_group_IT_number 15
_symmetry_cell_setting 'monoclinic'
loop_
_space_group_symop_operation_xyz
x,y,z
-x,y,1/2-z
-x,-y,-z
x,-y,1/2+z
1/2+x,1/2+y,z
1/2-x,1/2+y,1/2-z
1/2-x,1/2-y,-z
1/2+x,1/2-y,1/2+z
loop_
_atom_site_type_symbol
_atom_site_label
_atom_site_fract_x
_atom_site_fract_y
_atom_site_fract_z
Si Si1 0.614167 0.595097 0.720393
Si Si2 0.334675 0.074134 0.294468
Si Si3 0.500000 0.167194 0.750000
Si Si4 0.120843 0.759527 0.997539
O O1 0.500000 0.572796 0.750000
O O2 0.708272 0.474662 0.776011
O O3 0.603824 0.608477 0.582776
O O4 0.657663 0.764386 0.764265
O O5 0.397466 0.942466 0.249509
O O6 0.394300 0.111007 0.429894
O O7 0.538180 0.259148 0.869327
O O8 0.250000 0.750000 0.000000
#
# Coordination Sequence:
#
# PCOD9284406 Si02
#       4
#     8   8   4   8
#     4  10  22  44  68 102 137 172 229 279 337 399
#     4  10  21  40  70  97 134 177 223 279 334 399
#     4  12  18  42  72  94 130 188 218 272 344 398
#     4  10  22  41  68  97 135 175 228 276 334 406
#
# _framework density 21.90044
#
# number of rings (size 3 to 8) (size 9 to 14) (size 15 to 20)
#    1.714    0.000    4.286    0.857    0.000    0.000 
#   10.286   10.000    0.000    0.000    0.000    0.000 
#    0.000    0.000    0.000    0.000    0.000    0.000 
#
# Total GULP energy -78139.932207 kJ/mol
# GULP energy per Si atom -5581.423729 kJ/mol
# Density = 2.185059 g / cm^3
# Si number density = 21.900440 Si / 1000 Ang^3
#
#
#
# Elastic Constant Matrix: (Units=GPa)
#
#
# Indices 1 2 3 4 5 6 
#
# 1 137.0248 32.5632 9.5316 0.0000 -9.3902 0.0000
# 2 32.5632 76.9976 26.0853 0.0000 8.3543 0.0000
# 3 9.5316 26.0853 121.3757 0.0000 13.5735 0.0000
# 4 0.0000 0.0000 0.0000 26.0345 0.0000 2.6686
# 5 -9.3902 8.3543 13.5735 0.0000 35.2478 0.0000
# 6 0.0000 0.0000 0.0000 2.6686 0.0000 33.7781
#
#
#
# Elastic Compliance Matrix: (Units=1/GPa)
#
#
# Indices 1 2 3 4 5 6 
#
# 1 0.008451 -0.003859 -0.000197 0.000000 0.003242 0.000000
# 2 -0.003859 0.015944 -0.002702 0.000000 -0.003766 0.000000
# 3 -0.000197 -0.002702 0.009164 0.000000 -0.002941 0.000000
# 4 0.000000 0.000000 0.000000 0.038724 0.000000 -0.003059
# 5 0.003242 -0.003766 -0.002941 0.000000 0.031259 0.000000
# 6 0.000000 0.000000 0.000000 -0.003059 0.000000 0.029847
#
#
# Mechanical properties :
#
#
# Convention : Reuss Voigt Hill
#
# Bulk Modulus (GPa) = 49.89470 52.41758 51.15614
# Shear Modulus (GPa) = 32.55514 36.82662 34.69088
#
# Velocity S-wave (km/s) = 3.85971 4.10512 3.98430
# Velocity P-wave (km/s) = 6.53415 6.81585 6.67648
#
# Compressibility (1/GPa) = 0.02004221
#
# Stress axis : x y z
#
# Youngs Moduli (GPa) = 118.33091 62.72127 109.12306
#
# Poissons Ratio (x) = 0.24204 0.02148
# Poissons Ratio (y) = 0.45664 0.29488
# Poissons Ratio (z) = 0.02329 0.16949
#
# Static dielectric constant tensor:
#      x y z
#    x 1.786870 0.000000 -0.032240 
#    y 0.000000 1.811920 0.000000 
#    z -0.032240 0.000000 1.827350 
# 
# From -- ./inp_files/83467.got.cif
#   From: 2010.05.17/outbox.cif.g08.bks.cpg/sg15_42_cif.got.tgz:83467.got - 2010.06.03 18:47:42.
