data_PCOD9284674
_publ_section_title
;
Structure prediction by ZEFSAII (Michael W. Deem and Ramdas Pophale) SiO2 
 PCOD9284674
Probable space group: C 2/C
;
_chemical_formula_sum "Si O2"
_cell_formula_units_Z 32
_cell_length_a 7.513707
_cell_length_b 13.660286
_cell_length_c 20.654911
_cell_angle_alpha 90.000000
_cell_angle_beta 52.721978
_cell_angle_gamma 90.000000
_cell_volume 1686.902333
_symmetry_space_group_name_H-M "C 2/C"
_symmetry_group_IT_number 15
_symmetry_cell_setting 'monoclinic'
loop_
_space_group_symop_operation_xyz
x,y,z
-x,y,1/2-z
-x,-y,-z
x,-y,1/2+z
1/2+x,1/2+y,z
1/2-x,1/2+y,1/2-z
1/2-x,1/2-y,-z
1/2+x,1/2-y,1/2+z
loop_
_atom_site_type_symbol
_atom_site_label
_atom_site_fract_x
_atom_site_fract_y
_atom_site_fract_z
Si Si1 0.741039 0.520801 0.415835
Si Si2 0.875207 0.091130 0.683917
Si Si3 0.661257 0.924491 0.371755
Si Si4 0.297767 0.245808 0.413215
O O1 0.500000 0.500000 0.500000
O O2 0.747604 0.456845 0.349142
O O3 0.775995 0.635292 0.394898
O O4 0.939248 0.487606 0.420090
O O5 0.740743 0.087499 0.780014
O O6 0.115511 0.035971 0.641439
O O7 0.962345 0.201828 0.651865
O O8 0.631673 0.818450 0.411241
O O9 0.250000 0.250000 0.500000
#
# Coordination Sequence:
#
# PCOD9284674 Si02
#       4
#     8   8   8   8
#     4  12  22  38  67  92 124 168 207 257 322 368
#     4   9  21  42  59  89 126 163 209 264 308 368
#     4   9  22  41  60  88 130 159 211 264 304 374
#     4  10  21  41  63  90 127 161 210 263 310 367
#
# _framework density 18.969681000000001
#
# number of rings (size 3 to 8) (size 9 to 14) (size 15 to 20)
#    1.500    0.500    2.500    0.750    0.000    9.000 
#    4.500    0.000    0.000    0.000    0.000    0.000 
#    0.000    0.000    0.000    0.000    0.000    0.000 
#
# Total GULP energy -89079.648900 kJ/mol
# GULP energy per Si atom -5567.478056 kJ/mol
# Density = 1.892651 g / cm^3
# Si number density = 18.969681 Si / 1000 Ang^3
#
#
#
# Elastic Constant Matrix: (Units=GPa)
#
#
# Indices 1 2 3 4 5 6 
#
# 1 86.6947 6.9961 6.0057 0.0000 -8.5696 0.0000
# 2 6.9961 47.1741 -17.7730 0.0000 -1.8375 0.0001
# 3 6.0057 -17.7730 47.9633 -0.0003 -4.9085 0.0001
# 4 0.0000 0.0000 -0.0003 7.9120 0.0001 7.1709
# 5 -8.5696 -1.8375 -4.9085 0.0001 30.0118 0.0000
# 6 0.0000 0.0001 0.0001 7.1709 0.0000 41.8722
#
#
#
# Elastic Compliance Matrix: (Units=1/GPa)
#
#
# Indices 1 2 3 4 5 6 
#
# 1 0.012179 -0.002499 -0.002147 0.000000 0.002973 0.000000
# 2 -0.002499 0.025429 0.009989 0.000001 0.002477 0.000000
# 3 -0.002147 0.009989 0.025242 0.000001 0.004127 0.000000
# 4 0.000000 0.000001 0.000001 0.149612 0.000000 -0.025622
# 5 0.002973 0.002477 0.004127 0.000000 0.034996 0.000000
# 6 0.000000 0.000000 0.000000 -0.025622 0.000000 0.028270
#
#
# Mechanical properties :
#
#
# Convention : Reuss Voigt Hill
#
# Bulk Modulus (GPa) = 13.59880 19.14331 16.37105
# Shear Modulus (GPa) = 17.26798 28.39942 22.83370
#
# Velocity S-wave (km/s) = 3.02038 3.87343 3.47319
# Velocity P-wave (km/s) = 4.39862 5.48799 4.97322
#
# Compressibility (1/GPa) = 0.07353591
#
# Stress axis : x y z
#
# Youngs Moduli (GPa) = 82.10823 39.32574 39.61661
#
# Poissons Ratio (x) = 0.09828 0.08505
# Poissons Ratio (y) = 0.20520 -0.39574
# Poissons Ratio (z) = 0.17627 -0.39283
#
# Static dielectric constant tensor:
#      x y z
#    x 1.669390 0.000000 -0.016380 
#    y 0.000000 1.642260 0.000000 
#    z -0.016380 0.000000 1.663040 
# 
# From -- ./inp_files/230353.got.cif
#   From: 2010.05.17/outbox.cif.g08.bks.cpg/sg15_116_cif.got.tgz:230353.got - 2010.06.03 18:47:42.
