data_PCOD9284479
_publ_section_title
;
Structure prediction by ZEFSAII (Michael W. Deem and Ramdas Pophale) SiO2 
 PCOD9284479
Probable space group: C 2/C
;
_chemical_formula_sum "Si O2"
_cell_formula_units_Z 56
_cell_length_a 8.310091
_cell_length_b 11.639241
_cell_length_c 27.663088
_cell_angle_alpha 90.000000
_cell_angle_beta 59.900129
_cell_angle_gamma 90.000000
_cell_volume 2314.854990
_symmetry_space_group_name_H-M "C 2/C"
_symmetry_group_IT_number 15
_symmetry_cell_setting 'monoclinic'
loop_
_space_group_symop_operation_xyz
x,y,z
-x,y,1/2-z
-x,-y,-z
x,-y,1/2+z
1/2+x,1/2+y,z
1/2-x,1/2+y,1/2-z
1/2-x,1/2-y,-z
1/2+x,1/2-y,1/2+z
loop_
_atom_site_type_symbol
_atom_site_label
_atom_site_fract_x
_atom_site_fract_y
_atom_site_fract_z
Si Si1 0.500000 0.024411 0.250000
Si Si2 0.090460 0.053364 0.662538
Si Si3 0.404257 0.216705 0.188213
Si Si4 0.312971 0.502875 0.632082
Si Si5 0.094680 0.403133 0.910131
Si Si6 0.000000 0.855678 0.750000
Si Si7 0.429049 0.322654 0.929752
Si Si8 0.197789 0.571258 0.542615
O O1 0.433445 0.106200 0.217007
O O2 0.328552 0.966231 0.303490
O O3 0.020535 0.176129 0.690822
O O4 0.303117 0.014462 0.629706
O O5 0.002611 0.945384 0.704858
O O6 0.008907 0.053410 0.620527
O O7 0.456138 0.182565 0.125483
O O8 0.180784 0.223322 0.222102
O O9 0.373011 0.368364 0.619413
O O10 0.241980 0.547028 0.591911
O O11 0.253228 0.347342 0.920126
O O12 0.912980 0.460362 0.960573
O O13 0.420536 0.189038 0.943180
O O14 0.380184 0.397626 0.984424
#
# Coordination Sequence:
#
# PCOD9284479 Si02
#       8
#     4   8   8   8   8   4   8   8
#     4  12  23  39  60  90 128 166 211 253 312 380
#     4  10  22  39  58  87 126 163 208 256 308 370
#     4  11  22  40  60  88 126 167 210 256 308 379
#     4  11  23  43  60  93 132 163 212 264 313 382
#     4  10  22  40  64  92 126 159 206 262 314 375
#     4  10  21  41  56  82 122 166 211 255 296 360
#     4  10  24  43  66  97 125 163 215 269 316 379
#     4  11  22  42  71  93 124 168 211 263 329 372
#
# _framework density 24.191579999999998
#
# number of rings (size 3 to 8) (size 9 to 14) (size 15 to 20)
#    0.000    1.429    2.857    2.143    2.000    0.571 
#    2.571    0.000    0.000    9.429    0.000    0.000 
#    0.000    0.000    0.000    0.000    0.000    0.000 
#
# Total GULP energy -156287.622286 kJ/mol
# GULP energy per Si atom -5581.700796 kJ/mol
# Density = 2.413652 g / cm^3
# Si number density = 24.191580 Si / 1000 Ang^3
#
#
#
# Elastic Constant Matrix: (Units=GPa)
#
#
# Indices 1 2 3 4 5 6 
#
# 1 45.7414 13.1968 3.8111 0.0000 11.5065 0.0000
# 2 13.1968 88.5919 23.0343 0.0000 -16.2650 0.0000
# 3 3.8111 23.0343 71.3889 0.0000 7.7790 0.0000
# 4 0.0000 0.0000 0.0000 -7.2806 0.0000 9.5886
# 5 11.5065 -16.2650 7.7790 0.0000 44.0036 0.0000
# 6 0.0000 0.0000 0.0000 9.5886 0.0000 23.7712
#
#
#
# Elastic Compliance Matrix: (Units=1/GPa)
#
#
# Indices 1 2 3 4 5 6 
#
# 1 0.025757 -0.005926 0.001539 0.000000 -0.009198 0.000000
# 2 -0.005926 0.015063 -0.005424 0.000000 0.008076 0.000000
# 3 0.001539 -0.005424 0.016251 0.000000 -0.005280 0.000000
# 4 0.000000 0.000000 0.000000 -0.089699 0.000000 0.036182
# 5 -0.009198 0.008076 -0.005280 0.000000 0.029049 0.000000
# 6 0.000000 0.000000 0.000000 0.036182 0.000000 0.027473
#
#
# Mechanical properties :
#
#
# Convention : Reuss Voigt Hill
#
# Bulk Modulus (GPa) = 26.70186 31.75629 29.22907
# Shear Modulus (GPa) = 89.28666 23.14416 56.21541
#
# Velocity S-wave (km/s) = 6.08180 3.09642 4.82577
# Velocity P-wave (km/s) = 7.77041 5.09306 6.56957
#
# Compressibility (1/GPa) = 0.03745058
#
# Stress axis : x y z
#
# Youngs Moduli (GPa) = 38.82417 66.38588 61.53427
#
# Poissons Ratio (x) = 0.39338 -0.09471
# Poissons Ratio (y) = 0.23006 0.33377
# Poissons Ratio (z) = -0.05976 0.36008
#
# Static dielectric constant tensor:
#      x y z
#    x 2.093730 0.000000 -0.074720 
#    y 0.000000 1.995970 0.000000 
#    z -0.074720 0.000000 2.024360 
# 
# From -- ./inp_files/287989.got.cif
#   From: 2010.05.17/outbox.cif.g08.bks.cpg/sg15_144_cif.got.tgz:287989.got - 2010.06.03 18:47:42.
