data_PCOD9284045
_publ_section_title
;
Structure prediction by ZEFSAII (Michael W. Deem and Ramdas Pophale) SiO2 
 PCOD9284045
Probable space group: C 2/C
;
_chemical_formula_sum "Si O2"
_cell_formula_units_Z 52
_cell_length_a 13.229341
_cell_length_b 7.610280
_cell_length_c 28.889622
_cell_angle_alpha 90.000000
_cell_angle_beta 38.410191
_cell_angle_gamma 90.000000
_cell_volume 1807.062139
_symmetry_space_group_name_H-M "C 2/C"
_symmetry_group_IT_number 15
_symmetry_cell_setting 'monoclinic'
loop_
_space_group_symop_operation_xyz
x,y,z
-x,y,1/2-z
-x,-y,-z
x,-y,1/2+z
1/2+x,1/2+y,z
1/2-x,1/2+y,1/2-z
1/2-x,1/2-y,-z
1/2+x,1/2-y,1/2+z
loop_
_atom_site_type_symbol
_atom_site_label
_atom_site_fract_x
_atom_site_fract_y
_atom_site_fract_z
Si Si1 0.719525 0.650163 0.587758
Si Si2 0.852480 0.445894 0.126616
Si Si3 0.879996 0.156716 0.614412
Si Si4 0.425073 0.099180 0.845186
Si Si5 0.133326 0.240834 0.774400
Si Si6 0.220554 0.003839 0.494266
Si Si7 0.000000 0.886417 0.750000
O O1 0.858761 0.655132 0.576018
O O2 0.539842 0.646710 0.675794
O O3 0.720481 0.822189 0.555348
O O4 0.738387 0.500252 0.542896
O O5 0.944981 0.635874 0.087144
O O6 0.796183 0.304716 0.186714
O O7 0.676898 0.536580 0.188173
O O8 0.734238 0.089577 0.632954
O O9 0.842519 0.169101 0.682485
O O10 0.028987 0.021449 0.554075
O O11 0.503942 0.266813 0.794677
O O12 0.558751 0.940084 0.797148
O O13 0.348369 0.124593 0.923761
#
# Coordination Sequence:
#
# PCOD9284045 Si02
#       7
#     8   8   8   8   8   8   4
#     4   9  18  36  66  89 122 174 209 260 332 391
#     4  11  21  40  63  93 136 166 211 281 329 383
#     4  10  23  40  62 100 135 161 225 280 316 404
#     4  10  22  39  68  89 129 177 213 271 333 392
#     4  10  21  40  66  92 127 174 220 266 338 395
#     4   9  19  38  63  96 125 167 223 260 325 406
#     4  10  22  36  60  98 124 164 220 268 322 390
#
# _framework density 28.77599
#
# number of rings (size 3 to 8) (size 9 to 14) (size 15 to 20)
#    0.000    2.154    1.538    1.385    4.308    3.077 
#    2.769    3.077    3.385    0.000    0.000    0.000 
#    0.000    0.000    0.000    0.000    0.000    0.000 
#
# Total GULP energy -144774.761426 kJ/mol
# GULP energy per Si atom -5568.260055 kJ/mol
# Density = 2.871049 g / cm^3
# Si number density = 28.775990 Si / 1000 Ang^3
#
#
#
# Elastic Constant Matrix: (Units=GPa)
#
#
# Indices 1 2 3 4 5 6 
#
# 1 51.8635 -12.9621 2.9102 0.0000 -30.1919 -0.0008
# 2 -12.9621 101.7353 9.9300 -0.0062 -17.5251 -0.0068
# 3 2.9102 9.9300 75.9779 -0.0042 -3.2777 -0.0023
# 4 0.0000 -0.0062 -0.0042 5.8652 -0.0003 -14.7961
# 5 -30.1919 -17.5251 -3.2777 -0.0003 55.7643 -0.0010
# 6 -0.0008 -0.0068 -0.0023 -14.7961 -0.0010 33.6554
#
#
#
# Elastic Compliance Matrix: (Units=1/GPa)
#
#
# Indices 1 2 3 4 5 6 
#
# 1 0.033177 0.007872 -0.001422 -0.000144 0.020353 -0.000061
# 2 0.007872 0.012374 -0.001571 -0.000178 0.008058 -0.000075
# 3 -0.001422 -0.001571 0.013401 -0.000085 -0.000476 -0.000037
# 4 -0.000144 -0.000178 -0.000085 -1.563255 -0.000159 -0.687264
# 5 0.020353 0.008058 -0.000476 -0.000159 0.031457 -0.000067
# 6 -0.000061 -0.000075 -0.000037 -0.687264 -0.000067 -0.272434
#
#
# Mechanical properties :
#
#
# Convention : Reuss Voigt Hill
#
# Bulk Modulus (GPa) = 14.55390 25.48143 20.01766
# Shear Modulus (GPa) = -2.88661 34.37021 15.74180
#
# Velocity S-wave (km/s) = -1.00265 3.45977 2.34144
# Velocity P-wave (km/s) = 1.93086 4.98340 3.77906
#
# Compressibility (1/GPa) = 0.06871013
#
# Stress axis : x y z
#
# Youngs Moduli (GPa) = 30.14145 80.81537 74.62138
#
# Poissons Ratio (x) = -0.63617 0.10608
# Poissons Ratio (y) = -0.23727 0.11724
# Poissons Ratio (z) = 0.04285 0.12697
#
# Static dielectric constant tensor:
#      x y z
#    x 2.430620 0.000000 0.109470 
#    y 0.000000 2.553500 0.000000 
#    z 0.109470 0.000000 2.344600 
# 
# From -- ./inp_files/295033.got.cif
#   From: 2010.05.17/outbox.cif.g08.bks.cpg/sg15_148_cif.got.tgz:295033.got - 2010.06.03 18:47:42.
