data_PCOD9284787
_publ_section_title
;
Structure prediction by ZEFSAII (Michael W. Deem and Ramdas Pophale) SiO2 
 PCOD9284787
Probable space group: C 2/C
;
_chemical_formula_sum "Si O2"
_cell_formula_units_Z 56
_cell_length_a 14.471376
_cell_length_b 8.246639
_cell_length_c 23.219227
_cell_angle_alpha 90.000000
_cell_angle_beta 55.159519
_cell_angle_gamma 90.000000
_cell_volume 2274.276307
_symmetry_space_group_name_H-M "C 2/C"
_symmetry_group_IT_number 15
_symmetry_cell_setting 'monoclinic'
loop_
_space_group_symop_operation_xyz
x,y,z
-x,y,1/2-z
-x,-y,-z
x,-y,1/2+z
1/2+x,1/2+y,z
1/2-x,1/2+y,1/2-z
1/2-x,1/2-y,-z
1/2+x,1/2-y,1/2+z
loop_
_atom_site_type_symbol
_atom_site_label
_atom_site_fract_x
_atom_site_fract_y
_atom_site_fract_z
Si Si1 0.121619 0.995671 0.137827
Si Si2 0.769119 0.518399 0.380258
Si Si3 0.349863 0.137459 0.236272
Si Si4 0.431114 0.161110 0.401503
Si Si5 0.686501 0.203058 0.464337
Si Si6 0.384694 0.475673 0.726431
Si Si7 0.546592 0.314771 0.979964
O O1 0.247054 0.041333 0.075465
O O2 0.113678 0.050107 0.206213
O O3 0.004215 0.070917 0.154299
O O4 0.100111 0.809130 0.130921
O O5 0.852745 0.549268 0.297295
O O6 0.831711 0.541734 0.418995
O O7 0.717493 0.338271 0.404075
O O8 0.669282 0.651093 0.409738
O O9 0.450157 0.082180 0.158588
O O10 0.367510 0.330358 0.229722
O O11 0.224646 0.105571 0.259637
O O12 0.436122 0.237337 0.462862
O O13 0.750000 0.250000 0.500000
O O14 0.551444 0.209009 0.515277
O O15 0.500000 0.500000 0.000000
#
# Coordination Sequence:
#
# PCOD9284787 Si02
#       7
#     8   8   8   8   8   8   8
#     4  10  21  41  64  92 131 175 218 270 340 397
#     4  11  24  43  68  98 134 180 226 280 339 404
#     4  11  24  40  69  98 136 172 229 276 346 403
#     4  11  22  45  68  96 137 178 221 278 342 407
#     4  11  25  43  66  98 134 169 228 280 334 404
#     4  10  23  39  64  93 131 175 216 275 339 405
#     4  10  23  41  70  95 129 178 221 272 338 398
#
# _framework density 24.623215999999999
#
# number of rings (size 3 to 8) (size 9 to 14) (size 15 to 20)
#    0.000    1.429    1.429    3.429   12.000    1.143 
#    2.571    1.429    0.000    0.000    0.000    0.000 
#    0.000    0.000    0.000    0.000    0.000    0.000 
#
# Total GULP energy -156334.900773 kJ/mol
# GULP energy per Si atom -5583.389313 kJ/mol
# Density = 2.456717 g / cm^3
# Si number density = 24.623216 Si / 1000 Ang^3
#
#
#
# Elastic Constant Matrix: (Units=GPa)
#
#
# Indices 1 2 3 4 5 6 
#
# 1 128.5866 21.2873 16.9721 0.0000 -16.6545 0.0000
# 2 21.2873 43.5880 24.0076 0.0000 -16.1439 0.0000
# 3 16.9721 24.0076 86.2353 0.0000 -7.1192 0.0000
# 4 0.0000 0.0000 0.0000 37.5057 0.0000 -2.9157
# 5 -16.6545 -16.1439 -7.1192 0.0000 42.8986 0.0000
# 6 0.0000 0.0000 0.0000 -2.9157 0.0000 42.3519
#
#
#
# Elastic Compliance Matrix: (Units=1/GPa)
#
#
# Indices 1 2 3 4 5 6 
#
# 1 0.008646 -0.003080 -0.000672 0.000000 0.002086 0.000000
# 2 -0.003080 0.032187 -0.007557 0.000000 0.009663 0.000000
# 3 -0.000672 -0.007557 0.013765 0.000000 -0.000821 0.000000
# 4 0.000000 0.000000 0.000000 0.026806 0.000000 0.001845
# 5 0.002086 0.009663 -0.000821 0.000000 0.027621 0.000000
# 6 0.000000 0.000000 0.000000 0.001845 0.000000 0.023739
#
#
# Mechanical properties :
#
#
# Convention : Reuss Voigt Hill
#
# Bulk Modulus (GPa) = 31.26914 42.54933 36.90923
# Shear Modulus (GPa) = 30.11309 37.62741 33.87025
#
# Velocity S-wave (km/s) = 3.50087 3.91337 3.71285
# Velocity P-wave (km/s) = 5.39148 6.14304 5.77949
#
# Compressibility (1/GPa) = 0.03198042
#
# Stress axis : x y z
#
# Youngs Moduli (GPa) = 115.66647 31.06801 72.65043
#
# Poissons Ratio (x) = 0.09568 0.04882
# Poissons Ratio (y) = 0.35620 0.54902
# Poissons Ratio (z) = 0.07773 0.23478
#
# Static dielectric constant tensor:
#      x y z
#    x 1.995300 0.000000 -0.033080 
#    y 0.000000 2.022790 0.000000 
#    z -0.033080 0.000000 2.034440 
# 
# From -- ./inp_files/273045.got.cif
#   From: 2010.05.17/outbox.cif.g08.bks.cpg/sg15_137_cif.got.tgz:273045.got - 2010.06.03 18:47:42.
