data_PCOD9284922
_publ_section_title
;
Structure prediction by ZEFSAII (Michael W. Deem and Ramdas Pophale) SiO2 
 PCOD9284922
Probable space group: C 2/C
;
_chemical_formula_sum "Si O2"
_cell_formula_units_Z 48
_cell_length_a 12.242834
_cell_length_b 14.328295
_cell_length_c 24.102125
_cell_angle_alpha 90.000000
_cell_angle_beta 34.791680
_cell_angle_gamma 90.000000
_cell_volume 2412.455189
_symmetry_space_group_name_H-M "C 2/C"
_symmetry_group_IT_number 15
_symmetry_cell_setting 'monoclinic'
loop_
_space_group_symop_operation_xyz
x,y,z
-x,y,1/2-z
-x,-y,-z
x,-y,1/2+z
1/2+x,1/2+y,z
1/2-x,1/2+y,1/2-z
1/2-x,1/2-y,-z
1/2+x,1/2-y,1/2+z
loop_
_atom_site_type_symbol
_atom_site_label
_atom_site_fract_x
_atom_site_fract_y
_atom_site_fract_z
Si Si1 0.317506 0.523113 0.452727
Si Si2 0.890540 0.536825 0.153341
Si Si3 0.203294 0.169241 0.140469
Si Si4 0.159277 0.681969 0.231234
Si Si5 0.917427 0.884095 0.220981
Si Si6 0.895161 0.803666 0.982953
O O1 0.329449 0.597907 0.397196
O O2 0.455667 0.441246 0.375391
O O3 0.362211 0.586338 0.487638
O O4 0.109806 0.480973 0.548535
O O5 0.805649 0.606067 0.143047
O O6 0.847741 0.589978 0.228449
O O7 0.783644 0.437935 0.194429
O O8 0.000000 0.200236 0.250000
O O9 0.329896 0.255673 0.067054
O O10 0.097836 0.776269 0.288736
O O11 0.376818 0.705890 0.121663
O O12 0.000000 0.670846 0.250000
O O13 0.000000 0.889607 0.250000
O O14 0.750000 0.750000 0.000000
#
# Coordination Sequence:
#
# PCOD9284922 Si02
#       6
#     8   8   8   8   8   8
#     4  11  21  37  65  94 129 164 216 266 322 383
#     4  12  22  40  66  96 126 172 216 269 323 388
#     4  11  20  37  68 102 129 159 221 274 320 380
#     4  11  26  44  64  95 138 171 211 273 334 383
#     4  11  21  39  65  95 127 163 215 272 322 380
#     4  10  21  41  65  95 130 171 211 266 325 383
#
# _framework density 19.896742
#
# number of rings (size 3 to 8) (size 9 to 14) (size 15 to 20)
#    0.000    1.000    5.000    3.500    4.667    0.667 
#    0.000    3.333    0.000    0.000    0.000    0.000 
#    0.000    0.000    0.000    0.000    0.000    0.000 
#
# Total GULP energy -133927.332956 kJ/mol
# GULP energy per Si atom -5580.305540 kJ/mol
# Density = 1.985146 g / cm^3
# Si number density = 19.896742 Si / 1000 Ang^3
#
#
#
# Elastic Constant Matrix: (Units=GPa)
#
#
# Indices 1 2 3 4 5 6 
#
# 1 34.0677 6.7785 -5.7463 -0.0005 -6.2188 -0.0008
# 2 6.7785 34.9355 -10.1857 0.0007 3.8653 -0.0003
# 3 -5.7463 -10.1857 107.8336 -0.0025 -7.6577 -0.0043
# 4 -0.0005 0.0007 -0.0025 -129.7745 -0.0006 -193.7771
# 5 -6.2188 3.8653 -7.6577 -0.0006 23.7653 -0.0010
# 6 -0.0008 -0.0003 -0.0043 -193.7771 -0.0010 -250.5105
#
#
#
# Elastic Compliance Matrix: (Units=1/GPa)
#
#
# Indices 1 2 3 4 5 6 
#
# 1 0.032945 -0.007004 0.001829 0.000000 0.010349 0.000000
# 2 -0.007004 0.031297 0.002140 -0.000001 -0.006233 0.000001
# 3 0.001829 0.002140 0.009807 -0.000001 0.003290 0.000000
# 4 0.000000 -0.000001 -0.000001 0.049708 0.000000 -0.038450
# 5 0.010349 -0.006233 0.003290 0.000000 0.046861 0.000000
# 6 0.000000 0.000001 0.000000 -0.038450 0.000000 0.025751
#
#
# Mechanical properties :
#
#
# Convention : Reuss Voigt Hill
#
# Bulk Modulus (GPa) = 14.71048 17.61443 16.16245
# Shear Modulus (GPa) = 22.21270 -58.90460 -18.34595
#
# Velocity S-wave (km/s) = 3.34488 -5.44696 -3.03984
# Velocity P-wave (km/s) = 4.72516 5.53959 2.04450
#
# Compressibility (1/GPa) = 0.06797876
#
# Stress axis : x y z
#
# Youngs Moduli (GPa) = 30.35395 31.95211 101.96956
#
# Poissons Ratio (x) = 0.22379 -0.18650
# Poissons Ratio (y) = 0.21260 -0.21825
# Poissons Ratio (z) = -0.05552 -0.06839
#
# Static dielectric constant tensor:
#      x y z
#    x 1.934240 0.000000 0.075330 
#    y 0.000000 1.701590 0.000000 
#    z 0.075330 0.000000 1.727470 
# 
# From -- ./inp_files/96202.got.cif
#   From: 2010.05.17/outbox.cif.g08.bks.cpg/sg15_49_cif.got.tgz:96202.got - 2010.06.03 18:47:42.
