data_PCOD9284213
_publ_section_title
;
Structure prediction by ZEFSAII (Michael W. Deem and Ramdas Pophale) SiO2 
 PCOD9284213
Probable space group: C 2/C
;
_chemical_formula_sum "Si O2"
_cell_formula_units_Z 40
_cell_length_a 17.240690
_cell_length_b 8.390008
_cell_length_c 24.986133
_cell_angle_alpha 90.000000
_cell_angle_beta 30.697726
_cell_angle_gamma 90.000000
_cell_volume 1845.097372
_symmetry_space_group_name_H-M "C 2/C"
_symmetry_group_IT_number 15
_symmetry_cell_setting 'monoclinic'
loop_
_space_group_symop_operation_xyz
x,y,z
-x,y,1/2-z
-x,-y,-z
x,-y,1/2+z
1/2+x,1/2+y,z
1/2-x,1/2+y,1/2-z
1/2-x,1/2-y,-z
1/2+x,1/2-y,1/2+z
loop_
_atom_site_type_symbol
_atom_site_label
_atom_site_fract_x
_atom_site_fract_y
_atom_site_fract_z
Si Si1 0.172844 0.950914 0.908254
Si Si2 0.636285 0.893253 0.396341
Si Si3 0.248624 0.934373 0.479756
Si Si4 0.928294 0.404442 0.186734
Si Si5 0.543346 0.442288 0.784934
O O1 0.166887 0.760164 0.914703
O O2 0.232508 0.038578 0.926110
O O3 0.285205 0.997613 0.793172
O O4 0.000000 0.000000 0.000000
O O5 0.590279 0.847485 0.363159
O O6 0.500000 0.000000 0.500000
O O7 0.793525 0.986917 0.298859
O O8 0.250000 0.750000 0.500000
O O9 0.412344 0.997900 0.401582
O O10 0.095907 0.004172 0.596347
O O11 0.941825 0.247114 0.214919
O O12 0.500000 0.475935 0.750000
#
# Coordination Sequence:
#
# PCOD9284213 Si02
#       5
#     8   8   8   8   8
#     4  12  24  41  67  98 131 175 223 271 329 395
#     4  12  26  43  64  98 137 174 217 275 333 391
#     4  10  21  40  67  98 127 168 221 276 330 394
#     4  11  22  43  69  95 128 175 223 269 325 395
#     4  11  23  43  67  95 130 170 214 269 329 391
#
# _framework density 21.679072999999999
#
# number of rings (size 3 to 8) (size 9 to 14) (size 15 to 20)
#    0.000    0.800    0.000   10.200    0.000    3.200 
#    0.000    3.000    0.000    0.000    0.000    0.000 
#    0.000    0.000    0.000    0.000    0.000    0.000 
#
# Total GULP energy -111832.372448 kJ/mol
# GULP energy per Si atom -5591.618622 kJ/mol
# Density = 2.162973 g / cm^3
# Si number density = 21.679073 Si / 1000 Ang^3
#
#
#
# Elastic Constant Matrix: (Units=GPa)
#
#
# Indices 1 2 3 4 5 6 
#
# 1 118.5122 1.7919 32.7432 0.0000 -1.5578 0.0000
# 2 1.7919 62.0966 34.9535 0.0000 -6.1043 0.0001
# 3 32.7432 34.9535 163.4876 -0.0002 -31.1826 0.0001
# 4 0.0000 0.0000 -0.0002 24.8396 0.0000 -2.4223
# 5 -1.5578 -6.1043 -31.1826 0.0000 57.3014 0.0000
# 6 0.0000 0.0001 0.0001 -2.4223 0.0000 7.9702
#
#
#
# Elastic Compliance Matrix: (Units=1/GPa)
#
#
# Indices 1 2 3 4 5 6 
#
# 1 0.009007 0.000867 -0.002148 0.000000 -0.000832 0.000000
# 2 0.000867 0.018393 -0.004160 0.000000 -0.000281 0.000000
# 3 -0.002148 -0.004160 0.008191 0.000000 0.003956 0.000000
# 4 0.000000 0.000000 0.000000 0.041488 0.000000 0.012609
# 5 -0.000832 -0.000281 0.003956 0.000000 0.019552 0.000000
# 6 0.000000 0.000000 0.000000 0.012609 0.000000 0.129299
#
#
# Mechanical properties :
#
#
# Convention : Reuss Voigt Hill
#
# Bulk Modulus (GPa) = 40.46889 53.67484 47.07186
# Shear Modulus (GPa) = 20.40424 36.32943 28.36684
#
# Velocity S-wave (km/s) = 3.07122 4.09807 3.62123
# Velocity P-wave (km/s) = 5.59324 6.87058 6.26455
#
# Compressibility (1/GPa) = 0.02471034
#
# Stress axis : x y z
#
# Youngs Moduli (GPa) = 111.02003 54.36937 122.08972
#
# Poissons Ratio (x) = -0.04716 0.26226
# Poissons Ratio (y) = -0.09630 0.50784
# Poissons Ratio (z) = 0.23848 0.22615
#
# Static dielectric constant tensor:
#      x y z
#    x 1.746810 0.000000 -0.014000 
#    y 0.000000 1.823650 0.000000 
#    z -0.014000 0.000000 1.801810 
# 
# From -- ./inp_files/102677.got.cif
#   From: 2010.05.17/outbox.cif.g08.bks.cpg/sg15_52_cif.got.tgz:102677.got - 2010.06.03 18:47:42.
