data_PCOD9284984
_publ_section_title
;
Structure prediction by ZEFSAII (Michael W. Deem and Ramdas Pophale) SiO2 
 PCOD9284984
Probable space group: C 2/C
;
_chemical_formula_sum "Si O2"
_cell_formula_units_Z 48
_cell_length_a 28.696538
_cell_length_b 15.096168
_cell_length_c 8.990598
_cell_angle_alpha 90.000000
_cell_angle_beta 37.986709
_cell_angle_gamma 90.000000
_cell_volume 2397.164331
_symmetry_space_group_name_H-M "C 2/C"
_symmetry_group_IT_number 15
_symmetry_cell_setting 'monoclinic'
loop_
_space_group_symop_operation_xyz
x,y,z
-x,y,1/2-z
-x,-y,-z
x,-y,1/2+z
1/2+x,1/2+y,z
1/2-x,1/2+y,1/2-z
1/2-x,1/2-y,-z
1/2+x,1/2-y,1/2+z
loop_
_atom_site_type_symbol
_atom_site_label
_atom_site_fract_x
_atom_site_fract_y
_atom_site_fract_z
Si Si1 0.116326 0.240827 0.861169
Si Si2 0.919713 0.924349 0.521649
Si Si3 0.665344 0.067055 0.269445
Si Si4 0.423315 0.055136 0.712983
Si Si5 0.833802 0.067772 0.932731
Si Si6 0.552973 0.745813 0.345631
O O1 0.160945 0.332106 0.722863
O O2 0.154949 0.156859 0.690307
O O3 0.103472 0.229208 0.070675
O O4 0.033443 0.246934 0.994441
O O5 0.861725 0.917682 0.530261
O O6 0.933880 0.831027 0.568185
O O7 0.000000 0.954781 0.250000
O O8 0.886231 0.993337 0.724318
O O9 0.598789 0.062365 0.559178
O O10 0.643255 0.997527 0.200144
O O11 0.745626 0.045220 0.140207
O O12 0.430445 0.155521 0.637219
O O13 0.500000 0.000000 0.500000
#
# Coordination Sequence:
#
# PCOD9284984 Si02
#       6
#     8   8   8   8   8   8
#     4  10  21  41  66  91 128 164 212 260 320 374
#     4  12  25  42  64  95 124 170 220 262 309 379
#     4  11  24  42  64  98 131 168 206 262 324 383
#     4  11  22  42  68  97 128 166 214 261 314 377
#     4  12  25  42  64  93 133 169 209 261 326 375
#     4  10  22  40  66  97 122 163 218 270 304 369
#
# _framework density 20.023658999999999
#
# number of rings (size 3 to 8) (size 9 to 14) (size 15 to 20)
#    0.000    1.000    3.333    3.500    2.333    2.667 
#    0.000    9.167    0.000    0.000    0.000    0.000 
#    0.000    0.000    0.000    0.000    0.000    0.000 
#
# Total GULP energy -134218.088727 kJ/mol
# GULP energy per Si atom -5592.420364 kJ/mol
# Density = 1.997808 g / cm^3
# Si number density = 20.023659 Si / 1000 Ang^3
#
#
#
# Elastic Constant Matrix: (Units=GPa)
#
#
# Indices 1 2 3 4 5 6 
#
# 1 116.3727 43.4256 17.5278 0.0000 -7.7153 0.0000
# 2 43.4256 125.9670 39.6772 0.0000 9.9661 0.0000
# 3 17.5278 39.6772 46.3190 0.0000 -0.9411 0.0000
# 4 0.0000 0.0000 0.0000 6.4202 0.0000 11.9962
# 5 -7.7153 9.9661 -0.9411 0.0000 24.9197 0.0000
# 6 0.0000 0.0000 0.0000 11.9962 0.0000 31.4557
#
#
#
# Elastic Compliance Matrix: (Units=1/GPa)
#
#
# Indices 1 2 3 4 5 6 
#
# 1 0.010402 -0.003764 -0.000617 0.000000 0.004703 0.000000
# 2 -0.003764 0.012814 -0.009688 0.000000 -0.006656 0.000000
# 3 -0.000617 -0.009688 0.030219 0.000000 0.004825 0.000000
# 4 0.000000 0.000000 0.000000 0.541953 0.000000 -0.206684
# 5 0.004703 -0.006656 0.004825 0.000000 0.044429 0.000000
# 6 0.000000 0.000000 0.000000 -0.206684 0.000000 0.110614
#
#
# Mechanical properties :
#
#
# Convention : Reuss Voigt Hill
#
# Bulk Modulus (GPa) = 39.52667 54.43555 46.98111
# Shear Modulus (GPa) = 6.35323 25.09434 15.72379
#
# Velocity S-wave (km/s) = 1.78319 3.54395 2.80529
# Velocity P-wave (km/s) = 4.90128 6.63255 5.83152
#
# Compressibility (1/GPa) = 0.02529938
#
# Stress axis : x y z
#
# Youngs Moduli (GPa) = 96.13300 78.03885 33.09149
#
# Poissons Ratio (x) = 0.29373 0.02041
# Poissons Ratio (y) = 0.36183 0.32058
# Poissons Ratio (z) = 0.05928 0.75601
#
# Static dielectric constant tensor:
#      x y z
#    x 1.682890 0.000000 -0.007060 
#    y 0.000000 1.701600 0.000000 
#    z -0.007060 0.000000 1.714020 
# 
# From -- ./inp_files/66416.got.cif
#   From: 2010.05.17/outbox.cif.g08.bks.cpg/sg15_34_cif.got.tgz:66416.got - 2010.06.03 18:47:42.
