data_PCOD9284997
_publ_section_title
;
Structure prediction by ZEFSAII (Michael W. Deem and Ramdas Pophale) SiO2 
 PCOD9284997
Probable space group: C 2/C
;
_chemical_formula_sum "Si O2"
_cell_formula_units_Z 40
_cell_length_a 7.612999
_cell_length_b 20.898193
_cell_length_c 10.376737
_cell_angle_alpha 90.000000
_cell_angle_beta 81.737587
_cell_angle_gamma 90.000000
_cell_volume 1633.781233
_symmetry_space_group_name_H-M "C 2/C"
_symmetry_group_IT_number 15
_symmetry_cell_setting 'monoclinic'
loop_
_space_group_symop_operation_xyz
x,y,z
-x,y,1/2-z
-x,-y,-z
x,-y,1/2+z
1/2+x,1/2+y,z
1/2-x,1/2+y,1/2-z
1/2-x,1/2-y,-z
1/2+x,1/2-y,1/2+z
loop_
_atom_site_type_symbol
_atom_site_label
_atom_site_fract_x
_atom_site_fract_y
_atom_site_fract_z
Si Si1 0.536555 0.305574 0.602778
Si Si2 0.900572 0.936351 0.968383
Si Si3 0.790316 0.368791 0.270128
Si Si4 0.623409 0.991099 0.362580
Si Si5 0.596152 0.237169 0.359329
O O1 0.500000 0.284598 0.750000
O O2 0.476153 0.377323 0.584338
O O3 0.477904 0.261051 0.491690
O O4 0.752413 0.303913 0.586099
O O5 0.775512 0.956461 0.863060
O O6 0.783816 0.908973 0.099816
O O7 0.000000 0.000000 0.000000
O O8 0.781470 0.421120 0.156301
O O9 0.682359 0.302402 0.288470
O O10 0.000000 0.354621 0.250000
O O11 0.500000 0.997588 0.250000
O O12 0.500000 0.000000 0.500000
O O13 0.500000 0.204236 0.250000
#
# Coordination Sequence:
#
# PCOD9284997 Si02
#       5
#     8   8   8   8   8
#     4  10  24  44  65  98 135 174 223 286 336 404
#     4  11  25  41  65 100 139 175 225 288 342 406
#     4  10  21  41  66  92 135 181 219 271 347 406
#     4  11  22  41  62  97 134 180 225 274 349 418
#     4  10  23  44  69  98 132 177 231 281 341 399
#
# _framework density 24.483080999999999
#
# number of rings (size 3 to 8) (size 9 to 14) (size 15 to 20)
#    0.000    1.600    4.000    0.600    8.400    1.600 
#    0.000    0.000    0.000    0.000    0.000    0.000 
#    0.000    0.000    0.000    0.000    0.000    0.000 
#
# Total GULP energy -111685.809005 kJ/mol
# GULP energy per Si atom -5584.290450 kJ/mol
# Density = 2.442736 g / cm^3
# Si number density = 24.483081 Si / 1000 Ang^3
#
#
#
# Elastic Constant Matrix: (Units=GPa)
#
#
# Indices 1 2 3 4 5 6 
#
# 1 47.5048 5.7834 20.9082 0.0000 6.1124 0.0000
# 2 5.7834 96.8407 19.4493 0.0000 -5.6170 0.0000
# 3 20.9082 19.4493 147.0726 0.0000 0.5735 0.0000
# 4 0.0000 0.0000 0.0000 -3.1684 0.0000 25.7684
# 5 6.1124 -5.6170 0.5735 0.0000 45.8002 0.0000
# 6 0.0000 0.0000 0.0000 25.7684 0.0000 15.3760
#
#
#
# Elastic Compliance Matrix: (Units=1/GPa)
#
#
# Indices 1 2 3 4 5 6 
#
# 1 0.022943 -0.000924 -0.003127 0.000000 -0.003136 0.000000
# 2 -0.000924 0.010725 -0.001293 0.000000 0.001455 0.000000
# 3 -0.003127 -0.001293 0.007414 0.000000 0.000166 0.000000
# 4 0.000000 0.000000 0.000000 -0.021573 0.000000 0.036155
# 5 -0.003136 0.001455 0.000166 0.000000 0.022429 0.000000
# 6 0.000000 0.000000 0.000000 0.036155 0.000000 0.004445
#
#
# Mechanical properties :
#
#
# Convention : Reuss Voigt Hill
#
# Bulk Modulus (GPa) = 32.90037 42.63333 37.76685
# Shear Modulus (GPa) = 74.40174 27.95338 51.17756
#
# Velocity S-wave (km/s) = 5.51861 3.38263 4.57697
# Velocity P-wave (km/s) = 7.35349 5.71904 6.58716
#
# Compressibility (1/GPa) = 0.03039479
#
# Stress axis : x y z
#
# Youngs Moduli (GPa) = 43.58646 93.23643 134.87578
#
# Poissons Ratio (x) = 0.08615 0.42178
# Poissons Ratio (y) = 0.04027 0.17435
# Poissons Ratio (z) = 0.13630 0.12052
#
# Static dielectric constant tensor:
#      x y z
#    x 2.094510 0.000000 -0.072160 
#    y 0.000000 1.950430 0.000000 
#    z -0.072160 0.000000 2.001010 
# 
# From -- ./inp_files/23641.got.cif
#   From: 2010.05.17/outbox.cif.g08.bks.cpg/sg15_12_cif.got.tgz:23641.got - 2010.06.03 18:47:42.
