data_PCOD9284769
_publ_section_title
;
Structure prediction by ZEFSAII (Michael W. Deem and Ramdas Pophale) SiO2 
 PCOD9284769
Probable space group: C 2/C
;
_chemical_formula_sum "Si O2"
_cell_formula_units_Z 44
_cell_length_a 15.645683
_cell_length_b 23.770737
_cell_length_c 8.397901
_cell_angle_alpha 90.000000
_cell_angle_beta 138.548136
_cell_angle_gamma 90.000000
_cell_volume 2067.567717
_symmetry_space_group_name_H-M "C 2/C"
_symmetry_group_IT_number 15
_symmetry_cell_setting 'monoclinic'
loop_
_space_group_symop_operation_xyz
x,y,z
-x,y,1/2-z
-x,-y,-z
x,-y,1/2+z
1/2+x,1/2+y,z
1/2-x,1/2+y,1/2-z
1/2-x,1/2-y,-z
1/2+x,1/2-y,1/2+z
loop_
_atom_site_type_symbol
_atom_site_label
_atom_site_fract_x
_atom_site_fract_y
_atom_site_fract_z
Si Si1 0.500000 0.551856 0.250000
Si Si2 0.710641 0.454262 0.547892
Si Si3 0.890857 0.625412 0.730577
Si Si4 0.871337 0.531513 0.970399
Si Si5 0.401278 0.750367 0.261510
Si Si6 0.117211 0.130132 0.160461
O O1 0.619054 0.508948 0.422328
O O2 0.517620 0.591906 0.122117
O O3 0.765473 0.447317 0.449120
O O4 0.643486 0.400345 0.530534
O O5 0.824079 0.473839 0.825171
O O6 0.919862 0.686373 0.850917
O O7 0.750841 0.627476 0.449360
O O8 0.000000 0.617973 0.750000
O O9 0.889892 0.576672 0.858207
O O10 0.000000 0.523141 0.250000
O O11 0.500000 0.744343 0.250000
O O12 0.421872 0.695390 0.398393
O O13 0.250000 0.750000 0.000000
#
# Coordination Sequence:
#
# PCOD9284769 Si02
#       6
#     4   8   8   8   8   8
#     4  12  22  40  62  86 126 154 206 240 308 358
#     4  12  25  39  60  91 125 161 201 251 304 368
#     4  10  21  41  64  91 119 156 207 256 300 360
#     4  12  24  40  61  88 124 165 201 250 308 363
#     4   9  19  36  64  91 116 157 208 254 301 363
#     4  11  21  39  65  91 119 159 202 256 300 364
#
# _framework density 21.281046
#
# number of rings (size 3 to 8) (size 9 to 14) (size 15 to 20)
#    0.000    1.091    4.545    2.182    0.000    1.455 
#    0.000    0.909    2.000    0.000    0.000    0.000 
#    0.000    0.000    0.000    0.000    0.000    0.000 
#
# Total GULP energy -123049.286949 kJ/mol
# GULP energy per Si atom -5593.149407 kJ/mol
# Density = 2.123261 g / cm^3
# Si number density = 21.281046 Si / 1000 Ang^3
#
#
#
# Elastic Constant Matrix: (Units=GPa)
#
#
# Indices 1 2 3 4 5 6 
#
# 1 147.8778 53.2745 11.7180 0.0000 -1.9104 0.0000
# 2 53.2745 158.7026 5.5674 0.0000 -7.3773 0.0000
# 3 11.7180 5.5674 51.3519 0.0000 10.9684 0.0000
# 4 0.0000 0.0000 0.0000 12.8934 0.0000 0.4601
# 5 -1.9104 -7.3773 10.9684 0.0000 29.9664 0.0000
# 6 0.0000 0.0000 0.0000 0.4601 0.0000 39.3227
#
#
#
# Elastic Compliance Matrix: (Units=1/GPa)
#
#
# Indices 1 2 3 4 5 6 
#
# 1 0.007812 -0.002545 -0.001605 0.000000 0.000459 0.000000
# 2 -0.002545 0.007262 -0.000601 0.000000 0.001846 0.000000
# 3 -0.001605 -0.000601 0.021651 0.000000 -0.008175 0.000000
# 4 0.000000 0.000000 0.000000 0.077592 0.000000 -0.000908
# 5 0.000459 0.001846 -0.008175 0.000000 0.036847 0.000000
# 6 0.000000 0.000000 0.000000 -0.000908 0.000000 0.025441
#
#
# Mechanical properties :
#
#
# Convention : Reuss Voigt Hill
#
# Bulk Modulus (GPa) = 36.73168 55.45023 46.09095
# Shear Modulus (GPa) = 25.61731 35.59465 30.60598
#
# Velocity S-wave (km/s) = 3.47329 4.09418 3.79645
# Velocity P-wave (km/s) = 5.77778 6.96150 6.39708
#
# Compressibility (1/GPa) = 0.02722446
#
# Stress axis : x y z
#
# Youngs Moduli (GPa) = 128.00431 137.69869 46.18740
#
# Poissons Ratio (x) = 0.35042 0.07412
# Poissons Ratio (y) = 0.32575 0.02775
# Poissons Ratio (z) = 0.20542 0.08273
#
# Static dielectric constant tensor:
#      x y z
#    x 1.761020 0.000000 0.051910 
#    y 0.000000 1.767560 0.000000 
#    z 0.051910 0.000000 1.813490 
# 
# From -- ./inp_files/42374.got.cif
#   From: 2010.05.17/outbox.cif.g08.bks.cpg/sg15_22_cif.got.tgz:42374.got - 2010.06.03 18:47:42.
