data_PCOD9284851
_publ_section_title
;
Structure prediction by ZEFSAII (Michael W. Deem and Ramdas Pophale) SiO2 
 PCOD9284851
Probable space group: C 2/C
;
_chemical_formula_sum "Si O2"
_cell_formula_units_Z 44
_cell_length_a 18.604522
_cell_length_b 15.421170
_cell_length_c 8.731971
_cell_angle_alpha 90.000000
_cell_angle_beta 77.433194
_cell_angle_gamma 90.000000
_cell_volume 2445.215090
_symmetry_space_group_name_H-M "C 2/C"
_symmetry_group_IT_number 15
_symmetry_cell_setting 'monoclinic'
loop_
_space_group_symop_operation_xyz
x,y,z
-x,y,1/2-z
-x,-y,-z
x,-y,1/2+z
1/2+x,1/2+y,z
1/2-x,1/2+y,1/2-z
1/2-x,1/2-y,-z
1/2+x,1/2-y,1/2+z
loop_
_atom_site_type_symbol
_atom_site_label
_atom_site_fract_x
_atom_site_fract_y
_atom_site_fract_z
Si Si1 0.912469 0.888735 0.271676
Si Si2 0.728698 0.074137 0.317854
Si Si3 0.677156 0.783983 0.617457
Si Si4 0.602774 0.064757 0.963412
Si Si5 0.000000 0.465078 0.250000
Si Si6 0.832697 0.026208 0.529905
O O1 0.876102 0.795972 0.323076
O O2 0.885612 0.919568 0.116384
O O3 0.000000 0.886064 0.250000
O O4 0.878421 0.958779 0.405667
O O5 0.697831 0.162461 0.260869
O O6 0.782116 0.082735 0.439139
O O7 0.662845 0.008271 0.391640
O O8 0.776930 0.027979 0.163191
O O9 0.750000 0.750000 0.500000
O O10 0.640710 0.852598 0.519259
O O11 0.554692 0.086300 0.835899
O O12 0.549259 0.024287 0.116184
#
# Coordination Sequence:
#
# PCOD9284851 Si02
#       6
#     8   8   8   8   4   8
#     4  11  24  40  64  89 124 164 202 262 310 369
#     4  11  19  39  66  91 120 164 204 253 303 367
#     4  12  23  39  63  95 125 153 210 262 302 355
#     4  11  21  38  62  90 128 165 200 246 311 378
#     4  10  22  36  62  92 122 174 196 238 312 390
#     4  10  21  41  65  87 117 165 212 247 312 364
#
# _framework density 17.994326999999998
#
# number of rings (size 3 to 8) (size 9 to 14) (size 15 to 20)
#    0.000    1.091    5.455    1.636    1.273    0.727 
#    0.000    1.818    2.000    0.000    0.000    0.000 
#    0.000    0.000    0.000    0.000    0.000    0.000 
#
# Total GULP energy -122898.119009 kJ/mol
# GULP energy per Si atom -5586.278137 kJ/mol
# Density = 1.795337 g / cm^3
# Si number density = 17.994327 Si / 1000 Ang^3
#
#
#
# Elastic Constant Matrix: (Units=GPa)
#
#
# Indices 1 2 3 4 5 6 
#
# 1 165.4501 75.4203 80.2346 0.0000 13.8084 0.0000
# 2 75.4203 112.7897 52.0550 0.0000 7.9243 0.0000
# 3 80.2346 52.0550 117.0581 0.0000 18.8532 0.0000
# 4 0.0000 0.0000 0.0000 43.6125 0.0000 -7.3414
# 5 13.8084 7.9243 18.8532 0.0000 38.8710 0.0000
# 6 0.0000 0.0000 0.0000 -7.3414 0.0000 50.3259
#
#
#
# Elastic Compliance Matrix: (Units=1/GPa)
#
#
# Indices 1 2 3 4 5 6 
#
# 1 0.010775 -0.004779 -0.005208 0.000000 -0.000328 0.000000
# 2 -0.004779 0.013276 -0.002675 0.000000 0.000288 0.000000
# 3 -0.005208 -0.002675 0.014010 0.000000 -0.004400 0.000000
# 4 0.000000 0.000000 0.000000 0.023506 0.000000 0.003429
# 5 -0.000328 0.000288 -0.004400 0.000000 0.027918 0.000000
# 6 0.000000 0.000000 0.000000 0.003429 0.000000 0.020371
#
#
# Mechanical properties :
#
#
# Convention : Reuss Voigt Hill
#
# Bulk Modulus (GPa) = 78.49875 90.07975 84.28925
# Shear Modulus (GPa) = 35.86156 39.06775 37.46465
#
# Velocity S-wave (km/s) = 4.46908 4.66458 4.56787
# Velocity P-wave (km/s) = 8.38743 8.89830 8.64664
#
# Compressibility (1/GPa) = 0.01273906
#
# Stress axis : x y z
#
# Youngs Moduli (GPa) = 92.80407 75.32608 71.37550
#
# Poissons Ratio (x) = 0.35996 0.37172
# Poissons Ratio (y) = 0.44348 0.19090
# Poissons Ratio (z) = 0.48331 0.20147
#
# Static dielectric constant tensor:
#      x y z
#    x 1.625250 0.000000 0.021110 
#    y 0.000000 1.056920 0.000000 
#    z 0.021110 0.000000 1.615620 
# 
# From -- ./inp_files/46979.got.cif
#   From: 2010.05.17/outbox.cif.g08.bks.cpg/sg15_24_cif.got.tgz:46979.got - 2010.06.03 18:47:42.
