data_PCOD9284183
_publ_section_title
;
Structure prediction by ZEFSAII (Michael W. Deem and Ramdas Pophale) SiO2 
 PCOD9284183
Probable space group: C 2/C
;
_chemical_formula_sum "Si O2"
_cell_formula_units_Z 36
_cell_length_a 12.337182
_cell_length_b 24.479373
_cell_length_c 5.381456
_cell_angle_alpha 90.000000
_cell_angle_beta 73.446476
_cell_angle_gamma 90.000000
_cell_volume 1557.875108
_symmetry_space_group_name_H-M "C 2/C"
_symmetry_group_IT_number 15
_symmetry_cell_setting 'monoclinic'
loop_
_space_group_symop_operation_xyz
x,y,z
-x,y,1/2-z
-x,-y,-z
x,-y,1/2+z
1/2+x,1/2+y,z
1/2-x,1/2+y,1/2-z
1/2-x,1/2-y,-z
1/2+x,1/2-y,1/2+z
loop_
_atom_site_type_symbol
_atom_site_label
_atom_site_fract_x
_atom_site_fract_y
_atom_site_fract_z
Si Si1 0.000000 0.034878 0.750000
Si Si2 0.366933 0.035145 0.848214
Si Si3 0.396864 0.707269 0.488599
Si Si4 0.709449 0.387423 0.166439
Si Si5 0.297814 0.797902 0.787985
O O1 0.117592 0.068161 0.645922
O O2 0.000000 0.000000 0.500000
O O3 0.500000 0.050708 0.750000
O O4 0.284120 0.085050 0.834923
O O5 0.347668 0.992487 0.630262
O O6 0.500000 0.693619 0.250000
O O7 0.373762 0.662028 0.706921
O O8 0.406243 0.768038 0.596940
O O9 0.289169 0.700443 0.381265
O O10 0.795905 0.356411 0.922390
O O11 0.250000 0.750000 0.000000
#
# Coordination Sequence:
#
# PCOD9284183 Si02
#       5
#     4   8   8   8   8
#     4  12  28  42  66 114 144 186 234 288 356 416
#     4  10  23  44  69  95 134 182 231 288 342 401
#     4  10  21  40  67  94 137 174 223 282 350 417
#     4  11  23  40  69  98 142 181 228 284 346 422
#     4   9  21  40  61  96 128 178 220 274 352 404
#
# _framework density 23.108398000000001
#
# number of rings (size 3 to 8) (size 9 to 14) (size 15 to 20)
#    0.000    1.778    0.000    2.667    7.778    2.667 
#    0.000   12.222    0.000    0.000    0.000    0.000 
#    0.000    0.000    0.000    0.000    0.000    0.000 
#
# Total GULP energy -100430.194348 kJ/mol
# GULP energy per Si atom -5579.455242 kJ/mol
# Density = 2.305580 g / cm^3
# Si number density = 23.108398 Si / 1000 Ang^3
#
#
#
# Elastic Constant Matrix: (Units=GPa)
#
#
# Indices 1 2 3 4 5 6 
#
# 1 78.2833 51.7798 5.8240 0.0000 15.3180 0.0000
# 2 51.7798 124.0145 47.4883 0.0000 8.4607 0.0000
# 3 5.8240 47.4883 82.8751 0.0000 15.1411 0.0000
# 4 0.0000 0.0000 0.0000 10.6420 0.0000 8.2259
# 5 15.3180 8.4607 15.1411 0.0000 37.4093 0.0000
# 6 0.0000 0.0000 0.0000 8.2259 0.0000 16.2409
#
#
#
# Elastic Compliance Matrix: (Units=1/GPa)
#
#
# Indices 1 2 3 4 5 6 
#
# 1 0.020974 -0.010515 0.006140 0.000000 -0.008695 0.000000
# 2 -0.010515 0.015602 -0.009009 0.000000 0.004423 0.000000
# 3 0.006140 -0.009009 0.018233 0.000000 -0.007856 0.000000
# 4 0.000000 0.000000 0.000000 0.154425 0.000000 -0.078215
# 5 -0.008695 0.004423 -0.007856 0.000000 0.032471 0.000000
# 6 0.000000 0.000000 0.000000 -0.078215 0.000000 0.101189
#
#
# Mechanical properties :
#
#
# Convention : Reuss Voigt Hill
#
# Bulk Modulus (GPa) = 35.66408 55.03969 45.35188
# Shear Modulus (GPa) = 13.19229 24.86384 19.02807
#
# Velocity S-wave (km/s) = 2.39192 3.28375 2.87265
# Velocity P-wave (km/s) = 4.80575 6.18442 5.53816
#
# Compressibility (1/GPa) = 0.02803942
#
# Stress axis : x y z
#
# Youngs Moduli (GPa) = 47.67835 64.09387 54.84676
#
# Poissons Ratio (x) = 0.67396 -0.33676
# Poissons Ratio (y) = 0.50135 0.49414
# Poissons Ratio (z) = -0.29274 0.57745
#
# Static dielectric constant tensor:
#      x y z
#    x 1.897680 0.000000 -0.050030 
#    y 0.000000 1.959770 0.000000 
#    z -0.050030 0.000000 1.925150 
# 
# From -- ./inp_files/4343.got.cif
#   From: 2010.05.17/outbox.cif.g08.bks.cpg/sg15_3_cif.got.tgz:4343.got - 2010.06.03 18:47:42.
