data_PCOD9284098
_publ_section_title
;
Structure prediction by ZEFSAII (Michael W. Deem and Ramdas Pophale) SiO2 
 PCOD9284098
Probable space group: C 2/C
;
_chemical_formula_sum "Si O2"
_cell_formula_units_Z 56
_cell_length_a 18.662871
_cell_length_b 14.503349
_cell_length_c 9.772925
_cell_angle_alpha 90.000000
_cell_angle_beta 126.526951
_cell_angle_gamma 90.000000
_cell_volume 2125.684487
_symmetry_space_group_name_H-M "C 2/C"
_symmetry_group_IT_number 15
_symmetry_cell_setting 'monoclinic'
loop_
_space_group_symop_operation_xyz
x,y,z
-x,y,1/2-z
-x,-y,-z
x,-y,1/2+z
1/2+x,1/2+y,z
1/2-x,1/2+y,1/2-z
1/2-x,1/2-y,-z
1/2+x,1/2-y,1/2+z
loop_
_atom_site_type_symbol
_atom_site_label
_atom_site_fract_x
_atom_site_fract_y
_atom_site_fract_z
Si Si1 0.418471 0.002430 0.800538
Si Si2 0.254709 0.531936 0.735960
Si Si3 0.615353 0.313219 0.771454
Si Si4 0.000000 0.336845 0.750000
Si Si5 0.646142 0.722791 0.859843
Si Si6 0.357528 0.491600 0.108674
Si Si7 0.500000 0.829449 0.250000
Si Si8 0.785537 0.241095 0.835070
O O1 0.431657 0.910418 0.732615
O O2 0.331830 0.994294 0.792502
O O3 0.426161 0.091998 0.711096
O O4 0.500000 0.000000 0.000000
O O5 0.266106 0.500874 0.593799
O O6 0.249186 0.641510 0.747112
O O7 0.338114 0.503688 0.927004
O O8 0.590522 0.419839 0.773160
O O9 0.530216 0.245723 0.666997
O O10 0.697890 0.304120 0.757908
O O11 0.662937 0.274164 0.964450
O O12 0.076067 0.266251 0.886152
O O13 0.620668 0.614177 0.833079
O O14 0.641264 0.761665 0.698406
O O15 0.750000 0.750000 0.000000
#
# Coordination Sequence:
#
# PCOD9284098 Si02
#       8
#     8   8   8   4   8   8   4   8
#     4  11  26  39  62  94 135 174 214 288 343 405
#     4  10  21  43  66  96 133 168 229 268 343 400
#     4  10  21  40  66  96 128 169 222 268 334 394
#     4  11  28  43  64 100 134 177 226 283 340 404
#     4  11  25  45  66  96 139 179 227 270 342 403
#     4  10  24  41  71  97 128 181 224 278 325 411
#     4  11  24  41  62 100 132 169 220 281 344 404
#     4   9  21  40  65  90 128 174 214 274 322 401
#
# _framework density 26.344453999999999
#
# number of rings (size 3 to 8) (size 9 to 14) (size 15 to 20)
#    0.000    1.714    1.429    0.857   14.000    0.571 
#    0.000    0.000    0.000    5.143    0.000    0.000 
#    0.000    0.000    0.000    0.000    0.000    0.000 
#
# Total GULP energy -155928.567843 kJ/mol
# GULP energy per Si atom -5568.877423 kJ/mol
# Density = 2.628449 g / cm^3
# Si number density = 26.344454 Si / 1000 Ang^3
#
#
#
# Elastic Constant Matrix: (Units=GPa)
#
#
# Indices 1 2 3 4 5 6 
#
# 1 91.6695 37.2805 4.8309 0.0000 4.4367 0.0000
# 2 37.2805 198.2877 6.1604 0.0000 5.2983 0.0000
# 3 4.8309 6.1604 61.7079 0.0000 -2.0308 0.0000
# 4 0.0000 0.0000 0.0000 9.2389 0.0000 -1.5973
# 5 4.4367 5.2983 -2.0308 0.0000 33.2671 0.0000
# 6 0.0000 0.0000 0.0000 -1.5973 0.0000 50.2374
#
#
#
# Elastic Compliance Matrix: (Units=1/GPa)
#
#
# Indices 1 2 3 4 5 6 
#
# 1 0.011897 -0.002179 -0.000756 0.000000 -0.001286 0.000000
# 2 -0.002179 0.005481 -0.000397 0.000000 -0.000607 0.000000
# 3 -0.000756 -0.000397 0.016342 0.000000 0.001162 0.000000
# 4 0.000000 0.000000 0.000000 0.108836 0.000000 0.003460
# 5 -0.001286 -0.000607 0.001162 0.000000 0.030399 0.000000
# 6 0.000000 0.000000 0.000000 0.003460 0.000000 0.020016
#
#
# Mechanical properties :
#
#
# Convention : Reuss Voigt Hill
#
# Bulk Modulus (GPa) = 36.95851 49.80098 43.37975
# Shear Modulus (GPa) = 23.96320 38.77492 31.36906
#
# Velocity S-wave (km/s) = 3.01925 3.84062 3.45444
# Velocity P-wave (km/s) = 5.11995 6.21386 5.69324
#
# Compressibility (1/GPa) = 0.02705737
#
# Stress axis : x y z
#
# Youngs Moduli (GPa) = 84.05507 182.43615 61.19050
#
# Poissons Ratio (x) = 0.39751 0.04627
# Poissons Ratio (y) = 0.18315 0.02427
# Poissons Ratio (z) = 0.06356 0.07235
#
# Static dielectric constant tensor:
#      x y z
#    x 2.563450 0.000000 0.057810 
#    y 0.000000 2.054520 0.000000 
#    z 0.057810 0.000000 2.201380 
# 
# From -- ./inp_files/105818.got.cif
#   From: 2010.05.17/outbox.cif.g08.bks.cpg/sg15_53_cif.got.tgz:105818.got - 2010.06.03 18:47:42.
