data_PCOD9284920
_publ_section_title
;
Structure prediction by ZEFSAII (Michael W. Deem and Ramdas Pophale) SiO2 
 PCOD9284920
Probable space group: C 2/C
;
_chemical_formula_sum "Si O2"
_cell_formula_units_Z 40
_cell_length_a 27.577682
_cell_length_b 7.165366
_cell_length_c 9.920094
_cell_angle_alpha 90.000000
_cell_angle_beta 124.709660
_cell_angle_gamma 90.000000
_cell_volume 1611.421407
_symmetry_space_group_name_H-M "C 2/C"
_symmetry_group_IT_number 15
_symmetry_cell_setting 'monoclinic'
loop_
_space_group_symop_operation_xyz
x,y,z
-x,y,1/2-z
-x,-y,-z
x,-y,1/2+z
1/2+x,1/2+y,z
1/2-x,1/2+y,1/2-z
1/2-x,1/2-y,-z
1/2+x,1/2-y,1/2+z
loop_
_atom_site_type_symbol
_atom_site_label
_atom_site_fract_x
_atom_site_fract_y
_atom_site_fract_z
Si Si1 0.657707 0.009511 0.027031
Si Si2 0.856934 0.038780 0.006268
Si Si3 0.539061 0.919132 0.441429
Si Si4 0.266734 0.054021 0.597415
Si Si5 0.069556 0.957113 0.120832
O O1 0.686992 0.959113 0.931188
O O2 0.699756 0.932134 0.208962
O O3 0.655596 0.238030 0.024902
O O4 0.590348 0.955694 0.955109
O O5 0.795589 0.958528 0.965605
O O6 0.907391 0.005126 0.196136
O O7 0.882857 0.956888 0.908660
O O8 0.500000 0.857881 0.250000
O O9 0.570603 0.754643 0.572917
O O10 0.500000 0.000000 0.500000
O O11 0.250000 0.250000 0.500000
O O12 0.000000 0.000000 0.000000
#
# Coordination Sequence:
#
# PCOD9284920 Si02
#       5
#     8   8   8   8   8
#     4  10  21  41  65  95 130 166 212 266 318 381
#     4  10  22  40  63  96 128 167 213 265 319 379
#     4  11  24  43  64  95 131 170 214 265 320 380
#     4  10  21  41  66  94 127 170 212 261 322 383
#     4  11  22  41  66  94 129 169 215 265 315 379
#
# _framework density 24.822807000000001
#
# number of rings (size 3 to 8) (size 9 to 14) (size 15 to 20)
#    0.000    1.600    0.000    5.400    0.000    3.200 
#    0.000   28.000    0.000    0.000    0.000    0.000 
#    0.000    0.000    0.000    0.000    0.000    0.000 
#
# Total GULP energy -111706.863936 kJ/mol
# GULP energy per Si atom -5585.343197 kJ/mol
# Density = 2.476631 g / cm^3
# Si number density = 24.822807 Si / 1000 Ang^3
#
#
#
# Elastic Constant Matrix: (Units=GPa)
#
#
# Indices 1 2 3 4 5 6 
#
# 1 213.1433 -12.1992 -9.5067 0.0000 -11.7149 0.0000
# 2 -12.1992 79.5772 -0.5201 0.0000 0.3062 0.0000
# 3 -9.5067 -0.5201 115.0075 0.0000 2.4168 0.0000
# 4 0.0000 0.0000 0.0000 31.1247 0.0000 8.5405
# 5 -11.7149 0.3062 2.4168 0.0000 54.9337 0.0000
# 6 0.0000 0.0000 0.0000 8.5405 0.0000 7.9124
#
#
#
# Elastic Compliance Matrix: (Units=1/GPa)
#
#
# Indices 1 2 3 4 5 6 
#
# 1 0.004806 0.000735 0.000379 0.000000 0.001004 0.000000
# 2 0.000735 0.012680 0.000116 0.000000 0.000081 0.000000
# 3 0.000379 0.000116 0.008733 0.000000 -0.000304 0.000000
# 4 0.000000 0.000000 0.000000 0.045649 0.000000 -0.049273
# 5 0.001004 0.000081 -0.000304 0.000000 0.018431 0.000000
# 6 0.000000 0.000000 0.000000 -0.049273 0.000000 0.179567
#
#
# Mechanical properties :
#
#
# Convention : Reuss Voigt Hill
#
# Bulk Modulus (GPa) = 34.86582 40.36399 37.61490
# Shear Modulus (GPa) = 18.05287 47.45776 32.75532
#
# Velocity S-wave (km/s) = 2.69972 4.37723 3.63652
# Velocity P-wave (km/s) = 4.87795 6.46861 5.72876
#
# Compressibility (1/GPa) = 0.02868139
#
# Stress axis : x y z
#
# Youngs Moduli (GPa) = 208.07838 78.86689 114.50333
#
# Poissons Ratio (x) = -0.05800 -0.04345
# Poissons Ratio (y) = -0.15301 -0.01333
# Poissons Ratio (z) = -0.07896 -0.00918
#
# Static dielectric constant tensor:
#      x y z
#    x 2.133540 0.000000 -0.013630 
#    y 0.000000 2.175810 0.000000 
#    z -0.013630 0.000000 1.876540 
# 
# From -- ./inp_files/68451.got.cif
#   From: 2010.05.17/outbox.cif.g08.bks.cpg/sg15_35_cif.got.tgz:68451.got - 2010.06.03 18:47:42.
