data_PCOD9284428
_publ_section_title
;
Structure prediction by ZEFSAII (Michael W. Deem and Ramdas Pophale) SiO2 
 PCOD9284428
Probable space group: C 2/C
;
_chemical_formula_sum "Si O2"
_cell_formula_units_Z 36
_cell_length_a 7.452359
_cell_length_b 18.835938
_cell_length_c 17.793646
_cell_angle_alpha 90.000000
_cell_angle_beta 142.072595
_cell_angle_gamma 90.000000
_cell_volume 1535.262786
_symmetry_space_group_name_H-M "C 2/C"
_symmetry_group_IT_number 15
_symmetry_cell_setting 'monoclinic'
loop_
_space_group_symop_operation_xyz
x,y,z
-x,y,1/2-z
-x,-y,-z
x,-y,1/2+z
1/2+x,1/2+y,z
1/2-x,1/2+y,1/2-z
1/2-x,1/2-y,-z
1/2+x,1/2-y,1/2+z
loop_
_atom_site_type_symbol
_atom_site_label
_atom_site_fract_x
_atom_site_fract_y
_atom_site_fract_z
Si Si1 0.800525 0.114727 0.305241
Si Si2 0.448855 0.709288 0.988612
Si Si3 0.950177 0.645968 0.045849
Si Si4 0.000000 0.622764 0.750000
Si Si5 0.526025 0.532881 0.848372
O O1 0.500000 0.096030 0.250000
O O2 0.704500 0.131710 0.189174
O O3 0.938873 0.180327 0.395082
O O4 0.008834 0.046680 0.374638
O O5 0.463153 0.793623 0.984374
O O6 0.151387 0.673206 0.862184
O O7 0.687620 0.678787 0.008715
O O8 0.816779 0.574957 0.967253
O O9 0.750927 0.574725 0.706851
O O10 0.500000 0.531826 0.750000
#
# Coordination Sequence:
#
# PCOD9284428 Si02
#       5
#     8   8   8   4   8
#     4  10  21  40  71  96 136 180 226 273 341 397
#     4   9  20  40  67  96 132 181 223 277 334 404
#     4   9  21  40  65  98 138 173 226 274 341 397
#     4  10  22  42  70  98 132 180 230 272 334 404
#     4  11  24  41  68 100 137 177 222 282 335 400
#
# _framework density 23.448753
#
# number of rings (size 3 to 8) (size 9 to 14) (size 15 to 20)
#    0.000    2.222    1.111    0.000    3.111    9.778 
#    2.000    2.222    0.000    0.000    0.000    0.000 
#    0.000    0.000    0.000    0.000    0.000    0.000 
#
# Total GULP energy -100801.674353 kJ/mol
# GULP energy per Si atom -5600.093020 kJ/mol
# Density = 2.339538 g / cm^3
# Si number density = 23.448753 Si / 1000 Ang^3
#
#
#
# Elastic Constant Matrix: (Units=GPa)
#
#
# Indices 1 2 3 4 5 6 
#
# 1 112.9834 49.8036 35.3883 -0.0003 4.8860 0.0002
# 2 49.8036 183.3338 82.9014 0.0000 -19.8630 0.0000
# 3 35.3883 82.9014 134.9325 -0.0002 -26.7579 0.0001
# 4 -0.0003 0.0000 -0.0002 31.1589 -0.0003 -24.7236
# 5 4.8860 -19.8630 -26.7579 -0.0003 36.5686 0.0002
# 6 0.0002 0.0000 0.0001 -24.7236 0.0002 12.1401
#
#
#
# Elastic Compliance Matrix: (Units=1/GPa)
#
#
# Indices 1 2 3 4 5 6 
#
# 1 0.010795 -0.002401 -0.002223 0.000000 -0.004373 0.000000
# 2 -0.002401 0.008108 -0.003995 0.000000 0.001802 0.000000
# 3 -0.002223 -0.003995 0.011788 0.000000 0.006752 0.000000
# 4 0.000000 0.000000 0.000000 -0.052107 0.000000 -0.106117
# 5 -0.004373 0.001802 0.006752 0.000000 0.033850 0.000000
# 6 0.000000 0.000000 0.000000 -0.106117 0.000000 -0.133738
#
#
# Mechanical properties :
#
#
# Convention : Reuss Voigt Hill
#
# Bulk Modulus (GPa) = 74.33314 85.27069 79.80192
# Shear Modulus (GPa) = -50.20967 33.51729 -8.34619
#
# Velocity S-wave (km/s) = -4.63239 3.78482 -1.88867
# Velocity P-wave (km/s) = 1.77682 7.45275 5.41759
#
# Compressibility (1/GPa) = 0.01345295
#
# Stress axis : x y z
#
# Youngs Moduli (GPa) = 92.63844 123.32994 84.83554
#
# Poissons Ratio (x) = 0.29611 0.18861
# Poissons Ratio (y) = 0.22242 0.33889
# Poissons Ratio (z) = 0.20595 0.49266
#
# Static dielectric constant tensor:
#      x y z
#    x 1.882150 0.000000 0.023110 
#    y 0.000000 1.849730 0.000000 
#    z 0.023110 0.000000 1.821210 
# 
# From -- ./inp_files/190140.got.cif
#   From: 2010.05.17/outbox.cif.g08.bks.cpg/sg15_96_cif.got.tgz:190140.got - 2010.06.03 18:47:42.
