data_PCOD9284285
_publ_section_title
;
Structure prediction by ZEFSAII (Michael W. Deem and Ramdas Pophale) SiO2 
 PCOD9284285
Probable space group: C 2/C
;
_chemical_formula_sum "Si O2"
_cell_formula_units_Z 48
_cell_length_a 18.317859
_cell_length_b 12.158991
_cell_length_c 12.427951
_cell_angle_alpha 90.000000
_cell_angle_beta 128.053907
_cell_angle_gamma 90.000000
_cell_volume 2179.638026
_symmetry_space_group_name_H-M "C 2/C"
_symmetry_group_IT_number 15
_symmetry_cell_setting 'monoclinic'
loop_
_space_group_symop_operation_xyz
x,y,z
-x,y,1/2-z
-x,-y,-z
x,-y,1/2+z
1/2+x,1/2+y,z
1/2-x,1/2+y,1/2-z
1/2-x,1/2-y,-z
1/2+x,1/2-y,1/2+z
loop_
_atom_site_type_symbol
_atom_site_label
_atom_site_fract_x
_atom_site_fract_y
_atom_site_fract_z
Si Si1 0.370508 0.176735 0.036889
Si Si2 0.340860 0.335825 0.831221
Si Si3 0.415629 0.818269 0.814379
Si Si4 0.698138 0.990099 0.201126
Si Si5 0.731073 0.324326 0.086203
Si Si6 0.961319 0.119288 0.003136
O O1 0.478923 0.151351 0.117294
O O2 0.355939 0.181147 0.150685
O O3 0.353680 0.294407 0.964642
O O4 0.318988 0.086953 0.916826
O O5 0.299411 0.456258 0.783078
O O6 0.262420 0.258918 0.708992
O O7 0.442043 0.324588 0.869704
O O8 0.375911 0.912442 0.855946
O O9 0.424483 0.696667 0.872635
O O10 0.701918 0.925033 0.318632
O O11 0.750000 0.250000 0.000000
O O12 0.625616 0.369561 0.994936
O O13 0.000000 0.000000 0.000000
#
# Coordination Sequence:
#
# PCOD9284285 Si02
#       6
#     8   8   8   8   8   8
#     4   9  22  40  61  99 131 172 238 298 357 434
#     4  10  22  42  64  95 139 183 233 300 360 429
#     4  10  21  40  68  96 129 181 241 298 361 436
#     4  11  21  39  66  97 138 186 233 303 369 425
#     4  11  25  44  64 103 146 187 243 299 370 444
#     4  11  22  44  70  98 141 187 235 299 369 436
#
# _framework density 22.022003999999999
#
# number of rings (size 3 to 8) (size 9 to 14) (size 15 to 20)
#    0.000    1.667    3.333    0.500    2.333    1.333 
#    3.000    1.667    0.000    0.000    0.000    0.000 
#    0.000    0.000    0.000    0.000    0.000    0.000 
#
# Total GULP energy -133689.076943 kJ/mol
# GULP energy per Si atom -5570.378206 kJ/mol
# Density = 2.197188 g / cm^3
# Si number density = 22.022004 Si / 1000 Ang^3
#
#
#
# Elastic Constant Matrix: (Units=GPa)
#
#
# Indices 1 2 3 4 5 6 
#
# 1 85.7567 34.0022 24.2227 0.0000 29.5689 0.0000
# 2 34.0022 122.0696 49.9990 0.0000 3.4430 0.0000
# 3 24.2227 49.9990 107.5468 0.0000 4.7379 0.0000
# 4 0.0000 0.0000 0.0000 31.3032 0.0000 7.4117
# 5 29.5689 3.4430 4.7379 0.0000 31.1922 0.0000
# 6 0.0000 0.0000 0.0000 7.4117 0.0000 33.0825
#
#
#
# Elastic Compliance Matrix: (Units=1/GPa)
#
#
# Indices 1 2 3 4 5 6 
#
# 1 0.020260 -0.004430 -0.001690 0.000000 -0.018460 0.000000
# 2 -0.004430 0.011093 -0.004319 0.000000 0.003631 0.000000
# 3 -0.001690 -0.004319 0.011674 0.000000 0.000306 0.000000
# 4 0.000000 0.000000 0.000000 0.033735 0.000000 -0.007558
# 5 -0.018460 0.003631 0.000306 0.000000 0.049111 0.000000
# 6 0.000000 0.000000 0.000000 -0.007558 0.000000 0.031921
#
#
# Mechanical properties :
#
#
# Convention : Reuss Voigt Hill
#
# Bulk Modulus (GPa) = 45.15362 59.09122 52.12242
# Shear Modulus (GPa) = 26.87375 32.92550 29.89962
#
# Velocity S-wave (km/s) = 3.49709 3.87087 3.68872
# Velocity P-wave (km/s) = 6.07079 6.84611 6.47008
#
# Compressibility (1/GPa) = 0.02214662
#
# Stress axis : x y z
#
# Youngs Moduli (GPa) = 49.35865 90.14827 85.66397
#
# Poissons Ratio (x) = 0.39939 0.14479
# Poissons Ratio (y) = 0.21868 0.37000
# Poissons Ratio (z) = 0.08342 0.38937
#
# Static dielectric constant tensor:
#      x y z
#    x 1.896890 0.000000 -0.024160 
#    y 0.000000 1.920140 0.000000 
#    z -0.024160 0.000000 1.837950 
# 
# From -- ./inp_files/111772.got.cif
#   From: 2010.05.17/outbox.cif.g08.bks.cpg/sg15_56_cif.got.tgz:111772.got - 2010.06.03 18:47:42.
