data_PCOD9284372
_publ_section_title
;
Structure prediction by ZEFSAII (Michael W. Deem and Ramdas Pophale) SiO2 
 PCOD9284372
Probable space group: C 2/C
;
_chemical_formula_sum "Si O2"
_cell_formula_units_Z 56
_cell_length_a 8.291233
_cell_length_b 21.696613
_cell_length_c 14.813571
_cell_angle_alpha 90.000000
_cell_angle_beta 100.635379
_cell_angle_gamma 90.000000
_cell_volume 2619.060361
_symmetry_space_group_name_H-M "C 2/C"
_symmetry_group_IT_number 15
_symmetry_cell_setting 'monoclinic'
loop_
_space_group_symop_operation_xyz
x,y,z
-x,y,1/2-z
-x,-y,-z
x,-y,1/2+z
1/2+x,1/2+y,z
1/2-x,1/2+y,1/2-z
1/2-x,1/2-y,-z
1/2+x,1/2-y,1/2+z
loop_
_atom_site_type_symbol
_atom_site_label
_atom_site_fract_x
_atom_site_fract_y
_atom_site_fract_z
Si Si1 0.379950 0.538070 0.873562
Si Si2 0.769872 0.592805 0.138019
Si Si3 0.297636 0.348935 0.491462
Si Si4 0.350694 0.085473 0.356794
Si Si5 0.748364 0.449758 0.339489
Si Si6 0.036842 0.667472 0.648961
Si Si7 0.621181 0.281058 0.555557
O O1 0.323892 0.470065 0.898143
O O2 0.351761 0.589130 0.945476
O O3 0.273291 0.550878 0.771831
O O4 0.567475 0.544591 0.861924
O O5 0.782837 0.592854 0.248224
O O6 0.679226 0.652343 0.093161
O O7 0.955669 0.597298 0.121988
O O8 0.249636 0.370366 0.587175
O O9 0.131068 0.330877 0.423965
O O10 0.438258 0.296902 0.499964
O O11 0.334721 0.012933 0.377125
O O12 0.848871 0.388597 0.373790
O O13 0.000000 0.658300 0.750000
O O14 0.117111 0.733347 0.637877
O O15 0.750000 0.250000 0.500000
#
# Coordination Sequence:
#
# PCOD9284372 Si02
#       7
#     8   8   8   8   8   8   8
#     4  10  21  40  70 104 135 177 222 292 341 407
#     4  10  23  45  68  98 144 179 226 278 355 401
#     4  12  25  44  72 102 135 176 238 285 340 402
#     4  10  23  41  72 104 134 178 224 291 343 411
#     4  10  21  42  68 100 139 176 226 272 357 406
#     4  12  26  45  69  98 138 185 226 282 344 413
#     4  12  28  47  67  98 139 181 234 283 335 417
#
# _framework density 21.381715
#
# number of rings (size 3 to 8) (size 9 to 14) (size 15 to 20)
#    0.000    1.143    1.429    3.857    4.000    6.857 
#    2.571    0.000    0.000    0.000    0.000    0.000 
#    0.000    0.000    0.000    0.000    0.000    0.000 
#
# Total GULP energy -156668.531596 kJ/mol
# GULP energy per Si atom -5595.304700 kJ/mol
# Density = 2.133305 g / cm^3
# Si number density = 21.381715 Si / 1000 Ang^3
#
#
#
# Elastic Constant Matrix: (Units=GPa)
#
#
# Indices 1 2 3 4 5 6 
#
# 1 90.4993 46.1648 27.2620 0.0000 4.9401 0.0000
# 2 46.1648 117.1809 19.2670 0.0000 2.8686 0.0000
# 3 27.2620 19.2670 49.4413 0.0000 -11.4137 0.0000
# 4 0.0000 0.0000 0.0000 11.7089 0.0000 -7.5418
# 5 4.9401 2.8686 -11.4137 0.0000 33.3230 0.0000
# 6 0.0000 0.0000 0.0000 -7.5418 0.0000 45.9119
#
#
#
# Elastic Compliance Matrix: (Units=1/GPa)
#
#
# Indices 1 2 3 4 5 6 
#
# 1 0.016300 -0.004963 -0.008158 0.000000 -0.004784 0.000000
# 2 -0.004963 0.010777 -0.001637 0.000000 -0.000752 0.000000
# 3 -0.008158 -0.001637 0.027878 0.000000 0.010899 0.000000
# 4 0.000000 0.000000 0.000000 0.095511 0.000000 0.015689
# 5 -0.004784 -0.000752 0.010899 0.000000 0.034516 0.000000
# 6 0.000000 0.000000 0.000000 0.015689 0.000000 0.024358
#
#
# Mechanical properties :
#
#
# Convention : Reuss Voigt Hill
#
# Bulk Modulus (GPa) = 39.30927 49.16769 44.23848
# Shear Modulus (GPa) = 20.21541 29.15060 24.68300
#
# Velocity S-wave (km/s) = 3.07816 3.69635 3.40133
# Velocity P-wave (km/s) = 5.57296 6.42359 6.01333
#
# Compressibility (1/GPa) = 0.02543929
#
# Stress axis : x y z
#
# Youngs Moduli (GPa) = 61.34863 92.79324 35.87025
#
# Poissons Ratio (x) = 0.46055 0.29263
# Poissons Ratio (y) = 0.30449 0.05870
# Poissons Ratio (z) = 0.50049 0.15186
#
# Static dielectric constant tensor:
#      x y z
#    x 1.835470 0.000000 0.004350 
#    y 0.000000 1.745620 0.000000 
#    z 0.004350 0.000000 1.773570 
# 
# From -- ./inp_files/136428.got.cif
#   From: 2010.05.17/outbox.cif.g08.bks.cpg/sg15_69_cif.got.tgz:136428.got - 2010.06.03 18:47:42.
