data_PCOD9284618
_publ_section_title
;
Structure prediction by ZEFSAII (Michael W. Deem and Ramdas Pophale) SiO2 
 PCOD9284618
Probable space group: C 2/C
;
_chemical_formula_sum "Si O2"
_cell_formula_units_Z 56
_cell_length_a 17.131457
_cell_length_b 19.520396
_cell_length_c 15.383622
_cell_angle_alpha 90.000000
_cell_angle_beta 146.929515
_cell_angle_gamma 90.000000
_cell_volume 2807.190474
_symmetry_space_group_name_H-M "C 2/C"
_symmetry_group_IT_number 15
_symmetry_cell_setting 'monoclinic'
loop_
_space_group_symop_operation_xyz
x,y,z
-x,y,1/2-z
-x,-y,-z
x,-y,1/2+z
1/2+x,1/2+y,z
1/2-x,1/2+y,1/2-z
1/2-x,1/2-y,-z
1/2+x,1/2-y,1/2+z
loop_
_atom_site_type_symbol
_atom_site_label
_atom_site_fract_x
_atom_site_fract_y
_atom_site_fract_z
Si Si1 0.648838 0.886612 0.071160
Si Si2 0.575753 0.233205 0.097869
Si Si3 0.151912 0.910087 0.882787
Si Si4 0.180726 0.628534 0.791833
Si Si5 0.655488 0.301917 0.353576
Si Si6 0.363131 0.712873 0.266353
Si Si7 0.561158 0.982674 0.399924
O O1 0.730490 0.886009 0.239745
O O2 0.750196 0.867849 0.084468
O O3 0.535614 0.825574 0.979650
O O4 0.566658 0.956274 0.973638
O O5 0.628969 0.266822 0.235795
O O6 0.711925 0.203601 0.174096
O O7 0.491723 0.285857 0.956292
O O8 0.126676 0.842643 0.799838
O O9 0.000000 0.946729 0.750000
O O10 0.207660 0.890266 0.030070
O O11 0.278551 0.954547 0.960433
O O12 0.140025 0.707978 0.767923
O O13 0.041281 0.580822 0.672605
O O14 0.500000 0.315283 0.250000
O O15 0.750000 0.250000 0.500000
O O16 0.500000 0.008494 0.250000
#
# Coordination Sequence:
#
# PCOD9284618 Si02
#       7
#     8   8   8   8   8   8   8
#     4  11  23  40  70  88 129 168 218 261 325 367
#     4  11  21  39  62  97 126 159 210 266 313 381
#     4  11  23  38  63  91 132 164 211 260 325 376
#     4  10  21  41  62  94 126 162 218 263 304 391
#     4  12  23  39  63  95 132 162 211 268 317 377
#     4  11  21  37  65  95 129 163 203 264 327 366
#     4  10  24  43  63  90 126 177 222 257 310 393
#
# _framework density 19.948771000000001
#
# number of rings (size 3 to 8) (size 9 to 14) (size 15 to 20)
#    0.000    1.143    4.286    3.429    2.000    2.286 
#    0.000    0.714    0.000    0.000    0.000    0.000 
#    0.000    0.000    0.000    0.000    0.000    0.000 
#
# Total GULP energy -156413.403698 kJ/mol
# GULP energy per Si atom -5586.192989 kJ/mol
# Density = 1.990337 g / cm^3
# Si number density = 19.948771 Si / 1000 Ang^3
#
#
#
# Elastic Constant Matrix: (Units=GPa)
#
#
# Indices 1 2 3 4 5 6 
#
# 1 98.0811 13.8305 34.1493 0.0000 15.6169 0.0000
# 2 13.8305 65.7859 24.8154 0.0000 -6.3931 0.0000
# 3 34.1493 24.8154 117.5302 0.0000 -0.4744 0.0000
# 4 0.0000 0.0000 0.0000 24.2723 0.0000 -4.8591
# 5 15.6169 -6.3931 -0.4744 0.0000 41.9580 0.0000
# 6 0.0000 0.0000 0.0000 -4.8591 0.0000 25.3011
#
#
#
# Elastic Compliance Matrix: (Units=1/GPa)
#
#
# Indices 1 2 3 4 5 6 
#
# 1 0.012363 -0.001863 -0.003219 0.000000 -0.004922 0.000000
# 2 -0.001863 0.017059 -0.003047 0.000000 0.003258 0.000000
# 3 -0.003219 -0.003047 0.010090 0.000000 0.000848 0.000000
# 4 0.000000 0.000000 0.000000 0.042847 0.000000 0.008229
# 5 -0.004922 0.003258 0.000848 0.000000 0.026171 0.000000
# 6 0.000000 0.000000 0.000000 0.008229 0.000000 0.041104
#
#
# Mechanical properties :
#
#
# Convention : Reuss Voigt Hill
#
# Bulk Modulus (GPa) = 43.00398 47.44307 45.22353
# Shear Modulus (GPa) = 28.79468 32.21307 30.50388
#
# Velocity S-wave (km/s) = 3.80337 4.02280 3.91463
# Velocity P-wave (km/s) = 6.39465 6.73879 6.56898
#
# Compressibility (1/GPa) = 0.02325366
#
# Stress axis : x y z
#
# Youngs Moduli (GPa) = 80.88889 58.62125 99.10377
#
# Poissons Ratio (x) = 0.10923 0.31897
# Poissons Ratio (y) = 0.15072 0.30199
# Poissons Ratio (z) = 0.26034 0.17863
#
# Static dielectric constant tensor:
#      x y z
#    x 1.731790 0.000000 0.010700 
#    y 0.000000 1.696270 0.000000 
#    z 0.010700 0.000000 1.714510 
# 
# From -- ./inp_files/163828.got.cif
#   From: 2010.05.17/outbox.cif.g08.bks.cpg/sg15_82_cif.got.tgz:163828.got - 2010.06.03 18:47:42.
