data_PCOD9284624
_publ_section_title
;
Structure prediction by ZEFSAII (Michael W. Deem and Ramdas Pophale) SiO2 
 PCOD9284624
Probable space group: C 2/C
;
_chemical_formula_sum "Si O2"
_cell_formula_units_Z 56
_cell_length_a 16.974921
_cell_length_b 16.135259
_cell_length_c 11.483201
_cell_angle_alpha 90.000000
_cell_angle_beta 64.636759
_cell_angle_gamma 90.000000
_cell_volume 2842.024652
_symmetry_space_group_name_H-M "C 2/C"
_symmetry_group_IT_number 15
_symmetry_cell_setting 'monoclinic'
loop_
_space_group_symop_operation_xyz
x,y,z
-x,y,1/2-z
-x,-y,-z
x,-y,1/2+z
1/2+x,1/2+y,z
1/2-x,1/2+y,1/2-z
1/2-x,1/2-y,-z
1/2+x,1/2-y,1/2+z
loop_
_atom_site_type_symbol
_atom_site_label
_atom_site_fract_x
_atom_site_fract_y
_atom_site_fract_z
Si Si1 0.000000 0.312313 0.250000
Si Si2 0.932101 0.457810 0.452106
Si Si3 0.000000 0.042429 0.250000
Si Si4 0.086269 0.827013 0.849394
Si Si5 0.163392 0.597445 0.102380
Si Si6 0.587612 0.726829 0.620075
Si Si7 0.670171 0.432410 0.152935
Si Si8 0.738670 0.073051 0.296862
O O1 0.965530 0.375374 0.369568
O O2 0.935501 0.252143 0.217919
O O3 0.910978 0.531850 0.377304
O O4 0.835936 0.433136 0.559335
O O5 0.000000 0.500000 0.500000
O O6 0.980536 0.101635 0.152133
O O7 0.915657 0.985388 0.323163
O O8 0.181118 0.862760 0.753187
O O9 0.078000 0.810062 0.993946
O O10 0.138112 0.687298 0.071843
O O11 0.180911 0.599249 0.225758
O O12 0.254858 0.567642 0.990985
O O13 0.500000 0.742911 0.750000
O O14 0.639630 0.662323 0.669847
O O15 0.715021 0.481674 0.231986
#
# Coordination Sequence:
#
# PCOD9284624 Si02
#       8
#     4   8   4   8   8   8   8   8
#     4  11  24  42  67  96 130 176 219 264 332 393
#     4  11  24  43  67  94 125 175 228 266 323 396
#     4   9  20  42  69  92 130 166 219 270 330 393
#     4  10  23  43  64  97 134 169 213 279 328 390
#     4  11  24  41  60  92 133 168 212 273 319 381
#     4  12  25  39  65  97 131 174 221 269 327 387
#     4  10  21  41  62  95 122 168 217 258 330 386
#     4  10  23  41  67  90 132 169 209 278 328 384
#
# _framework density 19.704262
#
# number of rings (size 3 to 8) (size 9 to 14) (size 15 to 20)
#    0.000    1.429    2.143    2.143    5.000    3.429 
#    0.000    0.000    0.000    0.000    0.000    0.000 
#    0.000    0.000    0.000    0.000    0.000    0.000 
#
# Total GULP energy -155907.319214 kJ/mol
# GULP energy per Si atom -5568.118543 kJ/mol
# Density = 1.965941 g / cm^3
# Si number density = 19.704262 Si / 1000 Ang^3
#
#
#
# Elastic Constant Matrix: (Units=GPa)
#
#
# Indices 1 2 3 4 5 6 
#
# 1 68.9187 25.2298 32.6712 0.0000 -16.7641 0.0000
# 2 25.2298 99.9823 26.3178 0.0000 -11.6838 0.0000
# 3 32.6712 26.3178 66.9863 0.0000 -19.3516 0.0000
# 4 0.0000 0.0000 0.0000 24.3453 0.0000 10.5271
# 5 -16.7641 -11.6838 -19.3516 0.0000 26.5675 0.0000
# 6 0.0000 0.0000 0.0000 10.5271 0.0000 -8.2674
#
#
#
# Elastic Compliance Matrix: (Units=1/GPa)
#
#
# Indices 1 2 3 4 5 6 
#
# 1 0.020378 -0.002516 -0.007036 0.000000 0.006627 0.000000
# 2 -0.002516 0.011566 -0.002921 0.000000 0.001371 0.000000
# 3 -0.007036 -0.002921 0.022612 0.000000 0.010746 0.000000
# 4 0.000000 0.000000 0.000000 0.026490 0.000000 0.033731
# 5 0.006627 0.001371 0.010746 0.000000 0.050253 0.000000
# 6 0.000000 0.000000 0.000000 0.033731 0.000000 -0.078007
#
#
# Mechanical properties :
#
#
# Convention : Reuss Voigt Hill
#
# Bulk Modulus (GPa) = 33.77142 44.92499 39.34820
# Shear Modulus (GPa) = 56.74861 18.64030 37.69446
#
# Velocity S-wave (km/s) = 5.37240 3.07905 4.37854
# Velocity P-wave (km/s) = 7.46056 5.95734 6.75092
#
# Compressibility (1/GPa) = 0.02961084
#
# Stress axis : x y z
#
# Youngs Moduli (GPa) = 49.07151 86.46258 44.22387
#
# Poissons Ratio (x) = 0.21752 0.31117
# Poissons Ratio (y) = 0.12345 0.12917
# Poissons Ratio (z) = 0.34528 0.25254
#
# Static dielectric constant tensor:
#      x y z
#    x 1.358430 0.000000 0.499500 
#    y 0.000000 1.723460 0.000000 
#    z 0.499500 0.000000 0.972700 
# 
# From -- ./inp_files/105318.got.cif
#   From: 2010.05.17/outbox.cif.g08.bks.cpg/sg15_53_cif.got.tgz:105318.got - 2010.06.03 18:47:42.
