data_PCOD9284033
_publ_section_title
;
Structure prediction by ZEFSAII (Michael W. Deem and Ramdas Pophale) SiO2 
 PCOD9284033
Probable space group: C 2/C
;
_chemical_formula_sum "Si O2"
_cell_formula_units_Z 64
_cell_length_a 8.605459
_cell_length_b 22.316326
_cell_length_c 18.086700
_cell_angle_alpha 90.000000
_cell_angle_beta 77.110100
_cell_angle_gamma 90.000000
_cell_volume 3385.882088
_symmetry_space_group_name_H-M "C 2/C"
_symmetry_group_IT_number 15
_symmetry_cell_setting 'monoclinic'
loop_
_space_group_symop_operation_xyz
x,y,z
-x,y,1/2-z
-x,-y,-z
x,-y,1/2+z
1/2+x,1/2+y,z
1/2-x,1/2+y,1/2-z
1/2-x,1/2-y,-z
1/2+x,1/2-y,1/2+z
loop_
_atom_site_type_symbol
_atom_site_label
_atom_site_fract_x
_atom_site_fract_y
_atom_site_fract_z
Si Si1 0.592289 0.591842 0.049140
Si Si2 0.632344 0.073762 0.673672
Si Si3 0.292980 0.206758 0.064658
Si Si4 0.629597 0.209787 0.963282
Si Si5 0.575602 0.789947 0.160382
Si Si6 0.855766 0.499954 0.960343
Si Si7 0.661187 0.399984 0.043185
Si Si8 0.028563 0.988488 0.333338
O O1 0.693021 0.645504 0.073424
O O2 0.491608 0.550261 0.117143
O O3 0.716779 0.546445 0.997561
O O4 0.484507 0.618494 0.994418
O O5 0.500000 0.076778 0.750000
O O6 0.633551 0.141308 0.640566
O O7 0.575306 0.023916 0.622486
O O8 0.804515 0.047615 0.678127
O O9 0.227856 0.246194 0.139146
O O10 0.250000 0.250000 0.000000
O O11 0.479579 0.195238 0.032737
O O12 0.548570 0.228242 0.892786
O O13 0.736518 0.152423 0.933413
O O14 0.750000 0.250000 0.000000
O O15 0.500000 0.786685 0.250000
O O16 0.774555 0.436073 0.974948
O O17 0.000000 0.500000 0.000000
O O18 0.598078 0.444325 0.113374
O O19 0.000000 0.999640 0.250000
#
# Coordination Sequence:
#
# PCOD9284033 Si02
#       8
#     8   8   8   8   8   8   8   8
#     4  11  21  41  63  88 125 167 208 262 314 377
#     4  11  23  39  60  92 129 162 207 259 318 377
#     4  10  21  40  66  91 124 168 212 262 318 384
#     4  11  24  40  64  98 121 162 216 269 315 376
#     4  10  23  41  65  91 127 168 207 262 326 380
#     4  11  20  35  59  87 120 156 206 250 306 366
#     4  11  21  38  62  88 121 161 208 262 310 370
#     4  11  25  39  60  94 128 171 208 255 323 384
#
# _framework density 18.902016
#
# number of rings (size 3 to 8) (size 9 to 14) (size 15 to 20)
#    0.000    1.250    2.500    5.250    8.750    0.500 
#    0.000    0.625    0.000    0.000    0.000    0.000 
#    0.000    0.000    0.000    0.000    0.000    0.000 
#
# Total GULP energy -178328.985908 kJ/mol
# GULP energy per Si atom -5572.780810 kJ/mol
# Density = 1.885899 g / cm^3
# Si number density = 18.902016 Si / 1000 Ang^3
#
#
#
# Elastic Constant Matrix: (Units=GPa)
#
#
# Indices 1 2 3 4 5 6 
#
# 1 98.5735 11.1984 19.6760 0.0000 2.0538 0.0000
# 2 11.1984 39.6714 6.9762 0.0000 -7.9063 0.0000
# 3 19.6760 6.9762 86.0481 0.0000 0.6220 0.0000
# 4 0.0000 0.0000 0.0000 27.2772 0.0000 -1.2754
# 5 2.0538 -7.9063 0.6220 0.0000 28.6841 0.0000
# 6 0.0000 0.0000 0.0000 -1.2754 0.0000 38.4886
#
#
#
# Elastic Compliance Matrix: (Units=1/GPa)
#
#
# Indices 1 2 3 4 5 6 
#
# 1 0.010969 -0.003013 -0.002253 0.000000 -0.001567 0.000000
# 2 -0.003013 0.027929 -0.001633 0.000000 0.007949 0.000000
# 3 -0.002253 -0.001633 0.012273 0.000000 -0.000555 0.000000
# 4 0.000000 0.000000 0.000000 0.036718 0.000000 0.001217
# 5 -0.001567 0.007949 -0.000555 0.000000 0.037178 0.000000
# 6 0.000000 0.000000 0.000000 0.001217 0.000000 0.026022
#
#
# Mechanical properties :
#
#
# Convention : Reuss Voigt Hill
#
# Bulk Modulus (GPa) = 26.75604 33.33270 30.04437
# Shear Modulus (GPa) = 28.19398 31.31948 29.75673
#
# Velocity S-wave (km/s) = 3.86630 4.07497 3.97200
# Velocity P-wave (km/s) = 5.84096 6.30977 6.07989
#
# Compressibility (1/GPa) = 0.03737474
#
# Stress axis : x y z
#
# Youngs Moduli (GPa) = 91.16390 35.80528 81.48027
#
# Poissons Ratio (x) = 0.10786 0.18355
# Poissons Ratio (y) = 0.27463 0.13305
# Poissons Ratio (z) = 0.20536 0.05847
#
# Static dielectric constant tensor:
#      x y z
#    x 1.687280 0.000000 0.004230 
#    y 0.000000 1.678690 0.000000 
#    z 0.004230 0.000000 1.674530 
# 
# From -- ./inp_files/192965.got.cif
#   From: 2010.05.17/outbox.cif.g08.bks.cpg/sg15_97_cif.got.tgz:192965.got - 2010.06.03 18:47:42.
