data_PCOD9284237
_publ_section_title
;
Structure prediction by ZEFSAII (Michael W. Deem and Ramdas Pophale) SiO2 
 PCOD9284237
Probable space group: C 2/C
;
_chemical_formula_sum "Si O2"
_cell_formula_units_Z 64
_cell_length_a 17.816232
_cell_length_b 13.819529
_cell_length_c 17.441302
_cell_angle_alpha 90.000000
_cell_angle_beta 38.865920
_cell_angle_gamma 90.000000
_cell_volume 2694.646263
_symmetry_space_group_name_H-M "C 2/C"
_symmetry_group_IT_number 15
_symmetry_cell_setting 'monoclinic'
loop_
_space_group_symop_operation_xyz
x,y,z
-x,y,1/2-z
-x,-y,-z
x,-y,1/2+z
1/2+x,1/2+y,z
1/2-x,1/2+y,1/2-z
1/2-x,1/2-y,-z
1/2+x,1/2-y,1/2+z
loop_
_atom_site_type_symbol
_atom_site_label
_atom_site_fract_x
_atom_site_fract_y
_atom_site_fract_z
Si Si1 0.271348 0.241375 0.200500
Si Si2 0.024345 0.597727 0.435625
Si Si3 0.391807 0.956399 0.799987
Si Si4 0.179924 0.333514 0.504268
Si Si5 0.924162 0.070980 0.615863
Si Si6 0.128111 0.993258 0.182980
Si Si7 0.354002 0.713320 0.358113
Si Si8 0.324905 0.642816 0.065705
O O1 0.385783 0.171183 0.093908
O O2 0.325247 0.349650 0.170651
O O3 0.184469 0.245466 0.196823
O O4 0.211308 0.187771 0.322481
O O5 0.077610 0.566482 0.311430
O O6 0.000000 0.500000 0.500000
O O7 0.903407 0.649243 0.505655
O O8 0.500000 0.023638 0.750000
O O9 0.245740 0.956748 0.901205
O O10 0.394560 0.875430 0.865213
O O11 0.286599 0.407169 0.406965
O O12 0.214150 0.222928 0.464581
O O13 0.874101 0.004553 0.723161
O O14 0.034713 0.134063 0.558492
O O15 0.000000 0.000000 0.500000
O O16 0.000000 0.970939 0.250000
O O17 0.162579 0.097585 0.124987
O O18 0.500000 0.731086 0.250000
O O19 0.250000 0.750000 0.500000
#
# Coordination Sequence:
#
# PCOD9284237 Si02
#       8
#     8   8   8   8   8   8   8   8
#     4  11  24  46  73 108 149 195 264 321 403 469
#     4  10  21  40  68 101 142 191 239 307 377 454
#     4   9  21  37  61  94 142 182 227 287 365 454
#     4  11  20  39  64 101 145 186 242 300 377 462
#     4  12  26  44  75 108 150 203 265 326 392 481
#     4  11  25  45  71 110 153 203 259 320 397 474
#     4  11  28  52  83 110 154 210 272 337 397 473
#     4  11  22  41  67 104 141 194 244 311 390 464
#
# _framework density 23.750796999999999
#
# number of rings (size 3 to 8) (size 9 to 14) (size 15 to 20)
#    0.000    1.250    2.500    2.625    5.250    1.500 
#    0.000    3.125    0.000    0.000    0.000    0.000 
#    0.000    0.000    0.000    0.000    0.000    0.000 
#
# Total GULP energy -178232.655278 kJ/mol
# GULP energy per Si atom -5569.770477 kJ/mol
# Density = 2.369674 g / cm^3
# Si number density = 23.750797 Si / 1000 Ang^3
#
#
#
# Elastic Constant Matrix: (Units=GPa)
#
#
# Indices 1 2 3 4 5 6 
#
# 1 87.7824 16.0022 14.2815 0.0000 9.3617 0.0000
# 2 16.0022 98.5379 46.0243 0.0000 1.4122 0.0000
# 3 14.2815 46.0243 88.1881 0.0000 18.6914 0.0000
# 4 0.0000 0.0000 0.0000 12.1852 0.0000 -10.4012
# 5 9.3617 1.4122 18.6914 0.0000 41.5773 0.0000
# 6 0.0000 0.0000 0.0000 -10.4012 0.0000 9.1913
#
#
#
# Elastic Compliance Matrix: (Units=1/GPa)
#
#
# Indices 1 2 3 4 5 6 
#
# 1 0.012042 -0.001650 -0.000582 0.000000 -0.002394 0.000000
# 2 -0.001650 0.013987 -0.007749 0.000000 0.003380 0.000000
# 3 -0.000582 -0.007749 0.017015 0.000000 -0.007255 0.000000
# 4 0.000000 0.000000 0.000000 2.409902 0.000000 2.727124
# 5 -0.002394 0.003380 -0.007255 0.000000 0.027737 0.000000
# 6 0.000000 0.000000 0.000000 2.727124 0.000000 3.194902
#
#
# Mechanical properties :
#
#
# Convention : Reuss Voigt Hill
#
# Bulk Modulus (GPa) = 43.31971 47.45830 45.38900
# Shear Modulus (GPa) = 0.87669 25.80412 13.34041
#
# Velocity S-wave (km/s) = 0.60821 3.29971 2.37256
# Velocity P-wave (km/s) = 4.33268 5.87730 5.16308
#
# Compressibility (1/GPa) = 0.02308418
#
# Stress axis : x y z
#
# Youngs Moduli (GPa) = 83.03934 71.49415 58.77000
#
# Poissons Ratio (x) = 0.11793 0.03420
# Poissons Ratio (y) = 0.13698 0.45541
# Poissons Ratio (z) = 0.04832 0.55401
#
# Static dielectric constant tensor:
#      x y z
#    x 2.206010 0.000000 -0.108810 
#    y 0.000000 1.976390 0.000000 
#    z -0.108810 0.000000 1.828480 
# 
# From -- ./inp_files/211385.got.cif
#   From: 2010.05.17/outbox.cif.g08.bks.cpg/sg15_106_cif.got.tgz:211385.got - 2010.06.03 18:47:42.
