data_PCOD9284829
_publ_section_title
;
Structure prediction by ZEFSAII (Michael W. Deem and Ramdas Pophale) SiO2 
 PCOD9284829
Probable space group: C 2/C
;
_chemical_formula_sum "Si O2"
_cell_formula_units_Z 44
_cell_length_a 5.413908
_cell_length_b 22.380111
_cell_length_c 19.870482
_cell_angle_alpha 90.000000
_cell_angle_beta 133.853894
_cell_angle_gamma 90.000000
_cell_volume 1736.130397
_symmetry_space_group_name_H-M "C 2/C"
_symmetry_group_IT_number 15
_symmetry_cell_setting 'monoclinic'
loop_
_space_group_symop_operation_xyz
x,y,z
-x,y,1/2-z
-x,-y,-z
x,-y,1/2+z
1/2+x,1/2+y,z
1/2-x,1/2+y,1/2-z
1/2-x,1/2-y,-z
1/2+x,1/2-y,1/2+z
loop_
_atom_site_type_symbol
_atom_site_label
_atom_site_fract_x
_atom_site_fract_y
_atom_site_fract_z
Si Si1 0.925055 0.273872 0.367076
Si Si2 0.784915 0.877857 0.076288
Si Si3 0.166031 0.046188 0.084818
Si Si4 0.500000 0.165667 0.750000
Si Si5 0.834781 0.997127 0.151911
Si Si6 0.621246 0.677404 0.039231
O O1 0.826774 0.333252 0.387831
O O2 0.775937 0.216542 0.376882
O O3 0.844849 0.289253 0.275640
O O4 0.340568 0.278162 0.452411
O O5 0.204627 0.874460 0.159516
O O6 0.666317 0.847363 0.984518
O O7 0.678704 0.944386 0.075848
O O8 0.560936 0.041376 0.134743
O O9 0.093865 0.027174 0.147924
O O10 0.016758 0.112559 0.047948
O O11 0.000000 0.000000 0.000000
O O12 0.000000 0.967406 0.250000
#
# Coordination Sequence:
#
# PCOD9284829 Si02
#       6
#     8   8   8   4   8   8
#     4  10  21  41  64  98 129 171 220 281 345 400
#     4  11  22  39  68  93 129 168 227 281 339 397
#     4  12  25  46  70 103 135 185 233 285 341 417
#     4  10  22  38  60 102 128 172 220 278 348 412
#     4  12  27  44  70  98 144 180 232 283 353 408
#     4  10  23  40  67  94 130 171 229 279 336 404
#
# _framework density 25.343717999999999
#
# number of rings (size 3 to 8) (size 9 to 14) (size 15 to 20)
#    0.000    1.091    1.818    4.364    7.636    0.000 
#    1.636    1.818    0.000    0.000    0.000    0.000 
#    0.000    0.000    0.000    0.000    0.000    0.000 
#
# Total GULP energy -122805.250136 kJ/mol
# GULP energy per Si atom -5582.056824 kJ/mol
# Density = 2.528603 g / cm^3
# Si number density = 25.343718 Si / 1000 Ang^3
#
#
#
# Elastic Constant Matrix: (Units=GPa)
#
#
# Indices 1 2 3 4 5 6 
#
# 1 139.6509 45.1275 47.1242 0.0000 -48.0703 0.0000
# 2 45.1275 159.6985 42.8368 0.0000 -20.2185 0.0000
# 3 47.1242 42.8368 60.5235 0.0000 -39.7625 0.0000
# 4 0.0000 0.0000 0.0000 36.0534 0.0000 -8.6304
# 5 -48.0703 -20.2185 -39.7625 0.0000 61.3358 0.0000
# 6 0.0000 0.0000 0.0000 -8.6304 0.0000 38.8094
#
#
#
# Elastic Compliance Matrix: (Units=1/GPa)
#
#
# Indices 1 2 3 4 5 6 
#
# 1 0.010784 -0.001321 -0.003824 0.000000 0.005537 0.000000
# 2 -0.001321 0.007999 -0.006237 0.000000 -0.002442 0.000000
# 3 -0.003824 -0.006237 0.035873 0.000000 0.018203 0.000000
# 4 0.000000 0.000000 0.000000 0.029296 0.000000 0.006515
# 5 0.005537 -0.002442 0.018203 0.000000 0.031639 0.000000
# 6 0.000000 0.000000 0.000000 0.006515 0.000000 0.027216
#
#
# Mechanical properties :
#
#
# Convention : Reuss Voigt Hill
#
# Bulk Modulus (GPa) = 31.35539 70.00554 50.68047
# Shear Modulus (GPa) = 28.37664 42.22536 35.30100
#
# Velocity S-wave (km/s) = 3.34978 4.08623 3.73619
# Velocity P-wave (km/s) = 5.23071 7.06721 6.21714
#
# Compressibility (1/GPa) = 0.03189244
#
# Stress axis : x y z
#
# Youngs Moduli (GPa) = 92.73160 125.01704 27.87590
#
# Poissons Ratio (x) = 0.16509 0.10659
# Poissons Ratio (y) = 0.12246 0.17387
# Poissons Ratio (z) = 0.35459 0.77978
#
# Static dielectric constant tensor:
#      x y z
#    x 2.160900 0.000000 0.139630 
#    y 0.000000 1.939410 0.000000 
#    z 0.139630 0.000000 2.137050 
# 
# From -- ./inp_files/185178.got.cif
#   From: 2010.05.17/outbox.cif.g08.bks.cpg/sg15_93_cif.got.tgz:185178.got - 2010.06.03 18:47:42.
