data_PCOD9284809
_publ_section_title
;
Structure prediction by ZEFSAII (Michael W. Deem and Ramdas Pophale) SiO2 
 PCOD9284809
Probable space group: C 2/C
;
_chemical_formula_sum "Si O2"
_cell_formula_units_Z 64
_cell_length_a 16.292148
_cell_length_b 29.443204
_cell_length_c 7.391252
_cell_angle_alpha 90.000000
_cell_angle_beta 50.337555
_cell_angle_gamma 90.000000
_cell_volume 2729.414713
_symmetry_space_group_name_H-M "C 2/C"
_symmetry_group_IT_number 15
_symmetry_cell_setting 'monoclinic'
loop_
_space_group_symop_operation_xyz
x,y,z
-x,y,1/2-z
-x,-y,-z
x,-y,1/2+z
1/2+x,1/2+y,z
1/2-x,1/2+y,1/2-z
1/2-x,1/2-y,-z
1/2+x,1/2-y,1/2+z
loop_
_atom_site_type_symbol
_atom_site_label
_atom_site_fract_x
_atom_site_fract_y
_atom_site_fract_z
Si Si1 0.629875 0.263716 0.213482
Si Si2 0.273998 0.939229 0.833549
Si Si3 0.231216 0.795406 0.417869
Si Si4 0.992161 0.579363 0.476909
Si Si5 0.381741 0.637134 0.873999
Si Si6 0.769226 0.460519 0.266707
Si Si7 0.374798 0.618377 0.457378
Si Si8 0.975168 0.313272 0.070064
O O1 0.641229 0.282634 0.400029
O O2 0.613575 0.307959 0.108367
O O3 0.550516 0.221231 0.350844
O O4 0.750000 0.250000 0.000000
O O5 0.395932 0.935868 0.597553
O O6 0.234061 0.987403 0.818585
O O7 0.205053 0.893715 0.901257
O O8 0.274899 0.945821 0.049564
O O9 0.250000 0.750000 0.500000
O O10 0.183328 0.841135 0.570129
O O11 0.351915 0.805689 0.186231
O O12 0.886661 0.551526 0.680505
O O13 0.000000 0.573376 0.250000
O O14 0.989536 0.633313 0.515488
O O15 0.500000 0.619623 0.750000
O O16 0.358585 0.629474 0.693660
O O17 0.685064 0.428769 0.487870
O O18 0.500000 0.616795 0.250000
O O19 0.000000 0.305514 0.250000
#
# Coordination Sequence:
#
# PCOD9284809 Si02
#       8
#     8   8   8   8   8   8   8   8
#     4  11  26  40  63  94 125 175 219 258 324 384
#     4  10  22  41  66  94 127 166 210 265 325 388
#     4  11  24  42  63  89 133 167 212 267 321 384
#     4  10  22  41  66  94 133 169 209 264 323 390
#     4  10  24  42  60  91 127 161 217 266 314 382
#     4  10  21  41  64  95 124 163 212 261 324 386
#     4  10  23  42  65  89 123 169 210 261 330 383
#     4  12  25  42  64  99 133 171 221 268 320 386
#
# _framework density 23.448250999999999
#
# number of rings (size 3 to 8) (size 9 to 14) (size 15 to 20)
#    0.000    1.500    2.500    1.125    8.750    2.500 
#    2.250    2.500    0.000    0.000    0.000    0.000 
#    0.000    0.000    0.000    0.000    0.000    0.000 
#
# Total GULP energy -178629.841586 kJ/mol
# GULP energy per Si atom -5582.182550 kJ/mol
# Density = 2.339488 g / cm^3
# Si number density = 23.448251 Si / 1000 Ang^3
#
#
#
# Elastic Constant Matrix: (Units=GPa)
#
#
# Indices 1 2 3 4 5 6 
#
# 1 59.8570 13.3728 12.2226 0.0000 -8.9552 0.0000
# 2 13.3728 138.9519 36.3131 0.0000 -23.2877 0.0000
# 3 12.2226 36.3131 78.3242 0.0000 -30.7202 0.0000
# 4 0.0000 0.0000 0.0000 16.2284 0.0000 8.0269
# 5 -8.9552 -23.2877 -30.7202 0.0000 47.2650 0.0000
# 6 0.0000 0.0000 0.0000 8.0269 0.0000 25.8376
#
#
#
# Elastic Compliance Matrix: (Units=1/GPa)
#
#
# Indices 1 2 3 4 5 6 
#
# 1 0.017516 -0.000970 -0.001569 0.000000 0.001821 0.000000
# 2 -0.000970 0.008402 -0.002942 0.000000 0.002043 0.000000
# 3 -0.001569 -0.002942 0.018376 0.000000 0.010196 0.000000
# 4 0.000000 0.000000 0.000000 0.072808 0.000000 -0.022619
# 5 0.001821 0.002043 0.010196 0.000000 0.029136 0.000000
# 6 0.000000 0.000000 0.000000 -0.022619 0.000000 0.045730
#
#
# Mechanical properties :
#
#
# Convention : Reuss Voigt Hill
#
# Bulk Modulus (GPa) = 30.00404 44.55000 37.27702
# Shear Modulus (GPa) = 23.35987 32.21450 27.78719
#
# Velocity S-wave (km/s) = 3.15974 3.71058 3.44618
# Velocity P-wave (km/s) = 5.11229 6.11542 5.63622
#
# Compressibility (1/GPa) = 0.03332884
#
# Stress axis : x y z
#
# Youngs Moduli (GPa) = 57.09019 119.02630 54.41969
#
# Poissons Ratio (x) = 0.11551 0.08541
# Poissons Ratio (y) = 0.05541 0.16012
# Poissons Ratio (z) = 0.08960 0.35021
#
# Static dielectric constant tensor:
#      x y z
#    x 1.949100 0.000000 -0.025250 
#    y 0.000000 2.055110 0.000000 
#    z -0.025250 0.000000 1.939110 
# 
# From -- ./inp_files/52830.got.cif
#   From: 2010.05.17/outbox.cif.g08.bks.cpg/sg15_27_cif.got.tgz:52830.got - 2010.06.03 18:47:42.
