data_PCOD9284190
_publ_section_title
;
Structure prediction by ZEFSAII (Michael W. Deem and Ramdas Pophale) SiO2 
 PCOD9284190
Probable space group: C 2/C
;
_chemical_formula_sum "Si O2"
_cell_formula_units_Z 52
_cell_length_a 29.332645
_cell_length_b 7.383706
_cell_length_c 14.764395
_cell_angle_alpha 90.000000
_cell_angle_beta 143.077199
_cell_angle_gamma 90.000000
_cell_volume 1920.996977
_symmetry_space_group_name_H-M "C 2/C"
_symmetry_group_IT_number 15
_symmetry_cell_setting 'monoclinic'
loop_
_space_group_symop_operation_xyz
x,y,z
-x,y,1/2-z
-x,-y,-z
x,-y,1/2+z
1/2+x,1/2+y,z
1/2-x,1/2+y,1/2-z
1/2-x,1/2-y,-z
1/2+x,1/2-y,1/2+z
loop_
_atom_site_type_symbol
_atom_site_label
_atom_site_fract_x
_atom_site_fract_y
_atom_site_fract_z
Si Si1 0.840430 0.649057 0.454432
Si Si2 0.676457 0.368989 0.748647
Si Si3 0.530753 0.753481 0.115939
Si Si4 0.302678 0.213986 0.188835
Si Si5 0.440600 0.842878 0.799162
Si Si6 0.000000 0.829366 0.750000
Si Si7 0.858352 0.778647 0.008813
O O1 0.760582 0.715260 0.369831
O O2 0.836554 0.677682 0.341376
O O3 0.844106 0.433663 0.469869
O O4 0.915748 0.737138 0.613466
O O5 0.616367 0.273557 0.717971
O O6 0.689870 0.569957 0.807143
O O7 0.642038 0.368290 0.590936
O O8 0.504729 0.614965 0.151843
O O9 0.520331 0.958837 0.140349
O O10 0.480587 0.742070 0.945766
O O11 0.354409 0.123762 0.195734
O O12 0.216052 0.150836 0.057327
O O13 0.429853 0.731283 0.689668
#
# Coordination Sequence:
#
# PCOD9284190 Si02
#       7
#     8   8   8   8   8   4   8
#     4  10  21  42  68  89 131 167 221 258 313 380
#     4  10  24  42  63 100 130 168 210 266 322 386
#     4  11  25  40  70  92 129 167 222 269 314 383
#     4  10  21  42  62  94 136 172 206 267 319 383
#     4  11  22  40  65  98 125 173 215 268 315 379
#     4  12  22  44  66  94 122 172 220 270 316 370
#     4  10  21  40  67  95 131 172 214 261 318 377
#
# _framework density 27.069278000000001
#
# number of rings (size 3 to 8) (size 9 to 14) (size 15 to 20)
#    0.000    1.538    3.077    1.385    2.154    3.077 
#    2.769    0.000    0.000    0.923    0.000    0.000 
#    0.000    0.000    0.000    0.000    0.000    0.000 
#
# Total GULP energy -145491.531427 kJ/mol
# GULP energy per Si atom -5595.828132 kJ/mol
# Density = 2.700767 g / cm^3
# Si number density = 27.069278 Si / 1000 Ang^3
#
#
#
# Elastic Constant Matrix: (Units=GPa)
#
#
# Indices 1 2 3 4 5 6 
#
# 1 157.2946 8.2247 59.4914 0.0000 32.0847 0.0000
# 2 8.2247 70.8043 36.3817 0.0000 3.2739 0.0000
# 3 59.4914 36.3817 163.7632 0.0000 -17.9326 0.0000
# 4 0.0000 0.0000 0.0000 33.7837 0.0000 4.9387
# 5 32.0847 3.2739 -17.9326 0.0000 37.9191 0.0000
# 6 0.0000 0.0000 0.0000 4.9387 0.0000 16.6582
#
#
#
# Elastic Compliance Matrix: (Units=1/GPa)
#
#
# Indices 1 2 3 4 5 6 
#
# 1 0.010920 0.002279 -0.005807 0.000000 -0.012183 0.000000
# 2 0.002279 0.016800 -0.005199 0.000000 -0.005838 0.000000
# 3 -0.005807 -0.005199 0.010502 0.000000 0.010329 0.000000
# 4 0.000000 0.000000 0.000000 0.030941 0.000000 -0.009173
# 5 -0.012183 -0.005838 0.010329 0.000000 0.042069 0.000000
# 6 0.000000 0.000000 0.000000 -0.009173 0.000000 0.062750
#
#
# Mechanical properties :
#
#
# Convention : Reuss Voigt Hill
#
# Bulk Modulus (GPa) = 48.15434 66.67308 57.41371
# Shear Modulus (GPa) = 25.20667 36.85647 31.03157
#
# Velocity S-wave (km/s) = 3.05485 3.69394 3.38949
# Velocity P-wave (km/s) = 5.50189 6.54810 6.04766
#
# Compressibility (1/GPa) = 0.02076656
#
# Stress axis : x y z
#
# Youngs Moduli (GPa) = 91.57768 59.52273 95.21832
#
# Poissons Ratio (x) = -0.13564 0.55295
# Poissons Ratio (y) = -0.20869 0.49508
# Poissons Ratio (z) = 0.53181 0.30948
#
# Static dielectric constant tensor:
#      x y z
#    x 2.061000 0.000000 0.014010 
#    y 0.000000 2.171730 0.000000 
#    z 0.014010 0.000000 2.136300 
# 
# From -- ./inp_files/181217.got.cif
#   From: 2010.05.17/outbox.cif.g08.bks.cpg/sg15_91_cif.got.tgz:181217.got - 2010.06.03 18:47:42.
