data_PCOD9284725
_publ_section_title
;
Structure prediction by ZEFSAII (Michael W. Deem and Ramdas Pophale) SiO2 
 PCOD9284725
Probable space group: C 2/C
;
_chemical_formula_sum "Si O2"
_cell_formula_units_Z 48
_cell_length_a 18.619804
_cell_length_b 10.846037
_cell_length_c 22.288832
_cell_angle_alpha 90.000000
_cell_angle_beta 26.968156
_cell_angle_gamma 90.000000
_cell_volume 2041.297082
_symmetry_space_group_name_H-M "C 2/C"
_symmetry_group_IT_number 15
_symmetry_cell_setting 'monoclinic'
loop_
_space_group_symop_operation_xyz
x,y,z
-x,y,1/2-z
-x,-y,-z
x,-y,1/2+z
1/2+x,1/2+y,z
1/2-x,1/2+y,1/2-z
1/2-x,1/2-y,-z
1/2+x,1/2-y,1/2+z
loop_
_atom_site_type_symbol
_atom_site_label
_atom_site_fract_x
_atom_site_fract_y
_atom_site_fract_z
Si Si1 0.258963 0.363844 0.284547
Si Si2 0.676243 0.951671 0.229886
Si Si3 0.827388 0.165695 0.865719
Si Si4 0.400237 0.338365 0.525278
Si Si5 0.824808 0.253351 0.359130
Si Si6 0.169325 0.452454 0.043705
O O1 0.171032 0.457020 0.305775
O O2 0.315014 0.401398 0.309470
O O3 0.146831 0.247337 0.382827
O O4 0.418756 0.335372 0.128583
O O5 0.680037 0.810323 0.203285
O O6 0.510248 0.999690 0.327103
O O7 0.824620 0.029272 0.095577
O O8 0.699839 0.273070 0.953187
O O9 0.000000 0.215904 0.750000
O O10 0.783623 0.064895 0.947003
O O11 0.798914 0.373841 0.420498
O O12 0.700716 0.148979 0.468168
O O13 0.000000 0.209129 0.250000
#
# Coordination Sequence:
#
# PCOD9284725 Si02
#       6
#     8   8   8   8   8   8
#     4  10  25  43  64  97 129 177 219 274 332 394
#     4  11  23  41  68  92 132 174 215 283 329 393
#     4  10  24  41  69  95 130 178 217 274 332 397
#     4  10  24  45  61 101 131 167 232 263 336 400
#     4   9  21  37  61  96 131 168 221 271 326 390
#     4  10  21  41  63  97 129 173 226 268 330 397
#
# _framework density 23.514461000000001
#
# number of rings (size 3 to 8) (size 9 to 14) (size 15 to 20)
#    1.000    1.000    0.000    2.000    4.667    4.667 
#    0.000    0.000    0.000    0.000    0.000    0.000 
#    0.000    0.000    0.000    0.000    0.000    0.000 
#
# Total GULP energy -133981.825833 kJ/mol
# GULP energy per Si atom -5582.576076 kJ/mol
# Density = 2.346094 g / cm^3
# Si number density = 23.514461 Si / 1000 Ang^3
#
#
#
# Elastic Constant Matrix: (Units=GPa)
#
#
# Indices 1 2 3 4 5 6 
#
# 1 67.0827 19.1146 0.4801 0.0001 3.4167 -0.0001
# 2 19.1146 32.0615 18.0867 -0.0004 7.6137 0.0002
# 3 0.4801 18.0867 91.4608 -0.0012 11.0257 0.0006
# 4 0.0001 -0.0004 -0.0012 27.5986 0.0000 14.1550
# 5 3.4167 7.6137 11.0257 0.0000 24.5619 -0.0001
# 6 -0.0001 0.0002 0.0006 14.1550 -0.0001 15.4254
#
#
#
# Elastic Compliance Matrix: (Units=1/GPa)
#
#
# Indices 1 2 3 4 5 6 
#
# 1 0.018390 -0.012322 0.002313 0.000000 0.000223 0.000000
# 2 -0.012322 0.045002 -0.007781 0.000001 -0.008743 -0.000001
# 3 0.002313 -0.007781 0.012907 0.000001 -0.003704 -0.000002
# 4 0.000000 0.000001 0.000001 0.068449 -0.000001 -0.062812
# 5 0.000223 -0.008743 -0.003704 -0.000001 0.045055 0.000001
# 6 0.000000 -0.000001 -0.000002 -0.062812 0.000001 0.122468
#
#
# Mechanical properties :
#
#
# Convention : Reuss Voigt Hill
#
# Bulk Modulus (GPa) = 24.55792 29.55198 27.05495
# Shear Modulus (GPa) = 13.83423 23.71207 18.77315
#
# Velocity S-wave (km/s) = 2.42818 3.17898 2.82860
# Velocity P-wave (km/s) = 4.28110 5.10582 4.71154
#
# Compressibility (1/GPa) = 0.04072006
#
# Stress axis : x y z
#
# Youngs Moduli (GPa) = 54.37730 22.22142 77.47963
#
# Poissons Ratio (x) = 0.27381 -0.17923
# Poissons Ratio (y) = 0.67003 0.60284
# Poissons Ratio (z) = -0.12579 0.17290
#
# Static dielectric constant tensor:
#      x y z
#    x 1.934140 0.000000 0.031870 
#    y 0.000000 1.856980 0.000000 
#    z 0.031870 0.000000 1.876360 
# 
# From -- ./inp_files/277214.got.cif
#   From: 2010.05.17/outbox.cif.g08.bks.cpg/sg15_139_cif.got.tgz:277214.got - 2010.06.03 18:47:42.
