data_PCOD9284244
_publ_section_title
;
Structure prediction by ZEFSAII (Michael W. Deem and Ramdas Pophale) SiO2 
 PCOD9284244
Probable space group: C 2/C
;
_chemical_formula_sum "Si O2"
_cell_formula_units_Z 48
_cell_length_a 14.243743
_cell_length_b 31.284469
_cell_length_c 14.015609
_cell_angle_alpha 90.000000
_cell_angle_beta 160.112620
_cell_angle_gamma 90.000000
_cell_volume 2124.535573
_symmetry_space_group_name_H-M "C 2/C"
_symmetry_group_IT_number 15
_symmetry_cell_setting 'monoclinic'
loop_
_space_group_symop_operation_xyz
x,y,z
-x,y,1/2-z
-x,-y,-z
x,-y,1/2+z
1/2+x,1/2+y,z
1/2-x,1/2+y,1/2-z
1/2-x,1/2-y,-z
1/2+x,1/2-y,1/2+z
loop_
_atom_site_type_symbol
_atom_site_label
_atom_site_fract_x
_atom_site_fract_y
_atom_site_fract_z
Si Si1 0.969294 0.719494 0.429807
Si Si2 0.592770 0.519721 0.690978
Si Si3 0.144511 0.382929 0.299875
Si Si4 0.411383 0.077942 0.270126
Si Si5 0.293232 0.364139 0.759489
Si Si6 0.500000 0.782121 0.750000
Si Si7 0.500000 0.547829 0.250000
O O1 0.843716 0.682700 0.374654
O O2 0.267367 0.739306 0.735614
O O3 0.974988 0.697556 0.329693
O O4 0.500000 0.500000 0.500000
O O5 0.316924 0.541932 0.466297
O O6 0.660573 0.481758 0.828135
O O7 0.836699 0.555050 0.931391
O O8 0.392522 0.362362 0.475562
O O9 0.292412 0.423008 0.490685
O O10 0.000000 0.357800 0.250000
O O11 0.891287 0.392144 0.988585
O O12 0.500000 0.094197 0.250000
O O13 0.255923 0.112946 0.186544
O O14 0.250000 0.750000 0.500000
#
# Coordination Sequence:
#
# PCOD9284244 Si02
#       7
#     8   8   8   8   8   4   4
#     4  10  21  40  68 103 134 175 220 274 336 408
#     4  12  26  42  67  93 136 176 232 287 336 393
#     4  12  26  45  70 100 128 180 242 282 337 392
#     4  12  25  45  61 101 141 179 216 273 352 410
#     4  12  25  44  72 100 139 178 226 281 342 416
#     4   8  16  32  56  91 130 164 208 246 310 399
#     4  12  24  44  72  95 132 182 236 288 332 397
#
# _framework density 22.593173
#
# number of rings (size 3 to 8) (size 9 to 14) (size 15 to 20)
#    0.000    0.667    3.333    4.500    3.500    0.000 
#    0.000    0.000    0.000   10.000    0.000    0.000 
#    0.000    0.000    0.000    0.000    0.000    0.000 
#
# Total GULP energy -134016.052853 kJ/mol
# GULP energy per Si atom -5584.002202 kJ/mol
# Density = 2.254175 g / cm^3
# Si number density = 22.593173 Si / 1000 Ang^3
#
#
#
# Elastic Constant Matrix: (Units=GPa)
#
#
# Indices 1 2 3 4 5 6 
#
# 1 138.2682 30.7853 17.7101 -0.0003 18.3990 -0.0006
# 2 30.7853 56.9737 -0.1725 0.0002 0.6197 0.0001
# 3 17.7101 -0.1725 110.1146 -0.0012 21.3576 -0.0016
# 4 -0.0003 0.0002 -0.0012 11.6601 -0.0005 3.5070
# 5 18.3990 0.6197 21.3576 -0.0005 38.7691 -0.0007
# 6 -0.0006 0.0001 -0.0016 3.5070 -0.0007 20.6840
#
#
#
# Elastic Compliance Matrix: (Units=1/GPa)
#
#
# Indices 1 2 3 4 5 6 
#
# 1 0.008882 -0.004761 -0.000709 0.000000 -0.003749 0.000000
# 2 -0.004761 0.020108 0.000472 0.000000 0.001678 0.000000
# 3 -0.000709 0.000472 0.010225 0.000001 -0.005304 0.000000
# 4 0.000000 0.000000 0.000001 0.090371 0.000001 -0.015323
# 5 -0.003749 0.001678 -0.005304 0.000001 0.030468 0.000000
# 6 0.000000 0.000000 0.000000 -0.015323 0.000000 0.050944
#
#
# Mechanical properties :
#
#
# Convention : Reuss Voigt Hill
#
# Bulk Modulus (GPa) = 34.22468 44.66693 39.44580
# Shear Modulus (GPa) = 21.67007 31.35823 26.51415
#
# Velocity S-wave (km/s) = 3.10036 3.72956 3.42942
# Velocity P-wave (km/s) = 5.29126 6.19348 5.76006
#
# Compressibility (1/GPa) = 0.02921868
#
# Stress axis : x y z
#
# Youngs Moduli (GPa) = 112.58874 49.73263 97.80005
#
# Poissons Ratio (x) = 0.23676 0.06933
# Poissons Ratio (y) = 0.53599 -0.04613
# Poissons Ratio (z) = 0.07981 -0.02346
#
# Static dielectric constant tensor:
#      x y z
#    x 1.955730 0.000000 -0.006370 
#    y 0.000000 1.824600 0.000000 
#    z -0.006370 0.000000 1.806980 
# 
# From -- ./inp_files/157745.got.cif
#   From: 2010.05.17/outbox.cif.g08.bks.cpg/sg15_79_cif.got.tgz:157745.got - 2010.06.03 18:47:42.
