data_PCOD9284963
_publ_section_title
;
Structure prediction by ZEFSAII (Michael W. Deem and Ramdas Pophale) SiO2 
 PCOD9284963
Probable space group: C 2/C
;
_chemical_formula_sum "Si O2"
_cell_formula_units_Z 52
_cell_length_a 7.868217
_cell_length_b 19.095744
_cell_length_c 16.808367
_cell_angle_alpha 90.000000
_cell_angle_beta 57.009712
_cell_angle_gamma 90.000000
_cell_volume 2118.252047
_symmetry_space_group_name_H-M "C 2/C"
_symmetry_group_IT_number 15
_symmetry_cell_setting 'monoclinic'
loop_
_space_group_symop_operation_xyz
x,y,z
-x,y,1/2-z
-x,-y,-z
x,-y,1/2+z
1/2+x,1/2+y,z
1/2-x,1/2+y,1/2-z
1/2-x,1/2-y,-z
1/2+x,1/2-y,1/2+z
loop_
_atom_site_type_symbol
_atom_site_label
_atom_site_fract_x
_atom_site_fract_y
_atom_site_fract_z
Si Si1 0.899278 0.070599 0.140880
Si Si2 0.468715 0.229121 0.009338
Si Si3 0.861450 0.539500 0.705063
Si Si4 0.000000 0.856277 0.250000
Si Si5 0.733498 0.990626 0.515239
Si Si6 0.012931 0.779078 0.656694
Si Si7 0.353584 0.658860 0.947315
O O1 0.795470 0.041351 0.086427
O O2 0.885850 0.151168 0.170643
O O3 0.782252 0.026509 0.237572
O O4 0.131167 0.050419 0.060288
O O5 0.522718 0.222388 0.902974
O O6 0.633108 0.189855 0.019621
O O7 0.248110 0.203172 0.083065
O O8 0.495184 0.311709 0.024668
O O9 0.696531 0.598865 0.727320
O O10 0.000000 0.554858 0.750000
O O11 0.010993 0.520076 0.593140
O O12 0.942885 0.812986 0.342299
O O13 0.810517 0.922617 0.446953
O O14 0.000000 0.754263 0.750000
#
# Coordination Sequence:
#
# PCOD9284963 Si02
#       7
#     8   8   8   4   8   8   8
#     4  10  21  41  66 104 138 173 227 282 349 419
#     4  10  26  48  65  97 134 181 233 281 348 398
#     4  10  24  42  64 108 143 179 227 282 364 414
#     4  12  26  42  70 104 140 184 238 282 340 438
#     4  10  21  41  71  96 140 182 210 293 354 401
#     4  11  25  44  71  99 131 180 232 288 337 425
#     4  11  24  46  66  95 136 179 228 288 336 414
#
# _framework density 24.548542999999999
#
# number of rings (size 3 to 8) (size 9 to 14) (size 15 to 20)
#    0.000    1.538    3.077    0.000    7.538    0.615 
#    2.769    0.000    0.000    0.000    0.000    0.000 
#    0.000    0.000    0.000    0.000    0.000    0.000 
#
# Total GULP energy -145049.034462 kJ/mol
# GULP energy per Si atom -5578.809018 kJ/mol
# Density = 2.449267 g / cm^3
# Si number density = 24.548543 Si / 1000 Ang^3
#
#
#
# Elastic Constant Matrix: (Units=GPa)
#
#
# Indices 1 2 3 4 5 6 
#
# 1 76.3701 12.2338 21.9712 0.0000 -10.0581 0.0000
# 2 12.2338 20.8385 -8.9513 0.0000 -9.6849 0.0000
# 3 21.9712 -8.9513 118.9693 0.0000 3.1457 0.0000
# 4 0.0000 0.0000 0.0000 17.8721 0.0000 -29.8369
# 5 -10.0581 -9.6849 3.1457 0.0000 40.1808 0.0000
# 6 0.0000 0.0000 0.0000 -29.8369 0.0000 -25.6026
#
#
#
# Elastic Compliance Matrix: (Units=1/GPa)
#
#
# Indices 1 2 3 4 5 6 
#
# 1 0.016059 -0.010188 -0.003781 0.000000 0.001860 0.000000
# 2 -0.010188 0.062208 0.006246 0.000000 0.011955 0.000000
# 3 -0.003781 0.006246 0.009579 0.000000 -0.000191 0.000000
# 4 0.000000 0.000000 0.000000 0.018996 0.000000 -0.022137
# 5 0.001860 0.011955 -0.000191 0.000000 0.028250 0.000000
# 6 0.000000 0.000000 0.000000 -0.022137 0.000000 -0.013260
#
#
# Mechanical properties :
#
#
# Convention : Reuss Voigt Hill
#
# Bulk Modulus (GPa) = 13.81221 29.63172 21.72197
# Shear Modulus (GPa) = 30.97678 19.21833 25.09755
#
# Velocity S-wave (km/s) = 3.55612 2.80102 3.20091
# Velocity P-wave (km/s) = 4.74342 4.74951 4.74646
#
# Compressibility (1/GPa) = 0.07239971
#
# Stress axis : x y z
#
# Youngs Moduli (GPa) = 62.27022 16.07503 104.39626
#
# Poissons Ratio (x) = 0.16377 0.39477
# Poissons Ratio (y) = 0.63439 -0.65205
# Poissons Ratio (z) = 0.23547 -0.10040
#
# Static dielectric constant tensor:
#      x y z
#    x 2.048790 0.000000 0.101120 
#    y 0.000000 2.032940 0.000000 
#    z 0.101120 0.000000 2.034980 
# 
# From -- ./inp_files/192474.got.cif
#   From: 2010.05.17/outbox.cif.g08.bks.cpg/sg15_97_cif.got.tgz:192474.got - 2010.06.03 18:47:42.
