data_PCOD9284519
_publ_section_title
;
Structure prediction by ZEFSAII (Michael W. Deem and Ramdas Pophale) SiO2 
 PCOD9284519
Probable space group: C 2/C
;
_chemical_formula_sum "Si O2"
_cell_formula_units_Z 40
_cell_length_a 14.302203
_cell_length_b 26.417327
_cell_length_c 11.128043
_cell_angle_alpha 90.000000
_cell_angle_beta 29.877724
_cell_angle_gamma 90.000000
_cell_volume 2094.456364
_symmetry_space_group_name_H-M "C 2/C"
_symmetry_group_IT_number 15
_symmetry_cell_setting 'monoclinic'
loop_
_space_group_symop_operation_xyz
x,y,z
-x,y,1/2-z
-x,-y,-z
x,-y,1/2+z
1/2+x,1/2+y,z
1/2-x,1/2+y,1/2-z
1/2-x,1/2-y,-z
1/2+x,1/2-y,1/2+z
loop_
_atom_site_type_symbol
_atom_site_label
_atom_site_fract_x
_atom_site_fract_y
_atom_site_fract_z
Si Si1 0.478117 0.445396 0.465937
Si Si2 0.779613 0.309362 0.486339
Si Si3 0.198409 0.807798 0.089975
Si Si4 0.803369 0.416705 0.914897
Si Si5 0.438118 0.656005 0.503604
O O1 0.500000 0.500000 0.500000
O O2 0.277887 0.435317 0.622806
O O3 0.521164 0.402177 0.514578
O O4 0.641169 0.434918 0.186667
O O5 0.750000 0.250000 0.500000
O O6 0.687900 0.336586 0.473580
O O7 0.645276 0.321426 0.748659
O O8 0.000000 0.320758 0.250000
O O9 0.166756 0.817547 0.267115
O O10 0.000000 0.816759 0.250000
O O11 0.250000 0.750000 0.000000
O O12 0.314131 0.855094 0.906781
O O13 0.000000 0.435772 0.750000
#
# Coordination Sequence:
#
# PCOD9284519 Si02
#       5
#     8   8   8   8   8
#     4  10  22  43  65  86 123 164 205 267 316 359
#     4  11  23  39  60  87 126 171 204 252 300 370
#     4  11  22  37  61  95 126 167 201 253 321 376
#     4  10  21  41  60  93 129 154 206 261 311 383
#     4  10  23  41  60  89 125 161 213 249 312 372
#
# _framework density 19.098034999999999
#
# number of rings (size 3 to 8) (size 9 to 14) (size 15 to 20)
#    0.000    1.600    6.000    0.600    2.800    7.200 
#    0.000    2.000    0.000    0.000    0.000    0.000 
#    0.000    0.000    0.000    0.000    0.000    0.000 
#
# Total GULP energy -111455.668956 kJ/mol
# GULP energy per Si atom -5572.783448 kJ/mol
# Density = 1.905457 g / cm^3
# Si number density = 19.098035 Si / 1000 Ang^3
#
#
#
# Elastic Constant Matrix: (Units=GPa)
#
#
# Indices 1 2 3 4 5 6 
#
# 1 122.0701 53.9998 33.6455 0.0000 -29.8922 -0.0003
# 2 53.9998 166.5664 30.6082 0.0003 6.4349 0.0002
# 3 33.6455 30.6082 53.4998 0.0001 -27.1880 -0.0006
# 4 0.0000 0.0003 0.0001 11.2726 0.0003 -2.1759
# 5 -29.8922 6.4349 -27.1880 0.0003 45.6897 0.0006
# 6 -0.0003 0.0002 -0.0006 -2.1759 0.0006 16.7056
#
#
#
# Elastic Compliance Matrix: (Units=1/GPa)
#
#
# Indices 1 2 3 4 5 6 
#
# 1 0.012256 -0.003989 -0.001527 0.000000 0.007672 0.000000
# 2 -0.003989 0.008768 -0.006395 0.000000 -0.007650 0.000000
# 3 -0.001527 -0.006395 0.033344 -0.000001 0.019743 0.000000
# 4 0.000000 0.000000 -0.000001 0.090999 -0.000001 0.011853
# 5 0.007672 -0.007650 0.019743 -0.000001 0.039732 -0.000001
# 6 0.000000 0.000000 0.000000 0.011853 -0.000001 0.061404
#
#
# Mechanical properties :
#
#
# Convention : Reuss Voigt Hill
#
# Bulk Modulus (GPa) = 32.73782 64.29370 48.51576
# Shear Modulus (GPa) = 17.82491 29.65909 23.74200
#
# Velocity S-wave (km/s) = 3.05837 3.94508 3.52968
# Velocity P-wave (km/s) = 5.44525 7.38171 6.48615
#
# Compressibility (1/GPa) = 0.03054571
#
# Stress axis : x y z
#
# Youngs Moduli (GPa) = 81.59152 114.05643 29.99048
#
# Poissons Ratio (x) = 0.45500 0.04579
# Poissons Ratio (y) = 0.32549 0.19179
# Poissons Ratio (z) = 0.12457 0.72940
#
# Static dielectric constant tensor:
#      x y z
#    x 1.682420 0.000000 0.013400 
#    y 0.000000 1.700100 0.000000 
#    z 0.013400 0.000000 1.680380 
# 
# From -- ./inp_files/100575.got.cif
#   From: 2010.05.17/outbox.cif.g08.bks.cpg/sg15_51_cif.got.tgz:100575.got - 2010.06.03 18:47:42.
