data_PCOD9284118
_publ_section_title
;
Structure prediction by ZEFSAII (Michael W. Deem and Ramdas Pophale) SiO2 
 PCOD9284118
Probable space group: C 2/C
;
_chemical_formula_sum "Si O2"
_cell_formula_units_Z 56
_cell_length_a 8.924283
_cell_length_b 23.465699
_cell_length_c 14.539523
_cell_angle_alpha 90.000000
_cell_angle_beta 49.026185
_cell_angle_gamma 90.000000
_cell_volume 2298.842971
_symmetry_space_group_name_H-M "C 2/C"
_symmetry_group_IT_number 15
_symmetry_cell_setting 'monoclinic'
loop_
_space_group_symop_operation_xyz
x,y,z
-x,y,1/2-z
-x,-y,-z
x,-y,1/2+z
1/2+x,1/2+y,z
1/2-x,1/2+y,1/2-z
1/2-x,1/2-y,-z
1/2+x,1/2-y,1/2+z
loop_
_atom_site_type_symbol
_atom_site_label
_atom_site_fract_x
_atom_site_fract_y
_atom_site_fract_z
Si Si1 0.787538 0.787490 0.277270
Si Si2 0.578576 0.411280 0.814845
Si Si3 0.139357 0.488233 0.358586
Si Si4 0.249752 0.111823 0.435437
Si Si5 0.368352 0.595842 0.689920
Si Si6 0.054520 0.286277 0.551257
Si Si7 0.745692 0.974939 0.064687
O O1 0.747241 0.846483 0.241753
O O2 0.145412 0.741432 0.326698
O O3 0.600671 0.784022 0.423137
O O4 0.000000 0.791572 0.250000
O O5 0.500000 0.384983 0.750000
O O6 0.756540 0.454457 0.716961
O O7 0.658339 0.375218 0.870570
O O8 0.395126 0.450322 0.927446
O O9 0.307392 0.441153 0.302623
O O10 0.000000 0.500000 0.500000
O O11 0.979075 0.456656 0.358956
O O12 0.420540 0.153150 0.404553
O O13 0.082798 0.119630 0.579196
O O14 0.281244 0.043484 0.420731
O O15 0.333576 0.550764 0.621941
O O16 0.250000 0.250000 0.500000
#
# Coordination Sequence:
#
# PCOD9284118 Si02
#       7
#     8   8   8   8   8   8   8
#     4  10  21  40  66  99 136 175 232 302 362 411
#     4  11  22  40  59  90 138 182 226 273 339 419
#     4  12  24  37  58  95 137 184 231 276 329 441
#     4  11  21  40  66  91 135 187 218 290 356 406
#     4  11  21  39  60  91 134 189 221 272 361 419
#     4  10  21  41  64 101 133 172 234 303 358 411
#     4  11  23  40  61  94 138 187 233 271 346 436
#
# _framework density 24.360081999999998
#
# number of rings (size 3 to 8) (size 9 to 14) (size 15 to 20)
#    0.000    1.143    7.143    1.286    2.000    0.571 
#    7.714    0.000    0.000    0.000    0.000   13.000 
#    0.000    0.000    0.000    0.000    0.000    0.000 
#
# Total GULP energy -156032.351768 kJ/mol
# GULP energy per Si atom -5572.583992 kJ/mol
# Density = 2.430464 g / cm^3
# Si number density = 24.360082 Si / 1000 Ang^3
#
#
#
# Elastic Constant Matrix: (Units=GPa)
#
#
# Indices 1 2 3 4 5 6 
#
# 1 49.3406 -0.4419 44.6826 0.0000 2.8288 0.0000
# 2 -0.4419 109.6483 55.6641 0.0000 7.5013 0.0000
# 3 44.6826 55.6641 183.5962 0.0000 20.3697 0.0000
# 4 0.0000 0.0000 0.0000 26.7781 0.0000 2.6496
# 5 2.8288 7.5013 20.3697 0.0000 43.8507 0.0000
# 6 0.0000 0.0000 0.0000 2.6496 0.0000 13.0461
#
#
#
# Elastic Compliance Matrix: (Units=1/GPa)
#
#
# Indices 1 2 3 4 5 6 
#
# 1 0.027573 0.004140 -0.008108 0.000000 0.001279 0.000000
# 2 0.004140 0.011406 -0.004449 0.000000 -0.000152 0.000000
# 3 -0.008108 -0.004449 0.009095 0.000000 -0.002941 0.000000
# 4 0.000000 0.000000 0.000000 0.038110 0.000000 -0.007740
# 5 0.001279 -0.000152 -0.002941 0.000000 0.024114 0.000000
# 6 0.000000 0.000000 0.000000 -0.007740 0.000000 0.078223
#
#
# Mechanical properties :
#
#
# Convention : Reuss Voigt Hill
#
# Bulk Modulus (GPa) = 32.00996 60.26607 46.13802
# Shear Modulus (GPa) = 23.17306 32.91367 28.04337
#
# Velocity S-wave (km/s) = 3.08762 3.67976 3.39662
# Velocity P-wave (km/s) = 5.08724 6.54581 5.86206
#
# Compressibility (1/GPa) = 0.03124028
#
# Stress axis : x y z
#
# Youngs Moduli (GPa) = 36.26706 87.67676 109.95087
#
# Poissons Ratio (x) = -0.36294 0.89144
# Poissons Ratio (y) = -0.15013 0.48913
# Poissons Ratio (z) = 0.29404 0.39004
#
# Static dielectric constant tensor:
#      x y z
#    x 2.137850 0.000000 0.037720 
#    y 0.000000 1.971320 0.000000 
#    z 0.037720 0.000000 2.156350 
# 
# From -- ./inp_files/200748.got.cif
#   From: 2010.05.17/outbox.cif.g08.bks.cpg/sg15_101_cif.got.tgz:200748.got - 2010.06.03 18:47:42.
