data_PCOD9284680
_publ_section_title
;
Structure prediction by ZEFSAII (Michael W. Deem and Ramdas Pophale) SiO2 
 PCOD9284680
Probable space group: C 2/C
;
_chemical_formula_sum "Si O2"
_cell_formula_units_Z 64
_cell_length_a 27.762650
_cell_length_b 9.361293
_cell_length_c 14.928396
_cell_angle_alpha 90.000000
_cell_angle_beta 130.359562
_cell_angle_gamma 90.000000
_cell_volume 2956.394162
_symmetry_space_group_name_H-M "C 2/C"
_symmetry_group_IT_number 15
_symmetry_cell_setting 'monoclinic'
loop_
_space_group_symop_operation_xyz
x,y,z
-x,y,1/2-z
-x,-y,-z
x,-y,1/2+z
1/2+x,1/2+y,z
1/2-x,1/2+y,1/2-z
1/2-x,1/2-y,-z
1/2+x,1/2-y,1/2+z
loop_
_atom_site_type_symbol
_atom_site_label
_atom_site_fract_x
_atom_site_fract_y
_atom_site_fract_z
Si Si1 0.336990 0.342785 0.503771
Si Si2 0.877036 0.666161 0.032194
Si Si3 0.209370 0.430323 0.625061
Si Si4 0.430390 0.327463 0.937030
Si Si5 0.128906 0.235081 0.779210
Si Si6 0.240957 0.875982 0.623108
Si Si7 0.665485 0.583455 0.314677
Si Si8 0.441680 0.664758 0.987697
O O1 0.294370 0.238151 0.395458
O O2 0.302278 0.495307 0.465803
O O3 0.338373 0.305591 0.609341
O O4 0.403903 0.326006 0.535049
O O5 0.896454 0.695330 0.158715
O O6 0.855380 0.506200 0.981504
O O7 0.926052 0.730123 0.019484
O O8 0.811460 0.752060 0.933206
O O9 0.230780 0.444442 0.752310
O O10 0.265825 0.474626 0.627679
O O11 0.364071 0.337454 0.806067
O O12 0.441782 0.492693 0.976078
O O13 0.486382 0.285008 0.936768
O O14 0.198309 0.307862 0.853095
O O15 0.095191 0.241067 0.640390
O O16 0.127892 0.062615 0.791316
#
# Coordination Sequence:
#
# PCOD9284680 Si02
#       8
#     8   8   8   8   8   8   8   8
#     4  12  23  39  59  91 127 162 203 256 316 373
#     4  12  22  40  62  94 123 165 209 255 313 377
#     4  12  24  37  60  93 132 158 201 257 323 379
#     4  10  22  39  64  91 122 161 213 261 308 368
#     4  11  21  38  65  90 123 163 207 259 314 371
#     4  12  20  38  64  88 126 164 199 258 318 376
#     4  11  21  37  61  94 124 162 207 257 314 376
#     4  10  21  41  63  91 122 161 211 265 308 360
#
# _framework density 21.647991999999999
#
# number of rings (size 3 to 8) (size 9 to 14) (size 15 to 20)
#    0.000    0.750    6.250    3.000    0.000    1.000 
#    0.000    4.375    0.000    1.500    0.000    0.000 
#    0.000    0.000    0.000    0.000    0.000    0.000 
#
# Total GULP energy -178311.561329 kJ/mol
# GULP energy per Si atom -5572.236292 kJ/mol
# Density = 2.159872 g / cm^3
# Si number density = 21.647992 Si / 1000 Ang^3
#
#
#
# Elastic Constant Matrix: (Units=GPa)
#
#
# Indices 1 2 3 4 5 6 
#
# 1 -215.0522 -37.2638 253.0395 0.0000 -5.9831 0.0000
# 2 -37.2638 27.0492 39.0796 0.0000 5.1649 0.0000
# 3 253.0395 39.0796 -151.7782 0.0000 -24.0295 0.0000
# 4 0.0000 0.0000 0.0000 12.7496 0.0000 0.5243
# 5 -5.9831 5.1649 -24.0295 0.0000 32.4083 0.0000
# 6 0.0000 0.0000 0.0000 0.5243 0.0000 11.0700
#
#
#
# Elastic Compliance Matrix: (Units=1/GPa)
#
#
# Indices 1 2 3 4 5 6 
#
# 1 0.007740 -0.005550 0.009942 0.000000 0.009685 0.000000
# 2 -0.005550 0.030946 -0.000306 0.000000 -0.006183 0.000000
# 3 0.009942 -0.000306 0.008600 0.000000 0.008260 0.000000
# 4 0.000000 0.000000 0.000000 0.078587 0.000000 -0.003722
# 5 0.009685 -0.006183 0.008260 0.000000 0.039754 0.000000
# 6 0.000000 0.000000 0.000000 -0.003722 0.000000 0.090510
#
#
# Mechanical properties :
#
#
# Convention : Reuss Voigt Hill
#
# Bulk Modulus (GPa) = 18.03140 18.88104 18.45622
# Shear Modulus (GPa) = 18.76522 -28.39683 -4.81581
#
# Velocity S-wave (km/s) = 2.94740 -3.62574 -1.49313
# Velocity P-wave (km/s) = 4.46434 2.96433 2.36041
#
# Compressibility (1/GPa) = 0.05545882
#
# Stress axis : x y z
#
# Youngs Moduli (GPa) = 129.19719 32.31419 116.28435
#
# Poissons Ratio (x) = 0.17934 -1.15607
# Poissons Ratio (y) = 0.71702 0.03553
# Poissons Ratio (z) = -1.28445 0.00987
#
# Static dielectric constant tensor:
#      x y z
#    x 1.830900 0.000000 -0.001060 
#    y 0.000000 1.814370 0.000000 
#    z -0.001060 0.000000 1.802500 
# 
# From -- ./inp_files/181176.got.cif
#   From: 2010.05.17/outbox.cif.g08.bks.cpg/sg15_91_cif.got.tgz:181176.got - 2010.06.03 18:47:42.
