data_PCOD9284503
_publ_section_title
;
Structure prediction by ZEFSAII (Michael W. Deem and Ramdas Pophale) SiO2 
 PCOD9284503
Probable space group: C 2/C
;
_chemical_formula_sum "Si O2"
_cell_formula_units_Z 64
_cell_length_a 21.600052
_cell_length_b 16.685759
_cell_length_c 18.813727
_cell_angle_alpha 90.000000
_cell_angle_beta 151.575222
_cell_angle_gamma 90.000000
_cell_volume 3227.652183
_symmetry_space_group_name_H-M "C 2/C"
_symmetry_group_IT_number 15
_symmetry_cell_setting 'monoclinic'
loop_
_space_group_symop_operation_xyz
x,y,z
-x,y,1/2-z
-x,-y,-z
x,-y,1/2+z
1/2+x,1/2+y,z
1/2-x,1/2+y,1/2-z
1/2-x,1/2-y,-z
1/2+x,1/2-y,1/2+z
loop_
_atom_site_type_symbol
_atom_site_label
_atom_site_fract_x
_atom_site_fract_y
_atom_site_fract_z
Si Si1 0.301454 0.497149 0.790294
Si Si2 0.224303 0.708631 0.548893
Si Si3 0.344128 0.967843 0.499500
Si Si4 0.152721 0.369455 0.422489
Si Si5 0.433841 0.948398 0.869547
Si Si6 0.474129 0.238937 0.391915
Si Si7 0.999796 0.133169 0.458842
Si Si8 0.389010 0.302945 0.576155
O O1 0.219919 0.533315 0.643100
O O2 0.215214 0.471875 0.770709
O O3 0.366514 0.416541 0.825533
O O4 0.399751 0.565842 0.912585
O O5 0.250000 0.750000 0.500000
O O6 0.199718 0.614458 0.509701
O O7 0.346985 0.727184 0.723496
O O8 0.095054 0.738270 0.459345
O O9 0.305152 0.047956 0.499623
O O10 0.497889 0.969844 0.635992
O O11 0.256961 0.348534 0.466256
O O12 0.153183 0.290260 0.472643
O O13 0.000000 0.377968 0.250000
O O14 0.452191 0.852893 0.894899
O O15 0.500000 0.000000 0.000000
O O16 0.504581 0.294638 0.489748
O O17 0.046930 0.164325 0.430498
O O18 0.500000 0.307901 0.750000
#
# Coordination Sequence:
#
# PCOD9284503 Si02
#       8
#     8   8   8   8   8   8   8   8
#     4  10  21  41  59  99 128 163 217 261 321 381
#     4  11  24  45  67  93 131 169 218 269 317 387
#     4  10  21  41  64  91 128 165 214 264 326 377
#     4  10  23  42  64  95 128 168 224 260 320 396
#     4   9  21  37  61  92 129 160 204 266 312 379
#     4  11  23  44  65 101 127 169 220 260 329 379
#     4  11  23  39  70  91 132 172 211 271 313 393
#     4  10  23  45  63  96 133 172 218 261 327 392
#
# _framework density 19.828654
#
# number of rings (size 3 to 8) (size 9 to 14) (size 15 to 20)
#    0.000    1.750    1.250    1.875    5.250    2.000 
#   11.250    0.000    0.000    0.000    0.000    0.000 
#    0.000    0.000    0.000    0.000    0.000    0.000 
#
# Total GULP energy -178577.004565 kJ/mol
# GULP energy per Si atom -5580.531393 kJ/mol
# Density = 1.978352 g / cm^3
# Si number density = 19.828654 Si / 1000 Ang^3
#
#
#
# Elastic Constant Matrix: (Units=GPa)
#
#
# Indices 1 2 3 4 5 6 
#
# 1 95.3881 69.9412 17.7497 -0.0002 5.2501 -0.0001
# 2 69.9412 141.2926 6.4140 -0.0001 -1.4946 -0.0001
# 3 17.7497 6.4140 35.7794 -0.0002 14.6265 -0.0001
# 4 -0.0002 -0.0001 -0.0002 2.4783 -0.0003 -16.2682
# 5 5.2501 -1.4946 14.6265 -0.0003 29.2857 -0.0002
# 6 -0.0001 -0.0001 -0.0001 -16.2682 -0.0002 20.3973
#
#
#
# Elastic Compliance Matrix: (Units=1/GPa)
#
#
# Indices 1 2 3 4 5 6 
#
# 1 0.018255 -0.008695 -0.007512 0.000000 0.000035 0.000000
# 2 -0.008695 0.011314 0.001774 0.000000 0.001250 0.000000
# 3 -0.007512 0.001774 0.038664 0.000000 -0.017873 0.000000
# 4 0.000000 0.000000 0.000000 -0.095268 -0.000001 -0.075983
# 5 0.000035 0.001250 -0.017873 -0.000001 0.043130 -0.000001
# 6 0.000000 0.000000 0.000000 -0.075983 -0.000001 -0.011575
#
#
# Mechanical properties :
#
#
# Convention : Reuss Voigt Hill
#
# Bulk Modulus (GPa) = 25.40130 51.18555 38.29343
# Shear Modulus (GPa) = 107.51065 22.32261 64.91663
#
# Velocity S-wave (km/s) = 7.37140 3.35890 5.72799
# Velocity P-wave (km/s) = 9.23517 6.39632 7.94359
#
# Compressibility (1/GPa) = 0.03936806
#
# Stress axis : x y z
#
# Youngs Moduli (GPa) = 54.78075 88.38431 25.86388
#
# Poissons Ratio (x) = 0.76849 0.19428
# Poissons Ratio (y) = 0.47631 -0.04589
# Poissons Ratio (z) = 0.41149 -0.15680
#
# Static dielectric constant tensor:
#      x y z
#    x 1.694700 0.000000 0.020940 
#    y 0.000000 1.679370 0.000000 
#    z 0.020940 0.000000 1.781120 
# 
# From -- ./inp_files/216173.got.cif
#   From: 2010.05.17/outbox.cif.g08.bks.cpg/sg15_109_cif.got.tgz:216173.got - 2010.06.03 18:47:42.
