data_PCOD9284932
_publ_section_title
;
Structure prediction by ZEFSAII (Michael W. Deem and Ramdas Pophale) SiO2 
 PCOD9284932
Probable space group: C 2/C
;
_chemical_formula_sum "Si O2"
_cell_formula_units_Z 56
_cell_length_a 23.995226
_cell_length_b 13.207422
_cell_length_c 9.763690
_cell_angle_alpha 90.000000
_cell_angle_beta 119.531106
_cell_angle_gamma 90.000000
_cell_volume 2692.279690
_symmetry_space_group_name_H-M "C 2/C"
_symmetry_group_IT_number 15
_symmetry_cell_setting 'monoclinic'
loop_
_space_group_symop_operation_xyz
x,y,z
-x,y,1/2-z
-x,-y,-z
x,-y,1/2+z
1/2+x,1/2+y,z
1/2-x,1/2+y,1/2-z
1/2-x,1/2-y,-z
1/2+x,1/2-y,1/2+z
loop_
_atom_site_type_symbol
_atom_site_label
_atom_site_fract_x
_atom_site_fract_y
_atom_site_fract_z
Si Si1 0.219672 0.584484 0.781791
Si Si2 0.249936 0.346813 0.595272
Si Si3 0.924058 0.900506 0.138493
Si Si4 0.623963 0.174062 0.463502
Si Si5 0.842605 0.632237 0.303760
Si Si6 0.150528 0.990244 0.189730
Si Si7 0.044025 0.530615 0.927430
O O1 0.176485 0.665642 0.648406
O O2 0.186504 0.478688 0.707549
O O3 0.291860 0.573381 0.812056
O O4 0.214909 0.581948 0.941159
O O5 0.250000 0.250000 0.500000
O O6 0.209417 0.307726 0.674116
O O7 0.313447 0.407939 0.711364
O O8 0.909961 0.783390 0.080081
O O9 0.000000 0.913247 0.250000
O O10 0.884572 0.931501 0.228792
O O11 0.898034 0.972798 0.986099
O O12 0.653780 0.162327 0.348359
O O13 0.578978 0.074500 0.425427
O O14 0.910032 0.620000 0.462130
O O15 0.000000 0.566037 0.750000
O O16 0.000000 0.500000 0.000000
#
# Coordination Sequence:
#
# PCOD9284932 Si02
#       7
#     8   8   8   8   8   8   8
#     4  10  21  41  65  96 133 163 217 279 352 395
#     4  11  23  40  63  96 129 158 218 285 342 398
#     4  12  27  46  69  94 138 182 239 272 327 416
#     4  11  24  40  66 104 131 177 228 279 339 410
#     4  10  22  37  61  90 132 171 212 272 343 401
#     4  11  24  46  69  93 128 185 220 285 347 385
#     4  11  21  38  63  90 135 178 218 269 339 408
#
# _framework density 20.800215999999999
#
# number of rings (size 3 to 8) (size 9 to 14) (size 15 to 20)
#    0.000    1.143    2.857    4.286    6.000    0.571 
#    0.000    0.000    0.000    0.000    0.000    0.000 
#    0.000    0.000    0.000    0.000    0.000    0.000 
#
# Total GULP energy -156152.675230 kJ/mol
# GULP energy per Si atom -5576.881258 kJ/mol
# Density = 2.075287 g / cm^3
# Si number density = 20.800216 Si / 1000 Ang^3
#
#
#
# Elastic Constant Matrix: (Units=GPa)
#
#
# Indices 1 2 3 4 5 6 
#
# 1 70.7055 -3.2501 30.2177 0.0000 -2.3052 0.0000
# 2 -3.2501 55.7664 3.0735 0.0000 11.2016 0.0000
# 3 30.2177 3.0735 136.7851 0.0000 11.6217 0.0000
# 4 0.0000 0.0000 0.0000 14.7343 0.0000 0.4142
# 5 -2.3052 11.2016 11.6217 0.0000 46.8932 0.0000
# 6 0.0000 0.0000 0.0000 0.4142 0.0000 21.4708
#
#
#
# Elastic Compliance Matrix: (Units=1/GPa)
#
#
# Indices 1 2 3 4 5 6 
#
# 1 0.015781 0.000823 -0.003630 0.000000 0.001479 0.000000
# 2 0.000823 0.018879 -0.000231 0.000000 -0.004412 0.000000
# 3 -0.003630 -0.000231 0.008303 0.000000 -0.002181 0.000000
# 4 0.000000 0.000000 0.000000 0.067906 0.000000 -0.001310
# 5 0.001479 -0.004412 -0.002181 0.000000 0.022992 0.000000
# 6 0.000000 0.000000 0.000000 -0.001310 0.000000 0.046600
#
#
# Mechanical properties :
#
#
# Convention : Reuss Voigt Hill
#
# Bulk Modulus (GPa) = 27.11100 35.92659 31.51879
# Shear Modulus (GPa) = 25.14668 32.16738 28.65703
#
# Velocity S-wave (km/s) = 3.48079 3.93681 3.71580
# Velocity P-wave (km/s) = 5.40526 6.16234 5.79617
#
# Compressibility (1/GPa) = 0.03688539
#
# Stress axis : x y z
#
# Youngs Moduli (GPa) = 63.36851 52.96936 120.43511
#
# Poissons Ratio (x) = -0.04358 0.43722
# Poissons Ratio (y) = -0.05213 0.02783
# Poissons Ratio (z) = 0.23005 0.01224
#
# Static dielectric constant tensor:
#      x y z
#    x 1.756450 0.000000 0.170740 
#    y 0.000000 2.411690 0.000000 
#    z 0.170740 0.000000 1.833220 
# 
# From -- ./inp_files/61994.got.cif
#   From: 2010.05.17/outbox.cif.g08.bks.cpg/sg15_31_cif.got.tgz:61994.got - 2010.06.03 18:47:42.
