data_PCOD9284806
_publ_section_title
;
Structure prediction by ZEFSAII (Michael W. Deem and Ramdas Pophale) SiO2 
 PCOD9284806
Probable space group: C 2/C
;
_chemical_formula_sum "Si O2"
_cell_formula_units_Z 56
_cell_length_a 14.669531
_cell_length_b 19.976924
_cell_length_c 16.634907
_cell_angle_alpha 90.000000
_cell_angle_beta 28.096745
_cell_angle_gamma 90.000000
_cell_volume 2295.888938
_symmetry_space_group_name_H-M "C 2/C"
_symmetry_group_IT_number 15
_symmetry_cell_setting 'monoclinic'
loop_
_space_group_symop_operation_xyz
x,y,z
-x,y,1/2-z
-x,-y,-z
x,-y,1/2+z
1/2+x,1/2+y,z
1/2-x,1/2+y,1/2-z
1/2-x,1/2-y,-z
1/2+x,1/2-y,1/2+z
loop_
_atom_site_type_symbol
_atom_site_label
_atom_site_fract_x
_atom_site_fract_y
_atom_site_fract_z
Si Si1 0.949006 0.784526 0.372347
Si Si2 0.473416 0.496866 0.618058
Si Si3 0.112494 0.330139 0.842902
Si Si4 0.775399 0.873584 0.264828
Si Si5 0.361562 0.053729 0.294749
Si Si6 0.019407 0.596106 0.825701
Si Si7 0.136656 0.858651 0.715055
O O1 0.750000 0.750000 0.500000
O O2 0.000000 0.821617 0.250000
O O3 0.086976 0.723423 0.292374
O O4 0.016866 0.837377 0.386817
O O5 0.500000 0.500000 0.500000
O O6 0.302545 0.549043 0.769941
O O7 0.672975 0.530829 0.489881
O O8 0.456677 0.424487 0.670773
O O9 0.168237 0.400320 0.758954
O O10 0.276998 0.312681 0.780471
O O11 0.899496 0.339702 0.048886
O O12 0.703539 0.874587 0.229221
O O13 0.500000 0.090733 0.250000
O O14 0.457139 0.983939 0.194037
O O15 0.000000 0.619917 0.750000
O O16 0.830556 0.615588 0.021258
O O17 0.000000 0.831520 0.750000
#
# Coordination Sequence:
#
# PCOD9284806 Si02
#       7
#     8   8   8   8   8   8   8
#     4  12  27  48  69  96 132 177 229 283 337 396
#     4  12  23  39  63 102 135 176 221 274 341 404
#     4  11  24  44  64  93 132 179 223 276 334 395
#     4  11  25  42  65  93 132 174 226 276 334 404
#     4  11  22  36  62  94 132 174 218 266 334 401
#     4  10  21  41  64  94 135 173 216 274 343 400
#     4  11  23  40  66  98 134 172 219 277 333 409
#
# _framework density 24.391424000000001
#
# number of rings (size 3 to 8) (size 9 to 14) (size 15 to 20)
#    0.000    0.857    4.286    3.000    4.000    2.857 
#    0.000    0.714    0.000    3.429    0.000    0.000 
#    0.000    0.000    0.000    0.000    0.000    0.000 
#
# Total GULP energy -156409.317075 kJ/mol
# GULP energy per Si atom -5586.047038 kJ/mol
# Density = 2.433591 g / cm^3
# Si number density = 24.391424 Si / 1000 Ang^3
#
#
#
# Elastic Constant Matrix: (Units=GPa)
#
#
# Indices 1 2 3 4 5 6 
#
# 1 199.2419 29.7324 30.8203 -0.0019 -26.6763 0.0091
# 2 29.7324 41.8854 6.3407 0.0256 -6.7477 0.0036
# 3 30.8203 6.3407 66.8759 0.0723 -10.2635 0.0032
# 4 -0.0019 0.0256 0.0723 20.5251 0.0034 -6.5607
# 5 -26.6763 -6.7477 -10.2635 0.0034 39.5731 -0.0120
# 6 0.0091 0.0036 0.0032 -6.5607 -0.0120 31.5697
#
#
#
# Elastic Compliance Matrix: (Units=1/GPa)
#
#
# Indices 1 2 3 4 5 6 
#
# 1 0.006300 -0.003660 -0.002083 0.000013 0.003083 0.000003
# 2 -0.003660 0.026875 -0.000559 -0.000035 0.001970 -0.000009
# 3 -0.002083 -0.000559 0.016388 -0.000062 0.002751 -0.000013
# 4 0.000013 -0.000035 -0.000062 0.052188 -0.000015 0.010845
# 5 0.003083 0.001970 0.002751 -0.000015 0.028397 0.000006
# 6 0.000003 -0.000009 -0.000013 0.010845 0.000006 0.033930
#
#
# Mechanical properties :
#
#
# Convention : Reuss Voigt Hill
#
# Bulk Modulus (GPa) = 27.05730 49.08777 38.07253
# Shear Modulus (GPa) = 26.45467 34.40757 30.43112
#
# Velocity S-wave (km/s) = 3.29688 3.75993 3.53599
# Velocity P-wave (km/s) = 5.06060 6.24645 5.68453
#
# Compressibility (1/GPa) = 0.03695860
#
# Stress axis : x y z
#
# Youngs Moduli (GPa) = 158.72431 37.20940 61.01865
#
# Poissons Ratio (x) = 0.13620 0.12713
# Poissons Ratio (y) = 0.58097 0.03410
# Poissons Ratio (z) = 0.33069 0.02079
#
# Static dielectric constant tensor:
#      x y z
#    x 2.013590 0.000010 -0.032930 
#    y 0.000010 1.941210 0.000070 
#    z -0.032930 0.000070 2.065780 
# 
# From -- ./inp_files/206915.got.cif
#   From: 2010.05.17/outbox.cif.g08.bks.cpg/sg15_104_cif.got.tgz:206915.got - 2010.06.03 18:47:42.
