data_PCOD9284697
_publ_section_title
;
Structure prediction by ZEFSAII (Michael W. Deem and Ramdas Pophale) SiO2 
 PCOD9284697
Probable space group: C 2/C
;
_chemical_formula_sum "Si O2"
_cell_formula_units_Z 52
_cell_length_a 22.990171
_cell_length_b 18.990747
_cell_length_c 14.979523
_cell_angle_alpha 90.000000
_cell_angle_beta 156.310270
_cell_angle_gamma 90.000000
_cell_volume 2627.692157
_symmetry_space_group_name_H-M "C 2/C"
_symmetry_group_IT_number 15
_symmetry_cell_setting 'monoclinic'
loop_
_space_group_symop_operation_xyz
x,y,z
-x,y,1/2-z
-x,-y,-z
x,-y,1/2+z
1/2+x,1/2+y,z
1/2-x,1/2+y,1/2-z
1/2-x,1/2-y,-z
1/2+x,1/2-y,1/2+z
loop_
_atom_site_type_symbol
_atom_site_label
_atom_site_fract_x
_atom_site_fract_y
_atom_site_fract_z
Si Si1 0.308676 0.399642 0.633589
Si Si2 0.912279 0.167994 0.909959
Si Si3 0.500000 0.154676 0.750000
Si Si4 0.233731 0.391916 0.324244
Si Si5 0.937924 0.678116 0.467386
Si Si6 0.897902 0.945395 0.241085
Si Si7 0.276269 0.447279 0.874286
O O1 0.416844 0.344596 0.830999
O O2 0.144043 0.389898 0.432675
O O3 0.312401 0.390979 0.531422
O O4 0.362992 0.477879 0.731582
O O5 0.885350 0.249348 0.851077
O O6 0.828555 0.143224 0.880792
O O7 0.868692 0.116290 0.769141
O O8 0.471674 0.195902 0.618678
O O9 0.211522 0.474541 0.270367
O O10 0.083616 0.351138 0.127002
O O11 0.823359 0.614961 0.301858
O O12 0.066074 0.945198 0.449271
O O13 0.804269 0.937620 0.019395
#
# Coordination Sequence:
#
# PCOD9284697 Si02
#       7
#     8   8   4   8   8   8   8
#     4  10  21  41  63  93 123 160 207 251 308 362
#     4  12  24  37  65  93 129 159 207 248 317 369
#     4  10  24  38  64  92 126 160 204 248 308 378
#     4  10  23  40  63  92 123 165 200 257 306 368
#     4  11  26  39  62  92 129 164 197 260 312 365
#     4  10  22  40  67  92 113 168 211 257 293 368
#     4  10  21  45  66  85 123 161 216 253 303 352
#
# _framework density 19.789228000000001
#
# number of rings (size 3 to 8) (size 9 to 14) (size 15 to 20)
#    0.000    1.538    1.538    2.308    8.615    1.846 
#    0.000    0.000    0.000    0.000    0.000    0.000 
#    0.000    0.000    0.000    0.000    0.000    0.000 
#
# Total GULP energy -145368.672375 kJ/mol
# GULP energy per Si atom -5591.102784 kJ/mol
# Density = 1.974419 g / cm^3
# Si number density = 19.789228 Si / 1000 Ang^3
#
#
#
# Elastic Constant Matrix: (Units=GPa)
#
#
# Indices 1 2 3 4 5 6 
#
# 1 92.2240 34.3680 19.5745 0.0000 9.3582 0.0000
# 2 34.3680 122.2795 19.0940 0.0000 4.0205 0.0000
# 3 19.5745 19.0940 45.2598 0.0000 12.0856 0.0000
# 4 0.0000 0.0000 0.0000 2.0125 0.0000 -9.6217
# 5 9.3582 4.0205 12.0856 0.0000 23.3838 0.0000
# 6 0.0000 0.0000 0.0000 -9.6217 0.0000 13.6276
#
#
#
# Elastic Compliance Matrix: (Units=1/GPa)
#
#
# Indices 1 2 3 4 5 6 
#
# 1 0.013014 -0.003002 -0.003607 0.000000 -0.002828 0.000000
# 2 -0.003002 0.009451 -0.002988 0.000000 0.001121 0.000000
# 3 -0.003607 -0.002988 0.028298 0.000000 -0.012668 0.000000
# 4 0.000000 0.000000 0.000000 -0.209167 0.000000 -0.147681
# 5 -0.002828 0.001121 -0.012668 0.000000 0.050251 0.000000
# 6 0.000000 0.000000 0.000000 -0.147681 0.000000 -0.030889
#
#
# Mechanical properties :
#
#
# Convention : Reuss Voigt Hill
#
# Bulk Modulus (GPa) = 31.67600 45.09292 38.38446
# Shear Modulus (GPa) = -45.73589 20.25323 -12.74133
#
# Velocity S-wave (km/s) = -4.81266 3.20261 -2.54018
# Velocity P-wave (km/s) = 3.85238 6.04249 3.29172
#
# Compressibility (1/GPa) = 0.03156964
#
# Stress axis : x y z
#
# Youngs Moduli (GPa) = 76.83856 105.80434 35.33788
#
# Poissons Ratio (x) = 0.31758 0.12747
# Poissons Ratio (y) = 0.23064 0.10561
# Poissons Ratio (z) = 0.27717 0.31619
#
# Static dielectric constant tensor:
#      x y z
#    x 1.705020 0.000000 -0.020910 
#    y 0.000000 1.672150 0.000000 
#    z -0.020910 0.000000 1.687310 
# 
# From -- ./inp_files/169032.got.cif
#   From: 2010.05.17/outbox.cif.g08.bks.cpg/sg15_85_cif.got.tgz:169032.got - 2010.06.03 18:47:42.
