data_PCOD9284909
_publ_section_title
;
Structure prediction by ZEFSAII (Michael W. Deem and Ramdas Pophale) SiO2 
 PCOD9284909
Probable space group: C 2/C
;
_chemical_formula_sum "Si O2"
_cell_formula_units_Z 36
_cell_length_a 7.484509
_cell_length_b 11.965621
_cell_length_c 15.173139
_cell_angle_alpha 90.000000
_cell_angle_beta 109.179052
_cell_angle_gamma 90.000000
_cell_volume 1283.436445
_symmetry_space_group_name_H-M "C 2/C"
_symmetry_group_IT_number 15
_symmetry_cell_setting 'monoclinic'
loop_
_space_group_symop_operation_xyz
x,y,z
-x,y,1/2-z
-x,-y,-z
x,-y,1/2+z
1/2+x,1/2+y,z
1/2-x,1/2+y,1/2-z
1/2-x,1/2-y,-z
1/2+x,1/2-y,1/2+z
loop_
_atom_site_type_symbol
_atom_site_label
_atom_site_fract_x
_atom_site_fract_y
_atom_site_fract_z
Si Si1 0.814644 0.645233 0.308950
Si Si2 0.961377 0.430356 0.406629
Si Si3 0.750000 0.250000 0.000000
Si Si4 0.015119 0.116719 0.107198
Si Si5 0.538090 0.624993 0.855134
O O1 0.671852 0.651309 0.203636
O O2 0.694864 0.646303 0.382384
O O3 0.924498 0.527919 0.329007
O O4 0.941752 0.754259 0.334370
O O5 0.137599 0.349938 0.423691
O O6 0.000000 0.500000 0.500000
O O7 0.764442 0.368050 0.392577
O O8 0.969457 0.191747 0.016054
O O9 0.022816 0.984780 0.099669
O O10 0.500000 0.575415 0.750000
#
# Coordination Sequence:
#
# PCOD9284909 Si02
#       5
#     8   8   4   8   8
#     4  10  21  41  67  91 124 172 215 252 317 389
#     4  11  22  41  64  91 125 169 204 263 322 369
#     4  12  22  42  68  94 134 164 210 272 320 370
#     4  10  21  41  65  94 127 170 207 263 322 371
#     4  11  20  41  68  89 126 172 215 259 317 379
#
# _framework density 28.049697999999999
#
# number of rings (size 3 to 8) (size 9 to 14) (size 15 to 20)
#    0.000    1.333    8.889    1.333    0.000    0.889 
#    0.000    6.667    0.000    0.000    0.000    0.000 
#    0.000    0.000    0.000    0.000    0.000    0.000 
#
# Total GULP energy -100385.728711 kJ/mol
# GULP energy per Si atom -5576.984928 kJ/mol
# Density = 2.798586 g / cm^3
# Si number density = 28.049698 Si / 1000 Ang^3
#
#
#
# Elastic Constant Matrix: (Units=GPa)
#
#
# Indices 1 2 3 4 5 6 
#
# 1 72.7906 65.4474 52.3267 0.0000 28.1868 0.0000
# 2 65.4474 258.2130 81.7238 0.0000 46.0505 0.0000
# 3 52.3267 81.7238 184.2403 0.0000 71.1281 0.0000
# 4 0.0000 0.0000 0.0000 68.1293 0.0000 23.4715
# 5 28.1868 46.0505 71.1281 0.0000 53.5842 0.0000
# 6 0.0000 0.0000 0.0000 23.4715 0.0000 65.0456
#
#
#
# Elastic Compliance Matrix: (Units=1/GPa)
#
#
# Indices 1 2 3 4 5 6 
#
# 1 0.020489 -0.003621 -0.002571 0.000000 -0.004253 0.000000
# 2 -0.003621 0.005315 -0.000618 0.000000 -0.001843 0.000000
# 3 -0.002571 -0.000618 0.011701 0.000000 -0.013649 0.000000
# 4 0.000000 0.000000 0.000000 0.016762 0.000000 -0.006048
# 5 -0.004253 -0.001843 -0.013649 0.000000 0.040602 0.000000
# 6 0.000000 0.000000 0.000000 -0.006048 0.000000 0.017556
#
#
# Mechanical properties :
#
#
# Convention : Reuss Voigt Hill
#
# Bulk Modulus (GPa) = 41.86576 101.58217 71.72397
# Shear Modulus (GPa) = 37.31199 58.40155 47.85677
#
# Velocity S-wave (km/s) = 3.65116 4.56793 4.13503
# Velocity P-wave (km/s) = 5.72124 8.00718 6.95872
#
# Compressibility (1/GPa) = 0.02388587
#
# Stress axis : x y z
#
# Youngs Moduli (GPa) = 48.80715 188.15804 85.46104
#
# Poissons Ratio (x) = 0.68131 0.21972
# Poissons Ratio (y) = 0.17673 0.05277
# Poissons Ratio (z) = 0.12548 0.11619
#
# Static dielectric constant tensor:
#      x y z
#    x 2.242860 0.000000 0.330820 
#    y 0.000000 1.335620 0.000000 
#    z 0.330820 0.000000 1.171710 
# 
# From -- ./inp_files/187660.got.cif
#   From: 2010.05.17/outbox.cif.g08.bks.cpg/sg15_94_cif.got.tgz:187660.got - 2010.06.03 18:47:42.
