data_PCOD9284309
_publ_section_title
;
Structure prediction by ZEFSAII (Michael W. Deem and Ramdas Pophale) SiO2 
 PCOD9284309
Probable space group: C 2/C
;
_chemical_formula_sum "Si O2"
_cell_formula_units_Z 48
_cell_length_a 25.848108
_cell_length_b 12.391710
_cell_length_c 14.109429
_cell_angle_alpha 90.000000
_cell_angle_beta 28.719352
_cell_angle_gamma 90.000000
_cell_volume 2171.604160
_symmetry_space_group_name_H-M "C 2/C"
_symmetry_group_IT_number 15
_symmetry_cell_setting 'monoclinic'
loop_
_space_group_symop_operation_xyz
x,y,z
-x,y,1/2-z
-x,-y,-z
x,-y,1/2+z
1/2+x,1/2+y,z
1/2-x,1/2+y,1/2-z
1/2-x,1/2-y,-z
1/2+x,1/2-y,1/2+z
loop_
_atom_site_type_symbol
_atom_site_label
_atom_site_fract_x
_atom_site_fract_y
_atom_site_fract_z
Si Si1 0.329501 0.476975 0.278987
Si Si2 0.766763 0.000194 0.679904
Si Si3 0.500000 0.197373 0.250000
Si Si4 0.203009 0.167462 0.498604
Si Si5 0.000000 0.089178 0.250000
Si Si6 0.972545 0.173548 0.093944
Si Si7 0.058819 0.601075 0.954733
O O1 0.248945 0.480112 0.320542
O O2 0.300151 0.440915 0.431542
O O3 0.383070 0.594236 0.194292
O O4 0.416907 0.384936 0.113321
O O5 0.686308 0.079969 0.756110
O O6 0.894808 0.020741 0.453205
O O7 0.738805 0.879405 0.688350
O O8 0.403334 0.276093 0.371563
O O9 0.477388 0.125577 0.379195
O O10 0.250000 0.250000 0.500000
O O11 0.035018 0.161808 0.281632
O O12 0.965760 0.291917 0.064854
O O13 0.000000 0.500000 0.000000
#
# Coordination Sequence:
#
# PCOD9284309 Si02
#       7
#     8   8   4   8   4   8   8
#     4  10  21  40  68  99 133 175 235 293 338 406
#     4  11  24  41  69 105 138 182 234 292 353 421
#     4  12  25  47  74  98 142 196 236 294 352 434
#     4  12  23  41  71 104 133 183 239 291 346 420
#     4  10  21  43  70  94 134 176 238 286 350 408
#     4  10  21  42  67  98 135 181 229 290 345 417
#     4  12  27  47  68 103 148 189 231 289 367 433
#
# _framework density 22.103476000000001
#
# number of rings (size 3 to 8) (size 9 to 14) (size 15 to 20)
#    0.000    1.000    3.333    3.500    2.333    1.333 
#    3.000    0.000    0.000    0.000    0.000    0.000 
#    0.000    0.000    0.000    0.000    0.000    0.000 
#
# Total GULP energy -133959.240679 kJ/mol
# GULP energy per Si atom -5581.635028 kJ/mol
# Density = 2.205317 g / cm^3
# Si number density = 22.103476 Si / 1000 Ang^3
#
#
#
# Elastic Constant Matrix: (Units=GPa)
#
#
# Indices 1 2 3 4 5 6 
#
# 1 169.2769 77.5977 22.2387 0.0000 7.0559 0.0000
# 2 77.5977 159.7143 20.2729 0.0000 -2.5927 0.0000
# 3 22.2387 20.2729 39.4834 0.0000 6.5593 0.0000
# 4 0.0000 0.0000 0.0000 14.9580 0.0000 3.1694
# 5 7.0559 -2.5927 6.5593 0.0000 27.5638 0.0000
# 6 0.0000 0.0000 0.0000 3.1694 0.0000 -2.1443
#
#
#
# Elastic Compliance Matrix: (Units=1/GPa)
#
#
# Indices 1 2 3 4 5 6 
#
# 1 0.007934 -0.003589 -0.002324 0.000000 -0.001815 0.000000
# 2 -0.003589 0.008382 -0.002672 0.000000 0.002343 0.000000
# 3 -0.002324 -0.002672 0.029101 0.000000 -0.006581 0.000000
# 4 0.000000 0.000000 0.000000 0.050910 0.000000 0.075246
# 5 -0.001815 0.002343 -0.006581 0.000000 0.038531 0.000000
# 6 0.000000 0.000000 0.000000 0.075246 0.000000 -0.355129
#
#
# Mechanical properties :
#
#
# Convention : Reuss Voigt Hill
#
# Bulk Modulus (GPa) = 35.40136 67.63257 51.51696
# Shear Modulus (GPa) = -25.81504 24.63317 -0.59094
#
# Velocity S-wave (km/s) = -3.42119 3.34196 -0.51762
# Velocity P-wave (km/s) = 0.66703 6.74953 4.79589
#
# Compressibility (1/GPa) = 0.02824750
#
# Stress axis : x y z
#
# Youngs Moduli (GPa) = 126.04371 119.30200 34.36277
#
# Poissons Ratio (x) = 0.42819 0.07987
# Poissons Ratio (y) = 0.45238 0.09180
# Poissons Ratio (z) = 0.29295 0.31872
#
# Static dielectric constant tensor:
#      x y z
#    x 1.864760 0.000000 0.016070 
#    y 0.000000 1.813470 0.000000 
#    z 0.016070 0.000000 1.892550 
# 
# From -- ./inp_files/152496.got.cif
#   From: 2010.05.17/outbox.cif.g08.bks.cpg/sg15_77_cif.got.tgz:152496.got - 2010.06.03 18:47:42.
