data_PCOD9284023
_publ_section_title
;
Structure prediction by ZEFSAII (Michael W. Deem and Ramdas Pophale) SiO2 
 PCOD9284023
Probable space group: C 2/C
;
_chemical_formula_sum "Si O2"
_cell_formula_units_Z 28
_cell_length_a 16.076714
_cell_length_b 6.948682
_cell_length_c 19.495466
_cell_angle_alpha 90.000000
_cell_angle_beta 149.626072
_cell_angle_gamma 90.000000
_cell_volume 1101.224396
_symmetry_space_group_name_H-M "C 2/C"
_symmetry_group_IT_number 15
_symmetry_cell_setting 'monoclinic'
loop_
_space_group_symop_operation_xyz
x,y,z
-x,y,1/2-z
-x,-y,-z
x,-y,1/2+z
1/2+x,1/2+y,z
1/2-x,1/2+y,1/2-z
1/2-x,1/2-y,-z
1/2+x,1/2-y,1/2+z
loop_
_atom_site_type_symbol
_atom_site_label
_atom_site_fract_x
_atom_site_fract_y
_atom_site_fract_z
Si Si1 0.555863 0.743134 0.861857
Si Si2 0.323163 0.764786 0.914649
Si Si3 0.500000 0.369924 0.750000
Si Si4 0.632887 0.031222 0.676921
O O1 0.500000 0.834571 0.750000
O O2 0.515801 0.518706 0.824592
O O3 0.468278 0.858171 0.859447
O O4 0.750000 0.750000 0.000000
O O5 0.280665 0.593269 0.831910
O O6 0.171867 0.763607 0.860380
O O7 0.315408 0.955800 0.860529
O O8 0.502084 0.793906 0.075353
#
# Coordination Sequence:
#
# PCOD9284023 Si02
#       4
#     8   8   4   8
#     4  10  21  40  66  90 125 169 210 261 320 379
#     4  11  25  41  68  93 133 169 219 267 323 385
#     4  10  22  40  66  96 126 170 212 270 314 390
#     4  11  24  45  63  98 130 175 214 269 321 385
#
# _framework density 25.426244000000001
#
# number of rings (size 3 to 8) (size 9 to 14) (size 15 to 20)
#    0.857    0.571    2.857    1.714    2.000    4.571 
#    0.000    0.000    0.000    0.000    0.000    0.000 
#    0.000    0.000    0.000    0.000    0.000    0.000 
#
# Total GULP energy -78254.103869 kJ/mol
# GULP energy per Si atom -5589.578848 kJ/mol
# Density = 2.536837 g / cm^3
# Si number density = 25.426244 Si / 1000 Ang^3
#
#
#
# Elastic Constant Matrix: (Units=GPa)
#
#
# Indices 1 2 3 4 5 6 
#
# 1 106.6075 20.7810 31.6222 0.0000 14.6783 0.0000
# 2 20.7810 61.6146 14.3884 0.0000 -2.9390 0.0000
# 3 31.6222 14.3884 88.5989 0.0000 4.9640 0.0000
# 4 0.0000 0.0000 0.0000 30.1598 0.0000 -8.5326
# 5 14.6783 -2.9390 4.9640 0.0000 38.1685 0.0000
# 6 0.0000 0.0000 0.0000 -8.5326 0.0000 56.8444
#
#
#
# Elastic Compliance Matrix: (Units=1/GPa)
#
#
# Indices 1 2 3 4 5 6 
#
# 1 0.011619 -0.003338 -0.003365 0.000000 -0.004288 0.000000
# 2 -0.003338 0.017934 -0.001884 0.000000 0.002910 0.000000
# 3 -0.003365 -0.001884 0.012823 0.000000 -0.000519 0.000000
# 4 0.000000 0.000000 0.000000 0.034627 0.000000 0.005198
# 5 -0.004288 0.002910 -0.000519 0.000000 0.028140 0.000000
# 6 0.000000 0.000000 0.000000 0.005198 0.000000 0.018372
#
#
# Mechanical properties :
#
#
# Convention : Reuss Voigt Hill
#
# Bulk Modulus (GPa) = 39.67779 43.37825 41.52802
# Shear Modulus (GPa) = 33.53672 37.70317 35.61994
#
# Velocity S-wave (km/s) = 3.63572 3.85495 3.74694
# Velocity P-wave (km/s) = 5.76745 6.07550 5.92348
#
# Compressibility (1/GPa) = 0.02520302
#
# Stress axis : x y z
#
# Youngs Moduli (GPa) = 86.06413 55.75875 77.98579
#
# Poissons Ratio (x) = 0.18610 0.26241
# Poissons Ratio (y) = 0.28725 0.14695
# Poissons Ratio (z) = 0.28959 0.10507
#
# Static dielectric constant tensor:
#      x y z
#    x 1.973660 0.000000 -0.065290 
#    y 0.000000 2.026860 0.000000 
#    z -0.065290 0.000000 2.072000 
# 
# From -- ./inp_files/45452.got.cif
#   From: 2010.05.17/outbox.cif.g08.bks.cpg/sg15_23_cif.got.tgz:45452.got - 2010.06.03 18:47:42.
