data_PCOD9284935
_publ_section_title
;
Structure prediction by ZEFSAII (Michael W. Deem and Ramdas Pophale) SiO2 
 PCOD9284935
Probable space group: C 2/C
;
_chemical_formula_sum "Si O2"
_cell_formula_units_Z 60
_cell_length_a 6.155952
_cell_length_b 15.678862
_cell_length_c 28.179590
_cell_angle_alpha 90.000000
_cell_angle_beta 75.582311
_cell_angle_gamma 90.000000
_cell_volume 2634.188801
_symmetry_space_group_name_H-M "C 2/C"
_symmetry_group_IT_number 15
_symmetry_cell_setting 'monoclinic'
loop_
_space_group_symop_operation_xyz
x,y,z
-x,y,1/2-z
-x,-y,-z
x,-y,1/2+z
1/2+x,1/2+y,z
1/2-x,1/2+y,1/2-z
1/2-x,1/2-y,-z
1/2+x,1/2-y,1/2+z
loop_
_atom_site_type_symbol
_atom_site_label
_atom_site_fract_x
_atom_site_fract_y
_atom_site_fract_z
Si Si1 0.896759 0.926969 0.606061
Si Si2 0.006420 0.506498 0.820763
Si Si3 0.701338 0.577570 0.615818
Si Si4 0.000000 0.646395 0.250000
Si Si5 0.241505 0.833141 0.334588
Si Si6 0.065732 0.189085 0.483997
Si Si7 0.140730 0.339793 0.063066
Si Si8 0.029346 0.173255 0.299362
O O1 0.664508 0.971899 0.630713
O O2 0.852884 0.877279 0.559890
O O3 0.972653 0.873809 0.649456
O O4 0.075814 0.002784 0.594652
O O5 0.215274 0.542997 0.837710
O O6 0.056210 0.423358 0.787570
O O7 0.859097 0.582939 0.805037
O O8 0.521523 0.650580 0.640918
O O9 0.915499 0.603768 0.572506
O O10 0.791538 0.700401 0.280735
O O11 0.338364 0.829127 0.382285
O O12 0.342212 0.747087 0.307444
O O13 0.250000 0.250000 0.500000
O O14 0.925627 0.252632 0.458328
O O15 0.887828 0.142159 0.528488
O O16 0.000000 0.125010 0.250000
#
# Coordination Sequence:
#
# PCOD9284935 Si02
#       8
#     8   8   8   4   8   8   8   8
#     4  10  22  43  66  99 133 170 222 273 338 392
#     4   9  21  39  66  93 134 179 216 271 338 394
#     4  10  21  42  67  94 131 178 215 277 330 398
#     4  10  22  42  64 100 138 166 230 276 328 404
#     4  10  21  41  65  96 138 172 221 271 334 398
#     4  11  23  41  66  99 133 177 221 277 334 399
#     4  10  22  41  64  96 133 172 223 271 337 390
#     4  11  23  40  68 101 132 175 219 276 333 398
#
# _framework density 22.777411000000001
#
# number of rings (size 3 to 8) (size 9 to 14) (size 15 to 20)
#    0.000    1.867    1.333    1.600    0.933    4.800 
#    7.200    9.333    1.467    0.000    0.000    0.000 
#    0.000    0.000    0.000    0.000    0.000    0.000 
#
# Total GULP energy -167062.052229 kJ/mol
# GULP energy per Si atom -5568.735074 kJ/mol
# Density = 2.272557 g / cm^3
# Si number density = 22.777411 Si / 1000 Ang^3
#
#
#
# Elastic Constant Matrix: (Units=GPa)
#
#
# Indices 1 2 3 4 5 6 
#
# 1 97.7953 38.0214 29.2509 0.0000 -25.6650 0.0000
# 2 38.0214 75.7247 41.6871 0.0000 -18.0663 0.0000
# 3 29.2509 41.6871 94.9678 0.0000 -16.7047 0.0000
# 4 0.0000 0.0000 0.0000 35.7335 0.0000 -1.8200
# 5 -25.6650 -18.0663 -16.7047 0.0000 34.6585 0.0000
# 6 0.0000 0.0000 0.0000 -1.8200 0.0000 9.4572
#
#
#
# Elastic Compliance Matrix: (Units=1/GPa)
#
#
# Indices 1 2 3 4 5 6 
#
# 1 0.014424 -0.004890 -0.000946 0.000000 0.007676 0.000000
# 2 -0.004890 0.020248 -0.006733 0.000000 0.003688 0.000000
# 3 -0.000946 -0.006733 0.014244 0.000000 0.002655 0.000000
# 4 0.000000 0.000000 0.000000 0.028262 0.000000 0.005439
# 5 0.007676 0.003688 0.002655 0.000000 0.037739 0.000000
# 6 0.000000 0.000000 0.000000 0.005439 0.000000 0.106786
#
#
# Mechanical properties :
#
#
# Convention : Reuss Voigt Hill
#
# Bulk Modulus (GPa) = 42.05703 54.04519 48.05111
# Shear Modulus (GPa) = 19.62577 26.60506 23.11542
#
# Velocity S-wave (km/s) = 2.93854 3.42138 3.18911
# Velocity P-wave (km/s) = 5.47885 6.27589 5.89087
#
# Compressibility (1/GPa) = 0.02377724
#
# Stress axis : x y z
#
# Youngs Moduli (GPa) = 69.32832 49.38877 70.20630
#
# Poissons Ratio (x) = 0.24152 0.06641
# Poissons Ratio (y) = 0.33903 0.47269
# Poissons Ratio (z) = 0.06558 0.33253
#
# Static dielectric constant tensor:
#      x y z
#    x 1.942950 0.000000 -0.021700 
#    y 0.000000 1.904390 0.000000 
#    z -0.021700 0.000000 1.923920 
# 
# From -- ./inp_files/305790.got.cif
#   From: 2010.05.17/outbox.cif.g08.bks.cpg/sg15_153_cif.got.tgz:305790.got - 2010.06.03 18:47:42.
