data_PCOD9284896
_publ_section_title
;
Structure prediction by ZEFSAII (Michael W. Deem and Ramdas Pophale) SiO2 
 PCOD9284896
Probable space group: C 2/C
;
_chemical_formula_sum "Si O2"
_cell_formula_units_Z 44
_cell_length_a 18.880619
_cell_length_b 8.095500
_cell_length_c 12.647193
_cell_angle_alpha 90.000000
_cell_angle_beta 111.776447
_cell_angle_gamma 90.000000
_cell_volume 1795.149797
_symmetry_space_group_name_H-M "C 2/C"
_symmetry_group_IT_number 15
_symmetry_cell_setting 'monoclinic'
loop_
_space_group_symop_operation_xyz
x,y,z
-x,y,1/2-z
-x,-y,-z
x,-y,1/2+z
1/2+x,1/2+y,z
1/2-x,1/2+y,1/2-z
1/2-x,1/2-y,-z
1/2+x,1/2-y,1/2+z
loop_
_atom_site_type_symbol
_atom_site_label
_atom_site_fract_x
_atom_site_fract_y
_atom_site_fract_z
Si Si1 0.781040 0.702338 0.661733
Si Si2 0.000000 0.533584 0.750000
Si Si3 0.022270 0.277800 0.479798
Si Si4 0.353487 0.565652 0.038056
Si Si5 0.609021 0.209106 0.416295
Si Si6 0.334157 0.001320 0.382949
O O1 0.719768 0.574384 0.579029
O O2 0.838113 0.778622 0.606806
O O3 0.729903 0.859965 0.663963
O O4 0.824317 0.624122 0.782479
O O5 0.003202 0.646818 0.647309
O O6 0.929032 0.407392 0.692480
O O7 0.070015 0.112502 0.482714
O O8 0.085930 0.403144 0.561443
O O9 0.955509 0.263633 0.528117
O O10 0.363680 0.390555 0.100748
O O11 0.672591 0.103859 0.512902
#
# Coordination Sequence:
#
# PCOD9284896 Si02
#       6
#     8   4   8   8   8   8
#     4  10  22  42  65  95 129 177 217 265 326 373
#     4  10  22  40  62  96 130 174 210 256 330 380
#     4  10  23  41  68  96 133 171 213 270 329 386
#     4  10  23  42  65  96 130 169 223 268 317 394
#     4  11  23  43  64 100 129 172 217 270 329 381
#     4  10  21  41  65  93 128 173 216 269 318 388
#
# _framework density 24.510489
#
# number of rings (size 3 to 8) (size 9 to 14) (size 15 to 20)
#    0.000    1.818    0.000    3.818    5.091    1.455 
#   13.091    0.000    0.000    0.000    0.000    0.000 
#    0.000    0.000    0.000    0.000    0.000    0.000 
#
# Total GULP energy -123221.471292 kJ/mol
# GULP energy per Si atom -5600.975968 kJ/mol
# Density = 2.445470 g / cm^3
# Si number density = 24.510489 Si / 1000 Ang^3
#
#
#
# Elastic Constant Matrix: (Units=GPa)
#
#
# Indices 1 2 3 4 5 6 
#
# 1 103.7910 29.0645 29.9586 0.0000 4.0677 0.0000
# 2 29.0645 109.4249 33.5882 0.0000 18.3323 0.0000
# 3 29.9586 33.5882 151.3445 0.0000 22.0392 0.0000
# 4 0.0000 0.0000 0.0000 31.6409 0.0000 0.8806
# 5 4.0677 18.3323 22.0392 0.0000 24.3100 0.0000
# 6 0.0000 0.0000 0.0000 0.8806 0.0000 30.0406
#
#
#
# Elastic Compliance Matrix: (Units=1/GPa)
#
#
# Indices 1 2 3 4 5 6 
#
# 1 0.010824 -0.002619 -0.001826 0.000000 0.001820 0.000000
# 2 -0.002619 0.011339 -0.000941 0.000000 -0.007260 0.000000
# 3 -0.001826 -0.000941 0.008099 0.000000 -0.006328 0.000000
# 4 0.000000 0.000000 0.000000 0.031630 0.000000 -0.000927
# 5 0.001820 -0.007260 -0.006328 0.000000 0.052042 0.000000
# 6 0.000000 0.000000 0.000000 -0.000927 0.000000 0.033315
#
#
# Mechanical properties :
#
#
# Convention : Reuss Voigt Hill
#
# Bulk Modulus (GPa) = 51.30902 61.08698 56.19800
# Shear Modulus (GPa) = 30.39140 35.32824 32.85982
#
# Velocity S-wave (km/s) = 3.52509 3.80063 3.66545
# Velocity P-wave (km/s) = 6.12758 6.65106 6.39468
#
# Compressibility (1/GPa) = 0.01948975
#
# Stress axis : x y z
#
# Youngs Moduli (GPa) = 92.38681 88.18739 123.46887
#
# Poissons Ratio (x) = 0.23099 0.22549
# Poissons Ratio (y) = 0.24199 0.11617
# Poissons Ratio (z) = 0.16873 0.08298
#
# Static dielectric constant tensor:
#      x y z
#    x 2.038340 0.000000 -0.040680 
#    y 0.000000 1.927670 0.000000 
#    z -0.040680 0.000000 1.916990 
# 
# From -- ./inp_files/110153.got.cif
#   From: 2010.05.17/outbox.cif.g08.bks.cpg/sg15_56_cif.got.tgz:110153.got - 2010.06.03 18:47:42.
