data_PCOD9284597
_publ_section_title
;
Structure prediction by ZEFSAII (Michael W. Deem and Ramdas Pophale) SiO2 
 PCOD9284597
Probable space group: C 2/C
;
_chemical_formula_sum "Si O2"
_cell_formula_units_Z 36
_cell_length_a 11.678854
_cell_length_b 27.511439
_cell_length_c 5.261065
_cell_angle_alpha 90.000000
_cell_angle_beta 101.662736
_cell_angle_gamma 90.000000
_cell_volume 1655.492141
_symmetry_space_group_name_H-M "C 2/C"
_symmetry_group_IT_number 15
_symmetry_cell_setting 'monoclinic'
loop_
_space_group_symop_operation_xyz
x,y,z
-x,y,1/2-z
-x,-y,-z
x,-y,1/2+z
1/2+x,1/2+y,z
1/2-x,1/2+y,1/2-z
1/2-x,1/2-y,-z
1/2+x,1/2-y,1/2+z
loop_
_atom_site_type_symbol
_atom_site_label
_atom_site_fract_x
_atom_site_fract_y
_atom_site_fract_z
Si Si1 0.133076 0.520703 0.038370
Si Si2 0.429648 0.238913 0.978868
Si Si3 0.718084 0.393604 0.908903
Si Si4 0.210452 0.170056 0.902509
Si Si5 0.500000 0.466440 0.750000
O O1 0.187447 0.510164 0.335979
O O2 0.161562 0.576167 0.986900
O O3 0.000000 0.500000 0.000000
O O4 0.500000 0.217798 0.250000
O O5 0.319936 0.204183 0.884084
O O6 0.500000 0.242829 0.750000
O O7 0.387361 0.291784 0.052486
O O8 0.733957 0.362888 0.659615
O O9 0.613548 0.431766 0.818081
O O10 0.686205 0.361464 0.140654
O O11 0.500000 0.500000 0.500000
#
# Coordination Sequence:
#
# PCOD9284597 Si02
#       5
#     8   8   8   8   4
#     4  10  21  41  62  90 130 184 214 271 345 402
#     4  11  24  47  72  98 148 182 223 286 363 412
#     4  12  24  43  69 102 138 176 244 286 336 426
#     4  11  26  44  69 109 136 181 234 288 339 422
#     4  12  26  44  70 100 140 184 234 298 354 402
#
# _framework density 21.745798000000001
#
# number of rings (size 3 to 8) (size 9 to 14) (size 15 to 20)
#    0.000    0.889    0.000    6.667    4.667    3.556 
#   24.000    0.000    0.000    0.000    0.000    0.000 
#    0.000    0.000    0.000    0.000    0.000    0.000 
#
# Total GULP energy -100582.815523 kJ/mol
# GULP energy per Si atom -5587.934196 kJ/mol
# Density = 2.169630 g / cm^3
# Si number density = 21.745798 Si / 1000 Ang^3
#
#
#
# Elastic Constant Matrix: (Units=GPa)
#
#
# Indices 1 2 3 4 5 6 
#
# 1 126.4308 67.7723 63.7375 0.0000 -17.6595 0.0000
# 2 67.7723 126.1728 64.2614 0.0000 -19.4934 0.0000
# 3 63.7375 64.2614 176.3652 0.0000 -51.7486 0.0000
# 4 0.0000 0.0000 0.0000 66.1900 0.0000 11.4357
# 5 -17.6595 -19.4934 -51.7486 0.0000 37.6617 0.0000
# 6 0.0000 0.0000 0.0000 11.4357 0.0000 -21.6224
#
#
#
# Elastic Compliance Matrix: (Units=1/GPa)
#
#
# Indices 1 2 3 4 5 6 
#
# 1 0.011904 -0.005165 -0.002625 0.000000 -0.000699 0.000000
# 2 -0.005165 0.011974 -0.002326 0.000000 0.000579 0.000000
# 3 -0.002625 -0.002326 0.011313 0.000000 0.013109 0.000000
# 4 0.000000 0.000000 0.000000 0.013843 0.000000 0.007321
# 5 -0.000699 0.000579 0.013109 0.000000 0.044537 0.000000
# 6 0.000000 0.000000 0.000000 0.007321 0.000000 -0.042376
#
#
# Mechanical properties :
#
#
# Convention : Reuss Voigt Hill
#
# Bulk Modulus (GPa) = 66.85283 91.16791 79.01037
# Shear Modulus (GPa) = 65.43266 31.99238 48.71252
#
# Velocity S-wave (km/s) = 5.49137 3.83978 4.73809
# Velocity P-wave (km/s) = 8.42712 7.85328 8.14526
#
# Compressibility (1/GPa) = 0.01495823
#
# Stress axis : x y z
#
# Youngs Moduli (GPa) = 84.00596 83.51171 88.39447
#
# Poissons Ratio (x) = 0.43134 0.23204
# Poissons Ratio (y) = 0.43389 0.20564
# Poissons Ratio (z) = 0.22052 0.19428
#
# Static dielectric constant tensor:
#      x y z
#    x 1.807040 0.000000 -0.004600 
#    y 0.000000 1.787090 0.000000 
#    z -0.004600 0.000000 1.777900 
# 
# From -- ./inp_files/4416.got.cif
#   From: 2010.05.17/outbox.cif.g08.bks.cpg/sg15_3_cif.got.tgz:4416.got - 2010.06.03 18:47:42.
