data_PCOD9284362
_publ_section_title
;
Structure prediction by ZEFSAII (Michael W. Deem and Ramdas Pophale) SiO2 
 PCOD9284362
Probable space group: C 2/C
;
_chemical_formula_sum "Si O2"
_cell_formula_units_Z 52
_cell_length_a 14.987564
_cell_length_b 13.302388
_cell_length_c 21.344425
_cell_angle_alpha 90.000000
_cell_angle_beta 150.632005
_cell_angle_gamma 90.000000
_cell_volume 2086.943342
_symmetry_space_group_name_H-M "C 2/C"
_symmetry_group_IT_number 15
_symmetry_cell_setting 'monoclinic'
loop_
_space_group_symop_operation_xyz
x,y,z
-x,y,1/2-z
-x,-y,-z
x,-y,1/2+z
1/2+x,1/2+y,z
1/2-x,1/2+y,1/2-z
1/2-x,1/2-y,-z
1/2+x,1/2-y,1/2+z
loop_
_atom_site_type_symbol
_atom_site_label
_atom_site_fract_x
_atom_site_fract_y
_atom_site_fract_z
Si Si1 0.500000 0.229603 0.250000
Si Si2 0.869263 0.884117 0.358091
Si Si3 0.541620 0.411048 0.944180
Si Si4 0.053540 0.404244 0.076189
Si Si5 0.137750 0.669631 0.212861
Si Si6 0.322928 0.620187 0.105977
Si Si7 0.736561 0.112058 0.567578
O O1 0.627329 0.168630 0.281765
O O2 0.621224 0.304411 0.366790
O O3 0.879564 0.885775 0.439445
O O4 0.674169 0.920183 0.211330
O O5 0.892396 0.773855 0.343430
O O6 0.014456 0.967763 0.423858
O O7 0.334988 0.369240 0.813071
O O8 0.654481 0.369708 0.954510
O O9 0.189784 0.353545 0.110194
O O10 0.000000 0.500000 0.000000
O O11 0.869889 0.347435 0.982717
O O12 0.954512 0.609795 0.083953
O O13 0.500000 0.661283 0.250000
O O14 0.317291 0.499175 0.114600
#
# Coordination Sequence:
#
# PCOD9284362 Si02
#       7
#     4   8   8   8   8   8   8
#     4  12  22  38  64 100 136 170 226 298 356 410
#     4  11  24  45  69 100 147 184 233 302 354 420
#     4  11  25  45  69 101 146 190 229 295 365 421
#     4  10  21  40  69  99 134 177 232 288 345 416
#     4  12  25  43  70 105 140 184 233 294 361 434
#     4  11  21  40  71 102 135 185 239 288 344 432
#     4  11  21  39  66 102 138 172 228 293 355 414
#
# _framework density 24.916823000000001
#
# number of rings (size 3 to 8) (size 9 to 14) (size 15 to 20)
#    0.000    0.923    2.308    6.923    0.000    3.077 
#    0.000    0.769    3.385    0.000    0.000    0.000 
#    0.000    0.000    0.000    0.000    0.000    0.000 
#
# Total GULP energy -145397.445037 kJ/mol
# GULP energy per Si atom -5592.209424 kJ/mol
# Density = 2.486011 g / cm^3
# Si number density = 24.916823 Si / 1000 Ang^3
#
#
#
# Elastic Constant Matrix: (Units=GPa)
#
#
# Indices 1 2 3 4 5 6 
#
# 1 133.4511 5.3772 16.8202 0.0003 0.3420 0.0001
# 2 5.3772 54.7043 10.9400 0.0000 -1.6926 0.0001
# 3 16.8202 10.9400 144.5113 0.0000 -7.1144 0.0005
# 4 0.0003 0.0000 0.0000 26.2701 0.0004 -4.2014
# 5 0.3420 -1.6926 -7.1144 0.0004 40.0439 0.0003
# 6 0.0001 0.0001 0.0005 -4.2014 0.0003 14.2672
#
#
#
# Elastic Compliance Matrix: (Units=1/GPa)
#
#
# Indices 1 2 3 4 5 6 
#
# 1 0.007625 -0.000586 -0.000855 0.000000 -0.000242 0.000000
# 2 -0.000586 0.018618 -0.001314 0.000000 0.000559 0.000000
# 3 -0.000855 -0.001314 0.007179 0.000000 0.001227 0.000000
# 4 0.000000 0.000000 0.000000 0.039947 0.000000 0.011764
# 5 -0.000242 0.000559 0.001227 0.000000 0.025216 -0.000001
# 6 0.000000 0.000000 0.000000 0.011764 -0.000001 0.073555
#
#
# Mechanical properties :
#
#
# Convention : Reuss Voigt Hill
#
# Bulk Modulus (GPa) = 35.82597 44.32685 40.07641
# Shear Modulus (GPa) = 26.74440 36.08484 31.41462
#
# Velocity S-wave (km/s) = 3.27975 3.80967 3.55460
# Velocity P-wave (km/s) = 5.36207 6.09754 5.74159
#
# Compressibility (1/GPa) = 0.02791271
#
# Stress axis : x y z
#
# Youngs Moduli (GPa) = 131.14080 53.71227 139.28981
#
# Poissons Ratio (x) = 0.03148 0.11911
# Poissons Ratio (y) = 0.07685 0.18299
# Poissons Ratio (z) = 0.11214 0.07056
#
# Static dielectric constant tensor:
#      x y z
#    x 1.976300 0.000000 -0.015920 
#    y 0.000000 2.092030 0.000000 
#    z -0.015920 0.000000 1.950370 
# 
# From -- ./inp_files/245046.got.cif
#   From: 2010.05.17/outbox.cif.g08.bks.cpg/sg15_123_cif.got.tgz:245046.got - 2010.06.03 18:47:42.
