data_PCOD9284325
_publ_section_title
;
Structure prediction by ZEFSAII (Michael W. Deem and Ramdas Pophale) SiO2 
 PCOD9284325
Probable space group: C 2/C
;
_chemical_formula_sum "Si O2"
_cell_formula_units_Z 64
_cell_length_a 10.896234
_cell_length_b 12.182358
_cell_length_c 19.637280
_cell_angle_alpha 90.000000
_cell_angle_beta 97.827422
_cell_angle_gamma 90.000000
_cell_volume 2582.401247
_symmetry_space_group_name_H-M "C 2/C"
_symmetry_group_IT_number 15
_symmetry_cell_setting 'monoclinic'
loop_
_space_group_symop_operation_xyz
x,y,z
-x,y,1/2-z
-x,-y,-z
x,-y,1/2+z
1/2+x,1/2+y,z
1/2-x,1/2+y,1/2-z
1/2-x,1/2-y,-z
1/2+x,1/2-y,1/2+z
loop_
_atom_site_type_symbol
_atom_site_label
_atom_site_fract_x
_atom_site_fract_y
_atom_site_fract_z
Si Si1 0.168503 0.447289 0.809613
Si Si2 0.248084 0.888284 0.340140
Si Si3 0.069789 0.617393 0.998810
Si Si4 0.952249 0.893326 0.820323
Si Si5 0.164025 0.745289 0.205814
Si Si6 0.977363 0.647997 0.655092
Si Si7 0.073278 0.265444 0.899763
Si Si8 0.191724 0.882861 0.889333
O O1 0.105144 0.566115 0.805545
O O2 0.317838 0.442242 0.824682
O O3 0.137082 0.369261 0.743196
O O4 0.115893 0.381189 0.870448
O O5 0.202525 0.828217 0.268074
O O6 0.393424 0.908214 0.355591
O O7 0.201918 0.009964 0.343590
O O8 0.203856 0.613591 0.045738
O O9 0.984265 0.705916 0.031967
O O10 0.000000 0.500000 0.000000
O O11 0.089415 0.655087 0.923139
O O12 0.960281 0.760776 0.813604
O O13 0.000000 0.933993 0.750000
O O14 0.045959 0.897564 0.892055
O O15 0.271891 0.716616 0.159615
O O16 0.041065 0.778034 0.155624
O O17 0.311848 0.683957 0.603325
#
# Coordination Sequence:
#
# PCOD9284325 Si02
#       8
#     8   8   8   8   8   8   8   8
#     4  11  21  42  69 102 141 182 238 299 365 446
#     4  11  21  40  68 103 134 189 238 292 373 428
#     4  11  22  45  71 101 140 188 252 302 351 439
#     4  12  26  49  66 105 149 182 239 308 379 455
#     4  10  21  42  66 102 141 182 238 303 364 445
#     4  12  24  43  75 103 137 193 244 292 367 433
#     4  10  21  40  69 104 142 183 246 299 358 438
#     4  11  24  44  68  97 146 183 231 306 364 430
#
# _framework density 24.783135000000001
#
# number of rings (size 3 to 8) (size 9 to 14) (size 15 to 20)
#    0.000    1.000    6.250    2.250    0.000    5.000 
#    6.750    0.625    0.000    0.000    0.000    0.000 
#    0.000    0.000    0.000    0.000    0.000    0.000 
#
# Total GULP energy -178777.473042 kJ/mol
# GULP energy per Si atom -5586.796033 kJ/mol
# Density = 2.472673 g / cm^3
# Si number density = 24.783135 Si / 1000 Ang^3
#
#
#
# Elastic Constant Matrix: (Units=GPa)
#
#
# Indices 1 2 3 4 5 6 
#
# 1 151.7621 33.4566 39.9632 0.0000 13.3179 0.0000
# 2 33.4566 84.0338 27.5514 0.0000 -1.2865 0.0000
# 3 39.9632 27.5514 116.8674 0.0000 -5.3342 0.0000
# 4 0.0000 0.0000 0.0000 21.4643 0.0000 -1.9544
# 5 13.3179 -1.2865 -5.3342 0.0000 44.2255 0.0000
# 6 0.0000 0.0000 0.0000 -1.9544 0.0000 41.2901
#
#
#
# Elastic Compliance Matrix: (Units=1/GPa)
#
#
# Indices 1 2 3 4 5 6 
#
# 1 0.007973 -0.002472 -0.002269 0.000000 -0.002746 0.000000
# 2 -0.002472 0.013664 -0.002336 0.000000 0.000860 0.000000
# 3 -0.002269 -0.002336 0.009966 0.000000 0.001817 0.000000
# 4 0.000000 0.000000 0.000000 0.046791 0.000000 0.002215
# 5 -0.002746 0.000860 0.001817 0.000000 0.023683 0.000000
# 6 0.000000 0.000000 0.000000 0.002215 0.000000 0.024324
#
#
# Mechanical properties :
#
#
# Convention : Reuss Voigt Hill
#
# Bulk Modulus (GPa) = 57.31563 61.62285 59.46924
# Shear Modulus (GPa) = 34.15987 38.17547 36.16767
#
# Velocity S-wave (km/s) = 3.71664 3.92903 3.82431
# Velocity P-wave (km/s) = 6.44942 6.74550 6.59912
#
# Compressibility (1/GPa) = 0.01744725
#
# Stress axis : x y z
#
# Youngs Moduli (GPa) = 125.42686 73.18758 100.33820
#
# Poissons Ratio (x) = 0.18095 0.22765
# Poissons Ratio (y) = 0.31011 0.23443
# Poissons Ratio (z) = 0.28457 0.17100
#
# Static dielectric constant tensor:
#      x y z
#    x 2.067340 0.000000 0.010050 
#    y 0.000000 2.033510 0.000000 
#    z 0.010050 0.000000 1.966740 
# 
# From -- ./inp_files/269751.got.cif
#   From: 2010.05.17/outbox.cif.g08.bks.cpg/sg15_135_cif.got.tgz:269751.got - 2010.06.03 18:47:42.
