data_PCOD9284691
_publ_section_title
;
Structure prediction by ZEFSAII (Michael W. Deem and Ramdas Pophale) SiO2 
 PCOD9284691
Probable space group: C 2/C
;
_chemical_formula_sum "Si O2"
_cell_formula_units_Z 60
_cell_length_a 16.860830
_cell_length_b 22.857837
_cell_length_c 8.782840
_cell_angle_alpha 90.000000
_cell_angle_beta 61.538710
_cell_angle_gamma 90.000000
_cell_volume 2975.820568
_symmetry_space_group_name_H-M "C 2/C"
_symmetry_group_IT_number 15
_symmetry_cell_setting 'monoclinic'
loop_
_space_group_symop_operation_xyz
x,y,z
-x,y,1/2-z
-x,-y,-z
x,-y,1/2+z
1/2+x,1/2+y,z
1/2-x,1/2+y,1/2-z
1/2-x,1/2-y,-z
1/2+x,1/2-y,1/2+z
loop_
_atom_site_type_symbol
_atom_site_label
_atom_site_fract_x
_atom_site_fract_y
_atom_site_fract_z
Si Si1 0.414814 0.131073 0.035900
Si Si2 0.218647 0.343726 0.598695
Si Si3 0.000000 0.571795 0.250000
Si Si4 0.307306 0.927808 0.399747
Si Si5 0.235339 0.198608 0.889957
Si Si6 0.633616 0.248165 0.987443
Si Si7 0.187902 0.540007 0.953706
Si Si8 0.462667 0.736104 0.449223
O O1 0.315948 0.136040 0.205758
O O2 0.477078 0.107204 0.115445
O O3 0.398030 0.090897 0.905922
O O4 0.444266 0.194616 0.955965
O O5 0.306308 0.303712 0.522241
O O6 0.137747 0.300358 0.615836
O O7 0.228955 0.400116 0.483607
O O8 0.910096 0.537678 0.376226
O O9 0.253265 0.866813 0.431363
O O10 0.321207 0.952621 0.217674
O O11 0.264446 0.980350 0.537963
O O12 0.309422 0.214391 0.695322
O O13 0.250000 0.250000 0.000000
O O14 0.132533 0.205727 0.928339
O O15 0.538818 0.268587 0.008511
O O16 0.500000 0.716256 0.250000
#
# Coordination Sequence:
#
# PCOD9284691 Si02
#       8
#     8   8   4   8   8   8   8   8
#     4  11  22  37  60  88 130 169 202 261 310 383
#     4  10  21  41  63  91 135 166 209 261 316 382
#     4  10  24  38  58  96 132 162 222 252 310 396
#     4  12  25  42  65  85 128 172 216 261 322 386
#     4  12  22  42  62  97 131 165 216 268 324 376
#     4  11  21  39  64  96 129 172 206 264 320 387
#     4  11  24  42  60  94 122 179 213 261 324 379
#     4  12  23  35  64  99 127 169 213 264 325 381
#
# _framework density 20.162503999999998
#
# number of rings (size 3 to 8) (size 9 to 14) (size 15 to 20)
#    0.000    0.800    5.333    3.200    1.867    2.133 
#    0.000    0.000    0.000    0.800    0.000    0.000 
#    0.000    0.000    0.000    0.000    0.000    0.000 
#
# Total GULP energy -167663.091210 kJ/mol
# GULP energy per Si atom -5588.769707 kJ/mol
# Density = 2.011661 g / cm^3
# Si number density = 20.162504 Si / 1000 Ang^3
#
#
#
# Elastic Constant Matrix: (Units=GPa)
#
#
# Indices 1 2 3 4 5 6 
#
# 1 129.1494 60.5536 19.8530 0.0000 11.2849 0.0000
# 2 60.5536 148.3294 24.9963 0.0000 17.6455 0.0000
# 3 19.8530 24.9963 70.0686 0.0000 20.5270 0.0000
# 4 0.0000 0.0000 0.0000 27.0090 0.0000 4.6768
# 5 11.2849 17.6455 20.5270 0.0000 28.7094 0.0000
# 6 0.0000 0.0000 0.0000 4.6768 0.0000 15.8721
#
#
#
# Elastic Compliance Matrix: (Units=1/GPa)
#
#
# Indices 1 2 3 4 5 6 
#
# 1 0.009717 -0.003677 -0.001245 0.000000 -0.000669 0.000000
# 2 -0.003677 0.008815 -0.001188 0.000000 -0.003123 0.000000
# 3 -0.001245 -0.001188 0.018584 0.000000 -0.012068 0.000000
# 4 0.000000 0.000000 0.000000 0.039015 0.000000 -0.011496
# 5 -0.000669 -0.003123 -0.012068 0.000000 0.045642 0.000000
# 6 0.000000 0.000000 0.000000 -0.011496 0.000000 0.066391
#
#
# Mechanical properties :
#
#
# Convention : Reuss Voigt Hill
#
# Bulk Modulus (GPa) = 40.16982 62.03924 51.10453
# Shear Modulus (GPa) = 23.95976 30.46105 27.21041
#
# Velocity S-wave (km/s) = 3.45096 3.89109 3.67761
# Velocity P-wave (km/s) = 5.98708 7.14310 6.59048
#
# Compressibility (1/GPa) = 0.02489431
#
# Stress axis : x y z
#
# Youngs Moduli (GPa) = 102.91156 113.44699 53.81103
#
# Poissons Ratio (x) = 0.41719 0.06701
# Poissons Ratio (y) = 0.37845 0.06391
# Poissons Ratio (z) = 0.12816 0.13474
#
# Static dielectric constant tensor:
#      x y z
#    x 1.751740 0.000000 0.037920 
#    y 0.000000 1.742240 0.000000 
#    z 0.037920 0.000000 1.784040 
# 
# From -- ./inp_files/51526.got.cif
#   From: 2010.05.17/outbox.cif.g08.bks.cpg/sg15_26_cif.got.tgz:51526.got - 2010.06.03 18:47:42.
