data_PCOD9284723
_publ_section_title
;
Structure prediction by ZEFSAII (Michael W. Deem and Ramdas Pophale) SiO2 
 PCOD9284723
Probable space group: C 2/C
;
_chemical_formula_sum "Si O2"
_cell_formula_units_Z 40
_cell_length_a 29.024071
_cell_length_b 13.028649
_cell_length_c 10.191098
_cell_angle_alpha 90.000000
_cell_angle_beta 27.752940
_cell_angle_gamma 90.000000
_cell_volume 1794.516926
_symmetry_space_group_name_H-M "C 2/C"
_symmetry_group_IT_number 15
_symmetry_cell_setting 'monoclinic'
loop_
_space_group_symop_operation_xyz
x,y,z
-x,y,1/2-z
-x,-y,-z
x,-y,1/2+z
1/2+x,1/2+y,z
1/2-x,1/2+y,1/2-z
1/2-x,1/2-y,-z
1/2+x,1/2-y,1/2+z
loop_
_atom_site_type_symbol
_atom_site_label
_atom_site_fract_x
_atom_site_fract_y
_atom_site_fract_z
Si Si1 0.167118 0.295818 0.909336
Si Si2 0.907832 0.804916 0.642989
Si Si3 0.500000 0.500000 0.500000
Si Si4 0.500000 0.650973 0.250000
Si Si5 0.430500 0.014749 0.301769
Si Si6 0.629775 0.766577 0.555964
O O1 0.156549 0.244162 0.080039
O O2 0.094709 0.226971 0.003595
O O3 0.126642 0.410751 0.020561
O O4 0.283086 0.290439 0.587074
O O5 0.871806 0.769553 0.591274
O O6 0.019489 0.760804 0.380625
O O7 0.921075 0.926781 0.615482
O O8 0.510942 0.579453 0.348644
O O9 0.500000 0.041928 0.250000
O O10 0.359044 0.111346 0.460060
O O11 0.500000 0.000000 0.000000
#
# Coordination Sequence:
#
# PCOD9284723 Si02
#       6
#     8   8   4   4   8   8
#     4  11  23  40  67 102 138 181 240 291 344 425
#     4  10  21  41  63  96 140 182 234 291 343 419
#     4  10  22  40  68  88 138 182 218 286 372 394
#     4  10  22  42  64  96 142 182 230 298 344 418
#     4  12  23  45  71  99 140 191 229 286 357 416
#     4  11  22  40  70 100 137 186 237 285 349 428
#
# _framework density 22.290120000000002
#
# number of rings (size 3 to 8) (size 9 to 14) (size 15 to 20)
#    0.000    1.200    5.000    1.800    0.000    4.800 
#    0.000   11.000    0.000    0.000    0.000    0.000 
#    0.000    0.000    0.000    0.000    0.000    0.000 
#
# Total GULP energy -111354.097622 kJ/mol
# GULP energy per Si atom -5567.704881 kJ/mol
# Density = 2.223939 g / cm^3
# Si number density = 22.290120 Si / 1000 Ang^3
#
#
#
# Elastic Constant Matrix: (Units=GPa)
#
#
# Indices 1 2 3 4 5 6 
#
# 1 84.2609 6.2707 31.4332 0.0000 1.8909 0.0000
# 2 6.2707 42.5879 11.6056 0.0000 -2.3925 0.0000
# 3 31.4332 11.6056 81.1923 0.0000 -25.1669 0.0000
# 4 0.0000 0.0000 0.0000 26.8017 0.0000 -4.3821
# 5 1.8909 -2.3925 -25.1669 0.0000 39.2770 0.0000
# 6 0.0000 0.0000 0.0000 -4.3821 0.0000 24.0045
#
#
#
# Elastic Compliance Matrix: (Units=1/GPa)
#
#
# Indices 1 2 3 4 5 6 
#
# 1 0.014761 -0.000481 -0.007331 0.000000 -0.005437 0.000000
# 2 -0.000481 0.024476 -0.003548 0.000000 -0.000759 0.000000
# 3 -0.007331 -0.003548 0.019596 0.000000 0.012693 0.000000
# 4 0.000000 0.000000 0.000000 0.038459 0.000000 0.007021
# 5 -0.005437 -0.000759 0.012693 0.000000 0.033809 0.000000
# 6 0.000000 0.000000 0.000000 0.007021 0.000000 0.042941
#
#
# Mechanical properties :
#
#
# Convention : Reuss Voigt Hill
#
# Bulk Modulus (GPa) = 27.69084 34.07336 30.88210
# Shear Modulus (GPa) = 23.94659 28.59876 26.27267
#
# Velocity S-wave (km/s) = 3.28123 3.58582 3.43690
# Velocity P-wave (km/s) = 5.17737 5.69769 5.44375
#
# Compressibility (1/GPa) = 0.03611303
#
# Stress axis : x y z
#
# Youngs Moduli (GPa) = 67.74818 40.85665 51.03040
#
# Poissons Ratio (x) = 0.01965 0.37411
# Poissons Ratio (y) = 0.03259 0.18104
# Poissons Ratio (z) = 0.49667 0.14494
#
# Static dielectric constant tensor:
#      x y z
#    x 1.897380 0.000000 -0.007700 
#    y 0.000000 1.832180 0.000000 
#    z -0.007700 0.000000 1.814350 
# 
# From -- ./inp_files/126380.got.cif
#   From: 2010.05.17/outbox.cif.g08.bks.cpg/sg15_64_cif.got.tgz:126380.got - 2010.06.03 18:47:42.
