data_PCOD9284552
_publ_section_title
;
Structure prediction by ZEFSAII (Michael W. Deem and Ramdas Pophale) SiO2 
 PCOD9284552
Probable space group: C 2/C
;
_chemical_formula_sum "Si O2"
_cell_formula_units_Z 44
_cell_length_a 8.788294
_cell_length_b 9.159068
_cell_length_c 27.140196
_cell_angle_alpha 90.000000
_cell_angle_beta 108.738039
_cell_angle_gamma 90.000000
_cell_volume 2068.795395
_symmetry_space_group_name_H-M "C 2/C"
_symmetry_group_IT_number 15
_symmetry_cell_setting 'monoclinic'
loop_
_space_group_symop_operation_xyz
x,y,z
-x,y,1/2-z
-x,-y,-z
x,-y,1/2+z
1/2+x,1/2+y,z
1/2-x,1/2+y,1/2-z
1/2-x,1/2-y,-z
1/2+x,1/2-y,1/2+z
loop_
_atom_site_type_symbol
_atom_site_label
_atom_site_fract_x
_atom_site_fract_y
_atom_site_fract_z
Si Si1 0.163663 0.823379 0.423016
Si Si2 0.650637 0.023200 0.479254
Si Si3 0.915747 0.564849 0.694441
Si Si4 0.500000 0.347731 0.750000
Si Si5 0.992680 0.682524 0.895154
Si Si6 0.067383 0.982357 0.655076
O O1 0.196058 0.938116 0.471219
O O2 0.127995 0.667928 0.443856
O O3 0.329728 0.821277 0.409684
O O4 0.023681 0.875199 0.372577
O O5 0.500000 0.000000 0.500000
O O6 0.638922 0.885273 0.441723
O O7 0.753819 0.489193 0.661106
O O8 0.000000 0.489126 0.750000
O O9 0.878227 0.727693 0.713284
O O10 0.023852 0.592265 0.657719
O O11 0.561028 0.446991 0.712252
O O12 0.017745 0.847451 0.880896
#
# Coordination Sequence:
#
# PCOD9284552 Si02
#       6
#     8   8   8   4   8   8
#     4  10  22  39  66  93 121 166 211 248 315 373
#     4   9  20  41  62  92 131 162 200 260 312 370
#     4   9  21  41  56  87 129 158 196 260 312 360
#     4   8  22  38  56  86 128 150 206 254 306 358
#     4  10  21  41  61  91 128 160 204 255 307 371
#     4  11  22  39  64  93 116 163 214 247 305 373
#
# _framework density 21.268415999999998
#
# number of rings (size 3 to 8) (size 9 to 14) (size 15 to 20)
#    0.545    1.818    0.000    1.091    2.545    6.545 
#    3.273   12.727    0.000    0.000    0.000    0.000 
#    0.000    0.000    0.000    0.000    0.000    0.000 
#
# Total GULP energy -122586.481603 kJ/mol
# GULP energy per Si atom -5572.112800 kJ/mol
# Density = 2.122001 g / cm^3
# Si number density = 21.268416 Si / 1000 Ang^3
#
#
#
# Elastic Constant Matrix: (Units=GPa)
#
#
# Indices 1 2 3 4 5 6 
#
# 1 41.2229 28.9094 26.1549 0.0000 -12.7226 0.0000
# 2 28.9094 54.6947 41.8546 0.0000 -6.2457 0.0000
# 3 26.1549 41.8546 89.2930 0.0000 -23.9995 0.0000
# 4 0.0000 0.0000 0.0000 -16.8358 0.0000 7.9543
# 5 -12.7226 -6.2457 -23.9995 0.0000 28.6453 0.0000
# 6 0.0000 0.0000 0.0000 7.9543 0.0000 24.5688
#
#
#
# Elastic Compliance Matrix: (Units=1/GPa)
#
#
# Indices 1 2 3 4 5 6 
#
# 1 0.044192 -0.023345 0.002459 0.000000 0.016598 0.000000
# 2 -0.023345 0.041789 -0.016891 0.000000 -0.015409 0.000000
# 3 0.002459 -0.016891 0.022844 0.000000 0.016548 0.000000
# 4 0.000000 0.000000 0.000000 -0.051517 0.000000 0.016679
# 5 0.016598 -0.015409 0.016548 0.000000 0.052786 0.000000
# 6 0.000000 0.000000 0.000000 0.016679 0.000000 0.035302
#
#
# Mechanical properties :
#
#
# Convention : Reuss Voigt Hill
#
# Bulk Modulus (GPa) = 30.05595 42.11651 36.08623
# Shear Modulus (GPa) = 21.54794 13.16179 17.35486
#
# Velocity S-wave (km/s) = 3.18644 2.49035 2.85966
# Velocity P-wave (km/s) = 5.26311 5.30231 5.28275
#
# Compressibility (1/GPa) = 0.03327129
#
# Stress axis : x y z
#
# Youngs Moduli (GPa) = 22.62837 23.92992 43.77508
#
# Poissons Ratio (x) = 0.55864 -0.10765
# Poissons Ratio (y) = 0.52825 0.73942
# Poissons Ratio (z) = -0.05565 0.40421
#
# Static dielectric constant tensor:
#      x y z
#    x 1.739430 0.000000 -0.009610 
#    y 0.000000 1.785220 0.000000 
#    z -0.009610 0.000000 1.818110 
# 
# From -- ./inp_files/306546.got.cif
#   From: 2010.05.17/outbox.cif.g08.bks.cpg/sg15_154_cif.got.tgz:306546.got - 2010.06.03 18:47:42.
