data_PCOD9284065
_publ_section_title
;
Structure prediction by ZEFSAII (Michael W. Deem and Ramdas Pophale) SiO2 
 PCOD9284065
Probable space group: C 2/C
;
_chemical_formula_sum "Si O2"
_cell_formula_units_Z 32
_cell_length_a 9.482803
_cell_length_b 18.416019
_cell_length_c 14.576277
_cell_angle_alpha 90.000000
_cell_angle_beta 150.544682
_cell_angle_gamma 90.000000
_cell_volume 1251.753322
_symmetry_space_group_name_H-M "C 2/C"
_symmetry_group_IT_number 15
_symmetry_cell_setting 'monoclinic'
loop_
_space_group_symop_operation_xyz
x,y,z
-x,y,1/2-z
-x,-y,-z
x,-y,1/2+z
1/2+x,1/2+y,z
1/2-x,1/2+y,1/2-z
1/2-x,1/2-y,-z
1/2+x,1/2-y,1/2+z
loop_
_atom_site_type_symbol
_atom_site_label
_atom_site_fract_x
_atom_site_fract_y
_atom_site_fract_z
Si Si1 0.327087 0.847954 0.399891
Si Si2 0.239307 0.234760 0.667464
Si Si3 0.309278 0.606571 0.396504
Si Si4 0.137872 0.007485 0.732770
O O1 0.363631 0.803524 0.327333
O O2 0.547988 0.803965 0.586952
O O3 0.367169 0.931861 0.396212
O O4 0.000000 0.841140 0.250000
O O5 0.500000 0.255616 0.750000
O O6 0.039296 0.170244 0.513732
O O7 0.421352 0.556837 0.546260
O O8 0.281196 0.554763 0.292453
O O9 0.000000 0.635191 0.250000
O O10 0.000000 0.981169 0.750000
#
# Coordination Sequence:
#
# PCOD9284065 Si02
#       4
#     8   8   8   8
#     4  10  21  40  66  94 125 165 212 261 318 381
#     4  11  23  41  65  94 129 166 209 264 319 376
#     4  10  22  41  65  93 129 172 213 261 319 381
#     4   9  21  40  64  94 129 167 214 265 317 379
#
# _framework density 25.564145
#
# number of rings (size 3 to 8) (size 9 to 14) (size 15 to 20)
#    0.000    2.000    0.000    2.250    0.000   14.000 
#    0.000    8.750    0.000    6.000    0.000    0.000 
#    0.000    0.000    0.000    0.000    0.000    0.000 
#
# Total GULP energy -89615.815607 kJ/mol
# GULP energy per Si atom -5600.988475 kJ/mol
# Density = 2.550596 g / cm^3
# Si number density = 25.564145 Si / 1000 Ang^3
#
#
#
# Elastic Constant Matrix: (Units=GPa)
#
#
# Indices 1 2 3 4 5 6 
#
# 1 160.7028 57.6853 41.0009 0.0232 -3.1359 0.0064
# 2 57.6853 125.4924 45.1550 -0.0100 12.8943 0.0270
# 3 41.0009 45.1550 90.6330 -0.0226 14.1499 -0.0285
# 4 0.0232 -0.0100 -0.0226 38.9573 -0.0075 6.7845
# 5 -3.1359 12.8943 14.1499 -0.0075 49.9968 -0.0177
# 6 0.0064 0.0270 -0.0285 6.7845 -0.0177 -5.6906
#
#
#
# Elastic Compliance Matrix: (Units=1/GPa)
#
#
# Indices 1 2 3 4 5 6 
#
# 1 0.007948 -0.002986 -0.002413 -0.000006 0.001951 -0.000006
# 2 -0.002986 0.010899 -0.003778 -0.000009 -0.001929 0.000063
# 3 -0.002413 -0.003778 0.014520 0.000019 -0.003286 -0.000061
# 4 -0.000006 -0.000009 0.000019 0.021256 0.000009 0.025342
# 5 0.001951 -0.001929 -0.003286 0.000009 0.021551 -0.000047
# 6 -0.000006 0.000063 -0.000061 0.025342 -0.000047 -0.145514
#
#
# Mechanical properties :
#
#
# Convention : Reuss Voigt Hill
#
# Bulk Modulus (GPa) = 66.60435 73.83452 70.21943
# Shear Modulus (GPa) = -108.73790 32.18516 -38.27637
#
# Velocity S-wave (km/s) = -6.52899 3.55208 -3.87365
# Velocity P-wave (km/s) = 5.54315 6.76519 2.74238
#
# Compressibility (1/GPa) = 0.01501403
#
# Stress axis : x y z
#
# Youngs Moduli (GPa) = 125.81624 91.75377 68.86912
#
# Poissons Ratio (x) = 0.27397 0.16616
# Poissons Ratio (y) = 0.37568 0.26019
# Poissons Ratio (z) = 0.30355 0.34665
#
# Static dielectric constant tensor:
#      x y z
#    x 1.926510 -0.000010 -0.101980 
#    y -0.000010 1.993170 -0.000070 
#    z -0.101980 -0.000070 2.192910 
# 
# From -- ./inp_files/137666.got.cif
#   From: 2010.05.17/outbox.cif.g08.bks.cpg/sg15_69_cif.got.tgz:137666.got - 2010.06.03 18:47:42.
