data_PCOD9284460
_publ_section_title
;
Structure prediction by ZEFSAII (Michael W. Deem and Ramdas Pophale) SiO2 
 PCOD9284460
Probable space group: C 2/C
;
_chemical_formula_sum "Si O2"
_cell_formula_units_Z 56
_cell_length_a 8.226268
_cell_length_b 23.273459
_cell_length_c 13.362037
_cell_angle_alpha 90.000000
_cell_angle_beta 61.142991
_cell_angle_gamma 90.000000
_cell_volume 2240.550519
_symmetry_space_group_name_H-M "C 2/C"
_symmetry_group_IT_number 15
_symmetry_cell_setting 'monoclinic'
loop_
_space_group_symop_operation_xyz
x,y,z
-x,y,1/2-z
-x,-y,-z
x,-y,1/2+z
1/2+x,1/2+y,z
1/2-x,1/2+y,1/2-z
1/2-x,1/2-y,-z
1/2+x,1/2-y,1/2+z
loop_
_atom_site_type_symbol
_atom_site_label
_atom_site_fract_x
_atom_site_fract_y
_atom_site_fract_z
Si Si1 0.584096 0.375177 0.823638
Si Si2 0.117545 0.617106 0.004095
Si Si3 0.493742 0.568012 0.530495
Si Si4 0.788212 0.758848 0.654813
Si Si5 0.164523 0.596536 0.773886
Si Si6 0.382548 0.963609 0.684614
Si Si7 0.469436 0.760567 0.596240
O O1 0.500000 0.347628 0.750000
O O2 0.718931 0.328072 0.830212
O O3 0.687303 0.433202 0.760510
O O4 0.437590 0.396266 0.948659
O O5 0.304595 0.591830 0.998015
O O6 0.165009 0.632243 0.875305
O O7 0.009749 0.671151 0.082957
O O8 0.973769 0.565604 0.062509
O O9 0.500000 0.500000 0.500000
O O10 0.354131 0.587153 0.658109
O O11 0.634158 0.737788 0.620471
O O12 0.716839 0.741290 0.788417
O O13 0.982781 0.754387 0.533995
O O14 0.122498 0.531358 0.820516
O O15 0.000000 0.615926 0.750000
O O16 0.500000 0.949843 0.750000
#
# Coordination Sequence:
#
# PCOD9284460 Si02
#       7
#     8   8   8   8   8   8   8
#     4  12  25  39  68  97 135 173 219 274 338 398
#     4  12  23  41  69  95 128 180 222 274 329 402
#     4  12  24  41  62  95 135 175 226 273 323 399
#     4  10  21  43  65 103 124 167 223 282 340 399
#     4  11  26  40  58  95 136 177 219 272 333 390
#     4  11  20  42  65  90 125 177 227 266 317 399
#     4  10  21  40  73  93 130 167 224 282 336 404
#
# _framework density 24.993856000000001
#
# number of rings (size 3 to 8) (size 9 to 14) (size 15 to 20)
#    0.000    0.857    5.714    1.714    4.000    1.143 
#    5.143    1.429    0.000    0.000    0.000    0.000 
#    0.000    0.000    0.000    0.000    0.000    0.000 
#
# Total GULP energy -156301.168945 kJ/mol
# GULP energy per Si atom -5582.184605 kJ/mol
# Density = 2.493697 g / cm^3
# Si number density = 24.993856 Si / 1000 Ang^3
#
#
#
# Elastic Constant Matrix: (Units=GPa)
#
#
# Indices 1 2 3 4 5 6 
#
# 1 30.7884 12.1553 15.7857 0.0000 -3.3110 0.0000
# 2 12.1553 44.9173 26.6547 0.0000 3.4492 0.0000
# 3 15.7857 26.6547 236.3694 0.0000 -24.3328 0.0000
# 4 0.0000 0.0000 0.0000 40.7994 0.0000 -1.8369
# 5 -3.3110 3.4492 -24.3328 0.0000 21.5094 0.0000
# 6 0.0000 0.0000 0.0000 -1.8369 0.0000 16.9355
#
#
#
# Elastic Compliance Matrix: (Units=1/GPa)
#
#
# Indices 1 2 3 4 5 6 
#
# 1 0.037604 -0.010298 -0.000661 0.000000 0.006692 0.000000
# 2 -0.010298 0.027887 -0.003487 0.000000 -0.010001 0.000000
# 3 -0.000661 -0.003487 0.005337 0.000000 0.006494 0.000000
# 4 0.000000 0.000000 0.000000 0.024630 0.000000 0.002671
# 5 0.006692 -0.010001 0.006494 0.000000 0.056472 0.000000
# 6 0.000000 0.000000 0.000000 0.002671 0.000000 0.059337
#
#
# Mechanical properties :
#
#
# Convention : Reuss Voigt Hill
#
# Bulk Modulus (GPa) = 23.84566 46.80741 35.32654
# Shear Modulus (GPa) = 19.67445 33.01414 26.34430
#
# Velocity S-wave (km/s) = 2.80870 3.63835 3.25011
# Velocity P-wave (km/s) = 4.48104 6.03476 5.31498
#
# Compressibility (1/GPa) = 0.04193634
#
# Stress axis : x y z
#
# Youngs Moduli (GPa) = 26.59298 35.85921 187.38700
#
# Poissons Ratio (x) = 0.36927 0.12391
# Poissons Ratio (y) = 0.27385 0.65334
# Poissons Ratio (z) = 0.01758 0.12503
#
# Static dielectric constant tensor:
#      x y z
#    x 1.961890 0.000000 0.020060 
#    y 0.000000 2.020610 0.000000 
#    z 0.020060 0.000000 2.072810 
# 
# From -- ./inp_files/82482.got.cif
#   From: 2010.05.17/outbox.cif.g08.bks.cpg/sg15_42_cif.got.tgz:82482.got - 2010.06.03 18:47:42.
