data_PCOD9284413
_publ_section_title
;
Structure prediction by ZEFSAII (Michael W. Deem and Ramdas Pophale) SiO2 
 PCOD9284413
Probable space group: C 2/C
;
_chemical_formula_sum "Si O2"
_cell_formula_units_Z 56
_cell_length_a 17.778311
_cell_length_b 7.838995
_cell_length_c 25.254143
_cell_angle_alpha 90.000000
_cell_angle_beta 141.555084
_cell_angle_gamma 90.000000
_cell_volume 2188.304050
_symmetry_space_group_name_H-M "C 2/C"
_symmetry_group_IT_number 15
_symmetry_cell_setting 'monoclinic'
loop_
_space_group_symop_operation_xyz
x,y,z
-x,y,1/2-z
-x,-y,-z
x,-y,1/2+z
1/2+x,1/2+y,z
1/2-x,1/2+y,1/2-z
1/2-x,1/2-y,-z
1/2+x,1/2-y,1/2+z
loop_
_atom_site_type_symbol
_atom_site_label
_atom_site_fract_x
_atom_site_fract_y
_atom_site_fract_z
Si Si1 0.482452 0.935644 0.797863
Si Si2 0.326379 0.911013 0.021240
Si Si3 0.909176 0.894838 0.098460
Si Si4 0.131560 0.098101 0.235572
Si Si5 0.266070 0.460407 0.318208
Si Si6 0.992025 0.219993 0.960970
Si Si7 0.339107 0.015143 0.909753
O O1 0.500000 0.015086 0.750000
O O2 0.549279 0.755234 0.840111
O O3 0.339136 0.909573 0.725010
O O4 0.552837 0.049795 0.879692
O O5 0.230932 0.063916 0.976555
O O6 0.354314 0.917956 0.974297
O O7 0.250000 0.750000 0.000000
O O8 0.989714 0.060820 0.157552
O O9 0.949178 0.839208 0.061374
O O10 0.180420 0.016899 0.208093
O O11 0.199557 0.993447 0.318900
O O12 0.184618 0.288023 0.269419
O O13 0.386242 0.414180 0.419038
O O14 0.911561 0.393553 0.908740
O O15 0.099364 0.299265 0.055556
#
# Coordination Sequence:
#
# PCOD9284413 Si02
#       7
#     8   8   8   8   8   8   8
#     4  12  27  43  70  98 142 184 240 295 358 427
#     4  12  28  46  71 101 148 188 236 298 367 435
#     4  11  24  48  66 103 141 185 233 293 361 428
#     4  10  22  39  73  97 139 181 236 289 350 422
#     4  10  21  43  64 103 135 179 230 293 344 411
#     4   9  20  40  70  96 137 178 234 288 341 420
#     4  10  21  40  71 101 134 189 234 283 356 425
#
# _framework density 25.590596000000001
#
# number of rings (size 3 to 8) (size 9 to 14) (size 15 to 20)
#    0.000    1.429    1.429    3.857    8.000    0.000 
#    0.000    0.714    0.000    0.000    0.000    0.000 
#    0.000    0.000    0.000    0.000    0.000    0.000 
#
# Total GULP energy -156595.436862 kJ/mol
# GULP energy per Si atom -5592.694174 kJ/mol
# Density = 2.553235 g / cm^3
# Si number density = 25.590596 Si / 1000 Ang^3
#
#
#
# Elastic Constant Matrix: (Units=GPa)
#
#
# Indices 1 2 3 4 5 6 
#
# 1 58.5384 -12.1752 40.3149 0.0000 6.8630 0.0000
# 2 -12.1752 94.0172 5.3477 0.0000 6.5989 0.0000
# 3 40.3149 5.3477 129.6555 0.0000 27.6376 0.0000
# 4 0.0000 0.0000 0.0000 24.3645 0.0000 10.6458
# 5 6.8630 6.5989 27.6376 0.0000 40.2655 0.0000
# 6 0.0000 0.0000 0.0000 10.6458 0.0000 5.9418
#
#
#
# Elastic Compliance Matrix: (Units=1/GPa)
#
#
# Indices 1 2 3 4 5 6 
#
# 1 0.022760 0.003322 -0.007346 0.000000 0.000618 0.000001
# 2 0.003322 0.011246 -0.001152 0.000000 -0.001619 0.000000
# 3 -0.007346 -0.001152 0.011406 0.000000 -0.006388 0.000000
# 4 0.000000 0.000000 0.000000 0.189011 0.000000 -0.338646
# 5 0.000618 -0.001619 -0.006388 0.000000 0.029380 0.000000
# 6 0.000001 0.000000 0.000000 -0.338646 0.000000 0.775041
#
#
# Mechanical properties :
#
#
# Convention : Reuss Voigt Hill
#
# Bulk Modulus (GPa) = 28.52200 38.79842 33.66021
# Shear Modulus (GPa) = 4.71306 30.69593 17.70449
#
# Velocity S-wave (km/s) = 1.35857 3.46714 2.63313
# Velocity P-wave (km/s) = 3.69197 5.58768 4.73565
#
# Compressibility (1/GPa) = 0.03506066
#
# Stress axis : x y z
#
# Youngs Moduli (GPa) = 43.93619 88.92317 87.67255
#
# Poissons Ratio (x) = -0.29539 0.64403
# Poissons Ratio (y) = -0.14595 0.10097
# Poissons Ratio (z) = 0.32275 0.10241
#
# Static dielectric constant tensor:
#      x y z
#    x 2.001440 0.000000 0.024790 
#    y 0.000000 2.126670 0.000000 
#    z 0.024790 0.000000 2.019990 
# 
# From -- ./inp_files/298572.got.cif
#   From: 2010.05.17/outbox.cif.g08.bks.cpg/sg15_150_cif.got.tgz:298572.got - 2010.06.03 18:47:42.
