data_PCOD9284320
_publ_section_title
;
Structure prediction by ZEFSAII (Michael W. Deem and Ramdas Pophale) SiO2 
 PCOD9284320
Probable space group: C 2/C
;
_chemical_formula_sum "Si O2"
_cell_formula_units_Z 56
_cell_length_a 21.972018
_cell_length_b 13.560363
_cell_length_c 14.238593
_cell_angle_alpha 90.000000
_cell_angle_beta 31.096964
_cell_angle_gamma 90.000000
_cell_volume 2191.131975
_symmetry_space_group_name_H-M "C 2/C"
_symmetry_group_IT_number 15
_symmetry_cell_setting 'monoclinic'
loop_
_space_group_symop_operation_xyz
x,y,z
-x,y,1/2-z
-x,-y,-z
x,-y,1/2+z
1/2+x,1/2+y,z
1/2-x,1/2+y,1/2-z
1/2-x,1/2-y,-z
1/2+x,1/2-y,1/2+z
loop_
_atom_site_type_symbol
_atom_site_label
_atom_site_fract_x
_atom_site_fract_y
_atom_site_fract_z
Si Si1 0.561401 0.304692 0.755620
Si Si2 0.246152 0.046055 0.401899
Si Si3 0.803994 0.633238 0.703984
Si Si4 0.225677 0.672092 0.409032
Si Si5 0.945268 0.692741 0.073358
Si Si6 0.862856 0.528175 0.449026
Si Si7 0.610877 0.288627 0.165727
O O1 0.500000 0.358800 0.750000
O O2 0.652524 0.360914 0.700958
O O3 0.640938 0.221883 0.598711
O O4 0.470262 0.248680 0.943305
O O5 0.333697 0.122779 0.234635
O O6 0.307971 0.019909 0.418752
O O7 0.134145 0.108696 0.582423
O O8 0.232710 0.949433 0.355747
O O9 0.765720 0.742407 0.785024
O O10 0.805827 0.611396 0.590927
O O11 0.939366 0.626549 0.558978
O O12 0.161331 0.573196 0.464439
O O13 0.938645 0.775246 0.163984
O O14 0.000000 0.539513 0.250000
O O15 0.500000 0.244436 0.250000
O O16 0.750000 0.250000 0.000000
#
# Coordination Sequence:
#
# PCOD9284320 Si02
#       7
#     8   8   8   8   8   8   8
#     4  10  21  40  69 101 147 197 244 312 397 464
#     4  11  24  43  67 114 150 193 264 322 394 472
#     4  11  25  44  72 108 155 197 259 329 393 471
#     4  10  24  44  67 112 147 190 258 317 389 475
#     4  10  22  41  71 112 149 197 263 322 390 473
#     4  12  25  44  76 105 147 203 259 329 387 455
#     4  10  25  47  76 115 163 210 258 331 399 476
#
# _framework density 25.557566000000001
#
# number of rings (size 3 to 8) (size 9 to 14) (size 15 to 20)
#    0.000    1.429    1.429    3.429    8.000    3.429 
#    7.714    3.571    0.000    9.429    0.000    0.000 
#    0.000    0.000    0.000    0.000    0.000    0.000 
#
# Total GULP energy -156543.040582 kJ/mol
# GULP energy per Si atom -5590.822878 kJ/mol
# Density = 2.549940 g / cm^3
# Si number density = 25.557566 Si / 1000 Ang^3
#
#
#
# Elastic Constant Matrix: (Units=GPa)
#
#
# Indices 1 2 3 4 5 6 
#
# 1 104.9899 31.5472 57.5393 0.0000 20.7663 0.0000
# 2 31.5472 126.6873 66.6549 0.0000 11.6582 0.0000
# 3 57.5393 66.6549 142.0275 0.0000 20.8669 0.0000
# 4 0.0000 0.0000 0.0000 40.4363 0.0000 -2.5766
# 5 20.7663 11.6582 20.8669 0.0000 57.8513 0.0000
# 6 0.0000 0.0000 0.0000 -2.5766 0.0000 18.4572
#
#
#
# Elastic Compliance Matrix: (Units=1/GPa)
#
#
# Indices 1 2 3 4 5 6 
#
# 1 0.012701 -0.000549 -0.004471 0.000000 -0.002836 0.000000
# 2 -0.000549 0.010512 -0.004677 0.000000 -0.000234 0.000000
# 3 -0.004471 -0.004677 0.011270 0.000000 -0.001518 0.000000
# 4 0.000000 0.000000 0.000000 0.024952 0.000000 0.003483
# 5 -0.002836 -0.000234 -0.001518 0.000000 0.018898 0.000000
# 6 0.000000 0.000000 0.000000 0.003483 0.000000 0.054666
#
#
# Mechanical properties :
#
#
# Convention : Reuss Voigt Hill
#
# Bulk Modulus (GPa) = 66.27197 76.13196 71.20196
# Shear Modulus (GPa) = 31.76148 37.87984 34.82066
#
# Velocity S-wave (km/s) = 3.52908 3.85403 3.69513
# Velocity P-wave (km/s) = 6.52630 7.04683 6.79156
#
# Compressibility (1/GPa) = 0.01508934
#
# Stress axis : x y z
#
# Youngs Moduli (GPa) = 78.73360 95.12648 88.73147
#
# Poissons Ratio (x) = 0.05226 0.39673
# Poissons Ratio (y) = 0.04326 0.41495
# Poissons Ratio (z) = 0.35202 0.44486
#
# Static dielectric constant tensor:
#      x y z
#    x 2.150090 0.000000 -0.055260 
#    y 0.000000 2.034650 0.000000 
#    z -0.055260 0.000000 1.985430 
# 
# From -- ./inp_files/173781.got.cif
#   From: 2010.05.17/outbox.cif.g08.bks.cpg/sg15_87_cif.got.tgz:173781.got - 2010.06.03 18:47:42.
