data_PCOD9284199
_publ_section_title
;
Structure prediction by ZEFSAII (Michael W. Deem and Ramdas Pophale) SiO2 
 PCOD9284199
Probable space group: C 2/C
;
_chemical_formula_sum "Si O2"
_cell_formula_units_Z 64
_cell_length_a 9.436182
_cell_length_b 23.186906
_cell_length_c 13.918598
_cell_angle_alpha 90.000000
_cell_angle_beta 80.900471
_cell_angle_gamma 90.000000
_cell_volume 3007.006516
_symmetry_space_group_name_H-M "C 2/C"
_symmetry_group_IT_number 15
_symmetry_cell_setting 'monoclinic'
loop_
_space_group_symop_operation_xyz
x,y,z
-x,y,1/2-z
-x,-y,-z
x,-y,1/2+z
1/2+x,1/2+y,z
1/2-x,1/2+y,1/2-z
1/2-x,1/2-y,-z
1/2+x,1/2-y,1/2+z
loop_
_atom_site_type_symbol
_atom_site_label
_atom_site_fract_x
_atom_site_fract_y
_atom_site_fract_z
Si Si1 0.734852 0.183081 0.983444
Si Si2 0.332092 0.842648 0.790719
Si Si3 0.646379 0.465367 0.466798
Si Si4 0.877765 0.461631 0.823554
Si Si5 0.020141 0.862636 0.355127
Si Si6 0.575144 0.179400 0.545475
Si Si7 0.287732 0.250478 0.148471
Si Si8 0.408295 0.943666 0.539194
O O1 0.595239 0.179724 0.932600
O O2 0.868522 0.152463 0.919949
O O3 0.750000 0.250000 0.000000
O O4 0.709449 0.160956 0.093745
O O5 0.500000 0.829629 0.750000
O O6 0.304462 0.910074 0.771221
O O7 0.252574 0.794350 0.736565
O O8 0.500000 0.500000 0.500000
O O9 0.758047 0.500353 0.386724
O O10 0.602452 0.406273 0.417595
O O11 0.740126 0.460440 0.555567
O O12 0.000000 0.495747 0.750000
O O13 0.986532 0.427635 0.884607
O O14 0.104016 0.801902 0.335150
O O15 0.000000 0.887322 0.250000
O O16 0.635899 0.211753 0.443054
O O17 0.652215 0.214964 0.620610
O O18 0.602123 0.111223 0.530091
O O19 0.500000 0.000000 0.500000
#
# Coordination Sequence:
#
# PCOD9284199 Si02
#       8
#     8   8   8   8   8   8   8   8
#     4  12  22  39  68  98 132 188 230 274 355 437
#     4  11  19  38  68 101 132 176 237 286 349 428
#     4  11  25  45  67 100 139 185 238 302 368 426
#     4  10  21  41  70  98 131 181 238 290 350 433
#     4  12  26  45  66  98 145 188 234 295 364 424
#     4  11  21  40  67 100 138 179 232 290 358 421
#     4  11  22  40  69 100 141 179 226 300 361 421
#     4  10  21  40  67  96 129 182 235 285 349 423
#
# _framework density 21.283626000000002
#
# number of rings (size 3 to 8) (size 9 to 14) (size 15 to 20)
#    0.000    1.000    5.000    2.625    1.750    1.000 
#    2.250    2.500    0.000    4.500    0.000    0.000 
#    0.000    0.000    0.000    0.000    0.000    0.000 
#
# Total GULP energy -178258.399682 kJ/mol
# GULP energy per Si atom -5570.574990 kJ/mol
# Density = 2.123518 g / cm^3
# Si number density = 21.283626 Si / 1000 Ang^3
#
#
#
# Elastic Constant Matrix: (Units=GPa)
#
#
# Indices 1 2 3 4 5 6 
#
# 1 167.5162 47.4697 47.6011 0.0000 0.2973 0.0000
# 2 47.4697 107.7867 21.0383 0.0000 -2.6745 0.0000
# 3 47.6011 21.0383 78.7638 0.0000 -9.1686 0.0000
# 4 0.0000 0.0000 0.0000 32.8410 0.0000 2.4019
# 5 0.2973 -2.6745 -9.1686 0.0000 33.4058 0.0000
# 6 0.0000 0.0000 0.0000 2.4019 0.0000 44.7238
#
#
#
# Elastic Compliance Matrix: (Units=1/GPa)
#
#
# Indices 1 2 3 4 5 6 
#
# 1 0.007946 -0.002706 -0.004249 0.000000 -0.001454 0.000000
# 2 -0.002706 0.010710 -0.001159 0.000000 0.000563 0.000000
# 3 -0.004249 -0.001159 0.016081 0.000000 0.004359 0.000000
# 4 0.000000 0.000000 0.000000 0.030570 0.000000 -0.001642
# 5 -0.001454 0.000563 0.004359 0.000000 0.031189 0.000000
# 6 0.000000 0.000000 0.000000 -0.001642 0.000000 0.022448
#
#
# Mechanical properties :
#
#
# Convention : Reuss Voigt Hill
#
# Bulk Modulus (GPa) = 54.03074 65.14277 59.58676
# Shear Modulus (GPa) = 35.37513 38.05796 36.71654
#
# Velocity S-wave (km/s) = 4.08129 4.23322 4.15795
# Velocity P-wave (km/s) = 6.90292 7.38695 7.14903
#
# Compressibility (1/GPa) = 0.01850798
#
# Stress axis : x y z
#
# Youngs Moduli (GPa) = 125.84339 93.37257 62.18525
#
# Poissons Ratio (x) = 0.25270 0.26421
# Poissons Ratio (y) = 0.34058 0.07210
# Poissons Ratio (z) = 0.53467 0.10826
#
# Static dielectric constant tensor:
#      x y z
#    x 1.775780 0.000000 -0.023630 
#    y 0.000000 1.840380 0.000000 
#    z -0.023630 0.000000 1.669890 
# 
# From -- ./inp_files/138599.got.cif
#   From: 2010.05.17/outbox.cif.g08.bks.cpg/sg15_70_cif.got.tgz:138599.got - 2010.06.03 18:47:42.
