data_PCOD9284052
_publ_section_title
;
Structure prediction by ZEFSAII (Michael W. Deem and Ramdas Pophale) SiO2 
 PCOD9284052
Probable space group: C 2/C
;
_chemical_formula_sum "Si O2"
_cell_formula_units_Z 40
_cell_length_a 16.398160
_cell_length_b 9.067216
_cell_length_c 26.911143
_cell_angle_alpha 90.000000
_cell_angle_beta 154.103127
_cell_angle_gamma 90.000000
_cell_volume 1747.578998
_symmetry_space_group_name_H-M "C 2/C"
_symmetry_group_IT_number 15
_symmetry_cell_setting 'monoclinic'
loop_
_space_group_symop_operation_xyz
x,y,z
-x,y,1/2-z
-x,-y,-z
x,-y,1/2+z
1/2+x,1/2+y,z
1/2-x,1/2+y,1/2-z
1/2-x,1/2-y,-z
1/2+x,1/2-y,1/2+z
loop_
_atom_site_type_symbol
_atom_site_label
_atom_site_fract_x
_atom_site_fract_y
_atom_site_fract_z
Si Si1 0.888964 0.900259 0.110348
Si Si2 0.486270 0.146341 0.392813
Si Si3 0.000000 0.132873 0.250000
Si Si4 0.802206 0.063526 0.340829
Si Si5 0.603778 0.736859 0.556625
Si Si6 0.500000 0.174438 0.250000
O O1 0.875961 0.777328 0.146722
O O2 0.984753 0.807229 0.118628
O O3 0.675507 0.938818 0.980609
O O4 0.989784 0.032686 0.194248
O O5 0.300299 0.077169 0.267631
O O6 0.468252 0.146176 0.442344
O O7 0.193166 0.222104 0.352586
O O8 0.636975 0.087176 0.290049
O O9 0.955361 0.191416 0.433292
O O10 0.883520 0.908164 0.401627
#
# Coordination Sequence:
#
# PCOD9284052 Si02
#       6
#     8   8   4   8   8   4
#     4   9  20  39  63  92 122 157 214 265 309 386
#     4  10  21  40  66  93 120 174 214 257 323 381
#     4  11  25  42  64  96 135 167 214 274 322 365
#     4  10  22  39  64  88 130 166 213 262 316 394
#     4  11  24  41  61  95 129 172 211 265 325 377
#     4   9  15  38  62  86 115 165 198 252 318 371
#
# _framework density 22.888807
#
# number of rings (size 3 to 8) (size 9 to 14) (size 15 to 20)
#    0.000    2.000    2.000    0.600    2.800    2.400 
#    0.000    2.000    0.000    0.000    0.000    0.000 
#    0.000    0.000    0.000    0.000    0.000    0.000 
#
# Total GULP energy -111614.244197 kJ/mol
# GULP energy per Si atom -5580.712210 kJ/mol
# Density = 2.283671 g / cm^3
# Si number density = 22.888807 Si / 1000 Ang^3
#
#
#
# Elastic Constant Matrix: (Units=GPa)
#
#
# Indices 1 2 3 4 5 6 
#
# 1 63.5665 0.5125 1.9970 0.0001 7.1260 0.0000
# 2 0.5125 21.6301 8.9825 0.0004 -8.0006 0.0000
# 3 1.9970 8.9825 121.3675 0.0047 -8.7413 -0.0004
# 4 0.0001 0.0004 0.0047 12.1223 -0.0006 19.6170
# 5 7.1260 -8.0006 -8.7413 -0.0006 28.0920 -0.0001
# 6 0.0000 0.0000 -0.0004 19.6170 -0.0001 -11.0588
#
#
#
# Elastic Compliance Matrix: (Units=1/GPa)
#
#
# Indices 1 2 3 4 5 6 
#
# 1 0.016306 -0.001984 -0.000471 0.000000 -0.004848 0.000000
# 2 -0.001984 0.052884 -0.002824 0.000000 0.014686 0.000000
# 3 -0.000471 -0.002824 0.008600 -0.000001 0.001991 -0.000002
# 4 0.000000 0.000000 -0.000001 0.021313 0.000000 0.037806
# 5 -0.004848 0.014686 0.001991 0.000000 0.041629 0.000000
# 6 0.000000 0.000000 -0.000002 0.037806 0.000000 -0.023362
#
#
# Mechanical properties :
#
#
# Convention : Reuss Voigt Hill
#
# Bulk Modulus (GPa) = 14.87374 25.50535 20.18955
# Shear Modulus (GPa) = 33.25886 18.83591 26.04739
#
# Velocity S-wave (km/s) = 3.81604 2.87179 3.37708
# Velocity P-wave (km/s) = 5.09201 4.70782 4.90368
#
# Compressibility (1/GPa) = 0.06723257
#
# Stress axis : x y z
#
# Youngs Moduli (GPa) = 61.32795 18.90942 116.28500
#
# Poissons Ratio (x) = 0.03752 0.05472
# Poissons Ratio (y) = 0.12168 0.32834
# Poissons Ratio (z) = 0.02886 0.05339
#
# Static dielectric constant tensor:
#      x y z
#    x 1.843600 0.000000 -0.005550 
#    y 0.000000 1.894330 0.000000 
#    z -0.005550 0.000000 1.904330 
# 
# From -- ./inp_files/103588.got.cif
#   From: 2010.05.17/outbox.cif.g08.bks.cpg/sg15_52_cif.got.tgz:103588.got - 2010.06.03 18:47:42.
