data_PCOD9284468
_publ_section_title
;
Structure prediction by ZEFSAII (Michael W. Deem and Ramdas Pophale) SiO2 
 PCOD9284468
Probable space group: C 2/C
;
_chemical_formula_sum "Si O2"
_cell_formula_units_Z 40
_cell_length_a 25.145286
_cell_length_b 15.369783
_cell_length_c 14.225024
_cell_angle_alpha 90.000000
_cell_angle_beta 19.983273
_cell_angle_gamma 90.000000
_cell_volume 1878.799782
_symmetry_space_group_name_H-M "C 2/C"
_symmetry_group_IT_number 15
_symmetry_cell_setting 'monoclinic'
loop_
_space_group_symop_operation_xyz
x,y,z
-x,y,1/2-z
-x,-y,-z
x,-y,1/2+z
1/2+x,1/2+y,z
1/2-x,1/2+y,1/2-z
1/2-x,1/2-y,-z
1/2+x,1/2-y,1/2+z
loop_
_atom_site_type_symbol
_atom_site_label
_atom_site_fract_x
_atom_site_fract_y
_atom_site_fract_z
Si Si1 0.970345 0.084485 0.409907
Si Si2 0.849914 0.338022 0.821729
Si Si3 0.500000 0.221281 0.250000
Si Si4 0.662561 0.219949 0.350319
Si Si5 0.500000 0.094631 0.750000
Si Si6 0.270076 0.492341 0.899088
O O1 0.000000 0.064304 0.250000
O O2 0.900380 0.182104 0.532923
O O3 0.853266 0.020886 0.662662
O O4 0.127103 0.075220 0.212028
O O5 0.917240 0.326675 0.606683
O O6 0.970582 0.335952 0.706555
O O7 0.750000 0.250000 0.000000
O O8 0.742465 0.421097 0.016277
O O9 0.346314 0.276135 0.525838
O O10 0.627002 0.159354 0.496099
O O11 0.596929 0.038560 0.662884
#
# Coordination Sequence:
#
# PCOD9284468 Si02
#       6
#     8   8   4   8   4   8
#     4  11  25  47  71 102 148 186 232 292 356 415
#     4  10  21  43  68  99 130 186 234 277 350 419
#     4  10  21  40  74  93 140 182 238 281 336 436
#     4  11  25  44  72 104 136 193 233 286 355 421
#     4  12  29  46  68 111 144 178 242 293 360 406
#     4  11  26  45  69 107 144 185 236 294 348 426
#
# _framework density 21.290188000000001
#
# number of rings (size 3 to 8) (size 9 to 14) (size 15 to 20)
#    0.000    1.200    5.000    0.600    5.600    4.800 
#    1.800    0.000    0.000    0.000    0.000    0.000 
#    0.000    0.000    0.000    0.000    0.000    0.000 
#
# Total GULP energy -111602.676080 kJ/mol
# GULP energy per Si atom -5580.133804 kJ/mol
# Density = 2.124173 g / cm^3
# Si number density = 21.290188 Si / 1000 Ang^3
#
#
#
# Elastic Constant Matrix: (Units=GPa)
#
#
# Indices 1 2 3 4 5 6 
#
# 1 88.7418 25.9010 25.4132 0.0002 7.6140 0.0000
# 2 25.9010 95.2216 39.0011 0.0001 -3.7342 0.0000
# 3 25.4132 39.0011 72.9210 0.0001 -3.6953 0.0000
# 4 0.0002 0.0001 0.0001 20.0993 -0.0002 0.8689
# 5 7.6140 -3.7342 -3.6953 -0.0002 45.0573 0.0000
# 6 0.0000 0.0000 0.0000 0.8689 0.0000 24.9322
#
#
#
# Elastic Compliance Matrix: (Units=1/GPa)
#
#
# Indices 1 2 3 4 5 6 
#
# 1 0.013164 -0.002243 -0.003525 0.000000 -0.002700 0.000000
# 2 -0.002243 0.013842 -0.006572 0.000000 0.000987 0.000000
# 3 -0.003525 -0.006572 0.018536 0.000000 0.001571 0.000000
# 4 0.000000 0.000000 0.000000 0.049828 0.000000 -0.001737
# 5 -0.002700 0.000987 0.001571 0.000000 0.022861 0.000000
# 6 0.000000 0.000000 0.000000 -0.001737 0.000000 0.040169
#
#
# Mechanical properties :
#
#
# Convention : Reuss Voigt Hill
#
# Bulk Modulus (GPa) = 47.93000 48.61277 48.27138
# Shear Modulus (GPa) = 26.31092 29.12236 27.71664
#
# Velocity S-wave (km/s) = 3.51924 3.70249 3.61203
# Velocity P-wave (km/s) = 6.25100 6.41568 6.33388
#
# Compressibility (1/GPa) = 0.02086376
#
# Stress axis : x y z
#
# Youngs Moduli (GPa) = 75.96269 72.24247 53.94783
#
# Poissons Ratio (x) = 0.16203 0.19017
# Poissons Ratio (y) = 0.17037 0.35453
# Poissons Ratio (z) = 0.26777 0.47476
#
# Static dielectric constant tensor:
#      x y z
#    x 2.184100 0.000000 0.428950 
#    y 0.000000 1.744800 0.000000 
#    z 0.428950 0.000000 2.601320 
# 
# From -- ./inp_files/178311.got.cif
#   From: 2010.05.17/outbox.cif.g08.bks.cpg/sg15_90_cif.got.tgz:178311.got - 2010.06.03 18:47:42.
