data_PCOD9284100
_publ_section_title
;
Structure prediction by ZEFSAII (Michael W. Deem and Ramdas Pophale) SiO2 
 PCOD9284100
Probable space group: C 2/C
;
_chemical_formula_sum "Si O2"
_cell_formula_units_Z 64
_cell_length_a 8.211672
_cell_length_b 21.845823
_cell_length_c 18.859793
_cell_angle_alpha 90.000000
_cell_angle_beta 119.667085
_cell_angle_gamma 90.000000
_cell_volume 2939.779252
_symmetry_space_group_name_H-M "C 2/C"
_symmetry_group_IT_number 15
_symmetry_cell_setting 'monoclinic'
loop_
_space_group_symop_operation_xyz
x,y,z
-x,y,1/2-z
-x,-y,-z
x,-y,1/2+z
1/2+x,1/2+y,z
1/2-x,1/2+y,1/2-z
1/2-x,1/2-y,-z
1/2+x,1/2-y,1/2+z
loop_
_atom_site_type_symbol
_atom_site_label
_atom_site_fract_x
_atom_site_fract_y
_atom_site_fract_z
Si Si1 0.051639 0.132567 0.629185
Si Si2 0.223788 0.893614 0.912087
Si Si3 0.548342 0.036466 0.914074
Si Si4 0.810720 0.306664 0.421837
Si Si5 0.400097 0.107014 0.074935
Si Si6 0.539008 0.328752 0.543443
Si Si7 0.893254 0.017634 0.654341
Si Si8 0.416612 0.861104 0.297340
O O1 0.912376 0.184526 0.630681
O O2 0.073536 0.150515 0.551761
O O3 0.216043 0.125749 0.720944
O O4 0.961804 0.064975 0.610470
O O5 0.372151 0.881877 0.879848
O O6 0.082220 0.946949 0.858497
O O7 0.102328 0.839848 0.921499
O O8 0.342401 0.927074 0.000994
O O9 0.539738 0.078152 0.841395
O O10 0.619254 0.966692 0.925731
O O11 0.328018 0.030071 0.884738
O O12 0.853771 0.354329 0.493791
O O13 0.892224 0.240320 0.454167
O O14 0.899118 0.327931 0.367496
O O15 0.236528 0.133536 0.090976
O O16 0.000000 0.030463 0.750000
O O17 0.500000 0.823158 0.250000
#
# Coordination Sequence:
#
# PCOD9284100 Si02
#       8
#     8   8   8   8   8   8   8   8
#     4  11  20  39  68  93 122 167 217 281 329 390
#     4  11  22  38  66  96 134 172 215 272 329 395
#     4  11  20  39  65  99 131 166 212 276 341 392
#     4  11  22  44  67  91 130 177 226 265 321 392
#     4  10  21  40  66  96 130 166 215 270 321 388
#     4  11  25  42  66  99 128 176 232 265 320 394
#     4  11  20  38  67  97 133 175 215 270 348 398
#     4  12  24  38  63 101 129 162 221 273 335 390
#
# _framework density 21.770343
#
# number of rings (size 3 to 8) (size 9 to 14) (size 15 to 20)
#    0.000    1.000    3.750    6.375    0.000    3.500 
#    2.250    0.625   11.000    0.000    0.000    0.000 
#    0.000    0.000    0.000    0.000    0.000    0.000 
#
# Total GULP energy -178297.389718 kJ/mol
# GULP energy per Si atom -5571.793429 kJ/mol
# Density = 2.172079 g / cm^3
# Si number density = 21.770343 Si / 1000 Ang^3
#
#
#
# Elastic Constant Matrix: (Units=GPa)
#
#
# Indices 1 2 3 4 5 6 
#
# 1 59.2969 14.6568 16.4407 0.0000 2.6024 0.0000
# 2 14.6568 73.4365 28.0131 0.0000 17.6507 0.0000
# 3 16.4407 28.0131 47.4643 0.0000 4.8414 0.0000
# 4 0.0000 0.0000 0.0000 15.6248 0.0000 -6.6640
# 5 2.6024 17.6507 4.8414 0.0000 27.0617 0.0000
# 6 0.0000 0.0000 0.0000 -6.6640 0.0000 11.0441
#
#
#
# Elastic Compliance Matrix: (Units=1/GPa)
#
#
# Indices 1 2 3 4 5 6 
#
# 1 0.018809 -0.001715 -0.005533 0.000000 0.000300 0.000000
# 2 -0.001715 0.020705 -0.010456 0.000000 -0.011469 0.000000
# 3 -0.005533 -0.010456 0.028934 0.000000 0.002175 0.000000
# 4 0.000000 0.000000 0.000000 0.086178 0.000000 0.052000
# 5 0.000300 -0.011469 0.002175 0.000000 0.044015 0.000000
# 6 0.000000 0.000000 0.000000 0.052000 0.000000 0.121922
#
#
# Mechanical properties :
#
#
# Convention : Reuss Voigt Hill
#
# Bulk Modulus (GPa) = 30.26718 33.15767 31.71243
# Shear Modulus (GPa) = 13.62450 18.81859 16.22154
#
# Velocity S-wave (km/s) = 2.50437 2.94328 2.73265
# Velocity P-wave (km/s) = 4.72182 5.17825 4.95529
#
# Compressibility (1/GPa) = 0.03303908
#
# Stress axis : x y z
#
# Youngs Moduli (GPa) = 53.16510 48.29843 34.56123
#
# Poissons Ratio (x) = 0.08285 0.19124
# Poissons Ratio (y) = 0.09120 0.36136
# Poissons Ratio (z) = 0.29418 0.50499
#
# Static dielectric constant tensor:
#      x y z
#    x 1.988470 0.000000 0.040300 
#    y 0.000000 1.821510 0.000000 
#    z 0.040300 0.000000 1.816050 
# 
# From -- ./inp_files/233899.got.cif
#   From: 2010.05.17/outbox.cif.g08.bks.cpg/sg15_117_cif.got.tgz:233899.got - 2010.06.03 18:47:42.
