data_PCOD9284180
_publ_section_title
;
Structure prediction by ZEFSAII (Michael W. Deem and Ramdas Pophale) SiO2 
 PCOD9284180
Probable space group: C 2/C
;
_chemical_formula_sum "Si O2"
_cell_formula_units_Z 44
_cell_length_a 18.674501
_cell_length_b 7.611705
_cell_length_c 15.330527
_cell_angle_alpha 90.000000
_cell_angle_beta 51.277446
_cell_angle_gamma 90.000000
_cell_volume 1700.142029
_symmetry_space_group_name_H-M "C 2/C"
_symmetry_group_IT_number 15
_symmetry_cell_setting 'monoclinic'
loop_
_space_group_symop_operation_xyz
x,y,z
-x,y,1/2-z
-x,-y,-z
x,-y,1/2+z
1/2+x,1/2+y,z
1/2-x,1/2+y,1/2-z
1/2-x,1/2-y,-z
1/2+x,1/2-y,1/2+z
loop_
_atom_site_type_symbol
_atom_site_label
_atom_site_fract_x
_atom_site_fract_y
_atom_site_fract_z
Si Si1 0.194023 0.104117 0.469849
Si Si2 0.098451 0.894944 0.390281
Si Si3 0.500000 0.899977 0.250000
Si Si4 0.132427 0.450420 0.768331
Si Si5 0.099090 0.051538 0.200425
Si Si6 0.573419 0.839371 0.457177
O O1 0.327191 0.460712 0.417252
O O2 0.141738 0.285433 0.483658
O O3 0.148833 0.966209 0.436317
O O4 0.299224 0.088313 0.362523
O O5 0.144039 0.713960 0.322633
O O6 0.107958 0.013640 0.295855
O O7 0.996116 0.826063 0.492763
O O8 0.468980 0.025806 0.196179
O O9 0.583433 0.756742 0.184845
O O10 0.140864 0.619377 0.824381
O O11 0.000000 0.969693 0.250000
O O12 0.500000 0.000000 0.500000
#
# Coordination Sequence:
#
# PCOD9284180 Si02
#       6
#     8   8   4   8   8   8
#     4  12  23  43  69 103 139 180 235 295 346 413
#     4  11  23  42  69  97 135 185 230 285 352 426
#     4  10  22  42  62  94 138 184 234 280 348 422
#     4  11  25  40  67 102 140 179 232 293 352 419
#     4  10  23  42  68  98 133 186 241 284 352 426
#     4  10  21  40  67  94 131 182 228 275 342 411
#
# _framework density 25.880191
#
# number of rings (size 3 to 8) (size 9 to 14) (size 15 to 20)
#    0.545    0.727    1.818    3.818    1.273    1.455 
#    0.000    5.455    0.000    0.000    0.000    0.000 
#    0.000    0.000    0.000    0.000    0.000    0.000 
#
# Total GULP energy -122691.478386 kJ/mol
# GULP energy per Si atom -5576.885381 kJ/mol
# Density = 2.582129 g / cm^3
# Si number density = 25.880191 Si / 1000 Ang^3
#
#
#
# Elastic Constant Matrix: (Units=GPa)
#
#
# Indices 1 2 3 4 5 6 
#
# 1 99.1200 50.6765 31.8327 0.0000 22.9980 0.0000
# 2 50.6765 134.2196 32.5784 0.0002 -1.4978 -0.0001
# 3 31.8327 32.5784 167.3354 0.0001 22.9775 -0.0001
# 4 0.0000 0.0002 0.0001 21.3676 0.0000 10.4667
# 5 22.9980 -1.4978 22.9775 0.0000 31.8950 0.0000
# 6 0.0000 -0.0001 -0.0001 10.4667 0.0000 35.0030
#
#
#
# Elastic Compliance Matrix: (Units=1/GPa)
#
#
# Indices 1 2 3 4 5 6 
#
# 1 0.015992 -0.006106 -0.000256 0.000000 -0.011633 0.000000
# 2 -0.006106 0.010228 -0.001665 0.000000 0.006082 0.000000
# 3 -0.000256 -0.001665 0.007030 0.000000 -0.004958 0.000000
# 4 0.000000 0.000000 0.000000 0.054831 0.000000 -0.016396
# 5 -0.011633 0.006082 -0.004958 0.000000 0.043598 0.000000
# 6 0.000000 0.000000 0.000000 -0.016396 0.000000 0.033472
#
#
# Mechanical properties :
#
#
# Convention : Reuss Voigt Hill
#
# Bulk Modulus (GPa) = 58.15310 70.09446 64.12378
# Shear Modulus (GPa) = 26.74725 36.69228 31.71977
#
# Velocity S-wave (km/s) = 3.21830 3.76942 3.50471
# Velocity P-wave (km/s) = 6.02734 6.78879 6.41937
#
# Compressibility (1/GPa) = 0.01719599
#
# Stress axis : x y z
#
# Youngs Moduli (GPa) = 62.53228 97.77360 142.25465
#
# Poissons Ratio (x) = 0.59696 0.03643
# Poissons Ratio (y) = 0.38180 0.23684
# Poissons Ratio (z) = 0.01601 0.16278
#
# Static dielectric constant tensor:
#      x y z
#    x 1.995870 0.000000 0.034270 
#    y 0.000000 2.188850 0.000000 
#    z 0.034270 0.000000 2.323230 
# 
# From -- ./inp_files/275996.got.cif
#   From: 2010.05.17/outbox.cif.g08.bks.cpg/sg15_138_cif.got.tgz:275996.got - 2010.06.03 18:47:42.
