data_PCOD9284742
_publ_section_title
;
Structure prediction by ZEFSAII (Michael W. Deem and Ramdas Pophale) SiO2 
 PCOD9284742
Probable space group: C 2/C
;
_chemical_formula_sum "Si O2"
_cell_formula_units_Z 40
_cell_length_a 11.052245
_cell_length_b 12.835780
_cell_length_c 14.517879
_cell_angle_alpha 90.000000
_cell_angle_beta 85.051448
_cell_angle_gamma 90.000000
_cell_volume 2051.890158
_symmetry_space_group_name_H-M "C 2/C"
_symmetry_group_IT_number 15
_symmetry_cell_setting 'monoclinic'
loop_
_space_group_symop_operation_xyz
x,y,z
-x,y,1/2-z
-x,-y,-z
x,-y,1/2+z
1/2+x,1/2+y,z
1/2-x,1/2+y,1/2-z
1/2-x,1/2-y,-z
1/2+x,1/2-y,1/2+z
loop_
_atom_site_type_symbol
_atom_site_label
_atom_site_fract_x
_atom_site_fract_y
_atom_site_fract_z
Si Si1 0.620899 0.040591 0.443714
Si Si2 0.810626 0.967384 0.096862
Si Si3 0.891400 0.233632 0.517692
Si Si4 0.569277 0.679051 0.340355
Si Si5 0.359637 0.108774 0.727353
O O1 0.729328 0.025786 0.510036
O O2 0.589106 0.161346 0.426300
O O3 0.500000 0.000000 0.500000
O O4 0.652875 0.975012 0.352295
O O5 0.906034 0.875047 0.069607
O O6 0.724774 0.923424 0.183012
O O7 0.868041 0.076927 0.122034
O O8 0.750000 0.250000 0.500000
O O9 0.974123 0.226183 0.421105
O O10 0.500000 0.650958 0.250000
O O11 0.659834 0.773762 0.308476
O O12 0.500000 0.107583 0.750000
#
# Coordination Sequence:
#
# PCOD9284742 Si02
#       5
#     8   8   8   8   8
#     4  11  20  41  64  89 120 164 208 256 299 376
#     4  11  25  38  63  93 123 163 204 259 318 363
#     4  10  21  41  64  85 123 166 204 247 321 371
#     4  11  23  41  62  90 126 163 209 254 310 382
#     4  11  22  40  63  90 121 165 211 246 314 380
#
# _framework density 19.494219999999999
#
# number of rings (size 3 to 8) (size 9 to 14) (size 15 to 20)
#    0.000    1.200    4.000    4.200    8.400    0.800 
#    0.000    1.000    0.000    0.000    0.000    0.000 
#    0.000    0.000    0.000    0.000    0.000    0.000 
#
# Total GULP energy -111646.962750 kJ/mol
# GULP energy per Si atom -5582.348137 kJ/mol
# Density = 1.944985 g / cm^3
# Si number density = 19.494220 Si / 1000 Ang^3
#
#
#
# Elastic Constant Matrix: (Units=GPa)
#
#
# Indices 1 2 3 4 5 6 
#
# 1 26.7825 31.9759 11.1915 0.0000 2.0547 0.0000
# 2 31.9759 170.1771 47.2297 0.0000 25.0817 0.0000
# 3 11.1915 47.2297 108.4960 0.0000 8.9045 0.0000
# 4 0.0000 0.0000 0.0000 41.5666 0.0000 -0.5735
# 5 2.0547 25.0817 8.9045 0.0000 26.3139 0.0000
# 6 0.0000 0.0000 0.0000 -0.5735 0.0000 28.1311
#
#
#
# Elastic Compliance Matrix: (Units=1/GPa)
#
#
# Indices 1 2 3 4 5 6 
#
# 1 0.049034 -0.009716 -0.001311 0.000000 0.005875 0.000000
# 2 -0.009716 0.009498 -0.002522 0.000000 -0.007442 0.000000
# 3 -0.001311 -0.002522 0.010537 0.000000 -0.001059 0.000000
# 4 0.000000 0.000000 0.000000 0.024065 0.000000 0.000491
# 5 0.005875 -0.007442 -0.001059 0.000000 0.044996 0.000000
# 6 0.000000 0.000000 0.000000 0.000491 0.000000 0.035558
#
#
# Mechanical properties :
#
#
# Convention : Reuss Voigt Hill
#
# Bulk Modulus (GPa) = 23.82480 54.02777 38.92629
# Shear Modulus (GPa) = 23.28014 33.53956 28.40985
#
# Velocity S-wave (km/s) = 3.45948 4.15238 3.82166
# Velocity P-wave (km/s) = 5.31087 7.12493 6.28370
#
# Compressibility (1/GPa) = 0.04197307
#
# Stress axis : x y z
#
# Youngs Moduli (GPa) = 20.39387 105.28000 94.90456
#
# Poissons Ratio (x) = 1.02286 0.12440
# Poissons Ratio (y) = 0.19814 0.23934
# Poissons Ratio (z) = 0.02673 0.26550
#
# Static dielectric constant tensor:
#      x y z
#    x 1.673540 0.000000 -0.013810 
#    y 0.000000 1.728510 0.000000 
#    z -0.013810 0.000000 1.655410 
# 
# From -- ./inp_files/141709.got.cif
#   From: 2010.05.17/outbox.cif.g08.bks.cpg/sg15_71_cif.got.tgz:141709.got - 2010.06.03 18:47:42.
