data_PCOD9284609
_publ_section_title
;
Structure prediction by ZEFSAII (Michael W. Deem and Ramdas Pophale) SiO2 
 PCOD9284609
Probable space group: C 2/C
;
_chemical_formula_sum "Si O2"
_cell_formula_units_Z 52
_cell_length_a 12.849688
_cell_length_b 14.962433
_cell_length_c 25.911774
_cell_angle_alpha 90.000000
_cell_angle_beta 146.370278
_cell_angle_gamma 90.000000
_cell_volume 2759.074121
_symmetry_space_group_name_H-M "C 2/C"
_symmetry_group_IT_number 15
_symmetry_cell_setting 'monoclinic'
loop_
_space_group_symop_operation_xyz
x,y,z
-x,y,1/2-z
-x,-y,-z
x,-y,1/2+z
1/2+x,1/2+y,z
1/2-x,1/2+y,1/2-z
1/2-x,1/2-y,-z
1/2+x,1/2-y,1/2+z
loop_
_atom_site_type_symbol
_atom_site_label
_atom_site_fract_x
_atom_site_fract_y
_atom_site_fract_z
Si Si1 0.382742 0.946740 0.409912
Si Si2 0.713674 0.988209 0.409229
Si Si3 0.088616 0.319990 0.423383
Si Si4 0.840730 0.430880 0.791392
Si Si5 0.500000 0.649876 0.750000
Si Si6 0.089420 0.046817 0.617816
Si Si7 0.822035 0.775452 0.280505
O O1 0.511900 0.865104 0.443973
O O2 0.178289 0.909896 0.341235
O O3 0.500000 0.000000 0.500000
O O4 0.352410 0.009450 0.347579
O O5 0.667694 0.896490 0.419136
O O6 0.785957 0.966497 0.382072
O O7 0.523228 0.044864 0.332566
O O8 0.877233 0.035465 0.510168
O O9 0.250000 0.250000 0.500000
O O10 0.901041 0.281842 0.320254
O O11 0.659038 0.468336 0.685467
O O12 0.853691 0.326554 0.809836
O O13 0.574743 0.705532 0.731721
O O14 0.121238 0.142785 0.658292
#
# Coordination Sequence:
#
# PCOD9284609 Si02
#       7
#     8   8   8   8   4   8   8
#     4  10  23  41  63  91 127 166 208 256 322 371
#     4  10  23  39  67  89 127 168 203 273 313 371
#     4  10  21  41  62  92 125 166 212 259 314 374
#     4  11  23  42  64  95 122 171 207 265 315 375
#     4  10  22  42  60  90 128 168 202 268 306 376
#     4  11  22  43  62  95 127 162 217 257 321 378
#     4  11  24  39  66  93 129 167 215 261 317 381
#
# _framework density 18.846903000000001
#
# number of rings (size 3 to 8) (size 9 to 14) (size 15 to 20)
#    0.000    1.538    4.615    1.385    6.462    3.077 
#    2.769    0.000    0.000    0.000    0.000    0.000 
#    0.000    0.000    0.000    0.000    0.000    0.000 
#
# Total GULP energy -145119.283527 kJ/mol
# GULP energy per Si atom -5581.510905 kJ/mol
# Density = 1.880401 g / cm^3
# Si number density = 18.846903 Si / 1000 Ang^3
#
#
#
# Elastic Constant Matrix: (Units=GPa)
#
#
# Indices 1 2 3 4 5 6 
#
# 1 37.1172 27.7305 25.6098 0.0000 9.7485 0.0000
# 2 27.7305 115.2083 37.5062 0.0000 11.7017 0.0000
# 3 25.6098 37.5062 80.3750 -0.0001 4.5548 0.0000
# 4 0.0000 0.0000 -0.0001 12.8794 0.0000 16.9616
# 5 9.7485 11.7017 4.5548 0.0000 25.2168 0.0000
# 6 0.0000 0.0000 0.0000 16.9616 0.0000 6.7618
#
#
#
# Elastic Compliance Matrix: (Units=1/GPa)
#
#
# Indices 1 2 3 4 5 6 
#
# 1 0.040797 -0.005465 -0.009799 0.000000 -0.011466 0.000000
# 2 -0.005465 0.011367 -0.003419 0.000000 -0.002544 0.000000
# 3 -0.009799 -0.003419 0.017029 0.000000 0.002299 0.000000
# 4 0.000000 0.000000 0.000000 -0.033706 0.000000 0.084551
# 5 -0.011466 -0.002544 0.002299 0.000000 0.044854 0.000000
# 6 0.000000 0.000000 0.000000 0.084551 0.000000 -0.064202
#
#
# Mechanical properties :
#
#
# Convention : Reuss Voigt Hill
#
# Bulk Modulus (GPa) = 31.41978 46.04373 38.73176
# Shear Modulus (GPa) = 77.98625 18.42853 48.20739
#
# Velocity S-wave (km/s) = 6.43962 3.13037 5.06300
# Velocity P-wave (km/s) = 8.48521 6.12773 7.40094
#
# Compressibility (1/GPa) = 0.03182708
#
# Stress axis : x y z
#
# Youngs Moduli (GPa) = 24.51148 87.97573 58.72348
#
# Poissons Ratio (x) = 0.48080 0.57544
# Poissons Ratio (y) = 0.13396 0.20076
# Poissons Ratio (z) = 0.24019 0.30076
#
# Static dielectric constant tensor:
#      x y z
#    x 1.659350 0.000000 -0.017790 
#    y 0.000000 1.661770 0.000000 
#    z -0.017790 0.000000 1.708270 
# 
# From -- ./inp_files/270000.got.cif
#   From: 2010.05.17/outbox.cif.g08.bks.cpg/sg15_135_cif.got.tgz:270000.got - 2010.06.03 18:47:42.
