data_PCOD9284016
_publ_section_title
;
Structure prediction by ZEFSAII (Michael W. Deem and Ramdas Pophale) SiO2 
 PCOD9284016
Probable space group: C 2/C
;
_chemical_formula_sum "Si O2"
_cell_formula_units_Z 48
_cell_length_a 33.472495
_cell_length_b 14.297218
_cell_length_c 15.846214
_cell_angle_alpha 90.000000
_cell_angle_beta 161.994436
_cell_angle_gamma 90.000000
_cell_volume 2344.106199
_symmetry_space_group_name_H-M "C 2/C"
_symmetry_group_IT_number 15
_symmetry_cell_setting 'monoclinic'
loop_
_space_group_symop_operation_xyz
x,y,z
-x,y,1/2-z
-x,-y,-z
x,-y,1/2+z
1/2+x,1/2+y,z
1/2-x,1/2+y,1/2-z
1/2-x,1/2-y,-z
1/2+x,1/2-y,1/2+z
loop_
_atom_site_type_symbol
_atom_site_label
_atom_site_fract_x
_atom_site_fract_y
_atom_site_fract_z
Si Si1 0.751525 0.407506 0.444433
Si Si2 0.492926 0.438493 0.829062
Si Si3 0.751220 0.383090 0.981795
Si Si4 0.552275 0.624781 0.679967
Si Si5 0.206202 0.777641 0.055611
Si Si6 0.888143 0.710902 0.081101
O O1 0.795042 0.509490 0.564159
O O2 0.670315 0.353515 0.353751
O O3 0.850626 0.349133 0.587816
O O4 0.637447 0.430313 0.150128
O O5 0.500000 0.476644 0.750000
O O6 0.425619 0.516962 0.750330
O O7 0.421495 0.339604 0.687480
O O8 0.593701 0.372330 0.651300
O O9 0.811285 0.321601 0.026177
O O10 0.781830 0.336329 0.133901
O O11 0.560236 0.692312 0.775765
O O12 0.276082 0.771815 0.286462
O O13 0.000000 0.664541 0.250000
#
# Coordination Sequence:
#
# PCOD9284016 Si02
#       6
#     8   8   8   8   8   8
#     4  11  22  40  65  92 119 156 209 254 297 356
#     4  11  20  36  67  95 117 151 209 267 290 342
#     4  10  21  40  66  89 121 161 203 249 306 360
#     4  11  21  40  63  95 118 158 205 255 304 351
#     4  11  21  38  63  90 124 158 201 246 308 357
#     4  12  25  39  60  90 129 164 195 245 310 367
#
# _framework density 20.476887000000001
#
# number of rings (size 3 to 8) (size 9 to 14) (size 15 to 20)
#    0.000    1.000    6.667    2.000    2.333    0.000 
#    0.000    1.667    3.667    0.000    0.000    0.000 
#    0.000    0.000    0.000    0.000    0.000    0.000 
#
# Total GULP energy -133841.147079 kJ/mol
# GULP energy per Si atom -5576.714462 kJ/mol
# Density = 2.043028 g / cm^3
# Si number density = 20.476887 Si / 1000 Ang^3
#
#
#
# Elastic Constant Matrix: (Units=GPa)
#
#
# Indices 1 2 3 4 5 6 
#
# 1 100.2368 27.1860 8.5178 0.0000 2.3829 0.0000
# 2 27.1860 85.0451 12.8831 0.0000 7.6645 0.0000
# 3 8.5178 12.8831 12.4348 0.0000 0.1404 0.0000
# 4 0.0000 0.0000 0.0000 22.1940 0.0000 1.1549
# 5 2.3829 7.6645 0.1404 0.0000 40.5510 0.0000
# 6 0.0000 0.0000 0.0000 1.1549 0.0000 43.1121
#
#
#
# Elastic Compliance Matrix: (Units=1/GPa)
#
#
# Indices 1 2 3 4 5 6 
#
# 1 0.011149 -0.002844 -0.004689 0.000000 -0.000101 0.000000
# 2 -0.002844 0.014950 -0.013511 0.000000 -0.002612 0.000000
# 3 -0.004689 -0.013511 0.097601 0.000000 0.002491 0.000000
# 4 0.000000 0.000000 0.000000 0.045120 0.000000 -0.001209
# 5 -0.000101 -0.002612 0.002491 0.000000 0.025151 0.000000
# 6 0.000000 0.000000 0.000000 -0.001209 0.000000 0.023228
#
#
# Mechanical properties :
#
#
# Convention : Reuss Voigt Hill
#
# Bulk Modulus (GPa) = 12.25314 32.76562 22.50938
# Shear Modulus (GPa) = 17.45258 31.11342 24.28300
#
# Velocity S-wave (km/s) = 2.92260 3.90223 3.44739
# Velocity P-wave (km/s) = 4.16961 6.02820 5.18290
#
# Compressibility (1/GPa) = 0.08161171
#
# Stress axis : x y z
#
# Youngs Moduli (GPa) = 89.69666 66.89051 10.24578
#
# Poissons Ratio (x) = 0.19027 0.04804
# Poissons Ratio (y) = 0.25514 0.13843
# Poissons Ratio (z) = 0.42056 0.90374
#
# Static dielectric constant tensor:
#      x y z
#    x 1.772500 0.000000 0.025990 
#    y 0.000000 1.745440 0.000000 
#    z 0.025990 0.000000 1.732640 
# 
# From -- ./inp_files/143518.got.cif
#   From: 2010.05.17/outbox.cif.g08.bks.cpg/sg15_72_cif.got.tgz:143518.got - 2010.06.03 18:47:42.
