data_PCOD9284991
_publ_section_title
;
Structure prediction by ZEFSAII (Michael W. Deem and Ramdas Pophale) SiO2 
 PCOD9284991
Probable space group: C 2/C
;
_chemical_formula_sum "Si O2"
_cell_formula_units_Z 40
_cell_length_a 30.781841
_cell_length_b 8.917090
_cell_length_c 21.648827
_cell_angle_alpha 90.000000
_cell_angle_beta 162.322756
_cell_angle_gamma 90.000000
_cell_volume 1804.396918
_symmetry_space_group_name_H-M "C 2/C"
_symmetry_group_IT_number 15
_symmetry_cell_setting 'monoclinic'
loop_
_space_group_symop_operation_xyz
x,y,z
-x,y,1/2-z
-x,-y,-z
x,-y,1/2+z
1/2+x,1/2+y,z
1/2-x,1/2+y,1/2-z
1/2-x,1/2-y,-z
1/2+x,1/2-y,1/2+z
loop_
_atom_site_type_symbol
_atom_site_label
_atom_site_fract_x
_atom_site_fract_y
_atom_site_fract_z
Si Si1 0.294540 0.626575 0.509498
Si Si2 0.816547 0.887420 0.628001
Si Si3 0.526552 0.949046 0.953066
Si Si4 0.523594 0.256226 0.011304
Si Si5 0.809243 0.391733 0.447790
O O1 0.250000 0.750000 0.500000
O O2 0.380331 0.501258 0.663065
O O3 0.352449 0.729159 0.533179
O O4 0.146286 0.550045 0.286260
O O5 0.750000 0.750000 0.500000
O O6 0.928846 0.830266 0.830259
O O7 0.702990 0.984611 0.514702
O O8 0.579663 0.100238 0.057553
O O9 0.560446 0.804917 0.042000
O O10 0.590225 0.936683 0.971705
O O11 0.649911 0.363049 0.205200
#
# Coordination Sequence:
#
# PCOD9284991 Si02
#       5
#     8   8   8   8   8
#     4   9  20  40  64  91 127 167 198 263 308 365
#     4  11  21  40  65  90 130 161 206 260 317 362
#     4  10  21  41  66  92 126 163 213 252 317 365
#     4  10  22  41  65  92 127 163 203 271 302 366
#     4  10  23  40  69  90 123 172 210 250 313 381
#
# _framework density 22.168074000000001
#
# number of rings (size 3 to 8) (size 9 to 14) (size 15 to 20)
#    0.000    2.000    2.000    0.600    2.800    3.200 
#    0.000    0.000   17.600    0.000    0.000    0.000 
#    0.000    0.000    0.000    0.000    0.000    0.000 
#
# Total GULP energy -111701.077225 kJ/mol
# GULP energy per Si atom -5585.053861 kJ/mol
# Density = 2.211762 g / cm^3
# Si number density = 22.168074 Si / 1000 Ang^3
#
#
#
# Elastic Constant Matrix: (Units=GPa)
#
#
# Indices 1 2 3 4 5 6 
#
# 1 133.9760 49.6967 29.3173 0.0000 -13.7441 0.0000
# 2 49.6967 104.6662 43.3267 0.0000 -14.5365 0.0000
# 3 29.3173 43.3267 88.0897 0.0000 -34.4448 0.0000
# 4 0.0000 0.0000 0.0000 34.6380 0.0000 -34.0513
# 5 -13.7441 -14.5365 -34.4448 0.0000 36.1679 0.0000
# 6 0.0000 0.0000 0.0000 -34.0513 0.0000 53.1868
#
#
#
# Elastic Compliance Matrix: (Units=1/GPa)
#
#
# Indices 1 2 3 4 5 6 
#
# 1 0.009190 -0.003928 -0.000603 0.000000 0.001340 0.000000
# 2 -0.003928 0.013712 -0.006160 0.000000 -0.001848 0.000000
# 3 -0.000603 -0.006160 0.021549 0.000000 0.017818 0.000000
# 4 0.000000 0.000000 0.000000 0.077896 0.000000 0.049871
# 5 0.001340 -0.001848 0.017818 0.000000 0.044384 0.000000
# 6 0.000000 0.000000 0.000000 0.049871 0.000000 0.050730
#
#
# Mechanical properties :
#
#
# Convention : Reuss Voigt Hill
#
# Bulk Modulus (GPa) = 43.34390 63.49038 53.41714
# Shear Modulus (GPa) = 20.28117 38.42461 29.35289
#
# Velocity S-wave (km/s) = 3.02798 4.16785 3.64278
# Velocity P-wave (km/s) = 5.64090 7.20166 6.46853
#
# Compressibility (1/GPa) = 0.02307130
#
# Stress axis : x y z
#
# Youngs Moduli (GPa) = 108.80856 72.92638 46.40490
#
# Poissons Ratio (x) = 0.28646 0.02798
# Poissons Ratio (y) = 0.42741 0.28583
# Poissons Ratio (z) = 0.06560 0.44919
#
# Static dielectric constant tensor:
#      x y z
#    x 1.850360 0.000000 -0.021360 
#    y 0.000000 1.836720 0.000000 
#    z -0.021360 0.000000 1.863420 
# 
# From -- ./inp_files/102765.got.cif
#   From: 2010.05.17/outbox.cif.g08.bks.cpg/sg15_52_cif.got.tgz:102765.got - 2010.06.03 18:47:42.
