data_PCOD9284532
_publ_section_title
;
Structure prediction by ZEFSAII (Michael W. Deem and Ramdas Pophale) SiO2 
 PCOD9284532
Probable space group: C 2/C
;
_chemical_formula_sum "Si O2"
_cell_formula_units_Z 40
_cell_length_a 11.277548
_cell_length_b 8.190464
_cell_length_c 26.046512
_cell_angle_alpha 90.000000
_cell_angle_beta 124.912771
_cell_angle_gamma 90.000000
_cell_volume 1972.874682
_symmetry_space_group_name_H-M "C 2/C"
_symmetry_group_IT_number 15
_symmetry_cell_setting 'monoclinic'
loop_
_space_group_symop_operation_xyz
x,y,z
-x,y,1/2-z
-x,-y,-z
x,-y,1/2+z
1/2+x,1/2+y,z
1/2-x,1/2+y,1/2-z
1/2-x,1/2-y,-z
1/2+x,1/2-y,1/2+z
loop_
_atom_site_type_symbol
_atom_site_label
_atom_site_fract_x
_atom_site_fract_y
_atom_site_fract_z
Si Si1 0.174507 0.677936 0.796116
Si Si2 0.841822 0.126387 0.107612
Si Si3 0.332685 0.645482 0.308422
Si Si4 0.642459 0.140908 0.506207
Si Si5 0.995191 0.338484 0.427584
O O1 0.214316 0.771057 0.858095
O O2 0.237053 0.496532 0.808292
O O3 0.224037 0.779561 0.758478
O O4 0.000000 0.668999 0.750000
O O5 0.006222 0.071212 0.161801
O O6 0.873676 0.245680 0.067652
O O7 0.740422 0.982239 0.064316
O O8 0.364693 0.792278 0.356631
O O9 0.750000 0.250000 0.500000
O O10 0.544407 0.226625 0.525411
O O11 0.541618 0.025614 0.446226
#
# Coordination Sequence:
#
# PCOD9284532 Si02
#       5
#     8   8   8   8   8
#     4  10  21  41  61  87 123 159 200 256 303 371
#     4   9  22  40  61  87 124 157 199 250 309 359
#     4   9  22  40  61  89 120 157 202 250 306 366
#     4  11  23  39  63  89 123 162 205 252 302 364
#     4   9  23  40  56  93 121 154 209 246 295 381
#
# _framework density 20.274984
#
# number of rings (size 3 to 8) (size 9 to 14) (size 15 to 20)
#    1.200    1.200    0.000    0.600    5.600    4.000 
#    3.600    0.000    0.000    0.000    0.000    0.000 
#    0.000    0.000    0.000    0.000    0.000    0.000 
#
# Total GULP energy -111432.160469 kJ/mol
# GULP energy per Si atom -5571.608023 kJ/mol
# Density = 2.022884 g / cm^3
# Si number density = 20.274984 Si / 1000 Ang^3
#
#
#
# Elastic Constant Matrix: (Units=GPa)
#
#
# Indices 1 2 3 4 5 6 
#
# 1 66.7660 56.2069 55.6404 0.0000 -23.4183 0.0000
# 2 56.2069 89.6257 66.7000 0.0000 -17.6743 0.0000
# 3 55.6404 66.7000 101.9322 0.0000 -26.3425 0.0000
# 4 0.0000 0.0000 0.0000 27.9897 0.0000 -0.4443
# 5 -23.4183 -17.6743 -26.3425 0.0000 27.1137 0.0000
# 6 0.0000 0.0000 0.0000 -0.4443 0.0000 50.2745
#
#
#
# Elastic Compliance Matrix: (Units=1/GPa)
#
#
# Indices 1 2 3 4 5 6 
#
# 1 0.041648 -0.017760 -0.006420 0.000000 0.018157 0.000000
# 2 -0.017760 0.029327 -0.011376 0.000000 -0.007275 0.000000
# 3 -0.006420 -0.011376 0.023246 0.000000 0.009624 0.000000
# 4 0.000000 0.000000 0.000000 0.035732 0.000000 0.000316
# 5 0.018157 -0.007275 0.009624 0.000000 0.057173 0.000000
# 6 0.000000 0.000000 0.000000 0.000316 0.000000 0.019894
#
#
# Mechanical properties :
#
#
# Convention : Reuss Voigt Hill
#
# Bulk Modulus (GPa) = 43.27356 68.37984 55.82670
# Shear Modulus (GPa) = 17.49273 26.39403 21.94338
#
# Velocity S-wave (km/s) = 2.94049 3.61196 3.29338
# Velocity P-wave (km/s) = 5.73745 7.15503 6.48509
#
# Compressibility (1/GPa) = 0.02310880
#
# Stress axis : x y z
#
# Youngs Moduli (GPa) = 24.01086 34.09873 43.01875
#
# Poissons Ratio (x) = 0.60560 0.27618
# Poissons Ratio (y) = 0.42644 0.48936
# Poissons Ratio (z) = 0.15415 0.38789
#
# Static dielectric constant tensor:
#      x y z
#    x 1.751520 0.000000 0.009560 
#    y 0.000000 1.688300 0.000000 
#    z 0.009560 0.000000 1.747780 
# 
# From -- ./inp_files/290902.got.cif
#   From: 2010.05.17/outbox.cif.g08.bks.cpg/sg15_146_cif.got.tgz:290902.got - 2010.06.03 18:47:42.
