data_PCOD9284049
_publ_section_title
;
Structure prediction by ZEFSAII (Michael W. Deem and Ramdas Pophale) SiO2 
 PCOD9284049
Probable space group: C 2/C
;
_chemical_formula_sum "Si O2"
_cell_formula_units_Z 40
_cell_length_a 8.504775
_cell_length_b 10.561627
_cell_length_c 25.830795
_cell_angle_alpha 90.000000
_cell_angle_beta 131.390332
_cell_angle_gamma 90.000000
_cell_volume 1740.690653
_symmetry_space_group_name_H-M "C 2/C"
_symmetry_group_IT_number 15
_symmetry_cell_setting 'monoclinic'
loop_
_space_group_symop_operation_xyz
x,y,z
-x,y,1/2-z
-x,-y,-z
x,-y,1/2+z
1/2+x,1/2+y,z
1/2-x,1/2+y,1/2-z
1/2-x,1/2-y,-z
1/2+x,1/2-y,1/2+z
loop_
_atom_site_type_symbol
_atom_site_label
_atom_site_fract_x
_atom_site_fract_y
_atom_site_fract_z
Si Si1 0.558473 0.330378 0.607680
Si Si2 0.690932 0.483770 0.501838
Si Si3 0.732021 0.944881 0.280889
Si Si4 0.385440 0.053449 0.857871
Si Si5 0.634995 0.328095 0.389801
O O1 0.341978 0.388015 0.539701
O O2 0.673801 0.440933 0.664256
O O3 0.537711 0.199665 0.634152
O O4 0.716320 0.285904 0.595852
O O5 0.500000 0.500000 0.500000
O O6 0.663162 0.371668 0.454577
O O7 0.913732 0.480957 0.577541
O O8 0.500000 0.916410 0.250000
O O9 0.714085 0.986763 0.217447
O O10 0.889914 0.826607 0.322834
O O11 0.221445 0.063043 0.869133
#
# Coordination Sequence:
#
# PCOD9284049 Si02
#       5
#     8   8   8   8   8
#     4   9  23  39  69  85 137 170 218 266 338 382
#     4  11  21  41  64  99 130 175 222 277 324 402
#     4  11  22  40  65  97 129 173 222 278 319 394
#     4  10  21  40  66  92 133 168 226 267 331 395
#     4   9  22  40  66  91 132 177 216 269 337 392
#
# _framework density 22.979384
#
# number of rings (size 3 to 8) (size 9 to 14) (size 15 to 20)
#    1.200    0.800    0.000    4.200    2.800    0.800 
#    0.000    4.000    4.400    0.000    0.000    0.000 
#    0.000    0.000    0.000    0.000    0.000    0.000 
#
# Total GULP energy -111625.738281 kJ/mol
# GULP energy per Si atom -5581.286914 kJ/mol
# Density = 2.292708 g / cm^3
# Si number density = 22.979384 Si / 1000 Ang^3
#
#
#
# Elastic Constant Matrix: (Units=GPa)
#
#
# Indices 1 2 3 4 5 6 
#
# 1 72.0357 8.8018 3.6779 0.0000 -13.0001 0.0000
# 2 8.8018 16.1119 53.1261 0.0000 -21.0118 0.0000
# 3 3.6779 53.1261 81.4224 0.0000 5.5758 0.0000
# 4 0.0000 0.0000 0.0000 27.0852 0.0000 -2.1854
# 5 -13.0001 -21.0118 5.5758 0.0000 36.0679 0.0000
# 6 0.0000 0.0000 0.0000 -2.1854 0.0000 32.8373
#
#
#
# Elastic Compliance Matrix: (Units=1/GPa)
#
#
# Indices 1 2 3 4 5 6 
#
# 1 0.014890 -0.001152 -0.000245 0.000000 0.004734 0.000000
# 2 -0.001152 -0.028018 0.019688 0.000000 -0.019781 0.000000
# 3 -0.000245 0.019688 -0.001347 0.000000 0.011589 0.000000
# 4 0.000000 0.000000 0.000000 0.037120 0.000000 0.002470
# 5 0.004734 -0.019781 0.011589 0.000000 0.016117 0.000000
# 6 0.000000 0.000000 0.000000 0.002470 0.000000 0.030618
#
#
# Mechanical properties :
#
#
# Convention : Reuss Voigt Hill
#
# Bulk Modulus (GPa) = 45.23579 33.42017 39.32798
# Shear Modulus (GPa) = 124.48262 26.12904 75.30583
#
# Velocity S-wave (km/s) = 7.36811 3.37570 5.73081
# Velocity P-wave (km/s) = 9.59758 5.45609 7.80648
#
# Compressibility (1/GPa) = 0.02210639
#
# Stress axis : x y z
#
# Youngs Moduli (GPa) = 67.16129 -35.69136 -742.61010
#
# Poissons Ratio (x) = -0.04110 -0.18221
# Poissons Ratio (y) = 0.07734 14.62025
# Poissons Ratio (z) = 0.01648 0.70268
#
# Static dielectric constant tensor:
#      x y z
#    x 1.860690 0.000000 -0.032760 
#    y 0.000000 1.933120 0.000000 
#    z -0.032760 0.000000 1.841650 
# 
# From -- ./inp_files/230611.got.cif
#   From: 2010.05.17/outbox.cif.g08.bks.cpg/sg15_116_cif.got.tgz:230611.got - 2010.06.03 18:47:42.
