data_PCOD9284686
_publ_section_title
;
Structure prediction by ZEFSAII (Michael W. Deem and Ramdas Pophale) SiO2 
 PCOD9284686
Probable space group: C 2/C
;
_chemical_formula_sum "Si O2"
_cell_formula_units_Z 64
_cell_length_a 8.793694
_cell_length_b 19.879983
_cell_length_c 31.211131
_cell_angle_alpha 90.000000
_cell_angle_beta 37.868474
_cell_angle_gamma 90.000000
_cell_volume 3349.344199
_symmetry_space_group_name_H-M "C 2/C"
_symmetry_group_IT_number 15
_symmetry_cell_setting 'monoclinic'
loop_
_space_group_symop_operation_xyz
x,y,z
-x,y,1/2-z
-x,-y,-z
x,-y,1/2+z
1/2+x,1/2+y,z
1/2-x,1/2+y,1/2-z
1/2-x,1/2-y,-z
1/2+x,1/2-y,1/2+z
loop_
_atom_site_type_symbol
_atom_site_label
_atom_site_fract_x
_atom_site_fract_y
_atom_site_fract_z
Si Si1 0.358463 0.707369 0.826784
Si Si2 0.786885 0.429440 0.173406
Si Si3 0.844674 0.429970 0.327770
Si Si4 0.961060 0.680836 0.056125
Si Si5 0.589951 0.302799 0.564032
Si Si6 0.514784 0.694663 0.606104
Si Si7 0.039397 0.046345 0.431295
Si Si8 0.614052 0.040315 0.061859
O O1 0.500000 0.712576 0.750000
O O2 0.202727 0.638366 0.856807
O O3 0.512687 0.701482 0.836469
O O4 0.177547 0.769601 0.872028
O O5 0.500000 0.438330 0.250000
O O6 0.966004 0.422057 0.174599
O O7 0.889251 0.492344 0.124803
O O8 0.641340 0.370212 0.374360
O O9 0.711349 0.502899 0.360872
O O10 0.000000 0.424426 0.250000
O O11 0.941879 0.738613 0.096274
O O12 0.010000 0.609528 0.067196
O O13 0.722178 0.688313 0.080015
O O14 0.196805 0.688699 0.971673
O O15 0.750000 0.250000 0.500000
O O16 0.551591 0.378171 0.555809
O O17 0.206739 0.050404 0.436987
O O18 0.795028 0.000525 0.490278
#
# Coordination Sequence:
#
# PCOD9284686 Si02
#       8
#     8   8   8   8   8   8   8   8
#     4  11  23  42  65  92 129 170 217 268 321 388
#     4  10  22  40  64  93 128 170 209 261 321 384
#     4  11  22  41  66  93 130 170 212 263 319 385
#     4  11  24  39  65  94 130 164 213 271 318 377
#     4  12  24  40  63  96 128 172 214 273 322 381
#     4  11  23  41  64  96 126 169 215 263 317 383
#     4  10  23  39  63  91 125 165 217 258 320 376
#     4  10  21  41  63  91 125 168 208 265 313 382
#
# _framework density 19.108218999999998
#
# number of rings (size 3 to 8) (size 9 to 14) (size 15 to 20)
#    0.000    1.250    2.500    3.750    1.750    3.000 
#    0.000    3.125    0.000    0.000    0.000    0.000 
#    0.000    0.000    0.000    0.000    0.000    0.000 
#
# Total GULP energy -178630.515142 kJ/mol
# GULP energy per Si atom -5582.203598 kJ/mol
# Density = 1.906473 g / cm^3
# Si number density = 19.108219 Si / 1000 Ang^3
#
#
#
# Elastic Constant Matrix: (Units=GPa)
#
#
# Indices 1 2 3 4 5 6 
#
# 1 59.8881 28.5633 16.2004 0.0199 -1.6906 -0.0019
# 2 28.5633 140.5778 29.6325 0.0061 7.3418 -0.0009
# 3 16.2004 29.6325 55.4323 0.0151 9.1944 -0.0096
# 4 0.0199 0.0061 0.0151 13.4594 -0.0182 -2.9468
# 5 -1.6906 7.3418 9.1944 -0.0182 24.4901 0.0034
# 6 -0.0019 -0.0009 -0.0096 -2.9468 0.0034 37.6448
#
#
#
# Elastic Compliance Matrix: (Units=1/GPa)
#
#
# Indices 1 2 3 4 5 6 
#
# 1 0.019613 -0.003209 -0.004693 -0.000017 0.004078 -0.000002
# 2 -0.003209 0.008558 -0.003386 0.000003 -0.001516 0.000000
# 3 -0.004693 -0.003386 0.022509 -0.000026 -0.007759 0.000004
# 4 -0.000017 0.000003 -0.000026 0.075593 0.000063 0.005917
# 5 0.004078 -0.001516 -0.007759 0.000063 0.044482 -0.000001
# 6 -0.000002 0.000000 0.000004 0.005917 -0.000001 0.027027
#
#
# Mechanical properties :
#
#
# Convention : Reuss Voigt Hill
#
# Bulk Modulus (GPa) = 35.58134 44.96562 40.27348
# Shear Modulus (GPa) = 21.76510 27.21900 24.49205
#
# Velocity S-wave (km/s) = 3.37863 3.77830 3.58404
# Velocity P-wave (km/s) = 5.82079 6.52819 6.18461
#
# Compressibility (1/GPa) = 0.02810462
#
# Stress axis : x y z
#
# Youngs Moduli (GPa) = 50.98705 116.84504 44.42746
#
# Poissons Ratio (x) = 0.37493 0.20850
# Poissons Ratio (y) = 0.16360 0.15042
# Poissons Ratio (z) = 0.23928 0.39561
#
# Static dielectric constant tensor:
#      x y z
#    x 1.665070 -0.000010 0.006170 
#    y -0.000010 1.652030 0.000010 
#    z 0.006170 0.000010 1.677890 
# 
# From -- ./inp_files/308753.got.cif
#   From: 2010.05.17/outbox.cif.g08.bks.cpg/sg15_155_cif.got.tgz:308753.got - 2010.06.03 18:47:42.
