data_PCOD9284198
_publ_section_title
;
Structure prediction by ZEFSAII (Michael W. Deem and Ramdas Pophale) SiO2 
 PCOD9284198
Probable space group: C 2/C
;
_chemical_formula_sum "Si O2"
_cell_formula_units_Z 56
_cell_length_a 10.988606
_cell_length_b 27.701101
_cell_length_c 13.364718
_cell_angle_alpha 90.000000
_cell_angle_beta 33.678080
_cell_angle_gamma 90.000000
_cell_volume 2255.908210
_symmetry_space_group_name_H-M "C 2/C"
_symmetry_group_IT_number 15
_symmetry_cell_setting 'monoclinic'
loop_
_space_group_symop_operation_xyz
x,y,z
-x,y,1/2-z
-x,-y,-z
x,-y,1/2+z
1/2+x,1/2+y,z
1/2-x,1/2+y,1/2-z
1/2-x,1/2-y,-z
1/2+x,1/2-y,1/2+z
loop_
_atom_site_type_symbol
_atom_site_label
_atom_site_fract_x
_atom_site_fract_y
_atom_site_fract_z
Si Si1 0.383051 0.050809 0.108880
Si Si2 0.500000 0.375312 0.250000
Si Si3 0.597138 0.466858 0.522203
Si Si4 0.684438 0.282242 0.778272
Si Si5 0.000000 0.467869 0.750000
Si Si6 0.742591 0.104101 0.748890
Si Si7 0.159762 0.290203 0.484109
Si Si8 0.734220 0.809140 0.130446
O O1 0.423994 0.059125 0.200510
O O2 0.122310 0.047762 0.268838
O O3 0.510989 0.089187 0.953535
O O4 0.500000 0.000000 0.000000
O O5 0.573343 0.407260 0.293633
O O6 0.303112 0.337790 0.403310
O O7 0.500000 0.500000 0.500000
O O8 0.798541 0.498237 0.425470
O O9 0.706773 0.422105 0.389368
O O10 0.664385 0.243045 0.881550
O O11 0.713335 0.248114 0.662671
O O12 0.908098 0.307881 0.656539
O O13 0.467467 0.314093 0.916455
O O14 0.763501 0.160384 0.711486
O O15 0.250000 0.250000 0.500000
O O16 0.500000 0.825905 0.250000
#
# Coordination Sequence:
#
# PCOD9284198 Si02
#       8
#     8   4   8   8   4   8   8   8
#     4  11  24  45  72 103 140 180 236 286 348 431
#     4  12  24  38  66  99 146 176 218 301 352 398
#     4  10  23  46  69 101 136 180 235 281 353 422
#     4  10  21  40  67  96 129 181 240 274 352 421
#     4  10  22  44  78 101 132 194 224 285 360 420
#     4  12  26  43  68 108 141 182 236 300 349 419
#     4  11  18  37  64  96 133 180 225 277 351 418
#     4  11  24  44  70  95 140 184 236 299 346 418
#
# _framework density 24.823703999999999
#
# number of rings (size 3 to 8) (size 9 to 14) (size 15 to 20)
#    0.000    1.143    5.714    1.286    5.000    1.714 
#    0.000    1.429    3.143    0.000    0.000    0.000 
#    0.000    0.000    0.000    0.000    0.000    0.000 
#
# Total GULP energy -156365.679198 kJ/mol
# GULP energy per Si atom -5584.488543 kJ/mol
# Density = 2.476720 g / cm^3
# Si number density = 24.823704 Si / 1000 Ang^3
#
#
#
# Elastic Constant Matrix: (Units=GPa)
#
#
# Indices 1 2 3 4 5 6 
#
# 1 73.2685 -14.8067 25.3722 0.0000 -28.7147 0.0000
# 2 -14.8067 48.2344 27.4178 0.0000 -5.5651 0.0000
# 3 25.3722 27.4178 181.4643 0.0000 -47.8118 0.0000
# 4 0.0000 0.0000 0.0000 29.3079 0.0000 1.7296
# 5 -28.7147 -5.5651 -47.8118 0.0000 44.6887 0.0000
# 6 0.0000 0.0000 0.0000 1.7296 0.0000 26.3231
#
#
#
# Elastic Compliance Matrix: (Units=1/GPa)
#
#
# Indices 1 2 3 4 5 6 
#
# 1 0.020992 0.008349 -0.000513 0.000000 0.013979 0.000000
# 2 0.008349 0.026044 -0.003947 0.000000 0.004385 0.000000
# 3 -0.000513 -0.003947 0.008303 0.000000 0.008062 0.000000
# 4 0.000000 0.000000 0.000000 0.034253 0.000000 -0.002251
# 5 0.013979 0.004385 0.008062 0.000000 0.040530 0.000000
# 6 0.000000 0.000000 0.000000 -0.002251 0.000000 0.038137
#
#
# Mechanical properties :
#
#
# Convention : Reuss Voigt Hill
#
# Bulk Modulus (GPa) = 15.84405 42.10376 28.97391
# Shear Modulus (GPa) = 27.54480 37.72952 32.63716
#
# Velocity S-wave (km/s) = 3.33471 3.90282 3.62989
# Velocity P-wave (km/s) = 4.60690 6.10797 5.40975
#
# Compressibility (1/GPa) = 0.06311516
#
# Stress axis : x y z
#
# Youngs Moduli (GPa) = 47.63784 38.39596 120.43835
#
# Poissons Ratio (x) = -0.32055 0.06183
# Poissons Ratio (y) = -0.39771 0.47538
# Poissons Ratio (z) = 0.02446 0.15155
#
# Static dielectric constant tensor:
#      x y z
#    x 2.048550 0.000000 0.026560 
#    y 0.000000 2.009710 0.000000 
#    z 0.026560 0.000000 2.170060 
# 
# From -- ./inp_files/149292.got.cif
#   From: 2010.05.17/outbox.cif.g08.bks.cpg/sg15_75_cif.got.tgz:149292.got - 2010.06.03 18:47:42.
