data_PCOD9284803
_publ_section_title
;
Structure prediction by ZEFSAII (Michael W. Deem and Ramdas Pophale) SiO2 
 PCOD9284803
Probable space group: C 2/C
;
_chemical_formula_sum "Si O2"
_cell_formula_units_Z 56
_cell_length_a 18.217764
_cell_length_b 9.539908
_cell_length_c 14.812543
_cell_angle_alpha 90.000000
_cell_angle_beta 113.430666
_cell_angle_gamma 90.000000
_cell_volume 2362.081091
_symmetry_space_group_name_H-M "C 2/C"
_symmetry_group_IT_number 15
_symmetry_cell_setting 'monoclinic'
loop_
_space_group_symop_operation_xyz
x,y,z
-x,y,1/2-z
-x,-y,-z
x,-y,1/2+z
1/2+x,1/2+y,z
1/2-x,1/2+y,1/2-z
1/2-x,1/2-y,-z
1/2+x,1/2-y,1/2+z
loop_
_atom_site_type_symbol
_atom_site_label
_atom_site_fract_x
_atom_site_fract_y
_atom_site_fract_z
Si Si1 0.737704 0.569064 0.263843
Si Si2 0.430140 0.507934 0.322240
Si Si3 0.114272 0.698251 0.253031
Si Si4 0.217395 0.092578 0.577685
Si Si5 0.921781 0.939712 0.029078
Si Si6 0.839077 0.393570 0.983287
Si Si7 0.955658 0.374912 0.587861
O O1 0.644397 0.609818 0.234812
O O2 0.796920 0.671221 0.237976
O O3 0.733954 0.444066 0.189162
O O4 0.780074 0.540089 0.379237
O O5 0.408012 0.361108 0.266193
O O6 0.526836 0.518310 0.367119
O O7 0.428438 0.497371 0.431143
O O8 0.094203 0.648235 0.343580
O O9 0.049144 0.617787 0.158812
O O10 0.161569 0.230251 0.544132
O O11 0.298085 0.113647 0.561507
O O12 0.171842 0.967062 0.503461
O O13 0.942743 0.775446 0.033455
O O14 0.918657 0.486394 0.025862
#
# Coordination Sequence:
#
# PCOD9284803 Si02
#       7
#     8   8   8   8   8   8   8
#     4  11  21  38  64  90 125 170 207 260 315 380
#     4   9  20  37  60  92 128 157 211 258 317 368
#     4  10  21  41  64  94 131 166 213 272 316 381
#     4  10  23  43  62  92 137 166 208 272 323 376
#     4   9  19  39  65  90 121 167 207 263 314 378
#     4  11  24  42  64  94 130 172 212 262 331 385
#     4  10  22  40  69  95 123 169 221 266 319 381
#
# _framework density 23.707906999999999
#
# number of rings (size 3 to 8) (size 9 to 14) (size 15 to 20)
#    0.000    2.000    1.429    1.714    2.000    5.714 
#    0.000    2.857    0.000    0.000    0.000    0.000 
#    0.000    0.000    0.000    0.000    0.000    0.000 
#
# Total GULP energy -156057.363371 kJ/mol
# GULP energy per Si atom -5573.477263 kJ/mol
# Density = 2.365395 g / cm^3
# Si number density = 23.707907 Si / 1000 Ang^3
#
#
#
# Elastic Constant Matrix: (Units=GPa)
#
#
# Indices 1 2 3 4 5 6 
#
# 1 60.4144 22.8582 14.5507 0.0000 8.1977 0.0000
# 2 22.8582 80.2157 32.2323 0.0000 6.1833 0.0000
# 3 14.5507 32.2323 87.8348 0.0000 5.0574 0.0000
# 4 0.0000 0.0000 0.0000 41.3813 0.0000 -0.1246
# 5 8.1977 6.1833 5.0574 0.0000 42.3003 0.0000
# 6 0.0000 0.0000 0.0000 -0.1246 0.0000 32.5283
#
#
#
# Elastic Compliance Matrix: (Units=1/GPa)
#
#
# Indices 1 2 3 4 5 6 
#
# 1 0.019019 -0.004692 -0.001265 0.000000 -0.002849 0.000000
# 2 -0.004692 0.015876 -0.005002 0.000000 -0.000813 0.000000
# 3 -0.001265 -0.005002 0.013467 0.000000 -0.000634 0.000000
# 4 0.000000 0.000000 0.000000 0.024166 0.000000 0.000093
# 5 -0.002849 -0.000813 -0.000634 0.000000 0.024387 0.000000
# 6 0.000000 0.000000 0.000000 0.000093 0.000000 0.030743
#
#
# Mechanical properties :
#
#
# Convention : Reuss Voigt Hill
#
# Bulk Modulus (GPa) = 37.81545 40.86081 39.33813
# Shear Modulus (GPa) = 31.56795 33.83022 32.69909
#
# Velocity S-wave (km/s) = 3.65298 3.78161 3.71785
# Velocity P-wave (km/s) = 5.81185 6.02826 5.92104
#
# Compressibility (1/GPa) = 0.02644422
#
# Stress axis : x y z
#
# Youngs Moduli (GPa) = 52.57989 62.98873 74.25812
#
# Poissons Ratio (x) = 0.29552 0.09393
# Poissons Ratio (y) = 0.24669 0.37143
# Poissons Ratio (z) = 0.06651 0.31506
#
# Static dielectric constant tensor:
#      x y z
#    x 2.204000 0.000000 0.035770 
#    y 0.000000 1.905000 0.000000 
#    z 0.035770 0.000000 1.907360 
# 
# From -- ./inp_files/214025.got.cif
#   From: 2010.05.17/outbox.cif.g08.bks.cpg/sg15_108_cif.got.tgz:214025.got - 2010.06.03 18:47:42.
