data_PCOD9284385
_publ_section_title
;
Structure prediction by ZEFSAII (Michael W. Deem and Ramdas Pophale) SiO2 
 PCOD9284385
Probable space group: C 2/C
;
_chemical_formula_sum "Si O2"
_cell_formula_units_Z 64
_cell_length_a 30.341692
_cell_length_b 9.158700
_cell_length_c 15.419937
_cell_angle_alpha 90.000000
_cell_angle_beta 45.276459
_cell_angle_gamma 90.000000
_cell_volume 3044.574985
_symmetry_space_group_name_H-M "C 2/C"
_symmetry_group_IT_number 15
_symmetry_cell_setting 'monoclinic'
loop_
_space_group_symop_operation_xyz
x,y,z
-x,y,1/2-z
-x,-y,-z
x,-y,1/2+z
1/2+x,1/2+y,z
1/2-x,1/2+y,1/2-z
1/2-x,1/2-y,-z
1/2+x,1/2-y,1/2+z
loop_
_atom_site_type_symbol
_atom_site_label
_atom_site_fract_x
_atom_site_fract_y
_atom_site_fract_z
Si Si1 0.283211 0.928612 0.100029
Si Si2 0.825415 0.110730 0.983675
Si Si3 0.946177 0.958448 0.893847
Si Si4 0.141857 0.087186 0.753394
Si Si5 0.560958 0.344430 0.935060
Si Si6 0.441641 0.206576 0.016460
Si Si7 0.865760 0.424564 0.144958
Si Si8 0.215419 0.401741 0.073150
O O1 0.209272 0.947213 0.198758
O O2 0.312408 0.970993 0.151347
O O3 0.300074 0.759365 0.059945
O O4 0.306914 0.024181 0.985710
O O5 0.851328 0.147681 0.852198
O O6 0.880376 0.025484 0.956207
O O7 0.768375 0.003646 0.042218
O O8 0.000000 0.982422 0.750000
O O9 0.940030 0.787108 0.925661
O O10 0.964092 0.043559 0.957933
O O11 0.109194 0.205752 0.857685
O O12 0.100521 0.941348 0.813382
O O13 0.607098 0.232477 0.917485
O O14 0.508102 0.247842 0.964279
O O15 0.420659 0.041114 0.055388
O O16 0.838337 0.401896 0.279645
O O17 0.250000 0.250000 0.000000
#
# Coordination Sequence:
#
# PCOD9284385 Si02
#       8
#     8   8   8   8   8   8   8   8
#     4  11  24  42  66 103 136 177 228 270 354 404
#     4  11  21  41  63  97 133 169 224 278 339 402
#     4  11  23  40  67  94 124 173 232 286 330 410
#     4  10  21  40  70  92 127 170 220 286 329 407
#     4  11  23  44  64  98 126 179 229 278 341 404
#     4  11  24  41  65  93 132 178 228 271 345 400
#     4  12  25  43  68  97 145 180 218 287 341 412
#     4  11  26  41  68 102 141 179 222 279 341 407
#
# _framework density 21.020997000000001
#
# number of rings (size 3 to 8) (size 9 to 14) (size 15 to 20)
#    0.000    1.000    1.250    7.875    5.250    2.000 
#    0.000    0.625    0.000    0.000    0.000    0.000 
#    0.000    0.000    0.000    0.000    0.000    0.000 
#
# Total GULP energy -178818.105410 kJ/mol
# GULP energy per Si atom -5588.065794 kJ/mol
# Density = 2.097315 g / cm^3
# Si number density = 21.020997 Si / 1000 Ang^3
#
#
#
# Elastic Constant Matrix: (Units=GPa)
#
#
# Indices 1 2 3 4 5 6 
#
# 1 66.3120 -13.1229 10.2869 0.0000 -2.9688 0.0000
# 2 -13.1229 84.3041 19.6861 0.0001 -1.8496 -0.0001
# 3 10.2869 19.6861 81.4983 0.0000 -12.3062 0.0000
# 4 0.0000 0.0001 0.0000 26.9469 0.0000 0.3637
# 5 -2.9688 -1.8496 -12.3062 0.0000 16.4211 0.0000
# 6 0.0000 -0.0001 0.0000 0.3637 0.0000 18.5638
#
#
#
# Elastic Compliance Matrix: (Units=1/GPa)
#
#
# Indices 1 2 3 4 5 6 
#
# 1 0.016167 0.003153 -0.002602 0.000000 0.001328 0.000000
# 2 0.003153 0.013200 -0.003694 0.000000 -0.000711 0.000000
# 3 -0.002602 -0.003694 0.015061 0.000000 0.010401 0.000000
# 4 0.000000 0.000000 0.000000 0.037120 0.000000 -0.000727
# 5 0.001328 -0.000711 0.010401 0.000000 0.068852 0.000000
# 6 0.000000 0.000000 0.000000 -0.000727 0.000000 0.053883
#
#
# Mechanical properties :
#
#
# Convention : Reuss Voigt Hill
#
# Bulk Modulus (GPa) = 26.21663 29.53496 27.87579
# Shear Modulus (GPa) = 22.39321 26.73730 24.56525
#
# Velocity S-wave (km/s) = 3.26740 3.57029 3.42220
# Velocity P-wave (km/s) = 5.17042 5.57464 5.37633
#
# Compressibility (1/GPa) = 0.03814373
#
# Stress axis : x y z
#
# Youngs Moduli (GPa) = 61.85304 75.75973 66.39499
#
# Poissons Ratio (x) = -0.23890 0.17275
# Poissons Ratio (y) = -0.19504 0.24525
# Poissons Ratio (z) = 0.16093 0.27984
#
# Static dielectric constant tensor:
#      x y z
#    x 1.782520 0.000000 0.006220 
#    y 0.000000 1.761270 0.000000 
#    z 0.006220 0.000000 1.770620 
# 
# From -- ./inp_files/181125.got.cif
#   From: 2010.05.17/outbox.cif.g08.bks.cpg/sg15_91_cif.got.tgz:181125.got - 2010.06.03 18:47:42.
