data_PCOD9284620
_publ_section_title
;
Structure prediction by ZEFSAII (Michael W. Deem and Ramdas Pophale) SiO2 
 PCOD9284620
Probable space group: C 2/C
;
_chemical_formula_sum "Si O2"
_cell_formula_units_Z 40
_cell_length_a 8.379006
_cell_length_b 8.084451
_cell_length_c 23.285174
_cell_angle_alpha 90.000000
_cell_angle_beta 108.475863
_cell_angle_gamma 90.000000
_cell_volume 1496.029919
_symmetry_space_group_name_H-M "C 2/C"
_symmetry_group_IT_number 15
_symmetry_cell_setting 'monoclinic'
loop_
_space_group_symop_operation_xyz
x,y,z
-x,y,1/2-z
-x,-y,-z
x,-y,1/2+z
1/2+x,1/2+y,z
1/2-x,1/2+y,1/2-z
1/2-x,1/2-y,-z
1/2+x,1/2-y,1/2+z
loop_
_atom_site_type_symbol
_atom_site_label
_atom_site_fract_x
_atom_site_fract_y
_atom_site_fract_z
Si Si1 0.344391 0.073463 0.020295
Si Si2 0.694848 0.744654 0.265332
Si Si3 0.779716 0.560313 0.620613
Si Si4 0.091039 0.915774 0.915967
Si Si5 0.831863 0.920064 0.191298
O O1 0.392472 0.058209 0.092826
O O2 0.250000 0.250000 0.000000
O O3 0.500000 0.000000 0.000000
O O4 0.198226 0.946390 0.985090
O O5 0.500000 0.711851 0.250000
O O6 0.724317 0.895522 0.312171
O O7 0.773855 0.577552 0.297787
O O8 0.726008 0.767860 0.201797
O O9 0.846057 0.739477 0.602699
O O10 0.599184 0.469258 0.591700
O O11 0.138901 0.047139 0.871119
O O12 0.000000 0.893866 0.250000
#
# Coordination Sequence:
#
# PCOD9284620 Si02
#       5
#     8   8   8   8   8
#     4  12  26  42  65  99 132 168 226 287 344 414
#     4  10  23  39  64  94 130 171 213 275 336 402
#     4  11  23  44  68  93 131 179 224 279 344 421
#     4  11  23  43  69  92 131 180 225 274 350 419
#     4  10  21  41  62  94 128 167 220 266 335 408
#
# _framework density 26.737432999999999
#
# number of rings (size 3 to 8) (size 9 to 14) (size 15 to 20)
#    0.000    1.200    2.000    3.600    2.800    2.400 
#    0.000    0.000    0.000    0.000    0.000    0.000 
#    0.000    0.000    0.000    0.000    0.000    0.000 
#
# Total GULP energy -111380.777224 kJ/mol
# GULP energy per Si atom -5569.038861 kJ/mol
# Density = 2.667658 g / cm^3
# Si number density = 26.737433 Si / 1000 Ang^3
#
#
#
# Elastic Constant Matrix: (Units=GPa)
#
#
# Indices 1 2 3 4 5 6 
#
# 1 120.8626 36.8999 29.9874 0.0000 -13.5694 0.0000
# 2 36.8999 145.7649 28.9811 0.0000 -7.9502 0.0000
# 3 29.9874 28.9811 117.1825 0.0000 -21.9778 0.0000
# 4 0.0000 0.0000 0.0000 861.6294 0.0000 -427.5995
# 5 -13.5694 -7.9502 -21.9778 0.0000 57.8732 0.0000
# 6 0.0000 0.0000 0.0000 -427.5995 0.0000 242.5656
#
#
#
# Elastic Compliance Matrix: (Units=1/GPa)
#
#
# Indices 1 2 3 4 5 6 
#
# 1 0.009443 -0.001985 -0.001681 0.000000 0.001303 0.000000
# 2 -0.001985 0.007639 -0.001369 0.000000 0.000064 0.000000
# 3 -0.001681 -0.001369 0.009898 0.000000 0.003177 0.000000
# 4 0.000000 0.000000 0.000000 0.009272 0.000000 0.016345
# 5 0.001303 0.000064 0.003177 0.000000 0.018800 0.000000
# 6 0.000000 0.000000 0.000000 0.016345 0.000000 0.032937
#
#
# Mechanical properties :
#
#
# Convention : Reuss Voigt Hill
#
# Bulk Modulus (GPa) = 59.13965 63.94965 61.54465
# Shear Modulus (GPa) = 48.21762 251.60975 149.91368
#
# Velocity S-wave (km/s) = 4.25122 9.71124 7.49604
# Velocity P-wave (km/s) = 6.80176 12.23576 9.89893
#
# Compressibility (1/GPa) = 0.01690913
#
# Stress axis : x y z
#
# Youngs Moduli (GPa) = 105.89432 130.91379 101.02706
#
# Poissons Ratio (x) = 0.25989 0.16985
# Poissons Ratio (y) = 0.21022 0.13832
# Poissons Ratio (z) = 0.17803 0.17924
#
# Static dielectric constant tensor:
#      x y z
#    x 2.017140 0.000000 -0.147300 
#    y 0.000000 2.285690 0.000000 
#    z -0.147300 0.000000 1.868020 
# 
# From -- ./inp_files/262512.got.cif
#   From: 2010.05.17/outbox.cif.g08.bks.cpg/sg15_132_cif.got.tgz:262512.got - 2010.06.03 18:47:42.
