data_PCOD9284516
_publ_section_title
;
Structure prediction by ZEFSAII (Michael W. Deem and Ramdas Pophale) SiO2 
 PCOD9284516
Probable space group: C 2/C
;
_chemical_formula_sum "Si O2"
_cell_formula_units_Z 56
_cell_length_a 14.816750
_cell_length_b 17.865882
_cell_length_c 10.966387
_cell_angle_alpha 90.000000
_cell_angle_beta 111.903504
_cell_angle_gamma 90.000000
_cell_volume 2693.404878
_symmetry_space_group_name_H-M "C 2/C"
_symmetry_group_IT_number 15
_symmetry_cell_setting 'monoclinic'
loop_
_space_group_symop_operation_xyz
x,y,z
-x,y,1/2-z
-x,-y,-z
x,-y,1/2+z
1/2+x,1/2+y,z
1/2-x,1/2+y,1/2-z
1/2-x,1/2-y,-z
1/2+x,1/2-y,1/2+z
loop_
_atom_site_type_symbol
_atom_site_label
_atom_site_fract_x
_atom_site_fract_y
_atom_site_fract_z
Si Si1 0.524503 0.057901 0.902662
Si Si2 0.855845 0.202030 0.869316
Si Si3 0.051474 0.060743 0.660698
Si Si4 0.753938 0.097421 0.019030
Si Si5 0.346472 0.457499 0.949517
Si Si6 0.785575 0.821825 0.790700
Si Si7 0.977032 0.274731 0.381335
O O1 0.500000 0.032518 0.750000
O O2 0.638716 0.081171 0.962336
O O3 0.467558 0.136147 0.896410
O O4 0.500000 0.000000 0.000000
O O5 0.905784 0.142792 0.804445
O O6 0.785271 0.154046 0.924755
O O7 0.801875 0.264459 0.765188
O O8 0.935002 0.241564 0.995138
O O9 0.000000 0.026452 0.750000
O O10 0.958400 0.068305 0.524805
O O11 0.138606 0.009421 0.660703
O O12 0.806157 0.017313 0.024831
O O13 0.787795 0.136607 0.160590
O O14 0.280805 0.386522 0.889461
O O15 0.881214 0.772618 0.859804
O O16 0.000000 0.265066 0.250000
#
# Coordination Sequence:
#
# PCOD9284516 Si02
#       7
#     8   8   8   8   8   8   8
#     4  11  26  46  69  99 140 184 231 285 345 409
#     4  11  21  39  64  97 126 168 217 281 331 395
#     4  10  21  41  60  92 132 164 211 278 342 413
#     4  11  23  40  67  98 128 168 228 284 335 408
#     4  10  23  38  65  95 127 169 218 271 353 402
#     4  12  22  39  67  94 129 171 225 279 341 405
#     4  11  21  39  68  96 129 168 226 278 335 389
#
# _framework density 20.791526999999999
#
# number of rings (size 3 to 8) (size 9 to 14) (size 15 to 20)
#    0.000    1.143    4.286    3.000    2.000    0.571 
#    2.571    2.857    0.000    0.000    0.000    0.000 
#    0.000    0.000    0.000    0.000    0.000    0.000 
#
# Total GULP energy -156246.656412 kJ/mol
# GULP energy per Si atom -5580.237729 kJ/mol
# Density = 2.074420 g / cm^3
# Si number density = 20.791527 Si / 1000 Ang^3
#
#
#
# Elastic Constant Matrix: (Units=GPa)
#
#
# Indices 1 2 3 4 5 6 
#
# 1 51.2133 29.1672 24.5179 0.0000 16.5011 0.0000
# 2 29.1672 114.7901 38.2582 0.0000 27.0063 0.0000
# 3 24.5179 38.2582 61.5365 0.0000 23.2846 0.0000
# 4 0.0000 0.0000 0.0000 31.4307 0.0000 2.1562
# 5 16.5011 27.0063 23.2846 0.0000 25.6882 0.0000
# 6 0.0000 0.0000 0.0000 2.1562 0.0000 33.9164
#
#
#
# Elastic Compliance Matrix: (Units=1/GPa)
#
#
# Indices 1 2 3 4 5 6 
#
# 1 0.026698 -0.002798 -0.005360 0.000000 -0.009350 0.000000
# 2 -0.002798 0.012533 -0.003610 0.000000 -0.008107 0.000000
# 3 -0.005360 -0.003610 0.027231 0.000000 -0.017446 0.000000
# 4 0.000000 0.000000 0.000000 0.031955 0.000000 -0.002032
# 5 -0.009350 -0.008107 -0.017446 0.000000 0.069271 0.000000
# 6 0.000000 0.000000 0.000000 -0.002032 0.000000 0.029613
#
#
# Mechanical properties :
#
#
# Convention : Reuss Voigt Hill
#
# Bulk Modulus (GPa) = 23.29479 45.71406 34.50443
# Shear Modulus (GPa) = 21.26341 27.24683 24.25512
#
# Velocity S-wave (km/s) = 3.20143 3.62398 3.41924
# Velocity P-wave (km/s) = 4.98937 6.28853 5.67624
#
# Compressibility (1/GPa) = 0.04292805
#
# Stress axis : x y z
#
# Youngs Moduli (GPa) = 37.45564 79.79126 36.72229
#
# Poissons Ratio (x) = 0.22322 0.19683
# Poissons Ratio (y) = 0.10478 0.13255
# Poissons Ratio (z) = 0.20076 0.28802
#
# Static dielectric constant tensor:
#      x y z
#    x 1.725990 0.000000 0.006260 
#    y 0.000000 1.759950 0.000000 
#    z 0.006260 0.000000 1.810100 
# 
# From -- ./inp_files/98250.got.cif
#   From: 2010.05.17/outbox.cif.g08.bks.cpg/sg15_50_cif.got.tgz:98250.got - 2010.06.03 18:47:42.
