data_PCOD9284945
_publ_section_title
;
Structure prediction by ZEFSAII (Michael W. Deem and Ramdas Pophale) SiO2 
 PCOD9284945
Probable space group: C 2/C
;
_chemical_formula_sum "Si O2"
_cell_formula_units_Z 48
_cell_length_a 12.551656
_cell_length_b 20.956974
_cell_length_c 12.348414
_cell_angle_alpha 90.000000
_cell_angle_beta 42.945301
_cell_angle_gamma 90.000000
_cell_volume 2212.988070
_symmetry_space_group_name_H-M "C 2/C"
_symmetry_group_IT_number 15
_symmetry_cell_setting 'monoclinic'
loop_
_space_group_symop_operation_xyz
x,y,z
-x,y,1/2-z
-x,-y,-z
x,-y,1/2+z
1/2+x,1/2+y,z
1/2-x,1/2+y,1/2-z
1/2-x,1/2-y,-z
1/2+x,1/2-y,1/2+z
loop_
_atom_site_type_symbol
_atom_site_label
_atom_site_fract_x
_atom_site_fract_y
_atom_site_fract_z
Si Si1 0.174135 0.203283 0.147850
Si Si2 0.619493 0.325425 0.259951
Si Si3 0.384052 0.260902 0.569036
Si Si4 0.862247 0.418366 0.593642
Si Si5 0.714158 0.941236 0.382733
Si Si6 0.328426 0.125284 0.357450
O O1 0.130648 0.239955 0.291533
O O2 0.291414 0.145059 0.091089
O O3 0.000000 0.176942 0.250000
O O4 0.250000 0.250000 0.000000
O O5 0.500000 0.322283 0.250000
O O6 0.555481 0.275895 0.397003
O O7 0.791164 0.300538 0.097539
O O8 0.648903 0.398338 0.272856
O O9 0.290741 0.320139 0.587487
O O10 0.776940 0.482756 0.620152
O O11 0.840079 0.415588 0.739599
O O12 0.050306 0.425419 0.443171
O O13 0.712947 0.916873 0.508090
O O14 0.500000 0.154194 0.250000
#
# Coordination Sequence:
#
# PCOD9284945 Si02
#       6
#     8   8   8   8   8   8
#     4  11  25  47  68  95 130 180 225 281 340 399
#     4  12  24  37  66 100 133 170 214 275 339 398
#     4  11  24  40  61  99 133 169 219 276 333 399
#     4   9  22  43  67  93 134 175 227 280 333 403
#     4  10  21  41  65  98 132 179 223 271 342 409
#     4   9  18  37  63  89 128 170 215 272 329 391
#
# _framework density 21.690131999999998
#
# number of rings (size 3 to 8) (size 9 to 14) (size 15 to 20)
#    0.000    1.667    1.667    2.000    9.333    0.667 
#    6.000    2.500    0.000    0.000    0.000    0.000 
#    0.000    0.000    0.000    0.000    0.000    0.000 
#
# Total GULP energy -133942.340402 kJ/mol
# GULP energy per Si atom -5580.930850 kJ/mol
# Density = 2.164076 g / cm^3
# Si number density = 21.690132 Si / 1000 Ang^3
#
#
#
# Elastic Constant Matrix: (Units=GPa)
#
#
# Indices 1 2 3 4 5 6 
#
# 1 76.7331 28.6982 26.4919 -0.0001 7.7717 0.0001
# 2 28.6982 114.7306 36.1509 0.0000 6.7198 0.0000
# 3 26.4919 36.1509 96.1111 -0.0001 9.2157 0.0000
# 4 -0.0001 0.0000 -0.0001 22.3099 0.0001 -5.7228
# 5 7.7717 6.7198 9.2157 0.0001 26.7541 0.0000
# 6 0.0001 0.0000 0.0000 -5.7228 0.0000 32.5637
#
#
#
# Elastic Compliance Matrix: (Units=1/GPa)
#
#
# Indices 1 2 3 4 5 6 
#
# 1 0.015354 -0.002755 -0.002931 0.000000 -0.002758 0.000000
# 2 -0.002755 0.010423 -0.003089 0.000000 -0.000754 0.000000
# 3 -0.002931 -0.003089 0.012636 0.000000 -0.002725 0.000000
# 4 0.000000 0.000000 0.000000 0.046939 0.000000 0.008249
# 5 -0.002758 -0.000754 -0.002725 0.000000 0.039307 0.000000
# 6 0.000000 0.000000 0.000000 0.008249 0.000000 0.032159
#
#
# Mechanical properties :
#
#
# Convention : Reuss Voigt Hill
#
# Bulk Modulus (GPa) = 47.93446 52.25073 50.09259
# Shear Modulus (GPa) = 27.57534 29.40780 28.49157
#
# Velocity S-wave (km/s) = 3.56944 3.68613 3.62826
# Velocity P-wave (km/s) = 6.25584 6.50067 6.37943
#
# Compressibility (1/GPa) = 0.02086182
#
# Stress axis : x y z
#
# Youngs Moduli (GPa) = 65.12922 95.94507 79.14125
#
# Poissons Ratio (x) = 0.26437 0.23198
# Poissons Ratio (y) = 0.17946 0.24443
# Poissons Ratio (z) = 0.19091 0.29633
#
# Static dielectric constant tensor:
#      x y z
#    x 1.833740 0.000000 -0.062450 
#    y 0.000000 1.781150 0.000000 
#    z -0.062450 0.000000 1.994510 
# 
# From -- ./inp_files/89414.got.cif
#   From: 2010.05.17/outbox.cif.g08.bks.cpg/sg15_45_cif.got.tgz:89414.got - 2010.06.03 18:47:42.
