data_PCOD9284132
_publ_section_title
;
Structure prediction by ZEFSAII (Michael W. Deem and Ramdas Pophale) SiO2 
 PCOD9284132
Probable space group: C 2/C
;
_chemical_formula_sum "Si O2"
_cell_formula_units_Z 32
_cell_length_a 7.296334
_cell_length_b 18.886463
_cell_length_c 11.373669
_cell_angle_alpha 90.000000
_cell_angle_beta 118.194214
_cell_angle_gamma 90.000000
_cell_volume 1381.353740
_symmetry_space_group_name_H-M "C 2/C"
_symmetry_group_IT_number 15
_symmetry_cell_setting 'monoclinic'
loop_
_space_group_symop_operation_xyz
x,y,z
-x,y,1/2-z
-x,-y,-z
x,-y,1/2+z
1/2+x,1/2+y,z
1/2-x,1/2+y,1/2-z
1/2-x,1/2-y,-z
1/2+x,1/2-y,1/2+z
loop_
_atom_site_type_symbol
_atom_site_label
_atom_site_fract_x
_atom_site_fract_y
_atom_site_fract_z
Si Si1 0.730531 0.649325 0.863975
Si Si2 0.775612 0.508387 0.989144
Si Si3 0.500000 0.596864 0.250000
Si Si4 0.500000 0.065370 0.750000
Si Si5 0.986034 0.764369 0.613284
O O1 0.500000 0.666510 0.750000
O O2 0.708913 0.589760 0.957724
O O3 0.871811 0.609142 0.808508
O O4 0.861256 0.720540 0.923713
O O5 0.642473 0.456158 0.867653
O O6 0.000000 0.500000 0.000000
O O7 0.818902 0.481132 0.133158
O O8 0.445544 0.654853 0.336780
O O9 0.750000 0.750000 0.500000
O O10 0.000000 0.734533 0.750000
#
# Coordination Sequence:
#
# PCOD9284132 Si02
#       5
#     8   8   4   4   8
#     4  11  22  41  69 101 137 172 231 285 330 403
#     4  10  21  40  67 103 133 172 230 279 332 406
#     4  10  21  40  72  96 129 186 222 270 341 412
#     4  10  21  40  68  94 141 184 208 282 355 386
#     4  10  22  41  71  91 135 187 222 263 348 407
#
# _framework density 23.165683000000001
#
# number of rings (size 3 to 8) (size 9 to 14) (size 15 to 20)
#    0.750    1.000    2.500    3.000    0.000    1.000 
#    0.000    1.250   11.000    0.000    0.000    0.000 
#    0.000    0.000    0.000    0.000    0.000    0.000 
#
# Total GULP energy -89081.649380 kJ/mol
# GULP energy per Si atom -5567.603086 kJ/mol
# Density = 2.311296 g / cm^3
# Si number density = 23.165683 Si / 1000 Ang^3
#
#
#
# Elastic Constant Matrix: (Units=GPa)
#
#
# Indices 1 2 3 4 5 6 
#
# 1 66.7595 43.5365 29.7347 0.0000 5.1293 0.0000
# 2 43.5365 152.1910 75.8960 0.0000 11.7453 0.0000
# 3 29.7347 75.8960 177.5167 0.0000 19.3556 0.0000
# 4 0.0000 0.0000 0.0000 13.6008 0.0000 11.6080
# 5 5.1293 11.7453 19.3556 0.0000 41.4082 0.0000
# 6 0.0000 0.0000 0.0000 11.6080 0.0000 33.4647
#
#
#
# Elastic Compliance Matrix: (Units=1/GPa)
#
#
# Indices 1 2 3 4 5 6 
#
# 1 0.018581 -0.004769 -0.001022 0.000000 -0.000471 0.000000
# 2 -0.004769 0.009597 -0.003237 0.000000 -0.000618 0.000000
# 3 -0.001022 -0.003237 0.007454 0.000000 -0.002440 0.000000
# 4 0.000000 0.000000 0.000000 0.104446 0.000000 -0.036230
# 5 -0.000471 -0.000618 -0.002440 0.000000 0.025524 0.000000
# 6 0.000000 0.000000 0.000000 -0.036230 0.000000 0.042449
#
#
# Mechanical properties :
#
#
# Convention : Reuss Voigt Hill
#
# Bulk Modulus (GPa) = 56.89580 77.20018 67.04799
# Shear Modulus (GPa) = 21.55486 34.18140 27.86813
#
# Velocity S-wave (km/s) = 3.05366 3.84542 3.47218
# Velocity P-wave (km/s) = 6.08661 7.28793 6.71419
#
# Compressibility (1/GPa) = 0.01757599
#
# Stress axis : x y z
#
# Youngs Moduli (GPa) = 53.81908 104.20025 134.15051
#
# Poissons Ratio (x) = 0.49697 0.13708
# Poissons Ratio (y) = 0.25668 0.43422
# Poissons Ratio (z) = 0.05500 0.33727
#
# Static dielectric constant tensor:
#      x y z
#    x 1.910570 0.000000 -0.004670 
#    y 0.000000 2.026720 0.000000 
#    z -0.004670 0.000000 1.882390 
# 
# From -- ./inp_files/136358.got.cif
#   From: 2010.05.17/outbox.cif.g08.bks.cpg/sg15_69_cif.got.tgz:136358.got - 2010.06.03 18:47:42.
