data_PCOD9284854
_publ_section_title
;
Structure prediction by ZEFSAII (Michael W. Deem and Ramdas Pophale) SiO2 
 PCOD9284854
Probable space group: C 2/C
;
_chemical_formula_sum "Si O2"
_cell_formula_units_Z 64
_cell_length_a 5.296788
_cell_length_b 25.118933
_cell_length_c 23.139789
_cell_angle_alpha 90.000000
_cell_angle_beta 87.263989
_cell_angle_gamma 90.000000
_cell_volume 3075.231579
_symmetry_space_group_name_H-M "C 2/C"
_symmetry_group_IT_number 15
_symmetry_cell_setting 'monoclinic'
loop_
_space_group_symop_operation_xyz
x,y,z
-x,y,1/2-z
-x,-y,-z
x,-y,1/2+z
1/2+x,1/2+y,z
1/2-x,1/2+y,1/2-z
1/2-x,1/2-y,-z
1/2+x,1/2-y,1/2+z
loop_
_atom_site_type_symbol
_atom_site_label
_atom_site_fract_x
_atom_site_fract_y
_atom_site_fract_z
Si Si1 0.079354 0.346587 0.576763
Si Si2 0.793746 0.953833 0.004622
Si Si3 0.153310 0.124340 0.537759
Si Si4 0.892210 0.477376 0.093193
Si Si5 0.093558 0.226284 0.614619
Si Si6 0.245901 0.969205 0.713974
Si Si7 0.927690 0.744670 0.815057
Si Si8 0.437204 0.365526 0.851726
O O1 0.126734 0.364139 0.510673
O O2 0.105570 0.282511 0.580982
O O3 0.299278 0.371213 0.616055
O O4 0.806684 0.359708 0.604855
O O5 0.665075 0.958404 0.068710
O O6 0.926829 0.897736 0.001368
O O7 0.636042 0.971653 0.950199
O O8 0.000000 0.000000 0.000000
O O9 0.228463 0.074437 0.577290
O O10 0.074836 0.176290 0.572815
O O11 0.834419 0.495911 0.157926
O O12 0.357987 0.221564 0.645315
O O13 0.852342 0.229596 0.660080
O O14 0.500000 0.961094 0.750000
O O15 0.131445 0.914378 0.689114
O O16 0.000000 0.993035 0.750000
O O17 0.952548 0.808881 0.818976
O O18 0.000000 0.727653 0.750000
#
# Coordination Sequence:
#
# PCOD9284854 Si02
#       8
#     8   8   8   8   8   8   8   8
#     4  10  22  38  64  98 130 162 197 265 318 396
#     4   9  21  39  68  92 121 166 214 274 309 379
#     4  11  23  38  65  89 130 168 204 258 326 379
#     4  10  24  42  64  95 124 170 225 259 327 384
#     4  10  23  39  61  97 127 161 207 262 314 385
#     4  12  27  43  66  93 132 171 210 275 325 381
#     4  10  21  41  65  87 124 167 214 260 304 369
#     4  10  22  40  65  96 126 158 214 253 330 386
#
# _framework density 20.811440000000001
#
# number of rings (size 3 to 8) (size 9 to 14) (size 15 to 20)
#    0.000    1.750    0.000    2.625   12.250    2.000 
#    0.000    5.625    0.000    0.000    0.000    0.000 
#    0.000    0.000    0.000    0.000    0.000    0.000 
#
# Total GULP energy -178611.092733 kJ/mol
# GULP energy per Si atom -5581.596648 kJ/mol
# Density = 2.076407 g / cm^3
# Si number density = 20.811440 Si / 1000 Ang^3
#
#
#
# Elastic Constant Matrix: (Units=GPa)
#
#
# Indices 1 2 3 4 5 6 
#
# 1 105.7977 23.5885 25.1031 0.0000 -3.4626 0.0000
# 2 23.5885 74.8416 51.1074 0.0000 13.8320 0.0000
# 3 25.1031 51.1074 109.9044 0.0000 -10.6842 0.0000
# 4 0.0000 0.0000 0.0000 19.8036 0.0000 0.4262
# 5 -3.4626 13.8320 -10.6842 0.0000 27.4451 0.0000
# 6 0.0000 0.0000 0.0000 0.4262 0.0000 17.2365
#
#
#
# Elastic Compliance Matrix: (Units=1/GPa)
#
#
# Indices 1 2 3 4 5 6 
#
# 1 0.010440 -0.003502 -0.000474 0.000000 0.002897 0.000000
# 2 -0.003502 0.027706 -0.014015 0.000000 -0.019861 0.000000
# 3 -0.000474 -0.014015 0.017050 0.000000 0.013641 0.000000
# 4 0.000000 0.000000 0.000000 0.050523 0.000000 -0.001249
# 5 0.002897 -0.019861 0.013641 0.000000 0.052122 0.000000
# 6 0.000000 0.000000 0.000000 -0.001249 0.000000 0.058047
#
#
# Mechanical properties :
#
#
# Convention : Reuss Voigt Hill
#
# Bulk Modulus (GPa) = 52.04441 54.46018 53.25229
# Shear Modulus (GPa) = 19.35907 25.61335 22.48621
#
# Velocity S-wave (km/s) = 3.05325 3.51199 3.29062
# Velocity P-wave (km/s) = 6.12304 6.53227 6.33097
#
# Compressibility (1/GPa) = 0.01921436
#
# Stress axis : x y z
#
# Youngs Moduli (GPa) = 95.78347 36.09277 58.64965
#
# Poissons Ratio (x) = 0.12640 0.02783
# Poissons Ratio (y) = 0.33544 0.82196
# Poissons Ratio (z) = 0.04544 0.50583
#
# Static dielectric constant tensor:
#      x y z
#    x 1.811540 0.000000 0.037060 
#    y 0.000000 1.784300 0.000000 
#    z 0.037060 0.000000 1.828750 
# 
# From -- ./inp_files/261690.got.cif
#   From: 2010.05.17/outbox.cif.g08.bks.cpg/sg15_131_cif.got.tgz:261690.got - 2010.06.03 18:47:42.
