data_PCOD9284040
_publ_section_title
;
Structure prediction by ZEFSAII (Michael W. Deem and Ramdas Pophale) SiO2 
 PCOD9284040
Probable space group: C 2/C
;
_chemical_formula_sum "Si O2"
_cell_formula_units_Z 56
_cell_length_a 12.708717
_cell_length_b 22.179138
_cell_length_c 9.447612
_cell_angle_alpha 90.000000
_cell_angle_beta 104.067978
_cell_angle_gamma 90.000000
_cell_volume 2583.115022
_symmetry_space_group_name_H-M "C 2/C"
_symmetry_group_IT_number 15
_symmetry_cell_setting 'monoclinic'
loop_
_space_group_symop_operation_xyz
x,y,z
-x,y,1/2-z
-x,-y,-z
x,-y,1/2+z
1/2+x,1/2+y,z
1/2-x,1/2+y,1/2-z
1/2-x,1/2-y,-z
1/2+x,1/2-y,1/2+z
loop_
_atom_site_type_symbol
_atom_site_label
_atom_site_fract_x
_atom_site_fract_y
_atom_site_fract_z
Si Si1 0.192547 0.663298 0.453146
Si Si2 0.614687 0.247194 0.198248
Si Si3 0.589174 0.956766 0.458035
Si Si4 0.371155 0.625187 0.731208
Si Si5 0.692741 0.048597 0.284378
Si Si6 0.991120 0.321108 0.088010
Si Si7 0.582116 0.504923 0.154456
O O1 0.197604 0.715258 0.335328
O O2 0.300325 0.641555 0.569962
O O3 0.145134 0.606492 0.349211
O O4 0.106399 0.680492 0.545567
O O5 0.500000 0.246850 0.250000
O O6 0.648275 0.316051 0.178527
O O7 0.591525 0.212059 0.045991
O O8 0.676257 0.950248 0.611816
O O9 0.544154 0.890906 0.412098
O O10 0.500000 0.000000 0.500000
O O11 0.637464 0.990762 0.338621
O O12 0.500000 0.624457 0.750000
O O13 0.355680 0.557855 0.785146
O O14 0.820964 0.049034 0.350300
O O15 0.000000 0.296151 0.250000
O O16 0.500000 0.523828 0.250000
O O17 0.500000 0.500000 0.000000
#
# Coordination Sequence:
#
# PCOD9284040 Si02
#       7
#     8   8   8   8   8   8   8
#     4  11  21  39  65  93 126 165 214 260 312 383
#     4   9  20  40  66  92 124 164 211 262 315 378
#     4  12  23  35  57  92 131 163 201 245 315 386
#     4  10  21  40  66  92 118 164 219 268 311 369
#     4  12  23  38  61  93 125 169 206 255 318 381
#     4  11  23  39  59  93 135 165 199 257 318 384
#     4  11  24  44  64  92 126 163 218 273 316 367
#
# _framework density 21.679252000000002
#
# number of rings (size 3 to 8) (size 9 to 14) (size 15 to 20)
#    0.000    1.143    2.857    5.143    2.000    0.000 
#    0.000    1.429    0.000    0.000    0.000    0.000 
#    0.000    0.000    0.000    0.000    0.000    0.000 
#
# Total GULP energy -156370.062993 kJ/mol
# GULP energy per Si atom -5584.645107 kJ/mol
# Density = 2.162991 g / cm^3
# Si number density = 21.679252 Si / 1000 Ang^3
#
#
#
# Elastic Constant Matrix: (Units=GPa)
#
#
# Indices 1 2 3 4 5 6 
#
# 1 60.9063 -0.4600 22.6436 0.0000 4.3513 0.0000
# 2 -0.4600 69.7685 5.0159 0.0000 -12.1537 0.0000
# 3 22.6436 5.0159 128.0320 0.0000 2.8526 0.0000
# 4 0.0000 0.0000 0.0000 34.7753 0.0000 -6.4417
# 5 4.3513 -12.1537 2.8526 0.0000 39.0013 0.0000
# 6 0.0000 0.0000 0.0000 -6.4417 0.0000 93.8431
#
#
#
# Elastic Compliance Matrix: (Units=1/GPa)
#
#
# Indices 1 2 3 4 5 6 
#
# 1 0.017692 0.000036 -0.003092 0.000000 -0.001736 0.000000
# 2 0.000036 0.015219 -0.000709 0.000000 0.004790 0.000000
# 3 -0.003092 -0.000709 0.008396 0.000000 -0.000490 0.000000
# 4 0.000000 0.000000 0.000000 0.029126 0.000000 0.001999
# 5 -0.001736 0.004790 -0.000490 0.000000 0.027363 0.000000
# 6 0.000000 0.000000 0.000000 0.001999 0.000000 0.010793
#
#
# Mechanical properties :
#
#
# Convention : Reuss Voigt Hill
#
# Bulk Modulus (GPa) = 29.60522 34.78955 32.19739
# Shear Modulus (GPa) = 39.25310 48.95776 44.10543
#
# Velocity S-wave (km/s) = 4.25977 4.75729 4.51539
# Velocity P-wave (km/s) = 6.15466 6.80132 6.48605
#
# Compressibility (1/GPa) = 0.03377782
#
# Stress axis : x y z
#
# Youngs Moduli (GPa) = 56.52120 65.70810 119.10321
#
# Poissons Ratio (x) = -0.00239 0.36825
# Poissons Ratio (y) = -0.00206 0.08449
# Poissons Ratio (z) = 0.17475 0.04661
#
# Static dielectric constant tensor:
#      x y z
#    x 1.786730 0.000000 0.040180 
#    y 0.000000 1.839260 0.000000 
#    z 0.040180 0.000000 1.729570 
# 
# From -- ./inp_files/42273.got.cif
#   From: 2010.05.17/outbox.cif.g08.bks.cpg/sg15_22_cif.got.tgz:42273.got - 2010.06.03 18:47:42.
