data_PCOD9284888
_publ_section_title
;
Structure prediction by ZEFSAII (Michael W. Deem and Ramdas Pophale) SiO2 
 PCOD9284888
Probable space group: C 2/C
;
_chemical_formula_sum "Si O2"
_cell_formula_units_Z 40
_cell_length_a 15.121057
_cell_length_b 7.167843
_cell_length_c 13.676133
_cell_angle_alpha 90.000000
_cell_angle_beta 103.770712
_cell_angle_gamma 90.000000
_cell_volume 1439.685740
_symmetry_space_group_name_H-M "C 2/C"
_symmetry_group_IT_number 15
_symmetry_cell_setting 'monoclinic'
loop_
_space_group_symop_operation_xyz
x,y,z
-x,y,1/2-z
-x,-y,-z
x,-y,1/2+z
1/2+x,1/2+y,z
1/2-x,1/2+y,1/2-z
1/2-x,1/2-y,-z
1/2+x,1/2-y,1/2+z
loop_
_atom_site_type_symbol
_atom_site_label
_atom_site_fract_x
_atom_site_fract_y
_atom_site_fract_z
Si Si1 0.150691 0.914103 0.282914
Si Si2 0.163625 0.395070 0.043252
Si Si3 0.753801 0.922123 0.383687
Si Si4 0.592151 0.492009 0.964728
Si Si5 0.905516 0.483943 0.277703
O O1 0.243887 0.918046 0.370245
O O2 0.178980 0.997824 0.185725
O O3 0.081650 0.000490 0.344925
O O4 0.122726 0.700206 0.250535
O O5 0.140197 0.185587 0.007581
O O6 0.089881 0.460476 0.103869
O O7 0.187330 0.481961 0.945092
O O8 0.834271 0.841082 0.475301
O O9 0.673031 0.851670 0.290562
O O10 0.500000 0.500000 0.000000
O O11 0.000000 0.447530 0.250000
#
# Coordination Sequence:
#
# PCOD9284888 Si02
#       5
#     8   8   8   8   8
#     4  10  21  41  68  92 128 177 216 266 329 380
#     4  10  21  44  65  91 134 175 210 269 332 377
#     4  10  21  41  65  92 128 170 216 268 318 385
#     4  11  22  41  68  95 131 172 217 268 324 387
#     4  11  23  39  65  92 133 171 212 275 325 382
#
# _framework density 27.783840000000001
#
# number of rings (size 3 to 8) (size 9 to 14) (size 15 to 20)
#    0.000    1.600    4.000    1.200    2.800    1.600 
#    3.600    2.000    0.000    0.000    0.000    0.000 
#    0.000    0.000    0.000    0.000    0.000    0.000 
#
# Total GULP energy -111569.308847 kJ/mol
# GULP energy per Si atom -5578.465442 kJ/mol
# Density = 2.772060 g / cm^3
# Si number density = 27.783840 Si / 1000 Ang^3
#
#
#
# Elastic Constant Matrix: (Units=GPa)
#
#
# Indices 1 2 3 4 5 6 
#
# 1 144.5267 12.6993 60.9988 0.0000 -43.5857 0.0000
# 2 12.6993 67.2104 64.0224 0.0000 -25.9339 0.0000
# 3 60.9988 64.0224 251.2411 0.0000 -62.5033 0.0000
# 4 0.0000 0.0000 0.0000 38.6479 0.0000 3.0853
# 5 -43.5857 -25.9339 -62.5033 0.0000 82.1942 0.0000
# 6 0.0000 0.0000 0.0000 3.0853 0.0000 11.7356
#
#
#
# Elastic Compliance Matrix: (Units=1/GPa)
#
#
# Indices 1 2 3 4 5 6 
#
# 1 0.008578 0.001235 -0.001441 0.000000 0.003842 0.000000
# 2 0.001235 0.020423 -0.004610 0.000000 0.003593 0.000000
# 3 -0.001441 -0.004610 0.006109 0.000000 0.002426 0.000000
# 4 0.000000 0.000000 0.000000 0.026429 0.000000 -0.006948
# 5 0.003842 0.003593 0.002426 0.000000 0.017182 0.000000
# 6 0.000000 0.000000 0.000000 -0.006948 0.000000 0.087037
#
#
# Mechanical properties :
#
#
# Convention : Reuss Voigt Hill
#
# Bulk Modulus (GPa) = 39.25302 82.04659 60.64980
# Shear Modulus (GPa) = 27.19101 48.19938 37.69520
#
# Velocity S-wave (km/s) = 3.13175 4.16961 3.68738
# Velocity P-wave (km/s) = 5.21880 7.26466 6.32500
#
# Compressibility (1/GPa) = 0.02547575
#
# Stress axis : x y z
#
# Youngs Moduli (GPa) = 116.58183 48.96355 163.70325
#
# Poissons Ratio (x) = -0.06046 0.23596
# Poissons Ratio (y) = -0.14396 0.75473
# Poissons Ratio (z) = 0.16804 0.22574
#
# Static dielectric constant tensor:
#      x y z
#    x 2.238190 0.000000 0.023080 
#    y 0.000000 2.470310 0.000000 
#    z 0.023080 0.000000 2.176070 
# 
# From -- ./inp_files/94606.got.cif
#   From: 2010.05.17/outbox.cif.g08.bks.cpg/sg15_48_cif.got.tgz:94606.got - 2010.06.03 18:47:42.
