data_PCOD9284778
_publ_section_title
;
Structure prediction by ZEFSAII (Michael W. Deem and Ramdas Pophale) SiO2 
 PCOD9284778
Probable space group: C 2/C
;
_chemical_formula_sum "Si O2"
_cell_formula_units_Z 48
_cell_length_a 27.768628
_cell_length_b 9.811063
_cell_length_c 14.359082
_cell_angle_alpha 90.000000
_cell_angle_beta 144.010448
_cell_angle_gamma 90.000000
_cell_volume 2298.829836
_symmetry_space_group_name_H-M "C 2/C"
_symmetry_group_IT_number 15
_symmetry_cell_setting 'monoclinic'
loop_
_space_group_symop_operation_xyz
x,y,z
-x,y,1/2-z
-x,-y,-z
x,-y,1/2+z
1/2+x,1/2+y,z
1/2-x,1/2+y,1/2-z
1/2-x,1/2-y,-z
1/2+x,1/2-y,1/2+z
loop_
_atom_site_type_symbol
_atom_site_label
_atom_site_fract_x
_atom_site_fract_y
_atom_site_fract_z
Si Si1 0.873194 0.144565 0.194013
Si Si2 0.562170 0.631650 0.475502
Si Si3 0.834512 0.345810 0.976777
Si Si4 0.849843 0.149672 0.373927
Si Si5 0.664604 0.152453 0.484097
Si Si6 0.152438 0.848310 0.299102
O O1 0.875599 0.180105 0.307606
O O2 0.966521 0.132258 0.305323
O O3 0.836123 0.992771 0.131220
O O4 0.827205 0.252135 0.057320
O O5 0.605380 0.760144 0.494991
O O6 0.607107 0.488786 0.522970
O O7 0.578015 0.641086 0.611143
O O8 0.748122 0.367767 0.789818
O O9 0.861280 0.496013 0.049542
O O10 0.864876 0.268381 0.470848
O O11 0.763998 0.166771 0.629676
O O12 0.636988 0.229488 0.347780
#
# Coordination Sequence:
#
# PCOD9284778 Si02
#       6
#     8   8   8   8   8   8
#     4  11  24  42  65  92 129 169 210 258 317 385
#     4  11  23  44  66  90 128 171 210 258 317 384
#     4  12  22  40  62 100 126 162 211 266 315 370
#     4  11  21  42  65  93 124 166 221 255 309 376
#     4  11  23  37  64  97 123 159 207 274 305 365
#     4  10  21  41  64  92 123 163 216 253 313 372
#
# _framework density 20.880188
#
# number of rings (size 3 to 8) (size 9 to 14) (size 15 to 20)
#    0.000    1.000    5.000    4.000    0.000    1.333 
#    0.000   10.833    0.000    0.000    0.000    0.000 
#    0.000    0.000    0.000    0.000    0.000    0.000 
#
# Total GULP energy -134131.460865 kJ/mol
# GULP energy per Si atom -5588.810869 kJ/mol
# Density = 2.083266 g / cm^3
# Si number density = 20.880188 Si / 1000 Ang^3
#
#
#
# Elastic Constant Matrix: (Units=GPa)
#
#
# Indices 1 2 3 4 5 6 
#
# 1 67.3319 43.0403 -7.3646 0.0000 6.5323 0.0000
# 2 43.0403 164.7032 17.4295 0.0000 -18.1908 0.0000
# 3 -7.3646 17.4295 38.2417 0.0000 6.2096 0.0000
# 4 0.0000 0.0000 0.0000 22.4606 0.0000 -7.3076
# 5 6.5323 -18.1908 6.2096 0.0000 27.8478 0.0000
# 6 0.0000 0.0000 0.0000 -7.3076 0.0000 32.5246
#
#
#
# Elastic Compliance Matrix: (Units=1/GPa)
#
#
# Indices 1 2 3 4 5 6 
#
# 1 0.022686 -0.008481 0.010374 0.000000 -0.013175 0.000000
# 2 -0.008481 0.010299 -0.008033 0.000000 0.010508 0.000000
# 3 0.010374 -0.008033 0.034298 0.000000 -0.015329 0.000000
# 4 0.000000 0.000000 0.000000 0.048034 0.000000 0.010792
# 5 -0.013175 0.010508 -0.015329 0.000000 0.049282 0.000000
# 6 0.000000 0.000000 0.000000 0.010792 0.000000 0.033171
#
#
# Mechanical properties :
#
#
# Convention : Reuss Voigt Hill
#
# Bulk Modulus (GPa) = 18.18171 41.83192 30.00682
# Shear Modulus (GPa) = 21.89298 31.04472 26.46885
#
# Velocity S-wave (km/s) = 3.24158 3.86009 3.56427
# Velocity P-wave (km/s) = 4.76833 6.32019 5.59829
#
# Compressibility (1/GPa) = 0.05500031
#
# Stress axis : x y z
#
# Youngs Moduli (GPa) = 44.08010 97.10146 29.15655
#
# Poissons Ratio (x) = 0.82353 -0.30246
# Poissons Ratio (y) = 0.37385 0.23422
# Poissons Ratio (z) = -0.45727 0.78005
#
# Static dielectric constant tensor:
#      x y z
#    x 1.779480 0.000000 0.001830 
#    y 0.000000 1.722820 0.000000 
#    z 0.001830 0.000000 1.756330 
# 
# From -- ./inp_files/176970.got.cif
#   From: 2010.05.17/outbox.cif.g08.bks.cpg/sg15_89_cif.got.tgz:176970.got - 2010.06.03 18:47:42.
