data_PCOD9284182
_publ_section_title
;
Structure prediction by ZEFSAII (Michael W. Deem and Ramdas Pophale) SiO2 
 PCOD9284182
Probable space group: C 2/C
;
_chemical_formula_sum "Si O2"
_cell_formula_units_Z 40
_cell_length_a 9.725082
_cell_length_b 14.501846
_cell_length_c 14.426398
_cell_angle_alpha 90.000000
_cell_angle_beta 66.288145
_cell_angle_gamma 90.000000
_cell_volume 1862.818260
_symmetry_space_group_name_H-M "C 2/C"
_symmetry_group_IT_number 15
_symmetry_cell_setting 'monoclinic'
loop_
_space_group_symop_operation_xyz
x,y,z
-x,y,1/2-z
-x,-y,-z
x,-y,1/2+z
1/2+x,1/2+y,z
1/2-x,1/2+y,1/2-z
1/2-x,1/2-y,-z
1/2+x,1/2-y,1/2+z
loop_
_atom_site_type_symbol
_atom_site_label
_atom_site_fract_x
_atom_site_fract_y
_atom_site_fract_z
Si Si1 0.144250 0.079082 0.862297
Si Si2 0.714632 0.767843 0.902872
Si Si3 0.040139 0.339207 0.637776
Si Si4 0.803185 0.064475 0.990112
Si Si5 0.285238 0.964058 0.662440
O O1 0.239539 0.173364 0.840382
O O2 0.965344 0.095123 0.909661
O O3 0.190054 0.015471 0.764978
O O4 0.174368 0.021900 0.947719
O O5 0.539385 0.787838 0.926244
O O6 0.784570 0.863964 0.847650
O O7 0.750000 0.750000 0.000000
O O8 0.212351 0.358630 0.571537
O O9 0.000000 0.298511 0.750000
O O10 0.947371 0.436092 0.659455
O O11 0.707459 0.028266 0.929203
#
# Coordination Sequence:
#
# PCOD9284182 Si02
#       5
#     8   8   8   8   8
#     4  11  22  40  67  97 137 175 225 281 343 408
#     4  10  22  42  69 100 135 174 236 285 337 406
#     4  10  21  40  67  94 137 173 228 275 340 407
#     4  11  21  39  67  94 133 183 215 281 348 402
#     4  10  22  40  68  93 135 176 225 279 337 405
#
# _framework density 21.472840999999999
#
# number of rings (size 3 to 8) (size 9 to 14) (size 15 to 20)
#    1.200    0.400    4.000    1.200    0.000    2.400 
#    0.000    4.000    8.800    0.000    0.000    0.000 
#    0.000    0.000    0.000    0.000    0.000    0.000 
#
# Total GULP energy -111442.484405 kJ/mol
# GULP energy per Si atom -5572.124220 kJ/mol
# Density = 2.142397 g / cm^3
# Si number density = 21.472841 Si / 1000 Ang^3
#
#
#
# Elastic Constant Matrix: (Units=GPa)
#
#
# Indices 1 2 3 4 5 6 
#
# 1 60.2814 2.9563 35.8432 0.0000 6.1034 0.0000
# 2 2.9563 107.9728 50.0090 0.0000 -2.2082 0.0000
# 3 35.8432 50.0090 114.9484 0.0000 0.8560 0.0000
# 4 0.0000 0.0000 0.0000 27.9319 0.0000 7.9593
# 5 6.1034 -2.2082 0.8560 0.0000 36.1173 0.0000
# 6 0.0000 0.0000 0.0000 7.9593 0.0000 22.0554
#
#
#
# Elastic Compliance Matrix: (Units=1/GPa)
#
#
# Indices 1 2 3 4 5 6 
#
# 1 0.021540 0.003060 -0.008023 0.000000 -0.003263 0.000000
# 2 0.003060 0.012058 -0.006203 0.000000 0.000367 0.000000
# 3 -0.008023 -0.006203 0.013895 0.000000 0.000647 0.000000
# 4 0.000000 0.000000 0.000000 0.039905 0.000000 -0.014401
# 5 -0.003263 0.000367 0.000647 0.000000 0.028246 0.000000
# 6 0.000000 0.000000 0.000000 -0.014401 0.000000 0.050537
#
#
# Mechanical properties :
#
#
# Convention : Reuss Voigt Hill
#
# Bulk Modulus (GPa) = 39.74536 51.20217 45.47377
# Shear Modulus (GPa) = 25.39346 30.18053 27.78699
#
# Velocity S-wave (km/s) = 3.44260 3.75310 3.60120
# Velocity P-wave (km/s) = 5.86104 6.53283 6.20603
#
# Compressibility (1/GPa) = 0.02516017
#
# Stress axis : x y z
#
# Youngs Moduli (GPa) = 46.42559 82.93086 71.96755
#
# Poissons Ratio (x) = -0.25374 0.57742
# Poissons Ratio (y) = -0.14205 0.44640
# Poissons Ratio (z) = 0.37249 0.51440
#
# Static dielectric constant tensor:
#      x y z
#    x 1.807670 0.000000 0.012750 
#    y 0.000000 1.829290 0.000000 
#    z 0.012750 0.000000 1.769030 
# 
# From -- ./inp_files/142872.got.cif
#   From: 2010.05.17/outbox.cif.g08.bks.cpg/sg15_72_cif.got.tgz:142872.got - 2010.06.03 18:47:42.
