data_PCOD9284834
_publ_section_title
;
Structure prediction by ZEFSAII (Michael W. Deem and Ramdas Pophale) SiO2 
 PCOD9284834
Probable space group: C 2/C
;
_chemical_formula_sum "Si O2"
_cell_formula_units_Z 48
_cell_length_a 17.989587
_cell_length_b 9.962591
_cell_length_c 11.289318
_cell_angle_alpha 90.000000
_cell_angle_beta 73.286996
_cell_angle_gamma 90.000000
_cell_volume 1937.834346
_symmetry_space_group_name_H-M "C 2/C"
_symmetry_group_IT_number 15
_symmetry_cell_setting 'monoclinic'
loop_
_space_group_symop_operation_xyz
x,y,z
-x,y,1/2-z
-x,-y,-z
x,-y,1/2+z
1/2+x,1/2+y,z
1/2-x,1/2+y,1/2-z
1/2-x,1/2-y,-z
1/2+x,1/2-y,1/2+z
loop_
_atom_site_type_symbol
_atom_site_label
_atom_site_fract_x
_atom_site_fract_y
_atom_site_fract_z
Si Si1 0.542115 0.213532 0.493744
Si Si2 0.375958 0.130460 0.285860
Si Si3 0.324521 0.613737 0.490726
Si Si4 0.444775 0.383249 0.385758
Si Si5 0.237578 0.224246 0.209395
Si Si6 0.926010 0.343143 0.219702
O O1 0.580440 0.158489 0.357812
O O2 0.614379 0.261609 0.541080
O O3 0.498972 0.349583 0.471853
O O4 0.474349 0.123885 0.578756
O O5 0.407871 0.240615 0.361321
O O6 0.286948 0.161981 0.292801
O O7 0.398061 0.977029 0.300518
O O8 0.375657 0.482598 0.450297
O O9 0.280265 0.643362 0.634412
O O10 0.268339 0.627964 0.403395
O O11 0.500000 0.428188 0.250000
O O12 0.149414 0.259659 0.280237
O O13 0.000000 0.273689 0.250000
#
# Coordination Sequence:
#
# PCOD9284834 Si02
#       6
#     8   8   8   8   8   8
#     4  10  21  41  64  99 123 172 213 266 321 383
#     4  10  24  43  62  95 135 168 210 271 330 377
#     4  10  21  42  63  89 131 166 209 270 322 383
#     4  10  22  40  67  96 130 163 214 269 325 382
#     4  10  24  41  61  93 126 171 216 262 326 379
#     4  12  23  41  69  95 128 172 226 261 315 399
#
# _framework density 24.769919000000002
#
# number of rings (size 3 to 8) (size 9 to 14) (size 15 to 20)
#    0.000    1.667    1.667    2.500    4.667    1.333 
#    0.000    1.667    0.000    0.000    0.000    0.000 
#    0.000    0.000    0.000    0.000    0.000    0.000 
#
# Total GULP energy -134039.521066 kJ/mol
# GULP energy per Si atom -5584.980044 kJ/mol
# Density = 2.471354 g / cm^3
# Si number density = 24.769919 Si / 1000 Ang^3
#
#
#
# Elastic Constant Matrix: (Units=GPa)
#
#
# Indices 1 2 3 4 5 6 
#
# 1 171.6697 29.5016 24.7557 0.0000 -14.7189 0.0000
# 2 29.5016 80.7669 0.5145 0.0000 -6.8349 0.0000
# 3 24.7557 0.5145 28.1648 0.0000 -15.2862 0.0000
# 4 0.0000 0.0000 0.0000 15.3140 0.0000 -11.8511
# 5 -14.7189 -6.8349 -15.2862 0.0000 43.7180 0.0000
# 6 0.0000 0.0000 0.0000 -11.8511 0.0000 30.8602
#
#
#
# Elastic Compliance Matrix: (Units=1/GPa)
#
#
# Indices 1 2 3 4 5 6 
#
# 1 0.007172 -0.002598 -0.006377 0.000000 -0.000221 0.000000
# 2 -0.002598 0.013513 0.003343 0.000000 0.002407 0.000000
# 3 -0.006377 0.003343 0.049575 0.000000 0.015710 0.000000
# 4 0.000000 0.000000 0.000000 0.092912 0.000000 0.035681
# 5 -0.000221 0.002407 0.015710 0.000000 0.028669 0.000000
# 6 0.000000 0.000000 0.000000 0.035681 0.000000 0.046107
#
#
# Mechanical properties :
#
#
# Convention : Reuss Voigt Hill
#
# Bulk Modulus (GPa) = 16.94999 43.34942 30.14971
# Shear Modulus (GPa) = 18.59592 33.03375 25.81483
#
# Velocity S-wave (km/s) = 2.74295 3.65584 3.23179
# Velocity P-wave (km/s) = 4.10968 5.94635 5.11119
#
# Compressibility (1/GPa) = 0.05899709
#
# Stress axis : x y z
#
# Youngs Moduli (GPa) = 139.42801 74.00497 20.17129
#
# Poissons Ratio (x) = 0.19225 0.12862
# Poissons Ratio (y) = 0.36221 -0.06743
# Poissons Ratio (z) = 0.88907 -0.24739
#
# Static dielectric constant tensor:
#      x y z
#    x 1.966150 0.000000 0.037920 
#    y 0.000000 1.999880 0.000000 
#    z 0.037920 0.000000 2.186480 
# 
# From -- ./inp_files/104181.got.cif
#   From: 2010.05.17/outbox.cif.g08.bks.cpg/sg15_53_cif.got.tgz:104181.got - 2010.06.03 18:47:42.
