data_PCOD9284274
_publ_section_title
;
Structure prediction by ZEFSAII (Michael W. Deem and Ramdas Pophale) SiO2 
 PCOD9284274
Probable space group: C 2/C
;
_chemical_formula_sum "Si O2"
_cell_formula_units_Z 52
_cell_length_a 28.340473
_cell_length_b 21.214965
_cell_length_c 5.566052
_cell_angle_alpha 90.000000
_cell_angle_beta 49.592588
_cell_angle_gamma 90.000000
_cell_volume 2548.241633
_symmetry_space_group_name_H-M "C 2/C"
_symmetry_group_IT_number 15
_symmetry_cell_setting 'monoclinic'
loop_
_space_group_symop_operation_xyz
x,y,z
-x,y,1/2-z
-x,-y,-z
x,-y,1/2+z
1/2+x,1/2+y,z
1/2-x,1/2+y,1/2-z
1/2-x,1/2-y,-z
1/2+x,1/2-y,1/2+z
loop_
_atom_site_type_symbol
_atom_site_label
_atom_site_fract_x
_atom_site_fract_y
_atom_site_fract_z
Si Si1 0.500000 0.461815 0.750000
Si Si2 0.888510 0.249885 0.199284
Si Si3 0.806199 0.789985 0.589149
Si Si4 0.136039 0.535600 0.253064
Si Si5 0.192045 0.666576 0.211483
Si Si6 0.000000 0.589833 0.750000
Si Si7 0.500000 0.832284 0.750000
Si Si8 0.568449 0.661117 0.075554
O O1 0.500000 0.500000 0.500000
O O2 0.442239 0.412934 0.926914
O O3 0.824920 0.225284 0.296412
O O4 0.866578 0.302458 0.461254
O O5 0.918705 0.186733 0.202526
O O6 0.940939 0.287738 0.884492
O O7 0.792431 0.720900 0.529094
O O8 0.750754 0.835687 0.697424
O O9 0.872120 0.814815 0.266292
O O10 0.150341 0.495612 0.447679
O O11 0.172779 0.601206 0.159818
O O12 0.062574 0.550154 0.505736
O O13 0.991393 0.628088 0.525366
O O14 0.500000 0.689209 0.250000
#
# Coordination Sequence:
#
# PCOD9284274 Si02
#       8
#     4   8   8   8   8   4   4   8
#     4  10  24  42  66  90 132 174 210 262 324 396
#     4  11  21  36  64  98 131 168 207 284 334 391
#     4  10  21  40  68  94 131 169 213 281 335 403
#     4  12  26  45  67  92 134 179 226 276 316 390
#     4  10  23  42  62  96 128 173 224 265 340 390
#     4  12  24  44  62  98 127 183 222 270 322 396
#     4  12  24  34  70 100 139 159 218 274 340 392
#     4   9  22  37  62  98 127 164 215 269 330 391
#
# _framework density 20.406227000000001
#
# number of rings (size 3 to 8) (size 9 to 14) (size 15 to 20)
#    0.462    0.923    1.538    3.692    7.538    0.000 
#    0.000    1.538    0.000    0.000    0.000    0.000 
#    0.000    0.000    0.000    0.000    0.000    0.000 
#
# Total GULP energy -144844.963406 kJ/mol
# GULP energy per Si atom -5570.960131 kJ/mol
# Density = 2.035978 g / cm^3
# Si number density = 20.406227 Si / 1000 Ang^3
#
#
#
# Elastic Constant Matrix: (Units=GPa)
#
#
# Indices 1 2 3 4 5 6 
#
# 1 121.2265 53.0226 9.7891 0.0000 9.7284 0.0000
# 2 53.0226 106.1953 25.8766 0.0000 8.1443 0.0000
# 3 9.7891 25.8766 56.4167 0.0000 2.4044 0.0000
# 4 0.0000 0.0000 0.0000 24.3857 0.0000 0.4980
# 5 9.7284 8.1443 2.4044 0.0000 34.7495 0.0000
# 6 0.0000 0.0000 0.0000 0.4980 0.0000 3.1440
#
#
#
# Elastic Compliance Matrix: (Units=1/GPa)
#
#
# Indices 1 2 3 4 5 6 
#
# 1 0.010683 -0.005364 0.000682 0.000000 -0.001781 0.000000
# 2 -0.005364 0.013458 -0.005187 0.000000 -0.001294 0.000000
# 3 0.000682 -0.005187 0.020001 0.000000 -0.000359 0.000000
# 4 0.000000 0.000000 0.000000 0.041141 0.000000 -0.006516
# 5 -0.001781 -0.001294 -0.000359 0.000000 0.029604 0.000000
# 6 0.000000 0.000000 0.000000 -0.006516 0.000000 0.319103
#
#
# Mechanical properties :
#
#
# Convention : Reuss Voigt Hill
#
# Bulk Modulus (GPa) = 40.97410 51.24612 46.11011
# Shear Modulus (GPa) = 10.82578 25.46586 18.14582
#
# Velocity S-wave (km/s) = 2.30579 3.53646 2.98523
# Velocity P-wave (km/s) = 5.21648 6.46861 5.87599
#
# Compressibility (1/GPa) = 0.02440566
#
# Stress axis : x y z
#
# Youngs Moduli (GPa) = 93.60880 74.30704 49.99700
#
# Poissons Ratio (x) = 0.39855 -0.03412
# Poissons Ratio (y) = 0.50207 0.25933
# Poissons Ratio (z) = -0.06388 0.38542
#
# Static dielectric constant tensor:
#      x y z
#    x 1.806110 0.000000 0.045520 
#    y 0.000000 1.700480 0.000000 
#    z 0.045520 0.000000 1.826490 
# 
# From -- ./inp_files/18581.got.cif
#   From: 2010.05.17/outbox.cif.g08.bks.cpg/sg15_10_cif.got.tgz:18581.got - 2010.06.03 18:47:42.
