data_PCOD9284781
_publ_section_title
;
Structure prediction by ZEFSAII (Michael W. Deem and Ramdas Pophale) SiO2 
 PCOD9284781
Probable space group: C 2/C
;
_chemical_formula_sum "Si O2"
_cell_formula_units_Z 52
_cell_length_a 32.674507
_cell_length_b 14.287544
_cell_length_c 19.667388
_cell_angle_alpha 90.000000
_cell_angle_beta 162.827669
_cell_angle_gamma 90.000000
_cell_volume 2710.805500
_symmetry_space_group_name_H-M "C 2/C"
_symmetry_group_IT_number 15
_symmetry_cell_setting 'monoclinic'
loop_
_space_group_symop_operation_xyz
x,y,z
-x,y,1/2-z
-x,-y,-z
x,-y,1/2+z
1/2+x,1/2+y,z
1/2-x,1/2+y,1/2-z
1/2-x,1/2-y,-z
1/2+x,1/2-y,1/2+z
loop_
_atom_site_type_symbol
_atom_site_label
_atom_site_fract_x
_atom_site_fract_y
_atom_site_fract_z
Si Si1 0.114544 0.259282 0.241299
Si Si2 0.404501 0.771163 0.723644
Si Si3 0.361415 0.356684 0.850992
Si Si4 0.406967 0.733029 0.032610
Si Si5 0.577355 0.076793 0.581064
Si Si6 0.000000 0.629312 0.250000
Si Si7 0.252293 0.546556 0.735928
O O1 0.250000 0.250000 0.500000
O O2 0.104230 0.170910 0.172969
O O3 0.138012 0.348048 0.229703
O O4 0.993595 0.272122 0.105339
O O5 0.250000 0.750000 0.500000
O O6 0.412453 0.803687 0.659493
O O7 0.508407 0.685664 0.901841
O O8 0.470401 0.858837 0.868918
O O9 0.222776 0.298962 0.652661
O O10 0.333259 0.463486 0.827049
O O11 0.500000 0.721835 0.250000
O O12 0.344780 0.636690 0.902728
O O13 0.685089 0.025423 0.702717
O O14 0.500000 0.000000 0.500000
O O15 0.116808 0.571119 0.475357
#
# Coordination Sequence:
#
# PCOD9284781 Si02
#       7
#     8   8   8   8   8   4   8
#     4  11  22  40  68  94 128 172 218 270 337 390
#     4  10  23  43  63  92 130 172 215 269 331 392
#     4  11  24  44  66 100 129 179 228 267 345 396
#     4  12  23  45  67  94 140 173 220 291 330 402
#     4  10  21  41  64  92 127 167 220 266 319 397
#     4  10  22  42  64  90 134 168 216 276 328 390
#     4  11  24  42  64 100 134 172 226 275 333 398
#
# _framework density 19.182490000000001
#
# number of rings (size 3 to 8) (size 9 to 14) (size 15 to 20)
#    0.000    1.231    6.154    0.923    5.385    4.308 
#    6.923    0.000    0.000    0.000    0.000    0.000 
#    0.000    0.000    0.000    0.000    0.000    0.000 
#
# Total GULP energy -144934.835837 kJ/mol
# GULP energy per Si atom -5574.416763 kJ/mol
# Density = 1.913883 g / cm^3
# Si number density = 19.182490 Si / 1000 Ang^3
#
#
#
# Elastic Constant Matrix: (Units=GPa)
#
#
# Indices 1 2 3 4 5 6 
#
# 1 112.2545 7.9870 11.1181 0.0000 1.9853 0.0000
# 2 7.9870 48.5770 14.7077 0.0000 -12.8615 0.0000
# 3 11.1181 14.7077 73.0545 0.0000 5.4333 0.0000
# 4 0.0000 0.0000 0.0000 9.8318 0.0000 23.0021
# 5 1.9853 -12.8615 5.4333 0.0000 31.9762 0.0000
# 6 0.0000 0.0000 0.0000 23.0021 0.0000 31.2333
#
#
#
# Elastic Compliance Matrix: (Units=1/GPa)
#
#
# Indices 1 2 3 4 5 6 
#
# 1 0.009130 -0.001449 -0.001025 0.000000 -0.000975 0.000000
# 2 -0.001449 0.025580 -0.005774 0.000000 0.011360 0.000000
# 3 -0.001025 -0.005774 0.015369 0.000000 -0.004870 0.000000
# 4 0.000000 0.000000 0.000000 -0.140680 0.000000 0.103605
# 5 -0.000975 0.011360 -0.004870 0.000000 0.036731 0.000000
# 6 0.000000 0.000000 0.000000 0.103605 0.000000 -0.044284
#
#
# Mechanical properties :
#
#
# Convention : Reuss Voigt Hill
#
# Bulk Modulus (GPa) = 29.77751 33.50129 31.63940
# Shear Modulus (GPa) = -70.95914 27.94648 -21.50633
#
# Velocity S-wave (km/s) = -6.08867 3.82104 -3.35198
# Velocity P-wave (km/s) = 5.81999 6.08026 1.24445
#
# Compressibility (1/GPa) = 0.03358239
#
# Stress axis : x y z
#
# Youngs Moduli (GPa) = 109.52629 39.09287 65.06531
#
# Poissons Ratio (x) = 0.05665 0.06671
# Poissons Ratio (y) = 0.15871 0.37571
# Poissons Ratio (z) = 0.11229 0.22573
#
# Static dielectric constant tensor:
#      x y z
#    x 1.624240 0.000000 0.037710 
#    y 0.000000 1.652350 0.000000 
#    z 0.037710 0.000000 1.650600 
# 
# From -- ./inp_files/225517.got.cif
#   From: 2010.05.17/outbox.cif.g08.bks.cpg/sg15_113_cif.got.tgz:225517.got - 2010.06.03 18:47:42.
