data_PCOD9284421
_publ_section_title
;
Structure prediction by ZEFSAII (Michael W. Deem and Ramdas Pophale) SiO2 
 PCOD9284421
Probable space group: C 2/C
;
_chemical_formula_sum "Si O2"
_cell_formula_units_Z 40
_cell_length_a 7.662634
_cell_length_b 12.114812
_cell_length_c 17.486659
_cell_angle_alpha 90.000000
_cell_angle_beta 86.801573
_cell_angle_gamma 90.000000
_cell_volume 1620.781881
_symmetry_space_group_name_H-M "C 2/C"
_symmetry_group_IT_number 15
_symmetry_cell_setting 'monoclinic'
loop_
_space_group_symop_operation_xyz
x,y,z
-x,y,1/2-z
-x,-y,-z
x,-y,1/2+z
1/2+x,1/2+y,z
1/2-x,1/2+y,1/2-z
1/2-x,1/2-y,-z
1/2+x,1/2-y,1/2+z
loop_
_atom_site_type_symbol
_atom_site_label
_atom_site_fract_x
_atom_site_fract_y
_atom_site_fract_z
Si Si1 0.334518 0.438957 0.878659
Si Si2 0.398682 0.798277 0.359407
Si Si3 0.954321 0.623152 0.336002
Si Si4 0.187537 0.523301 0.533993
Si Si5 0.771103 0.150167 0.798759
O O1 0.447611 0.330069 0.864621
O O2 0.362995 0.535425 0.817094
O O3 0.142261 0.383649 0.871552
O O4 0.327238 0.490791 0.963314
O O5 0.306135 0.852377 0.434197
O O6 0.285391 0.824039 0.286638
O O7 0.585304 0.858377 0.346698
O O8 0.818077 0.553410 0.390323
O O9 0.881114 0.746029 0.326191
O O10 0.000000 0.577864 0.250000
O O11 0.000000 0.500000 0.500000
#
# Coordination Sequence:
#
# PCOD9284421 Si02
#       5
#     8   8   8   8   8
#     4  11  23  44  64  95 130 165 214 263 318 379
#     4  11  22  41  67  92 130 168 214 262 316 375
#     4  11  21  43  66  91 127 171 211 262 316 377
#     4  10  21  40  71  89 127 176 205 257 327 375
#     4  11  24  40  65  95 126 171 213 264 314 374
#
# _framework density 24.679445999999999
#
# number of rings (size 3 to 8) (size 9 to 14) (size 15 to 20)
#    0.000    1.200    6.000    1.800    0.000    0.800 
#    7.200    1.000    0.000    0.000    0.000    0.000 
#    0.000    0.000    0.000    0.000    0.000    0.000 
#
# Total GULP energy -111851.078855 kJ/mol
# GULP energy per Si atom -5592.553943 kJ/mol
# Density = 2.462327 g / cm^3
# Si number density = 24.679446 Si / 1000 Ang^3
#
#
#
# Elastic Constant Matrix: (Units=GPa)
#
#
# Indices 1 2 3 4 5 6 
#
# 1 55.2500 19.4470 22.1902 0.0000 13.8888 0.0000
# 2 19.4470 179.2275 55.4883 0.0000 3.1145 0.0000
# 3 22.1902 55.4883 134.5711 0.0000 -11.7679 0.0000
# 4 0.0000 0.0000 0.0000 16.5056 0.0000 -0.3561
# 5 13.8888 3.1145 -11.7679 0.0000 24.9979 0.0000
# 6 0.0000 0.0000 0.0000 -0.3561 0.0000 33.0631
#
#
#
# Elastic Compliance Matrix: (Units=1/GPa)
#
#
# Indices 1 2 3 4 5 6 
#
# 1 0.024407 -0.000800 -0.005081 0.000000 -0.015853 0.000000
# 2 -0.000800 0.006532 -0.002705 0.000000 -0.001643 0.000000
# 3 -0.005081 -0.002705 0.010076 0.000000 0.007903 0.000000
# 4 0.000000 0.000000 0.000000 0.060600 0.000000 0.000653
# 5 -0.015853 -0.001643 0.007903 0.000000 0.052736 0.000000
# 6 0.000000 0.000000 0.000000 0.000653 0.000000 0.030252
#
#
# Mechanical properties :
#
#
# Convention : Reuss Voigt Hill
#
# Bulk Modulus (GPa) = 41.94207 62.58883 52.26545
# Shear Modulus (GPa) = 23.84103 33.04154 28.44129
#
# Velocity S-wave (km/s) = 3.11147 3.66297 3.39843
# Velocity P-wave (km/s) = 5.47174 6.58070 6.05167
#
# Compressibility (1/GPa) = 0.02384241
#
# Stress axis : x y z
#
# Youngs Moduli (GPa) = 40.97214 153.08326 99.25062
#
# Poissons Ratio (x) = 0.12242 0.50431
# Poissons Ratio (y) = 0.03276 0.26851
# Poissons Ratio (z) = 0.20818 0.41414
#
# Static dielectric constant tensor:
#      x y z
#    x 1.985510 0.000000 -0.004350 
#    y 0.000000 1.977420 0.000000 
#    z -0.004350 0.000000 1.962540 
# 
# From -- ./inp_files/187888.got.cif
#   From: 2010.05.17/outbox.cif.g08.bks.cpg/sg15_94_cif.got.tgz:187888.got - 2010.06.03 18:47:42.
