data_PCOD9284549
_publ_section_title
;
Structure prediction by ZEFSAII (Michael W. Deem and Ramdas Pophale) SiO2 
 PCOD9284549
Probable space group: C 2/C
;
_chemical_formula_sum "Si O2"
_cell_formula_units_Z 56
_cell_length_a 23.941140
_cell_length_b 8.623982
_cell_length_c 13.266557
_cell_angle_alpha 90.000000
_cell_angle_beta 111.145863
_cell_angle_gamma 90.000000
_cell_volume 2554.680589
_symmetry_space_group_name_H-M "C 2/C"
_symmetry_group_IT_number 15
_symmetry_cell_setting 'monoclinic'
loop_
_space_group_symop_operation_xyz
x,y,z
-x,y,1/2-z
-x,-y,-z
x,-y,1/2+z
1/2+x,1/2+y,z
1/2-x,1/2+y,1/2-z
1/2-x,1/2-y,-z
1/2+x,1/2-y,1/2+z
loop_
_atom_site_type_symbol
_atom_site_label
_atom_site_fract_x
_atom_site_fract_y
_atom_site_fract_z
Si Si1 0.527555 0.015207 0.626278
Si Si2 0.000000 0.234839 0.750000
Si Si3 0.232175 0.637019 0.847360
Si Si4 0.842833 0.299849 0.002122
Si Si5 0.500000 0.263872 0.750000
Si Si6 0.594713 0.519842 0.366368
Si Si7 0.301561 0.641546 0.492314
Si Si8 0.853839 0.389914 0.389346
O O1 0.486723 0.142549 0.654316
O O2 0.592200 0.090954 0.653688
O O3 0.500000 0.000000 0.500000
O O4 0.529368 0.854232 0.688760
O O5 0.047648 0.124175 0.839171
O O6 0.182323 0.676737 0.900398
O O7 0.266082 0.482419 0.903659
O O8 0.204559 0.617620 0.719580
O O9 0.284832 0.761659 0.895351
O O10 0.886976 0.148816 0.035315
O O11 0.862548 0.463695 0.969552
O O12 0.442760 0.371262 0.733944
O O13 0.659431 0.441477 0.394736
O O14 0.250000 0.750000 0.500000
O O15 0.348362 0.738186 0.455194
#
# Coordination Sequence:
#
# PCOD9284549 Si02
#       8
#     8   4   8   8   4   8   8   8
#     4  11  24  42  69  97 127 167 221 278 332 387
#     4  10  24  46  68  94 130 172 224 270 334 392
#     4  10  22  40  61  91 130 175 212 262 331 392
#     4  10  21  41  61  90 134 170 215 275 323 389
#     4  10  22  46  66  94 128 174 218 276 334 388
#     4  10  22  42  68  90 128 177 214 264 333 388
#     4  11  23  41  65  95 135 171 212 272 325 389
#     4  12  23  39  66  97 126 172 222 266 333 401
#
# _framework density 21.920549999999999
#
# number of rings (size 3 to 8) (size 9 to 14) (size 15 to 20)
#    0.000    1.429    1.429    3.429    2.000    2.286 
#    2.571   17.143    0.000    0.000    0.000    0.000 
#    0.000    0.000    0.000    0.000    0.000    0.000 
#
# Total GULP energy -155918.146128 kJ/mol
# GULP energy per Si atom -5568.505219 kJ/mol
# Density = 2.187066 g / cm^3
# Si number density = 21.920550 Si / 1000 Ang^3
#
#
#
# Elastic Constant Matrix: (Units=GPa)
#
#
# Indices 1 2 3 4 5 6 
#
# 1 54.3713 47.2004 25.5949 0.0000 15.9224 0.0000
# 2 47.2004 126.4424 29.5580 0.0000 0.3488 0.0000
# 3 25.5949 29.5580 87.4902 0.0000 27.7268 0.0000
# 4 0.0000 0.0000 0.0000 26.1639 0.0000 17.5139
# 5 15.9224 0.3488 27.7268 0.0000 35.1005 0.0000
# 6 0.0000 0.0000 0.0000 17.5139 0.0000 29.4125
#
#
#
# Elastic Compliance Matrix: (Units=1/GPa)
#
#
# Indices 1 2 3 4 5 6 
#
# 1 0.033818 -0.012300 -0.001221 0.000000 -0.014254 0.000000
# 2 -0.012300 0.013294 -0.003494 0.000000 0.008207 0.000000
# 3 -0.001221 -0.003494 0.017049 0.000000 -0.012879 0.000000
# 4 0.000000 0.000000 0.000000 0.063552 0.000000 -0.037843
# 5 -0.014254 0.008207 -0.012879 0.000000 0.045048 0.000000
# 6 0.000000 0.000000 0.000000 -0.037843 0.000000 0.056533
#
#
# Mechanical properties :
#
#
# Convention : Reuss Voigt Hill
#
# Bulk Modulus (GPa) = 33.18669 52.55674 42.87171
# Shear Modulus (GPa) = 18.29038 29.19873 23.74455
#
# Velocity S-wave (km/s) = 2.89172 3.65365 3.29479
# Velocity P-wave (km/s) = 5.13048 6.46738 5.83733
#
# Compressibility (1/GPa) = 0.03013256
#
# Stress axis : x y z
#
# Youngs Moduli (GPa) = 29.56968 75.22008 58.65444
#
# Poissons Ratio (x) = 0.92518 0.07160
# Poissons Ratio (y) = 0.36369 0.20495
# Poissons Ratio (z) = 0.03610 0.26284
#
# Static dielectric constant tensor:
#      x y z
#    x 1.938780 0.000000 0.050560 
#    y 0.000000 1.838980 0.000000 
#    z 0.050560 0.000000 1.658460 
# 
# From -- ./inp_files/122034.got.cif
#   From: 2010.05.17/outbox.cif.g08.bks.cpg/sg15_62_cif.got.tgz:122034.got - 2010.06.03 18:47:42.
