data_PCOD9284075
_publ_section_title
;
Structure prediction by ZEFSAII (Michael W. Deem and Ramdas Pophale) SiO2 
 PCOD9284075
Probable space group: C 2/C
;
_chemical_formula_sum "Si O2"
_cell_formula_units_Z 32
_cell_length_a 9.346578
_cell_length_b 10.439361
_cell_length_c 12.782292
_cell_angle_alpha 90.000000
_cell_angle_beta 80.587989
_cell_angle_gamma 90.000000
_cell_volume 1230.407756
_symmetry_space_group_name_H-M "C 2/C"
_symmetry_group_IT_number 15
_symmetry_cell_setting 'monoclinic'
loop_
_space_group_symop_operation_xyz
x,y,z
-x,y,1/2-z
-x,-y,-z
x,-y,1/2+z
1/2+x,1/2+y,z
1/2-x,1/2+y,1/2-z
1/2-x,1/2-y,-z
1/2+x,1/2-y,1/2+z
loop_
_atom_site_type_symbol
_atom_site_label
_atom_site_fract_x
_atom_site_fract_y
_atom_site_fract_z
Si Si1 0.390079 0.134199 0.604239
Si Si2 0.047097 0.854529 0.510511
Si Si3 0.191043 0.598750 0.663151
Si Si4 0.652326 0.461567 0.693869
O O1 0.425414 0.245555 0.518655
O O2 0.547329 0.071836 0.612767
O O3 0.339690 0.178294 0.726521
O O4 0.259560 0.036424 0.599858
O O5 0.181247 0.837702 0.417885
O O6 0.095169 0.848920 0.626572
O O7 0.000000 0.000000 0.500000
O O8 0.252332 0.467833 0.711702
O O9 0.500000 0.525866 0.750000
#
# Coordination Sequence:
#
# PCOD9284075 Si02
#       4
#     8   8   8   8
#     4   9  22  42  61  88 140 161 213 281 321 381
#     4  12  22  38  72  95 125 179 219 263 337 389
#     4   9  21  41  61  96 129 172 216 263 339 382
#     4  10  21  40  66  94 132 167 226 264 318 403
#
# _framework density 26.007636000000002
#
# number of rings (size 3 to 8) (size 9 to 14) (size 15 to 20)
#    1.500    0.500    2.500    0.750    3.500    2.000 
#    0.000    0.000   11.000    0.000    0.000    0.000 
#    0.000    0.000    0.000    0.000    0.000    0.000 
#
# Total GULP energy -89100.485790 kJ/mol
# GULP energy per Si atom -5568.780362 kJ/mol
# Density = 2.594844 g / cm^3
# Si number density = 26.007636 Si / 1000 Ang^3
#
#
#
# Elastic Constant Matrix: (Units=GPa)
#
#
# Indices 1 2 3 4 5 6 
#
# 1 126.8300 26.1217 25.1377 0.0000 -34.6768 0.0000
# 2 26.1217 34.0449 0.8110 0.0000 -17.1715 0.0000
# 3 25.1377 0.8110 105.0832 0.0000 -40.8175 0.0000
# 4 0.0000 0.0000 0.0000 47.6442 0.0000 1.5115
# 5 -34.6768 -17.1715 -40.8175 0.0000 62.1376 0.0000
# 6 0.0000 0.0000 0.0000 1.5115 0.0000 47.5636
#
#
#
# Elastic Compliance Matrix: (Units=1/GPa)
#
#
# Indices 1 2 3 4 5 6 
#
# 1 0.010285 -0.006214 -0.001141 0.000000 0.003273 0.000000
# 2 -0.006214 0.039597 0.005483 0.000000 0.011077 0.000000
# 3 -0.001141 0.005483 0.013544 0.000000 0.009775 0.000000
# 4 0.000000 0.000000 0.000000 0.021010 0.000000 -0.000668
# 5 0.003273 0.011077 0.009775 0.000000 0.027402 0.000000
# 6 0.000000 0.000000 0.000000 -0.000668 0.000000 0.021046
#
#
# Mechanical properties :
#
#
# Convention : Reuss Voigt Hill
#
# Bulk Modulus (GPa) = 16.75502 41.12210 28.93856
# Shear Modulus (GPa) = 31.94454 45.72827 38.83641
#
# Velocity S-wave (km/s) = 3.50848 4.19771 3.86848
# Velocity P-wave (km/s) = 4.78214 6.27218 5.57715
#
# Compressibility (1/GPa) = 0.05968361
#
# Stress axis : x y z
#
# Youngs Moduli (GPa) = 97.22511 25.25462 73.83361
#
# Poissons Ratio (x) = 0.15692 0.08425
# Poissons Ratio (y) = 0.60411 -0.40485
# Poissons Ratio (z) = 0.11094 -0.13848
#
# Static dielectric constant tensor:
#      x y z
#    x 2.056050 0.000000 0.002630 
#    y 0.000000 2.183920 0.000000 
#    z 0.002630 0.000000 2.067210 
# 
# From -- ./inp_files/187364.got.cif
#   From: 2010.05.17/outbox.cif.g08.bks.cpg/sg15_94_cif.got.tgz:187364.got - 2010.06.03 18:47:42.
