data_PCOD9284046
_publ_section_title
;
Structure prediction by ZEFSAII (Michael W. Deem and Ramdas Pophale) SiO2 
 PCOD9284046
Probable space group: C 2/C
;
_chemical_formula_sum "Si O2"
_cell_formula_units_Z 60
_cell_length_a 21.358183
_cell_length_b 9.286992
_cell_length_c 17.229950
_cell_angle_alpha 90.000000
_cell_angle_beta 55.323925
_cell_angle_gamma 90.000000
_cell_volume 2810.585626
_symmetry_space_group_name_H-M "C 2/C"
_symmetry_group_IT_number 15
_symmetry_cell_setting 'monoclinic'
loop_
_space_group_symop_operation_xyz
x,y,z
-x,y,1/2-z
-x,-y,-z
x,-y,1/2+z
1/2+x,1/2+y,z
1/2-x,1/2+y,1/2-z
1/2-x,1/2-y,-z
1/2+x,1/2-y,1/2+z
loop_
_atom_site_type_symbol
_atom_site_label
_atom_site_fract_x
_atom_site_fract_y
_atom_site_fract_z
Si Si1 0.807224 0.339614 0.065161
Si Si2 0.302700 0.116438 0.150084
Si Si3 0.456977 0.122231 0.128775
Si Si4 0.500000 0.694429 0.750000
Si Si5 0.845504 0.114804 0.915060
Si Si6 0.648881 0.611559 0.338795
Si Si7 0.144553 0.877308 0.468981
Si Si8 0.006356 0.706604 0.922866
O O1 0.836927 0.494714 0.069247
O O2 0.721099 0.358414 0.098150
O O3 0.814610 0.235449 0.132852
O O4 0.849061 0.258234 0.965901
O O5 0.366644 0.133470 0.171603
O O6 0.220187 0.065506 0.236433
O O7 0.295660 0.264875 0.108438
O O8 0.477391 0.208265 0.191768
O O9 0.478901 0.953732 0.118954
O O10 0.499088 0.187290 0.022382
O O11 0.427403 0.597741 0.820528
O O12 0.826280 0.980621 0.983921
O O13 0.622332 0.482805 0.413459
O O14 0.576099 0.688070 0.353026
O O15 0.071941 0.783619 0.545460
#
# Coordination Sequence:
#
# PCOD9284046 Si02
#       8
#     8   8   8   4   8   8   8   8
#     4  10  21  42  63  84 128 173 206 252 318 388
#     4  11  22  38  67  93 126 163 220 264 305 378
#     4  10  22  40  65  96 123 171 216 258 321 382
#     4  12  24  40  68  92 126 166 218 268 310 390
#     4  10  24  42  62  90 127 171 210 258 325 383
#     4  11  20  37  63  96 124 159 213 267 306 372
#     4  10  23  37  62  94 130 165 205 261 328 373
#     4  10  21  40  66  92 128 168 210 265 319 380
#
# _framework density 21.347866
#
# number of rings (size 3 to 8) (size 9 to 14) (size 15 to 20)
#    0.000    1.600    1.333    3.600    3.733    3.733 
#    0.000    2.000    0.000    0.000    0.000    0.000 
#    0.000    0.000    0.000    0.000    0.000    0.000 
#
# Total GULP energy -167656.264588 kJ/mol
# GULP energy per Si atom -5588.542153 kJ/mol
# Density = 2.129928 g / cm^3
# Si number density = 21.347866 Si / 1000 Ang^3
#
#
#
# Elastic Constant Matrix: (Units=GPa)
#
#
# Indices 1 2 3 4 5 6 
#
# 1 31.2497 -22.0516 5.3942 0.0000 -11.6468 0.0001
# 2 -22.0516 75.6524 -4.6695 -0.0001 6.5855 0.0001
# 3 5.3942 -4.6695 39.4991 0.0000 -16.2765 0.0000
# 4 0.0000 -0.0001 0.0000 14.5820 0.0000 -13.2113
# 5 -11.6468 6.5855 -16.2765 0.0000 36.5533 0.0000
# 6 0.0001 0.0001 0.0000 -13.2113 0.0000 17.1587
#
#
#
# Elastic Compliance Matrix: (Units=1/GPa)
#
#
# Indices 1 2 3 4 5 6 
#
# 1 0.045065 0.012084 0.000360 0.000000 0.012342 0.000000
# 2 0.012084 0.016686 0.000821 0.000000 0.001209 0.000000
# 3 0.000360 0.000821 0.031048 0.000000 0.013792 0.000000
# 4 0.000000 0.000000 0.000000 0.226755 0.000000 0.174590
# 5 0.012342 0.001209 0.013792 0.000000 0.037213 0.000000
# 6 0.000000 0.000000 0.000000 0.174590 0.000000 0.192704
#
#
# Mechanical properties :
#
#
# Convention : Reuss Voigt Hill
#
# Bulk Modulus (GPa) = 8.38023 11.52747 9.95385
# Shear Modulus (GPa) = 8.88543 24.84067 16.86305
#
# Velocity S-wave (km/s) = 2.04236 3.41488 2.81360
# Velocity P-wave (km/s) = 3.08152 4.57822 3.90230
#
# Compressibility (1/GPa) = 0.11932844
#
# Stress axis : x y z
#
# Youngs Moduli (GPa) = 22.19016 59.93063 32.20792
#
# Poissons Ratio (x) = -0.72418 -0.01160
# Poissons Ratio (y) = -0.26814 -0.02644
# Poissons Ratio (z) = -0.00799 -0.04919
#
# Static dielectric constant tensor:
#      x y z
#    x 1.774860 0.000000 -0.018110 
#    y 0.000000 1.757480 0.000000 
#    z -0.018110 0.000000 1.798680 
# 
# From -- ./inp_files/214264.got.cif
#   From: 2010.05.17/outbox.cif.g08.bks.cpg/sg15_108_cif.got.tgz:214264.got - 2010.06.03 18:47:42.
