data_PCOD9284663
_publ_section_title
;
Structure prediction by ZEFSAII (Michael W. Deem and Ramdas Pophale) SiO2 
 PCOD9284663
Probable space group: C 2/C
;
_chemical_formula_sum "Si O2"
_cell_formula_units_Z 40
_cell_length_a 17.028582
_cell_length_b 9.171055
_cell_length_c 16.335773
_cell_angle_alpha 90.000000
_cell_angle_beta 125.367776
_cell_angle_gamma 90.000000
_cell_volume 2080.351184
_symmetry_space_group_name_H-M "C 2/C"
_symmetry_group_IT_number 15
_symmetry_cell_setting 'monoclinic'
loop_
_space_group_symop_operation_xyz
x,y,z
-x,y,1/2-z
-x,-y,-z
x,-y,1/2+z
1/2+x,1/2+y,z
1/2-x,1/2+y,1/2-z
1/2-x,1/2-y,-z
1/2+x,1/2-y,1/2+z
loop_
_atom_site_type_symbol
_atom_site_label
_atom_site_fract_x
_atom_site_fract_y
_atom_site_fract_z
Si Si1 0.291718 0.335535 0.102696
Si Si2 0.448397 0.415429 0.085785
Si Si3 0.437859 0.866265 0.788911
Si Si4 0.368881 0.417116 0.854887
Si Si5 0.315168 0.911312 0.311937
O O1 0.373844 0.439254 0.114535
O O2 0.161420 0.243337 0.192056
O O3 0.210211 0.414353 0.106607
O O4 0.250000 0.250000 0.000000
O O5 0.496110 0.257077 0.129607
O O6 0.535498 0.528293 0.132975
O O7 0.394404 0.414550 0.966463
O O8 0.500000 0.927107 0.750000
O O9 0.346895 0.779397 0.694768
O O10 0.398802 0.984686 0.828666
O O11 0.283112 0.530722 0.788156
#
# Coordination Sequence:
#
# PCOD9284663 Si02
#       5
#     8   8   8   8   8
#     4  11  20  39  65  88 118 170 208 240 310 379
#     4  10  21  41  63  89 119 166 208 250 309 375
#     4  10  22  40  61  88 123 165 207 256 307 368
#     4  11  22  37  66  89 123 159 208 255 311 359
#     4  12  21  40  62  92 124 163 209 257 306 367
#
# _framework density 19.227523000000001
#
# number of rings (size 3 to 8) (size 9 to 14) (size 15 to 20)
#    0.000    1.200    6.000    0.000    0.000    0.800 
#    3.600    0.000    0.000    4.800    0.000    0.000 
#    0.000    0.000    0.000    0.000    0.000    0.000 
#
# Total GULP energy -111675.987844 kJ/mol
# GULP energy per Si atom -5583.799392 kJ/mol
# Density = 1.918376 g / cm^3
# Si number density = 19.227523 Si / 1000 Ang^3
#
#
#
# Elastic Constant Matrix: (Units=GPa)
#
#
# Indices 1 2 3 4 5 6 
#
# 1 134.7402 59.8828 30.2018 0.0000 -45.4351 0.0000
# 2 59.8828 99.1943 41.1460 0.0000 -15.0900 0.0000
# 3 30.2018 41.1460 90.8343 0.0000 -6.5212 0.0000
# 4 0.0000 0.0000 0.0000 29.6961 0.0000 -6.1669
# 5 -45.4351 -15.0900 -6.5212 0.0000 35.0238 0.0000
# 6 0.0000 0.0000 0.0000 -6.1669 0.0000 39.0715
#
#
#
# Elastic Compliance Matrix: (Units=1/GPa)
#
#
# Indices 1 2 3 4 5 6 
#
# 1 0.017264 -0.007016 -0.001187 0.000000 0.019152 0.000000
# 2 -0.007016 0.015959 -0.005124 0.000000 -0.003180 0.000000
# 3 -0.001187 -0.005124 0.013638 0.000000 -0.001208 0.000000
# 4 0.000000 0.000000 0.000000 0.034816 0.000000 0.005495
# 5 0.019152 -0.003180 -0.001208 0.000000 0.051802 0.000000
# 6 0.000000 0.000000 0.000000 0.005495 0.000000 0.026461
#
#
# Mechanical properties :
#
#
# Convention : Reuss Voigt Hill
#
# Bulk Modulus (GPa) = 49.49101 65.24778 57.36940
# Shear Modulus (GPa) = 25.86234 33.66084 29.76159
#
# Velocity S-wave (km/s) = 3.67150 4.18863 3.93856
# Velocity P-wave (km/s) = 6.61579 7.57635 7.11231
#
# Compressibility (1/GPa) = 0.02020569
#
# Stress axis : x y z
#
# Youngs Moduli (GPa) = 57.92300 62.66157 73.32339
#
# Poissons Ratio (x) = 0.43966 0.08704
# Poissons Ratio (y) = 0.40641 0.37574
# Poissons Ratio (z) = 0.06876 0.32110
#
# Static dielectric constant tensor:
#      x y z
#    x 1.734470 0.000000 0.002130 
#    y 0.000000 1.650150 0.000000 
#    z 0.002130 0.000000 1.682170 
# 
# From -- ./inp_files/202201.got.cif
#   From: 2010.05.17/outbox.cif.g08.bks.cpg/sg15_102_cif.got.tgz:202201.got - 2010.06.03 18:47:42.
