data_PCOD9284344
_publ_section_title
;
Structure prediction by ZEFSAII (Michael W. Deem and Ramdas Pophale) SiO2 
 PCOD9284344
Probable space group: C 2/C
;
_chemical_formula_sum "Si O2"
_cell_formula_units_Z 60
_cell_length_a 22.396745
_cell_length_b 8.019750
_cell_length_c 30.471132
_cell_angle_alpha 90.000000
_cell_angle_beta 150.031669
_cell_angle_gamma 90.000000
_cell_volume 2733.935659
_symmetry_space_group_name_H-M "C 2/C"
_symmetry_group_IT_number 15
_symmetry_cell_setting 'monoclinic'
loop_
_space_group_symop_operation_xyz
x,y,z
-x,y,1/2-z
-x,-y,-z
x,-y,1/2+z
1/2+x,1/2+y,z
1/2-x,1/2+y,1/2-z
1/2-x,1/2-y,-z
1/2+x,1/2-y,1/2+z
loop_
_atom_site_type_symbol
_atom_site_label
_atom_site_fract_x
_atom_site_fract_y
_atom_site_fract_z
Si Si1 0.918351 0.419965 0.114956
Si Si2 0.324257 0.618768 0.662018
Si Si3 0.550020 0.827466 0.011455
Si Si4 0.545966 0.429142 0.679314
Si Si5 0.594510 0.096651 0.160549
Si Si6 0.154570 0.227306 0.163300
Si Si7 0.000000 0.397698 0.750000
Si Si8 0.184543 0.078222 0.945293
O O1 0.979749 0.241336 0.151012
O O2 0.930991 0.491194 0.171484
O O3 0.991070 0.539555 0.127812
O O4 0.780455 0.434727 0.015011
O O5 0.183108 0.646511 0.577116
O O6 0.367408 0.491770 0.726914
O O7 0.405240 0.784173 0.715842
O O8 0.347499 0.566487 0.626472
O O9 0.573790 0.707865 0.068263
O O10 0.459600 0.794109 0.913887
O O11 0.500000 0.000000 0.000000
O O12 0.610888 0.387285 0.675445
O O13 0.437514 0.558909 0.605792
O O14 0.706095 0.185873 0.254748
O O15 0.640389 0.919583 0.169571
O O16 0.250000 0.250000 0.000000
#
# Coordination Sequence:
#
# PCOD9284344 Si02
#       8
#     8   8   8   8   8   8   4   8
#     4  11  24  41  63  98 136 168 224 283 331 398
#     4  12  22  42  70  94 130 183 226 269 341 411
#     4  10  21  40  69  94 125 175 223 271 336 407
#     4  11  24  42  65  98 137 177 217 278 340 397
#     4  10  21  42  65  93 133 173 221 278 338 396
#     4  10  22  41  66  99 130 175 223 276 335 401
#     4  12  24  40  64  98 130 176 224 270 334 404
#     4  12  23  43  67  98 130 176 225 276 334 400
#
# _framework density 21.946383000000001
#
# number of rings (size 3 to 8) (size 9 to 14) (size 15 to 20)
#    0.000    1.067    4.000    2.800    1.867    1.067 
#    0.000    2.000    0.000    0.000    0.000    0.000 
#    0.000    0.000    0.000    0.000    0.000    0.000 
#
# Total GULP energy -167759.242653 kJ/mol
# GULP energy per Si atom -5591.974755 kJ/mol
# Density = 2.189643 g / cm^3
# Si number density = 21.946383 Si / 1000 Ang^3
#
#
#
# Elastic Constant Matrix: (Units=GPa)
#
#
# Indices 1 2 3 4 5 6 
#
# 1 90.7902 18.7194 36.3819 0.0000 -3.1234 0.0001
# 2 18.7194 67.9055 32.9897 0.0003 -10.1327 -0.0001
# 3 36.3819 32.9897 116.8318 -0.0001 -14.9754 -0.0001
# 4 0.0000 0.0003 -0.0001 34.7567 -0.0001 -3.6091
# 5 -3.1234 -10.1327 -14.9754 -0.0001 48.2895 0.0001
# 6 0.0001 -0.0001 -0.0001 -3.6091 0.0001 34.0947
#
#
#
# Elastic Compliance Matrix: (Units=1/GPa)
#
#
# Indices 1 2 3 4 5 6 
#
# 1 0.012801 -0.001913 -0.003532 0.000000 -0.000669 0.000000
# 2 -0.001913 0.017575 -0.004072 0.000000 0.002301 0.000000
# 3 -0.003532 -0.004072 0.011112 0.000000 0.002363 0.000000
# 4 0.000000 0.000000 0.000000 0.029091 0.000000 0.003079
# 5 -0.000669 0.002301 0.002363 0.000000 0.021881 0.000000
# 6 0.000000 0.000000 0.000000 0.003079 0.000000 0.029656
#
#
# Mechanical properties :
#
#
# Convention : Reuss Voigt Hill
#
# Bulk Modulus (GPa) = 44.53401 50.18995 47.36198
# Shear Modulus (GPa) = 33.63944 35.92394 34.78169
#
# Velocity S-wave (km/s) = 3.91935 4.05025 3.98533
# Velocity P-wave (km/s) = 6.38889 6.69266 6.54254
#
# Compressibility (1/GPa) = 0.02245475
#
# Stress axis : x y z
#
# Youngs Moduli (GPa) = 78.11822 56.89789 89.99354
#
# Poissons Ratio (x) = 0.10883 0.31785
# Poissons Ratio (y) = 0.14942 0.36646
# Poissons Ratio (z) = 0.27591 0.23169
#
# Static dielectric constant tensor:
#      x y z
#    x 1.808050 0.000000 0.033300 
#    y 0.000000 1.836230 0.000000 
#    z 0.033300 0.000000 1.972500 
# 
# From -- ./inp_files/318513.got.cif
#   From: 2010.05.17/outbox.cif.g08.bks.cpg/sg15_160_cif.got.tgz:318513.got - 2010.06.03 18:47:42.
