data_PCOD9284562
_publ_section_title
;
Structure prediction by ZEFSAII (Michael W. Deem and Ramdas Pophale) SiO2 
 PCOD9284562
Probable space group: C 2/C
;
_chemical_formula_sum "Si O2"
_cell_formula_units_Z 52
_cell_length_a 21.635713
_cell_length_b 9.819006
_cell_length_c 17.923644
_cell_angle_alpha 90.000000
_cell_angle_beta 139.929187
_cell_angle_gamma 90.000000
_cell_volume 2451.158635
_symmetry_space_group_name_H-M "C 2/C"
_symmetry_group_IT_number 15
_symmetry_cell_setting 'monoclinic'
loop_
_space_group_symop_operation_xyz
x,y,z
-x,y,1/2-z
-x,-y,-z
x,-y,1/2+z
1/2+x,1/2+y,z
1/2-x,1/2+y,1/2-z
1/2-x,1/2-y,-z
1/2+x,1/2-y,1/2+z
loop_
_atom_site_type_symbol
_atom_site_label
_atom_site_fract_x
_atom_site_fract_y
_atom_site_fract_z
Si Si1 0.436346 0.974719 0.257650
Si Si2 0.636995 0.763480 0.905018
Si Si3 0.560508 0.111622 0.486636
Si Si4 0.000000 0.986639 0.250000
Si Si5 0.316224 0.827143 0.263096
Si Si6 0.556408 0.571329 0.149260
Si Si7 0.902665 0.180524 0.898419
O O1 0.500000 0.910058 0.250000
O O2 0.402393 0.120347 0.189799
O O3 0.511037 0.989189 0.395737
O O4 0.346063 0.901345 0.213266
O O5 0.610753 0.807733 0.965151
O O6 0.585820 0.618765 0.846826
O O7 0.750000 0.750000 0.000000
O O8 0.637459 0.092319 0.623422
O O9 0.470026 0.194158 0.437376
O O10 0.967847 0.080282 0.287545
O O11 0.369354 0.682445 0.310332
O O12 0.204914 0.798982 0.174147
O O13 0.596301 0.421254 0.170755
O O14 0.458862 0.597679 0.014149
#
# Coordination Sequence:
#
# PCOD9284562 Si02
#       7
#     8   8   8   4   8   8   8
#     4  10  22  42  60  91 129 161 208 268 317 370
#     4  11  23  38  70  95 122 167 215 264 315 375
#     4  10  21  41  61  94 124 163 212 268 309 368
#     4  12  22  46  66  92 130 166 212 270 312 370
#     4  11  25  38  67  91 128 172 208 257 324 393
#     4  10  24  42  63  93 129 168 206 267 321 371
#     4  10  22  43  64  92 127 163 217 259 317 378
#
# _framework density 21.214456999999999
#
# number of rings (size 3 to 8) (size 9 to 14) (size 15 to 20)
#    0.000    1.538    3.846    0.462    9.692    0.000 
#    0.000    0.769    0.000    0.000    0.000    0.000 
#    0.000    0.000    0.000    0.000    0.000    0.000 
#
# Total GULP energy -145141.670248 kJ/mol
# GULP energy per Si atom -5582.371933 kJ/mol
# Density = 2.116617 g / cm^3
# Si number density = 21.214457 Si / 1000 Ang^3
#
#
#
# Elastic Constant Matrix: (Units=GPa)
#
#
# Indices 1 2 3 4 5 6 
#
# 1 154.3242 3.7560 62.8416 0.0000 17.8645 0.0000
# 2 3.7560 16.4490 7.1446 0.0000 5.4344 0.0000
# 3 62.8416 7.1446 63.4667 0.0000 28.9991 0.0000
# 4 0.0000 0.0000 0.0000 11.2575 0.0000 -7.6267
# 5 17.8645 5.4344 28.9991 0.0000 50.0545 0.0000
# 6 0.0000 0.0000 0.0000 -7.6267 0.0000 30.9419
#
#
#
# Elastic Compliance Matrix: (Units=1/GPa)
#
#
# Indices 1 2 3 4 5 6 
#
# 1 0.011307 0.001952 -0.012886 0.000000 0.003218 0.000000
# 2 0.001952 0.064784 -0.007743 0.000000 -0.003244 0.000000
# 3 -0.012886 -0.007743 0.036586 0.000000 -0.015757 0.000000
# 4 0.000000 0.000000 0.000000 0.106637 0.000000 0.026284
# 5 0.003218 -0.003244 -0.015757 0.000000 0.028311 0.000000
# 6 0.000000 0.000000 0.000000 0.026284 0.000000 0.038797
#
#
# Mechanical properties :
#
#
# Convention : Reuss Voigt Hill
#
# Bulk Modulus (GPa) = 13.27620 42.41382 27.84501
# Shear Modulus (GPa) = 14.33145 29.15062 21.74103
#
# Velocity S-wave (km/s) = 2.60196 3.71090 3.20476
# Velocity P-wave (km/s) = 3.91134 6.19655 5.18150
#
# Compressibility (1/GPa) = 0.07532275
#
# Stress axis : x y z
#
# Youngs Moduli (GPa) = 88.44110 15.43602 27.33268
#
# Poissons Ratio (x) = -0.03013 0.35220
# Poissons Ratio (y) = -0.17263 0.21164
# Poissons Ratio (z) = 1.13962 0.11952
#
# Static dielectric constant tensor:
#      x y z
#    x 1.765560 0.000000 -0.018940 
#    y 0.000000 1.791340 0.000000 
#    z -0.018940 0.000000 1.749670 
# 
# From -- ./inp_files/215104.got.cif
#   From: 2010.05.17/outbox.cif.g08.bks.cpg/sg15_108_cif.got.tgz:215104.got - 2010.06.03 18:47:42.
