data_PCOD9284912
_publ_section_title
;
Structure prediction by ZEFSAII (Michael W. Deem and Ramdas Pophale) SiO2 
 PCOD9284912
Probable space group: C 2/C
;
_chemical_formula_sum "Si O2"
_cell_formula_units_Z 56
_cell_length_a 8.578840
_cell_length_b 13.340506
_cell_length_c 23.643753
_cell_angle_alpha 90.000000
_cell_angle_beta 117.954617
_cell_angle_gamma 90.000000
_cell_volume 2390.203858
_symmetry_space_group_name_H-M "C 2/C"
_symmetry_group_IT_number 15
_symmetry_cell_setting 'monoclinic'
loop_
_space_group_symop_operation_xyz
x,y,z
-x,y,1/2-z
-x,-y,-z
x,-y,1/2+z
1/2+x,1/2+y,z
1/2-x,1/2+y,1/2-z
1/2-x,1/2-y,-z
1/2+x,1/2-y,1/2+z
loop_
_atom_site_type_symbol
_atom_site_label
_atom_site_fract_x
_atom_site_fract_y
_atom_site_fract_z
Si Si1 0.635717 0.769530 0.109367
Si Si2 0.781024 0.516091 0.027533
Si Si3 0.832608 0.175407 0.262557
Si Si4 0.029080 0.235652 0.634491
Si Si5 0.653483 0.993898 0.592209
Si Si6 0.973818 0.971957 0.307265
Si Si7 0.048039 0.163832 0.519628
O O1 0.638569 0.736451 0.174721
O O2 0.624519 0.888517 0.100536
O O3 0.826336 0.742450 0.115059
O O4 0.484392 0.717416 0.045924
O O5 0.699843 0.419714 0.044475
O O6 0.970539 0.552826 0.082197
O O7 0.819211 0.482240 0.969908
O O8 0.633080 0.601388 0.000766
O O9 0.661160 0.208564 0.198889
O O10 0.000000 0.191209 0.250000
O O11 0.828292 0.057916 0.279252
O O12 0.052154 0.115836 0.652803
O O13 0.071189 0.240535 0.575021
O O14 0.842578 0.969344 0.650274
O O15 0.000000 0.923357 0.250000
#
# Coordination Sequence:
#
# PCOD9284912 Si02
#       7
#     8   8   8   8   8   8   8
#     4  11  23  42  68  95 136 180 219 274 340 399
#     4  10  22  39  63  99 130 174 214 263 338 399
#     4  11  26  44  66  96 130 177 236 280 329 402
#     4  11  23  45  67  98 137 178 220 282 342 404
#     4  10  21  41  65  94 130 176 220 264 333 404
#     4  10  21  43  67  89 127 182 223 275 335 400
#     4  11  23  40  66 103 139 169 216 283 328 406
#
# _framework density 23.428965000000002
#
# number of rings (size 3 to 8) (size 9 to 14) (size 15 to 20)
#    0.000    1.429    2.857    3.429    4.000    2.857 
#    5.143    1.429    0.000    0.000    0.000    0.000 
#    0.000    0.000    0.000    0.000    0.000    0.000 
#
# Total GULP energy -156697.771537 kJ/mol
# GULP energy per Si atom -5596.348983 kJ/mol
# Density = 2.337564 g / cm^3
# Si number density = 23.428965 Si / 1000 Ang^3
#
#
#
# Elastic Constant Matrix: (Units=GPa)
#
#
# Indices 1 2 3 4 5 6 
#
# 1 61.1617 27.6696 25.0334 0.0000 3.1254 0.0000
# 2 27.6696 81.3507 22.3872 0.0000 6.7459 0.0000
# 3 25.0334 22.3872 129.8408 0.0000 -1.4164 0.0000
# 4 0.0000 0.0000 0.0000 41.9201 0.0000 -2.8235
# 5 3.1254 6.7459 -1.4164 0.0000 44.6988 0.0000
# 6 0.0000 0.0000 0.0000 -2.8235 0.0000 25.3528
#
#
#
# Elastic Compliance Matrix: (Units=1/GPa)
#
#
# Indices 1 2 3 4 5 6 
#
# 1 0.020301 -0.006064 -0.002875 0.000000 -0.000595 0.000000
# 2 -0.006064 0.014901 -0.001420 0.000000 -0.001870 0.000000
# 3 -0.002875 -0.001420 0.008508 0.000000 0.000685 0.000000
# 4 0.000000 0.000000 0.000000 0.024035 0.000000 0.002677
# 5 -0.000595 -0.001870 0.000685 0.000000 0.022718 0.000000
# 6 0.000000 0.000000 0.000000 0.002677 0.000000 0.039742
#
#
# Mechanical properties :
#
#
# Convention : Reuss Voigt Hill
#
# Bulk Modulus (GPa) = 43.49545 46.94818 45.22182
# Shear Modulus (GPa) = 31.52838 35.54520 33.53679
#
# Velocity S-wave (km/s) = 3.67236 3.89928 3.78752
# Velocity P-wave (km/s) = 6.04870 6.35252 6.20247
#
# Compressibility (1/GPa) = 0.02299091
#
# Stress axis : x y z
#
# Youngs Moduli (GPa) = 49.25934 67.10943 117.53090
#
# Poissons Ratio (x) = 0.40697 0.33789
# Poissons Ratio (y) = 0.29872 0.16695
# Poissons Ratio (z) = 0.14161 0.09532
#
# Static dielectric constant tensor:
#      x y z
#    x 1.888290 0.000000 0.022980 
#    y 0.000000 1.903100 0.000000 
#    z 0.022980 0.000000 1.912670 
# 
# From -- ./inp_files/264809.got.cif
#   From: 2010.05.17/outbox.cif.g08.bks.cpg/sg15_133_cif.got.tgz:264809.got - 2010.06.03 18:47:42.
