data_PCOD9284401
_publ_section_title
;
Structure prediction by ZEFSAII (Michael W. Deem and Ramdas Pophale) SiO2 
 PCOD9284401
Probable space group: C 2/C
;
_chemical_formula_sum "Si O2"
_cell_formula_units_Z 52
_cell_length_a 30.717824
_cell_length_b 8.885112
_cell_length_c 14.629737
_cell_angle_alpha 90.000000
_cell_angle_beta 147.298350
_cell_angle_gamma 90.000000
_cell_volume 2157.229488
_symmetry_space_group_name_H-M "C 2/C"
_symmetry_group_IT_number 15
_symmetry_cell_setting 'monoclinic'
loop_
_space_group_symop_operation_xyz
x,y,z
-x,y,1/2-z
-x,-y,-z
x,-y,1/2+z
1/2+x,1/2+y,z
1/2-x,1/2+y,1/2-z
1/2-x,1/2-y,-z
1/2+x,1/2-y,1/2+z
loop_
_atom_site_type_symbol
_atom_site_label
_atom_site_fract_x
_atom_site_fract_y
_atom_site_fract_z
Si Si1 0.090935 0.988412 0.227685
Si Si2 0.421977 0.420586 0.992927
Si Si3 0.671867 0.195503 0.306001
Si Si4 0.000000 0.669592 0.250000
Si Si5 0.228698 0.865603 0.246557
Si Si6 0.631250 0.014088 0.881854
Si Si7 0.792185 0.188172 0.984414
O O1 0.167883 0.029734 0.422857
O O2 0.103729 0.820026 0.211480
O O3 0.092259 0.097453 0.141647
O O4 0.009926 0.000769 0.142524
O O5 0.439254 0.276765 0.085864
O O6 0.347947 0.521997 0.895465
O O7 0.750000 0.250000 0.500000
O O8 0.695112 0.219883 0.242092
O O9 0.646885 0.037447 0.304828
O O10 0.050851 0.565292 0.272846
O O11 0.295968 0.944535 0.427974
O O12 0.257035 0.821755 0.195843
O O13 0.636292 0.191214 0.904904
O O14 0.750000 0.250000 0.000000
#
# Coordination Sequence:
#
# PCOD9284401 Si02
#       7
#     8   8   8   4   8   8   8
#     4  10  21  40  70  96 132 176 241 269 339 407
#     4  10  21  42  72 100 125 188 227 283 325 426
#     4   9  18  41  64  95 132 174 224 281 332 405
#     4  12  24  42  72  98 148 170 230 280 358 388
#     4  10  24  41  71  95 134 182 239 269 338 415
#     4  11  26  42  67 104 139 179 223 287 348 400
#     4  12  26  43  66 100 138 180 225 291 337 410
#
# _framework density 24.104991999999999
#
# number of rings (size 3 to 8) (size 9 to 14) (size 15 to 20)
#    0.000    1.538    1.538    3.692    4.308    3.692 
#    0.000    0.769    0.000    0.000    0.000    0.000 
#    0.000    0.000    0.000    0.000    0.000    0.000 
#
# Total GULP energy -145392.291420 kJ/mol
# GULP energy per Si atom -5592.011208 kJ/mol
# Density = 2.405013 g / cm^3
# Si number density = 24.104992 Si / 1000 Ang^3
#
#
#
# Elastic Constant Matrix: (Units=GPa)
#
#
# Indices 1 2 3 4 5 6 
#
# 1 111.7006 6.2415 26.0506 0.0000 -10.8684 0.0000
# 2 6.2415 69.7831 5.1949 0.0000 -6.2812 0.0000
# 3 26.0506 5.1949 62.7255 0.0000 -0.6784 0.0000
# 4 0.0000 0.0000 0.0000 32.3389 0.0000 6.4219
# 5 -10.8684 -6.2812 -0.6784 0.0000 39.9722 0.0000
# 6 0.0000 0.0000 0.0000 6.4219 0.0000 17.4623
#
#
#
# Elastic Compliance Matrix: (Units=1/GPa)
#
#
# Indices 1 2 3 4 5 6 
#
# 1 0.010205 -0.000363 -0.004180 0.000000 0.002647 0.000000
# 2 -0.000363 0.014636 -0.001038 0.000000 0.002184 0.000000
# 3 -0.004180 -0.001038 0.017753 0.000000 -0.000998 0.000000
# 4 0.000000 0.000000 0.000000 0.033359 0.000000 -0.012268
# 5 0.002647 0.002184 -0.000998 0.000000 0.026063 0.000000
# 6 0.000000 0.000000 0.000000 -0.012268 0.000000 0.061778
#
#
# Mechanical properties :
#
#
# Convention : Reuss Voigt Hill
#
# Bulk Modulus (GPa) = 31.81297 35.46481 33.63889
# Shear Modulus (GPa) = 26.96382 31.73617 29.34999
#
# Velocity S-wave (km/s) = 3.34817 3.63241 3.49318
# Velocity P-wave (km/s) = 5.30786 5.68657 5.50047
#
# Compressibility (1/GPa) = 0.03143372
#
# Stress axis : x y z
#
# Youngs Moduli (GPa) = 97.99034 68.32284 56.32708
#
# Poissons Ratio (x) = 0.02483 0.23542
# Poissons Ratio (y) = 0.03561 0.05845
# Poissons Ratio (z) = 0.40956 0.07090
#
# Static dielectric constant tensor:
#      x y z
#    x 1.949050 0.000000 -0.005110 
#    y 0.000000 1.947730 0.000000 
#    z -0.005110 0.000000 1.933990 
# 
# From -- ./inp_files/181238.got.cif
#   From: 2010.05.17/outbox.cif.g08.bks.cpg/sg15_91_cif.got.tgz:181238.got - 2010.06.03 18:47:42.
