data_PCOD9284647
_publ_section_title
;
Structure prediction by ZEFSAII (Michael W. Deem and Ramdas Pophale) SiO2 
 PCOD9284647
Probable space group: C 2/C
;
_chemical_formula_sum "Si O2"
_cell_formula_units_Z 24
_cell_length_a 13.626918
_cell_length_b 4.866994
_cell_length_c 16.405867
_cell_angle_alpha 90.000000
_cell_angle_beta 128.482066
_cell_angle_gamma 90.000000
_cell_volume 851.746004
_symmetry_space_group_name_H-M "C 2/C"
_symmetry_group_IT_number 15
_symmetry_cell_setting 'monoclinic'
loop_
_space_group_symop_operation_xyz
x,y,z
-x,y,1/2-z
-x,-y,-z
x,-y,1/2+z
1/2+x,1/2+y,z
1/2-x,1/2+y,1/2-z
1/2-x,1/2-y,-z
1/2+x,1/2-y,1/2+z
loop_
_atom_site_type_symbol
_atom_site_label
_atom_site_fract_x
_atom_site_fract_y
_atom_site_fract_z
Si Si1 0.547272 0.696101 0.356363
Si Si2 0.123093 0.518074 0.119585
Si Si3 0.784324 0.021078 0.415709
O O1 0.500000 0.550382 0.250000
O O2 0.430374 0.878576 0.327538
O O3 0.659438 0.904845 0.391349
O O4 0.607112 0.509781 0.458713
O O5 0.171545 0.825829 0.136351
O O6 0.221221 0.323766 0.123125
O O7 0.000000 0.500000 0.000000
#
# Coordination Sequence:
#
# PCOD9284647 Si02
#       3
#     8   8   8
#     4  10  22  39  63  91 119 158 204 247 296 355
#     4  10  21  41  63  86 122 161 194 244 305 354
#     4  10  23  42  61  87 124 159 197 247 300 355
#
# _framework density 28.177416000000001
#
# number of rings (size 3 to 8) (size 9 to 14) (size 15 to 20)
#    0.000    2.000    0.000    4.000    0.000   17.333 
#    0.000   23.333    0.000    0.000    0.000    0.000 
#    0.000    0.000    0.000    0.000    0.000    0.000 
#
# Total GULP energy -67333.462261 kJ/mol
# GULP energy per Si atom -5611.121855 kJ/mol
# Density = 2.811328 g / cm^3
# Si number density = 28.177416 Si / 1000 Ang^3
#
#
#
# Elastic Constant Matrix: (Units=GPa)
#
#
# Indices 1 2 3 4 5 6 
#
# 1 141.0269 19.9245 31.1100 0.0000 10.9107 -0.0001
# 2 19.9245 97.7495 8.3675 0.0000 -5.0176 -0.0002
# 3 31.1100 8.3675 172.0964 0.0000 -9.4212 0.0000
# 4 0.0000 0.0000 0.0000 5.0354 0.0000 2.7610
# 5 10.9107 -5.0176 -9.4212 0.0000 49.2934 0.0000
# 6 -0.0001 -0.0002 0.0000 2.7610 0.0000 43.2915
#
#
#
# Elastic Compliance Matrix: (Units=1/GPa)
#
#
# Indices 1 2 3 4 5 6 
#
# 1 0.007801 -0.001577 -0.001452 0.000000 -0.002165 0.000000
# 2 -0.001577 0.010637 -0.000155 0.000000 0.001402 0.000000
# 3 -0.001452 -0.000155 0.006162 0.000000 0.001483 0.000000
# 4 0.000000 0.000000 0.000000 0.205791 0.000000 -0.013125
# 5 -0.002165 0.001402 0.001483 0.000000 0.021192 0.000000
# 6 0.000000 0.000000 0.000000 -0.013125 0.000000 0.023936
#
#
# Mechanical properties :
#
#
# Convention : Reuss Voigt Hill
#
# Bulk Modulus (GPa) = 54.85032 58.85295 56.85163
# Shear Modulus (GPa) = 17.36316 42.95544 30.15930
#
# Velocity S-wave (km/s) = 2.48505 3.90867 3.27515
# Velocity P-wave (km/s) = 5.26709 6.42668 5.87556
#
# Compressibility (1/GPa) = 0.01823143
#
# Stress axis : x y z
#
# Youngs Moduli (GPa) = 128.18105 94.01192 162.28626
#
# Poissons Ratio (x) = 0.14826 0.23566
# Poissons Ratio (y) = 0.20214 0.02521
# Poissons Ratio (z) = 0.18613 0.01460
#
# Static dielectric constant tensor:
#      x y z
#    x 2.156110 0.000000 -0.053770 
#    y 0.000000 2.095720 0.000000 
#    z -0.053770 0.000000 2.241820 
# 
# From -- ./inp_files/140057.got.cif
#   From: 2010.05.17/outbox.cif.g08.bks.cpg/sg15_71_cif.got.tgz:140057.got - 2010.06.03 18:47:42.
