data_PCOD9284112
_publ_section_title
;
Structure prediction by ZEFSAII (Michael W. Deem and Ramdas Pophale) SiO2 
 PCOD9284112
Probable space group: C 2/C
;
_chemical_formula_sum "Si O2"
_cell_formula_units_Z 56
_cell_length_a 18.218526
_cell_length_b 26.943311
_cell_length_c 9.181623
_cell_angle_alpha 90.000000
_cell_angle_beta 143.966243
_cell_angle_gamma 90.000000
_cell_volume 2651.272117
_symmetry_space_group_name_H-M "C 2/C"
_symmetry_group_IT_number 15
_symmetry_cell_setting 'monoclinic'
loop_
_space_group_symop_operation_xyz
x,y,z
-x,y,1/2-z
-x,-y,-z
x,-y,1/2+z
1/2+x,1/2+y,z
1/2-x,1/2+y,1/2-z
1/2-x,1/2-y,-z
1/2+x,1/2-y,1/2+z
loop_
_atom_site_type_symbol
_atom_site_label
_atom_site_fract_x
_atom_site_fract_y
_atom_site_fract_z
Si Si1 0.457498 0.829605 0.481362
Si Si2 0.215488 0.363823 0.793688
Si Si3 0.260102 0.338539 0.179629
Si Si4 0.524535 0.732153 0.445064
Si Si5 0.627807 0.558587 0.545940
Si Si6 0.730106 0.307422 0.916224
Si Si7 0.639861 0.462401 0.410373
O O1 0.568407 0.863907 0.599110
O O2 0.385020 0.834803 0.517121
O O3 0.509181 0.773668 0.542031
O O4 0.334945 0.834614 0.180202
O O5 0.243916 0.328556 0.702817
O O6 0.280293 0.341155 0.040302
O O7 0.274524 0.418683 0.886329
O O8 0.340596 0.291591 0.354331
O O9 0.308590 0.388398 0.332778
O O10 0.500000 0.757847 0.250000
O O11 0.419812 0.689341 0.298723
O O12 0.690501 0.515130 0.550588
O O13 0.624286 0.539981 0.709559
O O14 0.500000 0.566351 0.250000
O O15 0.750000 0.250000 0.000000
O O16 0.500000 0.456867 0.250000
#
# Coordination Sequence:
#
# PCOD9284112 Si02
#       7
#     8   8   8   8   8   8   8
#     4  11  23  42  63  87 130 178 218 266 322 395
#     4  11  25  41  63  93 135 165 219 264 334 395
#     4  11  25  41  64  97 129 176 216 276 327 391
#     4  11  22  41  63  92 125 168 227 266 324 383
#     4  10  21  40  66  98 132 166 221 276 339 388
#     4  10  22  41  64  87 125 172 216 270 312 386
#     4  10  22  40  65  99 131 168 214 282 333 393
#
# _framework density 21.121936999999999
#
# number of rings (size 3 to 8) (size 9 to 14) (size 15 to 20)
#    0.000    1.429    1.429    4.714    6.000    1.714 
#    5.143    0.714    0.000    1.714    0.000    0.000 
#    0.000    0.000    0.000    0.000    0.000    0.000 
#
# Total GULP energy -156075.505410 kJ/mol
# GULP energy per Si atom -5574.125193 kJ/mol
# Density = 2.107386 g / cm^3
# Si number density = 21.121937 Si / 1000 Ang^3
#
#
#
# Elastic Constant Matrix: (Units=GPa)
#
#
# Indices 1 2 3 4 5 6 
#
# 1 85.7505 32.3777 10.9171 0.0000 -2.6221 0.0000
# 2 32.3777 87.0750 38.8507 0.0000 -9.8939 0.0000
# 3 10.9171 38.8507 65.7255 0.0000 4.8962 0.0000
# 4 0.0000 0.0000 0.0000 26.8886 0.0000 -8.3791
# 5 -2.6221 -9.8939 4.8962 0.0000 47.1456 0.0000
# 6 0.0000 0.0000 0.0000 -8.3791 0.0000 28.3197
#
#
#
# Elastic Compliance Matrix: (Units=1/GPa)
#
#
# Indices 1 2 3 4 5 6 
#
# 1 0.013627 -0.005617 0.001097 0.000000 -0.000535 0.000000
# 2 -0.005617 0.018813 -0.010540 0.000000 0.004730 0.000000
# 3 0.001097 -0.010540 0.021590 0.000000 -0.004393 0.000000
# 4 0.000000 0.000000 0.000000 0.040968 0.000000 0.012121
# 5 -0.000535 0.004730 -0.004393 0.000000 0.022630 0.000000
# 6 0.000000 0.000000 0.000000 0.012121 0.000000 0.038898
#
#
# Mechanical properties :
#
#
# Convention : Reuss Voigt Hill
#
# Bulk Modulus (GPa) = 41.82460 44.76021 43.29241
# Shear Modulus (GPa) = 25.69171 30.89782 28.29477
#
# Velocity S-wave (km/s) = 3.49141 3.82885 3.66401
# Velocity P-wave (km/s) = 6.00814 6.38624 6.20007
#
# Compressibility (1/GPa) = 0.02390937
#
# Stress axis : x y z
#
# Youngs Moduli (GPa) = 73.38580 53.15458 46.31760
#
# Poissons Ratio (x) = 0.29857 -0.05079
# Poissons Ratio (y) = 0.41220 0.48818
# Poissons Ratio (z) = -0.08048 0.56024
#
# Static dielectric constant tensor:
#      x y z
#    x 1.860440 0.000000 -0.019750 
#    y 0.000000 1.780210 0.000000 
#    z -0.019750 0.000000 1.839350 
# 
# From -- ./inp_files/52378.got.cif
#   From: 2010.05.17/outbox.cif.g08.bks.cpg/sg15_27_cif.got.tgz:52378.got - 2010.06.03 18:47:42.
