data_PCOD9284246
_publ_section_title
;
Structure prediction by ZEFSAII (Michael W. Deem and Ramdas Pophale) SiO2 
 PCOD9284246
Probable space group: C 2/C
;
_chemical_formula_sum "Si O2"
_cell_formula_units_Z 36
_cell_length_a 27.052767
_cell_length_b 5.169255
_cell_length_c 29.234788
_cell_angle_alpha 90.000000
_cell_angle_beta 161.684753
_cell_angle_gamma 90.000000
_cell_volume 1284.718883
_symmetry_space_group_name_H-M "C 2/C"
_symmetry_group_IT_number 15
_symmetry_cell_setting 'monoclinic'
loop_
_space_group_symop_operation_xyz
x,y,z
-x,y,1/2-z
-x,-y,-z
x,-y,1/2+z
1/2+x,1/2+y,z
1/2-x,1/2+y,1/2-z
1/2-x,1/2-y,-z
1/2+x,1/2-y,1/2+z
loop_
_atom_site_type_symbol
_atom_site_label
_atom_site_fract_x
_atom_site_fract_y
_atom_site_fract_z
Si Si1 0.500000 0.837206 0.250000
Si Si2 0.425368 0.784312 0.813132
Si Si3 0.643054 0.730152 0.649998
Si Si4 0.790436 0.282132 0.888732
Si Si5 0.342769 0.467715 0.528645
O O1 0.564898 0.658199 0.348079
O O2 0.656688 0.994028 0.373994
O O3 0.471069 0.753821 0.906882
O O4 0.332586 0.047714 0.725999
O O5 0.574071 0.734415 0.911802
O O6 0.306119 0.548053 0.697525
O O7 0.769185 0.957694 0.768485
O O8 0.595202 0.764084 0.555152
O O9 0.860523 0.215932 0.999557
#
# Coordination Sequence:
#
# PCOD9284246 Si02
#       5
#     4   8   8   8   8
#     4  10  24  46  74 106 134 186 238 302 346 412
#     4  10  21  40  68 103 140 184 224 283 344 416
#     4   8  16  33  60  99 140 175 224 269 338 411
#     4  10  21  40  68 103 140 184 224 283 344 416
#     4  11  22  45  75  99 143 177 243 288 358 405
#
# _framework density 28.021692999999999
#
# number of rings (size 3 to 8) (size 9 to 14) (size 15 to 20)
#    0.000    2.222    2.222    0.000    0.000    2.667 
#    0.000    3.333    0.000   16.000    0.000    0.000 
#    0.000    0.000    0.000    0.000    0.000    0.000 
#
# Total GULP energy -101083.683405 kJ/mol
# GULP energy per Si atom -5615.760189 kJ/mol
# Density = 2.795791 g / cm^3
# Si number density = 28.021693 Si / 1000 Ang^3
#
#
#
# Elastic Constant Matrix: (Units=GPa)
#
#
# Indices 1 2 3 4 5 6 
#
# 1 179.9296 11.0638 92.7434 0.0796 -8.7261 -0.0272
# 2 11.0638 166.4064 71.5120 0.1163 11.8434 0.0924
# 3 92.7434 71.5120 171.4855 0.0391 -1.1016 -0.0441
# 4 0.0796 0.1163 0.0391 43.5853 -0.0236 -7.5203
# 5 -8.7261 11.8434 -1.1016 -0.0236 56.6057 0.0268
# 6 -0.0272 0.0924 -0.0441 -7.5203 0.0268 29.5123
#
#
#
# Elastic Compliance Matrix: (Units=1/GPa)
#
#
# Indices 1 2 3 4 5 6 
#
# 1 0.008090 0.001561 -0.005021 -0.000016 0.000823 -0.000010
# 2 0.001561 0.007769 -0.004094 -0.000027 -0.001464 -0.000034
# 3 -0.005021 -0.004094 0.010256 0.000016 0.000282 0.000027
# 4 -0.000016 -0.000027 0.000016 0.023999 0.000011 0.006115
# 5 0.000823 -0.001464 0.000282 0.000011 0.018105 -0.000008
# 6 -0.000010 -0.000034 0.000027 0.006115 -0.000008 0.035443
#
#
# Mechanical properties :
#
#
# Convention : Reuss Voigt Hill
#
# Bulk Modulus (GPa) = 90.84281 96.49554 93.66917
# Shear Modulus (GPa) = 40.83763 48.77417 44.80590
#
# Velocity S-wave (km/s) = 3.82168 4.17656 4.00305
# Velocity P-wave (km/s) = 7.20852 7.60059 7.40715
#
# Compressibility (1/GPa) = 0.01100803
#
# Stress axis : x y z
#
# Youngs Moduli (GPa) = 123.61589 128.71608 97.50699
#
# Poissons Ratio (x) = -0.20096 0.48957
# Poissons Ratio (y) = -0.19300 0.39915
# Poissons Ratio (z) = 0.62065 0.52691
#
# Static dielectric constant tensor:
#      x y z
#    x 2.230210 -0.000190 -0.036190 
#    y -0.000190 2.155180 0.000010 
#    z -0.036190 0.000010 2.135920 
# 
# From -- ./inp_files/320019.got.cif
#   From: 2010.05.17/outbox.cif.g08.bks.cpg/sg15_161_cif.got.tgz:320019.got - 2010.06.03 18:47:42.
