data_PCOD9284432
_publ_section_title
;
Structure prediction by ZEFSAII (Michael W. Deem and Ramdas Pophale) SiO2 
 PCOD9284432
Probable space group: C 2/C
;
_chemical_formula_sum "Si O2"
_cell_formula_units_Z 44
_cell_length_a 11.502514
_cell_length_b 25.742483
_cell_length_c 10.430983
_cell_angle_alpha 90.000000
_cell_angle_beta 41.632277
_cell_angle_gamma 90.000000
_cell_volume 2051.935306
_symmetry_space_group_name_H-M "C 2/C"
_symmetry_group_IT_number 15
_symmetry_cell_setting 'monoclinic'
loop_
_space_group_symop_operation_xyz
x,y,z
-x,y,1/2-z
-x,-y,-z
x,-y,1/2+z
1/2+x,1/2+y,z
1/2-x,1/2+y,1/2-z
1/2-x,1/2-y,-z
1/2+x,1/2-y,1/2+z
loop_
_atom_site_type_symbol
_atom_site_label
_atom_site_fract_x
_atom_site_fract_y
_atom_site_fract_z
Si Si1 0.839696 0.680513 0.284646
Si Si2 0.858728 0.453609 0.250476
Si Si3 0.905322 0.567926 0.189562
Si Si4 0.000000 0.293447 0.250000
Si Si5 0.659306 0.641607 0.018299
Si Si6 0.014111 0.230348 0.485022
O O1 0.659356 0.709528 0.464652
O O2 0.000000 0.675979 0.250000
O O3 0.802667 0.622196 0.266285
O O4 0.915795 0.720439 0.120295
O O5 0.711528 0.414017 0.418019
O O6 0.000000 0.454811 0.250000
O O7 0.803340 0.513182 0.268611
O O8 0.955702 0.433773 0.041668
O O9 0.000000 0.567690 0.250000
O O10 0.070541 0.254197 0.300838
O O11 0.838301 0.330934 0.421994
O O12 0.500000 0.638082 0.250000
O O13 0.598973 0.680190 0.955551
#
# Coordination Sequence:
#
# PCOD9284432 Si02
#       6
#     8   8   8   4   8   8
#     4  11  24  41  63  88 130 179 228 271 326 397
#     4  10  21  40  71  98 130 178 232 278 346 405
#     4   9  21  42  69  93 127 187 230 275 342 408
#     4  12  22  42  62 100 148 176 210 278 354 412
#     4  12  24  38  67 109 143 172 218 284 353 410
#     4  12  23  39  63  97 135 175 222 274 337 410
#
# _framework density 21.443171
#
# number of rings (size 3 to 8) (size 9 to 14) (size 15 to 20)
#    0.000    1.091    3.636    3.273    2.545    0.000 
#    0.000    0.909    0.000    0.000    0.000    0.000 
#    0.000    0.000    0.000    0.000    0.000    0.000 
#
# Total GULP energy -122678.988937 kJ/mol
# GULP energy per Si atom -5576.317679 kJ/mol
# Density = 2.139437 g / cm^3
# Si number density = 21.443171 Si / 1000 Ang^3
#
#
#
# Elastic Constant Matrix: (Units=GPa)
#
#
# Indices 1 2 3 4 5 6 
#
# 1 73.4417 19.9868 29.4336 0.0000 -6.0683 0.0000
# 2 19.9868 187.2468 59.1271 0.0000 -10.3205 0.0000
# 3 29.4336 59.1271 80.5075 0.0000 -6.6752 0.0000
# 4 0.0000 0.0000 0.0000 32.5548 0.0000 5.8434
# 5 -6.0683 -10.3205 -6.6752 0.0000 26.8795 0.0000
# 6 0.0000 0.0000 0.0000 5.8434 0.0000 39.4675
#
#
#
# Elastic Compliance Matrix: (Units=1/GPa)
#
#
# Indices 1 2 3 4 5 6 
#
# 1 0.016092 0.000268 -0.005892 0.000000 0.002273 0.000000
# 2 0.000268 0.007012 -0.005125 0.000000 0.001480 0.000000
# 3 -0.005892 -0.005125 0.018446 0.000000 0.001283 0.000000
# 4 0.000000 0.000000 0.000000 0.031556 0.000000 -0.004672
# 5 0.002273 0.001480 0.001283 0.000000 0.038603 0.000000
# 6 0.000000 0.000000 0.000000 -0.004672 0.000000 0.026029
#
#
# Mechanical properties :
#
#
# Convention : Reuss Voigt Hill
#
# Bulk Modulus (GPa) = 49.86966 62.03235 55.95100
# Shear Modulus (GPa) = 30.13511 35.29025 32.71268
#
# Velocity S-wave (km/s) = 3.75286 4.06119 3.91007
# Velocity P-wave (km/s) = 6.48736 7.14021 6.82160
#
# Compressibility (1/GPa) = 0.02005227
#
# Stress axis : x y z
#
# Youngs Moduli (GPa) = 62.14117 142.61613 54.21365
#
# Poissons Ratio (x) = -0.03822 0.31942
# Poissons Ratio (y) = -0.01666 0.27784
# Poissons Ratio (z) = 0.36612 0.73090
#
# Static dielectric constant tensor:
#      x y z
#    x 1.845620 0.000000 0.018070 
#    y 0.000000 1.796360 0.000000 
#    z 0.018070 0.000000 1.846760 
# 
# From -- ./inp_files/91123.got.cif
#   From: 2010.05.17/outbox.cif.g08.bks.cpg/sg15_46_cif.got.tgz:91123.got - 2010.06.03 18:47:42.
