data_PCOD9284606
_publ_section_title
;
Structure prediction by ZEFSAII (Michael W. Deem and Ramdas Pophale) SiO2 
 PCOD9284606
Probable space group: C 2/C
;
_chemical_formula_sum "Si O2"
_cell_formula_units_Z 32
_cell_length_a 18.692086
_cell_length_b 9.356368
_cell_length_c 12.135347
_cell_angle_alpha 90.000000
_cell_angle_beta 34.586694
_cell_angle_gamma 90.000000
_cell_volume 1204.758150
_symmetry_space_group_name_H-M "C 2/C"
_symmetry_group_IT_number 15
_symmetry_cell_setting 'monoclinic'
loop_
_space_group_symop_operation_xyz
x,y,z
-x,y,1/2-z
-x,-y,-z
x,-y,1/2+z
1/2+x,1/2+y,z
1/2-x,1/2+y,1/2-z
1/2-x,1/2-y,-z
1/2+x,1/2-y,1/2+z
loop_
_atom_site_type_symbol
_atom_site_label
_atom_site_fract_x
_atom_site_fract_y
_atom_site_fract_z
Si Si1 0.500000 0.148528 0.250000
Si Si2 0.000000 0.808991 0.750000
Si Si3 0.381461 0.513616 0.746139
Si Si4 0.150489 0.579088 0.672906
Si Si5 0.403059 0.284742 0.559295
O O1 0.451952 0.043647 0.215310
O O2 0.388593 0.235924 0.451497
O O3 0.006065 0.913218 0.846069
O O4 0.115859 0.702346 0.626055
O O5 0.337056 0.425045 0.695081
O O6 0.448864 0.662652 0.636369
O O7 0.278345 0.494917 0.971402
O O8 0.134492 0.659285 0.808748
#
# Coordination Sequence:
#
# PCOD9284606 Si02
#       5
#     4   4   8   8   8
#     4  11  23  42  60  96 131 169 214 270 330 391
#     4   9  17  36  66  88 133 163 214 264 324 389
#     4  10  21  41  67  96 126 176 214 272 330 388
#     4  10  22  42  64  95 134 172 213 275 328 387
#     4  10  21  41  62  91 135 165 220 271 317 396
#
# _framework density 26.561347999999999
#
# number of rings (size 3 to 8) (size 9 to 14) (size 15 to 20)
#    0.000    2.000    0.000    4.500    0.000    1.000 
#   36.000    0.000    0.000    0.000    0.000    0.000 
#    0.000    0.000    0.000    0.000    0.000    0.000 
#
# Total GULP energy -89164.818715 kJ/mol
# GULP energy per Si atom -5572.801170 kJ/mol
# Density = 2.650089 g / cm^3
# Si number density = 26.561348 Si / 1000 Ang^3
#
#
#
# Elastic Constant Matrix: (Units=GPa)
#
#
# Indices 1 2 3 4 5 6 
#
# 1 37.7062 24.2558 29.6077 0.0000 9.3748 0.0000
# 2 24.2558 122.2914 47.4993 0.0000 11.5571 0.0000
# 3 29.6077 47.4993 184.6081 0.0000 22.0799 0.0000
# 4 0.0000 0.0000 0.0000 45.3506 0.0000 4.3809
# 5 9.3748 11.5571 22.0799 0.0000 33.0729 0.0000
# 6 0.0000 0.0000 0.0000 4.3809 0.0000 34.8751
#
#
#
# Elastic Compliance Matrix: (Units=1/GPa)
#
#
# Indices 1 2 3 4 5 6 
#
# 1 0.033749 -0.004806 -0.003513 0.000000 -0.005541 0.000000
# 2 -0.004806 0.009864 -0.001650 0.000000 -0.000983 0.000000
# 3 -0.003513 -0.001650 0.006756 0.000000 -0.002938 0.000000
# 4 0.000000 0.000000 0.000000 0.022321 0.000000 -0.002804
# 5 -0.005541 -0.000983 -0.002938 0.000000 0.034112 0.000000
# 6 0.000000 0.000000 0.000000 -0.002804 0.000000 0.029026
#
#
# Mechanical properties :
#
#
# Convention : Reuss Voigt Hill
#
# Bulk Modulus (GPa) = 32.86042 60.81459 46.83750
# Shear Modulus (GPa) = 30.13692 38.87593 34.50642
#
# Velocity S-wave (km/s) = 3.37206 3.82989 3.60824
# Velocity P-wave (km/s) = 5.24971 6.51943 5.91872
#
# Compressibility (1/GPa) = 0.03043175
#
# Stress axis : x y z
#
# Youngs Moduli (GPa) = 29.63080 101.37863 148.01133
#
# Poissons Ratio (x) = 0.48718 0.52003
# Poissons Ratio (y) = 0.14239 0.24417
# Poissons Ratio (z) = 0.10411 0.16724
#
# Static dielectric constant tensor:
#      x y z
#    x 2.341570 0.000000 -0.052460 
#    y 0.000000 2.136430 0.000000 
#    z -0.052460 0.000000 2.101480 
# 
# From -- ./inp_files/176421.got.cif
#   From: 2010.05.17/outbox.cif.g08.bks.cpg/sg15_89_cif.got.tgz:176421.got - 2010.06.03 18:47:42.
