data_PCOD9284324
_publ_section_title
;
Structure prediction by ZEFSAII (Michael W. Deem and Ramdas Pophale) SiO2 
 PCOD9284324
Probable space group: C 2/C
;
_chemical_formula_sum "Si O2"
_cell_formula_units_Z 56
_cell_length_a 10.873812
_cell_length_b 14.043952
_cell_length_c 23.536822
_cell_angle_alpha 90.000000
_cell_angle_beta 138.371997
_cell_angle_gamma 90.000000
_cell_volume 2387.688955
_symmetry_space_group_name_H-M "C 2/C"
_symmetry_group_IT_number 15
_symmetry_cell_setting 'monoclinic'
loop_
_space_group_symop_operation_xyz
x,y,z
-x,y,1/2-z
-x,-y,-z
x,-y,1/2+z
1/2+x,1/2+y,z
1/2-x,1/2+y,1/2-z
1/2-x,1/2-y,-z
1/2+x,1/2-y,1/2+z
loop_
_atom_site_type_symbol
_atom_site_label
_atom_site_fract_x
_atom_site_fract_y
_atom_site_fract_z
Si Si1 0.281848 0.933269 0.274178
Si Si2 0.957603 0.895577 0.802865
Si Si3 0.876530 0.691787 0.638068
Si Si4 0.194291 0.627837 0.470348
Si Si5 0.252128 0.913961 0.996683
Si Si6 0.593875 0.096112 0.557744
Si Si7 0.433921 0.294713 0.377748
O O1 0.470969 0.893690 0.310645
O O2 0.290925 0.918679 0.345532
O O3 0.124642 0.866084 0.192509
O O4 0.226772 0.043933 0.247724
O O5 0.000000 0.907846 0.750000
O O6 0.996394 0.784572 0.830590
O O7 0.102112 0.940261 0.897893
O O8 0.247479 0.718096 0.850315
O O9 0.725087 0.652802 0.540900
O O10 0.174301 0.515672 0.454516
O O11 0.187219 0.643021 0.536564
O O12 0.402653 0.657803 0.528084
O O13 0.028770 0.695088 0.391728
O O14 0.408855 0.855027 0.016699
O O15 0.500000 0.000000 0.500000
#
# Coordination Sequence:
#
# PCOD9284324 Si02
#       7
#     8   8   8   8   8   8   8
#     4  11  24  41  69 103 138 175 240 297 354 409
#     4  12  23  42  72 102 130 174 235 299 346 408
#     4  11  26  43  67 100 143 186 229 283 360 434
#     4  10  21  40  69 102 139 182 231 284 355 417
#     4  10  21  42  68 103 134 181 230 286 348 425
#     4   9  19  37  65 101 127 171 228 292 340 397
#     4  11  23  42  67 102 142 185 228 282 354 427
#
# _framework density 23.453641999999999
#
# number of rings (size 3 to 8) (size 9 to 14) (size 15 to 20)
#    0.000    1.429    1.429    4.286    0.000    7.429 
#    0.000    0.000    0.000    1.714    7.429    0.000 
#    0.000    0.000    0.000    0.000    0.000    0.000 
#
# Total GULP energy -155913.140690 kJ/mol
# GULP energy per Si atom -5568.326453 kJ/mol
# Density = 2.340026 g / cm^3
# Si number density = 23.453642 Si / 1000 Ang^3
#
#
#
# Elastic Constant Matrix: (Units=GPa)
#
#
# Indices 1 2 3 4 5 6 
#
# 1 69.3731 43.0473 21.1120 0.0000 20.0664 0.0000
# 2 43.0473 160.2521 61.8724 0.0000 11.7590 0.0000
# 3 21.1120 61.8724 129.3032 0.0000 -1.4234 0.0000
# 4 0.0000 0.0000 0.0000 40.7758 0.0000 11.9078
# 5 20.0664 11.7590 -1.4234 0.0000 32.9311 0.0000
# 6 0.0000 0.0000 0.0000 11.9078 0.0000 25.4572
#
#
#
# Elastic Compliance Matrix: (Units=1/GPa)
#
#
# Indices 1 2 3 4 5 6 
#
# 1 0.020688 -0.004152 -0.001515 0.000000 -0.011189 0.000000
# 2 -0.004152 0.008773 -0.003528 0.000000 -0.000755 0.000000
# 3 -0.001515 -0.003528 0.009698 0.000000 0.002602 0.000000
# 4 0.000000 0.000000 0.000000 0.028404 0.000000 -0.013286
# 5 -0.011189 -0.000755 0.002602 0.000000 0.037567 0.000000
# 6 0.000000 0.000000 0.000000 -0.013286 0.000000 0.045496
#
#
# Mechanical properties :
#
#
# Convention : Reuss Voigt Hill
#
# Bulk Modulus (GPa) = 48.14516 67.88796 58.01656
# Shear Modulus (GPa) = 28.41880 35.35927 31.88903
#
# Velocity S-wave (km/s) = 3.48473 3.88703 3.69136
# Velocity P-wave (km/s) = 6.06329 7.01097 6.55428
#
# Compressibility (1/GPa) = 0.02077052
#
# Stress axis : x y z
#
# Youngs Moduli (GPa) = 48.33619 113.98452 103.11320
#
# Poissons Ratio (x) = 0.47321 0.15617
# Poissons Ratio (y) = 0.20067 0.36383
# Poissons Ratio (z) = 0.07321 0.40219
#
# Static dielectric constant tensor:
#      x y z
#    x 1.970090 0.000000 0.010850 
#    y 0.000000 1.938560 0.000000 
#    z 0.010850 0.000000 2.003250 
# 
# From -- ./inp_files/316333.got.cif
#   From: 2010.05.17/outbox.cif.g08.bks.cpg/sg15_159_cif.got.tgz:316333.got - 2010.06.03 18:47:42.
