data_PCOD9284507
_publ_section_title
;
Structure prediction by ZEFSAII (Michael W. Deem and Ramdas Pophale) SiO2 
 PCOD9284507
Probable space group: C 2/C
;
_chemical_formula_sum "Si O2"
_cell_formula_units_Z 36
_cell_length_a 8.816485
_cell_length_b 23.393461
_cell_length_c 12.586029
_cell_angle_alpha 90.000000
_cell_angle_beta 133.530306
_cell_angle_gamma 90.000000
_cell_volume 1882.013697
_symmetry_space_group_name_H-M "C 2/C"
_symmetry_group_IT_number 15
_symmetry_cell_setting 'monoclinic'
loop_
_space_group_symop_operation_xyz
x,y,z
-x,y,1/2-z
-x,-y,-z
x,-y,1/2+z
1/2+x,1/2+y,z
1/2-x,1/2+y,1/2-z
1/2-x,1/2-y,-z
1/2+x,1/2-y,1/2+z
loop_
_atom_site_type_symbol
_atom_site_label
_atom_site_fract_x
_atom_site_fract_y
_atom_site_fract_z
Si Si1 0.810064 0.408945 0.301352
Si Si2 0.000000 0.996822 0.250000
Si Si3 0.147230 0.781804 0.224389
Si Si4 0.795985 0.085985 0.998973
Si Si5 0.051479 0.788050 0.938822
O O1 0.691969 0.455521 0.314044
O O2 0.741417 0.344387 0.296493
O O3 0.737093 0.418924 0.143986
O O4 0.059590 0.413832 0.429729
O O5 0.068371 0.036900 0.380881
O O6 0.339507 0.739449 0.294678
O O7 0.000000 0.763230 0.250000
O O8 0.029254 0.787015 0.055937
O O9 0.902263 0.147192 0.071458
O O10 0.250000 0.750000 0.000000
#
# Coordination Sequence:
#
# PCOD9284507 Si02
#       5
#     8   4   8   8   8
#     4  10  21  41  60  85 121 162 194 239 302 356
#     4  12  22  38  64  86 122 152 204 248 288 348
#     4  11  22  39  61  90 123 159 196 249 306 353
#     4  10  23  38  61  91 115 157 204 242 292 355
#     4  11  22  38  64  88 121 156 203 246 296 364
#
# _framework density 19.128447999999999
#
# number of rings (size 3 to 8) (size 9 to 14) (size 15 to 20)
#    0.000    1.333    3.333    2.667    3.111    0.000 
#    0.000    0.000    4.889    0.000    0.000    0.000 
#    0.000    0.000    0.000    0.000    0.000    0.000 
#
# Total GULP energy -100586.568332 kJ/mol
# GULP energy per Si atom -5588.142685 kJ/mol
# Density = 1.908491 g / cm^3
# Si number density = 19.128448 Si / 1000 Ang^3
#
#
#
# Elastic Constant Matrix: (Units=GPa)
#
#
# Indices 1 2 3 4 5 6 
#
# 1 87.6926 28.1961 6.7013 0.0000 11.8083 0.0000
# 2 28.1961 121.3390 27.4385 0.0000 9.2156 0.0000
# 3 6.7013 27.4385 59.0239 0.0000 9.2994 0.0000
# 4 0.0000 0.0000 0.0000 32.0679 0.0000 4.5605
# 5 11.8083 9.2156 9.2994 0.0000 21.9620 0.0000
# 6 0.0000 0.0000 0.0000 4.5605 0.0000 25.5186
#
#
#
# Elastic Compliance Matrix: (Units=1/GPa)
#
#
# Indices 1 2 3 4 5 6 
#
# 1 0.013060 -0.002737 0.000766 0.000000 -0.006198 0.000000
# 2 -0.002737 0.009883 -0.004138 0.000000 -0.000923 0.000000
# 3 0.000766 -0.004138 0.019898 0.000000 -0.007101 0.000000
# 4 0.000000 0.000000 0.000000 0.031997 0.000000 -0.005718
# 5 -0.006198 -0.000923 -0.007101 0.000000 0.052259 0.000000
# 6 0.000000 0.000000 0.000000 -0.005718 0.000000 0.040209
#
#
# Mechanical properties :
#
#
# Convention : Reuss Voigt Hill
#
# Bulk Modulus (GPa) = 32.65618 43.63636 38.14627
# Shear Modulus (GPa) = 26.35292 29.62434 27.98863
#
# Velocity S-wave (km/s) = 3.71574 3.93963 3.82932
# Velocity P-wave (km/s) = 5.95970 6.59970 6.28785
#
# Compressibility (1/GPa) = 0.03062207
#
# Stress axis : x y z
#
# Youngs Moduli (GPa) = 76.57214 101.18027 50.25679
#
# Poissons Ratio (x) = 0.27696 -0.03851
# Poissons Ratio (y) = 0.20960 0.20798
# Poissons Ratio (z) = -0.05867 0.41871
#
# Static dielectric constant tensor:
#      x y z
#    x 1.660120 0.000000 -0.019750 
#    y 0.000000 1.638170 0.000000 
#    z -0.019750 0.000000 1.651770 
# 
# From -- ./inp_files/22501.got.cif
#   From: 2010.05.17/outbox.cif.g08.bks.cpg/sg15_12_cif.got.tgz:22501.got - 2010.06.03 18:47:42.
