data_PCOD9284904
_publ_section_title
;
Structure prediction by ZEFSAII (Michael W. Deem and Ramdas Pophale) SiO2 
 PCOD9284904
Probable space group: C 2/C
;
_chemical_formula_sum "Si O2"
_cell_formula_units_Z 32
_cell_length_a 23.808221
_cell_length_b 7.960949
_cell_length_c 13.900952
_cell_angle_alpha 90.000000
_cell_angle_beta 30.556961
_cell_angle_gamma 90.000000
_cell_volume 1339.483446
_symmetry_space_group_name_H-M "C 2/C"
_symmetry_group_IT_number 15
_symmetry_cell_setting 'monoclinic'
loop_
_space_group_symop_operation_xyz
x,y,z
-x,y,1/2-z
-x,-y,-z
x,-y,1/2+z
1/2+x,1/2+y,z
1/2-x,1/2+y,1/2-z
1/2-x,1/2-y,-z
1/2+x,1/2-y,1/2+z
loop_
_atom_site_type_symbol
_atom_site_label
_atom_site_fract_x
_atom_site_fract_y
_atom_site_fract_z
Si Si1 0.322701 0.513758 0.878175
Si Si2 0.622043 0.729650 0.528471
Si Si3 0.177696 0.090538 0.826574
Si Si4 0.381760 0.194002 0.902312
O O1 0.312190 0.647454 0.978657
O O2 0.368358 0.598564 0.713951
O O3 0.395070 0.359935 0.814308
O O4 0.207347 0.422563 0.019762
O O5 0.500000 0.752373 0.750000
O O6 0.689596 0.886106 0.385958
O O7 0.631679 0.583140 0.435494
O O8 0.156072 0.228956 0.939734
O O9 0.500000 0.116271 0.750000
#
# Coordination Sequence:
#
# PCOD9284904 Si02
#       4
#     8   8   8   8
#     4  10  21  41  65  93 136 168 223 279 325 405
#     4  11  25  43  69 101 135 179 223 276 336 399
#     4  11  21  44  64  95 137 172 222 278 328 398
#     4  10  22  40  66  96 131 174 219 278 338 393
#
# _framework density 23.889806
#
# number of rings (size 3 to 8) (size 9 to 14) (size 15 to 20)
#    0.000    1.500    2.500    3.750    0.000    5.000 
#    0.000    1.250    0.000    0.000    0.000    0.000 
#    0.000    0.000    0.000    0.000    0.000    0.000 
#
# Total GULP energy -89316.639359 kJ/mol
# GULP energy per Si atom -5582.289960 kJ/mol
# Density = 2.383543 g / cm^3
# Si number density = 23.889806 Si / 1000 Ang^3
#
#
#
# Elastic Constant Matrix: (Units=GPa)
#
#
# Indices 1 2 3 4 5 6 
#
# 1 132.0104 19.3668 28.0436 0.0000 14.7824 0.0000
# 2 19.3668 87.8647 43.2053 -0.0002 -5.9428 0.0000
# 3 28.0436 43.2053 145.0784 -0.0001 -4.8535 0.0000
# 4 0.0000 -0.0002 -0.0001 16.9108 0.0000 2.8111
# 5 14.7824 -5.9428 -4.8535 0.0000 51.6489 0.0000
# 6 0.0000 0.0000 0.0000 2.8111 0.0000 34.8697
#
#
#
# Elastic Compliance Matrix: (Units=1/GPa)
#
#
# Indices 1 2 3 4 5 6 
#
# 1 0.008352 -0.001387 -0.001291 0.000000 -0.002671 0.000000
# 2 -0.001387 0.013634 -0.003738 0.000000 0.001614 0.000000
# 3 -0.001291 -0.003738 0.008280 0.000000 0.000717 0.000000
# 4 0.000000 0.000000 0.000000 0.059937 0.000000 -0.004832
# 5 -0.002671 0.001614 0.000717 0.000000 0.020379 0.000000
# 6 0.000000 0.000000 0.000000 -0.004832 0.000000 0.029068
#
#
# Mechanical properties :
#
#
# Convention : Reuss Voigt Hill
#
# Bulk Modulus (GPa) = 57.35933 60.68719 59.02326
# Shear Modulus (GPa) = 31.58703 38.97507 35.28105
#
# Velocity S-wave (km/s) = 3.64015 4.04351 3.84712
# Velocity P-wave (km/s) = 6.45985 6.87445 6.67037
#
# Compressibility (1/GPa) = 0.01743396
#
# Stress axis : x y z
#
# Youngs Moduli (GPa) = 119.73237 73.34494 120.77868
#
# Poissons Ratio (x) = 0.10172 0.15590
# Poissons Ratio (y) = 0.16605 0.45150
# Poissons Ratio (z) = 0.15455 0.27418
#
# Static dielectric constant tensor:
#      x y z
#    x 1.906290 0.000000 -0.020640 
#    y 0.000000 2.007510 0.000000 
#    z -0.020640 0.000000 1.944640 
# 
# From -- ./inp_files/141454.got.cif
#   From: 2010.05.17/outbox.cif.g08.bks.cpg/sg15_71_cif.got.tgz:141454.got - 2010.06.03 18:47:42.
