data_PCOD9284933
_publ_section_title
;
Structure prediction by ZEFSAII (Michael W. Deem and Ramdas Pophale) SiO2 
 PCOD9284933
Probable space group: C 2/C
;
_chemical_formula_sum "Si O2"
_cell_formula_units_Z 64
_cell_length_a 14.252018
_cell_length_b 17.166141
_cell_length_c 14.475197
_cell_angle_alpha 90.000000
_cell_angle_beta 51.655737
_cell_angle_gamma 90.000000
_cell_volume 2777.501231
_symmetry_space_group_name_H-M "C 2/C"
_symmetry_group_IT_number 15
_symmetry_cell_setting 'monoclinic'
loop_
_space_group_symop_operation_xyz
x,y,z
-x,y,1/2-z
-x,-y,-z
x,-y,1/2+z
1/2+x,1/2+y,z
1/2-x,1/2+y,1/2-z
1/2-x,1/2-y,-z
1/2+x,1/2-y,1/2+z
loop_
_atom_site_type_symbol
_atom_site_label
_atom_site_fract_x
_atom_site_fract_y
_atom_site_fract_z
Si Si1 0.371645 0.386295 0.303080
Si Si2 0.771865 0.872450 0.042257
Si Si3 0.080403 0.403395 0.777130
Si Si4 0.766787 0.012024 0.712712
Si Si5 0.031933 0.250057 0.882310
Si Si6 0.756786 0.206101 0.366101
Si Si7 0.540422 0.392736 0.832210
Si Si8 0.288812 0.674415 0.033511
O O1 0.500000 0.422858 0.250000
O O2 0.289992 0.423978 0.275866
O O3 0.409019 0.303147 0.234441
O O4 0.307343 0.386922 0.440265
O O5 0.748787 0.945451 0.124342
O O6 0.713039 0.791929 0.113607
O O7 0.741437 0.862659 0.952000
O O8 0.916704 0.869181 0.955311
O O9 0.147438 0.462052 0.803685
O O10 0.995303 0.334438 0.865382
O O11 0.195119 0.358761 0.662494
O O12 0.000000 0.445722 0.750000
O O13 0.885583 0.958204 0.655702
O O14 0.134293 0.276073 0.889363
O O15 0.920605 0.200265 0.987675
O O16 0.865220 0.177023 0.237340
O O17 0.500000 0.412111 0.750000
O O18 0.250000 0.750000 0.000000
#
# Coordination Sequence:
#
# PCOD9284933 Si02
#       8
#     8   8   8   8   8   8   8   8
#     4  10  22  41  65  97 129 163 221 278 321 383
#     4  10  23  41  64  97 134 175 228 263 322 401
#     4  12  25  44  65  98 136 167 218 274 336 402
#     4  12  24  40  65  92 138 181 213 269 336 401
#     4  11  20  40  69  93 127 165 220 276 326 378
#     4  10  21  41  65  96 133 168 223 278 319 384
#     4  10  22  39  65 100 131 175 219 282 333 381
#     4  11  22  40  71  97 121 167 220 282 332 377
#
# _framework density 23.042293000000001
#
# number of rings (size 3 to 8) (size 9 to 14) (size 15 to 20)
#    0.000    1.250    5.000    1.125    1.750    4.000 
#    0.000    5.000    0.000    0.000    0.000    0.000 
#    0.000    0.000    0.000    0.000    0.000    0.000 
#
# Total GULP energy -178415.469958 kJ/mol
# GULP energy per Si atom -5575.483436 kJ/mol
# Density = 2.298985 g / cm^3
# Si number density = 23.042293 Si / 1000 Ang^3
#
#
#
# Elastic Constant Matrix: (Units=GPa)
#
#
# Indices 1 2 3 4 5 6 
#
# 1 141.0565 29.2813 2.6793 0.0000 3.7193 0.0000
# 2 29.2813 77.9173 17.3995 0.0000 1.1321 0.0000
# 3 2.6793 17.3995 55.9209 0.0000 -3.2069 0.0000
# 4 0.0000 0.0000 0.0000 4.3749 0.0000 17.6093
# 5 3.7193 1.1321 -3.2069 0.0000 18.6704 0.0000
# 6 0.0000 0.0000 0.0000 17.6093 0.0000 34.3790
#
#
#
# Elastic Compliance Matrix: (Units=1/GPa)
#
#
# Indices 1 2 3 4 5 6 
#
# 1 0.007736 -0.002998 0.000489 0.000000 -0.001275 0.000000
# 2 -0.002998 0.015001 -0.004587 0.000000 -0.001100 0.000000
# 3 0.000489 -0.004587 0.019489 0.000000 0.003528 0.000000
# 4 0.000000 0.000000 0.000000 -0.215298 0.000000 0.110278
# 5 -0.001275 -0.001100 0.003528 0.000000 0.054488 0.000000
# 6 0.000000 0.000000 0.000000 0.110278 0.000000 -0.027398
#
#
# Mechanical properties :
#
#
# Convention : Reuss Voigt Hill
#
# Bulk Modulus (GPa) = 35.67115 41.51278 38.59197
# Shear Modulus (GPa) = -40.83424 26.52049 -7.15688
#
# Velocity S-wave (km/s) = -4.21425 3.39624 -1.76429
# Velocity P-wave (km/s) = 2.85754 5.78224 3.55449
#
# Compressibility (1/GPa) = 0.02803386
#
# Stress axis : x y z
#
# Youngs Moduli (GPa) = 129.26561 66.66221 51.31229
#
# Poissons Ratio (x) = 0.19984 -0.02509
# Poissons Ratio (y) = 0.38752 0.23537
# Poissons Ratio (z) = -0.06321 0.30578
#
# Static dielectric constant tensor:
#      x y z
#    x 1.929760 0.000000 0.096730 
#    y 0.000000 1.974500 0.000000 
#    z 0.096730 0.000000 2.038660 
# 
# From -- ./inp_files/155502.got.cif
#   From: 2010.05.17/outbox.cif.g08.bks.cpg/sg15_78_cif.got.tgz:155502.got - 2010.06.03 18:47:42.
