data_PCOD9284709
_publ_section_title
;
Structure prediction by ZEFSAII (Michael W. Deem and Ramdas Pophale) SiO2 
 PCOD9284709
Probable space group: C 2/C
;
_chemical_formula_sum "Si O2"
_cell_formula_units_Z 56
_cell_length_a 20.283844
_cell_length_b 9.209470
_cell_length_c 16.836204
_cell_angle_alpha 90.000000
_cell_angle_beta 115.678284
_cell_angle_gamma 90.000000
_cell_volume 2834.458963
_symmetry_space_group_name_H-M "C 2/C"
_symmetry_group_IT_number 15
_symmetry_cell_setting 'monoclinic'
loop_
_space_group_symop_operation_xyz
x,y,z
-x,y,1/2-z
-x,-y,-z
x,-y,1/2+z
1/2+x,1/2+y,z
1/2-x,1/2+y,1/2-z
1/2-x,1/2-y,-z
1/2+x,1/2-y,1/2+z
loop_
_atom_site_type_symbol
_atom_site_label
_atom_site_fract_x
_atom_site_fract_y
_atom_site_fract_z
Si Si1 0.120081 0.001061 0.569117
Si Si2 0.507292 0.312592 0.921907
Si Si3 0.500000 0.160163 0.750000
Si Si4 0.744007 0.281004 0.620386
Si Si5 0.154137 0.468224 0.357028
Si Si6 0.171855 0.514648 0.048447
Si Si7 0.232623 0.223098 0.683903
Si Si8 0.000000 0.500000 0.000000
O O1 0.179589 0.892361 0.564218
O O2 0.061732 0.909264 0.588416
O O3 0.077945 0.091246 0.479780
O O4 0.163502 0.114400 0.646957
O O5 0.502215 0.258869 0.829282
O O6 0.510237 0.167803 0.976368
O O7 0.428711 0.058708 0.712164
O O8 0.818356 0.366253 0.638619
O O9 0.743066 0.261178 0.715036
O O10 0.724425 0.126170 0.573902
O O11 0.162713 0.428705 0.453894
O O12 0.204394 0.364246 0.329629
O O13 0.208503 0.634110 0.123923
O O14 0.090942 0.474530 0.037812
#
# Coordination Sequence:
#
# PCOD9284709 Si02
#       8
#     8   8   4   8   8   8   8   4
#     4  10  21  41  63  94 126 173 213 257 322 392
#     4  11  23  40  68  92 133 167 216 265 320 388
#     4  12  24  42  64 102 124 166 220 276 322 384
#     4  11  24  40  66  94 130 167 219 267 320 386
#     4  11  25  41  65  93 131 171 210 278 320 386
#     4  12  23  42  65  98 132 170 219 259 327 382
#     4  11  23  41  68  94 125 174 218 266 319 387
#     4  12  22  40  72  94 124 186 204 266 318 398
#
# _framework density 19.756857
#
# number of rings (size 3 to 8) (size 9 to 14) (size 15 to 20)
#    0.000    0.857    4.286    3.429    2.000    1.143 
#    0.000    1.429    0.000    1.714    0.000    0.000 
#    0.000    0.000    0.000    0.000    0.000    0.000 
#
# Total GULP energy -156002.108478 kJ/mol
# GULP energy per Si atom -5571.503874 kJ/mol
# Density = 1.971189 g / cm^3
# Si number density = 19.756857 Si / 1000 Ang^3
#
#
#
# Elastic Constant Matrix: (Units=GPa)
#
#
# Indices 1 2 3 4 5 6 
#
# 1 80.8760 39.0973 48.2620 0.0000 25.8269 0.0000
# 2 39.0973 126.1073 42.9986 0.0000 15.5340 0.0000
# 3 48.2620 42.9986 92.8992 0.0000 14.7501 0.0000
# 4 0.0000 0.0000 0.0000 9.3027 0.0000 4.7448
# 5 25.8269 15.5340 14.7501 0.0000 25.8549 0.0000
# 6 0.0000 0.0000 0.0000 4.7448 0.0000 19.5561
#
#
#
# Elastic Compliance Matrix: (Units=1/GPa)
#
#
# Indices 1 2 3 4 5 6 
#
# 1 0.024513 -0.002388 -0.008763 0.000000 -0.018053 0.000000
# 2 -0.002388 0.009943 -0.003070 0.000000 -0.001837 0.000000
# 3 -0.008763 -0.003070 0.016555 0.000000 0.001154 0.000000
# 4 0.000000 0.000000 0.000000 0.122677 0.000000 -0.029765
# 5 -0.018053 -0.001837 0.001154 0.000000 0.057156 0.000000
# 6 0.000000 0.000000 0.000000 -0.029765 0.000000 0.058357
#
#
# Mechanical properties :
#
#
# Convention : Reuss Voigt Hill
#
# Bulk Modulus (GPa) = 44.30936 62.28872 53.29904
# Shear Modulus (GPa) = 15.37676 22.24439 18.81057
#
# Velocity S-wave (km/s) = 2.79283 3.35909 3.08896
# Velocity P-wave (km/s) = 5.73375 6.82941 6.30542
#
# Compressibility (1/GPa) = 0.02256860
#
# Stress axis : x y z
#
# Youngs Moduli (GPa) = 40.79395 100.57140 60.40601
#
# Poissons Ratio (x) = 0.24019 0.52935
# Poissons Ratio (y) = 0.09742 0.18544
# Poissons Ratio (z) = 0.35749 0.30874
#
# Static dielectric constant tensor:
#      x y z
#    x 1.711050 0.000000 0.009030 
#    y 0.000000 1.675690 0.000000 
#    z 0.009030 0.000000 1.687400 
# 
# From -- ./inp_files/214046.got.cif
#   From: 2010.05.17/outbox.cif.g08.bks.cpg/sg15_108_cif.got.tgz:214046.got - 2010.06.03 18:47:42.
