data_PCOD9284739
_publ_section_title
;
Structure prediction by ZEFSAII (Michael W. Deem and Ramdas Pophale) SiO2 
 PCOD9284739
Probable space group: C 2/C
;
_chemical_formula_sum "Si O2"
_cell_formula_units_Z 48
_cell_length_a 20.820214
_cell_length_b 13.013379
_cell_length_c 17.373226
_cell_angle_alpha 90.000000
_cell_angle_beta 27.584820
_cell_angle_gamma 90.000000
_cell_volume 2179.687105
_symmetry_space_group_name_H-M "C 2/C"
_symmetry_group_IT_number 15
_symmetry_cell_setting 'monoclinic'
loop_
_space_group_symop_operation_xyz
x,y,z
-x,y,1/2-z
-x,-y,-z
x,-y,1/2+z
1/2+x,1/2+y,z
1/2-x,1/2+y,1/2-z
1/2-x,1/2-y,-z
1/2+x,1/2-y,1/2+z
loop_
_atom_site_type_symbol
_atom_site_label
_atom_site_fract_x
_atom_site_fract_y
_atom_site_fract_z
Si Si1 0.485768 0.162186 0.452469
Si Si2 0.404304 0.062015 0.693284
Si Si3 0.111205 0.324667 0.074389
Si Si4 0.125095 0.131815 0.958268
Si Si5 0.885038 0.051135 0.304959
Si Si6 0.316059 0.353981 0.280427
O O1 0.432869 0.149662 0.597364
O O2 0.588136 0.253007 0.320038
O O3 0.347238 0.170005 0.549032
O O4 0.562350 0.053550 0.364629
O O5 0.511749 0.088034 0.645676
O O6 0.241204 0.067560 0.880810
O O7 0.000000 0.270429 0.250000
O O8 0.149899 0.246599 0.964816
O O9 0.249298 0.376695 0.961802
O O10 0.150211 0.107304 0.842337
O O11 0.970233 0.103200 0.144794
O O12 0.000000 0.042344 0.250000
O O13 0.843265 0.939168 0.316371
#
# Coordination Sequence:
#
# PCOD9284739 Si02
#       6
#     8   8   8   8   8   8
#     4  10  22  41  69 100 136 180 229 290 341 414
#     4  10  21  41  64 102 139 176 224 283 356 410
#     4  12  24  44  69 101 146 185 231 285 358 425
#     4  11  24  40  73 105 137 179 232 302 353 416
#     4  12  27  46  65 104 146 190 235 284 352 423
#     4  11  24  43  71 104 138 181 237 291 352 415
#
# _framework density 22.021508999999998
#
# number of rings (size 3 to 8) (size 9 to 14) (size 15 to 20)
#    0.000    1.000    3.333    3.000    4.667    2.000 
#    0.000    1.667    0.000    0.000    0.000    0.000 
#    0.000    0.000    0.000    0.000    0.000    0.000 
#
# Total GULP energy -133901.821166 kJ/mol
# GULP energy per Si atom -5579.242549 kJ/mol
# Density = 2.197139 g / cm^3
# Si number density = 22.021509 Si / 1000 Ang^3
#
#
#
# Elastic Constant Matrix: (Units=GPa)
#
#
# Indices 1 2 3 4 5 6 
#
# 1 84.9852 28.8844 26.9364 0.0000 -31.8696 0.0000
# 2 28.8844 95.5612 45.3495 0.0000 -26.6061 0.0000
# 3 26.9364 45.3495 134.5583 -0.0001 -37.7956 0.0001
# 4 0.0000 0.0000 -0.0001 1.6308 0.0001 -15.0591
# 5 -31.8696 -26.6061 -37.7956 0.0001 37.1267 0.0000
# 6 0.0000 0.0000 0.0001 -15.0591 0.0000 28.6210
#
#
#
# Elastic Compliance Matrix: (Units=1/GPa)
#
#
# Indices 1 2 3 4 5 6 
#
# 1 0.017660 -0.001715 0.001338 0.000000 0.015293 0.000000
# 2 -0.001715 0.013861 -0.002733 0.000000 0.005678 0.000000
# 3 0.001338 -0.002733 0.011004 0.000000 0.010393 0.000000
# 4 0.000000 0.000000 0.000000 -0.158917 0.000000 -0.083615
# 5 0.015293 0.005678 0.010393 0.000000 0.054711 0.000000
# 6 0.000000 0.000000 0.000000 -0.083615 0.000000 -0.009055
#
#
# Mechanical properties :
#
#
# Convention : Reuss Voigt Hill
#
# Bulk Modulus (GPa) = 27.54416 57.49392 42.51904
# Shear Modulus (GPa) = -95.39613 27.73799 -33.82907
#
# Velocity S-wave (km/s) = -6.58890 3.55292 -3.92367
# Velocity P-wave (km/s) = 6.73422 6.55711 1.08491
#
# Compressibility (1/GPa) = 0.03630534
#
# Stress axis : x y z
#
# Youngs Moduli (GPa) = 56.62363 72.14495 90.87559
#
# Poissons Ratio (x) = 0.12375 -0.12163
# Poissons Ratio (y) = 0.09713 0.24838
# Poissons Ratio (z) = -0.07578 0.19718
#
# Static dielectric constant tensor:
#      x y z
#    x 1.891620 0.000000 0.070380 
#    y 0.000000 1.795620 0.000000 
#    z 0.070380 0.000000 1.863950 
# 
# From -- ./inp_files/255677.got.cif
#   From: 2010.05.17/outbox.cif.g08.bks.cpg/sg15_128_cif.got.tgz:255677.got - 2010.06.03 18:47:42.
