data_PCOD9284727
_publ_section_title
;
Structure prediction by ZEFSAII (Michael W. Deem and Ramdas Pophale) SiO2 
 PCOD9284727
Probable space group: C 2/C
;
_chemical_formula_sum "Si O2"
_cell_formula_units_Z 48
_cell_length_a 16.894426
_cell_length_b 12.080932
_cell_length_c 10.863731
_cell_angle_alpha 90.000000
_cell_angle_beta 108.654160
_cell_angle_gamma 90.000000
_cell_volume 2100.809826
_symmetry_space_group_name_H-M "C 2/C"
_symmetry_group_IT_number 15
_symmetry_cell_setting 'monoclinic'
loop_
_space_group_symop_operation_xyz
x,y,z
-x,y,1/2-z
-x,-y,-z
x,-y,1/2+z
1/2+x,1/2+y,z
1/2-x,1/2+y,1/2-z
1/2-x,1/2-y,-z
1/2+x,1/2-y,1/2+z
loop_
_atom_site_type_symbol
_atom_site_label
_atom_site_fract_x
_atom_site_fract_y
_atom_site_fract_z
Si Si1 0.800003 0.593270 0.077318
Si Si2 0.386308 0.605589 0.464193
Si Si3 0.586845 0.922297 0.655462
Si Si4 0.090523 0.975690 0.776001
Si Si5 0.237634 0.371859 0.543692
Si Si6 0.921378 0.347134 0.438871
O O1 0.711116 0.637426 0.072785
O O2 0.875965 0.625246 0.201769
O O3 0.832667 0.626372 0.960130
O O4 0.782932 0.461669 0.071398
O O5 0.411339 0.570550 0.616501
O O6 0.400812 0.509318 0.368549
O O7 0.427243 0.715905 0.427481
O O8 0.659312 0.887371 0.595437
O O9 0.499643 0.878055 0.564107
O O10 0.575742 0.055898 0.661384
O O11 0.174848 0.909759 0.851912
O O12 0.000000 0.920806 0.750000
O O13 0.250000 0.250000 0.500000
#
# Coordination Sequence:
#
# PCOD9284727 Si02
#       6
#     8   8   8   8   8   8
#     4  10  21  41  64  94 136 168 229 278 331 410
#     4  11  24  46  69 101 138 182 226 286 347 402
#     4  10  21  41  63  97 133 167 230 278 331 417
#     4  11  25  45  67 100 137 175 233 281 335 414
#     4  10  23  41  62  96 128 178 219 277 337 398
#     4  10  23  40  66  97 132 180 223 280 348 402
#
# _framework density 22.848331999999999
#
# number of rings (size 3 to 8) (size 9 to 14) (size 15 to 20)
#    0.000    1.667    1.667    1.500    4.667    1.333 
#    6.000    0.000    0.000    0.000    0.000    0.000 
#    0.000    0.000    0.000    0.000    0.000    0.000 
#
# Total GULP energy -133655.975267 kJ/mol
# GULP energy per Si atom -5568.998969 kJ/mol
# Density = 2.279633 g / cm^3
# Si number density = 22.848332 Si / 1000 Ang^3
#
#
#
# Elastic Constant Matrix: (Units=GPa)
#
#
# Indices 1 2 3 4 5 6 
#
# 1 135.7675 12.4878 13.3007 0.0000 4.0533 0.0000
# 2 12.4878 93.7933 8.2420 0.0000 3.4133 0.0000
# 3 13.3007 8.2420 57.2929 0.0000 6.7194 0.0000
# 4 0.0000 0.0000 0.0000 -2.1504 0.0000 4.3203
# 5 4.0533 3.4133 6.7194 0.0000 26.6732 0.0000
# 6 0.0000 0.0000 0.0000 4.3203 0.0000 17.3893
#
#
#
# Elastic Compliance Matrix: (Units=1/GPa)
#
#
# Indices 1 2 3 4 5 6 
#
# 1 0.007617 -0.000853 -0.001569 0.000000 -0.000653 0.000000
# 2 -0.000853 0.010921 -0.001262 0.000000 -0.000950 0.000000
# 3 -0.001569 -0.001262 0.018500 0.000000 -0.004260 0.000000
# 4 0.000000 0.000000 0.000000 -0.310199 0.000000 0.077067
# 5 -0.000653 -0.000950 -0.004260 0.000000 0.038785 0.000000
# 6 0.000000 0.000000 0.000000 0.077067 0.000000 0.038360
#
#
# Mechanical properties :
#
#
# Convention : Reuss Voigt Hill
#
# Bulk Modulus (GPa) = 33.70306 39.43497 36.56902
# Shear Modulus (GPa) = -27.97040 25.23730 -1.36655
#
# Velocity S-wave (km/s) = -3.50262 3.32709 -0.77421
# Velocity P-wave (km/s) = 1.25499 5.66183 3.90393
#
# Compressibility (1/GPa) = 0.02967089
#
# Stress axis : x y z
#
# Youngs Moduli (GPa) = 131.28238 91.56929 54.05515
#
# Poissons Ratio (x) = 0.07806 0.08482
# Poissons Ratio (y) = 0.11192 0.06820
# Poissons Ratio (z) = 0.20600 0.11553
#
# Static dielectric constant tensor:
#      x y z
#    x 1.840150 0.000000 -0.034700 
#    y 0.000000 1.903500 0.000000 
#    z -0.034700 0.000000 1.917530 
# 
# From -- ./inp_files/104255.got.cif
#   From: 2010.05.17/outbox.cif.g08.bks.cpg/sg15_53_cif.got.tgz:104255.got - 2010.06.03 18:47:42.
