data_PCOD9284400
_publ_section_title
;
Structure prediction by ZEFSAII (Michael W. Deem and Ramdas Pophale) SiO2 
 PCOD9284400
Probable space group: C 2/C
;
_chemical_formula_sum "Si O2"
_cell_formula_units_Z 48
_cell_length_a 8.464259
_cell_length_b 28.935661
_cell_length_c 15.070676
_cell_angle_alpha 90.000000
_cell_angle_beta 37.626039
_cell_angle_gamma 90.000000
_cell_volume 2253.431863
_symmetry_space_group_name_H-M "C 2/C"
_symmetry_group_IT_number 15
_symmetry_cell_setting 'monoclinic'
loop_
_space_group_symop_operation_xyz
x,y,z
-x,y,1/2-z
-x,-y,-z
x,-y,1/2+z
1/2+x,1/2+y,z
1/2-x,1/2+y,1/2-z
1/2-x,1/2-y,-z
1/2+x,1/2-y,1/2+z
loop_
_atom_site_type_symbol
_atom_site_label
_atom_site_fract_x
_atom_site_fract_y
_atom_site_fract_z
Si Si1 0.211288 0.766134 0.916639
Si Si2 0.313412 0.167153 0.599863
Si Si3 0.520206 0.908932 0.137931
Si Si4 0.735707 0.863571 0.577245
Si Si5 0.561099 0.451394 0.925576
Si Si6 0.222640 0.498324 0.326298
O O1 0.500000 0.770789 0.750000
O O2 0.090420 0.720000 0.928668
O O3 0.096468 0.817860 0.969002
O O4 0.250000 0.750000 0.000000
O O5 0.448334 0.133651 0.608700
O O6 0.355109 0.147584 0.481908
O O7 0.000000 0.167051 0.750000
O O8 0.500000 0.897003 0.250000
O O9 0.323014 0.950128 0.203238
O O10 0.803765 0.930368 0.995407
O O11 0.500000 0.865037 0.750000
O O12 0.863833 0.912965 0.535477
O O13 0.768301 0.462681 0.755306
O O14 0.500000 0.500000 0.000000
O O15 0.500000 0.499085 0.250000
O O16 0.000000 0.500000 0.500000
#
# Coordination Sequence:
#
# PCOD9284400 Si02
#       6
#     8   8   8   8   8   8
#     4   8  16  36  62  96 124 160 210 264 318 394
#     4  10  21  40  70  96 128 167 217 269 329 399
#     4  12  25  42  65  96 133 171 227 275 336 392
#     4  10  23  39  67  96 129 169 218 269 332 395
#     4  12  27  43  61  93 136 174 223 276 330 397
#     4  12  27  45  67  92 127 177 225 274 333 395
#
# _framework density 21.300844000000001
#
# number of rings (size 3 to 8) (size 9 to 14) (size 15 to 20)
#    0.000    1.333    3.333    1.500    7.000    0.000 
#    0.000    0.833    0.000    1.000    0.000    0.000 
#    0.000    0.000    0.000    0.000    0.000    0.000 
#
# Total GULP energy -133968.695748 kJ/mol
# GULP energy per Si atom -5582.028990 kJ/mol
# Density = 2.125236 g / cm^3
# Si number density = 21.300844 Si / 1000 Ang^3
#
#
#
# Elastic Constant Matrix: (Units=GPa)
#
#
# Indices 1 2 3 4 5 6 
#
# 1 77.0234 66.9589 24.1686 0.0000 18.6731 0.0000
# 2 66.9589 219.4528 28.9517 0.0000 15.0015 0.0000
# 3 24.1686 28.9517 127.1293 0.0000 23.8770 0.0000
# 4 0.0000 0.0000 0.0000 28.5938 0.0000 14.0968
# 5 18.6731 15.0015 23.8770 0.0000 30.9351 0.0000
# 6 0.0000 0.0000 0.0000 14.0968 0.0000 29.7750
#
#
#
# Elastic Compliance Matrix: (Units=1/GPa)
#
#
# Indices 1 2 3 4 5 6 
#
# 1 0.020114 -0.005412 -0.000940 0.000000 -0.008791 0.000000
# 2 -0.005412 0.006232 -0.000510 0.000000 0.000639 0.000000
# 3 -0.000940 -0.000510 0.009366 0.000000 -0.006414 0.000000
# 4 0.000000 0.000000 0.000000 0.045621 0.000000 -0.021599
# 5 -0.008791 0.000639 -0.006414 0.000000 0.042273 0.000000
# 6 0.000000 0.000000 0.000000 -0.021599 0.000000 0.043811
#
#
# Mechanical properties :
#
#
# Convention : Reuss Voigt Hill
#
# Bulk Modulus (GPa) = 45.48297 73.75157 59.61727
# Shear Modulus (GPa) = 26.52925 38.09587 32.31256
#
# Velocity S-wave (km/s) = 3.53293 4.23362 3.89904
# Velocity P-wave (km/s) = 6.16775 7.65486 6.95119
#
# Compressibility (1/GPa) = 0.02198625
#
# Stress axis : x y z
#
# Youngs Moduli (GPa) = 49.71548 160.46683 106.77414
#
# Poissons Ratio (x) = 0.86849 0.10040
# Poissons Ratio (y) = 0.26907 0.05448
# Poissons Ratio (z) = 0.04675 0.08188
#
# Static dielectric constant tensor:
#      x y z
#    x 1.629400 0.000000 -0.019230 
#    y 0.000000 1.842480 0.000000 
#    z -0.019230 0.000000 1.814570 
# 
# From -- ./inp_files/139364.got.cif
#   From: 2010.05.17/outbox.cif.g08.bks.cpg/sg15_70_cif.got.tgz:139364.got - 2010.06.03 18:47:42.
