data_PCOD9284762
_publ_section_title
;
Structure prediction by ZEFSAII (Michael W. Deem and Ramdas Pophale) SiO2 
 PCOD9284762
Probable space group: C 2/C
;
_chemical_formula_sum "Si O2"
_cell_formula_units_Z 48
_cell_length_a 26.604086
_cell_length_b 11.143260
_cell_length_c 15.047602
_cell_angle_alpha 90.000000
_cell_angle_beta 152.842932
_cell_angle_gamma 90.000000
_cell_volume 2036.120018
_symmetry_space_group_name_H-M "C 2/C"
_symmetry_group_IT_number 15
_symmetry_cell_setting 'monoclinic'
loop_
_space_group_symop_operation_xyz
x,y,z
-x,y,1/2-z
-x,-y,-z
x,-y,1/2+z
1/2+x,1/2+y,z
1/2-x,1/2+y,1/2-z
1/2-x,1/2-y,-z
1/2+x,1/2-y,1/2+z
loop_
_atom_site_type_symbol
_atom_site_label
_atom_site_fract_x
_atom_site_fract_y
_atom_site_fract_z
Si Si1 0.902885 0.360481 0.652184
Si Si2 0.641531 0.594364 0.282325
Si Si3 0.695298 0.237870 0.230918
Si Si4 0.703613 0.718671 0.540552
Si Si5 0.632486 0.004276 0.222307
Si Si6 0.043122 0.151334 0.638036
O O1 0.804319 0.306847 0.437733
O O2 0.858563 0.438121 0.664954
O O3 0.961647 0.245529 0.790865
O O4 0.000000 0.424081 0.750000
O O5 0.615986 0.672372 0.330488
O O6 0.754736 0.652502 0.427528
O O7 0.620325 0.460483 0.281853
O O8 0.570608 0.605455 0.080638
O O9 0.673648 0.269502 0.095369
O O10 0.692488 0.096031 0.248287
O O11 0.598541 0.284610 0.141556
O O12 0.805998 0.623058 0.693378
O O13 0.500000 0.000000 0.000000
#
# Coordination Sequence:
#
# PCOD9284762 Si02
#       6
#     8   8   8   8   8   8
#     4  11  22  42  69  97 122 171 226 274 322 385
#     4  10  22  41  60  89 131 170 203 265 326 389
#     4  11  23  39  68  95 126 168 221 266 328 389
#     4  11  23  40  64  93 133 167 214 263 333 391
#     4  11  23  43  66  96 132 170 217 277 325 389
#     4  10  21  41  64  90 128 164 216 265 321 390
#
# _framework density 23.574248000000001
#
# number of rings (size 3 to 8) (size 9 to 14) (size 15 to 20)
#    0.000    1.333    0.000    8.000    2.333    0.667 
#   12.000    0.000    0.000    0.000    0.000    0.000 
#    0.000    0.000    0.000    0.000    0.000    0.000 
#
# Total GULP energy -134071.367366 kJ/mol
# GULP energy per Si atom -5586.306974 kJ/mol
# Density = 2.352059 g / cm^3
# Si number density = 23.574248 Si / 1000 Ang^3
#
#
#
# Elastic Constant Matrix: (Units=GPa)
#
#
# Indices 1 2 3 4 5 6 
#
# 1 107.6372 2.8425 2.8160 0.0000 -27.6600 0.0000
# 2 2.8425 84.2859 6.4475 0.0000 -1.2999 0.0000
# 3 2.8160 6.4475 74.6825 0.0000 -8.3974 0.0000
# 4 0.0000 0.0000 0.0000 20.8475 0.0000 -5.6282
# 5 -27.6600 -1.2999 -8.3974 0.0000 35.7558 0.0000
# 6 0.0000 0.0000 0.0000 -5.6282 0.0000 17.9289
#
#
#
# Elastic Compliance Matrix: (Units=1/GPa)
#
#
# Indices 1 2 3 4 5 6 
#
# 1 0.011628 -0.000298 0.000614 0.000000 0.009129 0.000000
# 2 -0.000298 0.011952 -0.001025 0.000000 -0.000037 0.000000
# 3 0.000614 -0.001025 0.013871 0.000000 0.003695 0.000000
# 4 0.000000 0.000000 0.000000 0.052409 0.000000 0.016452
# 5 0.009129 -0.000037 0.003695 0.000000 0.035896 0.000000
# 6 0.000000 0.000000 0.000000 0.016452 0.000000 0.060941
#
#
# Mechanical properties :
#
#
# Convention : Reuss Voigt Hill
#
# Bulk Modulus (GPa) = 27.75273 32.31307 30.03290
# Shear Modulus (GPa) = 24.98427 31.87307 28.42867
#
# Velocity S-wave (km/s) = 3.25901 3.68098 3.47640
# Velocity P-wave (km/s) = 5.09505 5.63940 5.37412
#
# Compressibility (1/GPa) = 0.03603249
#
# Stress axis : x y z
#
# Youngs Moduli (GPa) = 85.99858 83.66621 72.09369
#
# Poissons Ratio (x) = 0.02496 -0.04425
# Poissons Ratio (y) = 0.02565 0.07388
# Poissons Ratio (z) = -0.05278 0.08574
#
# Static dielectric constant tensor:
#      x y z
#    x 1.876660 0.000000 0.000260 
#    y 0.000000 1.927030 0.000000 
#    z 0.000260 0.000000 1.991170 
# 
# From -- ./inp_files/152180.got.cif
#   From: 2010.05.17/outbox.cif.g08.bks.cpg/sg15_77_cif.got.tgz:152180.got - 2010.06.03 18:47:42.
