data_PCOD9284044
_publ_section_title
;
Structure prediction by ZEFSAII (Michael W. Deem and Ramdas Pophale) SiO2 
 PCOD9284044
Probable space group: C 2/C
;
_chemical_formula_sum "Si O2"
_cell_formula_units_Z 56
_cell_length_a 8.104377
_cell_length_b 24.660450
_cell_length_c 13.490219
_cell_angle_alpha 90.000000
_cell_angle_beta 75.241245
_cell_angle_gamma 90.000000
_cell_volume 2607.169466
_symmetry_space_group_name_H-M "C 2/C"
_symmetry_group_IT_number 15
_symmetry_cell_setting 'monoclinic'
loop_
_space_group_symop_operation_xyz
x,y,z
-x,y,1/2-z
-x,-y,-z
x,-y,1/2+z
1/2+x,1/2+y,z
1/2-x,1/2+y,1/2-z
1/2-x,1/2-y,-z
1/2+x,1/2-y,1/2+z
loop_
_atom_site_type_symbol
_atom_site_label
_atom_site_fract_x
_atom_site_fract_y
_atom_site_fract_z
Si Si1 0.658555 0.881211 0.668866
Si Si2 0.884053 0.462016 0.362695
Si Si3 0.858145 0.046541 0.028335
Si Si4 0.687965 0.327032 0.685633
Si Si5 0.424632 0.386478 0.152198
Si Si6 0.146573 0.296636 0.145482
Si Si7 0.049011 0.630761 0.493440
O O1 0.500000 0.908312 0.750000
O O2 0.823949 0.919181 0.633524
O O3 0.701407 0.830375 0.730864
O O4 0.594036 0.868462 0.568709
O O5 0.818383 0.511848 0.440892
O O6 0.719142 0.433030 0.338192
O O7 0.962949 0.417785 0.426013
O O8 0.000000 0.474403 0.250000
O O9 0.921061 0.091221 0.939772
O O10 0.000000 0.000000 0.000000
O O11 0.500000 0.339988 0.750000
O O12 0.687950 0.266629 0.642948
O O13 0.772490 0.368823 0.595376
O O14 0.500000 0.379982 0.250000
O O15 0.316830 0.333078 0.136106
O O16 0.000000 0.308199 0.250000
O O17 0.060221 0.315216 0.056687
#
# Coordination Sequence:
#
# PCOD9284044 Si02
#       7
#     8   8   8   8   8   8   8
#     4  10  23  42  64  91 133 167 213 267 319 389
#     4  10  22  42  64  90 131 173 215 262 324 390
#     4  10  23  41  62  95 129 169 222 265 328 373
#     4  10  23  41  65  95 130 169 217 266 324 381
#     4  10  22  38  62  94 129 162 218 274 316 377
#     4  10  22  42  66  92 128 172 215 261 331 388
#     4  10  21  40  66  92 127 171 211 268 322 386
#
# _framework density 21.479234999999999
#
# number of rings (size 3 to 8) (size 9 to 14) (size 15 to 20)
#    0.000    2.000    0.000    2.571   10.000    2.286 
#   10.286    2.857    0.000    0.000    0.000    0.000 
#    0.000    0.000    0.000    0.000    0.000    0.000 
#
# Total GULP energy -155964.902626 kJ/mol
# GULP energy per Si atom -5570.175094 kJ/mol
# Density = 2.143035 g / cm^3
# Si number density = 21.479235 Si / 1000 Ang^3
#
#
#
# Elastic Constant Matrix: (Units=GPa)
#
#
# Indices 1 2 3 4 5 6 
#
# 1 76.4249 23.1437 55.6350 0.0000 -1.7021 0.0000
# 2 23.1437 80.8429 35.1770 0.0000 5.3349 0.0000
# 3 55.6350 35.1770 128.1317 0.0000 -12.9682 0.0000
# 4 0.0000 0.0000 0.0000 28.3488 0.0000 -6.5503
# 5 -1.7021 5.3349 -12.9682 0.0000 52.5825 0.0000
# 6 0.0000 0.0000 0.0000 -6.5503 0.0000 15.4134
#
#
#
# Elastic Compliance Matrix: (Units=1/GPa)
#
#
# Indices 1 2 3 4 5 6 
#
# 1 0.019522 -0.002015 -0.008039 0.000000 -0.001146 0.000000
# 2 -0.002015 0.014567 -0.003364 0.000000 -0.002373 0.000000
# 3 -0.008039 -0.003364 0.012540 0.000000 0.003174 0.000000
# 4 0.000000 0.000000 0.000000 0.039116 0.000000 0.016623
# 5 -0.001146 -0.002373 0.003174 0.000000 0.020004 0.000000
# 6 0.000000 0.000000 0.000000 0.016623 0.000000 0.071943
#
#
# Mechanical properties :
#
#
# Convention : Reuss Voigt Hill
#
# Bulk Modulus (GPa) = 50.52671 57.03457 53.78064
# Shear Modulus (GPa) = 23.68256 30.69853 27.19054
#
# Velocity S-wave (km/s) = 3.32411 3.78460 3.56181
# Velocity P-wave (km/s) = 6.18931 6.76082 6.48136
#
# Compressibility (1/GPa) = 0.01979151
#
# Stress axis : x y z
#
# Youngs Moduli (GPa) = 51.22515 68.64787 79.74488
#
# Poissons Ratio (x) = 0.13832 0.64108
# Poissons Ratio (y) = 0.10322 0.26830
# Poissons Ratio (z) = 0.41181 0.23097
#
# Static dielectric constant tensor:
#      x y z
#    x 1.912970 0.000000 -0.024980 
#    y 0.000000 1.819180 0.000000 
#    z -0.024980 0.000000 1.800990 
# 
# From -- ./inp_files/81261.got.cif
#   From: 2010.05.17/outbox.cif.g08.bks.cpg/sg15_41_cif.got.tgz:81261.got - 2010.06.03 18:47:42.
