data_PCOD9284556
_publ_section_title
;
Structure prediction by ZEFSAII (Michael W. Deem and Ramdas Pophale) SiO2 
 PCOD9284556
Probable space group: C 2/C
;
_chemical_formula_sum "Si O2"
_cell_formula_units_Z 32
_cell_length_a 11.296699
_cell_length_b 10.165463
_cell_length_c 14.906225
_cell_angle_alpha 90.000000
_cell_angle_beta 44.667889
_cell_angle_gamma 90.000000
_cell_volume 1203.370579
_symmetry_space_group_name_H-M "C 2/C"
_symmetry_group_IT_number 15
_symmetry_cell_setting 'monoclinic'
loop_
_space_group_symop_operation_xyz
x,y,z
-x,y,1/2-z
-x,-y,-z
x,-y,1/2+z
1/2+x,1/2+y,z
1/2-x,1/2+y,1/2-z
1/2-x,1/2-y,-z
1/2+x,1/2-y,1/2+z
loop_
_atom_site_type_symbol
_atom_site_label
_atom_site_fract_x
_atom_site_fract_y
_atom_site_fract_z
Si Si1 0.812625 0.329793 0.833110
Si Si2 0.165556 0.558878 0.359925
Si Si3 0.971412 0.741386 0.952142
Si Si4 0.213504 0.034871 0.028818
O O1 0.826413 0.445746 0.749767
O O2 0.667420 0.235599 0.871939
O O3 0.000000 0.277938 0.750000
O O4 0.751303 0.401652 0.956689
O O5 0.307963 0.518950 0.352988
O O6 0.000000 0.500000 0.500000
O O7 0.131120 0.713712 0.401052
O O8 0.937173 0.885915 0.934342
O O9 0.874237 0.639572 0.937228
#
# Coordination Sequence:
#
# PCOD9284556 Si02
#       4
#     8   8   8   8
#     4  12  22  38  71  90 128 171 202 262 331 364
#     4  10  21  41  61  92 129 164 207 263 316 373
#     4   9  22  42  66  92 125 164 221 254 314 381
#     4   9  21  45  64  90 131 159 214 271 303 375
#
# _framework density 26.591975000000001
#
# number of rings (size 3 to 8) (size 9 to 14) (size 15 to 20)
#    1.500    0.500    2.500    0.750    0.000    6.000 
#    4.500    0.000    0.000    0.000    0.000    0.000 
#    0.000    0.000    0.000    0.000    0.000    0.000 
#
# Total GULP energy -89105.264839 kJ/mol
# GULP energy per Si atom -5569.079052 kJ/mol
# Density = 2.653145 g / cm^3
# Si number density = 26.591975 Si / 1000 Ang^3
#
#
#
# Elastic Constant Matrix: (Units=GPa)
#
#
# Indices 1 2 3 4 5 6 
#
# 1 180.4418 29.4192 45.3210 0.0000 -26.6632 0.0000
# 2 29.4192 61.7609 13.1930 0.0000 -12.4784 0.0000
# 3 45.3210 13.1930 73.1348 0.0000 13.6433 0.0000
# 4 0.0000 0.0000 0.0000 27.7308 0.0000 -2.7469
# 5 -26.6632 -12.4784 13.6433 0.0000 38.3535 0.0000
# 6 0.0000 0.0000 0.0000 -2.7469 0.0000 57.8486
#
#
#
# Elastic Compliance Matrix: (Units=1/GPa)
#
#
# Indices 1 2 3 4 5 6 
#
# 1 0.008540 -0.001059 -0.006581 0.000000 0.007933 0.000000
# 2 -0.001059 0.018947 -0.004042 0.000000 0.006866 0.000000
# 3 -0.006581 -0.004042 0.020971 0.000000 -0.013350 0.000000
# 4 0.000000 0.000000 0.000000 0.036231 0.000000 0.001720
# 5 0.007933 0.006866 -0.013350 0.000000 0.038571 0.000000
# 6 0.000000 0.000000 0.000000 0.001720 0.000000 0.017368
#
#
# Mechanical properties :
#
#
# Convention : Reuss Voigt Hill
#
# Bulk Modulus (GPa) = 39.85199 54.57822 47.21511
# Shear Modulus (GPa) = 29.00940 39.94688 34.47814
#
# Velocity S-wave (km/s) = 3.30647 3.88005 3.60469
# Velocity P-wave (km/s) = 5.44022 6.37510 5.92613
#
# Compressibility (1/GPa) = 0.02509285
#
# Stress axis : x y z
#
# Youngs Moduli (GPa) = 117.09844 52.77952 47.68435
#
# Poissons Ratio (x) = 0.05590 0.31381
# Poissons Ratio (y) = 0.12403 0.19276
# Poissons Ratio (z) = 0.77062 0.21335
#
# Static dielectric constant tensor:
#      x y z
#    x 2.203440 0.000000 -0.029720 
#    y 0.000000 2.458520 0.000000 
#    z -0.029720 0.000000 2.127060 
# 
# From -- ./inp_files/75351.got.cif
#   From: 2010.05.17/outbox.cif.g08.bks.cpg/sg15_38_cif.got.tgz:75351.got - 2010.06.03 18:47:42.
