data_PCOD9284982
_publ_section_title
;
Structure prediction by ZEFSAII (Michael W. Deem and Ramdas Pophale) SiO2 
 PCOD9284982
Probable space group: C 2/C
;
_chemical_formula_sum "Si O2"
_cell_formula_units_Z 36
_cell_length_a 23.814199
_cell_length_b 7.788282
_cell_length_c 13.954754
_cell_angle_alpha 90.000000
_cell_angle_beta 139.767242
_cell_angle_gamma 90.000000
_cell_volume 1671.711246
_symmetry_space_group_name_H-M "C 2/C"
_symmetry_group_IT_number 15
_symmetry_cell_setting 'monoclinic'
loop_
_space_group_symop_operation_xyz
x,y,z
-x,y,1/2-z
-x,-y,-z
x,-y,1/2+z
1/2+x,1/2+y,z
1/2-x,1/2+y,1/2-z
1/2-x,1/2-y,-z
1/2+x,1/2-y,1/2+z
loop_
_atom_site_type_symbol
_atom_site_label
_atom_site_fract_x
_atom_site_fract_y
_atom_site_fract_z
Si Si1 0.407738 0.461843 0.926214
Si Si2 0.750230 0.000964 0.582024
Si Si3 0.500000 0.829256 0.250000
Si Si4 0.159800 0.859460 0.971423
Si Si5 0.925206 0.656396 0.081804
O O1 0.332836 0.524000 0.756810
O O2 0.383628 0.560755 0.992433
O O3 0.500000 0.500000 0.000000
O O4 0.411190 0.264452 0.967953
O O5 0.784010 0.989959 0.517464
O O6 0.717699 0.807934 0.565497
O O7 0.668702 0.125821 0.491536
O O8 0.576904 0.716982 0.306429
O O9 0.462118 0.961560 0.121541
O O10 0.000000 0.737141 0.250000
#
# Coordination Sequence:
#
# PCOD9284982 Si02
#       5
#     8   8   4   8   8
#     4  12  25  39  65  99 131 168 221 267 322 391
#     4  10  22  43  66  93 128 172 215 270 324 386
#     4   8  18  38  64  88 128 170 208 258 322 380
#     4  10  21  41  66  90 130 169 216 267 326 379
#     4   9  22  43  63  95 130 170 215 261 328 384
#
# _framework density 21.53482
#
# number of rings (size 3 to 8) (size 9 to 14) (size 15 to 20)
#    0.667    1.333    0.000    2.667    4.667    0.889 
#    4.000   10.000    0.000    0.000    0.000    0.000 
#    0.000    0.000    0.000    0.000    0.000    0.000 
#
# Total GULP energy -100321.418184 kJ/mol
# GULP energy per Si atom -5573.412121 kJ/mol
# Density = 2.148581 g / cm^3
# Si number density = 21.534820 Si / 1000 Ang^3
#
#
#
# Elastic Constant Matrix: (Units=GPa)
#
#
# Indices 1 2 3 4 5 6 
#
# 1 167.5124 49.6033 37.9504 0.0000 26.5964 0.0000
# 2 49.6033 54.0454 9.6544 0.0000 9.3595 0.0000
# 3 37.9504 9.6544 91.5119 0.0000 29.0810 0.0000
# 4 0.0000 0.0000 0.0000 13.3247 0.0000 5.2903
# 5 26.5964 9.3595 29.0810 0.0000 32.6413 0.0000
# 6 0.0000 0.0000 0.0000 5.2903 0.0000 44.0591
#
#
#
# Elastic Compliance Matrix: (Units=1/GPa)
#
#
# Indices 1 2 3 4 5 6 
#
# 1 0.009184 -0.007459 -0.001846 0.000000 -0.003700 0.000000
# 2 -0.007459 0.025537 0.001109 0.000000 -0.002233 0.000000
# 3 -0.001846 0.001109 0.015622 0.000000 -0.012732 0.000000
# 4 0.000000 0.000000 0.000000 0.078805 0.000000 -0.009462
# 5 -0.003700 -0.002233 -0.012732 0.000000 0.045634 0.000000
# 6 0.000000 0.000000 0.000000 -0.009462 0.000000 0.023833
#
#
# Mechanical properties :
#
#
# Convention : Reuss Voigt Hill
#
# Bulk Modulus (GPa) = 29.45421 56.38733 42.92077
# Shear Modulus (GPa) = 22.09212 32.39581 27.24396
#
# Velocity S-wave (km/s) = 3.20641 3.88280 3.56070
# Velocity P-wave (km/s) = 5.23596 6.80754 6.07280
#
# Compressibility (1/GPa) = 0.03395100
#
# Stress axis : x y z
#
# Youngs Moduli (GPa) = 108.88500 39.15853 64.01187
#
# Poissons Ratio (x) = 0.29207 0.11817
# Poissons Ratio (y) = 0.81214 -0.07096
# Poissons Ratio (z) = 0.20100 -0.04341
#
# Static dielectric constant tensor:
#      x y z
#    x 1.755090 0.000000 0.001340 
#    y 0.000000 1.835760 0.000000 
#    z 0.001340 0.000000 1.838520 
# 
# From -- ./inp_files/158922.got.cif
#   From: 2010.05.17/outbox.cif.g08.bks.cpg/sg15_80_cif.got.tgz:158922.got - 2010.06.03 18:47:42.
