data_PCOD9284752
_publ_section_title
;
Structure prediction by ZEFSAII (Michael W. Deem and Ramdas Pophale) SiO2 
 PCOD9284752
Probable space group: C 2/C
;
_chemical_formula_sum "Si O2"
_cell_formula_units_Z 60
_cell_length_a 21.685276
_cell_length_b 13.706932
_cell_length_c 12.050428
_cell_angle_alpha 90.000000
_cell_angle_beta 58.902230
_cell_angle_gamma 90.000000
_cell_volume 3067.094311
_symmetry_space_group_name_H-M "C 2/C"
_symmetry_group_IT_number 15
_symmetry_cell_setting 'monoclinic'
loop_
_space_group_symop_operation_xyz
x,y,z
-x,y,1/2-z
-x,-y,-z
x,-y,1/2+z
1/2+x,1/2+y,z
1/2-x,1/2+y,1/2-z
1/2-x,1/2-y,-z
1/2+x,1/2-y,1/2+z
loop_
_atom_site_type_symbol
_atom_site_label
_atom_site_fract_x
_atom_site_fract_y
_atom_site_fract_z
Si Si1 0.000000 0.282562 0.250000
Si Si2 0.943570 0.086901 0.899024
Si Si3 0.983069 0.125299 0.455688
Si Si4 0.243472 0.329461 0.862273
Si Si5 0.264768 0.993196 0.816353
Si Si6 0.716463 0.357978 0.040202
Si Si7 0.168699 0.855927 0.328436
Si Si8 0.655812 0.837772 0.168206
O O1 0.985718 0.213079 0.368035
O O2 0.926557 0.339044 0.292091
O O3 0.863863 0.119600 0.933386
O O4 0.000000 0.120037 0.750000
O O5 0.967140 0.973514 0.901233
O O6 0.951439 0.124825 0.018933
O O7 0.915869 0.138551 0.600877
O O8 0.243858 0.420890 0.779629
O O9 0.193269 0.247383 0.852326
O O10 0.318040 0.269378 0.812735
O O11 0.207767 0.354499 0.013399
O O12 0.193568 0.060055 0.889017
O O13 0.326326 0.076081 0.761505
O O14 0.268700 0.927169 0.921599
O O15 0.708567 0.378015 0.177332
O O16 0.750000 0.250000 0.000000
#
# Coordination Sequence:
#
# PCOD9284752 Si02
#       8
#     4   8   8   8   8   8   8   8
#     4  12  24  40  68  92 128 166 228 258 318 384
#     4  11  23  38  60  95 130 163 206 261 336 383
#     4  11  23  37  61  92 128 162 202 269 326 375
#     4  10  21  41  64  89 127 164 212 263 318 370
#     4  11  23  39  65  92 129 164 213 265 318 379
#     4  12  24  39  64  95 129 167 213 262 319 387
#     4  11  21  38  62  91 124 168 206 261 320 382
#     4  10  24  41  65  95 123 171 217 263 313 387
#
# _framework density 19.562488999999999
#
# number of rings (size 3 to 8) (size 9 to 14) (size 15 to 20)
#    0.000    1.067    6.000    0.800    1.867    1.067 
#    0.000    0.667    4.400    0.000    0.000    0.000 
#    0.000    0.000    0.000    0.000    0.000    0.000 
#
# Total GULP energy -167220.904315 kJ/mol
# GULP energy per Si atom -5574.030144 kJ/mol
# Density = 1.951796 g / cm^3
# Si number density = 19.562489 Si / 1000 Ang^3
#
#
#
# Elastic Constant Matrix: (Units=GPa)
#
#
# Indices 1 2 3 4 5 6 
#
# 1 111.0594 39.8625 13.6732 0.0000 3.8447 0.0000
# 2 39.8625 104.2803 27.5864 0.0000 7.3488 0.0000
# 3 13.6732 27.5864 73.4606 0.0000 10.3801 0.0000
# 4 0.0000 0.0000 0.0000 19.7865 0.0000 16.4829
# 5 3.8447 7.3488 10.3801 0.0000 28.1815 0.0000
# 6 0.0000 0.0000 0.0000 16.4829 0.0000 29.9152
#
#
#
# Elastic Compliance Matrix: (Units=1/GPa)
#
#
# Indices 1 2 3 4 5 6 
#
# 1 0.010454 -0.003856 -0.000462 0.000000 -0.000250 0.000000
# 2 -0.003856 0.012120 -0.003652 0.000000 -0.001290 0.000000
# 3 -0.000462 -0.003652 0.015746 0.000000 -0.004784 0.000000
# 4 0.000000 0.000000 0.000000 0.093418 0.000000 -0.051472
# 5 -0.000250 -0.001290 -0.004784 0.000000 0.037617 0.000000
# 6 0.000000 0.000000 0.000000 -0.051472 0.000000 0.061788
#
#
# Mechanical properties :
#
#
# Convention : Reuss Voigt Hill
#
# Bulk Modulus (GPa) = 44.68215 50.11606 47.39910
# Shear Modulus (GPa) = 19.64299 29.42187 24.53243
#
# Velocity S-wave (km/s) = 3.17222 3.88234 3.54510
# Velocity P-wave (km/s) = 6.02558 6.76542 6.40619
#
# Compressibility (1/GPa) = 0.02238030
#
# Stress axis : x y z
#
# Youngs Moduli (GPa) = 95.65824 82.50494 63.50774
#
# Poissons Ratio (x) = 0.31816 0.02936
# Poissons Ratio (y) = 0.36888 0.23190
# Poissons Ratio (z) = 0.04422 0.30127
#
# Static dielectric constant tensor:
#      x y z
#    x 1.717210 0.000000 0.005360 
#    y 0.000000 1.703280 0.000000 
#    z 0.005360 0.000000 1.707880 
# 
# From -- ./inp_files/112691.got.cif
#   From: 2010.05.17/outbox.cif.g08.bks.cpg/sg15_57_cif.got.tgz:112691.got - 2010.06.03 18:47:42.
