data_PCOD9284160
_publ_section_title
;
Structure prediction by ZEFSAII (Michael W. Deem and Ramdas Pophale) SiO2 
 PCOD9284160
Probable space group: C 2/C
;
_chemical_formula_sum "Si O2"
_cell_formula_units_Z 56
_cell_length_a 8.340381
_cell_length_b 15.773820
_cell_length_c 23.482478
_cell_angle_alpha 90.000000
_cell_angle_beta 65.333613
_cell_angle_gamma 90.000000
_cell_volume 2807.453889
_symmetry_space_group_name_H-M "C 2/C"
_symmetry_group_IT_number 15
_symmetry_cell_setting 'monoclinic'
loop_
_space_group_symop_operation_xyz
x,y,z
-x,y,1/2-z
-x,-y,-z
x,-y,1/2+z
1/2+x,1/2+y,z
1/2-x,1/2+y,1/2-z
1/2-x,1/2-y,-z
1/2+x,1/2-y,1/2+z
loop_
_atom_site_type_symbol
_atom_site_label
_atom_site_fract_x
_atom_site_fract_y
_atom_site_fract_z
Si Si1 0.341483 0.664857 0.966890
Si Si2 0.518561 0.070514 0.046356
Si Si3 0.643566 0.708664 0.663865
Si Si4 0.000000 0.636984 0.250000
Si Si5 0.689449 0.249077 0.443213
Si Si6 0.501281 0.184474 0.815973
Si Si7 0.878236 0.500987 0.186396
Si Si8 0.000000 0.076569 0.750000
O O1 0.307854 0.673320 0.904679
O O2 0.544313 0.677349 0.953076
O O3 0.250000 0.750000 0.000000
O O4 0.226927 0.592758 0.013503
O O5 0.405616 0.157394 0.052524
O O6 0.453375 0.035470 0.116109
O O7 0.500000 0.000000 0.000000
O O8 0.575214 0.802317 0.688857
O O9 0.814778 0.702416 0.678642
O O10 0.481423 0.645187 0.702428
O O11 0.125557 0.572673 0.264663
O O12 0.750000 0.250000 0.500000
O O13 0.848337 0.270460 0.375856
O O14 0.500000 0.212216 0.750000
O O15 0.502193 0.081276 0.816205
O O16 0.675311 0.473104 0.210808
#
# Coordination Sequence:
#
# PCOD9284160 Si02
#       8
#     8   8   8   4   8   8   8   4
#     4  10  21  40  67  92 123 173 219 259 326 402
#     4  11  23  43  67  94 131 173 217 281 329 386
#     4  10  22  40  65  86 129 172 222 256 328 408
#     4  11  22  36  60  95 126 164 216 275 320 376
#     4  11  24  42  69  97 129 176 229 271 333 410
#     4  11  24  42  64  95 136 173 218 278 333 400
#     4  11  23  41  61  94 132 166 215 270 335 382
#     4   9  22  40  60  83 124 176 214 243 330 402
#
# _framework density 19.946898000000001
#
# number of rings (size 3 to 8) (size 9 to 14) (size 15 to 20)
#    0.000    1.429    0.714    6.000    8.000    1.143 
#    0.000    4.286    0.000    0.000    0.000    0.000 
#    0.000    0.000    0.000    0.000    0.000    0.000 
#
# Total GULP energy -155901.873769 kJ/mol
# GULP energy per Si atom -5567.924063 kJ/mol
# Density = 1.990150 g / cm^3
# Si number density = 19.946898 Si / 1000 Ang^3
#
#
#
# Elastic Constant Matrix: (Units=GPa)
#
#
# Indices 1 2 3 4 5 6 
#
# 1 101.5206 26.4887 53.4900 0.0000 -6.4105 0.0000
# 2 26.4887 90.6730 29.2116 0.0000 -11.7981 0.0000
# 3 53.4900 29.2116 154.3977 0.0000 -7.5397 0.0000
# 4 0.0000 0.0000 0.0000 26.7426 0.0000 -8.3001
# 5 -6.4105 -11.7981 -7.5397 0.0000 35.3052 0.0000
# 6 0.0000 0.0000 0.0000 -8.3001 0.0000 24.7413
#
#
#
# Elastic Compliance Matrix: (Units=1/GPa)
#
#
# Indices 1 2 3 4 5 6 
#
# 1 0.012540 -0.002329 -0.003871 0.000000 0.000672 0.000000
# 2 -0.002329 0.012618 -0.001410 0.000000 0.003493 0.000000
# 3 -0.003871 -0.001410 0.008112 0.000000 0.000558 0.000000
# 4 0.000000 0.000000 0.000000 0.041739 0.000000 0.014002
# 5 0.000672 0.003493 0.000558 0.000000 0.029733 0.000000
# 6 0.000000 0.000000 0.000000 0.014002 0.000000 0.045116
#
#
# Mechanical properties :
#
#
# Convention : Reuss Voigt Hill
#
# Bulk Modulus (GPa) = 55.40131 62.77464 59.08798
# Shear Modulus (GPa) = 29.22387 33.18457 31.20422
#
# Velocity S-wave (km/s) = 3.83179 4.08321 3.95950
# Velocity P-wave (km/s) = 6.88560 7.33275 7.11269
#
# Compressibility (1/GPa) = 0.01805011
#
# Stress axis : x y z
#
# Youngs Moduli (GPa) = 79.74594 79.25424 123.27660
#
# Poissons Ratio (x) = 0.18457 0.47719
# Poissons Ratio (y) = 0.18571 0.17380
# Poissons Ratio (z) = 0.30869 0.11174
#
# Static dielectric constant tensor:
#      x y z
#    x 1.724830 0.000000 0.009860 
#    y 0.000000 1.753760 0.000000 
#    z 0.009860 0.000000 1.728120 
# 
# From -- ./inp_files/264637.got.cif
#   From: 2010.05.17/outbox.cif.g08.bks.cpg/sg15_133_cif.got.tgz:264637.got - 2010.06.03 18:47:42.
