data_PCOD9284771
_publ_section_title
;
Structure prediction by ZEFSAII (Michael W. Deem and Ramdas Pophale) SiO2 
 PCOD9284771
Probable space group: C 2/C
;
_chemical_formula_sum "Si O2"
_cell_formula_units_Z 64
_cell_length_a 29.544062
_cell_length_b 12.036877
_cell_length_c 17.785234
_cell_angle_alpha 90.000000
_cell_angle_beta 148.215885
_cell_angle_gamma 90.000000
_cell_volume 3331.375152
_symmetry_space_group_name_H-M "C 2/C"
_symmetry_group_IT_number 15
_symmetry_cell_setting 'monoclinic'
loop_
_space_group_symop_operation_xyz
x,y,z
-x,y,1/2-z
-x,-y,-z
x,-y,1/2+z
1/2+x,1/2+y,z
1/2-x,1/2+y,1/2-z
1/2-x,1/2-y,-z
1/2+x,1/2-y,1/2+z
loop_
_atom_site_type_symbol
_atom_site_label
_atom_site_fract_x
_atom_site_fract_y
_atom_site_fract_z
Si Si1 0.564340 0.685019 0.117242
Si Si2 0.124639 0.853905 0.199607
Si Si3 0.825534 0.968157 0.073086
Si Si4 0.833124 0.407069 0.074723
Si Si5 0.419757 0.944202 0.345945
Si Si6 0.714821 0.878607 0.794125
Si Si7 0.227409 0.051563 0.287480
Si Si8 0.579553 0.678081 0.312218
O O1 0.577968 0.816083 0.128044
O O2 0.652063 0.626403 0.217189
O O3 0.550233 0.664720 0.185279
O O4 0.477816 0.642858 0.955860
O O5 0.142954 0.901196 0.309146
O O6 0.157115 0.729175 0.229336
O O7 0.180750 0.931663 0.222700
O O8 0.888428 0.055412 0.121426
O O9 0.790029 0.882444 0.961992
O O10 0.750984 0.050714 0.999475
O O11 0.909417 0.446877 0.239500
O O12 0.849048 0.275534 0.087288
O O13 0.811245 0.452086 0.960448
O O14 0.500000 0.000000 0.500000
O O15 0.339893 0.011353 0.265785
O O16 0.748191 0.894388 0.757110
O O17 0.500000 0.715593 0.250000
#
# Coordination Sequence:
#
# PCOD9284771 Si02
#       8
#     8   8   8   8   8   8   8   8
#     4  11  23  41  62  91 129 164 202 262 326 361
#     4  11  23  43  63  88 130 168 206 254 323 380
#     4  10  22  41  62  88 126 168 209 252 313 376
#     4   9  21  39  61  88 125 161 203 260 314 361
#     4  10  21  41  64  91 122 166 212 251 312 382
#     4  11  25  39  67  93 121 169 221 253 307 388
#     4  11  25  39  65  93 128 161 212 269 315 365
#     4  11  23  35  64  94 123 158 211 260 316 373
#
# _framework density 19.211285
#
# number of rings (size 3 to 8) (size 9 to 14) (size 15 to 20)
#    0.000    1.500    3.750    1.125    8.750    0.000 
#    0.000    0.000    0.000    1.500    0.000    0.000 
#    0.000    0.000    0.000    0.000    0.000    0.000 
#
# Total GULP energy -178302.122961 kJ/mol
# GULP energy per Si atom -5571.941343 kJ/mol
# Density = 1.916756 g / cm^3
# Si number density = 19.211285 Si / 1000 Ang^3
#
#
#
# Elastic Constant Matrix: (Units=GPa)
#
#
# Indices 1 2 3 4 5 6 
#
# 1 82.2126 14.5049 25.9818 0.0000 -12.2606 0.0000
# 2 14.5049 53.8829 29.7948 0.0000 -7.7679 0.0000
# 3 25.9818 29.7948 97.3341 0.0000 -6.1565 0.0000
# 4 0.0000 0.0000 0.0000 32.8293 0.0000 2.4331
# 5 -12.2606 -7.7679 -6.1565 0.0000 7.2691 0.0000
# 6 0.0000 0.0000 0.0000 2.4331 0.0000 13.1746
#
#
#
# Elastic Compliance Matrix: (Units=1/GPa)
#
#
# Indices 1 2 3 4 5 6 
#
# 1 0.017027 0.001083 -0.003156 0.000000 0.027203 0.000000
# 2 0.001083 0.025238 -0.006544 0.000000 0.023255 0.000000
# 3 -0.003156 -0.006544 0.013039 0.000000 -0.001273 0.000000
# 4 0.000000 0.000000 0.000000 0.030883 0.000000 -0.005704
# 5 0.027203 0.023255 -0.001273 0.000000 0.207224 0.000000
# 6 0.000000 0.000000 0.000000 -0.005704 0.000000 0.076957
#
#
# Mechanical properties :
#
#
# Convention : Reuss Voigt Hill
#
# Bulk Modulus (GPa) = 26.26689 41.55473 33.91081
# Shear Modulus (GPa) = 12.49091 21.53114 17.01103
#
# Velocity S-wave (km/s) = 2.55264 3.35140 2.97891
# Velocity P-wave (km/s) = 4.73184 6.05419 5.43339
#
# Compressibility (1/GPa) = 0.03807074
#
# Stress axis : x y z
#
# Youngs Moduli (GPa) = 58.73120 39.62264 76.69325
#
# Poissons Ratio (x) = -0.04292 0.24204
# Poissons Ratio (y) = -0.06363 0.50187
# Poissons Ratio (z) = 0.18536 0.25928
#
# Static dielectric constant tensor:
#      x y z
#    x 1.650420 0.000000 -0.007270 
#    y 0.000000 1.688270 0.000000 
#    z -0.007270 0.000000 1.755970 
# 
# From -- ./inp_files/225187.got.cif
#   From: 2010.05.17/outbox.cif.g08.bks.cpg/sg15_113_cif.got.tgz:225187.got - 2010.06.03 18:47:42.
