data_PCOD9284777
_publ_section_title
;
Structure prediction by ZEFSAII (Michael W. Deem and Ramdas Pophale) SiO2 
 PCOD9284777
Probable space group: C 2/C
;
_chemical_formula_sum "Si O2"
_cell_formula_units_Z 52
_cell_length_a 5.304352
_cell_length_b 19.710617
_cell_length_c 23.204264
_cell_angle_alpha 90.000000
_cell_angle_beta 111.784569
_cell_angle_gamma 90.000000
_cell_volume 2252.798750
_symmetry_space_group_name_H-M "C 2/C"
_symmetry_group_IT_number 15
_symmetry_cell_setting 'monoclinic'
loop_
_space_group_symop_operation_xyz
x,y,z
-x,y,1/2-z
-x,-y,-z
x,-y,1/2+z
1/2+x,1/2+y,z
1/2-x,1/2+y,1/2-z
1/2-x,1/2-y,-z
1/2+x,1/2-y,1/2+z
loop_
_atom_site_type_symbol
_atom_site_label
_atom_site_fract_x
_atom_site_fract_y
_atom_site_fract_z
Si Si1 0.232719 0.784100 0.375232
Si Si2 0.500000 0.367450 0.750000
Si Si3 0.798535 0.451242 0.847065
Si Si4 0.490697 0.584671 0.820403
Si Si5 0.805370 0.645281 0.053576
Si Si6 0.000000 0.506138 0.750000
Si Si7 0.698787 0.171567 0.981422
Si Si8 0.000000 0.714235 0.250000
O O1 0.026480 0.847000 0.358699
O O2 0.184253 0.719982 0.414076
O O3 0.521882 0.820621 0.409017
O O4 0.191904 0.755949 0.308488
O O5 0.541411 0.401011 0.818485
O O6 0.779317 0.325184 0.769121
O O7 0.702632 0.525792 0.858076
O O8 0.052678 0.413964 0.896859
O O9 0.841582 0.461913 0.782303
O O10 0.500000 0.593425 0.750000
O O11 0.197810 0.552212 0.803918
O O12 0.488540 0.635003 0.010717
O O13 0.988924 0.646651 0.012104
O O14 0.750000 0.250000 0.000000
#
# Coordination Sequence:
#
# PCOD9284777 Si02
#       8
#     8   4   8   8   8   4   8   4
#     4  11  23  44  66  97 140 165 223 274 336 401
#     4  12  24  38  64 100 136 164 214 282 324 389
#     4  11  23  39  67  93 137 170 229 270 335 395
#     4  10  22  42  60  98 136 179 210 265 350 405
#     4  11  25  43  73  96 127 177 229 273 321 387
#     4  10  21  41  64  91 139 182 208 268 351 395
#     4  10  24  45  67  96 131 179 217 271 336 389
#     4  12  27  37  68 109 125 166 220 278 337 384
#
# _framework density 23.082398000000001
#
# number of rings (size 3 to 8) (size 9 to 14) (size 15 to 20)
#    0.000    1.231    4.615    2.308    6.462    1.846 
#   16.615    1.538    0.000    0.000    0.000    0.000 
#    0.000    0.000    0.000    0.000    0.000    0.000 
#
# Total GULP energy -144915.576880 kJ/mol
# GULP energy per Si atom -5573.676034 kJ/mol
# Density = 2.302986 g / cm^3
# Si number density = 23.082398 Si / 1000 Ang^3
#
#
#
# Elastic Constant Matrix: (Units=GPa)
#
#
# Indices 1 2 3 4 5 6 
#
# 1 81.7820 11.5753 22.5811 0.0000 16.2135 0.0000
# 2 11.5753 94.3314 23.8064 0.0000 14.6983 0.0000
# 3 22.5811 23.8064 74.5969 0.0000 23.1339 0.0000
# 4 0.0000 0.0000 0.0000 24.0318 0.0000 15.2735
# 5 16.2135 14.6983 23.1339 0.0000 31.0050 0.0000
# 6 0.0000 0.0000 0.0000 15.2735 0.0000 10.7000
#
#
#
# Elastic Compliance Matrix: (Units=1/GPa)
#
#
# Indices 1 2 3 4 5 6 
#
# 1 0.014014 -0.000256 -0.002505 0.000000 -0.005338 0.000000
# 2 -0.000256 0.011841 -0.002605 0.000000 -0.003536 0.000000
# 3 -0.002505 -0.002605 0.018482 0.000000 -0.011246 0.000000
# 4 0.000000 0.000000 0.000000 0.448432 0.000000 -0.640106
# 5 -0.005338 -0.003536 -0.011246 0.000000 0.045111 0.000000
# 6 0.000000 0.000000 0.000000 -0.640106 0.000000 1.007166
#
#
# Mechanical properties :
#
#
# Convention : Reuss Voigt Hill
#
# Bulk Modulus (GPa) = 29.75686 40.73733 35.24709
# Shear Modulus (GPa) = 3.19085 25.99719 14.59402
#
# Velocity S-wave (km/s) = 1.17702 3.35965 2.51720
# Velocity P-wave (km/s) = 3.84275 5.72159 4.87357
#
# Compressibility (1/GPa) = 0.03360570
#
# Stress axis : x y z
#
# Youngs Moduli (GPa) = 71.35841 84.45505 54.10544
#
# Poissons Ratio (x) = 0.02159 0.13554
# Poissons Ratio (y) = 0.01824 0.14093
# Poissons Ratio (z) = 0.17876 0.21999
#
# Static dielectric constant tensor:
#      x y z
#    x 1.885090 0.000000 0.009780 
#    y 0.000000 1.886510 0.000000 
#    z 0.009780 0.000000 1.988530 
# 
# From -- ./inp_files/261246.got.cif
#   From: 2010.05.17/outbox.cif.g08.bks.cpg/sg15_131_cif.got.tgz:261246.got - 2010.06.03 18:47:42.
