data_PCOD9284423
_publ_section_title
;
Structure prediction by ZEFSAII (Michael W. Deem and Ramdas Pophale) SiO2 
 PCOD9284423
Probable space group: C 2/C
;
_chemical_formula_sum "Si O2"
_cell_formula_units_Z 60
_cell_length_a 8.534258
_cell_length_b 22.443976
_cell_length_c 16.511978
_cell_angle_alpha 90.000000
_cell_angle_beta 62.104312
_cell_angle_gamma 90.000000
_cell_volume 2795.239833
_symmetry_space_group_name_H-M "C 2/C"
_symmetry_group_IT_number 15
_symmetry_cell_setting 'monoclinic'
loop_
_space_group_symop_operation_xyz
x,y,z
-x,y,1/2-z
-x,-y,-z
x,-y,1/2+z
1/2+x,1/2+y,z
1/2-x,1/2+y,1/2-z
1/2-x,1/2-y,-z
1/2+x,1/2-y,1/2+z
loop_
_atom_site_type_symbol
_atom_site_label
_atom_site_fract_x
_atom_site_fract_y
_atom_site_fract_z
Si Si1 0.823058 0.101209 0.159169
Si Si2 0.823004 0.921552 0.997761
Si Si3 0.500000 0.304042 0.250000
Si Si4 0.781710 0.094698 0.880304
Si Si5 0.975450 0.350394 0.352809
Si Si6 0.864752 0.764759 0.704902
Si Si7 0.222693 0.034711 0.163398
Si Si8 0.633167 0.044476 0.077055
O O1 0.837059 0.170066 0.176628
O O2 0.841377 0.062776 0.236926
O O3 0.648407 0.080761 0.155678
O O4 0.968055 0.085960 0.054766
O O5 0.788832 0.919863 0.909180
O O6 0.714559 0.872558 0.072638
O O7 0.752918 0.984955 0.045965
O O8 0.583135 0.350495 0.164027
O O9 0.335498 0.266135 0.249416
O O10 0.626040 0.108041 0.854060
O O11 0.858337 0.029019 0.842602
O O12 0.689611 0.086591 0.989132
O O13 0.000000 0.351393 0.250000
O O14 0.022013 0.284077 0.372038
O O15 0.000000 0.772551 0.750000
O O16 0.432600 0.023379 0.116759
#
# Coordination Sequence:
#
# PCOD9284423 Si02
#       8
#     8   8   4   8   8   8   8   8
#     4  12  27  40  66 102 140 185 232 277 360 423
#     4  11  22  42  63 102 133 174 231 285 344 426
#     4  10  24  42  78  98 136 184 252 288 346 430
#     4  10  21  41  65 101 131 178 226 291 353 404
#     4  10  21  40  71  93 129 183 233 282 347 410
#     4  10  24  48  67 102 141 188 241 297 344 416
#     4  11  22  40  67  94 139 186 210 287 361 415
#     4  11  23  40  63  97 144 172 227 289 348 424
#
# _framework density 21.465064999999999
#
# number of rings (size 3 to 8) (size 9 to 14) (size 15 to 20)
#    0.000    1.333    2.667    2.800    7.467    3.733 
#    0.000    4.000    0.000    0.000    0.000    0.000 
#    0.000    0.000    0.000    0.000    0.000    0.000 
#
# Total GULP energy -167255.097762 kJ/mol
# GULP energy per Si atom -5575.169925 kJ/mol
# Density = 2.141621 g / cm^3
# Si number density = 21.465065 Si / 1000 Ang^3
#
#
#
# Elastic Constant Matrix: (Units=GPa)
#
#
# Indices 1 2 3 4 5 6 
#
# 1 81.6346 26.9018 30.1038 0.0000 -3.0125 0.0000
# 2 26.9018 83.4690 35.7443 0.0000 -8.6813 0.0000
# 3 30.1038 35.7443 108.0879 0.0000 -15.7709 0.0000
# 4 0.0000 0.0000 0.0000 8.8341 0.0000 5.3016
# 5 -3.0125 -8.6813 -15.7709 0.0000 40.5568 0.0000
# 6 0.0000 0.0000 0.0000 5.3016 0.0000 10.1828
#
#
#
# Elastic Compliance Matrix: (Units=1/GPa)
#
#
# Indices 1 2 3 4 5 6 
#
# 1 0.014469 -0.003463 -0.003007 0.000000 -0.000836 0.000000
# 2 -0.003463 0.014847 -0.003731 0.000000 0.001470 0.000000
# 3 -0.003007 -0.003731 0.011846 0.000000 0.003584 0.000000
# 4 0.000000 0.000000 0.000000 0.164640 0.000000 -0.085719
# 5 -0.000836 0.001470 0.003584 0.000000 0.026303 0.000000
# 6 0.000000 0.000000 0.000000 -0.085719 0.000000 0.142834
#
#
# Mechanical properties :
#
#
# Convention : Reuss Voigt Hill
#
# Bulk Modulus (GPa) = 48.16645 50.96571 49.56608
# Shear Modulus (GPa) = 12.42979 23.94419 18.18699
#
# Velocity S-wave (km/s) = 2.40900 3.34353 2.91397
# Velocity P-wave (km/s) = 5.49781 6.22099 5.87054
#
# Compressibility (1/GPa) = 0.02076134
#
# Stress axis : x y z
#
# Youngs Moduli (GPa) = 69.11505 67.35313 84.41725
#
# Poissons Ratio (x) = 0.23322 0.25380
# Poissons Ratio (y) = 0.23932 0.31496
# Poissons Ratio (z) = 0.20780 0.25130
#
# Static dielectric constant tensor:
#      x y z
#    x 1.895250 0.000000 -0.023040 
#    y 0.000000 1.758440 0.000000 
#    z -0.023040 0.000000 1.780860 
# 
# From -- ./inp_files/192538.got.cif
#   From: 2010.05.17/outbox.cif.g08.bks.cpg/sg15_97_cif.got.tgz:192538.got - 2010.06.03 18:47:42.
