data_PCOD9284631
_publ_section_title
;
Structure prediction by ZEFSAII (Michael W. Deem and Ramdas Pophale) SiO2 
 PCOD9284631
Probable space group: C 2/C
;
_chemical_formula_sum "Si O2"
_cell_formula_units_Z 44
_cell_length_a 9.795908
_cell_length_b 17.700034
_cell_length_c 13.676981
_cell_angle_alpha 90.000000
_cell_angle_beta 52.397826
_cell_angle_gamma 90.000000
_cell_volume 1878.799042
_symmetry_space_group_name_H-M "C 2/C"
_symmetry_group_IT_number 15
_symmetry_cell_setting 'monoclinic'
loop_
_space_group_symop_operation_xyz
x,y,z
-x,y,1/2-z
-x,-y,-z
x,-y,1/2+z
1/2+x,1/2+y,z
1/2-x,1/2+y,1/2-z
1/2-x,1/2-y,-z
1/2+x,1/2-y,1/2+z
loop_
_atom_site_type_symbol
_atom_site_label
_atom_site_fract_x
_atom_site_fract_y
_atom_site_fract_z
Si Si1 0.229407 0.255634 0.786800
Si Si2 0.390343 0.018067 0.698240
Si Si3 0.500000 0.682484 0.750000
Si Si4 0.529013 0.622690 0.136099
Si Si5 0.585612 0.394471 0.398267
Si Si6 0.412667 0.119115 0.035096
O O1 0.402894 0.304492 0.704873
O O2 0.223148 0.175782 0.845164
O O3 0.080021 0.304025 0.906521
O O4 0.160966 0.233764 0.709777
O O5 0.500000 0.010589 0.750000
O O6 0.197814 0.035874 0.814759
O O7 0.453780 0.087901 0.602229
O O8 0.400680 0.945284 0.624059
O O9 0.533699 0.631892 0.639473
O O10 0.500000 0.576645 0.250000
O O11 0.734473 0.632090 0.054053
O O12 0.497893 0.595488 0.040249
#
# Coordination Sequence:
#
# PCOD9284631 Si02
#       6
#     8   8   4   8   8   8
#     4   9  22  41  66  94 132 173 216 274 329 394
#     4  11  23  42  69  94 132 179 220 268 326 400
#     4   8  22  42  60  98 126 180 220 266 344 368
#     4  10  21  41  62  98 127 171 220 268 334 382
#     4  10  22  42  66  96 132 174 221 276 326 396
#     4  10  23  42  64  99 133 173 221 270 330 399
#
# _framework density 23.419215000000001
#
# number of rings (size 3 to 8) (size 9 to 14) (size 15 to 20)
#    1.091    1.091    1.818    0.000    3.818    5.818 
#    8.182    5.455    0.000    0.000    0.000    0.000 
#    0.000    0.000    0.000    0.000    0.000    0.000 
#
# Total GULP energy -122529.604072 kJ/mol
# GULP energy per Si atom -5569.527458 kJ/mol
# Density = 2.336591 g / cm^3
# Si number density = 23.419215 Si / 1000 Ang^3
#
#
#
# Elastic Constant Matrix: (Units=GPa)
#
#
# Indices 1 2 3 4 5 6 
#
# 1 120.1668 31.6859 57.3488 0.0000 41.4938 0.0000
# 2 31.6859 82.7890 69.8396 0.0000 2.7701 0.0000
# 3 57.3488 69.8396 163.2777 0.0001 40.9423 0.0001
# 4 0.0000 0.0000 0.0001 23.3592 0.0000 -22.5435
# 5 41.4938 2.7701 40.9423 0.0000 46.9691 0.0000
# 6 0.0000 0.0000 0.0001 -22.5435 0.0000 -13.3885
#
#
#
# Elastic Compliance Matrix: (Units=1/GPa)
#
#
# Indices 1 2 3 4 5 6 
#
# 1 0.013687 -0.005256 0.000506 0.000000 -0.012222 0.000000
# 2 -0.005256 0.023297 -0.011439 0.000000 0.013241 0.000000
# 3 0.000506 -0.011439 0.013799 0.000000 -0.011800 0.000000
# 4 0.000000 0.000000 0.000000 0.016308 0.000000 -0.027460
# 5 -0.012222 0.013241 -0.011800 0.000000 0.041593 0.000000
# 6 0.000000 0.000000 0.000000 -0.027460 0.000000 -0.028454
#
#
# Mechanical properties :
#
#
# Convention : Reuss Voigt Hill
#
# Bulk Modulus (GPa) = 54.33624 75.99803 65.16713
# Shear Modulus (GPa) = 42.10741 25.21191 33.65966
#
# Velocity S-wave (km/s) = 4.24487 3.28464 3.79524
# Velocity P-wave (km/s) = 6.87584 6.84885 6.86236
#
# Compressibility (1/GPa) = 0.01840392
#
# Stress axis : x y z
#
# Youngs Moduli (GPa) = 73.06423 42.92327 72.46985
#
# Poissons Ratio (x) = 0.22560 -0.03664
# Poissons Ratio (y) = 0.38401 0.82900
# Poissons Ratio (z) = -0.03694 0.49101
#
# Static dielectric constant tensor:
#      x y z
#    x 1.923100 0.000000 -0.017910 
#    y 0.000000 1.925070 0.000000 
#    z -0.017910 0.000000 1.929430 
# 
# From -- ./inp_files/145437.got.cif
#   From: 2010.05.17/outbox.cif.g08.bks.cpg/sg15_73_cif.got.tgz:145437.got - 2010.06.03 18:47:42.
