data_PCOD9284409
_publ_section_title
;
Structure prediction by ZEFSAII (Michael W. Deem and Ramdas Pophale) SiO2 
 PCOD9284409
Probable space group: C 2/C
;
_chemical_formula_sum "Si O2"
_cell_formula_units_Z 60
_cell_length_a 19.984035
_cell_length_b 11.825039
_cell_length_c 11.205599
_cell_angle_alpha 90.000000
_cell_angle_beta 104.648387
_cell_angle_gamma 90.000000
_cell_volume 2561.946143
_symmetry_space_group_name_H-M "C 2/C"
_symmetry_group_IT_number 15
_symmetry_cell_setting 'monoclinic'
loop_
_space_group_symop_operation_xyz
x,y,z
-x,y,1/2-z
-x,-y,-z
x,-y,1/2+z
1/2+x,1/2+y,z
1/2-x,1/2+y,1/2-z
1/2-x,1/2-y,-z
1/2+x,1/2-y,1/2+z
loop_
_atom_site_type_symbol
_atom_site_label
_atom_site_fract_x
_atom_site_fract_y
_atom_site_fract_z
Si Si1 0.354874 0.373240 0.232942
Si Si2 0.984737 0.369042 0.486322
Si Si3 0.433047 0.673874 0.111277
Si Si4 0.500000 0.244207 0.250000
Si Si5 0.354726 0.761940 0.449884
Si Si6 0.067458 0.913042 0.631101
Si Si7 0.747755 0.402628 0.540847
Si Si8 0.714716 0.654186 0.564227
O O1 0.427117 0.310222 0.237118
O O2 0.383556 0.485676 0.311195
O O3 0.305095 0.398295 0.097645
O O4 0.306475 0.314594 0.310549
O O5 0.989509 0.326955 0.625114
O O6 0.904789 0.351639 0.408276
O O7 0.000000 0.500000 0.500000
O O8 0.036785 0.289579 0.432400
O O9 0.427618 0.670917 0.251057
O O10 0.485103 0.572832 0.094735
O O11 0.359454 0.640904 0.030015
O O12 0.410398 0.657903 0.473653
O O13 0.290591 0.681109 0.382946
O O14 0.318012 0.839070 0.534111
O O15 0.753755 0.532943 0.580440
O O16 0.750000 0.750000 0.500000
#
# Coordination Sequence:
#
# PCOD9284409 Si02
#       8
#     8   8   8   4   8   8   8   8
#     4  12  24  41  71 104 129 172 225 285 341 393
#     4  11  25  44  67  96 136 174 225 283 335 401
#     4  10  22  42  64  97 132 167 226 272 336 389
#     4  12  24  42  70 104 130 168 232 286 342 394
#     4  10  23  43  65  92 134 179 223 265 334 399
#     4  10  21  40  70  99 128 176 223 277 333 394
#     4  11  24  43  66  95 132 177 221 277 327 407
#     4  12  27  43  65  99 142 176 221 277 341 405
#
# _framework density 23.419695999999998
#
# number of rings (size 3 to 8) (size 9 to 14) (size 15 to 20)
#    0.000    1.067    5.333    0.800    3.733    2.667 
#    0.000    1.333    0.000    0.000    0.000    0.000 
#    0.000    0.000    0.000    0.000    0.000    0.000 
#
# Total GULP energy -167067.360483 kJ/mol
# GULP energy per Si atom -5568.912016 kJ/mol
# Density = 2.336639 g / cm^3
# Si number density = 23.419696 Si / 1000 Ang^3
#
#
#
# Elastic Constant Matrix: (Units=GPa)
#
#
# Indices 1 2 3 4 5 6 
#
# 1 112.1456 51.2290 36.0951 0.0000 -18.0090 0.0000
# 2 51.2290 158.1939 40.7025 0.0000 -27.1472 0.0000
# 3 36.0951 40.7025 95.6948 0.0000 -16.9539 0.0000
# 4 0.0000 0.0000 0.0000 28.9907 0.0000 -3.1988
# 5 -18.0090 -27.1472 -16.9539 0.0000 41.2148 0.0000
# 6 0.0000 0.0000 0.0000 -3.1988 0.0000 40.5572
#
#
#
# Elastic Compliance Matrix: (Units=1/GPa)
#
#
# Indices 1 2 3 4 5 6 
#
# 1 0.011340 -0.002591 -0.002804 0.000000 0.002095 0.000000
# 2 -0.002591 0.008256 -0.001911 0.000000 0.003520 0.000000
# 3 -0.002804 -0.001911 0.012814 0.000000 0.002787 0.000000
# 4 0.000000 0.000000 0.000000 0.034797 0.000000 0.002744
# 5 0.002095 0.003520 0.002787 0.000000 0.028643 0.000000
# 6 0.000000 0.000000 0.000000 0.002744 0.000000 0.024873
#
#
# Mechanical properties :
#
#
# Convention : Reuss Voigt Hill
#
# Bulk Modulus (GPa) = 56.18581 69.12083 62.65332
# Shear Modulus (GPa) = 35.39395 38.01972 36.70683
#
# Velocity S-wave (km/s) = 3.89175 4.03352 3.96327
# Velocity P-wave (km/s) = 6.65110 7.16034 6.91041
#
# Compressibility (1/GPa) = 0.01779809
#
# Stress axis : x y z
#
# Youngs Moduli (GPa) = 88.18718 121.12196 78.03974
#
# Poissons Ratio (x) = 0.31386 0.21881
# Poissons Ratio (y) = 0.22852 0.14910
# Poissons Ratio (z) = 0.24727 0.23142
#
# Static dielectric constant tensor:
#      x y z
#    x 1.972280 0.000000 0.007520 
#    y 0.000000 1.922130 0.000000 
#    z 0.007520 0.000000 2.074580 
# 
# From -- ./inp_files/111629.got.cif
#   From: 2010.05.17/outbox.cif.g08.bks.cpg/sg15_56_cif.got.tgz:111629.got - 2010.06.03 18:47:42.
