data_PCOD9284685
_publ_section_title
;
Structure prediction by ZEFSAII (Michael W. Deem and Ramdas Pophale) SiO2 
 PCOD9284685
Probable space group: C 2/C
;
_chemical_formula_sum "Si O2"
_cell_formula_units_Z 52
_cell_length_a 9.060988
_cell_length_b 16.411857
_cell_length_c 17.768679
_cell_angle_alpha 90.000000
_cell_angle_beta 85.673048
_cell_angle_gamma 90.000000
_cell_volume 2634.806992
_symmetry_space_group_name_H-M "C 2/C"
_symmetry_group_IT_number 15
_symmetry_cell_setting 'monoclinic'
loop_
_space_group_symop_operation_xyz
x,y,z
-x,y,1/2-z
-x,-y,-z
x,-y,1/2+z
1/2+x,1/2+y,z
1/2-x,1/2+y,1/2-z
1/2-x,1/2-y,-z
1/2+x,1/2-y,1/2+z
loop_
_atom_site_type_symbol
_atom_site_label
_atom_site_fract_x
_atom_site_fract_y
_atom_site_fract_z
Si Si1 0.469021 0.483930 0.870491
Si Si2 0.015801 0.828641 0.107283
Si Si3 0.820180 0.289940 0.344444
Si Si4 0.722643 0.788509 0.691912
Si Si5 0.252192 0.539778 0.246638
Si Si6 0.016670 0.180223 0.437469
Si Si7 0.500000 0.088114 0.750000
O O1 0.432460 0.577492 0.889015
O O2 0.624711 0.484998 0.819689
O O3 0.347388 0.447116 0.818149
O O4 0.484473 0.416958 0.935002
O O5 0.098174 0.771674 0.164715
O O6 0.839538 0.824715 0.127217
O O7 0.045643 0.796650 0.022119
O O8 0.797312 0.247766 0.264003
O O9 0.943101 0.358081 0.321934
O O10 0.881295 0.229303 0.405294
O O11 0.674483 0.878857 0.718954
O O12 0.845462 0.800885 0.622453
O O13 0.137234 0.468584 0.265456
#
# Coordination Sequence:
#
# PCOD9284685 Si02
#       7
#     8   8   8   8   8   8   4
#     4  10  21  41  63  91 125 165 211 255 315 373
#     4  12  25  39  65  98 126 164 213 261 318 377
#     4  12  23  42  63  92 125 169 212 262 312 376
#     4  11  23  42  66  92 124 166 215 261 311 375
#     4  10  22  38  63  93 121 161 213 266 304 363
#     4  11  23  43  64  91 133 168 202 262 326 377
#     4  12  22  38  62  94 120 158 216 266 308 356
#
# _framework density 19.735792
#
# number of rings (size 3 to 8) (size 9 to 14) (size 15 to 20)
#    0.000    0.923    4.615    2.769    4.308    0.000 
#    0.000    0.000    0.000    1.846    0.000    0.000 
#    0.000    0.000    0.000    0.000    0.000    0.000 
#
# Total GULP energy -145241.076043 kJ/mol
# GULP energy per Si atom -5586.195232 kJ/mol
# Density = 1.969087 g / cm^3
# Si number density = 19.735792 Si / 1000 Ang^3
#
#
#
# Elastic Constant Matrix: (Units=GPa)
#
#
# Indices 1 2 3 4 5 6 
#
# 1 60.0722 30.8696 8.2529 0.0000 9.5924 0.0000
# 2 30.8696 111.0688 24.1896 0.0000 16.2261 0.0000
# 3 8.2529 24.1896 86.1945 0.0000 14.0843 0.0000
# 4 0.0000 0.0000 0.0000 16.2854 0.0000 5.3796
# 5 9.5924 16.2261 14.0843 0.0000 25.9729 0.0000
# 6 0.0000 0.0000 0.0000 5.3796 0.0000 33.3615
#
#
#
# Elastic Compliance Matrix: (Units=1/GPa)
#
#
# Indices 1 2 3 4 5 6 
#
# 1 0.019845 -0.004921 0.000193 0.000000 -0.004360 0.000000
# 2 -0.004921 0.011433 -0.002049 0.000000 -0.004214 0.000000
# 3 0.000193 -0.002049 0.013124 0.000000 -0.005908 0.000000
# 4 0.000000 0.000000 0.000000 0.064859 0.000000 -0.010459
# 5 -0.004360 -0.004214 -0.005908 0.000000 0.045948 0.000000
# 6 0.000000 0.000000 0.000000 -0.010459 0.000000 0.031661
#
#
# Mechanical properties :
#
#
# Convention : Reuss Voigt Hill
#
# Bulk Modulus (GPa) = 32.41609 42.66218 37.53914
# Shear Modulus (GPa) = 23.72979 28.05885 25.89432
#
# Velocity S-wave (km/s) = 3.47129 3.77467 3.62615
# Velocity P-wave (km/s) = 5.70326 6.37660 6.04931
#
# Compressibility (1/GPa) = 0.03084887
#
# Stress axis : x y z
#
# Youngs Moduli (GPa) = 50.39079 87.46675 76.19918
#
# Poissons Ratio (x) = 0.43040 -0.01473
# Poissons Ratio (y) = 0.24796 0.15612
# Poissons Ratio (z) = -0.00974 0.17920
#
# Static dielectric constant tensor:
#      x y z
#    x 1.680890 0.000000 -0.009380 
#    y 0.000000 1.730260 0.000000 
#    z -0.009380 0.000000 1.668610 
# 
# From -- ./inp_files/190469.got.cif
#   From: 2010.05.17/outbox.cif.g08.bks.cpg/sg15_96_cif.got.tgz:190469.got - 2010.06.03 18:47:42.
