data_PCOD9284030
_publ_section_title
;
Structure prediction by ZEFSAII (Michael W. Deem and Ramdas Pophale) SiO2 
 PCOD9284030
Probable space group: C 2/C
;
_chemical_formula_sum "Si O2"
_cell_formula_units_Z 32
_cell_length_a 22.077136
_cell_length_b 5.202358
_cell_length_c 13.849660
_cell_angle_alpha 90.000000
_cell_angle_beta 124.996524
_cell_angle_gamma 90.000000
_cell_volume 1303.061900
_symmetry_space_group_name_H-M "C 2/C"
_symmetry_group_IT_number 15
_symmetry_cell_setting 'monoclinic'
loop_
_space_group_symop_operation_xyz
x,y,z
-x,y,1/2-z
-x,-y,-z
x,-y,1/2+z
1/2+x,1/2+y,z
1/2-x,1/2+y,1/2-z
1/2-x,1/2-y,-z
1/2+x,1/2-y,1/2+z
loop_
_atom_site_type_symbol
_atom_site_label
_atom_site_fract_x
_atom_site_fract_y
_atom_site_fract_z
Si Si1 0.840265 0.314288 0.909634
Si Si2 0.417779 0.307540 0.011888
Si Si3 0.720259 0.497605 0.917917
Si Si4 0.920703 0.939019 0.317334
O O1 0.759584 0.439062 0.848338
O O2 0.874572 0.279444 0.834484
O O3 0.889399 0.526637 0.009018
O O4 0.856727 0.032285 0.968321
O O5 0.496563 0.359274 0.131040
O O6 0.430534 0.337114 0.907024
O O7 0.633437 0.496199 0.818344
O O8 0.750000 0.250000 0.000000
O O9 0.750000 0.750000 0.000000
#
# Coordination Sequence:
#
# PCOD9284030 Si02
#       4
#     8   8   8   8
#     4  10  21  40  66  91 118 163 218 245 310 363
#     4   9  20  38  71  94 109 154 226 268 287 353
#     4  12  28  41  58  95 138 165 198 257 325 378
#     4   9  23  39  70  88 123 156 220 254 308 360
#
# _framework density 24.557545000000001
#
# number of rings (size 3 to 8) (size 9 to 14) (size 15 to 20)
#    1.500    0.500    0.000    2.250    7.000    0.000 
#    0.000    7.500    0.000    0.000    0.000    0.000 
#    0.000    0.000    0.000    0.000    0.000    0.000 
#
# Total GULP energy -89227.104252 kJ/mol
# GULP energy per Si atom -5576.694016 kJ/mol
# Density = 2.450165 g / cm^3
# Si number density = 24.557545 Si / 1000 Ang^3
#
#
#
# Elastic Constant Matrix: (Units=GPa)
#
#
# Indices 1 2 3 4 5 6 
#
# 1 43.6104 0.4567 -0.9231 0.0000 9.0348 0.0000
# 2 0.4567 132.1527 17.3961 0.0000 1.8267 -0.0001
# 3 -0.9231 17.3961 130.1979 0.0000 24.8031 0.0000
# 4 0.0000 0.0000 0.0000 17.1509 0.0000 -6.0489
# 5 9.0348 1.8267 24.8031 0.0000 43.0520 0.0000
# 6 0.0000 -0.0001 0.0000 -6.0489 0.0000 39.9520
#
#
#
# Elastic Compliance Matrix: (Units=1/GPa)
#
#
# Indices 1 2 3 4 5 6 
#
# 1 0.024164 -0.000175 0.001302 0.000000 -0.005814 0.000000
# 2 -0.000175 0.007707 -0.001096 0.000000 0.000341 0.000000
# 3 0.001302 -0.001096 0.008851 0.000000 -0.005326 0.000000
# 4 0.000000 0.000000 0.000000 0.061595 0.000000 0.009326
# 5 -0.005814 0.000341 -0.005326 0.000000 0.027502 0.000000
# 6 0.000000 0.000000 0.000000 0.009326 0.000000 0.026442
#
#
# Mechanical properties :
#
#
# Convention : Reuss Voigt Hill
#
# Bulk Modulus (GPa) = 24.51850 37.75784 31.13817
# Shear Modulus (GPa) = 29.44764 39.29971 34.37368
#
# Velocity S-wave (km/s) = 3.46660 4.00473 3.74534
# Velocity P-wave (km/s) = 5.10185 6.06568 5.60452
#
# Compressibility (1/GPa) = 0.04078553
#
# Stress axis : x y z
#
# Youngs Moduli (GPa) = 41.38356 129.74936 112.98299
#
# Poissons Ratio (x) = 0.02265 -0.14713
# Poissons Ratio (y) = 0.00722 0.12383
# Poissons Ratio (z) = -0.05389 0.14220
#
# Static dielectric constant tensor:
#      x y z
#    x 2.226560 0.000000 -0.113560 
#    y 0.000000 1.900830 0.000000 
#    z -0.113560 0.000000 1.918500 
# 
# From -- ./inp_files/170678.got.cif
#   From: 2010.05.17/outbox.cif.g08.bks.cpg/sg15_86_cif.got.tgz:170678.got - 2010.06.03 18:47:42.
