data_PCOD9284315
_publ_section_title
;
Structure prediction by ZEFSAII (Michael W. Deem and Ramdas Pophale) SiO2 
 PCOD9284315
Probable space group: C 2/C
;
_chemical_formula_sum "Si O2"
_cell_formula_units_Z 44
_cell_length_a 15.242143
_cell_length_b 10.250102
_cell_length_c 12.793166
_cell_angle_alpha 90.000000
_cell_angle_beta 63.938298
_cell_angle_gamma 90.000000
_cell_volume 1795.494256
_symmetry_space_group_name_H-M "C 2/C"
_symmetry_group_IT_number 15
_symmetry_cell_setting 'monoclinic'
loop_
_space_group_symop_operation_xyz
x,y,z
-x,y,1/2-z
-x,-y,-z
x,-y,1/2+z
1/2+x,1/2+y,z
1/2-x,1/2+y,1/2-z
1/2-x,1/2-y,-z
1/2+x,1/2-y,1/2+z
loop_
_atom_site_type_symbol
_atom_site_label
_atom_site_fract_x
_atom_site_fract_y
_atom_site_fract_z
Si Si1 0.200927 0.042914 0.607004
Si Si2 0.880308 0.844952 0.538268
Si Si3 0.137559 0.215483 0.052248
Si Si4 0.585407 0.391375 0.357822
Si Si5 0.500000 0.907688 0.250000
Si Si6 0.400616 0.049885 0.604090
O O1 0.209307 0.115176 0.490387
O O2 0.151101 0.129299 0.722830
O O3 0.303604 0.993400 0.601008
O O4 0.131500 0.919894 0.618914
O O5 0.882552 0.704510 0.590915
O O6 0.972067 0.855706 0.410398
O O7 0.898954 0.957855 0.613957
O O8 0.064779 0.318167 0.140243
O O9 0.250000 0.250000 0.000000
O O10 0.116693 0.189883 0.942462
O O11 0.578275 0.977619 0.284751
O O12 0.500000 0.000000 0.500000
#
# Coordination Sequence:
#
# PCOD9284315 Si02
#       6
#     8   8   8   8   4   8
#     4  11  24  39  70 100 133 173 224 274 342 390
#     4  10  22  43  67  96 137 168 224 278 332 390
#     4  11  23  41  69 101 134 176 229 278 328 409
#     4  10  21  40  69 101 128 171 228 279 323 397
#     4  12  24  46  72  90 136 186 226 272 334 400
#     4  12  26  47  64  98 139 180 217 275 341 407
#
# _framework density 24.505787999999999
#
# number of rings (size 3 to 8) (size 9 to 14) (size 15 to 20)
#    0.000    1.091    1.818    4.364    5.091    1.455 
#    3.273    0.000    0.000    0.000    0.000    0.000 
#    0.000    0.000    0.000    0.000    0.000    0.000 
#
# Total GULP energy -123065.504554 kJ/mol
# GULP energy per Si atom -5593.886571 kJ/mol
# Density = 2.445001 g / cm^3
# Si number density = 24.505788 Si / 1000 Ang^3
#
#
#
# Elastic Constant Matrix: (Units=GPa)
#
#
# Indices 1 2 3 4 5 6 
#
# 1 129.1703 -8.2327 32.1721 0.0000 36.6384 0.0000
# 2 -8.2327 34.4825 -2.2112 0.0000 9.8467 0.0000
# 3 32.1721 -2.2112 100.3471 0.0000 26.7811 0.0000
# 4 0.0000 0.0000 0.0000 25.3450 0.0000 -5.4935
# 5 36.6384 9.8467 26.7811 0.0000 48.0062 0.0000
# 6 0.0000 0.0000 0.0000 -5.4935 0.0000 34.2987
#
#
#
# Elastic Compliance Matrix: (Units=1/GPa)
#
#
# Indices 1 2 3 4 5 6 
#
# 1 0.010775 0.004983 -0.001031 0.000000 -0.008671 0.000000
# 2 0.004983 0.033782 0.002363 0.000000 -0.012050 0.000000
# 3 -0.001031 0.002363 0.012063 0.000000 -0.006428 0.000000
# 4 0.000000 0.000000 0.000000 0.040875 0.000000 0.006547
# 5 -0.008671 -0.012050 -0.006428 0.000000 0.033506 0.000000
# 6 0.000000 0.000000 0.000000 0.006547 0.000000 0.030204
#
#
# Mechanical properties :
#
#
# Convention : Reuss Voigt Hill
#
# Bulk Modulus (GPa) = 14.44031 34.16183 24.30107
# Shear Modulus (GPa) = 29.12737 37.68140 33.40439
#
# Velocity S-wave (km/s) = 3.45134 3.92555 3.69605
# Velocity P-wave (km/s) = 4.66773 5.87513 5.30588
#
# Compressibility (1/GPa) = 0.06925061
#
# Stress axis : x y z
#
# Youngs Moduli (GPa) = 92.80368 29.60124 82.89507
#
# Poissons Ratio (x) = -0.14749 0.08545
# Poissons Ratio (y) = -0.46240 -0.19588
# Poissons Ratio (z) = 0.09566 -0.06995
#
# Static dielectric constant tensor:
#      x y z
#    x 1.938620 0.000000 0.055040 
#    y 0.000000 2.060410 0.000000 
#    z 0.055040 0.000000 1.906840 
# 
# From -- ./inp_files/94971.got.cif
#   From: 2010.05.17/outbox.cif.g08.bks.cpg/sg15_48_cif.got.tgz:94971.got - 2010.06.03 18:47:42.
