data_PCOD9284239
_publ_section_title
;
Structure prediction by ZEFSAII (Michael W. Deem and Ramdas Pophale) SiO2 
 PCOD9284239
Probable space group: C 2/C
;
_chemical_formula_sum "Si O2"
_cell_formula_units_Z 60
_cell_length_a 20.503891
_cell_length_b 13.639131
_cell_length_c 10.748954
_cell_angle_alpha 90.000000
_cell_angle_beta 57.533861
_cell_angle_gamma 90.000000
_cell_volume 2536.190003
_symmetry_space_group_name_H-M "C 2/C"
_symmetry_group_IT_number 15
_symmetry_cell_setting 'monoclinic'
loop_
_space_group_symop_operation_xyz
x,y,z
-x,y,1/2-z
-x,-y,-z
x,-y,1/2+z
1/2+x,1/2+y,z
1/2-x,1/2+y,1/2-z
1/2-x,1/2-y,-z
1/2+x,1/2-y,1/2+z
loop_
_atom_site_type_symbol
_atom_site_label
_atom_site_fract_x
_atom_site_fract_y
_atom_site_fract_z
Si Si1 0.427755 0.132358 0.751715
Si Si2 0.658736 0.158834 0.076092
Si Si3 0.214634 0.842863 0.883307
Si Si4 0.950412 0.999725 0.679753
Si Si5 0.698190 0.200566 0.448728
Si Si6 0.070693 0.188204 0.406533
Si Si7 0.000000 0.448445 0.750000
Si Si8 0.606647 0.689091 0.840672
O O1 0.500000 0.182174 0.750000
O O2 0.403665 0.204998 0.667474
O O3 0.462245 0.024830 0.688637
O O4 0.360008 0.127508 0.921896
O O5 0.729228 0.103889 0.076050
O O6 0.576829 0.108687 0.124671
O O7 0.631447 0.233750 0.211865
O O8 0.703906 0.227285 0.931758
O O9 0.252454 0.851069 0.709151
O O10 0.124566 0.863967 0.954627
O O11 0.884651 0.079624 0.720624
O O12 0.000000 0.025076 0.750000
O O13 0.925141 0.886950 0.712947
O O14 0.000000 0.000000 0.500000
O O15 0.750000 0.250000 0.500000
O O16 0.649984 0.283039 0.422491
O O17 0.984733 0.201934 0.544252
#
# Coordination Sequence:
#
# PCOD9284239 Si02
#       8
#     8   8   8   8   8   8   4   8
#     4  10  21  40  68 102 131 175 240 282 357 413
#     4  10  22  44  62  95 142 174 236 281 363 429
#     4  10  23  39  65  92 129 185 214 282 360 426
#     4  10  24  37  61  99 130 168 228 290 351 424
#     4  11  21  41  66  93 134 179 229 291 354 424
#     4  11  20  40  66  94 133 174 228 294 359 429
#     4  10  22  42  74 100 134 190 232 310 330 432
#     4  10  22  39  67  95 127 178 234 286 358 437
#
# _framework density 23.657533999999998
#
# number of rings (size 3 to 8) (size 9 to 14) (size 15 to 20)
#    0.400    1.333    2.667    1.200    6.533    0.000 
#    2.400   14.667    0.000    0.000    0.000    0.000 
#    0.000    0.000    0.000    0.000    0.000    0.000 
#
# Total GULP energy -167137.640675 kJ/mol
# GULP energy per Si atom -5571.254689 kJ/mol
# Density = 2.360369 g / cm^3
# Si number density = 23.657534 Si / 1000 Ang^3
#
#
#
# Elastic Constant Matrix: (Units=GPa)
#
#
# Indices 1 2 3 4 5 6 
#
# 1 149.5437 23.1668 37.7909 0.0000 -11.5069 0.0000
# 2 23.1668 69.9005 16.5537 0.0000 -1.1358 0.0000
# 3 37.7909 16.5537 100.8798 0.0000 -10.4748 0.0000
# 4 0.0000 0.0000 0.0000 20.0787 0.0000 -0.4424
# 5 -11.5069 -1.1358 -10.4748 0.0000 38.8992 0.0000
# 6 0.0000 0.0000 0.0000 -0.4424 0.0000 22.7623
#
#
#
# Elastic Compliance Matrix: (Units=1/GPa)
#
#
# Indices 1 2 3 4 5 6 
#
# 1 0.007721 -0.001963 -0.002406 0.000000 0.001579 0.000000
# 2 -0.001963 0.015386 -0.001855 0.000000 -0.000631 0.000000
# 3 -0.002406 -0.001855 0.011357 0.000000 0.002292 0.000000
# 4 0.000000 0.000000 0.000000 0.049825 0.000000 0.000968
# 5 0.001579 -0.000631 0.002292 0.000000 0.026773 0.000000
# 6 0.000000 0.000000 0.000000 0.000968 0.000000 0.043951
#
#
# Mechanical properties :
#
#
# Convention : Reuss Voigt Hill
#
# Bulk Modulus (GPa) = 45.42474 52.81632 49.12053
# Shear Modulus (GPa) = 28.60425 32.53556 30.56990
#
# Velocity S-wave (km/s) = 3.48098 3.71249 3.59860
# Velocity P-wave (km/s) = 5.94970 6.38362 6.17048
#
# Compressibility (1/GPa) = 0.02201444
#
# Stress axis : x y z
#
# Youngs Moduli (GPa) = 129.52197 64.99530 88.05507
#
# Poissons Ratio (x) = 0.12761 0.21188
# Poissons Ratio (y) = 0.25430 0.16332
# Poissons Ratio (z) = 0.31165 0.12055
#
# Static dielectric constant tensor:
#      x y z
#    x 2.056670 0.000000 -0.023140 
#    y 0.000000 2.013850 0.000000 
#    z -0.023140 0.000000 1.904650 
# 
# From -- ./inp_files/112708.got.cif
#   From: 2010.05.17/outbox.cif.g08.bks.cpg/sg15_57_cif.got.tgz:112708.got - 2010.06.03 18:47:42.
