data_PCOD9284493
_publ_section_title
;
Structure prediction by ZEFSAII (Michael W. Deem and Ramdas Pophale) SiO2 
 PCOD9284493
Probable space group: C 2/C
;
_chemical_formula_sum "Si O2"
_cell_formula_units_Z 40
_cell_length_a 17.319583
_cell_length_b 25.948564
_cell_length_c 5.109576
_cell_angle_alpha 90.000000
_cell_angle_beta 57.541711
_cell_angle_gamma 90.000000
_cell_volume 1937.608684
_symmetry_space_group_name_H-M "C 2/C"
_symmetry_group_IT_number 15
_symmetry_cell_setting 'monoclinic'
loop_
_space_group_symop_operation_xyz
x,y,z
-x,y,1/2-z
-x,-y,-z
x,-y,1/2+z
1/2+x,1/2+y,z
1/2-x,1/2+y,1/2-z
1/2-x,1/2-y,-z
1/2+x,1/2-y,1/2+z
loop_
_atom_site_type_symbol
_atom_site_label
_atom_site_fract_x
_atom_site_fract_y
_atom_site_fract_z
Si Si1 0.797329 0.535389 0.625363
Si Si2 0.400721 0.276647 0.806350
Si Si3 0.652806 0.822125 0.809057
Si Si4 0.000000 0.536993 0.250000
Si Si5 0.500000 0.795870 0.750000
Si Si6 0.745480 0.360226 0.386448
O O1 0.789156 0.509587 0.356457
O O2 0.899324 0.561620 0.443540
O O3 0.729926 0.580871 0.832278
O O4 0.500000 0.288303 0.750000
O O5 0.424638 0.241951 0.511445
O O6 0.345759 0.236658 0.090025
O O7 0.342036 0.327194 0.866116
O O8 0.549493 0.828027 0.885618
O O9 0.716330 0.834226 0.447488
O O10 0.683280 0.856036 0.001522
O O11 0.000000 0.500000 0.500000
#
# Coordination Sequence:
#
# PCOD9284493 Si02
#       6
#     8   8   8   4   4   8
#     4  10  21  41  59  85 119 154 200 257 299 351
#     4  10  23  40  61  87 131 162 196 247 307 367
#     4  11  23  39  58  91 125 159 199 245 293 365
#     4   8  16  33  56  72 104 144 176 228 297 334
#     4  10  22  41  56  88 136 162 188 244 303 358
#     4  12  24  37  66  91 115 165 211 246 303 361
#
# _framework density 20.644005
#
# number of rings (size 3 to 8) (size 9 to 14) (size 15 to 20)
#    0.000    1.600    2.000    2.400    5.600    0.800 
#    0.000    4.000    0.000    1.200    0.000    0.000 
#    0.000    0.000    0.000    0.000    0.000    0.000 
#
# Total GULP energy -111632.962685 kJ/mol
# GULP energy per Si atom -5581.648134 kJ/mol
# Density = 2.059702 g / cm^3
# Si number density = 20.644005 Si / 1000 Ang^3
#
#
#
# Elastic Constant Matrix: (Units=GPa)
#
#
# Indices 1 2 3 4 5 6 
#
# 1 37.1782 19.5066 31.5111 0.0000 18.3643 0.0000
# 2 19.5066 70.2348 20.4867 0.0000 -10.1264 0.0000
# 3 31.5111 20.4867 95.3208 0.0000 24.1027 0.0000
# 4 0.0000 0.0000 0.0000 30.1247 0.0000 -1.6830
# 5 18.3643 -10.1264 24.1027 0.0000 30.1398 0.0000
# 6 0.0000 0.0000 0.0000 -1.6830 0.0000 11.9145
#
#
#
# Elastic Compliance Matrix: (Units=1/GPa)
#
#
# Indices 1 2 3 4 5 6 
#
# 1 0.064148 -0.022133 -0.005873 0.000000 -0.041825 0.000000
# 2 -0.022133 0.025466 -0.004675 0.000000 0.025781 0.000000
# 3 -0.005873 -0.004675 0.016207 0.000000 -0.010953 0.000000
# 4 0.000000 0.000000 0.000000 0.033459 0.000000 0.004726
# 5 -0.041825 0.025781 -0.010953 0.000000 0.076084 0.000000
# 6 0.000000 0.000000 0.000000 0.004726 0.000000 0.084599
#
#
# Mechanical properties :
#
#
# Convention : Reuss Voigt Hill
#
# Bulk Modulus (GPa) = 24.71748 38.41584 31.56666
# Shear Modulus (GPa) = 13.19912 23.18441 18.19177
#
# Velocity S-wave (km/s) = 2.53132 3.35484 2.97174
# Velocity P-wave (km/s) = 4.53240 5.80136 5.20569
#
# Compressibility (1/GPa) = 0.04045720
#
# Stress axis : x y z
#
# Youngs Moduli (GPa) = 15.58892 39.26803 61.70245
#
# Poissons Ratio (x) = 0.86913 0.36239
# Poissons Ratio (y) = 0.34504 0.28848
# Poissons Ratio (z) = 0.09156 0.18359
#
# Static dielectric constant tensor:
#      x y z
#    x 1.796360 0.000000 -0.003710 
#    y 0.000000 1.735290 0.000000 
#    z -0.003710 0.000000 1.756670 
# 
# From -- ./inp_files/7870.got.cif
#   From: 2010.05.17/outbox.cif.g08.bks.cpg/sg15_4_cif.got.tgz:7870.got - 2010.06.03 18:47:42.
