data_PCOD9284666
_publ_section_title
;
Structure prediction by ZEFSAII (Michael W. Deem and Ramdas Pophale) SiO2 
 PCOD9284666
Probable space group: C 2/C
;
_chemical_formula_sum "Si O2"
_cell_formula_units_Z 60
_cell_length_a 10.861558
_cell_length_b 14.926171
_cell_length_c 17.144614
_cell_angle_alpha 90.000000
_cell_angle_beta 107.537672
_cell_angle_gamma 90.000000
_cell_volume 2650.315737
_symmetry_space_group_name_H-M "C 2/C"
_symmetry_group_IT_number 15
_symmetry_cell_setting 'monoclinic'
loop_
_space_group_symop_operation_xyz
x,y,z
-x,y,1/2-z
-x,-y,-z
x,-y,1/2+z
1/2+x,1/2+y,z
1/2-x,1/2+y,1/2-z
1/2-x,1/2-y,-z
1/2+x,1/2-y,1/2+z
loop_
_atom_site_type_symbol
_atom_site_label
_atom_site_fract_x
_atom_site_fract_y
_atom_site_fract_z
Si Si1 0.361138 0.587544 0.944474
Si Si2 0.197022 0.285541 0.320930
Si Si3 0.000000 0.560032 0.750000
Si Si4 0.780726 0.808896 0.823294
Si Si5 0.308055 0.175410 0.953156
Si Si6 0.436170 0.430328 0.157906
Si Si7 0.454273 0.378615 0.634956
Si Si8 0.129952 0.557546 0.399676
O O1 0.287468 0.676678 0.904632
O O2 0.461294 0.569510 0.893698
O O3 0.255058 0.508165 0.933329
O O4 0.429724 0.608001 0.038589
O O5 0.269808 0.239349 0.263130
O O6 0.104124 0.211536 0.340699
O O7 0.120877 0.371904 0.272437
O O8 0.022421 0.499211 0.831741
O O9 0.857739 0.735787 0.891346
O O10 0.674496 0.862305 0.850954
O O11 0.893174 0.877039 0.821784
O O12 0.187121 0.124002 0.893241
O O13 0.250000 0.250000 0.000000
O O14 0.392845 0.106398 0.021044
O O15 0.500000 0.396765 0.250000
O O16 0.394792 0.533060 0.161999
#
# Coordination Sequence:
#
# PCOD9284666 Si02
#       8
#     8   8   4   8   8   8   8   8
#     4  11  22  39  65  89 125 165 207 255 314 370
#     4  11  23  42  62  89 125 165 206 257 308 370
#     4  10  22  42  64  82 128 168 204 246 310 370
#     4  11  21  41  63  90 125 161 204 259 313 362
#     4  10  22  41  62  89 130 163 201 257 317 368
#     4  12  23  39  66  99 122 161 215 261 306 372
#     4  12  22  40  65  92 123 164 208 259 314 370
#     4  10  21  41  63  89 124 168 205 253 312 373
#
# _framework density 22.638812000000001
#
# number of rings (size 3 to 8) (size 9 to 14) (size 15 to 20)
#    0.000    1.067    4.000    4.000    0.000    0.000 
#   12.000    0.667    0.000    0.000    0.000    0.000 
#    0.000    0.000    0.000    0.000    0.000    0.000 
#
# Total GULP energy -167608.576791 kJ/mol
# GULP energy per Si atom -5586.952560 kJ/mol
# Density = 2.258728 g / cm^3
# Si number density = 22.638812 Si / 1000 Ang^3
#
#
#
# Elastic Constant Matrix: (Units=GPa)
#
#
# Indices 1 2 3 4 5 6 
#
# 1 19.2179 12.5497 8.1775 0.0000 -1.0423 0.0000
# 2 12.5497 94.5501 32.9813 0.0000 1.6309 0.0000
# 3 8.1775 32.9813 132.9026 0.0000 -2.6554 0.0000
# 4 0.0000 0.0000 0.0000 48.2372 0.0000 2.7569
# 5 -1.0423 1.6309 -2.6554 0.0000 31.5700 0.0000
# 6 0.0000 0.0000 0.0000 2.7569 0.0000 19.7929
#
#
#
# Elastic Compliance Matrix: (Units=1/GPa)
#
#
# Indices 1 2 3 4 5 6 
#
# 1 0.057502 -0.007061 -0.001744 0.000000 0.002117 0.000000
# 2 -0.007061 0.012468 -0.002682 0.000000 -0.001103 0.000000
# 3 -0.001744 -0.002682 0.008313 0.000000 0.000780 0.000000
# 4 0.000000 0.000000 0.000000 0.020897 0.000000 -0.002911
# 5 0.002117 -0.001103 0.000780 0.000000 0.031868 0.000000
# 6 0.000000 0.000000 0.000000 -0.002911 0.000000 0.050929
#
#
# Mechanical properties :
#
#
# Convention : Reuss Voigt Hill
#
# Bulk Modulus (GPa) = 18.07956 39.34307 28.71132
# Shear Modulus (GPa) = 22.38279 32.78416 27.58348
#
# Velocity S-wave (km/s) = 3.14776 3.80957 3.49437
# Velocity P-wave (km/s) = 4.60593 6.06356 5.38430
#
# Compressibility (1/GPa) = 0.05531107
#
# Stress axis : x y z
#
# Youngs Moduli (GPa) = 17.39062 80.20518 120.29833
#
# Poissons Ratio (x) = 0.56630 0.20976
# Poissons Ratio (y) = 0.12279 0.32260
# Poissons Ratio (z) = 0.03032 0.21508
#
# Static dielectric constant tensor:
#      x y z
#    x 1.813920 0.000000 -0.007410 
#    y 0.000000 1.879930 0.000000 
#    z -0.007410 0.000000 1.859470 
# 
# From -- ./inp_files/198371.got.cif
#   From: 2010.05.17/outbox.cif.g08.bks.cpg/sg15_100_cif.got.tgz:198371.got - 2010.06.03 18:47:42.
