data_PCOD9284147
_publ_section_title
;
Structure prediction by ZEFSAII (Michael W. Deem and Ramdas Pophale) SiO2 
 PCOD9284147
Probable space group: C 2/C
;
_chemical_formula_sum "Si O2"
_cell_formula_units_Z 36
_cell_length_a 15.555107
_cell_length_b 7.405071
_cell_length_c 18.611738
_cell_angle_alpha 90.000000
_cell_angle_beta 130.955557
_cell_angle_gamma 90.000000
_cell_volume 1619.055112
_symmetry_space_group_name_H-M "C 2/C"
_symmetry_group_IT_number 15
_symmetry_cell_setting 'monoclinic'
loop_
_space_group_symop_operation_xyz
x,y,z
-x,y,1/2-z
-x,-y,-z
x,-y,1/2+z
1/2+x,1/2+y,z
1/2-x,1/2+y,1/2-z
1/2-x,1/2-y,-z
1/2+x,1/2-y,1/2+z
loop_
_atom_site_type_symbol
_atom_site_label
_atom_site_fract_x
_atom_site_fract_y
_atom_site_fract_z
Si Si1 0.000000 0.819465 0.750000
Si Si2 0.752489 0.682698 0.583221
Si Si3 0.534140 0.296620 0.046387
Si Si4 0.424120 0.342182 0.268731
Si Si5 0.782113 0.241830 0.433248
O O1 0.119963 0.722547 0.819444
O O2 0.012267 0.963853 0.691687
O O3 0.750000 0.750000 0.500000
O O4 0.639426 0.768951 0.556410
O O5 0.735877 0.470858 0.590121
O O6 0.580143 0.278980 0.153138
O O7 0.500000 0.500000 0.000000
O O8 0.410529 0.204852 0.984206
O O9 0.500000 0.237817 0.250000
O O10 0.303757 0.353645 0.163555
O O11 0.750000 0.250000 0.500000
#
# Coordination Sequence:
#
# PCOD9284147 Si02
#       5
#     4   8   8   8   8
#     4  10  22  40  60  86 132 158 206 264 318 364
#     4  11  24  40  62  93 129 165 206 267 327 371
#     4  10  22  40  65  95 128 167 214 265 324 384
#     4  10  21  40  67  90 126 171 215 260 321 377
#     4  11  21  41  69  90 127 170 215 262 319 392
#
# _framework density 22.235189999999999
#
# number of rings (size 3 to 8) (size 9 to 14) (size 15 to 20)
#    0.667    0.889    2.222    4.000    1.556    5.333 
#    0.000    4.444    0.000    0.000    0.000    0.000 
#    0.000    0.000    0.000    0.000    0.000    0.000 
#
# Total GULP energy -100259.542108 kJ/mol
# GULP energy per Si atom -5569.974562 kJ/mol
# Density = 2.218458 g / cm^3
# Si number density = 22.235190 Si / 1000 Ang^3
#
#
#
# Elastic Constant Matrix: (Units=GPa)
#
#
# Indices 1 2 3 4 5 6 
#
# 1 243.3248 18.1115 100.3782 0.0000 27.8278 0.0000
# 2 18.1115 53.2348 -0.0749 0.0000 14.8192 0.0000
# 3 100.3782 -0.0749 125.7428 0.0000 15.9117 0.0000
# 4 0.0000 0.0000 0.0000 25.4685 0.0000 8.1682
# 5 27.8278 14.8192 15.9117 0.0000 55.0181 0.0000
# 6 0.0000 0.0000 0.0000 8.1682 0.0000 26.5885
#
#
#
# Elastic Compliance Matrix: (Units=1/GPa)
#
#
# Indices 1 2 3 4 5 6 
#
# 1 0.006455 -0.001833 -0.004986 0.000000 -0.001329 0.000000
# 2 -0.001833 0.020893 0.002149 0.000000 -0.005322 0.000000
# 3 -0.004986 0.002149 0.012132 0.000000 -0.001566 0.000000
# 4 0.000000 0.000000 0.000000 0.043556 0.000000 -0.013381
# 5 -0.001329 -0.005322 -0.001566 0.000000 0.020734 0.000000
# 6 0.000000 0.000000 0.000000 -0.013381 0.000000 0.041721
#
#
# Mechanical properties :
#
#
# Convention : Reuss Voigt Hill
#
# Bulk Modulus (GPa) = 33.17771 73.23689 53.20730
# Shear Modulus (GPa) = 30.32562 41.67419 35.99990
#
# Velocity S-wave (km/s) = 3.69705 4.33395 4.02811
# Velocity P-wave (km/s) = 5.76003 7.61926 6.75392
#
# Compressibility (1/GPa) = 0.03014072
#
# Stress axis : x y z
#
# Youngs Moduli (GPa) = 154.91963 47.86326 82.42517
#
# Poissons Ratio (x) = 0.08774 0.41095
# Poissons Ratio (y) = 0.28398 -0.17715
# Poissons Ratio (z) = 0.77239 -0.10287
#
# Static dielectric constant tensor:
#      x y z
#    x 1.800400 0.000000 0.117410 
#    y 0.000000 1.912840 0.000000 
#    z 0.117410 0.000000 1.707980 
# 
# From -- ./inp_files/150159.got.cif
#   From: 2010.05.17/outbox.cif.g08.bks.cpg/sg15_76_cif.got.tgz:150159.got - 2010.06.03 18:47:42.
