data_PCOD9284511
_publ_section_title
;
Structure prediction by ZEFSAII (Michael W. Deem and Ramdas Pophale) SiO2 
 PCOD9284511
Probable space group: C 2/C
;
_chemical_formula_sum "Si O2"
_cell_formula_units_Z 40
_cell_length_a 18.123792
_cell_length_b 9.145017
_cell_length_c 11.134312
_cell_angle_alpha 90.000000
_cell_angle_beta 99.468646
_cell_angle_gamma 90.000000
_cell_volume 1820.284914
_symmetry_space_group_name_H-M "C 2/C"
_symmetry_group_IT_number 15
_symmetry_cell_setting 'monoclinic'
loop_
_space_group_symop_operation_xyz
x,y,z
-x,y,1/2-z
-x,-y,-z
x,-y,1/2+z
1/2+x,1/2+y,z
1/2-x,1/2+y,1/2-z
1/2-x,1/2-y,-z
1/2+x,1/2-y,1/2+z
loop_
_atom_site_type_symbol
_atom_site_label
_atom_site_fract_x
_atom_site_fract_y
_atom_site_fract_z
Si Si1 0.699426 0.713295 0.669955
Si Si2 0.313692 0.959402 0.032039
Si Si3 0.186080 0.759584 0.601494
Si Si4 0.588658 0.534747 0.515162
Si Si5 0.084806 0.272094 0.309154
O O1 0.697687 0.856972 0.587125
O O2 0.755058 0.599879 0.615623
O O3 0.734639 0.760154 0.805247
O O4 0.619795 0.631042 0.636701
O O5 0.308477 0.122621 0.985228
O O6 0.393037 0.916229 0.110672
O O7 0.142442 0.893378 0.526265
O O8 0.131467 0.732440 0.700184
O O9 0.500000 0.500000 0.500000
O O10 0.602804 0.636039 0.402111
O O11 0.000000 0.266014 0.250000
#
# Coordination Sequence:
#
# PCOD9284511 Si02
#       5
#     8   8   8   8   8
#     4   9  20  39  62  91 130 160 211 261 325 389
#     4   9  20  38  62  93 120 166 212 263 317 392
#     4  11  21  39  66  91 123 170 212 264 326 382
#     4  11  22  39  65  96 128 173 215 265 327 391
#     4  10  21  41  60  88 130 168 209 268 325 382
#
# _framework density 21.974582999999999
#
# number of rings (size 3 to 8) (size 9 to 14) (size 15 to 20)
#    0.000    2.000    2.000    2.400    0.000    1.600 
#    0.000    9.000    0.000    0.000    0.000    0.000 
#    0.000    0.000    0.000    0.000    0.000    0.000 
#
# Total GULP energy -111662.806272 kJ/mol
# GULP energy per Si atom -5583.140314 kJ/mol
# Density = 2.192457 g / cm^3
# Si number density = 21.974583 Si / 1000 Ang^3
#
#
#
# Elastic Constant Matrix: (Units=GPa)
#
#
# Indices 1 2 3 4 5 6 
#
# 1 95.3085 37.1736 60.7229 0.0000 28.1435 0.0000
# 2 37.1736 89.9099 59.8905 0.0000 28.5908 0.0000
# 3 60.7229 59.8905 145.1033 0.0000 25.8967 0.0000
# 4 0.0000 0.0000 0.0000 17.3874 0.0000 -0.6808
# 5 28.1435 28.5908 25.8967 0.0000 48.4788 0.0000
# 6 0.0000 0.0000 0.0000 -0.6808 0.0000 16.7108
#
#
#
# Elastic Compliance Matrix: (Units=1/GPa)
#
#
# Indices 1 2 3 4 5 6 
#
# 1 0.015967 -0.001392 -0.005084 0.000000 -0.005733 0.000000
# 2 -0.001392 0.017398 -0.005429 0.000000 -0.006552 0.000000
# 3 -0.005084 -0.005429 0.011233 0.000000 0.000153 0.000000
# 4 0.000000 0.000000 0.000000 0.057605 0.000000 0.002347
# 5 -0.005733 -0.006552 0.000153 0.000000 0.027738 0.000000
# 6 0.000000 0.000000 0.000000 0.002347 0.000000 0.059937
#
#
# Mechanical properties :
#
#
# Convention : Reuss Voigt Hill
#
# Bulk Modulus (GPa) = 48.10649 71.76618 59.93634
# Shear Modulus (GPa) = 22.66367 28.01771 25.34069
#
# Velocity S-wave (km/s) = 3.21496 3.57460 3.39954
# Velocity P-wave (km/s) = 5.97668 7.05454 6.53786
#
# Compressibility (1/GPa) = 0.02078722
#
# Stress axis : x y z
#
# Youngs Moduli (GPa) = 62.62809 57.47920 89.02532
#
# Poissons Ratio (x) = 0.08001 0.45263
# Poissons Ratio (y) = 0.08718 0.48330
# Poissons Ratio (z) = 0.31842 0.31204
#
# Static dielectric constant tensor:
#      x y z
#    x 1.841400 0.000000 0.015880 
#    y 0.000000 1.856850 0.000000 
#    z 0.015880 0.000000 1.796280 
# 
# From -- ./inp_files/109536.got.cif
#   From: 2010.05.17/outbox.cif.g08.bks.cpg/sg15_55_cif.got.tgz:109536.got - 2010.06.03 18:47:42.
