data_PCOD9284651
_publ_section_title
;
Structure prediction by ZEFSAII (Michael W. Deem and Ramdas Pophale) SiO2 
 PCOD9284651
Probable space group: C 2/C
;
_chemical_formula_sum "Si O2"
_cell_formula_units_Z 48
_cell_length_a 17.606966
_cell_length_b 5.013922
_cell_length_c 24.957597
_cell_angle_alpha 90.000000
_cell_angle_beta 113.599404
_cell_angle_gamma 90.000000
_cell_volume 2018.990417
_symmetry_space_group_name_H-M "C 2/C"
_symmetry_group_IT_number 15
_symmetry_cell_setting 'monoclinic'
loop_
_space_group_symop_operation_xyz
x,y,z
-x,y,1/2-z
-x,-y,-z
x,-y,1/2+z
1/2+x,1/2+y,z
1/2-x,1/2+y,1/2-z
1/2-x,1/2-y,-z
1/2+x,1/2-y,1/2+z
loop_
_atom_site_type_symbol
_atom_site_label
_atom_site_fract_x
_atom_site_fract_y
_atom_site_fract_z
Si Si1 0.603868 0.274918 0.928342
Si Si2 0.367550 0.754699 0.702123
Si Si3 0.517005 0.656979 0.668045
Si Si4 0.904187 0.359508 0.912759
Si Si5 0.719837 0.752951 0.359973
Si Si6 0.420401 0.750118 0.505487
O O1 0.523917 0.400779 0.873591
O O2 0.675386 0.229090 0.905027
O O3 0.623599 0.507738 0.976925
O O4 0.591673 0.005301 0.958036
O O5 0.437455 0.781674 0.675498
O O6 0.415702 0.628609 0.766047
O O7 0.299127 0.544569 0.664954
O O8 0.324233 0.040271 0.692820
O O9 0.562318 0.844134 0.637971
O O10 0.817343 0.211680 0.890724
O O11 0.979724 0.218585 0.965455
O O12 0.894447 0.642263 0.940048
#
# Coordination Sequence:
#
# PCOD9284651 Si02
#       6
#     8   8   8   8   8   8
#     4  10  21  41  63  87 120 159 201 241 291 359
#     4  10  23  41  62  87 117 160 200 237 298 362
#     4   9  21  41  64  85 119 160 198 241 294 361
#     4  10  23  39  61  90 122 155 198 252 297 345
#     4  11  23  38  60  91 121 152 199 251 295 344
#     4  10  23  41  62  87 119 163 202 236 297 362
#
# _framework density 23.774256000000001
#
# number of rings (size 3 to 8) (size 9 to 14) (size 15 to 20)
#    0.000    2.000    0.000    3.000    0.000   20.667 
#    0.000    0.000    0.000    0.000    0.000    0.000 
#    0.000    0.000    0.000    0.000    0.000    0.000 
#
# Total GULP energy -134148.634629 kJ/mol
# GULP energy per Si atom -5589.526443 kJ/mol
# Density = 2.372014 g / cm^3
# Si number density = 23.774256 Si / 1000 Ang^3
#
#
#
# Elastic Constant Matrix: (Units=GPa)
#
#
# Indices 1 2 3 4 5 6 
#
# 1 59.9541 45.2843 51.7582 0.0003 4.5295 -0.0006
# 2 45.2843 92.8928 27.7611 0.0004 3.3277 -0.0010
# 3 51.7582 27.7611 94.6032 0.0000 -10.3997 -0.0001
# 4 0.0003 0.0004 0.0000 31.7499 0.0000 0.8882
# 5 4.5295 3.3277 -10.3997 0.0000 36.7938 0.0001
# 6 -0.0006 -0.0010 -0.0001 0.8882 0.0001 9.2824
#
#
#
# Elastic Compliance Matrix: (Units=1/GPa)
#
#
# Indices 1 2 3 4 5 6 
#
# 1 0.052219 -0.017656 -0.024687 0.000000 -0.011809 0.000001
# 2 -0.017656 0.017930 0.004602 0.000000 0.001852 0.000001
# 3 -0.024687 0.004602 0.023753 0.000000 0.009337 -0.000001
# 4 0.000000 0.000000 0.000000 0.031581 0.000000 -0.003022
# 5 -0.011809 0.001852 0.009337 0.000000 0.031104 -0.000001
# 6 0.000001 0.000001 -0.000001 -0.003022 -0.000001 0.108020
#
#
# Mechanical properties :
#
#
# Convention : Reuss Voigt Hill
#
# Bulk Modulus (GPa) = 54.28635 55.22859 54.75747
# Shear Modulus (GPa) = 14.44129 23.74165 19.09147
#
# Velocity S-wave (km/s) = 2.46729 3.16354 2.83685
# Velocity P-wave (km/s) = 5.56780 6.05184 5.81486
#
# Compressibility (1/GPa) = 0.01842084
#
# Stress axis : x y z
#
# Youngs Moduli (GPa) = 19.15003 55.77090 42.10015
#
# Poissons Ratio (x) = 0.98467 1.03932
# Poissons Ratio (y) = 0.33811 -0.19372
# Poissons Ratio (z) = 0.47275 -0.25663
#
# Static dielectric constant tensor:
#      x y z
#    x 1.878370 0.000000 -0.025150 
#    y 0.000000 1.952090 0.000000 
#    z -0.025150 0.000000 1.931280 
# 
# From -- ./inp_files/297543.got.cif
#   From: 2010.05.17/outbox.cif.g08.bks.cpg/sg15_149_cif.got.tgz:297543.got - 2010.06.03 18:47:42.
