data_PCOD9284209
_publ_section_title
;
Structure prediction by ZEFSAII (Michael W. Deem and Ramdas Pophale) SiO2 
 PCOD9284209
Probable space group: C 2/C
;
_chemical_formula_sum "Si O2"
_cell_formula_units_Z 28
_cell_length_a 7.424495
_cell_length_b 15.769766
_cell_length_c 14.135584
_cell_angle_alpha 90.000000
_cell_angle_beta 49.929487
_cell_angle_gamma 90.000000
_cell_volume 1266.516489
_symmetry_space_group_name_H-M "C 2/C"
_symmetry_group_IT_number 15
_symmetry_cell_setting 'monoclinic'
loop_
_space_group_symop_operation_xyz
x,y,z
-x,y,1/2-z
-x,-y,-z
x,-y,1/2+z
1/2+x,1/2+y,z
1/2-x,1/2+y,1/2-z
1/2-x,1/2-y,-z
1/2+x,1/2-y,1/2+z
loop_
_atom_site_type_symbol
_atom_site_label
_atom_site_fract_x
_atom_site_fract_y
_atom_site_fract_z
Si Si1 0.805312 0.904237 0.682808
Si Si2 0.000000 0.443237 0.250000
Si Si3 0.309466 0.849592 0.492122
Si Si4 0.393641 0.164604 0.433909
O O1 0.766825 0.890184 0.582694
O O2 0.643029 0.834525 0.791636
O O3 0.076449 0.893957 0.612000
O O4 0.684117 0.994411 0.740904
O O5 0.868892 0.387203 0.370730
O O6 0.250000 0.750000 0.500000
O O7 0.524157 0.865501 0.491170
O O8 0.250000 0.250000 0.500000
#
# Coordination Sequence:
#
# PCOD9284209 Si02
#       4
#     8   4   8   8
#     4  10  24  44  64  96 143 170 226 280 332 406
#     4  10  26  44  66 100 140 180 222 286 340 400
#     4  12  24  40  72  98 132 179 230 275 339 400
#     4  10  21  40  67  97 131 174 221 278 334 391
#
# _framework density 22.107883999999999
#
# number of rings (size 3 to 8) (size 9 to 14) (size 15 to 20)
#    0.000    1.714    2.857    1.714    4.000    4.571 
#    0.000    5.714    0.000    0.000    0.000    0.000 
#    0.000    0.000    0.000    0.000    0.000    0.000 
#
# Total GULP energy -78161.998613 kJ/mol
# GULP energy per Si atom -5582.999901 kJ/mol
# Density = 2.205757 g / cm^3
# Si number density = 22.107884 Si / 1000 Ang^3
#
#
#
# Elastic Constant Matrix: (Units=GPa)
#
#
# Indices 1 2 3 4 5 6 
#
# 1 85.2629 6.8107 15.4448 0.0000 -11.1280 0.0000
# 2 6.8107 102.6426 59.1677 0.0000 -12.8965 0.0000
# 3 15.4448 59.1677 125.8617 0.0000 -11.5296 0.0000
# 4 0.0000 0.0000 0.0000 50.1654 0.0000 -1.5217
# 5 -11.1280 -12.8965 -11.5296 0.0000 32.1386 0.0000
# 6 0.0000 0.0000 0.0000 -1.5217 0.0000 21.4499
#
#
#
# Elastic Compliance Matrix: (Units=1/GPa)
#
#
# Indices 1 2 3 4 5 6 
#
# 1 0.012465 0.000476 -0.001386 0.000000 0.004010 0.000000
# 2 0.000476 0.013711 -0.006188 0.000000 0.003447 0.000000
# 3 -0.001386 -0.006188 0.011118 0.000000 0.001026 0.000000
# 4 0.000000 0.000000 0.000000 0.019977 0.000000 0.001417
# 5 0.004010 0.003447 0.001026 0.000000 0.034254 0.000000
# 6 0.000000 0.000000 0.000000 0.001417 0.000000 0.046721
#
#
# Mechanical properties :
#
#
# Convention : Reuss Voigt Hill
#
# Bulk Modulus (GPa) = 43.29522 52.95706 48.12614
# Shear Modulus (GPa) = 31.22211 36.24039 33.73125
#
# Velocity S-wave (km/s) = 3.76208 4.05316 3.91033
# Velocity P-wave (km/s) = 6.20461 6.77570 6.49643
#
# Compressibility (1/GPa) = 0.02309724
#
# Stress axis : x y z
#
# Youngs Moduli (GPa) = 80.22601 72.93287 89.94132
#
# Poissons Ratio (x) = -0.03468 0.12465
# Poissons Ratio (y) = -0.03815 0.55658
# Poissons Ratio (z) = 0.11118 0.45133
#
# Static dielectric constant tensor:
#      x y z
#    x 1.870410 0.000000 -0.000610 
#    y 0.000000 1.810030 0.000000 
#    z -0.000610 0.000000 1.813790 
# 
# From -- ./inp_files/75449.got.cif
#   From: 2010.05.17/outbox.cif.g08.bks.cpg/sg15_38_cif.got.tgz:75449.got - 2010.06.03 18:47:42.
