data_PCOD9284954
_publ_section_title
;
Structure prediction by ZEFSAII (Michael W. Deem and Ramdas Pophale) SiO2 
 PCOD9284954
Probable space group: C 2/C
;
_chemical_formula_sum "Si O2"
_cell_formula_units_Z 52
_cell_length_a 16.771533
_cell_length_b 8.587401
_cell_length_c 23.075091
_cell_angle_alpha 90.000000
_cell_angle_beta 142.597334
_cell_angle_gamma 90.000000
_cell_volume 2018.653917
_symmetry_space_group_name_H-M "C 2/C"
_symmetry_group_IT_number 15
_symmetry_cell_setting 'monoclinic'
loop_
_space_group_symop_operation_xyz
x,y,z
-x,y,1/2-z
-x,-y,-z
x,-y,1/2+z
1/2+x,1/2+y,z
1/2-x,1/2+y,1/2-z
1/2-x,1/2-y,-z
1/2+x,1/2-y,1/2+z
loop_
_atom_site_type_symbol
_atom_site_label
_atom_site_fract_x
_atom_site_fract_y
_atom_site_fract_z
Si Si1 0.389175 0.363755 0.293622
Si Si2 0.333628 0.346259 0.998518
Si Si3 0.152026 0.640889 0.054650
Si Si4 0.924168 0.820916 0.760969
Si Si5 0.139107 0.559872 0.913998
Si Si6 0.862826 0.305626 0.394925
Si Si7 0.500000 0.810301 0.750000
O O1 0.512269 0.312592 0.402351
O O2 0.398283 0.548965 0.293867
O O3 0.241909 0.301475 0.218402
O O4 0.421161 0.298532 0.248215
O O5 0.250000 0.250000 0.000000
O O6 0.290500 0.526638 0.982111
O O7 0.315295 0.293745 0.922281
O O8 0.282994 0.728708 0.152311
O O9 0.141513 0.488642 0.089709
O O10 0.161052 0.567877 0.995612
O O11 0.015126 0.731754 0.974792
O O12 0.000000 0.896500 0.750000
O O13 0.029106 0.691629 0.840216
O O14 0.076405 0.422872 0.838448
#
# Coordination Sequence:
#
# PCOD9284954 Si02
#       7
#     8   8   8   8   8   8   4
#     4  11  21  38  66  97 136 180 236 291 357 421
#     4  12  21  37  69 103 131 181 242 302 350 418
#     4  10  23  42  66  96 147 196 227 289 385 432
#     4  11  24  41  64  97 142 184 229 295 361 435
#     4  12  24  41  66 106 137 177 240 302 353 426
#     4  10  21  41  66 100 138 189 242 292 357 446
#     4  12  20  38  68 104 136 164 244 312 338 410
#
# _framework density 25.759740000000001
#
# number of rings (size 3 to 8) (size 9 to 14) (size 15 to 20)
#    0.000    0.923    6.154    0.923    0.000    3.692 
#    0.000    1.538    0.000    4.615    0.000    0.000 
#    0.000    0.000    0.000    0.000    0.000    0.000 
#
# Total GULP energy -144984.937008 kJ/mol
# GULP energy per Si atom -5576.343731 kJ/mol
# Density = 2.570111 g / cm^3
# Si number density = 25.759740 Si / 1000 Ang^3
#
#
#
# Elastic Constant Matrix: (Units=GPa)
#
#
# Indices 1 2 3 4 5 6 
#
# 1 48.9228 24.3756 29.4920 0.0000 12.6121 0.0000
# 2 24.3756 67.5101 31.2830 0.0000 5.7753 0.0000
# 3 29.4920 31.2830 219.0789 0.0000 16.4135 0.0000
# 4 0.0000 0.0000 0.0000 40.7064 0.0000 1.2453
# 5 12.6121 5.7753 16.4135 0.0000 40.5255 0.0000
# 6 0.0000 0.0000 0.0000 1.2453 0.0000 27.6079
#
#
#
# Elastic Compliance Matrix: (Units=1/GPa)
#
#
# Indices 1 2 3 4 5 6 
#
# 1 0.027556 -0.008457 -0.002011 0.000000 -0.006556 0.000000
# 2 -0.008457 0.018533 -0.001554 0.000000 0.000620 0.000000
# 3 -0.002011 -0.001554 0.005150 0.000000 -0.001239 0.000000
# 4 0.000000 0.000000 0.000000 0.024600 0.000000 -0.001110
# 5 -0.006556 0.000620 -0.001239 0.000000 0.027129 0.000000
# 6 0.000000 0.000000 0.000000 -0.001110 0.000000 0.036272
#
#
# Mechanical properties :
#
#
# Convention : Reuss Voigt Hill
#
# Bulk Modulus (GPa) = 36.77113 56.20145 46.48629
# Shear Modulus (GPa) = 29.01061 38.45868 33.73465
#
# Velocity S-wave (km/s) = 3.35953 3.86810 3.62275
# Velocity P-wave (km/s) = 5.41795 6.46641 5.96526
#
# Compressibility (1/GPa) = 0.02719525
#
# Stress axis : x y z
#
# Youngs Moduli (GPa) = 36.28919 53.95661 194.17438
#
# Poissons Ratio (x) = 0.45631 0.39044
# Poissons Ratio (y) = 0.30690 0.30183
# Poissons Ratio (z) = 0.07297 0.08387
#
# Static dielectric constant tensor:
#      x y z
#    x 2.022630 0.000000 0.059320 
#    y 0.000000 2.060560 0.000000 
#    z 0.059320 0.000000 2.170430 
# 
# From -- ./inp_files/299041.got.cif
#   From: 2010.05.17/outbox.cif.g08.bks.cpg/sg15_150_cif.got.tgz:299041.got - 2010.06.03 18:47:42.
