data_PCOD9284862
_publ_section_title
;
Structure prediction by ZEFSAII (Michael W. Deem and Ramdas Pophale) SiO2 
 PCOD9284862
Probable space group: C 2/C
;
_chemical_formula_sum "Si O2"
_cell_formula_units_Z 44
_cell_length_a 14.248803
_cell_length_b 19.805196
_cell_length_c 12.012679
_cell_angle_alpha 90.000000
_cell_angle_beta 149.311553
_cell_angle_gamma 90.000000
_cell_volume 1730.143542
_symmetry_space_group_name_H-M "C 2/C"
_symmetry_group_IT_number 15
_symmetry_cell_setting 'monoclinic'
loop_
_space_group_symop_operation_xyz
x,y,z
-x,y,1/2-z
-x,-y,-z
x,-y,1/2+z
1/2+x,1/2+y,z
1/2-x,1/2+y,1/2-z
1/2-x,1/2-y,-z
1/2+x,1/2-y,1/2+z
loop_
_atom_site_type_symbol
_atom_site_label
_atom_site_fract_x
_atom_site_fract_y
_atom_site_fract_z
Si Si1 0.292262 0.802507 0.695732
Si Si2 0.248108 0.352595 0.607574
Si Si3 0.696481 0.151711 0.579655
Si Si4 0.675448 0.379057 0.047340
Si Si5 0.967466 0.522103 0.837434
Si Si6 0.500000 0.378435 0.250000
O O1 0.288909 0.803343 0.826896
O O2 0.277848 0.726250 0.638418
O O3 0.119641 0.841966 0.469350
O O4 0.477465 0.840085 0.845549
O O5 0.252754 0.333062 0.482097
O O6 0.102123 0.412893 0.467916
O O7 0.457601 0.377866 0.835218
O O8 0.733225 0.142427 0.746126
O O9 0.823893 0.097880 0.644365
O O10 0.755923 0.453907 0.112061
O O11 0.000000 0.485784 0.750000
O O12 0.000000 0.500000 0.000000
#
# Coordination Sequence:
#
# PCOD9284862 Si02
#       6
#     8   8   8   8   8   4
#     4  12  23  37  59  87 122 167 209 251 304 365
#     4  10  21  41  65  89 123 160 199 255 313 364
#     4  12  23  37  59  87 122 167 209 251 304 365
#     4  10  21  41  65  89 123 160 199 255 313 364
#     4  10  22  43  66  93 125 161 206 257 318 370
#     4  12  24  38  52  84 124 168 210 248 302 350
#
# _framework density 25.431415999999999
#
# number of rings (size 3 to 8) (size 9 to 14) (size 15 to 20)
#    0.000    1.091    5.455    1.091    0.000    1.455 
#    3.273    0.000    0.000    0.000    0.000    0.000 
#    0.000    0.000    0.000    0.000    0.000    0.000 
#
# Total GULP energy -122660.592367 kJ/mol
# GULP energy per Si atom -5575.481471 kJ/mol
# Density = 2.537353 g / cm^3
# Si number density = 25.431416 Si / 1000 Ang^3
#
#
#
# Elastic Constant Matrix: (Units=GPa)
#
#
# Indices 1 2 3 4 5 6 
#
# 1 188.4120 22.6516 50.9591 0.0000 -9.1624 0.0000
# 2 22.6516 29.4348 18.6888 0.0000 0.9612 0.0000
# 3 50.9591 18.6888 100.9788 0.0000 20.4386 0.0000
# 4 0.0000 0.0000 0.0000 36.8423 0.0000 -12.0151
# 5 -9.1624 0.9612 20.4386 0.0000 69.8493 0.0000
# 6 0.0000 0.0000 0.0000 -12.0151 0.0000 26.4157
#
#
#
# Elastic Compliance Matrix: (Units=1/GPa)
#
#
# Indices 1 2 3 4 5 6 
#
# 1 0.006623 -0.003172 -0.003125 0.000000 0.001827 0.000000
# 2 -0.003172 0.040197 -0.005998 0.000000 0.000786 0.000000
# 3 -0.003125 -0.005998 0.013453 0.000000 -0.004264 0.000000
# 4 0.000000 0.000000 0.000000 0.031870 0.000000 0.014496
# 5 0.001827 0.000786 -0.004264 0.000000 0.015793 0.000000
# 6 0.000000 0.000000 0.000000 0.014496 0.000000 0.044450
#
#
# Mechanical properties :
#
#
# Convention : Reuss Voigt Hill
#
# Bulk Modulus (GPa) = 28.02429 55.93608 41.98018
# Shear Modulus (GPa) = 26.47324 41.72321 34.09823
#
# Velocity S-wave (km/s) = 3.22990 4.05485 3.66565
# Velocity P-wave (km/s) = 4.99531 6.63061 5.87019
#
# Compressibility (1/GPa) = 0.03568333
#
# Stress axis : x y z
#
# Youngs Moduli (GPa) = 150.99105 24.87749 74.33224
#
# Poissons Ratio (x) = 0.07892 0.23228
# Poissons Ratio (y) = 0.47898 0.44582
# Poissons Ratio (z) = 0.47183 0.14921
#
# Static dielectric constant tensor:
#      x y z
#    x 2.093900 0.000000 -0.002060 
#    y 0.000000 2.076640 0.000000 
#    z -0.002060 0.000000 2.075020 
# 
# From -- ./inp_files/101164.got.cif
#   From: 2010.05.17/outbox.cif.g08.bks.cpg/sg15_51_cif.got.tgz:101164.got - 2010.06.03 18:47:42.
