data_PCOD9284580
_publ_section_title
;
Structure prediction by ZEFSAII (Michael W. Deem and Ramdas Pophale) SiO2 
 PCOD9284580
Probable space group: C 2/C
;
_chemical_formula_sum "Si O2"
_cell_formula_units_Z 60
_cell_length_a 30.288013
_cell_length_b 10.575612
_cell_length_c 9.967067
_cell_angle_alpha 90.000000
_cell_angle_beta 65.206188
_cell_angle_gamma 90.000000
_cell_volume 2898.309386
_symmetry_space_group_name_H-M "C 2/C"
_symmetry_group_IT_number 15
_symmetry_cell_setting 'monoclinic'
loop_
_space_group_symop_operation_xyz
x,y,z
-x,y,1/2-z
-x,-y,-z
x,-y,1/2+z
1/2+x,1/2+y,z
1/2-x,1/2+y,1/2-z
1/2-x,1/2-y,-z
1/2+x,1/2-y,1/2+z
loop_
_atom_site_type_symbol
_atom_site_label
_atom_site_fract_x
_atom_site_fract_y
_atom_site_fract_z
Si Si1 0.912618 0.393703 0.729874
Si Si2 0.740101 0.122350 0.700425
Si Si3 0.728692 0.594348 0.139567
Si Si4 0.118210 0.824995 0.726799
Si Si5 0.000000 0.486093 0.250000
Si Si6 0.372428 0.889303 0.083288
Si Si7 0.516973 0.445469 0.844824
Si Si8 0.933695 0.730062 0.955595
O O1 0.968138 0.431038 0.690805
O O2 0.890141 0.497060 0.656812
O O3 0.913940 0.272014 0.631784
O O4 0.886882 0.390910 0.908067
O O5 0.750257 0.274912 0.678144
O O6 0.745191 0.076825 0.538580
O O7 0.685335 0.114040 0.824605
O O8 0.768192 0.025546 0.764008
O O9 0.672269 0.622988 0.174760
O O10 0.107519 0.734525 0.866590
O O11 0.073928 0.921920 0.777134
O O12 0.109278 0.750169 0.598148
O O13 0.038174 0.397772 0.122937
O O14 0.500000 0.538875 0.750000
O O15 0.476250 0.332627 0.883848
O O16 0.500000 0.500000 0.000000
#
# Coordination Sequence:
#
# PCOD9284580 Si02
#       8
#     8   8   8   8   4   8   8   8
#     4  12  23  32  60  94 126 167 204 251 308 382
#     4  10  23  44  67  97 129 172 216 278 339 390
#     4  10  23  43  71  98 131 172 218 278 335 401
#     4  10  21  41  62  85 124 168 213 258 321 377
#     4  12  20  36  58  90 132 164 198 246 314 368
#     4  11  21  38  59  90 126 163 208 255 318 388
#     4  10  22  39  59  81 119 164 207 256 303 363
#     4  11  21  39  59  86 128 170 201 257 308 368
#
# _framework density 20.701722
#
# number of rings (size 3 to 8) (size 9 to 14) (size 15 to 20)
#    0.000    1.333    4.667    1.200    1.867    5.867 
#    0.000    4.000    0.000    0.000    0.000    0.000 
#    0.000    0.000    0.000    0.000    0.000    0.000 
#
# Total GULP energy -167022.605467 kJ/mol
# GULP energy per Si atom -5567.420182 kJ/mol
# Density = 2.065460 g / cm^3
# Si number density = 20.701722 Si / 1000 Ang^3
#
#
#
# Elastic Constant Matrix: (Units=GPa)
#
#
# Indices 1 2 3 4 5 6 
#
# 1 91.7362 40.7005 64.5302 0.0000 8.9080 0.0000
# 2 40.7005 30.3119 30.2641 0.0000 11.8768 0.0000
# 3 64.5302 30.2641 167.3536 0.0000 29.4114 0.0000
# 4 0.0000 0.0000 0.0000 9.4638 0.0000 62.9835
# 5 8.9080 11.8768 29.4114 0.0000 25.8088 0.0000
# 6 0.0000 0.0000 0.0000 62.9835 0.0000 -229.0859
#
#
#
# Elastic Compliance Matrix: (Units=1/GPa)
#
#
# Indices 1 2 3 4 5 6 
#
# 1 0.036323 -0.047574 -0.008811 0.000000 0.019397 0.000000
# 2 -0.047574 0.106256 0.006048 0.000000 -0.039369 0.000000
# 3 -0.008811 0.006048 0.010296 0.000000 -0.011475 0.000000
# 4 0.000000 0.000000 0.000000 0.037341 0.000000 0.010266
# 5 0.019397 -0.039369 -0.011475 0.000000 0.063245 0.000000
# 6 0.000000 0.000000 0.000000 0.010266 0.000000 -0.001543
#
#
# Mechanical properties :
#
#
# Convention : Reuss Voigt Hill
#
# Bulk Modulus (GPa) = 19.15721 62.26567 40.71144
# Shear Modulus (GPa) = 13.51374 -28.50222 -7.49424
#
# Velocity S-wave (km/s) = 2.55773 -3.71456 -1.90472
# Velocity P-wave (km/s) = 4.24225 3.42718 3.85631
#
# Compressibility (1/GPa) = 0.05219966
#
# Stress axis : x y z
#
# Youngs Moduli (GPa) = 27.53112 9.41120 97.12533
#
# Poissons Ratio (x) = 0.44773 0.85581
# Poissons Ratio (y) = 1.30976 -0.58738
# Poissons Ratio (z) = 0.24259 -0.05692
#
# Static dielectric constant tensor:
#      x y z
#    x 1.671520 0.000000 -0.017170 
#    y 0.000000 1.800340 0.000000 
#    z -0.017170 0.000000 1.850700 
# 
# From -- ./inp_files/69093.got.cif
#   From: 2010.05.17/outbox.cif.g08.bks.cpg/sg15_35_cif.got.tgz:69093.got - 2010.06.03 18:47:42.
