data_PCOD9284822
_publ_section_title
;
Structure prediction by ZEFSAII (Michael W. Deem and Ramdas Pophale) SiO2 
 PCOD9284822
Probable space group: C 2/C
;
_chemical_formula_sum "Si O2"
_cell_formula_units_Z 52
_cell_length_a 19.939039
_cell_length_b 11.662473
_cell_length_c 15.318510
_cell_angle_alpha 90.000000
_cell_angle_beta 46.304146
_cell_angle_gamma 90.000000
_cell_volume 2575.490722
_symmetry_space_group_name_H-M "C 2/C"
_symmetry_group_IT_number 15
_symmetry_cell_setting 'monoclinic'
loop_
_space_group_symop_operation_xyz
x,y,z
-x,y,1/2-z
-x,-y,-z
x,-y,1/2+z
1/2+x,1/2+y,z
1/2-x,1/2+y,1/2-z
1/2-x,1/2-y,-z
1/2+x,1/2-y,1/2+z
loop_
_atom_site_type_symbol
_atom_site_label
_atom_site_fract_x
_atom_site_fract_y
_atom_site_fract_z
Si Si1 0.285366 0.260812 0.067007
Si Si2 0.373902 0.274568 0.642062
Si Si3 0.813758 0.443968 0.110502
Si Si4 0.463698 0.891738 0.443650
Si Si5 0.688159 0.509688 0.383613
Si Si6 0.703861 0.127581 0.057349
Si Si7 0.000000 0.449465 0.750000
O O1 0.201261 0.228541 0.210317
O O2 0.325105 0.386321 0.058883
O O3 0.250000 0.250000 0.000000
O O4 0.372080 0.176872 0.996811
O O5 0.330533 0.190575 0.608608
O O6 0.465647 0.205343 0.587772
O O7 0.387238 0.397843 0.583682
O O8 0.741614 0.482525 0.246568
O O9 0.909644 0.509600 0.047326
O O10 0.779604 0.454238 0.041910
O O11 0.507191 0.965641 0.326095
O O12 0.753868 0.574777 0.393273
O O13 0.592170 0.126751 0.162909
O O14 0.750000 0.250000 0.000000
#
# Coordination Sequence:
#
# PCOD9284822 Si02
#       7
#     8   8   8   8   8   8   4
#     4  11  23  41  66  92 130 175 223 276 330 395
#     4  11  22  38  61  97 129 166 222 272 330 395
#     4  10  21  41  64  97 125 172 216 273 331 389
#     4  11  21  39  66  94 126 172 219 271 322 396
#     4  11  23  40  63  96 133 175 215 274 339 396
#     4  11  22  42  67  94 132 168 217 278 332 383
#     4  10  22  40  68 102 118 170 234 272 320 402
#
# _framework density 20.190327
#
# number of rings (size 3 to 8) (size 9 to 14) (size 15 to 20)
#    0.000    1.231    3.077    5.077    0.000    1.846 
#    0.000    0.000    3.385    0.000    0.000    0.000 
#    0.000    0.000    0.000    0.000    0.000    0.000 
#
# Total GULP energy -144868.386157 kJ/mol
# GULP energy per Si atom -5571.861006 kJ/mol
# Density = 2.014437 g / cm^3
# Si number density = 20.190327 Si / 1000 Ang^3
#
#
#
# Elastic Constant Matrix: (Units=GPa)
#
#
# Indices 1 2 3 4 5 6 
#
# 1 87.4100 37.1855 40.4808 0.0000 4.3794 0.0000
# 2 37.1855 137.7463 40.6098 0.0000 0.1904 0.0000
# 3 40.4808 40.6098 62.9541 0.0000 -1.4887 0.0000
# 4 0.0000 0.0000 0.0000 24.5518 0.0000 -5.2645
# 5 4.3794 0.1904 -1.4887 0.0000 10.6443 0.0000
# 6 0.0000 0.0000 0.0000 -5.2645 0.0000 41.7495
#
#
#
# Elastic Compliance Matrix: (Units=1/GPa)
#
#
# Indices 1 2 3 4 5 6 
#
# 1 0.017329 -0.001632 -0.010292 0.000000 -0.008540 0.000000
# 2 -0.001632 0.009128 -0.004843 0.000000 -0.000169 0.000000
# 3 -0.010292 -0.004843 0.025814 0.000000 0.007931 0.000000
# 4 0.000000 0.000000 0.000000 0.041862 0.000000 0.005279
# 5 -0.008540 -0.000169 0.007931 0.000000 0.098573 0.000000
# 6 0.000000 0.000000 0.000000 0.005279 0.000000 0.024618
#
#
# Mechanical properties :
#
#
# Convention : Reuss Voigt Hill
#
# Bulk Modulus (GPa) = 53.36930 58.29584 55.83257
# Shear Modulus (GPa) = 19.44737 26.71139 23.07938
#
# Velocity S-wave (km/s) = 3.10692 3.64122 3.38463
# Velocity P-wave (km/s) = 6.27384 6.82743 6.55648
#
# Compressibility (1/GPa) = 0.01873737
#
# Stress axis : x y z
#
# Youngs Moduli (GPa) = 57.70726 109.54922 38.73833
#
# Poissons Ratio (x) = 0.17878 0.39870
# Poissons Ratio (y) = 0.09418 0.18761
# Poissons Ratio (z) = 0.59392 0.53055
#
# Static dielectric constant tensor:
#      x y z
#    x 1.229070 0.000000 -0.074620 
#    y 0.000000 1.810420 0.000000 
#    z -0.074620 0.000000 1.719280 
# 
# From -- ./inp_files/167555.got.cif
#   From: 2010.05.17/outbox.cif.g08.bks.cpg/sg15_84_cif.got.tgz:167555.got - 2010.06.03 18:47:42.
