data_PCOD9284971
_publ_section_title
;
Structure prediction by ZEFSAII (Michael W. Deem and Ramdas Pophale) SiO2 
 PCOD9284971
Probable space group: C 2/C
;
_chemical_formula_sum "Si O2"
_cell_formula_units_Z 40
_cell_length_a 8.433637
_cell_length_b 8.937722
_cell_length_c 24.350889
_cell_angle_alpha 90.000000
_cell_angle_beta 102.832827
_cell_angle_gamma 90.000000
_cell_volume 1789.662337
_symmetry_space_group_name_H-M "C 2/C"
_symmetry_group_IT_number 15
_symmetry_cell_setting 'monoclinic'
loop_
_space_group_symop_operation_xyz
x,y,z
-x,y,1/2-z
-x,-y,-z
x,-y,1/2+z
1/2+x,1/2+y,z
1/2-x,1/2+y,1/2-z
1/2-x,1/2-y,-z
1/2+x,1/2-y,1/2+z
loop_
_atom_site_type_symbol
_atom_site_label
_atom_site_fract_x
_atom_site_fract_y
_atom_site_fract_z
Si Si1 0.586683 0.321554 0.387037
Si Si2 0.108218 0.830599 0.917276
Si Si3 0.977083 0.328415 0.981447
Si Si4 0.146129 0.242597 0.181873
Si Si5 0.649845 0.596036 0.717782
O O1 0.586910 0.492513 0.407490
O O2 0.592394 0.217003 0.440384
O O3 0.735685 0.294730 0.357831
O O4 0.424598 0.304657 0.337119
O O5 0.296222 0.801475 0.943641
O O6 0.033926 0.751900 0.857529
O O7 0.012265 0.772319 0.963411
O O8 0.000000 0.500000 0.000000
O O9 0.196444 0.336915 0.238776
O O10 0.182223 0.070043 0.198763
O O11 0.500000 0.585201 0.750000
#
# Coordination Sequence:
#
# PCOD9284971 Si02
#       5
#     8   8   8   8   8
#     4  10  22  42  62  88 124 160 199 247 305 362
#     4  10  23  41  62  89 124 163 202 249 301 360
#     4  11  24  40  62  92 124 161 206 251 302 360
#     4  10  21  41  66  88 120 161 201 251 303 360
#     4   9  21  40  61  89 121 154 199 251 305 361
#
# _framework density 22.350584999999999
#
# number of rings (size 3 to 8) (size 9 to 14) (size 15 to 20)
#    0.000    2.000    0.000    1.800    0.000   16.000 
#    0.000   13.000    0.000    0.000    0.000    0.000 
#    0.000    0.000    0.000    0.000    0.000    0.000 
#
# Total GULP energy -111836.469032 kJ/mol
# GULP energy per Si atom -5591.823452 kJ/mol
# Density = 2.229971 g / cm^3
# Si number density = 22.350585 Si / 1000 Ang^3
#
#
#
# Elastic Constant Matrix: (Units=GPa)
#
#
# Indices 1 2 3 4 5 6 
#
# 1 57.8085 13.2655 35.8511 0.0000 22.4153 0.0000
# 2 13.2655 68.7981 45.3244 0.0000 -2.7803 0.0000
# 3 35.8511 45.3244 126.1267 0.0000 22.2140 0.0000
# 4 0.0000 0.0000 0.0000 51.8935 0.0000 -0.1308
# 5 22.4153 -2.7803 22.2140 0.0000 56.3630 0.0000
# 6 0.0000 0.0000 0.0000 -0.1308 0.0000 22.0864
#
#
#
# Elastic Compliance Matrix: (Units=1/GPa)
#
#
# Indices 1 2 3 4 5 6 
#
# 1 0.023582 -0.001728 -0.004745 0.000000 -0.007594 0.000000
# 2 -0.001728 0.020007 -0.007515 0.000000 0.004636 0.000000
# 3 -0.004745 -0.007515 0.012584 0.000000 -0.003443 0.000000
# 4 0.000000 0.000000 0.000000 0.019271 0.000000 0.000114
# 5 -0.007594 0.004636 -0.003443 0.000000 0.022348 0.000000
# 6 0.000000 0.000000 0.000000 0.000114 0.000000 0.045277
#
#
# Mechanical properties :
#
#
# Convention : Reuss Voigt Hill
#
# Bulk Modulus (GPa) = 35.46395 49.06837 42.26616
# Shear Modulus (GPa) = 27.70960 36.62141 32.16550
#
# Velocity S-wave (km/s) = 3.52486 4.05223 3.79771
# Velocity P-wave (km/s) = 5.69805 6.62538 6.17914
#
# Compressibility (1/GPa) = 0.02819765
#
# Stress axis : x y z
#
# Youngs Moduli (GPa) = 42.40523 49.98352 79.46507
#
# Poissons Ratio (x) = 0.08638 0.37703
# Poissons Ratio (y) = 0.07328 0.59716
# Poissons Ratio (z) = 0.20120 0.37561
#
# Static dielectric constant tensor:
#      x y z
#    x 1.855200 0.000000 0.030290 
#    y 0.000000 1.757230 0.000000 
#    z 0.030290 0.000000 1.836770 
# 
# From -- ./inp_files/262420.got.cif
#   From: 2010.05.17/outbox.cif.g08.bks.cpg/sg15_132_cif.got.tgz:262420.got - 2010.06.03 18:47:42.
