data_PCOD9284719
_publ_section_title
;
Structure prediction by ZEFSAII (Michael W. Deem and Ramdas Pophale) SiO2 
 PCOD9284719
Probable space group: C 2/C
;
_chemical_formula_sum "Si O2"
_cell_formula_units_Z 40
_cell_length_a 15.303957
_cell_length_b 15.742310
_cell_length_c 17.033160
_cell_angle_alpha 90.000000
_cell_angle_beta 154.129159
_cell_angle_gamma 90.000000
_cell_volume 1790.590848
_symmetry_space_group_name_H-M "C 2/C"
_symmetry_group_IT_number 15
_symmetry_cell_setting 'monoclinic'
loop_
_space_group_symop_operation_xyz
x,y,z
-x,y,1/2-z
-x,-y,-z
x,-y,1/2+z
1/2+x,1/2+y,z
1/2-x,1/2+y,1/2-z
1/2-x,1/2-y,-z
1/2+x,1/2-y,1/2+z
loop_
_atom_site_type_symbol
_atom_site_label
_atom_site_fract_x
_atom_site_fract_y
_atom_site_fract_z
Si Si1 0.811964 0.293801 0.631030
Si Si2 0.405574 0.637280 0.819651
Si Si3 0.492760 0.537160 0.083297
Si Si4 0.310632 0.661779 0.151742
Si Si5 0.358579 0.144164 0.738587
O O1 0.750000 0.250000 0.500000
O O2 0.636028 0.344919 0.529373
O O3 0.857766 0.214031 0.723285
O O4 0.000000 0.347115 0.750000
O O5 0.423157 0.542693 0.799202
O O6 0.247607 0.642589 0.761922
O O7 0.637898 0.614861 0.224508
O O8 0.500000 0.500000 0.000000
O O9 0.266838 0.572527 0.909517
O O10 0.500000 0.639868 0.250000
O O11 0.312299 0.763570 0.164329
O O12 0.095731 0.635669 0.942932
#
# Coordination Sequence:
#
# PCOD9284719 Si02
#       5
#     8   8   8   8   8
#     4   9  19  37  62  90 129 170 220 274 330 397
#     4  10  21  41  63  96 131 176 227 275 340 400
#     4  10  25  44  65 102 135 166 238 280 331 413
#     4  12  25  43  71 102 138 185 229 279 349 407
#     4  11  23  43  71  96 136 180 228 277 337 416
#
# _framework density 22.338995000000001
#
# number of rings (size 3 to 8) (size 9 to 14) (size 15 to 20)
#    0.000    1.600    2.000    1.800    2.800    5.600 
#   10.800    0.000    0.000    0.000    0.000    0.000 
#    0.000    0.000    0.000    0.000    0.000    0.000 
#
# Total GULP energy -111433.608106 kJ/mol
# GULP energy per Si atom -5571.680405 kJ/mol
# Density = 2.228815 g / cm^3
# Si number density = 22.338995 Si / 1000 Ang^3
#
#
#
# Elastic Constant Matrix: (Units=GPa)
#
#
# Indices 1 2 3 4 5 6 
#
# 1 91.9431 23.3308 34.7447 -0.0137 23.9393 -0.0135
# 2 23.3308 83.6406 20.8508 0.0287 16.9335 0.0247
# 3 34.7447 20.8508 119.4052 0.0104 42.5688 0.0286
# 4 -0.0137 0.0287 0.0104 31.5498 0.0144 14.6319
# 5 23.9393 16.9335 42.5688 0.0144 35.2671 0.0046
# 6 -0.0135 0.0247 0.0286 14.6319 0.0046 -10.3018
#
#
#
# Elastic Compliance Matrix: (Units=1/GPa)
#
#
# Indices 1 2 3 4 5 6 
#
# 1 0.013634 -0.002131 -0.001159 0.000015 -0.006832 -0.000008
# 2 -0.002131 0.013577 0.000101 -0.000016 -0.005195 0.000011
# 3 -0.001159 0.000101 0.014800 -0.000008 -0.017126 0.000023
# 4 0.000015 -0.000016 -0.000008 0.019109 -0.000004 0.027141
# 5 -0.006832 -0.005195 -0.017126 -0.000004 0.056158 -0.000031
# 6 -0.000008 0.000011 0.000023 0.027141 -0.000031 -0.058522
#
#
# Mechanical properties :
#
#
# Convention : Reuss Voigt Hill
#
# Bulk Modulus (GPa) = 28.06428 50.31572 39.19000
# Shear Modulus (GPa) = 64.92473 25.70720 45.31597
#
# Velocity S-wave (km/s) = 5.39690 3.39599 4.50884
# Velocity P-wave (km/s) = 7.17116 6.16033 6.68488
#
# Compressibility (1/GPa) = 0.03563248
#
# Stress axis : x y z
#
# Youngs Moduli (GPa) = 73.34583 73.65529 67.56755
#
# Poissons Ratio (x) = 0.15695 0.07834
# Poissons Ratio (y) = 0.15629 -0.00683
# Poissons Ratio (z) = 0.08504 -0.00745
#
# Static dielectric constant tensor:
#      x y z
#    x 1.979540 -0.000320 0.079280 
#    y -0.000320 1.850230 -0.000300 
#    z 0.079280 -0.000300 2.014300 
# 
# From -- ./inp_files/66953.got.cif
#   From: 2010.05.17/outbox.cif.g08.bks.cpg/sg15_34_cif.got.tgz:66953.got - 2010.06.03 18:47:42.
