data_PCOD9284024
_publ_section_title
;
Structure prediction by ZEFSAII (Michael W. Deem and Ramdas Pophale) SiO2 
 PCOD9284024
Probable space group: C 2/C
;
_chemical_formula_sum "Si O2"
_cell_formula_units_Z 48
_cell_length_a 12.635766
_cell_length_b 12.631677
_cell_length_c 21.612882
_cell_angle_alpha 90.000000
_cell_angle_beta 138.383093
_cell_angle_gamma 90.000000
_cell_volume 2291.075407
_symmetry_space_group_name_H-M "C 2/C"
_symmetry_group_IT_number 15
_symmetry_cell_setting 'monoclinic'
loop_
_space_group_symop_operation_xyz
x,y,z
-x,y,1/2-z
-x,-y,-z
x,-y,1/2+z
1/2+x,1/2+y,z
1/2-x,1/2+y,1/2-z
1/2-x,1/2-y,-z
1/2+x,1/2-y,1/2+z
loop_
_atom_site_type_symbol
_atom_site_label
_atom_site_fract_x
_atom_site_fract_y
_atom_site_fract_z
Si Si1 0.345215 0.502930 0.018897
Si Si2 0.056152 0.850978 0.841318
Si Si3 0.915250 0.176437 0.837999
Si Si4 0.658773 0.285712 0.057125
Si Si5 0.637744 0.244649 0.641467
Si Si6 0.625116 0.154632 0.353878
O O1 0.326510 0.567264 0.074053
O O2 0.494607 0.428562 0.100876
O O3 0.371577 0.593631 0.978626
O O4 0.202848 0.428851 0.934091
O O5 0.160866 0.745254 0.879265
O O6 0.000000 0.887428 0.750000
O O7 0.912411 0.825868 0.825577
O O8 0.867343 0.229305 0.881872
O O9 0.758165 0.163010 0.726852
O O10 0.034468 0.252330 0.851496
O O11 0.531109 0.216488 0.962840
O O12 0.734946 0.297997 0.627853
O O13 0.500000 0.106880 0.250000
#
# Coordination Sequence:
#
# PCOD9284024 Si02
#       6
#     8   8   8   8   8   8
#     4  11  23  41  67  99 122 172 218 258 312 386
#     4  11  24  44  65  93 132 169 211 265 321 377
#     4  11  22  41  69  93 130 164 211 268 313 377
#     4  11  23  43  66  92 129 169 211 260 322 376
#     4  10  21  40  66  90 125 170 209 251 325 370
#     4  10  23  41  66  95 132 167 211 263 321 375
#
# _framework density 20.950859999999999
#
# number of rings (size 3 to 8) (size 9 to 14) (size 15 to 20)
#    0.000    1.333    3.333    3.000    2.333    2.667 
#    3.000    0.833    3.667    0.000    0.000    0.000 
#    0.000    0.000    0.000    0.000    0.000    0.000 
#
# Total GULP energy -133856.814531 kJ/mol
# GULP energy per Si atom -5577.367272 kJ/mol
# Density = 2.090317 g / cm^3
# Si number density = 20.950860 Si / 1000 Ang^3
#
#
#
# Elastic Constant Matrix: (Units=GPa)
#
#
# Indices 1 2 3 4 5 6 
#
# 1 93.3803 27.2466 13.8945 0.0000 -16.6823 0.0000
# 2 27.2466 59.9339 47.3086 0.0000 -0.3286 0.0000
# 3 13.8945 47.3086 103.0202 0.0000 -4.1609 0.0000
# 4 0.0000 0.0000 0.0000 28.2143 0.0000 -2.6996
# 5 -16.6823 -0.3286 -4.1609 0.0000 33.4686 0.0000
# 6 0.0000 0.0000 0.0000 -2.6996 0.0000 4.1757
#
#
#
# Elastic Compliance Matrix: (Units=1/GPa)
#
#
# Indices 1 2 3 4 5 6 
#
# 1 0.014000 -0.007941 0.002048 0.000000 0.007155 0.000000
# 2 -0.007941 0.030728 -0.013254 0.000000 -0.005305 0.000000
# 3 0.002048 -0.013254 0.015632 0.000000 0.002834 0.000000
# 4 0.000000 0.000000 0.000000 0.037780 0.000000 0.024425
# 5 0.007155 -0.005305 0.002834 0.000000 0.033745 0.000000
# 6 0.000000 0.000000 0.000000 0.024425 0.000000 0.255269
#
#
# Mechanical properties :
#
#
# Convention : Reuss Voigt Hill
#
# Bulk Modulus (GPa) = 45.32328 48.13708 46.73018
# Shear Modulus (GPa) = 11.55257 24.36404 17.95830
#
# Velocity S-wave (km/s) = 2.35077 3.41385 2.93091
# Velocity P-wave (km/s) = 5.38964 6.21009 5.81436
#
# Compressibility (1/GPa) = 0.02206372
#
# Stress axis : x y z
#
# Youngs Moduli (GPa) = 71.43085 32.54324 63.97279
#
# Poissons Ratio (x) = 0.25844 -0.13100
# Poissons Ratio (y) = 0.56726 0.84790
# Poissons Ratio (z) = -0.14627 0.43133
#
# Static dielectric constant tensor:
#      x y z
#    x 1.765870 0.000000 0.011150 
#    y 0.000000 1.769380 0.000000 
#    z 0.011150 0.000000 1.774820 
# 
# From -- ./inp_files/237761.got.cif
#   From: 2010.05.17/outbox.cif.g08.bks.cpg/sg15_119_cif.got.tgz:237761.got - 2010.06.03 18:47:42.
