data_PCOD9284814
_publ_section_title
;
Structure prediction by ZEFSAII (Michael W. Deem and Ramdas Pophale) SiO2 
 PCOD9284814
Probable space group: C 2/C
;
_chemical_formula_sum "Si O2"
_cell_formula_units_Z 44
_cell_length_a 12.407653
_cell_length_b 17.334731
_cell_length_c 9.722622
_cell_angle_alpha 90.000000
_cell_angle_beta 55.500401
_cell_angle_gamma 90.000000
_cell_volume 1723.399456
_symmetry_space_group_name_H-M "C 2/C"
_symmetry_group_IT_number 15
_symmetry_cell_setting 'monoclinic'
loop_
_space_group_symop_operation_xyz
x,y,z
-x,y,1/2-z
-x,-y,-z
x,-y,1/2+z
1/2+x,1/2+y,z
1/2-x,1/2+y,1/2-z
1/2-x,1/2-y,-z
1/2+x,1/2-y,1/2+z
loop_
_atom_site_type_symbol
_atom_site_label
_atom_site_fract_x
_atom_site_fract_y
_atom_site_fract_z
Si Si1 0.370079 0.552795 0.109510
Si Si2 0.643120 0.120479 0.166860
Si Si3 0.500000 0.266434 0.250000
Si Si4 0.547573 0.683069 0.017856
Si Si5 0.697208 0.086379 0.700123
Si Si6 0.066580 0.639660 0.528136
O O1 0.286434 0.585896 0.037686
O O2 0.262129 0.487838 0.223472
O O3 0.500000 0.500000 0.000000
O O4 0.429996 0.626004 0.149327
O O5 0.500000 0.079747 0.250000
O O6 0.616615 0.205925 0.130404
O O7 0.644789 0.132621 0.331179
O O8 0.473883 0.311042 0.131049
O O9 0.687066 0.643574 0.923685
O O10 0.558087 0.769201 0.069086
O O11 0.626102 0.085142 0.602452
O O12 0.584307 0.115714 0.882172
#
# Coordination Sequence:
#
# PCOD9284814 Si02
#       6
#     8   8   4   8   8   8
#     4  10  23  43  61  91 139 170 209 276 338 396
#     4   9  21  40  65  93 128 167 222 267 325 394
#     4   8  20  36  64  98 116 170 218 272 312 394
#     4  10  21  41  64  95 133 169 218 275 333 392
#     4  10  23  42  62  96 132 169 225 272 337 394
#     4  10  22  39  70  93 124 179 224 274 320 402
#
# _framework density 25.530933999999998
#
# number of rings (size 3 to 8) (size 9 to 14) (size 15 to 20)
#    0.545    1.818    0.000    0.545    7.636    2.909 
#    6.545    1.818    0.000    0.000    0.000    0.000 
#    0.000    0.000    0.000    0.000    0.000    0.000 
#
# Total GULP energy -122475.837358 kJ/mol
# GULP energy per Si atom -5567.083516 kJ/mol
# Density = 2.547282 g / cm^3
# Si number density = 25.530934 Si / 1000 Ang^3
#
#
#
# Elastic Constant Matrix: (Units=GPa)
#
#
# Indices 1 2 3 4 5 6 
#
# 1 143.1520 35.9053 29.7664 0.0000 -43.7173 0.0000
# 2 35.9053 127.2371 13.0396 0.0000 -37.0200 0.0000
# 3 29.7664 13.0396 49.9001 0.0000 1.2537 0.0000
# 4 0.0000 0.0000 0.0000 41.1356 0.0000 -16.6270
# 5 -43.7173 -37.0200 1.2537 0.0000 55.1900 0.0000
# 6 0.0000 0.0000 0.0000 -16.6270 0.0000 45.7991
#
#
#
# Elastic Compliance Matrix: (Units=1/GPa)
#
#
# Indices 1 2 3 4 5 6 
#
# 1 0.011172 0.000225 -0.006953 0.000000 0.009158 0.000000
# 2 0.000225 0.010152 -0.002964 0.000000 0.007055 0.000000
# 3 -0.006953 -0.002964 0.025165 0.000000 -0.008068 0.000000
# 4 0.000000 0.000000 0.000000 0.028491 0.000000 0.010343
# 5 0.009158 0.007055 -0.008068 0.000000 0.030289 0.000000
# 6 0.000000 0.000000 0.000000 0.010343 0.000000 0.025590
#
#
# Mechanical properties :
#
#
# Convention : Reuss Voigt Hill
#
# Bulk Modulus (GPa) = 36.89499 53.07908 44.98704
# Shear Modulus (GPa) = 31.39157 44.53014 37.96085
#
# Velocity S-wave (km/s) = 3.51030 4.18085 3.86016
# Velocity P-wave (km/s) = 5.55986 6.64389 6.12590
#
# Compressibility (1/GPa) = 0.02710395
#
# Stress axis : x y z
#
# Youngs Moduli (GPa) = 89.51106 98.49797 39.73789
#
# Poissons Ratio (x) = -0.02211 0.27630
# Poissons Ratio (y) = -0.02010 0.11779
# Poissons Ratio (z) = 0.62237 0.29196
#
# Static dielectric constant tensor:
#      x y z
#    x 2.141540 0.000000 -0.087170 
#    y 0.000000 2.125090 0.000000 
#    z -0.087170 0.000000 2.046600 
# 
# From -- ./inp_files/87705.got.cif
#   From: 2010.05.17/outbox.cif.g08.bks.cpg/sg15_44_cif.got.tgz:87705.got - 2010.06.03 18:47:42.
