data_PCOD9284002
_publ_section_title
;
Structure prediction by ZEFSAII (Michael W. Deem and Ramdas Pophale) SiO2 
 PCOD9284002
Probable space group: C 2/C
;
_chemical_formula_sum "Si O2"
_cell_formula_units_Z 28
_cell_length_a 4.961461
_cell_length_b 19.010860
_cell_length_c 14.265659
_cell_angle_alpha 90.000000
_cell_angle_beta 61.217417
_cell_angle_gamma 90.000000
_cell_volume 1179.320528
_symmetry_space_group_name_H-M "C 2/C"
_symmetry_group_IT_number 15
_symmetry_cell_setting 'monoclinic'
loop_
_space_group_symop_operation_xyz
x,y,z
-x,y,1/2-z
-x,-y,-z
x,-y,1/2+z
1/2+x,1/2+y,z
1/2-x,1/2+y,1/2-z
1/2-x,1/2-y,-z
1/2+x,1/2-y,1/2+z
loop_
_atom_site_type_symbol
_atom_site_label
_atom_site_fract_x
_atom_site_fract_y
_atom_site_fract_z
Si Si1 0.500000 0.116199 0.250000
Si Si2 0.113132 0.833202 0.466879
Si Si3 0.051302 0.577571 0.029742
Si Si4 0.170553 0.749418 0.826758
O O1 0.533007 0.076334 0.146652
O O2 0.768927 0.172921 0.224346
O O3 0.308169 0.873555 0.515078
O O4 0.364057 0.794752 0.360000
O O5 0.902683 0.774835 0.554165
O O6 0.886345 0.888148 0.455759
O O7 0.000000 0.500000 0.000000
O O8 0.500000 0.713798 0.750000
#
# Coordination Sequence:
#
# PCOD9284002 Si02
#       4
#     4   8   8   8
#     4   8  20  40  66 106 134 190 232 292 366 420
#     4  10  21  40  66 103 137 183 232 297 358 414
#     4  11  23  42  69  98 145 192 236 286 348 437
#     4   8  18  39  66 103 138 175 229 301 361 432
#
# _framework density 23.742483
#
# number of rings (size 3 to 8) (size 9 to 14) (size 15 to 20)
#    0.857    1.714    0.000    0.857    0.000   14.857 
#    5.143    0.000   18.857    0.000    0.000    0.000 
#    0.000    0.000    0.000    0.000    0.000    0.000 
#
# Total GULP energy -78004.843410 kJ/mol
# GULP energy per Si atom -5571.774529 kJ/mol
# Density = 2.368844 g / cm^3
# Si number density = 23.742483 Si / 1000 Ang^3
#
#
#
# Elastic Constant Matrix: (Units=GPa)
#
#
# Indices 1 2 3 4 5 6 
#
# 1 208.7372 76.9709 69.3489 0.0000 -7.6580 0.0000
# 2 76.9709 137.6551 70.0786 0.0000 -6.5129 0.0000
# 3 69.3489 70.0786 161.6991 0.0000 -32.8294 0.0000
# 4 0.0000 0.0000 0.0000 -5.1769 0.0000 -14.0258
# 5 -7.6580 -6.5129 -32.8294 0.0000 53.6333 0.0000
# 6 0.0000 0.0000 0.0000 -14.0258 0.0000 36.2976
#
#
#
# Elastic Compliance Matrix: (Units=1/GPa)
#
#
# Indices 1 2 3 4 5 6 
#
# 1 0.006318 -0.002733 -0.001609 0.000000 -0.000415 0.000000
# 2 -0.002733 0.010615 -0.003706 0.000000 -0.001370 0.000000
# 3 -0.001609 -0.003706 0.009527 0.000000 0.005152 0.000000
# 4 0.000000 0.000000 0.000000 -0.094370 0.000000 -0.036465
# 5 -0.000415 -0.001370 0.005152 0.000000 0.021573 0.000000
# 6 0.000000 0.000000 0.000000 -0.036465 0.000000 0.013459
#
#
# Mechanical properties :
#
#
# Convention : Reuss Voigt Hill
#
# Bulk Modulus (GPa) = 96.50677 104.54313 100.52495
# Shear Modulus (GPa) = -375.19169 36.39698 -169.39736
#
# Velocity S-wave (km/s) = -12.58446 3.91959 -8.45593
# Velocity P-wave (km/s) = 13.05460 8.03815 7.27360
#
# Compressibility (1/GPa) = 0.01036197
#
# Stress axis : x y z
#
# Youngs Moduli (GPa) = 158.27834 94.20834 104.96776
#
# Poissons Ratio (x) = 0.25748 0.16893
# Poissons Ratio (y) = 0.43258 0.38904
# Poissons Ratio (z) = 0.25473 0.34917
#
# Static dielectric constant tensor:
#      x y z
#    x 2.090370 0.000000 0.114370 
#    y 0.000000 1.867420 0.000000 
#    z 0.114370 0.000000 2.098960 
# 
# From -- ./inp_files/128295.got.cif
#   From: 2010.05.17/outbox.cif.g08.bks.cpg/sg15_65_cif.got.tgz:128295.got - 2010.06.03 18:47:42.
