data_PCOD9284162
_publ_section_title
;
Structure prediction by ZEFSAII (Michael W. Deem and Ramdas Pophale) SiO2 
 PCOD9284162
Probable space group: C 2/C
;
_chemical_formula_sum "Si O2"
_cell_formula_units_Z 60
_cell_length_a 6.482134
_cell_length_b 15.537817
_cell_length_c 27.480180
_cell_angle_alpha 90.000000
_cell_angle_beta 98.393008
_cell_angle_gamma 90.000000
_cell_volume 2738.112362
_symmetry_space_group_name_H-M "C 2/C"
_symmetry_group_IT_number 15
_symmetry_cell_setting 'monoclinic'
loop_
_space_group_symop_operation_xyz
x,y,z
-x,y,1/2-z
-x,-y,-z
x,-y,1/2+z
1/2+x,1/2+y,z
1/2-x,1/2+y,1/2-z
1/2-x,1/2-y,-z
1/2+x,1/2-y,1/2+z
loop_
_atom_site_type_symbol
_atom_site_label
_atom_site_fract_x
_atom_site_fract_y
_atom_site_fract_z
Si Si1 0.991756 0.000111 0.615065
Si Si2 0.200706 0.296826 0.121846
Si Si3 0.961385 0.255518 0.537492
Si Si4 0.149840 0.934085 0.296265
Si Si5 0.951152 0.553752 0.431714
Si Si6 0.000000 0.467923 0.750000
Si Si7 0.210816 0.383731 0.435196
Si Si8 0.813519 0.378798 0.650947
O O1 0.776218 0.990194 0.579106
O O2 0.127780 0.916126 0.610778
O O3 0.969491 0.998851 0.672933
O O4 0.140221 0.077469 0.602378
O O5 0.371809 0.269748 0.087587
O O6 0.270194 0.374143 0.158026
O O7 0.220906 0.215002 0.156885
O O8 0.981250 0.325199 0.090780
O O9 0.750000 0.250000 0.500000
O O10 0.034919 0.355788 0.538502
O O11 0.134816 0.182674 0.531456
O O12 0.000000 0.895467 0.250000
O O13 0.339651 0.974145 0.274198
O O14 0.107137 0.474137 0.451257
O O15 0.997659 0.589892 0.378364
O O16 0.121268 0.414129 0.794704
#
# Coordination Sequence:
#
# PCOD9284162 Si02
#       8
#     8   8   8   8   8   4   8   8
#     4  11  19  41  64  89 122 175 212 258 324 389
#     4  11  24  44  62  94 133 173 215 278 335 390
#     4  11  25  44  69 100 130 168 226 282 339 411
#     4  12  23  37  63  90 130 169 218 267 317 390
#     4  10  21  40  67  92 128 170 209 270 332 389
#     4  12  22  38  58  90 124 170 220 266 312 386
#     4  11  21  41  70  90 130 173 214 267 341 403
#     4  10  22  36  60  88 125 166 215 263 321 377
#
# _framework density 21.912906
#
# number of rings (size 3 to 8) (size 9 to 14) (size 15 to 20)
#    0.000    1.067    5.333    1.600    0.933    1.067 
#    0.000    4.000    0.000    0.000    0.000    0.000 
#    0.000    0.000    0.000    0.000    0.000    0.000 
#
# Total GULP energy -167018.166618 kJ/mol
# GULP energy per Si atom -5567.272221 kJ/mol
# Density = 2.186303 g / cm^3
# Si number density = 21.912906 Si / 1000 Ang^3
#
#
#
# Elastic Constant Matrix: (Units=GPa)
#
#
# Indices 1 2 3 4 5 6 
#
# 1 103.2876 52.8495 18.0909 0.0000 15.5975 0.0000
# 2 52.8495 119.2505 41.0173 0.0000 16.6042 0.0000
# 3 18.0909 41.0173 58.6491 0.0000 20.5090 0.0000
# 4 0.0000 0.0000 0.0000 24.6319 0.0000 -4.2942
# 5 15.5975 16.6042 20.5090 0.0000 42.6823 0.0000
# 6 0.0000 0.0000 0.0000 -4.2942 0.0000 18.5941
#
#
#
# Elastic Compliance Matrix: (Units=1/GPa)
#
#
# Indices 1 2 3 4 5 6 
#
# 1 0.012831 -0.005620 0.001019 0.000000 -0.002992 0.000000
# 2 -0.005620 0.013521 -0.007935 0.000000 0.000607 0.000000
# 3 0.001019 -0.007935 0.025646 0.000000 -0.009608 0.000000
# 4 0.000000 0.000000 0.000000 0.042301 0.000000 0.009769
# 5 -0.002992 0.000607 -0.009608 0.000000 0.028903 0.000000
# 6 0.000000 0.000000 0.000000 0.009769 0.000000 0.056037
#
#
# Mechanical properties :
#
#
# Convention : Reuss Voigt Hill
#
# Bulk Modulus (GPa) = 37.13919 56.12252 46.63086
# Shear Modulus (GPa) = 23.44274 28.46362 25.95318
#
# Velocity S-wave (km/s) = 3.27435 3.60800 3.44521
# Velocity P-wave (km/s) = 5.59290 6.55927 6.09527
#
# Compressibility (1/GPa) = 0.02692573
#
# Stress axis : x y z
#
# Youngs Moduli (GPa) = 77.93755 73.95726 38.99315
#
# Poissons Ratio (x) = 0.41566 -0.03974
# Poissons Ratio (y) = 0.43803 0.30940
# Poissons Ratio (z) = -0.07943 0.58684
#
# Static dielectric constant tensor:
#      x y z
#    x 1.913270 0.000000 -0.130250 
#    y 0.000000 1.979260 0.000000 
#    z -0.130250 0.000000 1.897980 
# 
# From -- ./inp_files/305811.got.cif
#   From: 2010.05.17/outbox.cif.g08.bks.cpg/sg15_153_cif.got.tgz:305811.got - 2010.06.03 18:47:42.
