data_PCOD9284438
_publ_section_title
;
Structure prediction by ZEFSAII (Michael W. Deem and Ramdas Pophale) SiO2 
 PCOD9284438
Probable space group: C 2/C
;
_chemical_formula_sum "Si O2"
_cell_formula_units_Z 44
_cell_length_a 6.990840
_cell_length_b 12.051091
_cell_length_c 22.679281
_cell_angle_alpha 90.000000
_cell_angle_beta 60.468808
_cell_angle_gamma 90.000000
_cell_volume 1662.447484
_symmetry_space_group_name_H-M "C 2/C"
_symmetry_group_IT_number 15
_symmetry_cell_setting 'monoclinic'
loop_
_space_group_symop_operation_xyz
x,y,z
-x,y,1/2-z
-x,-y,-z
x,-y,1/2+z
1/2+x,1/2+y,z
1/2-x,1/2+y,1/2-z
1/2-x,1/2-y,-z
1/2+x,1/2-y,1/2+z
loop_
_atom_site_type_symbol
_atom_site_label
_atom_site_fract_x
_atom_site_fract_y
_atom_site_fract_z
Si Si1 0.385001 0.470477 0.645184
Si Si2 0.629344 0.170353 0.566152
Si Si3 0.000000 0.584910 0.750000
Si Si4 0.717172 0.916650 0.552926
Si Si5 0.472906 0.311787 0.405735
Si Si6 0.237290 0.250752 0.298312
O O1 0.408565 0.436367 0.572968
O O2 0.517332 0.581222 0.638986
O O3 0.389316 0.367265 0.687868
O O4 0.130123 0.505876 0.686478
O O5 0.750000 0.250000 0.500000
O O6 0.788222 0.186088 0.598565
O O7 0.383461 0.206806 0.622612
O O8 0.624302 0.038753 0.552530
O O9 0.839309 0.662600 0.738338
O O10 0.565688 0.817545 0.602456
O O11 0.806764 0.858366 0.480653
O O12 0.500000 0.238929 0.250000
#
# Coordination Sequence:
#
# PCOD9284438 Si02
#       6
#     8   8   4   8   8   8
#     4  11  23  46  69  97 146 189 237 306 364 433
#     4  11  22  44  69 105 149 191 245 306 374 438
#     4  12  26  52  68 104 150 194 248 306 374 444
#     4  10  21  41  70 107 143 185 246 303 366 444
#     4  10  21  40  72 101 146 191 233 312 369 430
#     4  12  27  48  75 107 147 196 246 307 374 445
#
# _framework density 26.467001
#
# number of rings (size 3 to 8) (size 9 to 14) (size 15 to 20)
#    0.000    1.091    4.545    4.364    2.545    0.727 
#    4.909    0.000    0.000    0.000    0.000    0.000 
#    0.000    0.000    0.000    0.000    0.000    0.000 
#
# Total GULP energy -122812.864760 kJ/mol
# GULP energy per Si atom -5582.402944 kJ/mol
# Density = 2.640676 g / cm^3
# Si number density = 26.467001 Si / 1000 Ang^3
#
#
#
# Elastic Constant Matrix: (Units=GPa)
#
#
# Indices 1 2 3 4 5 6 
#
# 1 32.6424 44.8693 10.2842 0.0000 -19.4818 0.0000
# 2 44.8693 259.1512 71.8406 0.0000 -28.1763 0.0000
# 3 10.2842 71.8406 142.0540 -0.0001 -19.3485 0.0000
# 4 0.0000 0.0000 -0.0001 36.1651 0.0000 -0.7928
# 5 -19.4818 -28.1763 -19.3485 0.0000 36.3267 0.0000
# 6 0.0000 0.0000 0.0000 -0.7928 0.0000 47.1010
#
#
#
# Elastic Compliance Matrix: (Units=1/GPa)
#
#
# Indices 1 2 3 4 5 6 
#
# 1 0.055490 -0.007771 0.003391 0.000000 0.025538 0.000000
# 2 -0.007771 0.005788 -0.002502 0.000000 -0.001011 0.000000
# 3 0.003391 -0.002502 0.008672 0.000000 0.004497 0.000000
# 4 0.000000 0.000000 0.000000 0.027661 0.000000 0.000466
# 5 0.025538 -0.001011 0.004497 0.000000 0.042835 0.000000
# 6 0.000000 0.000000 0.000000 0.000466 0.000000 0.021239
#
#
# Mechanical properties :
#
#
# Convention : Reuss Voigt Hill
#
# Bulk Modulus (GPa) = 17.79811 76.42620 47.11216
# Shear Modulus (GPa) = 25.74964 44.37545 35.06255
#
# Velocity S-wave (km/s) = 3.12251 4.09911 3.64368
# Velocity P-wave (km/s) = 4.44290 7.16536 5.96162
#
# Compressibility (1/GPa) = 0.05618573
#
# Stress axis : x y z
#
# Youngs Moduli (GPa) = 18.02127 172.77259 115.31361
#
# Poissons Ratio (x) = 1.34261 -0.39104
# Poissons Ratio (y) = 0.14004 0.28854
# Poissons Ratio (z) = -0.06111 0.43232
#
# Static dielectric constant tensor:
#      x y z
#    x 2.140490 0.000000 0.012840 
#    y 0.000000 2.099780 0.000000 
#    z 0.012840 0.000000 2.385330 
# 
# From -- ./inp_files/287874.got.cif
#   From: 2010.05.17/outbox.cif.g08.bks.cpg/sg15_144_cif.got.tgz:287874.got - 2010.06.03 18:47:42.
