data_PCOD9284371
_publ_section_title
;
Structure prediction by ZEFSAII (Michael W. Deem and Ramdas Pophale) SiO2 
 PCOD9284371
Probable space group: C 2/C
;
_chemical_formula_sum "Si O2"
_cell_formula_units_Z 48
_cell_length_a 22.319635
_cell_length_b 11.618424
_cell_length_c 18.327436
_cell_angle_alpha 90.000000
_cell_angle_beta 22.978077
_cell_angle_gamma 90.000000
_cell_volume 1855.335030
_symmetry_space_group_name_H-M "C 2/C"
_symmetry_group_IT_number 15
_symmetry_cell_setting 'monoclinic'
loop_
_space_group_symop_operation_xyz
x,y,z
-x,y,1/2-z
-x,-y,-z
x,-y,1/2+z
1/2+x,1/2+y,z
1/2-x,1/2+y,1/2-z
1/2-x,1/2-y,-z
1/2+x,1/2-y,1/2+z
loop_
_atom_site_type_symbol
_atom_site_label
_atom_site_fract_x
_atom_site_fract_y
_atom_site_fract_z
Si Si1 0.293520 0.644219 0.740430
Si Si2 0.038898 0.669914 0.348855
Si Si3 0.295882 0.913690 0.591965
Si Si4 0.500000 0.326634 0.750000
Si Si5 0.000000 0.190763 0.750000
Si Si6 0.975262 0.254003 0.120344
Si Si7 0.237146 0.493920 0.532248
O O1 0.349496 0.743329 0.733870
O O2 0.301793 0.517120 0.764033
O O3 0.407703 0.661614 0.545713
O O4 0.110916 0.656193 0.932467
O O5 0.972817 0.730313 0.350163
O O6 0.122931 0.558015 0.221025
O O7 0.438003 0.876428 0.484217
O O8 0.190168 0.799528 0.711231
O O9 0.325000 0.961008 0.476561
O O10 0.526623 0.251291 0.790103
O O11 0.648682 0.405810 0.569400
O O12 0.855362 0.112756 0.889979
#
# Coordination Sequence:
#
# PCOD9284371 Si02
#       7
#     8   8   8   4   4   8   8
#     4  12  26  44  72 107 150 186 228 299 363 425
#     4  12  23  40  70 112 149 178 230 289 363 427
#     4  11  25  48  72 103 140 190 241 295 353 417
#     4   9  24  44  71  92 136 195 248 290 347 410
#     4  11  18  38  63 102 144 179 220 278 343 414
#     4  11  26  48  72 100 140 192 245 294 347 426
#     4  10  21  40  70 103 138 186 232 286 350 419
#
# _framework density 25.871338000000002
#
# number of rings (size 3 to 8) (size 9 to 14) (size 15 to 20)
#    0.000    1.000    3.333    3.000    0.000    6.667 
#    0.000    2.500    0.000    0.000    0.000    0.000 
#    0.000    0.000    0.000    0.000    0.000    0.000 
#
# Total GULP energy -134155.472509 kJ/mol
# GULP energy per Si atom -5589.811355 kJ/mol
# Density = 2.581245 g / cm^3
# Si number density = 25.871338 Si / 1000 Ang^3
#
#
#
# Elastic Constant Matrix: (Units=GPa)
#
#
# Indices 1 2 3 4 5 6 
#
# 1 93.9939 31.7928 36.0946 -0.0002 -13.9821 0.0002
# 2 31.7928 93.9089 60.0670 -0.0004 -10.8455 0.0004
# 3 36.0946 60.0670 139.9893 -0.0002 -12.3492 0.0002
# 4 -0.0002 -0.0004 -0.0002 57.2468 0.0002 0.4441
# 5 -13.9821 -10.8455 -12.3492 0.0002 40.5347 -0.0002
# 6 0.0002 0.0004 0.0002 0.4441 -0.0002 24.6331
#
#
#
# Elastic Compliance Matrix: (Units=1/GPa)
#
#
# Indices 1 2 3 4 5 6 
#
# 1 0.012741 -0.002797 -0.001812 0.000000 0.003095 0.000000
# 2 -0.002797 0.015461 -0.005788 0.000000 0.001408 0.000000
# 3 -0.001812 -0.005788 0.010176 0.000000 0.000926 0.000000
# 4 0.000000 0.000000 0.000000 0.017471 0.000000 -0.000315
# 5 0.003095 0.001408 0.000926 0.000000 0.026397 0.000000
# 6 0.000000 0.000000 0.000000 -0.000315 0.000000 0.040602
#
#
# Mechanical properties :
#
#
# Convention : Reuss Voigt Hill
#
# Bulk Modulus (GPa) = 56.87377 64.86677 60.87027
# Shear Modulus (GPa) = 33.44411 37.81209 35.62810
#
# Velocity S-wave (km/s) = 3.59933 3.82716 3.71499
# Velocity P-wave (km/s) = 6.26934 6.68258 6.47925
#
# Compressibility (1/GPa) = 0.01758280
#
# Stress axis : x y z
#
# Youngs Moduli (GPa) = 78.48518 64.67997 98.26984
#
# Poissons Ratio (x) = 0.18092 0.17806
# Poissons Ratio (y) = 0.21954 0.56883
# Poissons Ratio (z) = 0.14221 0.37440
#
# Static dielectric constant tensor:
#      x y z
#    x 2.093960 0.000000 -0.075440 
#    y 0.000000 2.016980 0.000000 
#    z -0.075440 0.000000 2.125050 
# 
# From -- ./inp_files/257626.got.cif
#   From: 2010.05.17/outbox.cif.g08.bks.cpg/sg15_129_cif.got.tgz:257626.got - 2010.06.03 18:47:42.
