data_PCOD9284571
_publ_section_title
;
Structure prediction by ZEFSAII (Michael W. Deem and Ramdas Pophale) SiO2 
 PCOD9284571
Probable space group: C 2/C
;
_chemical_formula_sum "Si O2"
_cell_formula_units_Z 48
_cell_length_a 12.645449
_cell_length_b 18.218626
_cell_length_c 13.020515
_cell_angle_alpha 90.000000
_cell_angle_beta 47.299400
_cell_angle_gamma 90.000000
_cell_volume 2204.503095
_symmetry_space_group_name_H-M "C 2/C"
_symmetry_group_IT_number 15
_symmetry_cell_setting 'monoclinic'
loop_
_space_group_symop_operation_xyz
x,y,z
-x,y,1/2-z
-x,-y,-z
x,-y,1/2+z
1/2+x,1/2+y,z
1/2-x,1/2+y,1/2-z
1/2-x,1/2-y,-z
1/2+x,1/2-y,1/2+z
loop_
_atom_site_type_symbol
_atom_site_label
_atom_site_fract_x
_atom_site_fract_y
_atom_site_fract_z
Si Si1 0.190503 0.466793 0.793309
Si Si2 0.357914 0.933319 0.000497
Si Si3 0.343064 0.717167 0.529507
Si Si4 0.345687 0.214821 0.638359
Si Si5 0.095962 0.073288 0.934233
Si Si6 0.675363 0.637514 0.442073
O O1 0.251760 0.537938 0.693622
O O2 0.284796 0.397780 0.695423
O O3 0.026418 0.449073 0.873693
O O4 0.200887 0.493761 0.904054
O O5 0.271505 0.907650 0.957979
O O6 0.345325 0.863891 0.085044
O O7 0.250000 0.750000 0.500000
O O8 0.490992 0.762010 0.442657
O O9 0.251712 0.718013 0.695700
O O10 0.381985 0.630872 0.488979
O O11 0.294936 0.276919 0.590360
O O12 0.993870 0.122042 0.925465
O O13 0.000000 0.000000 0.000000
#
# Coordination Sequence:
#
# PCOD9284571 Si02
#       6
#     8   8   8   8   8   8
#     4  10  21  41  61  97 140 166 229 284 333 424
#     4  11  22  40  67  99 130 181 220 282 354 397
#     4  11  23  43  67  99 137 184 230 284 355 414
#     4  11  23  44  67 100 141 171 238 287 336 429
#     4   9  20  43  64  92 136 175 229 283 334 426
#     4  10  22  41  66  94 135 178 224 281 350 408
#
# _framework density 21.773613999999998
#
# number of rings (size 3 to 8) (size 9 to 14) (size 15 to 20)
#    0.000    1.667    1.667    2.500    0.000    0.667 
#   21.000    1.667    0.000    0.000    0.000    0.000 
#    0.000    0.000    0.000    0.000    0.000    0.000 
#
# Total GULP energy -133764.115135 kJ/mol
# GULP energy per Si atom -5573.504797 kJ/mol
# Density = 2.172406 g / cm^3
# Si number density = 21.773614 Si / 1000 Ang^3
#
#
#
# Elastic Constant Matrix: (Units=GPa)
#
#
# Indices 1 2 3 4 5 6 
#
# 1 108.6446 52.5801 57.5156 0.0000 -1.2522 0.0000
# 2 52.5801 113.7207 37.0344 0.0000 -3.4967 0.0000
# 3 57.5156 37.0344 99.9508 0.0000 -16.4400 0.0001
# 4 0.0000 0.0000 0.0000 36.5950 0.0000 -1.6167
# 5 -1.2522 -3.4967 -16.4400 0.0000 20.1698 0.0000
# 6 0.0000 0.0000 0.0001 -1.6167 0.0000 44.0401
#
#
#
# Elastic Compliance Matrix: (Units=1/GPa)
#
#
# Indices 1 2 3 4 5 6 
#
# 1 0.015968 -0.004817 -0.008520 0.000000 -0.006789 0.000000
# 2 -0.004817 0.011492 -0.001395 0.000000 0.000556 0.000000
# 3 -0.008520 -0.001395 0.017666 0.000000 0.013629 0.000000
# 4 0.000000 0.000000 0.000000 0.027371 0.000000 0.001005
# 5 -0.006789 0.000556 0.013629 0.000000 0.060363 0.000000
# 6 0.000000 0.000000 0.000000 0.001005 0.000000 0.022743
#
#
# Mechanical properties :
#
#
# Convention : Reuss Voigt Hill
#
# Bulk Modulus (GPa) = 63.84791 68.50847 66.17819
# Shear Modulus (GPa) = 26.27602 31.84004 29.05803
#
# Velocity S-wave (km/s) = 3.47765 3.82818 3.65712
# Velocity P-wave (km/s) = 6.74630 7.14648 6.94927
#
# Compressibility (1/GPa) = 0.01566222
#
# Stress axis : x y z
#
# Youngs Moduli (GPa) = 62.62552 87.01750 56.60488
#
# Poissons Ratio (x) = 0.41916 0.48229
# Poissons Ratio (y) = 0.30166 0.07895
# Poissons Ratio (z) = 0.53359 0.12136
#
# Static dielectric constant tensor:
#      x y z
#    x 1.804370 0.000000 -0.013900 
#    y 0.000000 1.813760 0.000000 
#    z -0.013900 0.000000 1.890640 
# 
# From -- ./inp_files/89424.got.cif
#   From: 2010.05.17/outbox.cif.g08.bks.cpg/sg15_45_cif.got.tgz:89424.got - 2010.06.03 18:47:42.
