data_PCOD9284961
_publ_section_title
;
Structure prediction by ZEFSAII (Michael W. Deem and Ramdas Pophale) SiO2 
 PCOD9284961
Probable space group: C 2/C
;
_chemical_formula_sum "Si O2"
_cell_formula_units_Z 56
_cell_length_a 8.399476
_cell_length_b 16.205876
_cell_length_c 18.742567
_cell_angle_alpha 90.000000
_cell_angle_beta 73.844225
_cell_angle_gamma 90.000000
_cell_volume 2450.502220
_symmetry_space_group_name_H-M "C 2/C"
_symmetry_group_IT_number 15
_symmetry_cell_setting 'monoclinic'
loop_
_space_group_symop_operation_xyz
x,y,z
-x,y,1/2-z
-x,-y,-z
x,-y,1/2+z
1/2+x,1/2+y,z
1/2-x,1/2+y,1/2-z
1/2-x,1/2-y,-z
1/2+x,1/2-y,1/2+z
loop_
_atom_site_type_symbol
_atom_site_label
_atom_site_fract_x
_atom_site_fract_y
_atom_site_fract_z
Si Si1 0.771788 0.346687 0.515205
Si Si2 0.576063 0.850313 0.382252
Si Si3 0.446866 0.361854 0.472813
Si Si4 0.500000 0.240216 0.750000
Si Si5 0.729726 0.614216 0.180814
Si Si6 0.000000 0.626540 0.250000
Si Si7 0.823357 0.290457 0.906229
Si Si8 0.094274 0.948055 0.169008
O O1 0.750000 0.250000 0.500000
O O2 0.596385 0.380466 0.507718
O O3 0.801189 0.363712 0.594451
O O4 0.928252 0.378203 0.451295
O O5 0.503165 0.816885 0.318111
O O6 0.674631 0.771288 0.401710
O O7 0.715863 0.918147 0.353076
O O8 0.270034 0.361780 0.536811
O O9 0.439895 0.269001 0.439362
O O10 0.465927 0.418448 0.400639
O O11 0.345841 0.302653 0.776502
O O12 0.594443 0.546006 0.177319
O O13 0.857502 0.579891 0.223678
O O14 0.085491 0.678872 0.175867
O O15 0.000000 0.911897 0.250000
#
# Coordination Sequence:
#
# PCOD9284961 Si02
#       8
#     8   8   8   4   8   4   8   8
#     4  12  23  43  72 108 137 180 237 298 349 423
#     4  11  25  41  70 107 140 180 239 295 347 425
#     4  10  23  41  68 101 141 180 223 294 348 425
#     4  12  22  43  75 104 142 182 244 292 350 419
#     4  12  27  47  70 100 143 190 235 293 361 430
#     4  12  26  41  71  98 132 184 236 290 346 417
#     4  10  21  41  66 103 138 178 234 288 353 411
#     4  11  28  48  68 101 146 191 233 290 367 434
#
# _framework density 22.852459
#
# number of rings (size 3 to 8) (size 9 to 14) (size 15 to 20)
#    0.000    0.857    5.000    0.857   10.000    1.714 
#    0.000    0.000    0.000    0.000    0.000    0.000 
#    0.000    0.000    0.000    0.000    0.000    0.000 
#
# Total GULP energy -156465.783185 kJ/mol
# GULP energy per Si atom -5588.063685 kJ/mol
# Density = 2.280045 g / cm^3
# Si number density = 22.852459 Si / 1000 Ang^3
#
#
#
# Elastic Constant Matrix: (Units=GPa)
#
#
# Indices 1 2 3 4 5 6 
#
# 1 75.2047 -14.5292 33.5940 0.0000 7.2986 0.0000
# 2 -14.5292 11.5251 20.6127 0.0000 0.7961 0.0000
# 3 33.5940 20.6127 182.8948 0.0000 -11.2322 0.0000
# 4 0.0000 0.0000 0.0000 21.0860 0.0000 3.6494
# 5 7.2986 0.7961 -11.2322 0.0000 51.3485 0.0000
# 6 0.0000 0.0000 0.0000 3.6494 0.0000 19.0160
#
#
#
# Elastic Compliance Matrix: (Units=1/GPa)
#
#
# Indices 1 2 3 4 5 6 
#
# 1 0.034521 0.070786 -0.014887 0.000000 -0.009261 0.000000
# 2 0.070786 0.254817 -0.043161 0.000000 -0.023453 0.000000
# 3 -0.014887 -0.043161 0.013418 0.000000 0.005720 0.000000
# 4 0.000000 0.000000 0.000000 0.049054 0.000000 -0.009414
# 5 -0.009261 -0.023453 0.005720 0.000000 0.022406 0.000000
# 6 0.000000 0.000000 0.000000 -0.009414 0.000000 0.054394
#
#
# Mechanical properties :
#
#
# Convention : Reuss Voigt Hill
#
# Bulk Modulus (GPa) = 3.04663 38.77551 20.91107
# Shear Modulus (GPa) = 9.75522 33.61992 21.68757
#
# Velocity S-wave (km/s) = 2.06834 3.83975 3.08397
# Velocity P-wave (km/s) = 2.65332 6.05498 4.67456
#
# Compressibility (1/GPa) = 0.32823199
#
# Stress axis : x y z
#
# Youngs Moduli (GPa) = 28.96746 3.92438 74.52818
#
# Poissons Ratio (x) = -0.27779 1.10953
# Poissons Ratio (y) = -2.05048 3.21669
# Poissons Ratio (z) = 0.43125 0.16938
#
# Static dielectric constant tensor:
#      x y z
#    x 1.856050 0.000000 -0.086390 
#    y 0.000000 1.859880 0.000000 
#    z -0.086390 0.000000 1.814020 
# 
# From -- ./inp_files/190953.got.cif
#   From: 2010.05.17/outbox.cif.g08.bks.cpg/sg15_96_cif.got.tgz:190953.got - 2010.06.03 18:47:42.
