data_PCOD9284384
_publ_section_title
;
Structure prediction by ZEFSAII (Michael W. Deem and Ramdas Pophale) SiO2 
 PCOD9284384
Probable space group: C 2/C
;
_chemical_formula_sum "Si O2"
_cell_formula_units_Z 36
_cell_length_a 4.889179
_cell_length_b 27.336623
_cell_length_c 11.672263
_cell_angle_alpha 90.000000
_cell_angle_beta 79.089015
_cell_angle_gamma 90.000000
_cell_volume 1531.838749
_symmetry_space_group_name_H-M "C 2/C"
_symmetry_group_IT_number 15
_symmetry_cell_setting 'monoclinic'
loop_
_space_group_symop_operation_xyz
x,y,z
-x,y,1/2-z
-x,-y,-z
x,-y,1/2+z
1/2+x,1/2+y,z
1/2-x,1/2+y,1/2-z
1/2-x,1/2-y,-z
1/2+x,1/2-y,1/2+z
loop_
_atom_site_type_symbol
_atom_site_label
_atom_site_fract_x
_atom_site_fract_y
_atom_site_fract_z
Si Si1 0.148348 0.207892 0.134295
Si Si2 0.726055 0.822852 0.494890
Si Si3 0.500000 0.713152 0.750000
Si Si4 0.287090 0.031503 0.869631
Si Si5 0.736719 0.066542 0.001255
O O1 0.290509 0.253070 0.191293
O O2 0.000000 0.178928 0.250000
O O3 0.401725 0.184743 0.044924
O O4 0.905395 0.214120 0.060257
O O5 0.784905 0.877887 0.531426
O O6 0.822943 0.817374 0.356265
O O7 0.500000 0.038516 0.750000
O O8 0.439385 0.057718 0.964999
O O9 0.978458 0.052980 0.891054
O O10 0.249696 0.974044 0.900816
#
# Coordination Sequence:
#
# PCOD9284384 Si02
#       5
#     8   8   4   8   8
#     4  12  26  47  69  97 139 186 231 290 351 402
#     4  12  27  44  72 104 139 178 244 282 338 427
#     4  12  28  44  74  98 140 192 228 296 352 398
#     4  10  21  40  70  91 143 172 210 272 344 405
#     4  10  23  43  62 107 128 175 223 274 333 403
#
# _framework density 23.501169000000001
#
# number of rings (size 3 to 8) (size 9 to 14) (size 15 to 20)
#    0.000    0.889    2.222    3.333    6.222    1.778 
#    0.000    0.000    0.000    0.000    0.000    0.000 
#    0.000    0.000    0.000    0.000    0.000    0.000 
#
# Total GULP energy -100642.809065 kJ/mol
# GULP energy per Si atom -5591.267170 kJ/mol
# Density = 2.344768 g / cm^3
# Si number density = 23.501169 Si / 1000 Ang^3
#
#
#
# Elastic Constant Matrix: (Units=GPa)
#
#
# Indices 1 2 3 4 5 6 
#
# 1 130.4206 14.7080 27.2781 0.0000 -18.0687 0.0000
# 2 14.7080 73.9086 -0.1795 0.0000 2.4316 0.0000
# 3 27.2781 -0.1795 121.3183 0.0000 -21.4794 0.0000
# 4 0.0000 0.0000 0.0000 -2.2512 0.0000 0.0632
# 5 -18.0687 2.4316 -21.4794 0.0000 43.3511 0.0000
# 6 0.0000 0.0000 0.0000 0.0632 0.0000 8.7998
#
#
#
# Elastic Compliance Matrix: (Units=1/GPa)
#
#
# Indices 1 2 3 4 5 6 
#
# 1 0.008578 -0.001809 -0.001404 0.000000 0.002981 0.000000
# 2 -0.001809 0.013938 0.000170 0.000000 -0.001451 0.000000
# 3 -0.001404 0.000170 0.009266 0.000000 0.003997 0.000000
# 4 0.000000 0.000000 0.000000 -0.444123 0.000000 0.003190
# 5 0.002981 -0.001451 0.003997 0.000000 0.026372 0.000000
# 6 0.000000 0.000000 0.000000 0.003190 0.000000 0.113616
#
#
# Mechanical properties :
#
#
# Convention : Reuss Voigt Hill
#
# Bulk Modulus (GPa) = 38.91204 45.47339 42.19272
# Shear Modulus (GPa) = -19.40222 28.90266 4.75022
#
# Velocity S-wave (km/s) = -2.87642 3.51071 1.42326
# Velocity P-wave (km/s) = 2.35833 5.98539 4.54899
#
# Compressibility (1/GPa) = 0.02569898
#
# Stress axis : x y z
#
# Youngs Moduli (GPa) = 116.57637 71.74476 107.91880
#
# Poissons Ratio (x) = 0.12975 0.15147
# Poissons Ratio (y) = 0.21084 -0.01838
# Poissons Ratio (z) = 0.16362 -0.01222
#
# Static dielectric constant tensor:
#      x y z
#    x 1.865040 0.000000 0.021660 
#    y 0.000000 1.892270 0.000000 
#    z 0.021660 0.000000 1.911780 
# 
# From -- ./inp_files/129606.got.cif
#   From: 2010.05.17/outbox.cif.g08.bks.cpg/sg15_65_cif.got.tgz:129606.got - 2010.06.03 18:47:42.
