data_PCOD9284824
_publ_section_title
;
Structure prediction by ZEFSAII (Michael W. Deem and Ramdas Pophale) SiO2 
 PCOD9284824
Probable space group: C 2/C
;
_chemical_formula_sum "Si O2"
_cell_formula_units_Z 36
_cell_length_a 19.911716
_cell_length_b 6.552196
_cell_length_c 12.197468
_cell_angle_alpha 90.000000
_cell_angle_beta 80.658609
_cell_angle_gamma 90.000000
_cell_volume 1570.245022
_symmetry_space_group_name_H-M "C 2/C"
_symmetry_group_IT_number 15
_symmetry_cell_setting 'monoclinic'
loop_
_space_group_symop_operation_xyz
x,y,z
-x,y,1/2-z
-x,-y,-z
x,-y,1/2+z
1/2+x,1/2+y,z
1/2-x,1/2+y,1/2-z
1/2-x,1/2-y,-z
1/2+x,1/2-y,1/2+z
loop_
_atom_site_type_symbol
_atom_site_label
_atom_site_fract_x
_atom_site_fract_y
_atom_site_fract_z
Si Si1 0.795363 0.942877 0.521029
Si Si2 0.820783 0.669173 0.866652
Si Si3 0.584863 0.848414 0.537381
Si Si4 0.441552 0.754255 0.181267
Si Si5 0.500000 0.643222 0.750000
O O1 0.750000 0.750000 0.500000
O O2 0.868296 0.843049 0.516936
O O3 0.751287 0.053718 0.627026
O O4 0.804368 0.112621 0.424333
O O5 0.866905 0.536882 0.940545
O O6 0.867699 0.689440 0.748257
O O7 0.543462 0.865986 0.436040
O O8 0.545958 0.768585 0.654141
O O9 0.500000 0.826351 0.250000
O O10 0.453928 0.510352 0.188100
#
# Coordination Sequence:
#
# PCOD9284824 Si02
#       5
#     8   8   8   8   4
#     4   9  19  42  68  90 134 171 224 281 343 409
#     4  10  21  41  64  97 130 173 227 280 342 414
#     4  11  22  43  65  94 133 180 219 290 342 404
#     4  10  23  42  62  97 136 172 231 281 338 414
#     4  10  22  40  66  92 134 178 230 278 346 400
#
# _framework density 22.926359000000001
#
# number of rings (size 3 to 8) (size 9 to 14) (size 15 to 20)
#    0.667    1.333    2.222    0.667    1.556    0.889 
#   16.000    0.000    0.000    0.000    0.000    0.000 
#    0.000    0.000    0.000    0.000    0.000    0.000 
#
# Total GULP energy -100400.147005 kJ/mol
# GULP energy per Si atom -5577.785945 kJ/mol
# Density = 2.287418 g / cm^3
# Si number density = 22.926359 Si / 1000 Ang^3
#
#
#
# Elastic Constant Matrix: (Units=GPa)
#
#
# Indices 1 2 3 4 5 6 
#
# 1 48.3232 25.9752 51.3903 0.0000 -21.4184 0.0000
# 2 25.9752 129.5656 56.8712 0.0000 -14.0415 0.0000
# 3 51.3903 56.8712 130.1432 0.0000 -27.6315 0.0000
# 4 0.0000 0.0000 0.0000 34.5253 0.0000 -17.9477
# 5 -21.4184 -14.0415 -27.6315 0.0000 45.1282 0.0000
# 6 0.0000 0.0000 0.0000 -17.9477 0.0000 19.6934
#
#
#
# Elastic Compliance Matrix: (Units=1/GPa)
#
#
# Indices 1 2 3 4 5 6 
#
# 1 0.039789 -0.001138 -0.012966 0.000000 0.010591 0.000000
# 2 -0.001138 0.009591 -0.003705 0.000000 0.000176 0.000000
# 3 -0.012966 -0.003705 0.014795 0.000000 0.001752 0.000000
# 4 0.000000 0.000000 0.000000 0.055040 0.000000 0.050161
# 5 0.010591 0.000176 0.001752 0.000000 0.028314 0.000000
# 6 0.000000 0.000000 0.000000 0.050161 0.000000 0.096493
#
#
# Mechanical properties :
#
#
# Convention : Reuss Voigt Hill
#
# Bulk Modulus (GPa) = 35.01603 64.05614 49.53609
# Shear Modulus (GPa) = 17.29169 31.45575 24.37372
#
# Velocity S-wave (km/s) = 2.74930 3.70812 3.26411
# Velocity P-wave (km/s) = 5.03831 6.80692 5.98827
#
# Compressibility (1/GPa) = 0.02855835
#
# Stress axis : x y z
#
# Youngs Moduli (GPa) = 25.13286 104.26003 67.59256
#
# Poissons Ratio (x) = 0.11864 0.87637
# Poissons Ratio (y) = 0.02860 0.25041
# Poissons Ratio (z) = 0.32586 0.38625
#
# Static dielectric constant tensor:
#      x y z
#    x 2.026540 0.000000 0.094320 
#    y 0.000000 1.889170 0.000000 
#    z 0.094320 0.000000 1.908130 
# 
# From -- ./inp_files/68131.got.cif
#   From: 2010.05.17/outbox.cif.g08.bks.cpg/sg15_35_cif.got.tgz:68131.got - 2010.06.03 18:47:42.
