data_PCOD9284196
_publ_section_title
;
Structure prediction by ZEFSAII (Michael W. Deem and Ramdas Pophale) SiO2 
 PCOD9284196
Probable space group: C 2/C
;
_chemical_formula_sum "Si O2"
_cell_formula_units_Z 56
_cell_length_a 16.108541
_cell_length_b 9.533129
_cell_length_c 17.388252
_cell_angle_alpha 90.000000
_cell_angle_beta 54.574609
_cell_angle_gamma 90.000000
_cell_volume 2175.887645
_symmetry_space_group_name_H-M "C 2/C"
_symmetry_group_IT_number 15
_symmetry_cell_setting 'monoclinic'
loop_
_space_group_symop_operation_xyz
x,y,z
-x,y,1/2-z
-x,-y,-z
x,-y,1/2+z
1/2+x,1/2+y,z
1/2-x,1/2+y,1/2-z
1/2-x,1/2-y,-z
1/2+x,1/2-y,1/2+z
loop_
_atom_site_type_symbol
_atom_site_label
_atom_site_fract_x
_atom_site_fract_y
_atom_site_fract_z
Si Si1 0.297809 0.404286 0.980851
Si Si2 0.989392 0.416051 0.871376
Si Si3 0.144403 0.359380 0.277490
Si Si4 0.800914 0.664523 0.378994
Si Si5 0.183934 0.563066 0.930070
Si Si6 0.857276 0.794760 0.184904
Si Si7 0.474444 0.427208 0.673306
O O1 0.276941 0.467963 0.906623
O O2 0.418159 0.410841 0.928828
O O3 0.250000 0.250000 0.000000
O O4 0.242653 0.515719 0.067840
O O5 0.913891 0.329269 0.855761
O O6 0.062273 0.528978 0.790253
O O7 0.053489 0.307791 0.889242
O O8 0.912776 0.492032 0.971059
O O9 0.165065 0.423251 0.350970
O O10 0.259176 0.329675 0.186416
O O11 0.090050 0.211256 0.308604
O O12 0.716803 0.783175 0.443550
O O13 0.816364 0.705579 0.280978
O O14 0.911131 0.937356 0.181588
O O15 0.500000 0.434672 0.750000
#
# Coordination Sequence:
#
# PCOD9284196 Si02
#       7
#     8   8   8   8   8   8   8
#     4  11  23  41  69 105 138 174 225 285 342 406
#     4  11  20  37  64  90 121 168 214 261 321 392
#     4  11  25  41  59  93 131 167 212 273 340 395
#     4  10  21  40  67  96 127 172 222 268 326 402
#     4  10  21  42  64  89 128 174 219 269 328 403
#     4  11  23  42  64  92 128 170 219 271 326 396
#     4  12  24  43  68  95 128 173 225 283 339 402
#
# _framework density 25.736623999999999
#
# number of rings (size 3 to 8) (size 9 to 14) (size 15 to 20)
#    0.000    1.143    0.000    9.429    0.000    2.286 
#    0.000   10.714    0.000    0.000    0.000    0.000 
#    0.000    0.000    0.000    0.000    0.000    0.000 
#
# Total GULP energy -156588.869268 kJ/mol
# GULP energy per Si atom -5592.459617 kJ/mol
# Density = 2.567805 g / cm^3
# Si number density = 25.736624 Si / 1000 Ang^3
#
#
#
# Elastic Constant Matrix: (Units=GPa)
#
#
# Indices 1 2 3 4 5 6 
#
# 1 136.6371 61.1290 31.6543 0.0000 -33.0192 0.0000
# 2 61.1290 187.3462 29.1548 0.0000 -18.9686 0.0000
# 3 31.6543 29.1548 63.0722 0.0000 -37.1839 0.0000
# 4 0.0000 0.0000 0.0000 36.8045 0.0000 -5.2910
# 5 -33.0192 -18.9686 -37.1839 0.0000 49.3032 0.0000
# 6 0.0000 0.0000 0.0000 -5.2910 0.0000 57.2153
#
#
#
# Elastic Compliance Matrix: (Units=1/GPa)
#
#
# Indices 1 2 3 4 5 6 
#
# 1 0.009874 -0.002589 -0.000806 0.000000 0.005009 0.000000
# 2 -0.002589 0.006434 -0.002228 0.000000 -0.000939 0.000000
# 3 -0.000806 -0.002228 0.029648 0.000000 0.020963 0.000000
# 4 0.000000 0.000000 0.000000 0.027537 0.000000 0.002546
# 5 0.005009 -0.000939 0.020963 0.000000 0.039086 0.000000
# 6 0.000000 0.000000 0.000000 0.002546 0.000000 0.017713
#
#
# Mechanical properties :
#
#
# Convention : Reuss Voigt Hill
#
# Bulk Modulus (GPa) = 28.81032 70.10355 49.45693
# Shear Modulus (GPa) = 32.65639 46.33911 39.49775
#
# Velocity S-wave (km/s) = 3.56598 4.24785 3.92176
# Velocity P-wave (km/s) = 5.30788 7.16637 6.30597
#
# Compressibility (1/GPa) = 0.03470979
#
# Stress axis : x y z
#
# Youngs Moduli (GPa) = 101.27422 155.41797 33.72902
#
# Poissons Ratio (x) = 0.40242 0.02717
# Poissons Ratio (y) = 0.26223 0.07516
# Poissons Ratio (z) = 0.08158 0.34634
#
# Static dielectric constant tensor:
#      x y z
#    x 2.050920 0.000000 0.047360 
#    y 0.000000 2.036710 0.000000 
#    z 0.047360 0.000000 2.308110 
# 
# From -- ./inp_files/276495.got.cif
#   From: 2010.05.17/outbox.cif.g08.bks.cpg/sg15_139_cif.got.tgz:276495.got - 2010.06.03 18:47:42.
