data_PCOD9284283
_publ_section_title
;
Structure prediction by ZEFSAII (Michael W. Deem and Ramdas Pophale) SiO2 
 PCOD9284283
Probable space group: C 2/C
;
_chemical_formula_sum "Si O2"
_cell_formula_units_Z 56
_cell_length_a 25.625622
_cell_length_b 10.260512
_cell_length_c 14.747131
_cell_angle_alpha 90.000000
_cell_angle_beta 140.656611
_cell_angle_gamma 90.000000
_cell_volume 2458.201258
_symmetry_space_group_name_H-M "C 2/C"
_symmetry_group_IT_number 15
_symmetry_cell_setting 'monoclinic'
loop_
_space_group_symop_operation_xyz
x,y,z
-x,y,1/2-z
-x,-y,-z
x,-y,1/2+z
1/2+x,1/2+y,z
1/2-x,1/2+y,1/2-z
1/2-x,1/2-y,-z
1/2+x,1/2-y,1/2+z
loop_
_atom_site_type_symbol
_atom_site_label
_atom_site_fract_x
_atom_site_fract_y
_atom_site_fract_z
Si Si1 0.837448 0.600588 0.117233
Si Si2 0.186845 0.204813 0.188907
Si Si3 0.969593 0.070825 0.811293
Si Si4 0.812747 0.482548 0.392118
Si Si5 0.826253 0.114609 0.524268
Si Si6 0.481765 0.320784 0.937564
Si Si7 0.998230 0.459626 0.101994
O O1 0.845810 0.752823 0.106293
O O2 0.921952 0.525494 0.246517
O O3 0.790862 0.551223 0.965446
O O4 0.770667 0.585828 0.106547
O O5 0.207608 0.356346 0.197216
O O6 0.266704 0.116599 0.310805
O O7 0.115219 0.188031 0.166625
O O8 0.148832 0.145312 0.044767
O O9 0.008055 0.945706 0.913873
O O10 0.000000 0.112352 0.750000
O O11 0.880198 0.017855 0.656635
O O12 0.974663 0.172249 0.903437
O O13 0.911453 0.493271 0.523302
O O14 0.500617 0.195735 0.902078
O O15 0.000000 0.500000 0.000000
#
# Coordination Sequence:
#
# PCOD9284283 Si02
#       7
#     8   8   8   8   8   8   8
#     4  10  23  41  66 100 133 178 231 290 355 416
#     4  11  23  44  67 103 136 187 237 291 359 423
#     4  11  23  43  67 100 142 186 232 293 351 431
#     4  11  25  43  71 100 142 185 238 296 357 425
#     4  10  21  40  68  95 135 183 234 286 345 425
#     4  11  25  42  69 102 140 185 238 291 361 418
#     4  12  23  43  67  99 135 182 236 294 350 426
#
# _framework density 22.780884
#
# number of rings (size 3 to 8) (size 9 to 14) (size 15 to 20)
#    0.000    1.143    2.857    3.000    0.000    5.714 
#    2.571    1.429    0.000    0.000    0.000    0.000 
#    0.000    0.000    0.000    0.000    0.000    0.000 
#
# Total GULP energy -156129.854035 kJ/mol
# GULP energy per Si atom -5576.066216 kJ/mol
# Density = 2.272903 g / cm^3
# Si number density = 22.780884 Si / 1000 Ang^3
#
#
#
# Elastic Constant Matrix: (Units=GPa)
#
#
# Indices 1 2 3 4 5 6 
#
# 1 67.2488 9.7302 0.1566 0.0000 -7.0218 0.0000
# 2 9.7302 98.8318 23.6266 0.0000 9.4863 0.0000
# 3 0.1566 23.6266 75.7135 0.0000 7.1607 0.0000
# 4 0.0000 0.0000 0.0000 25.0913 0.0000 5.0956
# 5 -7.0218 9.4863 7.1607 0.0000 31.7360 0.0000
# 6 0.0000 0.0000 0.0000 5.0956 0.0000 25.5092
#
#
#
# Elastic Compliance Matrix: (Units=1/GPa)
#
#
# Indices 1 2 3 4 5 6 
#
# 1 0.015570 -0.001964 0.000204 0.000000 0.003986 0.000000
# 2 -0.001964 0.011388 -0.003256 0.000000 -0.003104 0.000000
# 3 0.000204 -0.003256 0.014435 0.000000 -0.002239 0.000000
# 4 0.000000 0.000000 0.000000 0.041540 0.000000 -0.008298
# 5 0.003986 -0.003104 -0.002239 0.000000 0.033825 0.000000
# 6 0.000000 0.000000 0.000000 -0.008298 0.000000 0.040859
#
#
# Mechanical properties :
#
#
# Convention : Reuss Voigt Hill
#
# Bulk Modulus (GPa) = 31.88771 34.31344 33.10057
# Shear Modulus (GPa) = 28.07368 30.35269 29.21318
#
# Velocity S-wave (km/s) = 3.51427 3.65413 3.58488
# Velocity P-wave (km/s) = 5.52221 5.73573 5.62998
#
# Compressibility (1/GPa) = 0.03136005
#
# Stress axis : x y z
#
# Youngs Moduli (GPa) = 64.22564 87.81259 69.27594
#
# Poissons Ratio (x) = 0.17248 -0.01411
# Poissons Ratio (y) = 0.12615 0.22556
# Poissons Ratio (z) = -0.01309 0.28592
#
# Static dielectric constant tensor:
#      x y z
#    x 2.029930 0.000000 0.009700 
#    y 0.000000 1.971990 0.000000 
#    z 0.009700 0.000000 1.937230 
# 
# From -- ./inp_files/177591.got.cif
#   From: 2010.05.17/outbox.cif.g08.bks.cpg/sg15_89_cif.got.tgz:177591.got - 2010.06.03 18:47:42.
