data_PCOD9284924
_publ_section_title
;
Structure prediction by ZEFSAII (Michael W. Deem and Ramdas Pophale) SiO2 
 PCOD9284924
Probable space group: C 2/C
;
_chemical_formula_sum "Si O2"
_cell_formula_units_Z 40
_cell_length_a 22.858716
_cell_length_b 7.619952
_cell_length_c 9.636398
_cell_angle_alpha 90.000000
_cell_angle_beta 75.681418
_cell_angle_gamma 90.000000
_cell_volume 1626.348815
_symmetry_space_group_name_H-M "C 2/C"
_symmetry_group_IT_number 15
_symmetry_cell_setting 'monoclinic'
loop_
_space_group_symop_operation_xyz
x,y,z
-x,y,1/2-z
-x,-y,-z
x,-y,1/2+z
1/2+x,1/2+y,z
1/2-x,1/2+y,1/2-z
1/2-x,1/2-y,-z
1/2+x,1/2-y,1/2+z
loop_
_atom_site_type_symbol
_atom_site_label
_atom_site_fract_x
_atom_site_fract_y
_atom_site_fract_z
Si Si1 0.153361 0.420324 0.414317
Si Si2 0.957660 0.517800 0.159998
Si Si3 0.432757 0.632952 0.305481
Si Si4 0.734156 0.917756 0.101294
Si Si5 0.367832 0.460247 0.581157
O O1 0.107292 0.559641 0.371585
O O2 0.201698 0.377902 0.265370
O O3 0.188049 0.478264 0.530561
O O4 0.118355 0.240813 0.470679
O O5 0.938943 0.336060 0.253303
O O6 0.000000 0.612854 0.250000
O O7 0.000000 0.500000 0.000000
O O8 0.500000 0.560753 0.250000
O O9 0.407916 0.594691 0.471127
O O10 0.386506 0.536648 0.230163
O O11 0.797579 0.008948 0.095868
O O12 0.750000 0.750000 0.000000
#
# Coordination Sequence:
#
# PCOD9284924 Si02
#       5
#     8   8   8   8   8
#     4  11  24  42  64  97 131 174 218 266 326 388
#     4  10  21  41  65  95 132 169 211 265 323 384
#     4  10  22  42  66  95 128 172 218 266 322 386
#     4  12  24  42  67  97 132 172 219 273 326 385
#     4  11  23  43  66  94 132 173 217 266 322 389
#
# _framework density 24.594971000000001
#
# number of rings (size 3 to 8) (size 9 to 14) (size 15 to 20)
#    0.000    1.200    0.000    7.200    0.000    3.200 
#    0.000   16.000    0.000    0.000    0.000    0.000 
#    0.000    0.000    0.000    0.000    0.000    0.000 
#
# Total GULP energy -111816.615095 kJ/mol
# GULP energy per Si atom -5590.830755 kJ/mol
# Density = 2.453899 g / cm^3
# Si number density = 24.594971 Si / 1000 Ang^3
#
#
#
# Elastic Constant Matrix: (Units=GPa)
#
#
# Indices 1 2 3 4 5 6 
#
# 1 142.1891 4.0351 -11.5785 0.0000 17.2338 0.0000
# 2 4.0351 77.2860 25.0071 0.0000 -1.9784 0.0000
# 3 -11.5785 25.0071 79.9160 0.0000 -15.4140 0.0000
# 4 0.0000 0.0000 0.0000 219.3390 0.0000 163.4587
# 5 17.2338 -1.9784 -15.4140 0.0000 51.6651 0.0000
# 6 0.0000 0.0000 0.0000 163.4587 0.0000 173.0734
#
#
#
# Elastic Compliance Matrix: (Units=1/GPa)
#
#
# Indices 1 2 3 4 5 6 
#
# 1 0.007395 -0.000724 0.000867 0.000000 -0.002236 0.000000
# 2 -0.000724 0.014502 -0.004763 0.000000 -0.000624 0.000000
# 3 0.000867 -0.004763 0.014895 0.000000 0.003972 0.000000
# 4 0.000000 0.000000 0.000000 0.015394 0.000000 -0.014539
# 5 -0.002236 -0.000624 0.003972 0.000000 0.021263 0.000000
# 6 0.000000 0.000000 0.000000 -0.014539 0.000000 0.019509
#
#
# Mechanical properties :
#
#
# Convention : Reuss Voigt Hill
#
# Bulk Modulus (GPa) = 36.29536 37.14651 36.72094
# Shear Modulus (GPa) = 44.89047 107.61064 76.25056
#
# Velocity S-wave (km/s) = 4.27686 6.62179 5.57403
# Velocity P-wave (km/s) = 6.25923 8.57906 7.50927
#
# Compressibility (1/GPa) = 0.02755173
#
# Stress axis : x y z
#
# Youngs Moduli (GPa) = 135.22665 68.95615 67.13486
#
# Poissons Ratio (x) = 0.04991 -0.05818
# Poissons Ratio (y) = 0.09787 0.31978
# Poissons Ratio (z) = -0.11719 0.32845
#
# Static dielectric constant tensor:
#      x y z
#    x 2.084460 0.000000 0.077220 
#    y 0.000000 2.038170 0.000000 
#    z 0.077220 0.000000 1.896900 
# 
# From -- ./inp_files/59944.got.cif
#   From: 2010.05.17/outbox.cif.g08.bks.cpg/sg15_30_cif.got.tgz:59944.got - 2010.06.03 18:47:42.
