data_PCOD9284416
_publ_section_title
;
Structure prediction by ZEFSAII (Michael W. Deem and Ramdas Pophale) SiO2 
 PCOD9284416
Probable space group: C 2/C
;
_chemical_formula_sum "Si O2"
_cell_formula_units_Z 40
_cell_length_a 13.423180
_cell_length_b 9.566473
_cell_length_c 14.901747
_cell_angle_alpha 90.000000
_cell_angle_beta 125.643717
_cell_angle_gamma 90.000000
_cell_volume 1555.075177
_symmetry_space_group_name_H-M "C 2/C"
_symmetry_group_IT_number 15
_symmetry_cell_setting 'monoclinic'
loop_
_space_group_symop_operation_xyz
x,y,z
-x,y,1/2-z
-x,-y,-z
x,-y,1/2+z
1/2+x,1/2+y,z
1/2-x,1/2+y,1/2-z
1/2-x,1/2-y,-z
1/2+x,1/2-y,1/2+z
loop_
_atom_site_type_symbol
_atom_site_label
_atom_site_fract_x
_atom_site_fract_y
_atom_site_fract_z
Si Si1 0.589617 0.483046 0.155596
Si Si2 0.000000 0.197939 0.250000
Si Si3 0.004408 0.717472 0.057539
Si Si4 0.293249 0.005979 0.414500
Si Si5 0.293708 0.930551 0.113185
Si Si6 0.000000 0.348068 0.750000
O O1 0.518752 0.613709 0.165501
O O2 0.493919 0.383370 0.047843
O O3 0.679173 0.464560 0.293141
O O4 0.700675 0.466137 0.142616
O O5 0.879380 0.296436 0.178363
O O6 0.118013 0.631551 0.075145
O O7 0.035597 0.728198 0.179637
O O8 0.884369 0.628846 0.969957
O O9 0.248951 0.060720 0.487730
O O10 0.389391 0.056401 0.163914
#
# Coordination Sequence:
#
# PCOD9284416 Si02
#       6
#     8   4   8   8   8   4
#     4  12  24  46  75 110 154 193 251 331 376 448
#     4  11  27  46  72 114 157 197 262 320 364 467
#     4  10  21  40  71 105 147 193 254 304 377 469
#     4  10  23  47  75 106 149 211 248 307 403 452
#     4  10  23  45  76  99 151 201 249 313 381 450
#     4   9  17  40  64  98 133 195 238 300 368 441
#
# _framework density 25.722228999999999
#
# number of rings (size 3 to 8) (size 9 to 14) (size 15 to 20)
#    0.000    1.600    2.000    1.800    2.800    3.200 
#    0.000   15.000    0.000    0.000    0.000    0.000 
#    0.000    0.000    0.000    0.000    0.000    0.000 
#
# Total GULP energy -111376.150655 kJ/mol
# GULP energy per Si atom -5568.807533 kJ/mol
# Density = 2.566368 g / cm^3
# Si number density = 25.722229 Si / 1000 Ang^3
#
#
#
# Elastic Constant Matrix: (Units=GPa)
#
#
# Indices 1 2 3 4 5 6 
#
# 1 105.7751 31.7635 62.9428 0.0000 -23.9453 0.0000
# 2 31.7635 137.6049 35.2998 0.0000 -2.4500 0.0000
# 3 62.9428 35.2998 72.9526 0.0000 1.8267 0.0000
# 4 0.0000 0.0000 0.0000 103.4631 0.0000 -27.2113
# 5 -23.9453 -2.4500 1.8267 0.0000 61.9061 0.0000
# 6 0.0000 0.0000 0.0000 -27.2113 0.0000 45.5571
#
#
#
# Elastic Compliance Matrix: (Units=1/GPa)
#
#
# Indices 1 2 3 4 5 6 
#
# 1 0.024426 0.000014 -0.021334 0.000000 0.010078 0.000000
# 2 0.000014 0.008309 -0.004044 0.000000 0.000454 0.000000
# 3 -0.021334 -0.004044 0.034307 0.000000 -0.009424 0.000000
# 4 0.000000 0.000000 0.000000 0.011467 0.000000 0.006849
# 5 0.010078 0.000454 -0.009424 0.000000 0.020348 0.000000
# 6 0.000000 0.000000 0.000000 0.006849 0.000000 0.026041
#
#
# Mechanical properties :
#
#
# Convention : Reuss Voigt Hill
#
# Bulk Modulus (GPa) = 61.29450 64.03830 62.66640
# Shear Modulus (GPa) = 27.61438 54.60702 41.11070
#
# Velocity S-wave (km/s) = 3.28008 4.61255 4.00216
# Velocity P-wave (km/s) = 6.18275 7.30189 6.76550
#
# Compressibility (1/GPa) = 0.01631468
#
# Stress axis : x y z
#
# Youngs Moduli (GPa) = 40.93937 120.34440 29.14855
#
# Poissons Ratio (x) = -0.00167 0.62185
# Poissons Ratio (y) = -0.00057 0.11788
# Poissons Ratio (z) = 0.87340 0.48668
#
# Static dielectric constant tensor:
#      x y z
#    x 1.398170 0.000000 1.368650 
#    y 0.000000 -0.436940 0.000000 
#    z 1.368650 0.000000 -1.312360 
# 
# From -- ./inp_files/202863.got.cif
#   From: 2010.05.17/outbox.cif.g08.bks.cpg/sg15_102_cif.got.tgz:202863.got - 2010.06.03 18:47:42.
