data_PCOD9284419
_publ_section_title
;
Structure prediction by ZEFSAII (Michael W. Deem and Ramdas Pophale) SiO2 
 PCOD9284419
Probable space group: C 2/C
;
_chemical_formula_sum "Si O2"
_cell_formula_units_Z 48
_cell_length_a 8.082435
_cell_length_b 13.167115
_cell_length_c 17.365859
_cell_angle_alpha 90.000000
_cell_angle_beta 98.503308
_cell_angle_gamma 90.000000
_cell_volume 1827.799816
_symmetry_space_group_name_H-M "C 2/C"
_symmetry_group_IT_number 15
_symmetry_cell_setting 'monoclinic'
loop_
_space_group_symop_operation_xyz
x,y,z
-x,y,1/2-z
-x,-y,-z
x,-y,1/2+z
1/2+x,1/2+y,z
1/2-x,1/2+y,1/2-z
1/2-x,1/2-y,-z
1/2+x,1/2-y,1/2+z
loop_
_atom_site_type_symbol
_atom_site_label
_atom_site_fract_x
_atom_site_fract_y
_atom_site_fract_z
Si Si1 0.347537 0.684123 0.297596
Si Si2 0.346408 0.681033 0.943410
Si Si3 0.649291 0.627086 0.809210
Si Si4 0.089786 0.369722 0.645912
Si Si5 0.152817 0.542528 0.811956
Si Si6 0.082015 0.954977 0.914684
O O1 0.500000 0.701772 0.250000
O O2 0.286291 0.786988 0.334231
O O3 0.211803 0.955094 0.249089
O O4 0.572809 0.602972 0.137925
O O5 0.217991 0.625155 0.876835
O O6 0.250000 0.750000 0.000000
O O7 0.049291 0.735513 0.098795
O O8 0.422360 0.589771 0.999758
O O9 0.500000 0.675118 0.750000
O O10 0.692196 0.847325 0.731792
O O11 0.586636 0.567901 0.879495
O O12 0.233445 0.420481 0.603095
O O13 0.933830 0.445920 0.649979
O O14 0.000000 0.580206 0.750000
#
# Coordination Sequence:
#
# PCOD9284419 Si02
#       6
#     8   8   8   8   8   8
#     4  10  22  44  73 105 147 193 255 313 378 450
#     4  10  24  42  67 114 162 194 254 316 394 468
#     4  12  25  45  73 111 148 200 267 321 373 458
#     4  10  21  40  71 109 145 201 258 315 371 462
#     4  12  25  44  76 112 146 204 270 315 381 468
#     4  10  23  41  68 111 155 197 243 317 387 456
#
# _framework density 26.261082999999999
#
# number of rings (size 3 to 8) (size 9 to 14) (size 15 to 20)
#    0.000    1.333    3.333    2.000    4.667    4.667 
#    0.000    0.833    0.000    2.000    0.000    0.000 
#    0.000    0.000    0.000    0.000    0.000    0.000 
#
# Total GULP energy -134073.715523 kJ/mol
# GULP energy per Si atom -5586.404813 kJ/mol
# Density = 2.620131 g / cm^3
# Si number density = 26.261083 Si / 1000 Ang^3
#
#
#
# Elastic Constant Matrix: (Units=GPa)
#
#
# Indices 1 2 3 4 5 6 
#
# 1 133.7233 44.1634 35.1386 0.0000 -21.9656 0.0000
# 2 44.1634 162.7843 37.5164 0.0000 -2.0145 0.0000
# 3 35.1386 37.5164 157.6466 0.0000 -26.0128 0.0000
# 4 0.0000 0.0000 0.0000 45.5654 0.0000 5.7158
# 5 -21.9656 -2.0145 -26.0128 0.0000 41.2675 0.0000
# 6 0.0000 0.0000 0.0000 5.7158 0.0000 64.6300
#
#
#
# Elastic Compliance Matrix: (Units=1/GPa)
#
#
# Indices 1 2 3 4 5 6 
#
# 1 0.009125 -0.002238 -0.000801 0.000000 0.004243 0.000000
# 2 -0.002238 0.007069 -0.001476 0.000000 -0.001777 0.000000
# 3 -0.000801 -0.001476 0.007579 0.000000 0.004279 0.000000
# 4 0.000000 0.000000 0.000000 0.022193 0.000000 -0.001963
# 5 0.004243 -0.001777 0.004279 0.000000 0.029101 0.000000
# 6 0.000000 0.000000 0.000000 -0.001963 0.000000 0.015646
#
#
# Mechanical properties :
#
#
# Convention : Reuss Voigt Hill
#
# Bulk Modulus (GPa) = 67.83913 76.42121 72.13017
# Shear Modulus (GPa) = 47.77452 52.78165 50.27809
#
# Velocity S-wave (km/s) = 4.26985 4.48803 4.38030
# Velocity P-wave (km/s) = 7.08502 7.48467 7.28759
#
# Compressibility (1/GPa) = 0.01474076
#
# Stress axis : x y z
#
# Youngs Moduli (GPa) = 109.59141 141.46931 131.93809
#
# Poissons Ratio (x) = 0.31667 0.10570
# Poissons Ratio (y) = 0.24531 0.19480
# Poissons Ratio (z) = 0.08779 0.20888
#
# Static dielectric constant tensor:
#      x y z
#    x 2.136750 0.000000 -0.051420 
#    y 0.000000 2.284980 0.000000 
#    z -0.051420 0.000000 2.023860 
# 
# From -- ./inp_files/196220.got.cif
#   From: 2010.05.17/outbox.cif.g08.bks.cpg/sg15_99_cif.got.tgz:196220.got - 2010.06.03 18:47:42.
