data_PCOD9284779
_publ_section_title
;
Structure prediction by ZEFSAII (Michael W. Deem and Ramdas Pophale) SiO2 
 PCOD9284779
Probable space group: C 2/C
;
_chemical_formula_sum "Si O2"
_cell_formula_units_Z 44
_cell_length_a 19.335235
_cell_length_b 21.909473
_cell_length_c 5.059337
_cell_angle_alpha 90.000000
_cell_angle_beta 61.276867
_cell_angle_gamma 90.000000
_cell_volume 1879.537168
_symmetry_space_group_name_H-M "C 2/C"
_symmetry_group_IT_number 15
_symmetry_cell_setting 'monoclinic'
loop_
_space_group_symop_operation_xyz
x,y,z
-x,y,1/2-z
-x,-y,-z
x,-y,1/2+z
1/2+x,1/2+y,z
1/2-x,1/2+y,1/2-z
1/2-x,1/2-y,-z
1/2+x,1/2-y,1/2+z
loop_
_atom_site_type_symbol
_atom_site_label
_atom_site_fract_x
_atom_site_fract_y
_atom_site_fract_z
Si Si1 0.087716 0.654835 0.469774
Si Si2 0.393539 0.327325 0.593282
Si Si3 0.307276 0.038451 0.108900
Si Si4 0.381655 0.538877 0.026892
Si Si5 0.000000 0.730375 0.250000
Si Si6 0.176568 0.772876 0.305790
O O1 0.138983 0.594617 0.400294
O O2 0.138911 0.710423 0.486901
O O3 0.000000 0.646896 0.750000
O O4 0.067889 0.684392 0.220828
O O5 0.418210 0.397288 0.547965
O O6 0.462957 0.278596 0.524612
O O7 0.369836 0.310025 0.336928
O O8 0.324037 0.315631 0.934374
O O9 0.213546 0.050893 0.299403
O O10 0.323989 0.983001 0.280628
O O11 0.400477 0.486422 0.203766
O O12 0.250000 0.750000 0.000000
#
# Coordination Sequence:
#
# PCOD9284779 Si02
#       6
#     8   8   8   8   4   8
#     4  11  23  41  62  87 131 166 208 258 314 378
#     4  11  22  40  64  91 128 165 207 264 328 376
#     4  10  24  40  61  88 121 164 212 257 307 368
#     4  10  21  41  64  92 125 164 212 267 317 374
#     4  10  24  42  62  94 130 170 208 264 322 394
#     4  11  23  38  63  95 122 164 217 268 318 376
#
# _framework density 23.410017
#
# number of rings (size 3 to 8) (size 9 to 14) (size 15 to 20)
#    0.000    1.455    1.818    2.727    2.545    3.636 
#    0.000    0.909    0.000    0.000    0.000    0.000 
#    0.000    0.000    0.000    0.000    0.000    0.000 
#
# Total GULP energy -122749.840099 kJ/mol
# GULP energy per Si atom -5579.538186 kJ/mol
# Density = 2.335674 g / cm^3
# Si number density = 23.410017 Si / 1000 Ang^3
#
#
#
# Elastic Constant Matrix: (Units=GPa)
#
#
# Indices 1 2 3 4 5 6 
#
# 1 40.3480 23.6057 43.1576 0.0000 0.2382 0.0000
# 2 23.6057 99.4654 31.7568 0.0000 -6.5180 0.0000
# 3 43.1576 31.7568 89.8910 0.0000 -3.2195 0.0000
# 4 0.0000 0.0000 0.0000 22.7349 0.0000 10.9057
# 5 0.2382 -6.5180 -3.2195 0.0000 37.0449 0.0000
# 6 0.0000 0.0000 0.0000 10.9057 0.0000 27.0212
#
#
#
# Elastic Compliance Matrix: (Units=1/GPa)
#
#
# Indices 1 2 3 4 5 6 
#
# 1 0.053499 -0.005272 -0.023943 0.000000 -0.003352 0.000000
# 2 -0.005272 0.011953 -0.001620 0.000000 0.001996 0.000000
# 3 -0.023943 -0.001620 0.023260 0.000000 0.001890 0.000000
# 4 0.000000 0.000000 0.000000 0.054545 0.000000 -0.022014
# 5 -0.003352 0.001996 0.001890 0.000000 0.027531 0.000000
# 6 0.000000 0.000000 0.000000 -0.022014 0.000000 0.045893
#
#
# Mechanical properties :
#
#
# Convention : Reuss Voigt Hill
#
# Bulk Modulus (GPa) = 36.98004 47.41607 42.19805
# Shear Modulus (GPa) = 17.39946 26.10581 21.75264
#
# Velocity S-wave (km/s) = 2.72922 3.34302 3.05159
# Velocity P-wave (km/s) = 5.07567 5.93292 5.52096
#
# Compressibility (1/GPa) = 0.02704162
#
# Stress axis : x y z
#
# Youngs Moduli (GPa) = 18.69204 83.66093 42.99247
#
# Poissons Ratio (x) = 0.44106 1.02936
# Poissons Ratio (y) = 0.09854 0.06965
# Poissons Ratio (z) = 0.44754 0.13554
#
# Static dielectric constant tensor:
#      x y z
#    x 2.003220 0.000000 -0.030380 
#    y 0.000000 1.838790 0.000000 
#    z -0.030380 0.000000 1.940170 
# 
# From -- ./inp_files/13091.got.cif
#   From: 2010.05.17/outbox.cif.g08.bks.cpg/sg15_7_cif.got.tgz:13091.got - 2010.06.03 18:47:42.
