data_PCOD9284529
_publ_section_title
;
Structure prediction by ZEFSAII (Michael W. Deem and Ramdas Pophale) SiO2 
 PCOD9284529
Probable space group: C 2/C
;
_chemical_formula_sum "Si O2"
_cell_formula_units_Z 56
_cell_length_a 15.297415
_cell_length_b 29.110551
_cell_length_c 8.502086
_cell_angle_alpha 90.000000
_cell_angle_beta 40.230189
_cell_angle_gamma 90.000000
_cell_volume 2445.301326
_symmetry_space_group_name_H-M "C 2/C"
_symmetry_group_IT_number 15
_symmetry_cell_setting 'monoclinic'
loop_
_space_group_symop_operation_xyz
x,y,z
-x,y,1/2-z
-x,-y,-z
x,-y,1/2+z
1/2+x,1/2+y,z
1/2-x,1/2+y,1/2-z
1/2-x,1/2-y,-z
1/2+x,1/2-y,1/2+z
loop_
_atom_site_type_symbol
_atom_site_label
_atom_site_fract_x
_atom_site_fract_y
_atom_site_fract_z
Si Si1 0.057015 0.297943 0.991872
Si Si2 0.240453 0.517080 0.052801
Si Si3 0.296475 0.625315 0.672071
Si Si4 0.739489 0.225629 0.684067
Si Si5 0.094834 0.964293 0.453944
Si Si6 0.072710 0.569258 0.815506
Si Si7 0.661111 0.109910 0.194369
O O1 0.175046 0.259730 0.822434
O O2 0.127413 0.345235 0.841697
O O3 0.000000 0.301640 0.250000
O O4 0.921612 0.285541 0.076184
O O5 0.361355 0.484039 0.940812
O O6 0.114539 0.483685 0.244585
O O7 0.254674 0.566473 0.120261
O O8 0.264169 0.530037 0.839874
O O9 0.316479 0.677022 0.589535
O O10 0.423143 0.590445 0.520806
O O11 0.202468 0.601183 0.669441
O O12 0.217162 0.626279 0.949131
O O13 0.750000 0.250000 0.500000
O O14 0.000000 0.000000 0.500000
O O15 0.000000 0.580956 0.750000
O O16 0.978322 0.581500 0.093822
#
# Coordination Sequence:
#
# PCOD9284529 Si02
#       7
#     8   8   8   8   8   8   8
#     4  10  22  41  67  93 128 171 220 278 338 402
#     4  10  22  37  57  94 126 167 213 262 315 389
#     4  10  23  40  63  92 126 171 217 269 335 387
#     4  10  22  43  65  94 127 167 225 284 338 400
#     4  10  21  41  61  86 129 176 217 261 318 392
#     4  11  21  35  61  93 129 164 209 257 324 389
#     4  11  21  37  62  90 129 164 207 267 332 390
#
# _framework density 22.901064999999999
#
# number of rings (size 3 to 8) (size 9 to 14) (size 15 to 20)
#    0.000    1.714    1.429    2.571    2.000    2.857 
#    2.571    7.143    0.000    0.000    0.000    0.000 
#    0.000    0.000    0.000    0.000    0.000    0.000 
#
# Total GULP energy -155873.333665 kJ/mol
# GULP energy per Si atom -5566.904774 kJ/mol
# Density = 2.284894 g / cm^3
# Si number density = 22.901065 Si / 1000 Ang^3
#
#
#
# Elastic Constant Matrix: (Units=GPa)
#
#
# Indices 1 2 3 4 5 6 
#
# 1 61.6145 41.1683 3.1093 0.0000 -0.4209 0.0000
# 2 41.1683 230.3270 33.5309 0.0000 1.8217 0.0000
# 3 3.1093 33.5309 73.5407 0.0000 17.8280 0.0000
# 4 0.0000 0.0000 0.0000 26.3822 0.0000 1.6801
# 5 -0.4209 1.8217 17.8280 0.0000 20.9191 0.0000
# 6 0.0000 0.0000 0.0000 1.6801 0.0000 29.3713
#
#
#
# Elastic Compliance Matrix: (Units=1/GPa)
#
#
# Indices 1 2 3 4 5 6 
#
# 1 0.018472 -0.003414 0.000773 0.000000 0.000010 0.000000
# 2 -0.003414 0.005334 -0.002720 0.000000 0.001785 0.000000
# 3 0.000773 -0.002720 0.018584 0.000000 -0.015585 0.000000
# 4 0.000000 0.000000 0.000000 0.038043 0.000000 -0.002176
# 5 0.000010 0.001785 -0.015585 0.000000 0.060930 0.000000
# 6 0.000000 0.000000 0.000000 -0.002176 0.000000 0.034171
#
#
# Mechanical properties :
#
#
# Convention : Reuss Voigt Hill
#
# Bulk Modulus (GPa) = 31.57837 57.89990 44.73914
# Shear Modulus (GPa) = 25.40482 34.51277 29.95880
#
# Velocity S-wave (km/s) = 3.33427 3.88627 3.62081
# Velocity P-wave (km/s) = 5.35184 6.74351 6.08757
#
# Compressibility (1/GPa) = 0.03166724
#
# Stress axis : x y z
#
# Youngs Moduli (GPa) = 54.13496 187.48190 53.81020
#
# Poissons Ratio (x) = 0.64014 -0.04162
# Poissons Ratio (y) = 0.18484 0.14638
# Poissons Ratio (z) = -0.04187 0.51002
#
# Static dielectric constant tensor:
#      x y z
#    x 1.920770 0.000000 -0.061810 
#    y 0.000000 1.897860 0.000000 
#    z -0.061810 0.000000 2.030740 
# 
# From -- ./inp_files/52282.got.cif
#   From: 2010.05.17/outbox.cif.g08.bks.cpg/sg15_27_cif.got.tgz:52282.got - 2010.06.03 18:47:42.
