data_PCOD9284593
_publ_section_title
;
Structure prediction by ZEFSAII (Michael W. Deem and Ramdas Pophale) SiO2 
 PCOD9284593
Probable space group: C 2/C
;
_chemical_formula_sum "Si O2"
_cell_formula_units_Z 52
_cell_length_a 16.357515
_cell_length_b 8.662638
_cell_length_c 30.215255
_cell_angle_alpha 90.000000
_cell_angle_beta 140.144456
_cell_angle_gamma 90.000000
_cell_volume 2743.803381
_symmetry_space_group_name_H-M "C 2/C"
_symmetry_group_IT_number 15
_symmetry_cell_setting 'monoclinic'
loop_
_space_group_symop_operation_xyz
x,y,z
-x,y,1/2-z
-x,-y,-z
x,-y,1/2+z
1/2+x,1/2+y,z
1/2-x,1/2+y,1/2-z
1/2-x,1/2-y,-z
1/2+x,1/2-y,1/2+z
loop_
_atom_site_type_symbol
_atom_site_label
_atom_site_fract_x
_atom_site_fract_y
_atom_site_fract_z
Si Si1 0.130507 0.789462 0.324325
Si Si2 0.889917 0.730527 0.781591
Si Si3 0.104391 0.187435 0.441462
Si Si4 0.500000 0.017148 0.750000
Si Si5 0.706973 0.390819 0.452864
Si Si6 0.026542 0.544515 0.961068
Si Si7 0.276141 0.969392 0.310453
O O1 0.106894 0.604647 0.312220
O O2 0.147173 0.840430 0.381461
O O3 0.234045 0.858735 0.333756
O O4 0.000000 0.856825 0.250000
O O5 0.936001 0.624152 0.760329
O O6 0.795788 0.633096 0.774643
O O7 0.016850 0.765914 0.863218
O O8 0.818920 0.887536 0.736967
O O9 0.250000 0.250000 0.500000
O O10 0.037537 0.272535 0.454894
O O11 0.117080 0.004183 0.443685
O O12 0.750000 0.250000 0.500000
O O13 0.836577 0.478575 0.494407
O O14 0.916889 0.475606 0.883876
O O15 0.000000 0.500000 0.000000
#
# Coordination Sequence:
#
# PCOD9284593 Si02
#       7
#     8   8   8   4   8   8   8
#     4  10  23  40  64  90 132 163 222 263 323 388
#     4  11  24  41  67  94 130 165 216 269 335 384
#     4   9  22  38  64  90 125 163 212 254 323 389
#     4  10  26  38  64  96 124 166 220 262 322 388
#     4  11  23  40  65  93 130 170 214 267 324 387
#     4  10  21  41  62  90 124 167 207 264 322 389
#     4  11  23  41  66  91 130 167 212 274 331 390
#
# _framework density 18.951794
#
# number of rings (size 3 to 8) (size 9 to 14) (size 15 to 20)
#    0.462    1.231    1.538    1.846    9.692    1.231 
#    0.000    0.769    0.000    0.000    0.000    0.000 
#    0.000    0.000    0.000    0.000    0.000    0.000 
#
# Total GULP energy -144873.241577 kJ/mol
# GULP energy per Si atom -5572.047753 kJ/mol
# Density = 1.890866 g / cm^3
# Si number density = 18.951794 Si / 1000 Ang^3
#
#
#
# Elastic Constant Matrix: (Units=GPa)
#
#
# Indices 1 2 3 4 5 6 
#
# 1 73.7227 62.1746 36.2765 0.0000 -24.6163 0.0000
# 2 62.1746 149.4697 63.8164 0.0000 -21.7227 0.0000
# 3 36.2765 63.8164 115.6414 0.0000 -1.2815 0.0000
# 4 0.0000 0.0000 0.0000 27.7063 0.0000 8.6147
# 5 -24.6163 -21.7227 -1.2815 0.0000 35.6511 0.0000
# 6 0.0000 0.0000 0.0000 8.6147 0.0000 28.2169
#
#
#
# Elastic Compliance Matrix: (Units=1/GPa)
#
#
# Indices 1 2 3 4 5 6 
#
# 1 0.026136 -0.007153 -0.004102 0.000000 0.013541 0.000000
# 2 -0.007153 0.011775 -0.004231 0.000000 0.002084 0.000000
# 3 -0.004102 -0.004231 0.012214 0.000000 -0.004971 0.000000
# 4 0.000000 0.000000 0.000000 0.039878 0.000000 -0.012175
# 5 0.013541 0.002084 -0.004971 0.000000 0.038490 0.000000
# 6 0.000000 0.000000 0.000000 -0.012175 0.000000 0.039157
#
#
# Mechanical properties :
#
#
# Convention : Reuss Voigt Hill
#
# Bulk Modulus (GPa) = 52.20783 73.70767 62.95775
# Shear Modulus (GPa) = 24.38953 30.08595 27.23774
#
# Velocity S-wave (km/s) = 3.59126 3.98867 3.79517
# Velocity P-wave (km/s) = 6.69356 7.75817 7.24545
#
# Compressibility (1/GPa) = 0.01915421
#
# Stress axis : x y z
#
# Youngs Moduli (GPa) = 38.26110 84.92619 81.87392
#
# Poissons Ratio (x) = 0.60745 0.33581
# Poissons Ratio (y) = 0.27367 0.34641
# Poissons Ratio (z) = 0.15693 0.35933
#
# Static dielectric constant tensor:
#      x y z
#    x 1.733320 0.000000 0.047060 
#    y 0.000000 1.680920 0.000000 
#    z 0.047060 0.000000 1.656510 
# 
# From -- ./inp_files/298417.got.cif
#   From: 2010.05.17/outbox.cif.g08.bks.cpg/sg15_150_cif.got.tgz:298417.got - 2010.06.03 18:47:42.
