data_PCOD9284811
_publ_section_title
;
Structure prediction by ZEFSAII (Michael W. Deem and Ramdas Pophale) SiO2 
 PCOD9284811
Probable space group: C 2/C
;
_chemical_formula_sum "Si O2"
_cell_formula_units_Z 60
_cell_length_a 7.347677
_cell_length_b 27.118697
_cell_length_c 14.006868
_cell_angle_alpha 90.000000
_cell_angle_beta 87.131231
_cell_angle_gamma 90.000000
_cell_volume 2787.502760
_symmetry_space_group_name_H-M "C 2/C"
_symmetry_group_IT_number 15
_symmetry_cell_setting 'monoclinic'
loop_
_space_group_symop_operation_xyz
x,y,z
-x,y,1/2-z
-x,-y,-z
x,-y,1/2+z
1/2+x,1/2+y,z
1/2-x,1/2+y,1/2-z
1/2-x,1/2-y,-z
1/2+x,1/2-y,1/2+z
loop_
_atom_site_type_symbol
_atom_site_label
_atom_site_fract_x
_atom_site_fract_y
_atom_site_fract_z
Si Si1 0.577151 0.704878 0.402813
Si Si2 0.500000 0.256141 0.250000
Si Si3 0.220400 0.497598 0.977366
Si Si4 0.318328 0.081224 0.644048
Si Si5 0.789888 0.468953 0.326009
Si Si6 0.761386 0.325108 0.695250
Si Si7 0.787388 0.064070 0.286381
Si Si8 0.227367 0.691938 0.901026
O O1 0.381455 0.681681 0.386812
O O2 0.680875 0.689462 0.302174
O O3 0.675784 0.689091 0.497730
O O4 0.577708 0.764507 0.407099
O O5 0.589528 0.217235 0.321716
O O6 0.633548 0.289693 0.184495
O O7 0.267487 0.552946 0.943635
O O8 0.269157 0.462430 0.888592
O O9 0.307858 0.476744 0.071124
O O10 0.000000 0.500000 0.000000
O O11 0.516653 0.056361 0.654785
O O12 0.213394 0.064919 0.743135
O O13 0.339956 0.138412 0.626400
O O14 0.799349 0.524522 0.284159
O O15 0.805625 0.382583 0.703466
O O16 0.000000 0.071119 0.250000
#
# Coordination Sequence:
#
# PCOD9284811 Si02
#       8
#     8   4   8   8   8   8   8   8
#     4   9  20  41  67  90 129 165 220 269 334 399
#     4  10  24  40  60 100 134 162 222 282 322 400
#     4   9  20  39  59  92 124 161 219 273 324 399
#     4   9  19  37  62  89 124 173 216 259 332 392
#     4   9  20  38  59  90 126 167 219 269 322 395
#     4  10  21  41  65  96 126 174 214 272 341 390
#     4  11  22  39  64  95 130 172 221 278 340 399
#     4  10  21  41  64  95 127 172 215 278 331 401
#
# _framework density 21.524643000000001
#
# number of rings (size 3 to 8) (size 9 to 14) (size 15 to 20)
#    0.000    2.400    1.333    0.800    1.867    8.533 
#   19.200    0.000    0.000    0.000    0.000    0.000 
#    0.000    0.000    0.000    0.000    0.000    0.000 
#
# Total GULP energy -167193.479523 kJ/mol
# GULP energy per Si atom -5573.115984 kJ/mol
# Density = 2.147565 g / cm^3
# Si number density = 21.524643 Si / 1000 Ang^3
#
#
#
# Elastic Constant Matrix: (Units=GPa)
#
#
# Indices 1 2 3 4 5 6 
#
# 1 58.1451 20.9289 -0.2239 0.0000 7.7547 0.0000
# 2 20.9289 180.5746 49.7873 0.0000 18.1062 0.0000
# 3 -0.2239 49.7873 109.7641 0.0000 -1.6152 0.0000
# 4 0.0000 0.0000 0.0000 12.1074 0.0000 4.2638
# 5 7.7547 18.1062 -1.6152 0.0000 18.2827 0.0000
# 6 0.0000 0.0000 0.0000 4.2638 0.0000 20.0583
#
#
#
# Elastic Compliance Matrix: (Units=1/GPa)
#
#
# Indices 1 2 3 4 5 6 
#
# 1 0.018647 -0.001754 0.000744 0.000000 -0.006106 0.000000
# 2 -0.001754 0.007382 -0.003453 0.000000 -0.006872 0.000000
# 3 0.000744 -0.003453 0.010738 0.000000 0.004053 0.000000
# 4 0.000000 0.000000 0.000000 0.089277 0.000000 -0.018978
# 5 -0.006106 -0.006872 0.004053 0.000000 0.064450 0.000000
# 6 0.000000 0.000000 0.000000 -0.018978 0.000000 0.053889
#
#
# Mechanical properties :
#
#
# Convention : Reuss Voigt Hill
#
# Bulk Modulus (GPa) = 35.91909 54.38536 45.15222
# Shear Modulus (GPa) = 19.04103 28.62244 23.83174
#
# Velocity S-wave (km/s) = 2.97748 3.65053 3.33105
# Velocity P-wave (km/s) = 5.34267 6.56429 5.98473
#
# Compressibility (1/GPa) = 0.02784035
#
# Stress axis : x y z
#
# Youngs Moduli (GPa) = 53.62803 135.45826 93.12781
#
# Poissons Ratio (x) = 0.23759 -0.06927
# Poissons Ratio (y) = 0.09406 0.32159
# Poissons Ratio (z) = -0.03989 0.46777
#
# Static dielectric constant tensor:
#      x y z
#    x 1.855720 0.000000 0.026060 
#    y 0.000000 1.741270 0.000000 
#    z 0.026060 0.000000 1.827210 
# 
# From -- ./inp_files/137378.got.cif
#   From: 2010.05.17/outbox.cif.g08.bks.cpg/sg15_69_cif.got.tgz:137378.got - 2010.06.03 18:47:42.
