data_PCOD9284146
_publ_section_title
;
Structure prediction by ZEFSAII (Michael W. Deem and Ramdas Pophale) SiO2 
 PCOD9284146
Probable space group: C 2/C
;
_chemical_formula_sum "Si O2"
_cell_formula_units_Z 36
_cell_length_a 13.681391
_cell_length_b 7.418822
_cell_length_c 28.294668
_cell_angle_alpha 90.000000
_cell_angle_beta 31.011418
_cell_angle_gamma 90.000000
_cell_volume 1479.630075
_symmetry_space_group_name_H-M "C 2/C"
_symmetry_group_IT_number 15
_symmetry_cell_setting 'monoclinic'
loop_
_space_group_symop_operation_xyz
x,y,z
-x,y,1/2-z
-x,-y,-z
x,-y,1/2+z
1/2+x,1/2+y,z
1/2-x,1/2+y,1/2-z
1/2-x,1/2-y,-z
1/2+x,1/2-y,1/2+z
loop_
_atom_site_type_symbol
_atom_site_label
_atom_site_fract_x
_atom_site_fract_y
_atom_site_fract_z
Si Si1 0.500000 0.283277 0.250000
Si Si2 0.588900 0.267367 0.928509
Si Si3 0.045285 0.600952 0.850397
Si Si4 0.675256 0.604144 0.487370
Si Si5 0.480471 0.516309 0.661086
O O1 0.694926 0.174888 0.174427
O O2 0.475411 0.411809 0.305329
O O3 0.545696 0.112779 0.907910
O O4 0.603159 0.249260 0.979197
O O5 0.440692 0.423699 0.979812
O O6 0.257387 0.556039 0.746100
O O7 0.991303 0.802495 0.856028
O O8 0.892379 0.460920 0.894772
O O9 0.606734 0.619108 0.569779
#
# Coordination Sequence:
#
# PCOD9284146 Si02
#       5
#     4   8   8   8   8
#     4  10  22  40  58  88 136 156 206 272 310 384
#     4   9  20  38  61  90 120 164 208 258 315 373
#     4  10  22  43  63  91 132 162 213 272 308 392
#     4  10  21  40  67  90 121 173 215 257 321 387
#     4  10  22  42  60  93 124 166 208 258 330 368
#
# _framework density 24.330406
#
# number of rings (size 3 to 8) (size 9 to 14) (size 15 to 20)
#    0.000    2.222    0.000    2.667    9.333    0.889 
#   16.000    5.556    0.000    0.000    0.000    0.000 
#    0.000    0.000    0.000    0.000    0.000    0.000 
#
# Total GULP energy -100608.476850 kJ/mol
# GULP energy per Si atom -5589.359825 kJ/mol
# Density = 2.427503 g / cm^3
# Si number density = 24.330406 Si / 1000 Ang^3
#
#
#
# Elastic Constant Matrix: (Units=GPa)
#
#
# Indices 1 2 3 4 5 6 
#
# 1 94.0910 -18.5653 23.6754 0.0017 24.6670 0.0037
# 2 -18.5653 55.3991 8.8196 0.0042 -0.4792 0.0051
# 3 23.6754 8.8196 96.5465 0.0006 11.7387 0.0010
# 4 0.0017 0.0042 0.0006 36.1592 -0.0004 5.5682
# 5 24.6670 -0.4792 11.7387 -0.0004 65.5570 0.0005
# 6 0.0037 0.0051 0.0010 5.5682 0.0005 17.9531
#
#
#
# Elastic Compliance Matrix: (Units=1/GPa)
#
#
# Indices 1 2 3 4 5 6 
#
# 1 0.013623 0.005044 -0.003254 -0.000001 -0.004507 -0.000004
# 2 0.005044 0.020198 -0.002933 -0.000002 -0.001225 -0.000006
# 3 -0.003254 -0.002933 0.011528 0.000000 -0.000861 0.000001
# 4 -0.000001 -0.000002 0.000000 0.029043 0.000000 -0.009008
# 5 -0.004507 -0.001225 -0.000861 0.000000 0.017095 0.000001
# 6 -0.000004 -0.000006 0.000001 -0.009008 0.000001 0.058495
#
#
# Mechanical properties :
#
#
# Convention : Reuss Voigt Hill
#
# Bulk Modulus (GPa) = 23.22081 30.43291 26.82686
# Shear Modulus (GPa) = 30.00821 39.40764 34.70792
#
# Velocity S-wave (km/s) = 3.51574 4.02890 3.78103
# Velocity P-wave (km/s) = 5.10345 5.84620 5.48741
#
# Compressibility (1/GPa) = 0.04306482
#
# Stress axis : x y z
#
# Youngs Moduli (GPa) = 73.40258 49.51061 86.74331
#
# Poissons Ratio (x) = -0.24976 0.28223
# Poissons Ratio (y) = -0.37028 0.25443
# Poissons Ratio (z) = 0.23883 0.14522
#
# Static dielectric constant tensor:
#      x y z
#    x 2.001500 0.000000 0.041000 
#    y 0.000000 1.921120 0.000000 
#    z 0.041000 0.000000 1.940830 
# 
# From -- ./inp_files/150179.got.cif
#   From: 2010.05.17/outbox.cif.g08.bks.cpg/sg15_76_cif.got.tgz:150179.got - 2010.06.03 18:47:42.
