data_PCOD9284747
_publ_section_title
;
Structure prediction by ZEFSAII (Michael W. Deem and Ramdas Pophale) SiO2 
 PCOD9284747
Probable space group: C 2/C
;
_chemical_formula_sum "Si O2"
_cell_formula_units_Z 40
_cell_length_a 30.142038
_cell_length_b 5.082304
_cell_length_c 12.568670
_cell_angle_alpha 90.000000
_cell_angle_beta 79.551738
_cell_angle_gamma 90.000000
_cell_volume 1893.482079
_symmetry_space_group_name_H-M "C 2/C"
_symmetry_group_IT_number 15
_symmetry_cell_setting 'monoclinic'
loop_
_space_group_symop_operation_xyz
x,y,z
-x,y,1/2-z
-x,-y,-z
x,-y,1/2+z
1/2+x,1/2+y,z
1/2-x,1/2+y,1/2-z
1/2-x,1/2-y,-z
1/2+x,1/2-y,1/2+z
loop_
_atom_site_type_symbol
_atom_site_label
_atom_site_fract_x
_atom_site_fract_y
_atom_site_fract_z
Si Si1 0.216705 0.143779 0.105579
Si Si2 0.942176 0.245044 0.568051
Si Si3 0.019931 0.255881 0.355709
Si Si4 0.700637 0.050096 0.819174
Si Si5 0.155956 0.047248 0.943180
O O1 0.202731 0.366352 0.195699
O O2 0.248293 0.939014 0.155859
O O3 0.250000 0.250000 0.000000
O O4 0.174154 0.047842 0.056381
O O5 0.943381 0.531094 0.621222
O O6 0.895533 0.136071 0.542905
O O7 0.978874 0.257163 0.457806
O O8 0.959047 0.033458 0.647170
O O9 0.000000 0.320954 0.250000
O O10 0.669258 0.265653 0.890041
O O11 0.681978 0.765495 0.859984
#
# Coordination Sequence:
#
# PCOD9284747 Si02
#       5
#     8   8   8   8   8
#     4  10  22  41  61  84 118 160 200 243 296 349
#     4  10  22  39  61  92 120 151 203 244 292 363
#     4  10  21  41  64  86 120 162 193 239 302 361
#     4  11  23  40  61  87 120 160 204 242 296 357
#     4  11  24  39  60  91 122 153 198 256 296 343
#
# _framework density 21.1251
#
# number of rings (size 3 to 8) (size 9 to 14) (size 15 to 20)
#    0.000    1.600    0.000    4.800    0.000    8.000 
#    0.000    0.000    0.000    0.000    0.000    0.000 
#    0.000    0.000    0.000    0.000    0.000    0.000 
#
# Total GULP energy -111740.963858 kJ/mol
# GULP energy per Si atom -5587.048193 kJ/mol
# Density = 2.107702 g / cm^3
# Si number density = 21.125100 Si / 1000 Ang^3
#
#
#
# Elastic Constant Matrix: (Units=GPa)
#
#
# Indices 1 2 3 4 5 6 
#
# 1 93.5475 -2.8612 -8.0686 0.0000 15.8731 0.0000
# 2 -2.8612 63.3453 -7.7146 0.0000 -11.2539 0.0000
# 3 -8.0686 -7.7146 61.6269 0.0000 15.3002 0.0000
# 4 0.0000 0.0000 0.0000 21.5815 0.0000 -0.7500
# 5 15.8731 -11.2539 15.3002 0.0000 18.1736 0.0000
# 6 0.0000 0.0000 0.0000 -0.7500 0.0000 28.5599
#
#
#
# Elastic Compliance Matrix: (Units=1/GPa)
#
#
# Indices 1 2 3 4 5 6 
#
# 1 0.014452 -0.001987 0.006426 0.000000 -0.019262 0.000000
# 2 -0.001987 0.018031 -0.001525 0.000000 0.014185 0.000000
# 3 0.006426 -0.001525 0.023395 0.000000 -0.026252 0.000000
# 4 0.000000 0.000000 0.000000 0.046378 0.000000 0.001218
# 5 -0.019262 0.014185 -0.026252 0.000000 0.102734 0.000000
# 6 0.000000 0.000000 0.000000 0.001218 0.000000 0.035046
#
#
# Mechanical properties :
#
#
# Convention : Reuss Voigt Hill
#
# Bulk Modulus (GPa) = 16.20585 20.13677 18.17131
# Shear Modulus (GPa) = 19.62506 29.47392 24.54949
#
# Velocity S-wave (km/s) = 3.05124 3.73930 3.41266
# Velocity P-wave (km/s) = 4.48347 5.30999 4.91414
#
# Compressibility (1/GPa) = 0.06170610
#
# Stress axis : x y z
#
# Youngs Moduli (GPa) = 69.19624 55.45971 42.74461
#
# Poissons Ratio (x) = 0.11019 -0.27466
# Poissons Ratio (y) = 0.13748 0.06517
# Poissons Ratio (z) = -0.44463 0.08455
#
# Static dielectric constant tensor:
#      x y z
#    x 1.781070 0.000000 0.009980 
#    y 0.000000 1.761760 0.000000 
#    z 0.009980 0.000000 1.734650 
# 
# From -- ./inp_files/124751.got.cif
#   From: 2010.05.17/outbox.cif.g08.bks.cpg/sg15_63_cif.got.tgz:124751.got - 2010.06.03 18:47:42.
