data_PCOD9284036
_publ_section_title
;
Structure prediction by ZEFSAII (Michael W. Deem and Ramdas Pophale) SiO2 
 PCOD9284036
Probable space group: C 2/C
;
_chemical_formula_sum "Si O2"
_cell_formula_units_Z 44
_cell_length_a 28.250622
_cell_length_b 13.295102
_cell_length_c 11.562354
_cell_angle_alpha 90.000000
_cell_angle_beta 28.479605
_cell_angle_gamma 90.000000
_cell_volume 2070.827904
_symmetry_space_group_name_H-M "C 2/C"
_symmetry_group_IT_number 15
_symmetry_cell_setting 'monoclinic'
loop_
_space_group_symop_operation_xyz
x,y,z
-x,y,1/2-z
-x,-y,-z
x,-y,1/2+z
1/2+x,1/2+y,z
1/2-x,1/2+y,1/2-z
1/2-x,1/2-y,-z
1/2+x,1/2-y,1/2+z
loop_
_atom_site_type_symbol
_atom_site_label
_atom_site_fract_x
_atom_site_fract_y
_atom_site_fract_z
Si Si1 0.500000 0.926026 0.250000
Si Si2 0.441265 0.190974 0.652239
Si Si3 0.169318 0.570783 0.796415
Si Si4 0.642396 0.570709 0.627479
Si Si5 0.404490 0.219924 0.369660
Si Si6 0.002953 0.107219 0.374059
O O1 0.551172 0.860404 0.239656
O O2 0.423120 0.997734 0.480552
O O3 0.355744 0.140484 0.759725
O O4 0.543784 0.177488 0.358059
O O5 0.435921 0.311174 0.682018
O O6 0.262444 0.499184 0.580567
O O7 0.169504 0.644012 0.907552
O O8 0.646828 0.674353 0.548006
O O9 0.553997 0.501180 0.768042
O O10 0.605060 0.598855 0.836182
O O11 0.500000 0.234681 0.250000
O O12 0.000000 0.143157 0.250000
#
# Coordination Sequence:
#
# PCOD9284036 Si02
#       6
#     4   8   8   8   8   8
#     4  12  22  40  66  92 128 180 214 276 318 398
#     4  10  21  40  66  91 129 172 221 265 326 385
#     4  11  23  39  66  99 130 173 216 269 328 392
#     4  10  23  39  67  98 130 170 218 270 325 388
#     4   9  19  42  66  94 136 175 210 265 326 390
#     4  10  21  43  64  94 129 173 215 271 327 384
#
# _framework density 21.247540000000001
#
# number of rings (size 3 to 8) (size 9 to 14) (size 15 to 20)
#    0.000    1.818    3.636    1.091    0.000    5.091 
#    0.000    1.818    0.000    0.000    0.000    0.000 
#    0.000    0.000    0.000    0.000    0.000    0.000 
#
# Total GULP energy -122873.693891 kJ/mol
# GULP energy per Si atom -5585.167904 kJ/mol
# Density = 2.119918 g / cm^3
# Si number density = 21.247540 Si / 1000 Ang^3
#
#
#
# Elastic Constant Matrix: (Units=GPa)
#
#
# Indices 1 2 3 4 5 6 
#
# 1 42.0157 14.4460 16.7840 0.0000 16.8161 0.0000
# 2 14.4460 115.9102 31.5905 0.0000 -1.8538 0.0000
# 3 16.7840 31.5905 59.4560 0.0000 -9.3847 0.0000
# 4 0.0000 0.0000 0.0000 35.9033 0.0000 -12.8676
# 5 16.8161 -1.8538 -9.3847 0.0000 20.7894 0.0000
# 6 0.0000 0.0000 0.0000 -12.8676 0.0000 25.9222
#
#
#
# Elastic Compliance Matrix: (Units=1/GPa)
#
#
# Indices 1 2 3 4 5 6 
#
# 1 0.056828 -0.001366 -0.024324 0.000000 -0.057069 0.000000
# 2 -0.001366 0.010173 -0.005063 0.000000 -0.000274 0.000000
# 3 -0.024324 -0.005063 0.031666 0.000000 0.033519 0.000000
# 4 0.000000 0.000000 0.000000 0.033880 0.000000 0.016818
# 5 -0.057069 -0.000274 0.033519 0.000000 0.109370 0.000000
# 6 0.000000 0.000000 0.000000 0.016818 0.000000 0.046925
#
#
# Mechanical properties :
#
#
# Convention : Reuss Voigt Hill
#
# Bulk Modulus (GPa) = 26.90954 38.11365 32.51160
# Shear Modulus (GPa) = 13.78410 26.82706 20.30558
#
# Velocity S-wave (km/s) = 2.54980 3.55716 3.09474
# Velocity P-wave (km/s) = 4.62179 5.90322 5.30136
#
# Compressibility (1/GPa) = 0.03716154
#
# Stress axis : x y z
#
# Youngs Moduli (GPa) = 17.59690 98.29894 31.57916
#
# Poissons Ratio (x) = 0.13426 0.76814
# Poissons Ratio (y) = 0.02403 0.15988
# Poissons Ratio (z) = 0.42803 0.49767
#
# Static dielectric constant tensor:
#      x y z
#    x 1.772340 0.000000 0.019440 
#    y 0.000000 1.765510 0.000000 
#    z 0.019440 0.000000 1.781820 
# 
# From -- ./inp_files/126697.got.cif
#   From: 2010.05.17/outbox.cif.g08.bks.cpg/sg15_64_cif.got.tgz:126697.got - 2010.06.03 18:47:42.
