data_PCOD9284490
_publ_section_title
;
Structure prediction by ZEFSAII (Michael W. Deem and Ramdas Pophale) SiO2 
 PCOD9284490
Probable space group: C 2/C
;
_chemical_formula_sum "Si O2"
_cell_formula_units_Z 56
_cell_length_a 23.627234
_cell_length_b 12.096658
_cell_length_c 8.271596
_cell_angle_alpha 90.000000
_cell_angle_beta 81.504761
_cell_angle_gamma 90.000000
_cell_volume 2338.170887
_symmetry_space_group_name_H-M "C 2/C"
_symmetry_group_IT_number 15
_symmetry_cell_setting 'monoclinic'
loop_
_space_group_symop_operation_xyz
x,y,z
-x,y,1/2-z
-x,-y,-z
x,-y,1/2+z
1/2+x,1/2+y,z
1/2-x,1/2+y,1/2-z
1/2-x,1/2-y,-z
1/2+x,1/2-y,1/2+z
loop_
_atom_site_type_symbol
_atom_site_label
_atom_site_fract_x
_atom_site_fract_y
_atom_site_fract_z
Si Si1 0.439880 0.373957 0.941704
Si Si2 0.238414 0.244600 0.263117
Si Si3 0.596664 0.587947 0.673856
Si Si4 0.819520 0.592982 0.082003
Si Si5 0.063519 0.767893 0.898176
Si Si6 0.368427 0.905537 0.257296
Si Si7 0.218324 0.931125 0.020799
O O1 0.448895 0.500642 0.879418
O O2 0.497866 0.304046 0.940591
O O3 0.415425 0.322934 0.781900
O O4 0.410750 0.382561 0.133571
O O5 0.288831 0.209371 0.120973
O O6 0.183340 0.317376 0.248044
O O7 0.220367 0.125462 0.344245
O O8 0.270537 0.324719 0.373101
O O9 0.593655 0.689977 0.549613
O O10 0.656751 0.528281 0.603845
O O11 0.843869 0.525051 0.222010
O O12 0.769173 0.517584 0.024077
O O13 0.874587 0.599663 0.945133
O O14 0.078786 0.639890 0.865732
#
# Coordination Sequence:
#
# PCOD9284490 Si02
#       7
#     8   8   8   8   8   8   8
#     4  11  26  41  67  97 137 171 226 282 342 402
#     4  10  21  41  58  97 137 173 219 269 314 413
#     4  12  23  40  69  99 138 183 212 271 358 409
#     4  11  23  41  66  94 135 180 220 267 330 407
#     4  11  25  44  63  97 133 171 231 280 331 405
#     4  11  24  42  67  94 133 178 225 276 335 404
#     4  10  23  37  62  98 141 171 216 266 332 407
#
# _framework density 23.950344000000001
#
# number of rings (size 3 to 8) (size 9 to 14) (size 15 to 20)
#    0.000    1.143    4.286    1.286    8.000    0.000 
#    0.000    0.000    0.000    3.429    0.000    0.000 
#    0.000    0.000    0.000    0.000    0.000    0.000 
#
# Total GULP energy -156122.732960 kJ/mol
# GULP energy per Si atom -5575.811891 kJ/mol
# Density = 2.389583 g / cm^3
# Si number density = 23.950344 Si / 1000 Ang^3
#
#
#
# Elastic Constant Matrix: (Units=GPa)
#
#
# Indices 1 2 3 4 5 6 
#
# 1 49.9641 0.9485 15.5582 0.0000 -12.0032 0.0000
# 2 0.9485 40.6683 0.8927 0.0000 0.2334 0.0000
# 3 15.5582 0.8927 143.9176 0.0000 1.7698 0.0000
# 4 0.0000 0.0000 0.0000 37.7722 0.0000 -8.3166
# 5 -12.0032 0.2334 1.7698 0.0000 31.2092 0.0000
# 6 0.0000 0.0000 0.0000 -8.3166 0.0000 21.1656
#
#
#
# Elastic Compliance Matrix: (Units=1/GPa)
#
#
# Indices 1 2 3 4 5 6 
#
# 1 0.022993 -0.000531 -0.002593 0.000000 0.008994 0.000000
# 2 -0.000531 0.024606 -0.000091 0.000000 -0.000383 0.000000
# 3 -0.002593 -0.000091 0.007247 0.000000 -0.001407 0.000000
# 4 0.000000 0.000000 0.000000 0.028982 0.000000 0.011388
# 5 0.008994 -0.000383 -0.001407 0.000000 0.035584 0.000000
# 6 0.000000 0.000000 0.000000 0.011388 0.000000 0.051721
#
#
# Mechanical properties :
#
#
# Convention : Reuss Voigt Hill
#
# Bulk Modulus (GPa) = 20.65429 29.92764 25.29096
# Shear Modulus (GPa) = 25.81326 32.50612 29.15969
#
# Velocity S-wave (km/s) = 3.28652 3.68806 3.49306
# Velocity P-wave (km/s) = 4.80043 5.53701 5.18183
#
# Compressibility (1/GPa) = 0.04841609
#
# Stress axis : x y z
#
# Youngs Moduli (GPa) = 43.49240 40.64096 137.99581
#
# Poissons Ratio (x) = 0.02158 0.35781
# Poissons Ratio (y) = 0.02309 0.01249
# Poissons Ratio (z) = 0.11277 0.00368
#
# Static dielectric constant tensor:
#      x y z
#    x 1.975510 0.000000 -0.019500 
#    y 0.000000 1.966560 0.000000 
#    z -0.019500 0.000000 2.040520 
# 
# From -- ./inp_files/65423.got.cif
#   From: 2010.05.17/outbox.cif.g08.bks.cpg/sg15_33_cif.got.tgz:65423.got - 2010.06.03 18:47:42.
