data_PCOD9284059
_publ_section_title
;
Structure prediction by ZEFSAII (Michael W. Deem and Ramdas Pophale) SiO2 
 PCOD9284059
Probable space group: C 2/C
;
_chemical_formula_sum "Si O2"
_cell_formula_units_Z 44
_cell_length_a 17.154071
_cell_length_b 14.106251
_cell_length_c 8.912581
_cell_angle_alpha 90.000000
_cell_angle_beta 69.654787
_cell_angle_gamma 90.000000
_cell_volume 2022.119358
_symmetry_space_group_name_H-M "C 2/C"
_symmetry_group_IT_number 15
_symmetry_cell_setting 'monoclinic'
loop_
_space_group_symop_operation_xyz
x,y,z
-x,y,1/2-z
-x,-y,-z
x,-y,1/2+z
1/2+x,1/2+y,z
1/2-x,1/2+y,1/2-z
1/2-x,1/2-y,-z
1/2+x,1/2-y,1/2+z
loop_
_atom_site_type_symbol
_atom_site_label
_atom_site_fract_x
_atom_site_fract_y
_atom_site_fract_z
Si Si1 0.037518 0.140612 0.573802
Si Si2 0.113336 0.536127 0.415990
Si Si3 0.388464 0.439583 0.969546
Si Si4 0.000000 0.560218 0.250000
Si Si5 0.912188 0.774288 0.738249
Si Si6 0.296687 0.107650 0.869939
O O1 0.079712 0.219778 0.444678
O O2 0.000000 0.179499 0.750000
O O3 0.960717 0.099501 0.528639
O O4 0.097133 0.050839 0.564203
O O5 0.067468 0.602929 0.322446
O O6 0.185994 0.578661 0.468861
O O7 0.150097 0.452222 0.288064
O O8 0.051301 0.500767 0.590820
O O9 0.400417 0.380668 0.808168
O O10 0.299399 0.412121 0.094776
O O11 0.834066 0.712256 0.834893
O O12 0.000000 0.737898 0.750000
#
# Coordination Sequence:
#
# PCOD9284059 Si02
#       6
#     8   8   8   4   8   8
#     4  10  21  41  69  93 122 170 222 265 321 392
#     4   9  20  34  59  89 123 174 211 257 311 391
#     4  10  21  40  66  93 127 164 217 267 328 387
#     4   8  16  36  54  78 118 170 212 240 298 380
#     4  10  23  41  64  94 126 173 211 264 326 391
#     4  11  23  38  62  98 131 164 217 268 326 378
#
# _framework density 21.759347999999999
#
# number of rings (size 3 to 8) (size 9 to 14) (size 15 to 20)
#    0.000    2.182    0.000    3.273   12.727    0.000 
#    1.636    2.727    0.000    0.000    0.000    0.000 
#    0.000    0.000    0.000    0.000    0.000    0.000 
#
# Total GULP energy -122696.196776 kJ/mol
# GULP energy per Si atom -5577.099853 kJ/mol
# Density = 2.170982 g / cm^3
# Si number density = 21.759348 Si / 1000 Ang^3
#
#
#
# Elastic Constant Matrix: (Units=GPa)
#
#
# Indices 1 2 3 4 5 6 
#
# 1 90.2596 30.0398 26.4285 0.0000 -19.0544 0.0000
# 2 30.0398 45.1533 20.0753 0.0000 4.3594 0.0000
# 3 26.4285 20.0753 134.3124 0.0000 6.3671 0.0000
# 4 0.0000 0.0000 0.0000 30.7421 0.0000 -22.0504
# 5 -19.0544 4.3594 6.3671 0.0000 37.2033 0.0000
# 6 0.0000 0.0000 0.0000 -22.0504 0.0000 34.0626
#
#
#
# Elastic Compliance Matrix: (Units=1/GPa)
#
#
# Indices 1 2 3 4 5 6 
#
# 1 0.018119 -0.012111 -0.002281 0.000000 0.011089 0.000000
# 2 -0.012111 0.031996 -0.001943 0.000000 -0.009619 0.000000
# 3 -0.002281 -0.001943 0.008296 0.000000 -0.002360 0.000000
# 4 0.000000 0.000000 0.000000 0.060725 0.000000 0.039310
# 5 0.011089 -0.009619 -0.002360 0.000000 0.034090 0.000000
# 6 0.000000 0.000000 0.000000 0.039310 0.000000 0.054805
#
#
# Mechanical properties :
#
#
# Convention : Reuss Voigt Hill
#
# Bulk Modulus (GPa) = 38.84695 46.97917 42.91306
# Shear Modulus (GPa) = 20.05767 33.28039 26.66903
#
# Velocity S-wave (km/s) = 3.03940 3.91509 3.50471
# Velocity P-wave (km/s) = 5.49628 6.48648 6.01180
#
# Compressibility (1/GPa) = 0.02574205
#
# Stress axis : x y z
#
# Youngs Moduli (GPa) = 55.19208 31.25343 120.53319
#
# Poissons Ratio (x) = 0.37850 0.27490
# Poissons Ratio (y) = 0.66841 0.23425
# Poissons Ratio (z) = 0.12588 0.06074
#
# Static dielectric constant tensor:
#      x y z
#    x 1.875200 0.000000 -0.007410 
#    y 0.000000 1.808260 0.000000 
#    z -0.007410 0.000000 1.807180 
# 
# From -- ./inp_files/46977.got.cif
#   From: 2010.05.17/outbox.cif.g08.bks.cpg/sg15_24_cif.got.tgz:46977.got - 2010.06.03 18:47:42.
