data_PCOD9284772
_publ_section_title
;
Structure prediction by ZEFSAII (Michael W. Deem and Ramdas Pophale) SiO2 
 PCOD9284772
Probable space group: C 2/C
;
_chemical_formula_sum "Si O2"
_cell_formula_units_Z 52
_cell_length_a 14.149214
_cell_length_b 15.435456
_cell_length_c 11.445795
_cell_angle_alpha 90.000000
_cell_angle_beta 52.735057
_cell_angle_gamma 90.000000
_cell_volume 1989.416657
_symmetry_space_group_name_H-M "C 2/C"
_symmetry_group_IT_number 15
_symmetry_cell_setting 'monoclinic'
loop_
_space_group_symop_operation_xyz
x,y,z
-x,y,1/2-z
-x,-y,-z
x,-y,1/2+z
1/2+x,1/2+y,z
1/2-x,1/2+y,1/2-z
1/2-x,1/2-y,-z
1/2+x,1/2-y,1/2+z
loop_
_atom_site_type_symbol
_atom_site_label
_atom_site_fract_x
_atom_site_fract_y
_atom_site_fract_z
Si Si1 0.195236 0.618119 0.422646
Si Si2 0.000000 0.095767 0.250000
Si Si3 0.841289 0.393829 0.281472
Si Si4 0.425465 0.713326 0.137469
Si Si5 0.677461 0.665183 0.519017
Si Si6 0.903015 0.585550 0.233627
Si Si7 0.840581 0.955600 0.259476
O O1 0.165671 0.633569 0.578184
O O2 0.311059 0.670428 0.291387
O O3 0.100961 0.629462 0.389840
O O4 0.232984 0.516713 0.388219
O O5 0.966158 0.168923 0.374476
O O6 0.053534 0.024385 0.302799
O O7 0.899881 0.314004 0.171242
O O8 0.916370 0.482227 0.212799
O O9 0.713608 0.418438 0.319327
O O10 0.418464 0.685947 0.008132
O O11 0.750000 0.750000 0.500000
O O12 0.773060 0.602357 0.384906
O O13 0.636724 0.620741 0.667419
O O14 0.000000 0.620802 0.250000
#
# Coordination Sequence:
#
# PCOD9284772 Si02
#       7
#     8   4   8   8   8   8   8
#     4   9  20  39  62  87 123 168 201 251 327 376
#     4  10  24  42  60 100 132 156 228 264 312 380
#     4  11  20  39  66  87 128 170 204 250 334 381
#     4  10  22  39  62  93 128 160 208 267 310 381
#     4  11  21  44  67  86 125 171 212 256 325 384
#     4  10  23  40  63  93 122 158 214 263 306 379
#     4  10  21  41  64  91 123 174 208 260 319 382
#
# _framework density 26.138316
#
# number of rings (size 3 to 8) (size 9 to 14) (size 15 to 20)
#    0.000    1.846    3.077    1.385    1.077    1.231 
#    6.923    0.000    0.000    0.000    0.000    0.000 
#    0.000    0.000    0.000    0.000    0.000    0.000 
#
# Total GULP energy -145197.194129 kJ/mol
# GULP energy per Si atom -5584.507467 kJ/mol
# Density = 2.607882 g / cm^3
# Si number density = 26.138316 Si / 1000 Ang^3
#
#
#
# Elastic Constant Matrix: (Units=GPa)
#
#
# Indices 1 2 3 4 5 6 
#
# 1 147.5420 21.1688 45.6745 0.0000 52.8350 0.0000
# 2 21.1688 113.1585 0.8298 0.0000 -0.5475 0.0000
# 3 45.6745 0.8298 68.7745 0.0000 17.8687 0.0000
# 4 0.0000 0.0000 0.0000 24.1886 0.0000 12.8069
# 5 52.8350 -0.5475 17.8687 0.0000 45.1505 0.0000
# 6 0.0000 0.0000 0.0000 12.8069 0.0000 29.6762
#
#
#
# Elastic Compliance Matrix: (Units=1/GPa)
#
#
# Indices 1 2 3 4 5 6 
#
# 1 0.013941 -0.002636 -0.005551 0.000000 -0.014149 0.000000
# 2 -0.002636 0.009337 0.000899 0.000000 0.002842 0.000000
# 3 -0.005551 0.000899 0.018419 0.000000 -0.000783 0.000000
# 4 0.000000 0.000000 0.000000 0.053586 0.000000 -0.023125
# 5 -0.014149 0.002842 -0.000783 0.000000 0.039050 0.000000
# 6 0.000000 0.000000 0.000000 -0.023125 0.000000 0.043677
#
#
# Mechanical properties :
#
#
# Convention : Reuss Voigt Hill
#
# Bulk Modulus (GPa) = 36.86771 51.64679 44.25725
# Shear Modulus (GPa) = 24.79860 37.25654 31.02757
#
# Velocity S-wave (km/s) = 3.08351 3.77949 3.44910
# Velocity P-wave (km/s) = 5.17811 6.23282 5.72978
#
# Compressibility (1/GPa) = 0.02712401
#
# Stress axis : x y z
#
# Youngs Moduli (GPa) = 71.73147 107.09642 54.29124
#
# Poissons Ratio (x) = 0.28227 0.30134
# Poissons Ratio (y) = 0.18906 -0.04883
# Poissons Ratio (z) = 0.39815 -0.09633
#
# Static dielectric constant tensor:
#      x y z
#    x 2.297990 0.000000 -0.065800 
#    y 0.000000 2.041810 0.000000 
#    z -0.065800 0.000000 2.043090 
# 
# From -- ./inp_files/96974.got.cif
#   From: 2010.05.17/outbox.cif.g08.bks.cpg/sg15_49_cif.got.tgz:96974.got - 2010.06.03 18:47:42.
