data_PCOD9284908
_publ_section_title
;
Structure prediction by ZEFSAII (Michael W. Deem and Ramdas Pophale) SiO2 
 PCOD9284908
Probable space group: C 2/C
;
_chemical_formula_sum "Si O2"
_cell_formula_units_Z 56
_cell_length_a 8.219212
_cell_length_b 29.723421
_cell_length_c 14.574302
_cell_angle_alpha 90.000000
_cell_angle_beta 51.609493
_cell_angle_gamma 90.000000
_cell_volume 2790.743890
_symmetry_space_group_name_H-M "C 2/C"
_symmetry_group_IT_number 15
_symmetry_cell_setting 'monoclinic'
loop_
_space_group_symop_operation_xyz
x,y,z
-x,y,1/2-z
-x,-y,-z
x,-y,1/2+z
1/2+x,1/2+y,z
1/2-x,1/2+y,1/2-z
1/2-x,1/2-y,-z
1/2+x,1/2-y,1/2+z
loop_
_atom_site_type_symbol
_atom_site_label
_atom_site_fract_x
_atom_site_fract_y
_atom_site_fract_z
Si Si1 0.098662 0.925103 0.954378
Si Si2 0.500000 0.691942 0.750000
Si Si3 0.972719 0.231665 0.950420
Si Si4 0.408667 0.663173 0.139978
Si Si5 0.210338 0.616639 0.933039
Si Si6 0.828682 0.675870 0.103156
Si Si7 0.253021 0.980606 0.339103
Si Si8 0.500000 0.458063 0.250000
O O1 0.102360 0.890365 0.870787
O O2 0.225317 0.970891 0.895894
O O3 0.200361 0.895834 0.999233
O O4 0.867940 0.941630 0.062661
O O5 0.571524 0.717202 0.817645
O O6 0.320512 0.659423 0.849266
O O7 0.083747 0.275139 0.953199
O O8 0.750000 0.250000 0.000000
O O9 0.938064 0.191917 0.036232
O O10 0.615483 0.671366 0.124809
O O11 0.215405 0.676548 0.271913
O O12 0.303141 0.573894 0.845518
O O13 0.975961 0.633704 0.025941
O O14 0.500000 0.971114 0.250000
O O15 0.106216 0.983901 0.298309
#
# Coordination Sequence:
#
# PCOD9284908 Si02
#       8
#     8   4   8   8   8   8   8   4
#     4  10  22  44  64  97 134 165 229 270 325 410
#     4  11  20  38  64  90 120 166 218 266 312 384
#     4  12  22  41  65  91 128 171 221 273 328 385
#     4  11  25  43  62  94 134 172 222 274 324 411
#     4  10  21  41  65  94 126 173 217 269 327 394
#     4  11  25  40  62  95 132 177 217 270 337 386
#     4  10  23  42  69 100 132 177 215 280 344 400
#     4   9  22  42  66 100 140 162 230 274 332 424
#
# _framework density 20.066334000000001
#
# number of rings (size 3 to 8) (size 9 to 14) (size 15 to 20)
#    0.000    1.429    2.857    1.286    4.000    2.286 
#    0.000    2.143    0.000    0.000    0.000    0.000 
#    0.000    0.000    0.000    0.000    0.000    0.000 
#
# Total GULP energy -155935.001248 kJ/mol
# GULP energy per Si atom -5569.107187 kJ/mol
# Density = 2.002066 g / cm^3
# Si number density = 20.066334 Si / 1000 Ang^3
#
#
#
# Elastic Constant Matrix: (Units=GPa)
#
#
# Indices 1 2 3 4 5 6 
#
# 1 47.3688 21.4259 25.5607 0.0000 -6.3280 0.0000
# 2 21.4259 68.7716 25.2085 0.0000 0.0494 0.0000
# 3 25.5607 25.2085 65.8940 0.0000 -0.7007 0.0000
# 4 0.0000 0.0000 0.0000 40.7951 0.0000 36.0527
# 5 -6.3280 0.0494 -0.7007 0.0000 33.8954 0.0000
# 6 0.0000 0.0000 0.0000 36.0527 0.0000 53.2362
#
#
#
# Elastic Compliance Matrix: (Units=1/GPa)
#
#
# Indices 1 2 3 4 5 6 
#
# 1 0.029365 -0.005813 -0.009111 0.000000 0.005302 0.000000
# 2 -0.005813 0.018064 -0.004669 0.000000 -0.001208 0.000000
# 3 -0.009111 -0.004669 0.020482 0.000000 -0.001271 0.000000
# 4 0.000000 0.000000 0.000000 0.061052 0.000000 -0.041346
# 5 0.005302 -0.001208 -0.001271 0.000000 0.030468 0.000000
# 6 0.000000 0.000000 0.000000 -0.041346 0.000000 0.046785
#
#
# Mechanical properties :
#
#
# Convention : Reuss Voigt Hill
#
# Bulk Modulus (GPa) = 34.81041 36.26943 35.53992
# Shear Modulus (GPa) = 19.60968 32.90795 26.25881
#
# Velocity S-wave (km/s) = 3.12948 4.05403 3.62138
# Velocity P-wave (km/s) = 5.51756 6.32674 5.93595
#
# Compressibility (1/GPa) = 0.02872704
#
# Stress axis : x y z
#
# Youngs Moduli (GPa) = 34.05442 55.35848 48.82219
#
# Poissons Ratio (x) = 0.32179 0.44480
# Poissons Ratio (y) = 0.19796 0.22793
# Poissons Ratio (z) = 0.31026 0.25845
#
# Static dielectric constant tensor:
#      x y z
#    x 1.611310 0.000000 0.002000 
#    y 0.000000 1.713970 0.000000 
#    z 0.002000 0.000000 1.831770 
# 
# From -- ./inp_files/139483.got.cif
#   From: 2010.05.17/outbox.cif.g08.bks.cpg/sg15_70_cif.got.tgz:139483.got - 2010.06.03 18:47:42.
