data_PCOD9284832
_publ_section_title
;
Structure prediction by ZEFSAII (Michael W. Deem and Ramdas Pophale) SiO2 
 PCOD9284832
Probable space group: C 2/C
;
_chemical_formula_sum "Si O2"
_cell_formula_units_Z 56
_cell_length_a 18.246558
_cell_length_b 8.915511
_cell_length_c 16.784996
_cell_angle_alpha 90.000000
_cell_angle_beta 103.341104
_cell_angle_gamma 90.000000
_cell_volume 2656.851848
_symmetry_space_group_name_H-M "C 2/C"
_symmetry_group_IT_number 15
_symmetry_cell_setting 'monoclinic'
loop_
_space_group_symop_operation_xyz
x,y,z
-x,y,1/2-z
-x,-y,-z
x,-y,1/2+z
1/2+x,1/2+y,z
1/2-x,1/2+y,1/2-z
1/2-x,1/2-y,-z
1/2+x,1/2-y,1/2+z
loop_
_atom_site_type_symbol
_atom_site_label
_atom_site_fract_x
_atom_site_fract_y
_atom_site_fract_z
Si Si1 0.882172 0.647937 0.345738
Si Si2 0.026848 0.347294 0.166354
Si Si3 0.935309 0.798958 0.513785
Si Si4 0.268690 0.478234 0.224139
Si Si5 0.595484 0.638326 0.969646
Si Si6 0.676013 0.691881 0.144889
Si Si7 0.083362 0.879205 0.288379
O O1 0.938569 0.507239 0.350660
O O2 0.888369 0.719543 0.433799
O O3 0.798138 0.588033 0.315395
O O4 0.901752 0.763609 0.280003
O O5 0.095417 0.230681 0.165952
O O6 0.000000 0.350163 0.250000
O O7 0.956458 0.302151 0.094082
O O8 0.015763 0.826678 0.490779
O O9 0.901307 0.957728 0.530679
O O10 0.293165 0.529714 0.319328
O O11 0.233701 0.317149 0.192050
O O12 0.347225 0.493379 0.197658
O O13 0.590009 0.693846 0.877545
O O14 0.659066 0.698340 0.046189
O O15 0.000000 0.942178 0.250000
#
# Coordination Sequence:
#
# PCOD9284832 Si02
#       7
#     8   8   8   8   8   8   8
#     4  11  22  45  66  95 137 186 218 278 357 412
#     4  10  23  38  66 102 131 171 229 285 339 411
#     4  10  21  41  64  98 138 173 222 288 351 401
#     4  11  24  43  66  96 133 183 215 280 353 405
#     4  10  23  38  66 103 128 176 233 288 332 405
#     4  10  23  43  65  91 140 179 221 279 355 411
#     4  12  24  41  74  98 131 176 243 279 324 414
#
# _framework density 21.077577999999999
#
# number of rings (size 3 to 8) (size 9 to 14) (size 15 to 20)
#    0.000    1.429    2.857    1.714    6.000    0.571 
#    0.000    2.143    0.000    0.000    0.000    0.000 
#    0.000    0.000    0.000    0.000    0.000    0.000 
#
# Total GULP energy -156265.187974 kJ/mol
# GULP energy per Si atom -5580.899570 kJ/mol
# Density = 2.102960 g / cm^3
# Si number density = 21.077578 Si / 1000 Ang^3
#
#
#
# Elastic Constant Matrix: (Units=GPa)
#
#
# Indices 1 2 3 4 5 6 
#
# 1 66.5824 22.6165 9.6175 0.0000 11.1353 0.0000
# 2 22.6165 48.8911 38.1979 0.0000 10.9280 0.0000
# 3 9.6175 38.1979 106.6107 0.0000 6.4874 0.0000
# 4 0.0000 0.0000 0.0000 27.0789 0.0000 4.4113
# 5 11.1353 10.9280 6.4874 0.0000 28.2002 0.0000
# 6 0.0000 0.0000 0.0000 4.4113 0.0000 20.3083
#
#
#
# Elastic Compliance Matrix: (Units=1/GPa)
#
#
# Indices 1 2 3 4 5 6 
#
# 1 0.018540 -0.009062 0.001832 0.000000 -0.004231 0.000000
# 2 -0.009062 0.035158 -0.011327 0.000000 -0.007440 0.000000
# 3 0.001832 -0.011327 0.013235 0.000000 0.000621 0.000000
# 4 0.000000 0.000000 0.000000 0.038284 0.000000 -0.008316
# 5 -0.004231 -0.007440 0.000621 0.000000 0.039872 0.000000
# 6 0.000000 0.000000 0.000000 -0.008316 0.000000 0.051047
#
#
# Mechanical properties :
#
#
# Convention : Reuss Voigt Hill
#
# Bulk Modulus (GPa) = 33.53512 40.32757 36.93135
# Shear Modulus (GPa) = 20.56012 25.22762 22.89387
#
# Velocity S-wave (km/s) = 3.12661 3.46337 3.29929
# Velocity P-wave (km/s) = 5.38322 5.93024 5.66334
#
# Compressibility (1/GPa) = 0.02981948
#
# Stress axis : x y z
#
# Youngs Moduli (GPa) = 53.93731 28.44309 75.55658
#
# Poissons Ratio (x) = 0.25775 -0.13840
# Poissons Ratio (y) = 0.48878 0.85580
# Poissons Ratio (z) = -0.09880 0.32216
#
# Static dielectric constant tensor:
#      x y z
#    x 1.756030 0.000000 0.011610 
#    y 0.000000 1.800420 0.000000 
#    z 0.011610 0.000000 1.771110 
# 
# From -- ./inp_files/209644.got.cif
#   From: 2010.05.17/outbox.cif.g08.bks.cpg/sg15_105_cif.got.tgz:209644.got - 2010.06.03 18:47:42.
