data_PCOD9284359
_publ_section_title
;
Structure prediction by ZEFSAII (Michael W. Deem and Ramdas Pophale) SiO2 
 PCOD9284359
Probable space group: C 2/C
;
_chemical_formula_sum "Si O2"
_cell_formula_units_Z 48
_cell_length_a 21.577231
_cell_length_b 9.734834
_cell_length_c 18.229383
_cell_angle_alpha 90.000000
_cell_angle_beta 29.327106
_cell_angle_gamma 90.000000
_cell_volume 1875.471832
_symmetry_space_group_name_H-M "C 2/C"
_symmetry_group_IT_number 15
_symmetry_cell_setting 'monoclinic'
loop_
_space_group_symop_operation_xyz
x,y,z
-x,y,1/2-z
-x,-y,-z
x,-y,1/2+z
1/2+x,1/2+y,z
1/2-x,1/2+y,1/2-z
1/2-x,1/2-y,-z
1/2+x,1/2-y,1/2+z
loop_
_atom_site_type_symbol
_atom_site_label
_atom_site_fract_x
_atom_site_fract_y
_atom_site_fract_z
Si Si1 0.635325 0.673211 0.191886
Si Si2 0.151333 0.503070 0.462521
Si Si3 0.500000 0.436179 0.250000
Si Si4 0.034539 0.157885 0.450687
Si Si5 0.318503 0.864894 0.714764
Si Si6 0.207288 0.214034 0.462358
Si Si7 0.000000 0.404066 0.250000
O O1 0.763902 0.633741 0.100133
O O2 0.602295 0.538589 0.178854
O O3 0.537015 0.686683 0.360947
O O4 0.611575 0.803667 0.165077
O O5 0.136812 0.520847 0.390275
O O6 0.215333 0.357658 0.411619
O O7 0.041561 0.509456 0.636508
O O8 0.433082 0.346119 0.381385
O O9 0.176406 0.176523 0.334966
O O10 0.928134 0.252386 0.595910
O O11 0.000000 0.000000 0.500000
O O12 0.290744 0.892824 0.829148
O O13 0.250000 0.250000 0.500000
#
# Coordination Sequence:
#
# PCOD9284359 Si02
#       7
#     8   8   4   8   8   8   4
#     4  10  21  40  69  98 140 188 244 288 368 445
#     4  11  23  46  67 104 142 189 239 307 368 437
#     4  11  23  42  68 106 135 197 242 296 372 449
#     4  11  23  46  73 103 148 197 249 314 375 453
#     4  11  25  45  75 106 147 196 255 306 378 453
#     4  12  26  45  73 105 146 191 249 304 371 451
#     4  11  21  40  66 102 143 179 238 300 368 429
#
# _framework density 25.593558999999999
#
# number of rings (size 3 to 8) (size 9 to 14) (size 15 to 20)
#    0.000    1.000    3.333    4.000    2.333    0.000 
#    0.000    5.000    0.000    0.000    0.000    0.000 
#    0.000    0.000    0.000    0.000    0.000    0.000 
#
# Total GULP energy -134236.668024 kJ/mol
# GULP energy per Si atom -5593.194501 kJ/mol
# Density = 2.553531 g / cm^3
# Si number density = 25.593559 Si / 1000 Ang^3
#
#
#
# Elastic Constant Matrix: (Units=GPa)
#
#
# Indices 1 2 3 4 5 6 
#
# 1 107.0588 28.0021 38.2836 0.0000 12.3259 0.0000
# 2 28.0021 34.6241 25.3865 0.0000 6.5283 0.0000
# 3 38.2836 25.3865 161.7110 0.0000 35.9236 0.0000
# 4 0.0000 0.0000 0.0000 18.7483 0.0000 -0.7110
# 5 12.3259 6.5283 35.9236 0.0000 68.3439 0.0000
# 6 0.0000 0.0000 0.0000 -0.7110 0.0000 31.9116
#
#
#
# Elastic Compliance Matrix: (Units=1/GPa)
#
#
# Indices 1 2 3 4 5 6 
#
# 1 0.012189 -0.008730 -0.001372 0.000000 -0.000643 0.000000
# 2 -0.008730 0.038906 -0.004036 0.000000 -0.000020 0.000000
# 3 -0.001372 -0.004036 0.007927 0.000000 -0.003534 0.000000
# 4 0.000000 0.000000 0.000000 0.053383 0.000000 0.001189
# 5 -0.000643 -0.000020 -0.003534 0.000000 0.016607 0.000000
# 6 0.000000 0.000000 0.000000 0.001189 0.000000 0.031363
#
#
# Mechanical properties :
#
#
# Convention : Reuss Voigt Hill
#
# Bulk Modulus (GPa) = 32.52667 54.08203 43.30435
# Shear Modulus (GPa) = 25.13810 37.91556 31.52683
#
# Velocity S-wave (km/s) = 3.13741 3.85314 3.51355
# Velocity P-wave (km/s) = 5.08537 6.40098 5.78072
#
# Compressibility (1/GPa) = 0.03074400
#
# Stress axis : x y z
#
# Youngs Moduli (GPa) = 82.04189 25.70328 126.14450
#
# Poissons Ratio (x) = 0.22440 0.17310
# Poissons Ratio (y) = 0.71626 0.50916
# Poissons Ratio (z) = 0.11258 0.10375
#
# Static dielectric constant tensor:
#      x y z
#    x 2.097650 0.000000 -0.007610 
#    y 0.000000 1.990000 0.000000 
#    z -0.007610 0.000000 2.119370 
# 
# From -- ./inp_files/219263.got.cif
#   From: 2010.05.17/outbox.cif.g08.bks.cpg/sg15_110_cif.got.tgz:219263.got - 2010.06.03 18:47:42.
