data_PCOD9284185
_publ_section_title
;
Structure prediction by ZEFSAII (Michael W. Deem and Ramdas Pophale) SiO2 
 PCOD9284185
Probable space group: C 2/C
;
_chemical_formula_sum "Si O2"
_cell_formula_units_Z 36
_cell_length_a 9.167678
_cell_length_b 23.834718
_cell_length_c 6.794570
_cell_angle_alpha 90.000000
_cell_angle_beta 77.007878
_cell_angle_gamma 90.000000
_cell_volume 1446.668619
_symmetry_space_group_name_H-M "C 2/C"
_symmetry_group_IT_number 15
_symmetry_cell_setting 'monoclinic'
loop_
_space_group_symop_operation_xyz
x,y,z
-x,y,1/2-z
-x,-y,-z
x,-y,1/2+z
1/2+x,1/2+y,z
1/2-x,1/2+y,1/2-z
1/2-x,1/2-y,-z
1/2+x,1/2-y,1/2+z
loop_
_atom_site_type_symbol
_atom_site_label
_atom_site_fract_x
_atom_site_fract_y
_atom_site_fract_z
Si Si1 0.896327 0.880050 0.106862
Si Si2 0.000000 0.799210 0.750000
Si Si3 0.500000 0.973830 0.250000
Si Si4 0.500000 0.158494 0.250000
Si Si5 0.174175 0.290118 0.364353
Si Si6 0.182853 0.567893 0.365777
O O1 0.767696 0.841875 0.248399
O O2 0.000000 0.904559 0.250000
O O3 0.993428 0.837696 0.944124
O O4 0.822023 0.921726 0.967435
O O5 0.864321 0.755686 0.788133
O O6 0.460581 0.936385 0.445851
O O7 0.647046 0.011974 0.250650
O O8 0.468433 0.189659 0.463645
O O9 0.648166 0.120647 0.240203
O O10 0.250000 0.250000 0.500000
#
# Coordination Sequence:
#
# PCOD9284185 Si02
#       6
#     8   4   4   4   8   8
#     4  12  25  42  63  97 136 180 213 265 326 389
#     4  12  24  43  62  91 134 185 226 265 304 368
#     4   9  20  43  70  96 120 158 220 281 334 387
#     4  11  22  38  68  99 124 171 222 276 320 367
#     4  12  22  39  61  92 132 175 226 258 306 370
#     4  10  21  40  67  95 124 161 213 278 331 386
#
# _framework density 24.884758000000001
#
# number of rings (size 3 to 8) (size 9 to 14) (size 15 to 20)
#    0.000    0.889    2.222    6.000    0.000    0.000 
#    0.000    1.111    0.000    0.000    0.000    0.000 
#    0.000    0.000    0.000    0.000    0.000    0.000 
#
# Total GULP energy -100446.178309 kJ/mol
# GULP energy per Si atom -5580.343239 kJ/mol
# Density = 2.482812 g / cm^3
# Si number density = 24.884758 Si / 1000 Ang^3
#
#
#
# Elastic Constant Matrix: (Units=GPa)
#
#
# Indices 1 2 3 4 5 6 
#
# 1 125.4633 38.5931 16.8069 0.0000 46.8634 0.0000
# 2 38.5931 63.5259 15.6006 0.0000 10.0659 0.0000
# 3 16.8069 15.6006 98.8520 0.0000 4.0050 0.0000
# 4 0.0000 0.0000 0.0000 26.2723 0.0000 11.6251
# 5 46.8634 10.0659 4.0050 0.0000 56.7492 0.0000
# 6 0.0000 0.0000 0.0000 11.6251 0.0000 15.9344
#
#
#
# Elastic Compliance Matrix: (Units=1/GPa)
#
#
# Indices 1 2 3 4 5 6 
#
# 1 0.013984 -0.006639 -0.000912 0.000000 -0.010306 0.000000
# 2 -0.006639 0.019961 -0.002106 0.000000 0.002090 0.000000
# 3 -0.000912 -0.002106 0.010588 0.000000 0.000380 0.000000
# 4 0.000000 0.000000 0.000000 0.056208 0.000000 -0.041007
# 5 -0.010306 0.002090 0.000380 0.000000 0.025735 0.000000
# 6 0.000000 0.000000 0.000000 -0.041007 0.000000 0.092674
#
#
# Mechanical properties :
#
#
# Convention : Reuss Voigt Hill
#
# Bulk Modulus (GPa) = 39.65254 47.76028 43.70641
# Shear Modulus (GPa) = 20.25348 34.24723 27.25036
#
# Velocity S-wave (km/s) = 2.85597 3.71379 3.31276
# Velocity P-wave (km/s) = 5.18117 6.13383 5.67752
#
# Compressibility (1/GPa) = 0.02521906
#
# Stress axis : x y z
#
# Youngs Moduli (GPa) = 71.50810 50.09844 94.44430
#
# Poissons Ratio (x) = 0.33259 0.08617
# Poissons Ratio (y) = 0.47472 0.19891
# Poissons Ratio (z) = 0.06524 0.10551
#
# Static dielectric constant tensor:
#      x y z
#    x 2.007690 0.000000 0.349870 
#    y 0.000000 2.016740 0.000000 
#    z 0.349870 0.000000 0.750170 
# 
# From -- ./inp_files/24386.got.cif
#   From: 2010.05.17/outbox.cif.g08.bks.cpg/sg15_13_cif.got.tgz:24386.got - 2010.06.03 18:47:42.
