data_PCOD9284290
_publ_section_title
;
Structure prediction by ZEFSAII (Michael W. Deem and Ramdas Pophale) SiO2 
 PCOD9284290
Probable space group: C 2/C
;
_chemical_formula_sum "Si O2"
_cell_formula_units_Z 36
_cell_length_a 7.757171
_cell_length_b 17.211696
_cell_length_c 11.496211
_cell_angle_alpha 90.000000
_cell_angle_beta 82.697150
_cell_angle_gamma 90.000000
_cell_volume 1522.454938
_symmetry_space_group_name_H-M "C 2/C"
_symmetry_group_IT_number 15
_symmetry_cell_setting 'monoclinic'
loop_
_space_group_symop_operation_xyz
x,y,z
-x,y,1/2-z
-x,-y,-z
x,-y,1/2+z
1/2+x,1/2+y,z
1/2-x,1/2+y,1/2-z
1/2-x,1/2-y,-z
1/2+x,1/2-y,1/2+z
loop_
_atom_site_type_symbol
_atom_site_label
_atom_site_fract_x
_atom_site_fract_y
_atom_site_fract_z
Si Si1 0.797434 0.618054 0.605335
Si Si2 0.586621 0.431861 0.915940
Si Si3 0.918921 0.294004 0.537973
Si Si4 0.226979 0.442099 0.832661
Si Si5 0.000000 0.190371 0.750000
O O1 0.681022 0.623834 0.498037
O O2 0.833975 0.525948 0.614716
O O3 0.671811 0.638501 0.723239
O O4 0.953379 0.678330 0.576500
O O5 0.411394 0.408475 0.865507
O O6 0.730060 0.453008 0.807126
O O7 0.500000 0.500000 0.000000
O O8 0.750000 0.250000 0.500000
O O9 0.895098 0.375065 0.610359
O O10 0.992120 0.240276 0.634183
#
# Coordination Sequence:
#
# PCOD9284290 Si02
#       5
#     8   8   8   8   4
#     4  11  23  44  68  95 131 178 227 276 333 412
#     4   9  18  36  65  98 128 167 223 280 326 385
#     4  12  27  44  65 100 139 177 221 282 347 408
#     4  10  21  40  68  97 129 175 228 275 331 403
#     4  12  26  46  68  96 132 176 220 280 350 406
#
# _framework density 23.646018999999999
#
# number of rings (size 3 to 8) (size 9 to 14) (size 15 to 20)
#    0.000    1.333    0.000    6.667    0.000    6.222 
#    0.000    4.444    0.000    0.000    0.000    0.000 
#    0.000    0.000    0.000    0.000    0.000    0.000 
#
# Total GULP energy -100418.110923 kJ/mol
# GULP energy per Si atom -5578.783940 kJ/mol
# Density = 2.359220 g / cm^3
# Si number density = 23.646019 Si / 1000 Ang^3
#
#
#
# Elastic Constant Matrix: (Units=GPa)
#
#
# Indices 1 2 3 4 5 6 
#
# 1 70.9927 45.5089 17.6826 0.0000 -16.5285 0.0000
# 2 45.5089 148.9843 47.0713 0.0000 -15.6817 0.0000
# 3 17.6826 47.0713 105.5479 0.0000 -27.7937 0.0000
# 4 0.0000 0.0000 0.0000 -6.3983 0.0000 -3.5238
# 5 -16.5285 -15.6817 -27.7937 0.0000 38.3546 0.0000
# 6 0.0000 0.0000 0.0000 -3.5238 0.0000 45.6730
#
#
#
# Elastic Compliance Matrix: (Units=1/GPa)
#
#
# Indices 1 2 3 4 5 6 
#
# 1 0.018822 -0.005363 0.000985 0.000000 0.006632 0.000000
# 2 -0.005363 0.009362 -0.003556 0.000000 -0.001060 0.000000
# 3 0.000985 -0.003556 0.013130 0.000000 0.008485 0.000000
# 4 0.000000 0.000000 0.000000 -0.149921 0.000000 -0.011567
# 5 0.006632 -0.001060 0.008485 0.000000 0.034646 0.000000
# 6 0.000000 0.000000 0.000000 -0.011567 0.000000 0.021002
#
#
# Mechanical properties :
#
#
# Convention : Reuss Voigt Hill
#
# Bulk Modulus (GPa) = 39.29821 60.67228 49.98524
# Shear Modulus (GPa) = -174.76941 29.87667 -72.44637
#
# Velocity S-wave (km/s) = -8.60646 3.55843 -5.54115
# Velocity P-wave (km/s) = 9.06124 6.52667 4.44458
#
# Compressibility (1/GPa) = 0.02544645
#
# Stress axis : x y z
#
# Youngs Moduli (GPa) = 53.12812 106.81380 76.16418
#
# Poissons Ratio (x) = 0.57279 -0.07500
# Poissons Ratio (y) = 0.28490 0.27084
# Poissons Ratio (z) = -0.05231 0.37982
#
# Static dielectric constant tensor:
#      x y z
#    x 2.019760 0.000000 -0.020860 
#    y 0.000000 1.746320 0.000000 
#    z -0.020860 0.000000 1.930130 
# 
# From -- ./inp_files/76616.got.cif
#   From: 2010.05.17/outbox.cif.g08.bks.cpg/sg15_39_cif.got.tgz:76616.got - 2010.06.03 18:47:42.
