data_PCOD9284589
_publ_section_title
;
Structure prediction by ZEFSAII (Michael W. Deem and Ramdas Pophale) SiO2 
 PCOD9284589
Probable space group: C 2/C
;
_chemical_formula_sum "Si O2"
_cell_formula_units_Z 60
_cell_length_a 22.564122
_cell_length_b 12.756674
_cell_length_c 24.622542
_cell_angle_alpha 90.000000
_cell_angle_beta 156.817837
_cell_angle_gamma 90.000000
_cell_volume 2790.007580
_symmetry_space_group_name_H-M "C 2/C"
_symmetry_group_IT_number 15
_symmetry_cell_setting 'monoclinic'
loop_
_space_group_symop_operation_xyz
x,y,z
-x,y,1/2-z
-x,-y,-z
x,-y,1/2+z
1/2+x,1/2+y,z
1/2-x,1/2+y,1/2-z
1/2-x,1/2-y,-z
1/2+x,1/2-y,1/2+z
loop_
_atom_site_type_symbol
_atom_site_label
_atom_site_fract_x
_atom_site_fract_y
_atom_site_fract_z
Si Si1 0.661992 0.260033 0.483413
Si Si2 0.659447 0.308557 0.063515
Si Si3 0.992599 0.963502 0.184038
Si Si4 0.366729 0.138426 0.227792
Si Si5 0.500000 0.999528 0.750000
Si Si6 0.829496 0.105594 0.243291
Si Si7 0.243528 0.636087 0.970881
Si Si8 0.818077 0.996907 0.344098
O O1 0.750000 0.250000 0.500000
O O2 0.577984 0.373007 0.412781
O O3 0.534469 0.173189 0.384296
O O4 0.777774 0.260632 0.630614
O O5 0.709951 0.190909 0.121005
O O6 0.756951 0.347962 0.094336
O O7 0.707535 0.379907 0.155319
O O8 0.485947 0.334977 0.897039
O O9 0.000000 0.913487 0.250000
O O10 0.127730 0.022549 0.267803
O O11 0.880401 0.060793 0.099221
O O12 0.391363 0.070080 0.194275
O O13 0.268095 0.075310 0.187533
O O14 0.598732 0.075123 0.869939
O O15 0.774758 0.036226 0.248006
O O16 0.250000 0.750000 0.000000
O O17 0.000000 0.000000 0.500000
#
# Coordination Sequence:
#
# PCOD9284589 Si02
#       8
#     8   8   8   8   4   8   8   8
#     4  12  22  40  63  97 133 176 226 282 336 406
#     4  10  21  41  62  89 122 165 210 265 325 396
#     4  11  22  39  59  93 128 164 211 280 337 396
#     4  12  23  40  67  96 132 183 226 280 345 409
#     4  12  22  40  62  94 132 168 222 264 348 406
#     4  10  23  40  64  88 124 164 214 267 328 397
#     4  11  23  35  62  93 129 167 212 270 341 415
#     4  10  22  43  66  89 129 179 222 272 337 410
#
# _framework density 21.505317999999999
#
# number of rings (size 3 to 8) (size 9 to 14) (size 15 to 20)
#    0.000    1.067    4.000    3.200    4.667    3.200 
#    0.000    2.000    0.000    0.000    0.000    0.000 
#    0.000    0.000    0.000    0.000    0.000    0.000 
#
# Total GULP energy -167350.723930 kJ/mol
# GULP energy per Si atom -5578.357464 kJ/mol
# Density = 2.145637 g / cm^3
# Si number density = 21.505318 Si / 1000 Ang^3
#
#
#
# Elastic Constant Matrix: (Units=GPa)
#
#
# Indices 1 2 3 4 5 6 
#
# 1 94.4023 9.4716 15.8329 0.0006 11.9463 0.0000
# 2 9.4716 70.3413 8.7064 0.0099 12.9170 -0.0007
# 3 15.8329 8.7064 42.0279 0.0063 6.2185 0.0005
# 4 0.0006 0.0099 0.0063 48.9685 0.0010 3.2214
# 5 11.9463 12.9170 6.2185 0.0010 27.2985 0.0004
# 6 0.0000 -0.0007 0.0005 3.2214 0.0004 33.0809
#
#
#
# Elastic Compliance Matrix: (Units=1/GPa)
#
#
# Indices 1 2 3 4 5 6 
#
# 1 0.011781 -0.000364 -0.003752 0.000000 -0.004129 0.000000
# 2 -0.000364 0.015781 -0.002122 -0.000003 -0.006825 0.000001
# 3 -0.003752 -0.002122 0.026136 -0.000003 -0.003308 0.000000
# 4 0.000000 -0.000003 -0.000003 0.020553 0.000001 -0.002001
# 5 -0.004129 -0.006825 -0.003308 0.000001 0.042422 -0.000001
# 6 0.000000 0.000001 0.000000 -0.002001 -0.000001 0.030424
#
#
# Mechanical properties :
#
#
# Convention : Reuss Voigt Hill
#
# Bulk Modulus (GPa) = 24.25861 30.53258 27.39559
# Shear Modulus (GPa) = 28.84931 33.38694 31.11813
#
# Velocity S-wave (km/s) = 3.66662 3.94445 3.80807
# Velocity P-wave (km/s) = 5.40650 5.91383 5.66585
#
# Compressibility (1/GPa) = 0.04122248
#
# Stress axis : x y z
#
# Youngs Moduli (GPa) = 84.88078 63.36603 38.26109
#
# Poissons Ratio (x) = 0.02305 0.14355
# Poissons Ratio (y) = 0.03088 0.08121
# Poissons Ratio (z) = 0.31847 0.13449
#
# Static dielectric constant tensor:
#      x y z
#    x 1.771940 0.000130 -0.530260 
#    y 0.000130 2.002410 0.000050 
#    z -0.530260 0.000050 1.566650 
# 
# From -- ./inp_files/280103.got.cif
#   From: 2010.05.17/outbox.cif.g08.bks.cpg/sg15_141_cif.got.tgz:280103.got - 2010.06.03 18:47:42.
