data_PCOD9284975
_publ_section_title
;
Structure prediction by ZEFSAII (Michael W. Deem and Ramdas Pophale) SiO2 
 PCOD9284975
Probable space group: C 2/C
;
_chemical_formula_sum "Si O2"
_cell_formula_units_Z 48
_cell_length_a 17.170989
_cell_length_b 16.527004
_cell_length_c 15.444781
_cell_angle_alpha 90.000000
_cell_angle_beta 34.130822
_cell_angle_gamma 90.000000
_cell_volume 2459.231220
_symmetry_space_group_name_H-M "C 2/C"
_symmetry_group_IT_number 15
_symmetry_cell_setting 'monoclinic'
loop_
_space_group_symop_operation_xyz
x,y,z
-x,y,1/2-z
-x,-y,-z
x,-y,1/2+z
1/2+x,1/2+y,z
1/2-x,1/2+y,1/2-z
1/2-x,1/2-y,-z
1/2+x,1/2-y,1/2+z
loop_
_atom_site_type_symbol
_atom_site_label
_atom_site_fract_x
_atom_site_fract_y
_atom_site_fract_z
Si Si1 0.318437 0.701362 0.017366
Si Si2 0.913614 0.682616 0.745878
Si Si3 0.129544 0.186249 0.780262
Si Si4 0.000000 0.082060 0.250000
Si Si5 0.271686 0.554681 0.948032
Si Si6 0.000000 0.474646 0.250000
Si Si7 0.403746 0.695060 0.493760
O O1 0.236233 0.738760 0.173816
O O2 0.250000 0.750000 0.000000
O O3 0.481948 0.713720 0.877012
O O4 0.298561 0.608084 0.009766
O O5 0.755005 0.709743 0.889962
O O6 0.000000 0.712799 0.750000
O O7 0.924827 0.586269 0.750775
O O8 0.003345 0.723442 0.587942
O O9 0.187638 0.112465 0.669232
O O10 0.107216 0.160991 0.899485
O O11 0.973721 0.134797 0.360357
O O12 0.868111 0.023821 0.358812
O O13 0.113151 0.527581 0.097099
#
# Coordination Sequence:
#
# PCOD9284975 Si02
#       7
#     8   8   8   4   8   4   8
#     4  10  21  41  66  89 125 168 208 247 312 376
#     4  10  22  41  63  90 114 168 215 243 307 378
#     4  11  24  41  62  99 124 161 213 265 303 367
#     4  12  21  42  65  84 128 172 204 252 315 388
#     4  11  22  41  64  90 124 165 208 250 317 380
#     4  10  23  38  65  88 116 160 218 246 303 382
#     4  12  24  40  66  92 126 163 213 261 309 366
#
# _framework density 19.518294000000001
#
# number of rings (size 3 to 8) (size 9 to 14) (size 15 to 20)
#    0.500    0.667    4.167    3.000    7.000    0.667 
#    0.000    0.833    0.000    0.000    0.000    0.000 
#    0.000    0.000    0.000    0.000    0.000    0.000 
#
# Total GULP energy -133816.066522 kJ/mol
# GULP energy per Si atom -5575.669438 kJ/mol
# Density = 1.947387 g / cm^3
# Si number density = 19.518294 Si / 1000 Ang^3
#
#
#
# Elastic Constant Matrix: (Units=GPa)
#
#
# Indices 1 2 3 4 5 6 
#
# 1 62.7760 27.7284 51.9285 -0.0001 -1.0632 0.0000
# 2 27.7284 69.8397 63.4576 -0.0002 4.3315 0.0001
# 3 51.9285 63.4576 153.1720 -0.0003 -10.8055 0.0001
# 4 -0.0001 -0.0002 -0.0003 48.8144 0.0002 -4.7642
# 5 -1.0632 4.3315 -10.8055 0.0002 47.8156 -0.0001
# 6 0.0000 0.0001 0.0001 -4.7642 -0.0001 11.9428
#
#
#
# Elastic Compliance Matrix: (Units=1/GPa)
#
#
# Indices 1 2 3 4 5 6 
#
# 1 0.022602 -0.003090 -0.006430 0.000000 -0.000671 0.000000
# 2 -0.003090 0.024288 -0.009323 0.000000 -0.004376 0.000000
# 3 -0.006430 -0.009323 0.012825 0.000000 0.003600 0.000000
# 4 0.000000 0.000000 0.000000 0.021316 0.000000 0.008503
# 5 -0.000671 -0.004376 0.003600 0.000000 0.022109 0.000000
# 6 0.000000 0.000000 0.000000 0.008503 0.000000 0.087125
#
#
# Mechanical properties :
#
#
# Convention : Reuss Voigt Hill
#
# Bulk Modulus (GPa) = 45.39505 63.55742 54.47624
# Shear Modulus (GPa) = 21.25009 31.22611 26.23810
#
# Velocity S-wave (km/s) = 3.30317 4.00414 3.67042
# Velocity P-wave (km/s) = 6.15273 7.34923 6.77743
#
# Compressibility (1/GPa) = 0.02202883
#
# Stress axis : x y z
#
# Youngs Moduli (GPa) = 44.24436 41.17231 77.97284
#
# Poissons Ratio (x) = 0.12722 0.50134
# Poissons Ratio (y) = 0.13671 0.72698
# Poissons Ratio (z) = 0.28448 0.38387
#
# Static dielectric constant tensor:
#      x y z
#    x 1.730270 0.000000 0.021660 
#    y 0.000000 1.708630 0.000000 
#    z 0.021660 0.000000 1.713980 
# 
# From -- ./inp_files/163222.got.cif
#   From: 2010.05.17/outbox.cif.g08.bks.cpg/sg15_82_cif.got.tgz:163222.got - 2010.06.03 18:47:42.
