data_PCOD9284660
_publ_section_title
;
Structure prediction by ZEFSAII (Michael W. Deem and Ramdas Pophale) SiO2 
 PCOD9284660
Probable space group: C 2/C
;
_chemical_formula_sum "Si O2"
_cell_formula_units_Z 64
_cell_length_a 15.340054
_cell_length_b 26.851814
_cell_length_c 12.704714
_cell_angle_alpha 90.000000
_cell_angle_beta 39.047491
_cell_angle_gamma 90.000000
_cell_volume 3296.714754
_symmetry_space_group_name_H-M "C 2/C"
_symmetry_group_IT_number 15
_symmetry_cell_setting 'monoclinic'
loop_
_space_group_symop_operation_xyz
x,y,z
-x,y,1/2-z
-x,-y,-z
x,-y,1/2+z
1/2+x,1/2+y,z
1/2-x,1/2+y,1/2-z
1/2-x,1/2-y,-z
1/2+x,1/2-y,1/2+z
loop_
_atom_site_type_symbol
_atom_site_label
_atom_site_fract_x
_atom_site_fract_y
_atom_site_fract_z
Si Si1 0.839644 0.892338 0.417961
Si Si2 0.837473 0.273042 0.513328
Si Si3 0.828802 0.047374 0.720978
Si Si4 0.367025 0.896958 0.241760
Si Si5 0.132657 0.932317 0.874972
Si Si6 0.315747 0.890840 0.520477
Si Si7 0.149941 0.295103 0.554451
Si Si8 0.628110 0.782590 0.328731
O O1 0.826209 0.937658 0.346318
O O2 0.817213 0.912796 0.557617
O O3 0.735678 0.846758 0.490986
O O4 0.000000 0.875032 0.250000
O O5 0.750000 0.250000 0.500000
O O6 0.829807 0.331567 0.505100
O O7 0.756453 0.253461 0.690355
O O8 0.997447 0.261145 0.385916
O O9 0.698758 0.072618 0.789746
O O10 0.967033 0.071504 0.540649
O O11 0.834320 0.989718 0.684098
O O12 0.293926 0.909050 0.421682
O O13 0.347781 0.838126 0.238504
O O14 0.529907 0.908588 0.094742
O O15 0.202450 0.903558 0.713237
O O16 0.250000 0.250000 0.500000
O O17 0.111432 0.288087 0.468175
O O18 0.000000 0.296128 0.750000
#
# Coordination Sequence:
#
# PCOD9284660 Si02
#       8
#     8   8   8   8   8   8   8   8
#     4  10  23  43  65  95 132 168 215 269 325 383
#     4  11  22  40  62  90 128 164 205 258 317 376
#     4  10  22  44  65  93 126 166 208 269 328 376
#     4  10  21  41  63  88 128 163 204 259 323 375
#     4  10  24  40  68  95 126 163 214 268 321 384
#     4  10  23  40  61  93 126 164 210 260 311 387
#     4  12  26  43  65  93 127 174 221 267 319 384
#     4  11  23  40  62  88 125 169 208 261 318 376
#
# _framework density 19.413266
#
# number of rings (size 3 to 8) (size 9 to 14) (size 15 to 20)
#    0.000    1.500    2.500    1.500    7.000    2.000 
#    2.250    0.000    0.000    0.000    0.000    0.000 
#    0.000    0.000    0.000    0.000    0.000    0.000 
#
# Total GULP energy -178503.783246 kJ/mol
# GULP energy per Si atom -5578.243226 kJ/mol
# Density = 1.936908 g / cm^3
# Si number density = 19.413266 Si / 1000 Ang^3
#
#
#
# Elastic Constant Matrix: (Units=GPa)
#
#
# Indices 1 2 3 4 5 6 
#
# 1 91.4987 19.5451 25.6442 0.0000 4.7304 0.0000
# 2 19.5451 30.6883 13.7459 0.0000 -11.6207 0.0000
# 3 25.6442 13.7459 91.0837 0.0000 16.5863 0.0000
# 4 0.0000 0.0000 0.0000 18.4363 0.0000 5.3342
# 5 4.7304 -11.6207 16.5863 0.0000 33.7653 0.0000
# 6 0.0000 0.0000 0.0000 5.3342 0.0000 20.1170
#
#
#
# Elastic Compliance Matrix: (Units=1/GPa)
#
#
# Indices 1 2 3 4 5 6 
#
# 1 0.013674 -0.009704 -0.001568 0.000000 -0.004485 0.000000
# 2 -0.009704 0.052084 -0.009489 0.000000 0.023946 0.000000
# 3 -0.001568 -0.009489 0.014724 0.000000 -0.010279 0.000000
# 4 0.000000 0.000000 0.000000 0.058748 0.000000 -0.015578
# 5 -0.004485 0.023946 -0.010279 0.000000 0.043535 0.000000
# 6 0.000000 0.000000 0.000000 -0.015578 0.000000 0.053840
#
#
# Mechanical properties :
#
#
# Convention : Reuss Voigt Hill
#
# Bulk Modulus (GPa) = 25.66804 36.79346 31.23075
# Shear Modulus (GPa) = 17.17546 24.75275 20.96411
#
# Velocity S-wave (km/s) = 2.97766 3.57465 3.28973
# Velocity P-wave (km/s) = 5.00725 6.00261 5.52738
#
# Compressibility (1/GPa) = 0.03895896
#
# Stress axis : x y z
#
# Youngs Moduli (GPa) = 73.13411 19.19982 67.91525
#
# Poissons Ratio (x) = 0.18632 0.10652
# Poissons Ratio (y) = 0.70971 0.64442
# Poissons Ratio (z) = 0.11471 0.18218
#
# Static dielectric constant tensor:
#      x y z
#    x 1.684490 0.000000 0.006240 
#    y 0.000000 1.673850 0.000000 
#    z 0.006240 0.000000 1.693450 
# 
# From -- ./inp_files/101324.got.cif
#   From: 2010.05.17/outbox.cif.g08.bks.cpg/sg15_51_cif.got.tgz:101324.got - 2010.06.03 18:47:42.
