data_PCOD9284469
_publ_section_title
;
Structure prediction by ZEFSAII (Michael W. Deem and Ramdas Pophale) SiO2 
 PCOD9284469
Probable space group: C 2/C
;
_chemical_formula_sum "Si O2"
_cell_formula_units_Z 48
_cell_length_a 9.412476
_cell_length_b 27.140437
_cell_length_c 16.713663
_cell_angle_alpha 90.000000
_cell_angle_beta 146.960467
_cell_angle_gamma 90.000000
_cell_volume 2327.888654
_symmetry_space_group_name_H-M "C 2/C"
_symmetry_group_IT_number 15
_symmetry_cell_setting 'monoclinic'
loop_
_space_group_symop_operation_xyz
x,y,z
-x,y,1/2-z
-x,-y,-z
x,-y,1/2+z
1/2+x,1/2+y,z
1/2-x,1/2+y,1/2-z
1/2-x,1/2-y,-z
1/2+x,1/2-y,1/2+z
loop_
_atom_site_type_symbol
_atom_site_label
_atom_site_fract_x
_atom_site_fract_y
_atom_site_fract_z
Si Si1 0.722795 0.948822 0.420273
Si Si2 0.880241 0.693747 0.905830
Si Si3 0.262284 0.939851 0.577897
Si Si4 0.702322 0.306839 0.636108
Si Si5 0.414200 0.656615 0.586504
Si Si6 0.881845 0.865735 0.611150
O O1 0.500000 0.937890 0.250000
O O2 0.735287 0.909538 0.496421
O O3 0.000118 0.944380 0.506551
O O4 0.685103 0.005310 0.430417
O O5 0.836133 0.749982 0.859788
O O6 0.684197 0.659389 0.762075
O O7 0.787228 0.687225 0.953675
O O8 0.172508 0.676618 0.031182
O O9 0.500000 0.927544 0.750000
O O10 0.205100 0.897282 0.486828
O O11 0.544386 0.319340 0.480701
O O12 0.602748 0.342639 0.658301
O O13 0.000000 0.314117 0.750000
O O14 0.000000 0.883613 0.750000
#
# Coordination Sequence:
#
# PCOD9284469 Si02
#       6
#     8   8   8   8   8   8
#     4  10  22  44  67  99 134 174 226 277 335 403
#     4  11  26  42  63  99 135 171 223 285 339 387
#     4  10  21  40  74  96 124 177 229 272 330 410
#     4  12  24  44  68  91 130 182 225 272 331 408
#     4  11  22  42  70  93 128 177 227 274 329 410
#     4  12  27  42  66 101 138 173 221 285 336 394
#
# _framework density 20.619543
#
# number of rings (size 3 to 8) (size 9 to 14) (size 15 to 20)
#    0.000    1.000    3.333    3.500    4.667    0.000 
#    3.000    0.833    0.000    0.000    0.000    0.000 
#    0.000    0.000    0.000    0.000    0.000    0.000 
#
# Total GULP energy -134200.803089 kJ/mol
# GULP energy per Si atom -5591.700129 kJ/mol
# Density = 2.057261 g / cm^3
# Si number density = 20.619543 Si / 1000 Ang^3
#
#
#
# Elastic Constant Matrix: (Units=GPa)
#
#
# Indices 1 2 3 4 5 6 
#
# 1 55.5710 9.2297 31.2017 0.0000 -3.3743 0.0000
# 2 9.2297 139.7444 47.3876 0.0000 -16.4794 0.0000
# 3 31.2017 47.3876 117.1230 0.0000 -5.0931 0.0000
# 4 0.0000 0.0000 0.0000 22.6918 0.0000 3.4971
# 5 -3.3743 -16.4794 -5.0931 0.0000 39.2055 0.0000
# 6 0.0000 0.0000 0.0000 3.4971 0.0000 32.0558
#
#
#
# Elastic Compliance Matrix: (Units=1/GPa)
#
#
# Indices 1 2 3 4 5 6 
#
# 1 0.021274 0.000764 -0.005917 0.000000 0.001384 0.000000
# 2 0.000764 0.008705 -0.003584 0.000000 0.003259 0.000000
# 3 -0.005917 -0.003584 0.011542 0.000000 -0.000516 0.000000
# 4 0.000000 0.000000 0.000000 0.044822 0.000000 -0.004890
# 5 0.001384 0.003259 -0.000516 0.000000 0.026929 0.000000
# 6 0.000000 0.000000 0.000000 -0.004890 0.000000 0.031729
#
#
# Mechanical properties :
#
#
# Convention : Reuss Voigt Hill
#
# Bulk Modulus (GPa) = 41.58216 54.23069 47.90643
# Shear Modulus (GPa) = 29.32731 33.76524 31.54627
#
# Velocity S-wave (km/s) = 3.77544 4.05104 3.91566
# Velocity P-wave (km/s) = 6.26222 6.94543 6.61265
#
# Compressibility (1/GPa) = 0.02404877
#
# Stress axis : x y z
#
# Youngs Moduli (GPa) = 47.00565 114.87501 86.64148
#
# Poissons Ratio (x) = -0.08781 0.51262
# Poissons Ratio (y) = -0.03593 0.31052
# Poissons Ratio (z) = 0.27811 0.41171
#
# Static dielectric constant tensor:
#      x y z
#    x 1.716820 0.000000 0.009060 
#    y 0.000000 1.753670 0.000000 
#    z 0.009060 0.000000 1.754450 
# 
# From -- ./inp_files/139041.got.cif
#   From: 2010.05.17/outbox.cif.g08.bks.cpg/sg15_70_cif.got.tgz:139041.got - 2010.06.03 18:47:42.
