data_PCOD9284272
_publ_section_title
;
Structure prediction by ZEFSAII (Michael W. Deem and Ramdas Pophale) SiO2 
 PCOD9284272
Probable space group: C 2/C
;
_chemical_formula_sum "Si O2"
_cell_formula_units_Z 40
_cell_length_a 10.386215
_cell_length_b 21.506097
_cell_length_c 15.521350
_cell_angle_alpha 90.000000
_cell_angle_beta 144.717734
_cell_angle_gamma 90.000000
_cell_volume 2002.531408
_symmetry_space_group_name_H-M "C 2/C"
_symmetry_group_IT_number 15
_symmetry_cell_setting 'monoclinic'
loop_
_space_group_symop_operation_xyz
x,y,z
-x,y,1/2-z
-x,-y,-z
x,-y,1/2+z
1/2+x,1/2+y,z
1/2-x,1/2+y,1/2-z
1/2-x,1/2-y,-z
1/2+x,1/2-y,1/2+z
loop_
_atom_site_type_symbol
_atom_site_label
_atom_site_fract_x
_atom_site_fract_y
_atom_site_fract_z
Si Si1 0.000000 0.123679 0.250000
Si Si2 0.260447 0.782299 0.413708
Si Si3 0.401335 0.955717 0.039066
Si Si4 0.258708 0.923943 0.411785
Si Si5 0.086477 0.794119 0.964769
Si Si6 0.500000 0.133891 0.750000
O O1 0.211419 0.079408 0.380322
O O2 0.982862 0.163422 0.330435
O O3 0.250000 0.750000 0.500000
O O4 0.344179 0.853600 0.468051
O O5 0.406679 0.743912 0.423426
O O6 0.000000 0.785730 0.250000
O O7 0.319502 0.025135 0.017525
O O8 0.625589 0.955533 0.106829
O O9 0.455645 0.910516 0.146268
O O10 0.000000 0.921611 0.250000
O O11 0.250000 0.750000 0.000000
O O12 0.267281 0.827603 0.127128
#
# Coordination Sequence:
#
# PCOD9284272 Si02
#       6
#     4   8   8   8   8   4
#     4  10  21  40  68  94 121 164 224 260 316 368
#     4  11  27  43  64  96 137 172 210 264 330 384
#     4  10  21  42  67  90 122 162 218 262 315 367
#     4  10  22  41  65  86 126 171 207 253 319 388
#     4  11  24  39  68  94 133 167 218 261 316 385
#     4  10  23  40  68  98 123 156 222 274 306 364
#
# _framework density 19.974719
#
# number of rings (size 3 to 8) (size 9 to 14) (size 15 to 20)
#    0.000    1.600    1.000    3.000   14.000    0.000 
#    1.800    1.000    0.000    0.000    0.000    0.000 
#    0.000    0.000    0.000    0.000    0.000    0.000 
#
# Total GULP energy -111433.566082 kJ/mol
# GULP energy per Si atom -5571.678304 kJ/mol
# Density = 1.992926 g / cm^3
# Si number density = 19.974719 Si / 1000 Ang^3
#
#
#
# Elastic Constant Matrix: (Units=GPa)
#
#
# Indices 1 2 3 4 5 6 
#
# 1 104.3669 60.1255 37.8190 -0.0002 20.6543 -0.0003
# 2 60.1255 161.8497 61.9037 -0.0002 0.7779 -0.0002
# 3 37.8190 61.9037 116.5673 -0.0028 1.2666 -0.0014
# 4 -0.0002 -0.0002 -0.0028 32.4404 -0.0008 4.5078
# 5 20.6543 0.7779 1.2666 -0.0008 24.8843 -0.0006
# 6 -0.0003 -0.0002 -0.0014 4.5078 -0.0006 31.5340
#
#
#
# Elastic Compliance Matrix: (Units=1/GPa)
#
#
# Indices 1 2 3 4 5 6 
#
# 1 0.015812 -0.004899 -0.002389 0.000000 -0.012850 0.000000
# 2 -0.004899 0.009271 -0.003377 0.000000 0.003948 0.000000
# 3 -0.002389 -0.003377 0.011131 0.000001 0.001522 0.000000
# 4 0.000000 0.000000 0.000001 0.031451 0.000001 -0.004496
# 5 -0.012850 0.003948 0.001522 0.000001 0.050651 0.000001
# 6 0.000000 0.000000 0.000000 -0.004496 0.000001 0.032354
#
#
# Mechanical properties :
#
#
# Convention : Reuss Voigt Hill
#
# Bulk Modulus (GPa) = 67.18341 78.05337 72.61839
# Shear Modulus (GPa) = 28.25487 32.63411 30.44449
#
# Velocity S-wave (km/s) = 3.76511 4.04638 3.90827
# Velocity P-wave (km/s) = 7.25318 7.80973 7.53659
#
# Compressibility (1/GPa) = 0.01488463
#
# Stress axis : x y z
#
# Youngs Moduli (GPa) = 63.24166 107.86315 89.84163
#
# Poissons Ratio (x) = 0.52838 0.21464
# Poissons Ratio (y) = 0.30980 0.30340
# Poissons Ratio (z) = 0.15109 0.36426
#
# Static dielectric constant tensor:
#      x y z
#    x 1.717660 0.000000 0.077330 
#    y 0.000000 1.866210 0.000010 
#    z 0.077330 0.000010 1.122020 
# 
# From -- ./inp_files/137122.got.cif
#   From: 2010.05.17/outbox.cif.g08.bks.cpg/sg15_69_cif.got.tgz:137122.got - 2010.06.03 18:47:42.
