data_PCOD9284127
_publ_section_title
;
Structure prediction by ZEFSAII (Michael W. Deem and Ramdas Pophale) SiO2 
 PCOD9284127
Probable space group: C 2/C
;
_chemical_formula_sum "Si O2"
_cell_formula_units_Z 36
_cell_length_a 11.395135
_cell_length_b 30.773582
_cell_length_c 5.166236
_cell_angle_alpha 90.000000
_cell_angle_beta 106.906311
_cell_angle_gamma 90.000000
_cell_volume 1733.343205
_symmetry_space_group_name_H-M "C 2/C"
_symmetry_group_IT_number 15
_symmetry_cell_setting 'monoclinic'
loop_
_space_group_symop_operation_xyz
x,y,z
-x,y,1/2-z
-x,-y,-z
x,-y,1/2+z
1/2+x,1/2+y,z
1/2-x,1/2+y,1/2-z
1/2-x,1/2-y,-z
1/2+x,1/2-y,1/2+z
loop_
_atom_site_type_symbol
_atom_site_label
_atom_site_fract_x
_atom_site_fract_y
_atom_site_fract_z
Si Si1 0.851855 0.026468 0.667236
Si Si2 0.887124 0.255263 0.993900
Si Si3 0.000000 0.815542 0.250000
Si Si4 0.716533 0.624923 0.988638
Si Si5 0.369795 0.145552 0.580766
O O1 0.810227 0.075866 0.613604
O O2 0.000000 0.027120 0.750000
O O3 0.810884 0.996202 0.404460
O O4 0.901615 0.306927 0.978226
O O5 0.000000 0.241473 0.250000
O O6 0.750000 0.250000 0.000000
O O7 0.901219 0.220257 0.779579
O O8 0.910457 0.848708 0.038825
O O9 0.788016 0.646824 0.790255
O O10 0.795413 0.623660 0.301214
O O11 0.500000 0.125694 0.750000
#
# Coordination Sequence:
#
# PCOD9284127 Si02
#       5
#     8   8   4   8   8
#     4  10  21  40  67 101 134 164 205 272 349 410
#     4  11  24  42  61  92 137 184 230 282 333 389
#     4  12  26  38  68 100 136 178 226 280 338 394
#     4  12  24  44  69 100 135 171 224 278 337 402
#     4  11  26  43  66  92 133 187 228 270 321 394
#
# _framework density 20.769113999999998
#
# number of rings (size 3 to 8) (size 9 to 14) (size 15 to 20)
#    0.000    0.889    3.333    3.333    6.222    1.778 
#    0.000    0.000    0.000   13.333    0.000    0.000 
#    0.000    0.000    0.000    0.000    0.000    0.000 
#
# Total GULP energy -100324.689677 kJ/mol
# GULP energy per Si atom -5573.593871 kJ/mol
# Density = 2.072184 g / cm^3
# Si number density = 20.769114 Si / 1000 Ang^3
#
#
#
# Elastic Constant Matrix: (Units=GPa)
#
#
# Indices 1 2 3 4 5 6 
#
# 1 101.5728 21.2802 34.5893 0.0000 6.5558 0.0000
# 2 21.2802 91.6903 28.5365 0.0000 11.5270 0.0000
# 3 34.5893 28.5365 115.9494 0.0000 5.7077 0.0000
# 4 0.0000 0.0000 0.0000 69.0035 0.0000 18.8703
# 5 6.5558 11.5270 5.7077 0.0000 19.1695 0.0000
# 6 0.0000 0.0000 0.0000 18.8703 0.0000 25.5504
#
#
#
# Elastic Compliance Matrix: (Units=1/GPa)
#
#
# Indices 1 2 3 4 5 6 
#
# 1 0.011274 -0.001446 -0.002903 0.000000 -0.002121 0.000000
# 2 -0.001446 0.012805 -0.002400 0.000000 -0.006490 0.000000
# 3 -0.002903 -0.002400 0.010109 0.000000 -0.000574 0.000000
# 4 0.000000 0.000000 0.000000 0.018160 0.000000 -0.013412
# 5 -0.002121 -0.006490 -0.000574 0.000000 0.056965 0.000000
# 6 0.000000 0.000000 0.000000 -0.013412 0.000000 0.049044
#
#
# Mechanical properties :
#
#
# Convention : Reuss Voigt Hill
#
# Bulk Modulus (GPa) = 48.33499 53.11383 50.72441
# Shear Modulus (GPa) = 27.97164 37.73177 32.85170
#
# Velocity S-wave (km/s) = 3.67385 4.26693 3.98145
# Velocity P-wave (km/s) = 6.42800 7.06432 6.75366
#
# Compressibility (1/GPa) = 0.02068894
#
# Stress axis : x y z
#
# Youngs Moduli (GPa) = 88.70306 78.09433 98.91782
#
# Poissons Ratio (x) = 0.11295 0.28713
# Poissons Ratio (y) = 0.12830 0.23745
# Poissons Ratio (z) = 0.25748 0.18747
#
# Static dielectric constant tensor:
#      x y z
#    x 1.706940 0.000000 -0.019350 
#    y 0.000000 1.747500 0.000000 
#    z -0.019350 0.000000 1.757130 
# 
# From -- ./inp_files/4834.got.cif
#   From: 2010.05.17/outbox.cif.g08.bks.cpg/sg15_3_cif.got.tgz:4834.got - 2010.06.03 18:47:42.
