data_PCOD9284557
_publ_section_title
;
Structure prediction by ZEFSAII (Michael W. Deem and Ramdas Pophale) SiO2 
 PCOD9284557
Probable space group: C 2/C
;
_chemical_formula_sum "Si O2"
_cell_formula_units_Z 52
_cell_length_a 12.441175
_cell_length_b 8.074014
_cell_length_c 23.228366
_cell_angle_alpha 90.000000
_cell_angle_beta 115.682789
_cell_angle_gamma 90.000000
_cell_volume 2102.781914
_symmetry_space_group_name_H-M "C 2/C"
_symmetry_group_IT_number 15
_symmetry_cell_setting 'monoclinic'
loop_
_space_group_symop_operation_xyz
x,y,z
-x,y,1/2-z
-x,-y,-z
x,-y,1/2+z
1/2+x,1/2+y,z
1/2-x,1/2+y,1/2-z
1/2-x,1/2-y,-z
1/2+x,1/2-y,1/2+z
loop_
_atom_site_type_symbol
_atom_site_label
_atom_site_fract_x
_atom_site_fract_y
_atom_site_fract_z
Si Si1 0.500000 0.069359 0.750000
Si Si2 0.058952 0.572985 0.145284
Si Si3 0.187885 0.690645 0.410872
Si Si4 0.325687 0.590167 0.339060
Si Si5 0.771658 0.534756 0.471259
Si Si6 0.046122 0.749595 0.938749
Si Si7 0.720823 0.748996 0.293190
O O1 0.397214 0.191271 0.702183
O O2 0.442647 0.960198 0.786698
O O3 0.194487 0.610610 0.159941
O O4 0.953262 0.704821 0.108987
O O5 0.011374 0.405222 0.107023
O O6 0.212183 0.632498 0.352191
O O7 0.231045 0.545307 0.464309
O O8 0.257603 0.862912 0.434295
O O9 0.437154 0.620929 0.408087
O O10 0.322774 0.698811 0.280541
O O11 0.310718 0.403984 0.313585
O O12 0.889367 0.650969 0.493048
O O13 0.658328 0.653146 0.438151
#
# Coordination Sequence:
#
# PCOD9284557 Si02
#       7
#     4   8   8   8   8   8   8
#     4  12  22  44  70  96 140 188 224 286 348 416
#     4  11  21  43  67  94 138 175 224 285 350 416
#     4  10  21  41  69  95 130 188 225 291 355 406
#     4  12  23  40  65  99 138 180 232 284 357 412
#     4   9  21  42  65  92 131 177 242 288 344 419
#     4  10  21  41  61  92 133 172 223 296 339 411
#     4  12  24  43  67 101 140 178 233 284 339 441
#
# _framework density 24.729144999999999
#
# number of rings (size 3 to 8) (size 9 to 14) (size 15 to 20)
#    0.000    1.231    4.615    0.923    0.000    1.231 
#    5.538    0.769    0.000    0.000    0.000    0.000 
#    0.000    0.000    0.000    0.000    0.000    0.000 
#
# Total GULP energy -145116.954124 kJ/mol
# GULP energy per Si atom -5581.421312 kJ/mol
# Density = 2.467286 g / cm^3
# Si number density = 24.729145 Si / 1000 Ang^3
#
#
#
# Elastic Constant Matrix: (Units=GPa)
#
#
# Indices 1 2 3 4 5 6 
#
# 1 59.4210 13.4284 26.3438 0.0000 37.1145 0.0000
# 2 13.4284 96.8631 32.1268 0.0000 18.6231 0.0000
# 3 26.3438 32.1268 81.9102 0.0000 30.3821 0.0000
# 4 0.0000 0.0000 0.0000 51.0548 0.0000 20.2636
# 5 37.1145 18.6231 30.3821 0.0000 50.3852 0.0000
# 6 0.0000 0.0000 0.0000 20.2636 0.0000 37.5168
#
#
#
# Elastic Compliance Matrix: (Units=1/GPa)
#
#
# Indices 1 2 3 4 5 6 
#
# 1 0.031442 0.000602 -0.002158 0.000000 -0.022082 0.000000
# 2 0.000602 0.012043 -0.003995 0.000000 -0.002486 0.000000
# 3 -0.002158 -0.003995 0.017173 0.000000 -0.007289 0.000000
# 4 0.000000 0.000000 0.000000 0.024931 0.000000 -0.013466
# 5 -0.022082 -0.002486 -0.007289 0.000000 0.041427 0.000000
# 6 0.000000 0.000000 0.000000 -0.013466 0.000000 0.033928
#
#
# Mechanical properties :
#
#
# Convention : Reuss Voigt Hill
#
# Bulk Modulus (GPa) = 20.17869 42.44361 31.31115
# Shear Modulus (GPa) = 26.51584 38.87773 32.69679
#
# Velocity S-wave (km/s) = 3.27808 3.96933 3.64015
# Velocity P-wave (km/s) = 4.74398 6.18127 5.50969
#
# Compressibility (1/GPa) = 0.04955722
#
# Stress axis : x y z
#
# Youngs Moduli (GPa) = 31.80429 83.03282 58.23019
#
# Poissons Ratio (x) = -0.05002 0.12566
# Poissons Ratio (y) = -0.01916 0.23265
# Poissons Ratio (z) = 0.06863 0.33174
#
# Static dielectric constant tensor:
#      x y z
#    x 1.966190 0.000000 0.065890 
#    y 0.000000 1.977350 0.000000 
#    z 0.065890 0.000000 2.013150 
# 
# From -- ./inp_files/291697.got.cif
#   From: 2010.05.17/outbox.cif.g08.bks.cpg/sg15_146_cif.got.tgz:291697.got - 2010.06.03 18:47:42.
