data_PCOD9284363
_publ_section_title
;
Structure prediction by ZEFSAII (Michael W. Deem and Ramdas Pophale) SiO2 
 PCOD9284363
Probable space group: C 2/C
;
_chemical_formula_sum "Si O2"
_cell_formula_units_Z 40
_cell_length_a 21.681432
_cell_length_b 9.223454
_cell_length_c 9.219538
_cell_angle_alpha 90.000000
_cell_angle_beta 80.868059
_cell_angle_gamma 90.000000
_cell_volume 1820.333889
_symmetry_space_group_name_H-M "C 2/C"
_symmetry_group_IT_number 15
_symmetry_cell_setting 'monoclinic'
loop_
_space_group_symop_operation_xyz
x,y,z
-x,y,1/2-z
-x,-y,-z
x,-y,1/2+z
1/2+x,1/2+y,z
1/2-x,1/2+y,1/2-z
1/2-x,1/2-y,-z
1/2+x,1/2-y,1/2+z
loop_
_atom_site_type_symbol
_atom_site_label
_atom_site_fract_x
_atom_site_fract_y
_atom_site_fract_z
Si Si1 0.125202 0.648504 0.885771
Si Si2 0.253671 0.824406 0.343745
Si Si3 0.039921 0.395419 0.880332
Si Si4 0.790461 0.646773 0.381028
Si Si5 0.004597 0.846282 0.922028
O O1 0.179987 0.704884 0.760724
O O2 0.098940 0.498172 0.829518
O O3 0.070775 0.766116 0.923065
O O4 0.152085 0.612856 0.034543
O O5 0.250000 0.750000 0.500000
O O6 0.201688 0.747245 0.262979
O O7 0.253910 0.998806 0.355960
O O8 0.000000 0.364907 0.750000
O O9 0.000000 0.500000 0.000000
O O10 0.046795 0.253979 0.977303
O O11 0.750000 0.750000 0.500000
O O12 0.000000 0.853940 0.750000
O O13 0.000000 0.000000 0.000000
#
# Coordination Sequence:
#
# PCOD9284363 Si02
#       5
#     8   8   8   8   8
#     4  10  23  42  70 100 131 189 226 270 359 408
#     4  11  23  45  68 101 140 179 238 294 339 423
#     4  10  21  40  69  99 141 173 237 282 331 420
#     4  10  23  45  66  99 137 179 238 288 351 413
#     4  11  25  48  66 105 146 177 227 293 351 420
#
# _framework density 21.973991000000002
#
# number of rings (size 3 to 8) (size 9 to 14) (size 15 to 20)
#    0.000    1.600    0.000    5.400    8.400    0.000 
#   14.400    0.000    0.000    0.000    0.000    0.000 
#    0.000    0.000    0.000    0.000    0.000    0.000 
#
# Total GULP energy -111668.889660 kJ/mol
# GULP energy per Si atom -5583.444483 kJ/mol
# Density = 2.192398 g / cm^3
# Si number density = 21.973991 Si / 1000 Ang^3
#
#
#
# Elastic Constant Matrix: (Units=GPa)
#
#
# Indices 1 2 3 4 5 6 
#
# 1 64.0540 28.2216 32.7507 0.0000 -6.6180 0.0000
# 2 28.2216 178.3045 63.0443 0.0000 8.5701 0.0000
# 3 32.7507 63.0443 198.5003 0.0000 16.4997 0.0000
# 4 0.0000 0.0000 0.0000 51.6386 0.0000 -3.5623
# 5 -6.6180 8.5701 16.4997 0.0000 37.2759 0.0000
# 6 0.0000 0.0000 0.0000 -3.5623 0.0000 26.3375
#
#
#
# Elastic Compliance Matrix: (Units=1/GPa)
#
#
# Indices 1 2 3 4 5 6 
#
# 1 0.018515 -0.002190 -0.002776 0.000000 0.005020 0.000000
# 2 -0.002190 0.006589 -0.001633 0.000000 -0.001181 0.000000
# 3 -0.002776 -0.001633 0.006254 0.000000 -0.002886 0.000000
# 4 0.000000 0.000000 0.000000 0.019548 0.000000 0.002644
# 5 0.005020 -0.001181 -0.002886 0.000000 0.029267 0.000000
# 6 0.000000 0.000000 0.000000 0.002644 0.000000 0.038326
#
#
# Mechanical properties :
#
#
# Convention : Reuss Voigt Hill
#
# Bulk Modulus (GPa) = 55.06886 76.54356 65.80621
# Shear Modulus (GPa) = 36.29699 44.17323 40.23511
#
# Velocity S-wave (km/s) = 4.06866 4.48845 4.28370
# Velocity P-wave (km/s) = 6.86931 7.85944 7.38100
#
# Compressibility (1/GPa) = 0.01815908
#
# Stress axis : x y z
#
# Youngs Moduli (GPa) = 54.01031 151.76187 159.88536
#
# Poissons Ratio (x) = 0.33237 0.44392
# Poissons Ratio (y) = 0.11829 0.26114
# Poissons Ratio (z) = 0.14996 0.24787
#
# Static dielectric constant tensor:
#      x y z
#    x 1.951640 0.000000 0.006430 
#    y 0.000000 1.842560 0.000000 
#    z 0.006430 0.000000 1.827630 
# 
# From -- ./inp_files/59996.got.cif
#   From: 2010.05.17/outbox.cif.g08.bks.cpg/sg15_30_cif.got.tgz:59996.got - 2010.06.03 18:47:42.
