data_PCOD9284755
_publ_section_title
;
Structure prediction by ZEFSAII (Michael W. Deem and Ramdas Pophale) SiO2 
 PCOD9284755
Probable space group: C 2/C
;
_chemical_formula_sum "Si O2"
_cell_formula_units_Z 52
_cell_length_a 27.288278
_cell_length_b 14.428141
_cell_length_c 11.684466
_cell_angle_alpha 90.000000
_cell_angle_beta 31.300554
_cell_angle_gamma 90.000000
_cell_volume 2390.032536
_symmetry_space_group_name_H-M "C 2/C"
_symmetry_group_IT_number 15
_symmetry_cell_setting 'monoclinic'
loop_
_space_group_symop_operation_xyz
x,y,z
-x,y,1/2-z
-x,-y,-z
x,-y,1/2+z
1/2+x,1/2+y,z
1/2-x,1/2+y,1/2-z
1/2-x,1/2-y,-z
1/2+x,1/2-y,1/2+z
loop_
_atom_site_type_symbol
_atom_site_label
_atom_site_fract_x
_atom_site_fract_y
_atom_site_fract_z
Si Si1 0.019664 0.791487 0.386790
Si Si2 0.931300 0.419250 0.780757
Si Si3 0.752714 0.373722 0.282930
Si Si4 0.217117 0.517699 0.540247
Si Si5 0.500000 0.431196 0.250000
Si Si6 0.106642 0.914286 0.401118
Si Si7 0.796391 0.195269 0.301339
O O1 0.038149 0.682729 0.325494
O O2 0.061287 0.858203 0.203065
O O3 0.055508 0.832826 0.434740
O O4 0.907282 0.808296 0.604062
O O5 0.000000 0.446559 0.750000
O O6 0.830122 0.412564 0.043290
O O7 0.892064 0.485473 0.756581
O O8 0.767773 0.429734 0.369527
O O9 0.649869 0.384172 0.436282
O O10 0.775851 0.265571 0.241780
O O11 0.303411 0.445223 0.355461
O O12 0.246059 0.597193 0.390872
O O13 0.456427 0.498126 0.434554
O O14 0.750000 0.250000 0.500000
#
# Coordination Sequence:
#
# PCOD9284755 Si02
#       7
#     8   8   8   8   4   8   8
#     4  12  23  43  67  98 131 177 226 287 343 404
#     4  11  23  44  67 101 131 182 229 272 334 415
#     4  10  22  44  64  94 137 176 218 279 341 400
#     4  10  23  43  64  96 137 175 222 277 345 400
#     4  12  22  38  70  96 136 164 232 280 346 402
#     4  11  25  38  66 103 128 170 228 284 338 411
#     4  10  21  41  64  89 131 180 218 276 345 391
#
# _framework density 21.757027000000001
#
# number of rings (size 3 to 8) (size 9 to 14) (size 15 to 20)
#    0.000    1.231    3.846    1.385    4.308    3.077 
#    5.538    0.000    0.000    0.000    0.000    0.000 
#    0.000    0.000    0.000    0.000    0.000    0.000 
#
# Total GULP energy -144831.938991 kJ/mol
# GULP energy per Si atom -5570.459192 kJ/mol
# Density = 2.170751 g / cm^3
# Si number density = 21.757027 Si / 1000 Ang^3
#
#
#
# Elastic Constant Matrix: (Units=GPa)
#
#
# Indices 1 2 3 4 5 6 
#
# 1 124.7590 68.3020 10.2277 0.0000 -15.4742 0.0000
# 2 68.3020 97.3534 19.2671 0.0000 -35.3765 0.0000
# 3 10.2277 19.2671 61.0447 0.0000 -13.3455 0.0000
# 4 0.0000 0.0000 0.0000 35.2768 0.0000 -6.7981
# 5 -15.4742 -35.3765 -13.3455 0.0000 25.3990 0.0000
# 6 0.0000 0.0000 0.0000 -6.7981 0.0000 11.9326
#
#
#
# Elastic Compliance Matrix: (Units=1/GPa)
#
#
# Indices 1 2 3 4 5 6 
#
# 1 0.014319 -0.013917 -0.000381 0.000000 -0.010861 0.000000
# 2 -0.013917 0.034329 0.000109 0.000000 0.039393 0.000000
# 3 -0.000381 0.000109 0.018521 0.000000 0.009651 0.000000
# 4 0.000000 0.000000 0.000000 0.031843 0.000000 0.018141
# 5 -0.010861 0.039393 0.009651 0.000000 0.092693 0.000000
# 6 0.000000 0.000000 0.000000 0.018141 0.000000 0.094140
#
#
# Mechanical properties :
#
#
# Convention : Reuss Voigt Hill
#
# Bulk Modulus (GPa) = 25.77975 53.19453 39.48714
# Shear Modulus (GPa) = 15.28337 26.87902 21.08120
#
# Velocity S-wave (km/s) = 2.65327 3.51866 3.11615
# Velocity P-wave (km/s) = 4.61097 6.40394 5.57994
#
# Compressibility (1/GPa) = 0.03879013
#
# Stress axis : x y z
#
# Youngs Moduli (GPa) = 69.83814 29.12991 53.99332
#
# Poissons Ratio (x) = 0.40540 0.02056
# Poissons Ratio (y) = 0.97194 -0.00587
# Poissons Ratio (z) = 0.02659 -0.00317
#
# Static dielectric constant tensor:
#      x y z
#    x 2.460210 0.000000 0.117760 
#    y 0.000000 1.997850 0.000000 
#    z 0.117760 0.000000 1.858890 
# 
# From -- ./inp_files/118717.got.cif
#   From: 2010.05.17/outbox.cif.g08.bks.cpg/sg15_60_cif.got.tgz:118717.got - 2010.06.03 18:47:42.
