data_PCOD9284625
_publ_section_title
;
Structure prediction by ZEFSAII (Michael W. Deem and Ramdas Pophale) SiO2 
 PCOD9284625
Probable space group: C 2/C
;
_chemical_formula_sum "Si O2"
_cell_formula_units_Z 48
_cell_length_a 20.988808
_cell_length_b 20.864581
_cell_length_c 10.618360
_cell_angle_alpha 90.000000
_cell_angle_beta 152.655139
_cell_angle_gamma 90.000000
_cell_volume 2135.964587
_symmetry_space_group_name_H-M "C 2/C"
_symmetry_group_IT_number 15
_symmetry_cell_setting 'monoclinic'
loop_
_space_group_symop_operation_xyz
x,y,z
-x,y,1/2-z
-x,-y,-z
x,-y,1/2+z
1/2+x,1/2+y,z
1/2-x,1/2+y,1/2-z
1/2-x,1/2-y,-z
1/2+x,1/2-y,1/2+z
loop_
_atom_site_type_symbol
_atom_site_label
_atom_site_fract_x
_atom_site_fract_y
_atom_site_fract_z
Si Si1 0.343104 0.686683 0.229674
Si Si2 0.465380 0.195876 0.833712
Si Si3 0.844696 0.728908 0.980619
Si Si4 0.665533 0.475088 0.510818
Si Si5 0.745271 0.843982 0.964791
Si Si6 0.136314 0.955887 0.726431
O O1 0.441634 0.728075 0.313463
O O2 0.313687 0.734117 0.296540
O O3 0.404164 0.617829 0.367915
O O4 0.189035 0.670543 0.908141
O O5 0.500000 0.181622 0.750000
O O6 0.590199 0.170399 0.138164
O O7 0.756058 0.672225 0.888675
O O8 0.000000 0.704229 0.250000
O O9 0.838870 0.788363 0.067780
O O10 0.500000 0.473879 0.250000
O O11 0.709759 0.411624 0.512186
O O12 0.723236 0.476061 0.755157
O O13 0.702140 0.532484 0.479793
O O14 0.000000 0.000000 0.500000
#
# Coordination Sequence:
#
# PCOD9284625 Si02
#       6
#     8   8   8   8   8   8
#     4  11  23  41  61  90 135 162 208 265 313 381
#     4  11  22  39  60  92 127 170 201 258 330 380
#     4  11  21  36  61  95 123 161 206 263 313 368
#     4  10  21  41  62  95 127 167 215 266 311 372
#     4  11  22  36  65  92 124 170 209 254 322 380
#     4  10  22  39  63  88 124 170 207 261 313 360
#
# _framework density 22.472283999999998
#
# number of rings (size 3 to 8) (size 9 to 14) (size 15 to 20)
#    0.000    1.333    5.000    0.500    2.333    2.000 
#    6.000    0.833    0.000    1.000    0.000    0.000 
#    0.000    0.000    0.000    0.000    0.000    0.000 
#
# Total GULP energy -133781.205956 kJ/mol
# GULP energy per Si atom -5574.216915 kJ/mol
# Density = 2.242114 g / cm^3
# Si number density = 22.472284 Si / 1000 Ang^3
#
#
#
# Elastic Constant Matrix: (Units=GPa)
#
#
# Indices 1 2 3 4 5 6 
#
# 1 120.5182 70.8226 12.8275 0.0000 -9.6611 0.0000
# 2 70.8226 75.7361 9.7590 0.0000 -13.2674 0.0000
# 3 12.8275 9.7590 70.7844 0.0000 6.6482 0.0000
# 4 0.0000 0.0000 0.0000 18.3215 0.0000 3.1903
# 5 -9.6611 -13.2674 6.6482 0.0000 24.3618 0.0000
# 6 0.0000 0.0000 0.0000 3.1903 0.0000 39.0477
#
#
#
# Elastic Compliance Matrix: (Units=1/GPa)
#
#
# Indices 1 2 3 4 5 6 
#
# 1 0.018573 -0.017628 -0.000745 0.000000 -0.002031 0.000000
# 2 -0.017628 0.031902 -0.002236 0.000000 0.010993 0.000000
# 3 -0.000745 -0.002236 0.015100 0.000000 -0.005634 0.000000
# 4 0.000000 0.000000 0.000000 0.055368 0.000000 -0.004524
# 5 -0.002031 0.010993 -0.005634 0.000000 0.047767 0.000000
# 6 0.000000 0.000000 0.000000 -0.004524 0.000000 0.025979
#
#
# Mechanical properties :
#
#
# Convention : Reuss Voigt Hill
#
# Bulk Modulus (GPa) = 41.05592 50.42854 45.74223
# Shear Modulus (GPa) = 20.48965 27.92152 24.20558
#
# Velocity S-wave (km/s) = 3.02284 3.52872 3.28553
# Velocity P-wave (km/s) = 5.52201 6.25232 5.89848
#
# Compressibility (1/GPa) = 0.02435702
#
# Stress axis : x y z
#
# Youngs Moduli (GPa) = 53.84167 31.34599 66.22604
#
# Poissons Ratio (x) = 0.55257 0.04931
# Poissons Ratio (y) = 0.94912 0.14810
# Poissons Ratio (z) = 0.04009 0.07010
#
# Static dielectric constant tensor:
#      x y z
#    x 1.925570 0.000000 -0.100430 
#    y 0.000000 1.843080 0.000000 
#    z -0.100430 0.000000 1.979060 
# 
# From -- ./inp_files/114306.got.cif
#   From: 2010.05.17/outbox.cif.g08.bks.cpg/sg15_58_cif.got.tgz:114306.got - 2010.06.03 18:47:42.
