data_PCOD9284612
_publ_section_title
;
Structure prediction by ZEFSAII (Michael W. Deem and Ramdas Pophale) SiO2 
 PCOD9284612
Probable space group: C 2/C
;
_chemical_formula_sum "Si O2"
_cell_formula_units_Z 48
_cell_length_a 7.103465
_cell_length_b 12.135448
_cell_length_c 22.325207
_cell_angle_alpha 90.000000
_cell_angle_beta 104.356805
_cell_angle_gamma 90.000000
_cell_volume 1864.414197
_symmetry_space_group_name_H-M "C 2/C"
_symmetry_group_IT_number 15
_symmetry_cell_setting 'monoclinic'
loop_
_space_group_symop_operation_xyz
x,y,z
-x,y,1/2-z
-x,-y,-z
x,-y,1/2+z
1/2+x,1/2+y,z
1/2-x,1/2+y,1/2-z
1/2-x,1/2-y,-z
1/2+x,1/2-y,1/2+z
loop_
_atom_site_type_symbol
_atom_site_label
_atom_site_fract_x
_atom_site_fract_y
_atom_site_fract_z
Si Si1 0.717401 0.284041 0.137409
Si Si2 0.238966 0.136693 0.767851
Si Si3 0.227203 0.440930 0.067049
Si Si4 0.269146 0.778658 0.619599
Si Si5 0.138285 0.941765 0.817198
Si Si6 0.790974 0.492559 0.064685
O O1 0.793783 0.338724 0.204842
O O2 0.498722 0.242440 0.130322
O O3 0.825803 0.167909 0.142728
O O4 0.740857 0.373209 0.087359
O O5 0.289079 0.230566 0.819931
O O6 0.000000 0.132604 0.750000
O O7 0.301535 0.014711 0.794231
O O8 0.184360 0.310126 0.065732
O O9 0.386943 0.470092 0.130472
O O10 0.024447 0.496040 0.071080
O O11 0.290670 0.483241 0.007884
O O12 0.233517 0.905458 0.602758
O O13 0.000000 0.914296 0.750000
#
# Coordination Sequence:
#
# PCOD9284612 Si02
#       6
#     8   8   8   8   8   8
#     4  11  23  40  67 102 127 181 227 274 347 401
#     4   8  19  38  61  87 132 173 211 277 335 388
#     4  10  23  47  67  99 140 181 222 287 340 396
#     4  10  21  45  65  95 139 176 219 282 340 399
#     4  10  21  41  62  92 135 174 222 280 334 400
#     4  11  24  43  71 102 136 177 234 275 337 417
#
# _framework density 25.745350999999999
#
# number of rings (size 3 to 8) (size 9 to 14) (size 15 to 20)
#    0.000    2.000    1.667    1.500    2.333    4.000 
#    9.000    0.000    0.000    0.000    0.000    0.000 
#    0.000    0.000    0.000    0.000    0.000    0.000 
#
# Total GULP energy -134033.622007 kJ/mol
# GULP energy per Si atom -5584.734250 kJ/mol
# Density = 2.568675 g / cm^3
# Si number density = 25.745351 Si / 1000 Ang^3
#
#
#
# Elastic Constant Matrix: (Units=GPa)
#
#
# Indices 1 2 3 4 5 6 
#
# 1 68.7006 8.5204 -2.7511 0.0000 -1.9989 0.0000
# 2 8.5204 154.7249 12.0070 0.0000 0.6957 0.0000
# 3 -2.7511 12.0070 97.5120 0.0000 7.8608 0.0000
# 4 0.0000 0.0000 0.0000 32.2421 0.0000 -1.2215
# 5 -1.9989 0.6957 7.8608 0.0000 19.3686 0.0000
# 6 0.0000 0.0000 0.0000 -1.2215 0.0000 25.3135
#
#
#
# Elastic Compliance Matrix: (Units=1/GPa)
#
#
# Indices 1 2 3 4 5 6 
#
# 1 0.014718 -0.000848 0.000408 0.000000 0.001384 0.000000
# 2 -0.000848 0.006575 -0.000835 0.000000 0.000015 0.000000
# 3 0.000408 -0.000835 0.010714 0.000000 -0.004276 0.000000
# 4 0.000000 0.000000 0.000000 0.031072 0.000000 0.001499
# 5 0.001384 0.000015 -0.004276 0.000000 0.053508 0.000000
# 6 0.000000 0.000000 0.000000 0.001499 0.000000 0.039577
#
#
# Mechanical properties :
#
#
# Convention : Reuss Voigt Hill
#
# Bulk Modulus (GPa) = 33.94827 39.61001 36.77914
# Shear Modulus (GPa) = 29.66794 35.59557 32.63175
#
# Velocity S-wave (km/s) = 3.39833 3.72237 3.56403
# Velocity P-wave (km/s) = 5.34911 5.82181 5.59046
#
# Compressibility (1/GPa) = 0.02945658
#
# Stress axis : x y z
#
# Youngs Moduli (GPa) = 67.94518 152.10262 93.33439
#
# Poissons Ratio (x) = 0.12904 -0.03809
# Poissons Ratio (y) = 0.05764 0.07791
# Poissons Ratio (z) = -0.02773 0.12696
#
# Static dielectric constant tensor:
#      x y z
#    x 2.158930 0.000000 0.080800 
#    y 0.000000 2.045860 0.000000 
#    z 0.080800 0.000000 2.064020 
# 
# From -- ./inp_files/263556.got.cif
#   From: 2010.05.17/outbox.cif.g08.bks.cpg/sg15_132_cif.got.tgz:263556.got - 2010.06.03 18:47:42.
