data_PCOD9284740
_publ_section_title
;
Structure prediction by ZEFSAII (Michael W. Deem and Ramdas Pophale) SiO2 
 PCOD9284740
Probable space group: C 2/C
;
_chemical_formula_sum "Si O2"
_cell_formula_units_Z 52
_cell_length_a 5.189615
_cell_length_b 18.669356
_cell_length_c 21.188927
_cell_angle_alpha 90.000000
_cell_angle_beta 85.305243
_cell_angle_gamma 90.000000
_cell_volume 2046.038881
_symmetry_space_group_name_H-M "C 2/C"
_symmetry_group_IT_number 15
_symmetry_cell_setting 'monoclinic'
loop_
_space_group_symop_operation_xyz
x,y,z
-x,y,1/2-z
-x,-y,-z
x,-y,1/2+z
1/2+x,1/2+y,z
1/2-x,1/2+y,1/2-z
1/2-x,1/2-y,-z
1/2+x,1/2-y,1/2+z
loop_
_atom_site_type_symbol
_atom_site_label
_atom_site_fract_x
_atom_site_fract_y
_atom_site_fract_z
Si Si1 0.500000 0.459550 0.250000
Si Si2 0.000000 0.751406 0.750000
Si Si3 0.500000 0.151564 0.250000
Si Si4 0.713105 0.019802 0.885773
Si Si5 0.173229 0.629958 0.668842
Si Si6 0.021852 0.212525 0.435563
Si Si7 0.109868 0.157361 0.565426
Si Si8 0.547558 0.869356 0.888460
O O1 0.605142 0.493756 0.181350
O O2 0.725939 0.408906 0.270348
O O3 0.248892 0.799503 0.752555
O O4 0.008842 0.698506 0.690833
O O5 0.494608 0.110594 0.184463
O O6 0.476820 0.069485 0.866690
O O7 0.840046 0.072300 0.934971
O O8 0.624256 0.945115 0.916328
O O9 0.426296 0.661807 0.629760
O O10 0.960367 0.188378 0.508332
O O11 0.131847 0.293796 0.435165
O O12 0.281372 0.166833 0.414483
O O13 0.785363 0.184709 0.397500
#
# Coordination Sequence:
#
# PCOD9284740 Si02
#       8
#     4   4   4   8   8   8   8   8
#     4  10  21  41  64 106 146 196 240 298 360 432
#     4  12  24  44  72 109 147 190 244 306 358 438
#     4  12  29  43  72 105 151 194 230 306 376 438
#     4  11  26  43  74 106 150 199 243 309 365 457
#     4  11  23  41  72 109 146 191 252 305 365 439
#     4  11  28  53  76 110 147 196 249 314 370 439
#     4  10  27  48  79 104 146 195 257 309 365 436
#     4  12  30  49  74 109 155 194 244 303 385 446
#
# _framework density 25.414961000000002
#
# number of rings (size 3 to 8) (size 9 to 14) (size 15 to 20)
#    0.000    0.923    1.538    2.308   17.231    3.077 
#    0.000    0.000    0.000    0.000    0.000    0.000 
#    0.000    0.000    0.000    0.000    0.000    0.000 
#
# Total GULP energy -145503.694370 kJ/mol
# GULP energy per Si atom -5596.295937 kJ/mol
# Density = 2.535712 g / cm^3
# Si number density = 25.414961 Si / 1000 Ang^3
#
#
#
# Elastic Constant Matrix: (Units=GPa)
#
#
# Indices 1 2 3 4 5 6 
#
# 1 117.5730 13.5173 -5.7705 0.0000 -8.9990 0.0000
# 2 13.5173 115.0741 -11.7210 0.0000 -13.2573 0.0000
# 3 -5.7705 -11.7210 52.8668 0.0000 8.1221 0.0000
# 4 0.0000 0.0000 0.0000 15.1496 0.0000 5.6691
# 5 -8.9990 -13.2573 8.1221 0.0000 45.0631 0.0000
# 6 0.0000 0.0000 0.0000 5.6691 0.0000 38.2576
#
#
#
# Elastic Compliance Matrix: (Units=1/GPa)
#
#
# Indices 1 2 3 4 5 6 
#
# 1 0.008733 -0.000807 0.000558 0.000000 0.001406 0.000000
# 2 -0.000807 0.009209 0.001607 0.000000 0.002258 0.000000
# 3 0.000558 0.001607 0.019791 0.000000 -0.002983 0.000000
# 4 0.000000 0.000000 0.000000 0.069884 0.000000 -0.010356
# 5 0.001406 0.002258 -0.002983 0.000000 0.023674 0.000000
# 6 0.000000 0.000000 0.000000 -0.010356 0.000000 0.027673
#
#
# Mechanical properties :
#
#
# Convention : Reuss Voigt Hill
#
# Bulk Modulus (GPa) = 24.72280 30.84061 27.78171
# Shear Modulus (GPa) = 29.45849 38.99325 34.22587
#
# Velocity S-wave (km/s) = 3.40825 3.92122 3.67370
# Velocity P-wave (km/s) = 5.02364 5.71511 5.38049
#
# Compressibility (1/GPa) = 0.04044849
#
# Stress axis : x y z
#
# Youngs Moduli (GPa) = 114.50620 108.59329 50.52833
#
# Poissons Ratio (x) = 0.08764 -0.02821
# Poissons Ratio (y) = 0.09241 -0.08118
# Poissons Ratio (z) = -0.06393 -0.17446
#
# Static dielectric constant tensor:
#      x y z
#    x 2.007810 0.000000 -0.029540 
#    y 0.000000 1.961680 0.000000 
#    z -0.029540 0.000000 2.092710 
# 
# From -- ./inp_files/227515.got.cif
#   From: 2010.05.17/outbox.cif.g08.bks.cpg/sg15_114_cif.got.tgz:227515.got - 2010.06.03 18:47:42.
