data_PCOD9284336
_publ_section_title
;
Structure prediction by ZEFSAII (Michael W. Deem and Ramdas Pophale) SiO2 
 PCOD9284336
Probable space group: C 2/C
;
_chemical_formula_sum "Si O2"
_cell_formula_units_Z 44
_cell_length_a 32.982056
_cell_length_b 13.354522
_cell_length_c 16.884309
_cell_angle_alpha 90.000000
_cell_angle_beta 17.372257
_cell_angle_gamma 90.000000
_cell_volume 2220.486812
_symmetry_space_group_name_H-M "C 2/C"
_symmetry_group_IT_number 15
_symmetry_cell_setting 'monoclinic'
loop_
_space_group_symop_operation_xyz
x,y,z
-x,y,1/2-z
-x,-y,-z
x,-y,1/2+z
1/2+x,1/2+y,z
1/2-x,1/2+y,1/2-z
1/2-x,1/2-y,-z
1/2+x,1/2-y,1/2+z
loop_
_atom_site_type_symbol
_atom_site_label
_atom_site_fract_x
_atom_site_fract_y
_atom_site_fract_z
Si Si1 0.978247 0.398410 0.586795
Si Si2 0.148199 0.088844 0.439102
Si Si3 0.209649 0.406705 0.411928
Si Si4 0.302964 0.192955 0.719600
Si Si5 0.500000 0.256619 0.750000
Si Si6 0.849911 0.693114 0.175920
O O1 0.898981 0.329875 0.671817
O O2 0.000000 0.500000 0.500000
O O3 0.120403 0.347787 0.347058
O O4 0.889658 0.421794 0.829687
O O5 0.155551 0.192831 0.376208
O O6 0.240958 0.114515 0.343441
O O7 0.203326 0.002253 0.278610
O O8 0.000000 0.067391 0.750000
O O9 0.141879 0.372219 0.456243
O O10 0.294874 0.306804 0.275652
O O11 0.138419 0.186123 0.018139
O O12 0.536227 0.191721 0.605256
#
# Coordination Sequence:
#
# PCOD9284336 Si02
#       6
#     8   8   8   8   4   8
#     4  12  25  40  63  96 127 170 207 263 324 376
#     4  10  21  40  69  93 120 176 220 254 316 382
#     4  10  22  41  64  93 126 168 214 260 310 385
#     4  10  22  43  69  87 133 163 216 255 325 380
#     4   8  20  40  68  90 114 172 208 268 302 370
#     4  10  23  41  64  87 137 159 214 267 320 373
#
# _framework density 19.815473999999998
#
# number of rings (size 3 to 8) (size 9 to 14) (size 15 to 20)
#    0.000    2.182    0.000    4.364   10.182    0.727 
#    0.000    1.818    0.000    0.000    0.000    0.000 
#    0.000    0.000    0.000    0.000    0.000    0.000 
#
# Total GULP energy -122625.665746 kJ/mol
# GULP energy per Si atom -5573.893898 kJ/mol
# Density = 1.977037 g / cm^3
# Si number density = 19.815474 Si / 1000 Ang^3
#
#
#
# Elastic Constant Matrix: (Units=GPa)
#
#
# Indices 1 2 3 4 5 6 
#
# 1 150.9930 52.0020 62.6602 0.0000 -18.9616 0.0000
# 2 52.0020 90.9386 40.0135 0.0000 1.6775 0.0000
# 3 62.6602 40.0135 148.9735 0.0000 1.0660 0.0000
# 4 0.0000 0.0000 0.0000 15.2794 0.0000 15.3408
# 5 -18.9616 1.6775 1.0660 0.0000 30.4746 0.0000
# 6 0.0000 0.0000 0.0000 15.3408 0.0000 3.2236
#
#
#
# Elastic Compliance Matrix: (Units=1/GPa)
#
#
# Indices 1 2 3 4 5 6 
#
# 1 0.010412 -0.004685 -0.003170 0.000000 0.006847 0.000000
# 2 -0.004685 0.014589 -0.001922 0.000000 -0.003651 0.000000
# 3 -0.003170 -0.001922 0.008578 0.000000 -0.002167 0.000000
# 4 0.000000 0.000000 0.000000 -0.017323 0.000000 0.082439
# 5 0.006847 -0.003651 -0.002167 0.000000 0.037351 0.000000
# 6 0.000000 0.000000 0.000000 0.082439 0.000000 -0.082109
#
#
# Mechanical properties :
#
#
# Convention : Reuss Voigt Hill
#
# Bulk Modulus (GPa) = 71.30502 77.80626 74.55564
# Shear Modulus (GPa) = -1169.70945 25.54415 -572.08265
#
# Velocity S-wave (km/s) = -24.32247 3.59430 -17.00975
# Velocity P-wave (km/s) = 27.43563 7.52170 18.65661
#
# Compressibility (1/GPa) = 0.01402426
#
# Stress axis : x y z
#
# Youngs Moduli (GPa) = 96.04513 68.54696 116.58397
#
# Poissons Ratio (x) = 0.32117 0.36955
# Poissons Ratio (y) = 0.45001 0.22402
# Poissons Ratio (z) = 0.30445 0.13172
#
# Static dielectric constant tensor:
#      x y z
#    x 1.710980 0.000000 -0.020960 
#    y 0.000000 1.751260 0.000000 
#    z -0.020960 0.000000 1.751150 
# 
# From -- ./inp_files/182264.got.cif
#   From: 2010.05.17/outbox.cif.g08.bks.cpg/sg15_92_cif.got.tgz:182264.got - 2010.06.03 18:47:42.
