data_PCOD9284216
_publ_section_title
;
Structure prediction by ZEFSAII (Michael W. Deem and Ramdas Pophale) SiO2 
 PCOD9284216
Probable space group: C 2/C
;
_chemical_formula_sum "Si O2"
_cell_formula_units_Z 64
_cell_length_a 28.357523
_cell_length_b 13.976527
_cell_length_c 11.323811
_cell_angle_alpha 90.000000
_cell_angle_beta 41.275612
_cell_angle_gamma 90.000000
_cell_volume 2960.701996
_symmetry_space_group_name_H-M "C 2/C"
_symmetry_group_IT_number 15
_symmetry_cell_setting 'monoclinic'
loop_
_space_group_symop_operation_xyz
x,y,z
-x,y,1/2-z
-x,-y,-z
x,-y,1/2+z
1/2+x,1/2+y,z
1/2-x,1/2+y,1/2-z
1/2-x,1/2-y,-z
1/2+x,1/2-y,1/2+z
loop_
_atom_site_type_symbol
_atom_site_label
_atom_site_fract_x
_atom_site_fract_y
_atom_site_fract_z
Si Si1 0.129790 0.229042 0.229779
Si Si2 0.071256 0.937111 0.374348
Si Si3 0.109797 0.632238 0.319220
Si Si4 0.845510 0.427310 0.207400
Si Si5 0.785318 0.611226 0.586250
Si Si6 0.365785 0.696604 0.555479
Si Si7 0.986806 0.764261 0.137859
Si Si8 0.714867 0.443389 0.598897
O O1 0.138670 0.341710 0.232742
O O2 0.195059 0.166565 0.159785
O O3 0.058651 0.204619 0.435594
O O4 0.124895 0.201883 0.101914
O O5 0.084212 0.882924 0.474982
O O6 0.067818 0.850835 0.286257
O O7 0.140091 0.002591 0.224154
O O8 0.000000 0.000000 0.500000
O O9 0.108782 0.521724 0.357841
O O10 0.116110 0.702027 0.418796
O O11 0.043063 0.669657 0.368910
O O12 0.178334 0.644875 0.103546
O O13 0.844721 0.388154 0.076486
O O14 0.762838 0.452102 0.391831
O O15 0.715584 0.669981 0.755549
O O16 0.759193 0.501928 0.612958
O O17 0.000000 0.751505 0.250000
#
# Coordination Sequence:
#
# PCOD9284216 Si02
#       8
#     8   8   8   8   8   8   8   8
#     4  12  24  42  66 100 131 172 220 270 331 386
#     4  10  21  42  66  98 131 171 210 263 336 393
#     4  10  24  42  63  94 132 173 224 259 324 390
#     4  11  24  40  67  94 130 173 220 272 321 381
#     4  10  21  40  67  98 131 172 213 270 332 381
#     4  10  23  40  68  99 135 170 214 278 325 392
#     4  11  25  45  66  93 131 174 217 266 326 395
#     4  10  22  39  63 101 130 162 216 266 327 388
#
# _framework density 21.616495
#
# number of rings (size 3 to 8) (size 9 to 14) (size 15 to 20)
#    0.000    1.500    2.500    1.500    3.500    5.500 
#    0.000    0.000    0.000    0.000    0.000    0.000 
#    0.000    0.000    0.000    0.000    0.000    0.000 
#
# Total GULP energy -178829.555331 kJ/mol
# GULP energy per Si atom -5588.423604 kJ/mol
# Density = 2.156730 g / cm^3
# Si number density = 21.616495 Si / 1000 Ang^3
#
#
#
# Elastic Constant Matrix: (Units=GPa)
#
#
# Indices 1 2 3 4 5 6 
#
# 1 79.9339 23.4586 11.4559 0.0000 18.0585 0.0000
# 2 23.4586 106.0482 1.2239 0.0000 2.8412 0.0000
# 3 11.4559 1.2239 64.6734 0.0000 10.7080 0.0000
# 4 0.0000 0.0000 0.0000 26.2679 0.0000 -7.6032
# 5 18.0585 2.8412 10.7080 0.0000 27.0014 0.0000
# 6 0.0000 0.0000 0.0000 -7.6032 0.0000 29.2840
#
#
#
# Elastic Compliance Matrix: (Units=1/GPa)
#
#
# Indices 1 2 3 4 5 6 
#
# 1 0.015833 -0.003227 -0.001120 0.000000 -0.009805 0.000000
# 2 -0.003227 0.010114 0.000213 0.000000 0.001009 0.000000
# 3 -0.001120 0.000213 0.016628 0.000000 -0.005868 0.000000
# 4 0.000000 0.000000 0.000000 0.041163 0.000000 0.010687
# 5 -0.009805 0.001009 -0.005868 0.000000 0.045814 0.000000
# 6 0.000000 0.000000 0.000000 0.010687 0.000000 0.036923
#
#
# Mechanical properties :
#
#
# Convention : Reuss Voigt Hill
#
# Bulk Modulus (GPa) = 29.14793 35.88135 32.51464
# Shear Modulus (GPa) = 26.85599 30.81179 28.83389
#
# Velocity S-wave (km/s) = 3.52857 3.77952 3.65620
# Velocity P-wave (km/s) = 5.48767 5.97340 5.73568
#
# Compressibility (1/GPa) = 0.03430775
#
# Stress axis : x y z
#
# Youngs Moduli (GPa) = 63.15909 98.87337 60.13887
#
# Poissons Ratio (x) = 0.31904 0.06736
# Poissons Ratio (y) = 0.20380 -0.01281
# Poissons Ratio (z) = 0.07074 -0.02107
#
# Static dielectric constant tensor:
#      x y z
#    x 1.791380 0.000000 -0.030480 
#    y 0.000000 1.817730 0.000000 
#    z -0.030480 0.000000 1.790100 
# 
# From -- ./inp_files/126865.got.cif
#   From: 2010.05.17/outbox.cif.g08.bks.cpg/sg15_64_cif.got.tgz:126865.got - 2010.06.03 18:47:42.
