data_PCOD9284955
_publ_section_title
;
Structure prediction by ZEFSAII (Michael W. Deem and Ramdas Pophale) SiO2 
 PCOD9284955
Probable space group: C 2/C
;
_chemical_formula_sum "Si O2"
_cell_formula_units_Z 44
_cell_length_a 23.842078
_cell_length_b 4.951884
_cell_length_c 24.686180
_cell_angle_alpha 90.000000
_cell_angle_beta 144.726912
_cell_angle_gamma 90.000000
_cell_volume 1683.065656
_symmetry_space_group_name_H-M "C 2/C"
_symmetry_group_IT_number 15
_symmetry_cell_setting 'monoclinic'
loop_
_space_group_symop_operation_xyz
x,y,z
-x,y,1/2-z
-x,-y,-z
x,-y,1/2+z
1/2+x,1/2+y,z
1/2-x,1/2+y,1/2-z
1/2-x,1/2-y,-z
1/2+x,1/2-y,1/2+z
loop_
_atom_site_type_symbol
_atom_site_label
_atom_site_fract_x
_atom_site_fract_y
_atom_site_fract_z
Si Si1 0.206787 0.203761 0.076219
Si Si2 0.000000 0.702713 0.750000
Si Si3 0.571459 0.517679 0.129145
Si Si4 0.452815 0.259039 0.128090
Si Si5 0.120420 0.712276 0.064964
Si Si6 0.877773 0.916221 0.719400
O O1 0.151097 0.407880 0.075496
O O2 0.313912 0.319722 0.163050
O O3 0.187573 0.899998 0.079890
O O4 0.156184 0.235059 0.978143
O O5 0.016536 0.495674 0.815359
O O6 0.123446 0.739369 0.833814
O O7 0.510979 0.302823 0.117479
O O8 0.629985 0.342857 0.131989
O O9 0.628764 0.666525 0.222988
O O10 0.491522 0.715982 0.039497
O O11 0.504706 0.509880 0.200696
#
# Coordination Sequence:
#
# PCOD9284955 Si02
#       6
#     8   4   8   8   8   8
#     4  11  24  41  69  98 136 168 225 265 336 393
#     4  12  22  42  72  84 134 174 232 270 354 364
#     4   8  20  41  64  93 138 167 219 261 332 385
#     4   9  23  43  61  96 129 173 219 280 317 403
#     4  10  21  41  66 101 132 177 207 270 327 403
#     4  10  24  42  62  98 126 176 218 282 320 400
#
# _framework density 26.142772999999998
#
# number of rings (size 3 to 8) (size 9 to 14) (size 15 to 20)
#    1.091    1.091    0.000    1.636    2.545   10.182 
#    0.000    3.636    0.000    0.000    0.000    0.000 
#    0.000    0.000    0.000    0.000    0.000    0.000 
#
# Total GULP energy -122505.617088 kJ/mol
# GULP energy per Si atom -5568.437140 kJ/mol
# Density = 2.608327 g / cm^3
# Si number density = 26.142773 Si / 1000 Ang^3
#
#
#
# Elastic Constant Matrix: (Units=GPa)
#
#
# Indices 1 2 3 4 5 6 
#
# 1 98.3290 5.1046 15.9738 0.0138 -9.7589 0.0446
# 2 5.1046 92.6614 -5.2183 0.0094 5.2899 0.0172
# 3 15.9738 -5.2183 84.9991 -0.0026 -1.5429 0.0023
# 4 0.0138 0.0094 -0.0026 24.9327 0.0035 -9.7795
# 5 -9.7589 5.2899 -1.5429 0.0035 20.8112 0.0516
# 6 0.0446 0.0172 0.0023 -9.7795 0.0516 -67.3024
#
#
#
# Elastic Compliance Matrix: (Units=1/GPa)
#
#
# Indices 1 2 3 4 5 6 
#
# 1 0.011083 -0.001029 -0.002050 -0.000002 0.005307 0.000011
# 2 -0.001029 0.011079 0.000815 -0.000003 -0.003238 0.000000
# 3 -0.002050 0.000815 0.012195 0.000002 -0.000264 -0.000001
# 4 -0.000002 -0.000003 0.000002 0.037945 0.000007 -0.005514
# 5 0.005307 -0.003238 -0.000264 0.000007 0.051343 0.000041
# 6 0.000011 0.000000 -0.000001 -0.005514 0.000041 -0.014057
#
#
# Mechanical properties :
#
#
# Convention : Reuss Voigt Hill
#
# Bulk Modulus (GPa) = 33.52325 34.18996 33.85660
# Shear Modulus (GPa) = 40.30318 13.03026 26.66672
#
# Velocity S-wave (km/s) = 3.93065 2.23497 3.19727
# Velocity P-wave (km/s) = 5.78369 4.44597 5.15838
#
# Compressibility (1/GPa) = 0.02983005
#
# Stress axis : x y z
#
# Youngs Moduli (GPa) = 90.22827 90.25746 81.99917
#
# Poissons Ratio (x) = 0.09287 0.16807
# Poissons Ratio (y) = 0.09284 -0.06681
# Poissons Ratio (z) = 0.18494 -0.07354
#
# Static dielectric constant tensor:
#      x y z
#    x 0.133870 -0.000110 -0.140870 
#    y -0.000110 2.096560 -0.000010 
#    z -0.140870 -0.000010 2.237760 
# 
# From -- ./inp_files/212882.got.cif
#   From: 2010.05.17/outbox.cif.g08.bks.cpg/sg15_107_cif.got.tgz:212882.got - 2010.06.03 18:47:42.
