data_PCOD9284424
_publ_section_title
;
Structure prediction by ZEFSAII (Michael W. Deem and Ramdas Pophale) SiO2 
 PCOD9284424
Probable space group: C 2/C
;
_chemical_formula_sum "Si O2"
_cell_formula_units_Z 48
_cell_length_a 14.756171
_cell_length_b 10.809347
_cell_length_c 19.669708
_cell_angle_alpha 90.000000
_cell_angle_beta 41.131913
_cell_angle_gamma 90.000000
_cell_volume 2063.771127
_symmetry_space_group_name_H-M "C 2/C"
_symmetry_group_IT_number 15
_symmetry_cell_setting 'monoclinic'
loop_
_space_group_symop_operation_xyz
x,y,z
-x,y,1/2-z
-x,-y,-z
x,-y,1/2+z
1/2+x,1/2+y,z
1/2-x,1/2+y,1/2-z
1/2-x,1/2-y,-z
1/2+x,1/2-y,1/2+z
loop_
_atom_site_type_symbol
_atom_site_label
_atom_site_fract_x
_atom_site_fract_y
_atom_site_fract_z
Si Si1 0.191414 0.593716 0.018601
Si Si2 0.606802 0.185016 0.327739
Si Si3 0.260271 0.540910 0.128384
Si Si4 0.395833 0.896265 0.529168
Si Si5 0.493954 0.423024 0.332361
Si Si6 0.471954 0.363457 0.958453
O O1 0.180326 0.572907 0.105148
O O2 0.054971 0.659243 0.070088
O O3 0.197483 0.466249 0.972275
O O4 0.344233 0.644325 0.921347
O O5 0.666718 0.080144 0.244095
O O6 0.672823 0.161432 0.364181
O O7 0.607621 0.321387 0.292742
O O8 0.400783 0.618616 0.061850
O O9 0.330680 0.408551 0.074597
O O10 0.464518 0.781915 0.450396
O O11 0.500000 0.000000 0.500000
O O12 0.500000 0.457448 0.250000
O O13 0.494370 0.540726 0.383258
#
# Coordination Sequence:
#
# PCOD9284424 Si02
#       6
#     8   8   8   8   8   8
#     4  10  22  41  63  96 138 175 228 289 354 409
#     4  11  22  40  67 104 132 180 236 296 345 431
#     4  10  21  40  71  93 134 181 234 282 358 423
#     4  10  23  43  65  95 139 183 235 292 358 414
#     4  11  24  40  70 100 134 182 239 286 356 430
#     4  10  23  46  64  97 141 187 225 296 361 420
#
# _framework density 23.258393000000002
#
# number of rings (size 3 to 8) (size 9 to 14) (size 15 to 20)
#    0.000    1.667    0.000    5.000    2.333    8.000 
#    9.000    3.333    0.000    0.000    0.000    0.000 
#    0.000    0.000    0.000    0.000    0.000    0.000 
#
# Total GULP energy -133798.029373 kJ/mol
# GULP energy per Si atom -5574.917891 kJ/mol
# Density = 2.320546 g / cm^3
# Si number density = 23.258393 Si / 1000 Ang^3
#
#
#
# Elastic Constant Matrix: (Units=GPa)
#
#
# Indices 1 2 3 4 5 6 
#
# 1 101.3637 37.6279 24.8572 0.0000 39.0071 0.0000
# 2 37.6279 123.6950 30.9531 0.0000 15.3395 0.0000
# 3 24.8572 30.9531 76.7373 0.0000 27.9490 0.0000
# 4 0.0000 0.0000 0.0000 14.0875 0.0000 1.4962
# 5 39.0071 15.3395 27.9490 0.0000 51.5766 0.0000
# 6 0.0000 0.0000 0.0000 1.4962 0.0000 36.3235
#
#
#
# Elastic Compliance Matrix: (Units=1/GPa)
#
#
# Indices 1 2 3 4 5 6 
#
# 1 0.015117 -0.003364 0.000324 0.000000 -0.010608 0.000000
# 2 -0.003364 0.009773 -0.003389 0.000000 0.001474 0.000000
# 3 0.000324 -0.003389 0.017462 0.000000 -0.008699 0.000000
# 4 0.000000 0.000000 0.000000 0.071297 0.000000 -0.002937
# 5 -0.010608 0.001474 -0.008699 0.000000 0.031687 0.000000
# 6 0.000000 0.000000 0.000000 -0.002937 0.000000 0.027651
#
#
# Mechanical properties :
#
#
# Convention : Reuss Voigt Hill
#
# Bulk Modulus (GPa) = 33.90651 54.29694 44.10173
# Shear Modulus (GPa) = 25.55220 34.28804 29.92012
#
# Velocity S-wave (km/s) = 3.31814 3.84373 3.59056
# Velocity P-wave (km/s) = 5.41202 6.56466 6.01601
#
# Compressibility (1/GPa) = 0.02949286
#
# Stress axis : x y z
#
# Youngs Moduli (GPa) = 66.15055 102.32198 57.26634
#
# Poissons Ratio (x) = 0.34422 -0.01854
# Poissons Ratio (y) = 0.22254 0.19410
# Poissons Ratio (z) = -0.02141 0.34681
#
# Static dielectric constant tensor:
#      x y z
#    x 1.866880 0.000000 0.006270 
#    y 0.000000 1.979120 0.000000 
#    z 0.006270 0.000000 1.949940 
# 
# From -- ./inp_files/243895.got.cif
#   From: 2010.05.17/outbox.cif.g08.bks.cpg/sg15_122_cif.got.tgz:243895.got - 2010.06.03 18:47:42.
