data_PCOD9284134
_publ_section_title
;
Structure prediction by ZEFSAII (Michael W. Deem and Ramdas Pophale) SiO2 
 PCOD9284134
Probable space group: C 2/C
;
_chemical_formula_sum "Si O2"
_cell_formula_units_Z 52
_cell_length_a 22.253677
_cell_length_b 11.154265
_cell_length_c 13.725095
_cell_angle_alpha 90.000000
_cell_angle_beta 132.714107
_cell_angle_gamma 90.000000
_cell_volume 2503.204173
_symmetry_space_group_name_H-M "C 2/C"
_symmetry_group_IT_number 15
_symmetry_cell_setting 'monoclinic'
loop_
_space_group_symop_operation_xyz
x,y,z
-x,y,1/2-z
-x,-y,-z
x,-y,1/2+z
1/2+x,1/2+y,z
1/2-x,1/2+y,1/2-z
1/2-x,1/2-y,-z
1/2+x,1/2-y,1/2+z
loop_
_atom_site_type_symbol
_atom_site_label
_atom_site_fract_x
_atom_site_fract_y
_atom_site_fract_z
Si Si1 0.666560 0.826868 0.890758
Si Si2 0.636584 0.340140 0.879355
Si Si3 0.000000 0.794256 0.250000
Si Si4 0.944713 0.974997 0.347333
Si Si5 0.320559 0.094924 0.519469
Si Si6 0.190589 0.090635 0.653316
Si Si7 0.793420 0.350142 0.778547
O O1 0.585681 0.774533 0.851331
O O2 0.654497 0.832303 0.761182
O O3 0.674770 0.961373 0.937843
O O4 0.750000 0.750000 0.000000
O O5 0.574738 0.413763 0.744778
O O6 0.626462 0.196811 0.868606
O O7 0.726159 0.366966 0.932731
O O8 0.642195 0.383743 0.998658
O O9 0.988448 0.876662 0.330842
O O10 0.861926 0.927999 0.306687
O O11 0.000000 0.000000 0.500000
O O12 0.339266 0.106197 0.425783
O O13 0.239591 0.216134 0.727982
O O14 0.234473 0.962245 0.688827
#
# Coordination Sequence:
#
# PCOD9284134 Si02
#       7
#     8   8   4   8   8   8   8
#     4  12  25  45  73 102 144 191 233 301 360 432
#     4  10  21  40  67 103 138 178 242 298 355 434
#     4  12  28  48  66 110 142 176 250 290 358 440
#     4  12  25  43  66  98 139 190 234 300 358 420
#     4  10  21  40  69 104 137 182 235 297 361 433
#     4  11  22  39  68 101 139 177 238 292 351 434
#     4  11  22  40  68 105 136 182 238 284 360 430
#
# _framework density 20.773377
#
# number of rings (size 3 to 8) (size 9 to 14) (size 15 to 20)
#    0.000    0.923    4.615    2.769    2.154    0.000 
#    2.769    4.615    0.000    0.000    0.000    0.000 
#    0.000    0.000    0.000    0.000    0.000    0.000 
#
# Total GULP energy -145083.809356 kJ/mol
# GULP energy per Si atom -5580.146514 kJ/mol
# Density = 2.072610 g / cm^3
# Si number density = 20.773377 Si / 1000 Ang^3
#
#
#
# Elastic Constant Matrix: (Units=GPa)
#
#
# Indices 1 2 3 4 5 6 
#
# 1 103.0461 43.3444 24.4252 0.0000 -12.5066 0.0000
# 2 43.3444 202.5276 76.7564 0.0000 3.8227 0.0000
# 3 24.4252 76.7564 89.3975 0.0000 -16.1423 0.0000
# 4 0.0000 0.0000 0.0000 17.4357 0.0000 -6.6892
# 5 -12.5066 3.8227 -16.1423 0.0000 37.4562 0.0000
# 6 0.0000 0.0000 0.0000 -6.6892 0.0000 36.8624
#
#
#
# Elastic Compliance Matrix: (Units=1/GPa)
#
#
# Indices 1 2 3 4 5 6 
#
# 1 0.011241 -0.002336 -0.000373 0.000000 0.003831 0.000000
# 2 -0.002336 0.008324 -0.007377 0.000000 -0.004809 0.000000
# 3 -0.000373 -0.007377 0.019232 0.000000 0.008917 0.000000
# 4 0.000000 0.000000 0.000000 0.061645 0.000000 0.011186
# 5 0.003831 -0.004809 0.008917 0.000000 0.032310 0.000000
# 6 0.000000 0.000000 0.000000 0.011186 0.000000 0.029158
#
#
# Mechanical properties :
#
#
# Convention : Reuss Voigt Hill
#
# Bulk Modulus (GPa) = 53.69720 76.00256 64.84988
# Shear Modulus (GPa) = 26.55443 35.04721 30.80082
#
# Velocity S-wave (km/s) = 3.57920 4.11191 3.85477
# Velocity P-wave (km/s) = 6.55637 7.69479 7.14828
#
# Compressibility (1/GPa) = 0.01862294
#
# Stress axis : x y z
#
# Youngs Moduli (GPa) = 88.96304 120.12992 51.99646
#
# Poissons Ratio (x) = 0.28068 0.01941
# Poissons Ratio (y) = 0.20786 0.38359
# Poissons Ratio (z) = 0.03321 0.88622
#
# Static dielectric constant tensor:
#      x y z
#    x 1.818010 0.000000 0.072510 
#    y 0.000000 1.803720 0.000000 
#    z 0.072510 0.000000 1.804640 
# 
# From -- ./inp_files/173000.got.cif
#   From: 2010.05.17/outbox.cif.g08.bks.cpg/sg15_87_cif.got.tgz:173000.got - 2010.06.03 18:47:42.
