data_PCOD9284497
_publ_section_title
;
Structure prediction by ZEFSAII (Michael W. Deem and Ramdas Pophale) SiO2 
 PCOD9284497
Probable space group: C 2/C
;
_chemical_formula_sum "Si O2"
_cell_formula_units_Z 48
_cell_length_a 11.959766
_cell_length_b 10.957072
_cell_length_c 17.834857
_cell_angle_alpha 90.000000
_cell_angle_beta 59.959313
_cell_angle_gamma 90.000000
_cell_volume 2023.202063
_symmetry_space_group_name_H-M "C 2/C"
_symmetry_group_IT_number 15
_symmetry_cell_setting 'monoclinic'
loop_
_space_group_symop_operation_xyz
x,y,z
-x,y,1/2-z
-x,-y,-z
x,-y,1/2+z
1/2+x,1/2+y,z
1/2-x,1/2+y,1/2-z
1/2-x,1/2-y,-z
1/2+x,1/2-y,1/2+z
loop_
_atom_site_type_symbol
_atom_site_label
_atom_site_fract_x
_atom_site_fract_y
_atom_site_fract_z
Si Si1 0.594670 0.480925 0.398428
Si Si2 0.628475 0.041691 0.735058
Si Si3 0.027772 0.730465 0.066636
Si Si4 0.301069 0.948584 0.626248
Si Si5 0.146985 0.804993 0.774996
Si Si6 0.762094 0.220932 0.884487
O O1 0.500000 0.500000 0.500000
O O2 0.749310 0.469660 0.361527
O O3 0.559915 0.345409 0.382730
O O4 0.573749 0.585908 0.342824
O O5 0.500000 0.979181 0.750000
O O6 0.584681 0.174709 0.779745
O O7 0.681129 0.985121 0.793275
O O8 0.123236 0.720165 0.105950
O O9 0.936612 0.621061 0.065972
O O10 0.127585 0.763189 0.966845
O O11 0.191399 0.848161 0.677205
O O12 0.251082 0.072082 0.603679
O O13 0.256041 0.763778 0.800599
#
# Coordination Sequence:
#
# PCOD9284497 Si02
#       6
#     8   8   8   8   8   8
#     4  11  22  41  64  88 128 166 209 267 327 390
#     4  10  23  40  62  91 123 170 211 264 328 392
#     4  11  22  40  66  90 125 169 211 269 329 390
#     4  10  22  39  62  91 125 165 211 270 321 390
#     4  10  21  41  59  90 127 163 213 272 319 394
#     4  10  23  39  63  96 124 163 217 267 326 395
#
# _framework density 23.724768000000001
#
# number of rings (size 3 to 8) (size 9 to 14) (size 15 to 20)
#    0.000    1.667    3.333    0.500    4.667    1.333 
#    0.000    0.833    0.000    0.000    0.000    0.000 
#    0.000    0.000    0.000    0.000    0.000    0.000 
#
# Total GULP energy -133617.795691 kJ/mol
# GULP energy per Si atom -5567.408154 kJ/mol
# Density = 2.367077 g / cm^3
# Si number density = 23.724768 Si / 1000 Ang^3
#
#
#
# Elastic Constant Matrix: (Units=GPa)
#
#
# Indices 1 2 3 4 5 6 
#
# 1 45.4447 2.6506 30.3181 0.0000 -8.4747 0.0000
# 2 2.6506 114.7171 21.8785 0.0000 -12.3064 0.0000
# 3 30.3181 21.8785 100.6506 0.0000 -30.2323 0.0000
# 4 0.0000 0.0000 0.0000 43.8853 0.0000 -10.0594
# 5 -8.4747 -12.3064 -30.2323 0.0000 26.9252 0.0000
# 6 0.0000 0.0000 0.0000 -10.0594 0.0000 4.5061
#
#
#
# Elastic Compliance Matrix: (Units=1/GPa)
#
#
# Indices 1 2 3 4 5 6 
#
# 1 0.027654 0.000956 -0.008740 0.000000 -0.000672 0.000000
# 2 0.000956 0.009282 -0.001420 0.000000 0.002949 0.000000
# 3 -0.008740 -0.001420 0.017888 0.000000 0.016686 0.000000
# 4 0.000000 0.000000 0.000000 0.046666 0.000000 0.104178
# 5 -0.000672 0.002949 0.016686 0.000000 0.057012 0.000000
# 6 0.000000 0.000000 0.000000 0.104178 0.000000 0.454490
#
#
# Mechanical properties :
#
#
# Convention : Reuss Voigt Hill
#
# Bulk Modulus (GPa) = 27.45925 41.16744 34.31334
# Shear Modulus (GPa) = 7.76953 28.79432 18.28192
#
# Velocity S-wave (km/s) = 1.81162 3.48757 2.77895
# Velocity P-wave (km/s) = 3.99689 5.79718 4.97908
#
# Compressibility (1/GPa) = 0.03641761
#
# Stress axis : x y z
#
# Youngs Moduli (GPa) = 36.16068 107.73354 55.90184
#
# Poissons Ratio (x) = -0.10296 0.48857
# Poissons Ratio (y) = -0.03456 0.07936
# Poissons Ratio (z) = 0.31603 0.15295
#
# Static dielectric constant tensor:
#      x y z
#    x 2.020030 0.000000 -0.107630 
#    y 0.000000 2.033040 0.000000 
#    z -0.107630 0.000000 1.965500 
# 
# From -- ./inp_files/196199.got.cif
#   From: 2010.05.17/outbox.cif.g08.bks.cpg/sg15_99_cif.got.tgz:196199.got - 2010.06.03 18:47:42.
