data_PCOD9284441
_publ_section_title
;
Structure prediction by ZEFSAII (Michael W. Deem and Ramdas Pophale) SiO2 
 PCOD9284441
Probable space group: C 2/C
;
_chemical_formula_sum "Si O2"
_cell_formula_units_Z 36
_cell_length_a 16.203419
_cell_length_b 15.767483
_cell_length_c 8.712530
_cell_angle_alpha 90.000000
_cell_angle_beta 139.259467
_cell_angle_gamma 90.000000
_cell_volume 1452.724950
_symmetry_space_group_name_H-M "C 2/C"
_symmetry_group_IT_number 15
_symmetry_cell_setting 'monoclinic'
loop_
_space_group_symop_operation_xyz
x,y,z
-x,y,1/2-z
-x,-y,-z
x,-y,1/2+z
1/2+x,1/2+y,z
1/2-x,1/2+y,1/2-z
1/2-x,1/2-y,-z
1/2+x,1/2-y,1/2+z
loop_
_atom_site_type_symbol
_atom_site_label
_atom_site_fract_x
_atom_site_fract_y
_atom_site_fract_z
Si Si1 0.360783 0.112580 0.510788
Si Si2 0.350245 0.321750 0.962742
Si Si3 0.072417 0.087725 0.638574
Si Si4 0.678489 0.064916 0.703964
Si Si5 0.500000 0.171509 0.250000
O O1 0.500000 0.140539 0.750000
O O2 0.278424 0.182275 0.309484
O O3 0.305526 0.080464 0.594285
O O4 0.352573 0.030810 0.389401
O O5 0.364651 0.399277 0.103514
O O6 0.459758 0.342511 0.990746
O O7 0.384255 0.237499 0.104710
O O8 0.191030 0.093343 0.692672
O O9 0.000000 0.000000 0.500000
O O10 0.555940 0.115263 0.464812
#
# Coordination Sequence:
#
# PCOD9284441 Si02
#       5
#     8   8   8   8   4
#     4  12  26  44  72 107 142 189 248 297 344 430
#     4  10  25  45  71 107 147 184 241 300 356 427
#     4  10  21  40  72 104 137 180 237 295 349 412
#     4  12  25  43  75 105 143 188 243 291 365 423
#     4  10  26  48  72 106 146 194 230 296 376 418
#
# _framework density 24.781015
#
# number of rings (size 3 to 8) (size 9 to 14) (size 15 to 20)
#    0.000    1.333    3.333    2.000    6.222    5.333 
#    0.000    0.000    0.000    0.000    0.000    0.000 
#    0.000    0.000    0.000    0.000    0.000    0.000 
#
# Total GULP energy -100597.010788 kJ/mol
# GULP energy per Si atom -5588.722822 kJ/mol
# Density = 2.472461 g / cm^3
# Si number density = 24.781015 Si / 1000 Ang^3
#
#
#
# Elastic Constant Matrix: (Units=GPa)
#
#
# Indices 1 2 3 4 5 6 
#
# 1 135.1479 10.1140 50.3773 0.0000 13.0180 0.0000
# 2 10.1140 61.3256 36.8699 0.0000 2.7265 0.0000
# 3 50.3773 36.8699 179.3480 0.0000 15.7336 0.0000
# 4 0.0000 0.0000 0.0000 43.0117 0.0000 7.6867
# 5 13.0180 2.7265 15.7336 0.0000 39.2877 0.0000
# 6 0.0000 0.0000 0.0000 7.6867 0.0000 -1.0645
#
#
#
# Elastic Compliance Matrix: (Units=1/GPa)
#
#
# Indices 1 2 3 4 5 6 
#
# 1 0.008400 0.000020 -0.002196 0.000000 -0.001905 0.000000
# 2 0.000020 0.018608 -0.003853 0.000000 0.000245 0.000000
# 3 -0.002196 -0.003853 0.007149 0.000000 -0.001868 0.000000
# 4 0.000000 0.000000 0.000000 0.010151 0.000000 0.073295
# 5 -0.001905 0.000245 -0.001868 0.000000 0.026815 0.000000
# 6 0.000000 0.000000 0.000000 0.073295 0.000000 -0.410132
#
#
# Mechanical properties :
#
#
# Convention : Reuss Voigt Hill
#
# Bulk Modulus (GPa) = 45.25126 63.39376 54.32251
# Shear Modulus (GPa) = -15.64532 34.81099 9.58283
#
# Velocity S-wave (km/s) = -2.51538 3.75206 1.96860
# Velocity P-wave (km/s) = 3.14069 6.66391 5.20920
#
# Compressibility (1/GPa) = 0.02209883
#
# Stress axis : x y z
#
# Youngs Moduli (GPa) = 119.04662 53.73908 139.88849
#
# Poissons Ratio (x) = -0.00107 0.30726
# Poissons Ratio (y) = -0.00237 0.53892
# Poissons Ratio (z) = 0.26148 0.20703
#
# Static dielectric constant tensor:
#      x y z
#    x 2.026240 0.000000 0.065240 
#    y 0.000000 2.009660 0.000000 
#    z 0.065240 0.000000 1.922770 
# 
# From -- ./inp_files/48840.got.cif
#   From: 2010.05.17/outbox.cif.g08.bks.cpg/sg15_25_cif.got.tgz:48840.got - 2010.06.03 18:47:42.
