data_PCOD9284626
_publ_section_title
;
Structure prediction by ZEFSAII (Michael W. Deem and Ramdas Pophale) SiO2 
 PCOD9284626
Probable space group: C 2/C
;
_chemical_formula_sum "Si O2"
_cell_formula_units_Z 56
_cell_length_a 17.380317
_cell_length_b 12.949329
_cell_length_c 12.910807
_cell_angle_alpha 90.000000
_cell_angle_beta 127.406165
_cell_angle_gamma 90.000000
_cell_volume 2308.180906
_symmetry_space_group_name_H-M "C 2/C"
_symmetry_group_IT_number 15
_symmetry_cell_setting 'monoclinic'
loop_
_space_group_symop_operation_xyz
x,y,z
-x,y,1/2-z
-x,-y,-z
x,-y,1/2+z
1/2+x,1/2+y,z
1/2-x,1/2+y,1/2-z
1/2-x,1/2-y,-z
1/2+x,1/2-y,1/2+z
loop_
_atom_site_type_symbol
_atom_site_label
_atom_site_fract_x
_atom_site_fract_y
_atom_site_fract_z
Si Si1 0.375049 0.485779 0.462337
Si Si2 0.824331 0.858022 0.738783
Si Si3 0.500000 0.431552 0.750000
Si Si4 0.333398 0.701975 0.819880
Si Si5 0.699170 0.945014 0.454963
Si Si6 0.702275 0.834837 0.034028
Si Si7 0.000000 0.452662 0.250000
Si Si8 0.007017 0.345214 0.638035
O O1 0.350388 0.579383 0.365579
O O2 0.444299 0.500377 0.617794
O O3 0.406634 0.382354 0.428050
O O4 0.275774 0.438688 0.427052
O O5 0.763266 0.754380 0.710235
O O6 0.921001 0.863096 0.747115
O O7 0.746930 0.916014 0.601740
O O8 0.285075 0.642652 0.684095
O O9 0.401206 0.797254 0.842256
O O10 0.679194 0.066910 0.444814
O O11 0.597495 0.891186 0.350884
O O12 0.750000 0.750000 0.000000
O O13 0.596338 0.813834 0.995619
O O14 0.984024 0.531000 0.335007
O O15 0.000000 0.301607 0.750000
#
# Coordination Sequence:
#
# PCOD9284626 Si02
#       8
#     8   8   4   8   8   8   4   8
#     4  11  24  45  68 100 133 179 230 272 343 407
#     4  11  24  46  68  97 135 174 232 278 333 410
#     4  10  26  46  68  94 142 184 224 274 342 408
#     4  12  24  41  67  99 132 176 223 281 330 408
#     4  10  21  41  62  95 134 173 216 273 335 395
#     4  11  19  38  64  93 129 173 217 280 333 375
#     4   8  16  38  64  88 130 166 214 274 338 374
#     4   9  19  35  59  96 129 160 216 272 331 377
#
# _framework density 24.26153
#
# number of rings (size 3 to 8) (size 9 to 14) (size 15 to 20)
#    0.429    1.143    2.857    2.143    2.000    2.286 
#    9.000    3.571    0.000    0.000    0.000    0.000 
#    0.000    0.000    0.000    0.000    0.000    0.000 
#
# Total GULP energy -156157.718949 kJ/mol
# GULP energy per Si atom -5577.061391 kJ/mol
# Density = 2.420631 g / cm^3
# Si number density = 24.261530 Si / 1000 Ang^3
#
#
#
# Elastic Constant Matrix: (Units=GPa)
#
#
# Indices 1 2 3 4 5 6 
#
# 1 62.6608 -1.2351 43.1825 0.0000 17.8887 0.0000
# 2 -1.2351 53.2286 17.0416 0.0000 -10.7416 0.0000
# 3 43.1825 17.0416 146.6434 0.0000 21.6005 0.0000
# 4 0.0000 0.0000 0.0000 7.4344 0.0000 7.8526
# 5 17.8887 -10.7416 21.6005 0.0000 38.0314 0.0000
# 6 0.0000 0.0000 0.0000 7.8526 0.0000 10.2710
#
#
#
# Elastic Compliance Matrix: (Units=1/GPa)
#
#
# Indices 1 2 3 4 5 6 
#
# 1 0.021713 0.000879 -0.005487 0.000000 -0.006848 0.000000
# 2 0.000879 0.021676 -0.003949 0.000000 0.007952 0.000000
# 3 -0.005487 -0.003949 0.009470 0.000000 -0.003913 0.000000
# 4 0.000000 0.000000 0.000000 0.698906 0.000000 -0.534338
# 5 -0.006848 0.007952 -0.003913 0.000000 0.033984 0.000000
# 6 0.000000 0.000000 0.000000 -0.534338 0.000000 0.505881
#
#
# Mechanical properties :
#
#
# Convention : Reuss Voigt Hill
#
# Bulk Modulus (GPa) = 27.97652 42.27896 35.12774
# Shear Modulus (GPa) = 3.78598 24.71694 14.25146
#
# Velocity S-wave (km/s) = 1.25055 3.19528 2.42628
# Velocity P-wave (km/s) = 3.69343 5.57470 4.72857
#
# Compressibility (1/GPa) = 0.03574427
#
# Stress axis : x y z
#
# Youngs Moduli (GPa) = 46.05573 46.13327 105.59166
#
# Poissons Ratio (x) = -0.04053 0.57940
# Poissons Ratio (y) = -0.04046 0.41699
# Poissons Ratio (z) = 0.25272 0.18218
#
# Static dielectric constant tensor:
#      x y z
#    x 2.114780 0.000000 0.000700 
#    y 0.000000 1.955160 0.000000 
#    z 0.000700 0.000000 2.103870 
# 
# From -- ./inp_files/162344.got.cif
#   From: 2010.05.17/outbox.cif.g08.bks.cpg/sg15_82_cif.got.tgz:162344.got - 2010.06.03 18:47:42.
