data_PCOD9284088
_publ_section_title
;
Structure prediction by ZEFSAII (Michael W. Deem and Ramdas Pophale) SiO2 
 PCOD9284088
Probable space group: C 2/C
;
_chemical_formula_sum "Si O2"
_cell_formula_units_Z 56
_cell_length_a 15.769950
_cell_length_b 5.175954
_cell_length_c 28.635275
_cell_angle_alpha 90.000000
_cell_angle_beta 89.011980
_cell_angle_gamma 90.000000
_cell_volume 2336.993519
_symmetry_space_group_name_H-M "C 2/C"
_symmetry_group_IT_number 15
_symmetry_cell_setting 'monoclinic'
loop_
_space_group_symop_operation_xyz
x,y,z
-x,y,1/2-z
-x,-y,-z
x,-y,1/2+z
1/2+x,1/2+y,z
1/2-x,1/2+y,1/2-z
1/2-x,1/2-y,-z
1/2+x,1/2-y,1/2+z
loop_
_atom_site_type_symbol
_atom_site_label
_atom_site_fract_x
_atom_site_fract_y
_atom_site_fract_z
Si Si1 0.168028 0.402426 0.144218
Si Si2 0.935747 0.758683 0.280999
Si Si3 0.500550 0.337552 0.848944
Si Si4 0.204041 0.447592 0.965832
Si Si5 0.454405 0.820785 0.597904
Si Si6 0.352265 0.784967 0.942656
Si Si7 0.721134 0.433576 0.272410
O O1 0.186714 0.514724 0.094007
O O2 0.248464 0.357992 0.176260
O O3 0.099232 0.180897 0.136190
O O4 0.113757 0.604623 0.177894
O O5 0.868565 0.841383 0.243448
O O6 0.000000 0.586453 0.250000
O O7 0.983703 0.009125 0.300931
O O8 0.553298 0.546858 0.876963
O O9 0.537492 0.058259 0.864593
O O10 0.126122 0.359386 0.934484
O O11 0.284294 0.556082 0.936684
O O12 0.250000 0.250000 0.000000
O O13 0.160262 0.647658 0.002808
O O14 0.546806 0.794127 0.570540
O O15 0.776326 0.239959 0.238434
#
# Coordination Sequence:
#
# PCOD9284088 Si02
#       7
#     8   8   8   8   8   8   8
#     4  10  22  45  70 100 139 191 236 284 358 426
#     4  11  23  42  68 104 140 181 232 290 344 415
#     4  11  22  45  69 101 138 189 238 285 356 427
#     4  11  27  46  70 111 140 179 248 300 360 442
#     4  11  26  46  77 100 142 192 234 293 369 430
#     4  10  24  46  73 102 144 192 228 303 358 438
#     4  10  21  40  66  95 132 178 225 276 340 406
#
# _framework density 23.962413000000002
#
# number of rings (size 3 to 8) (size 9 to 14) (size 15 to 20)
#    0.000    1.429    4.286    0.429    8.000    2.286 
#    0.000    2.857    0.000    0.000    0.000    0.000 
#    0.000    0.000    0.000    0.000    0.000    0.000 
#
# Total GULP energy -155928.684924 kJ/mol
# GULP energy per Si atom -5568.881604 kJ/mol
# Density = 2.390787 g / cm^3
# Si number density = 23.962413 Si / 1000 Ang^3
#
#
#
# Elastic Constant Matrix: (Units=GPa)
#
#
# Indices 1 2 3 4 5 6 
#
# 1 128.0820 43.2484 59.0914 0.0000 38.1706 0.0000
# 2 43.2484 93.0917 14.1130 0.0000 8.8245 0.0000
# 3 59.0914 14.1130 76.5728 0.0000 41.5802 0.0000
# 4 0.0000 0.0000 0.0000 29.2831 0.0000 4.6912
# 5 38.1706 8.8245 41.5802 0.0000 55.3466 0.0000
# 6 0.0000 0.0000 0.0000 4.6912 0.0000 13.2512
#
#
#
# Elastic Compliance Matrix: (Units=1/GPa)
#
#
# Indices 1 2 3 4 5 6 
#
# 1 0.014300 -0.005082 -0.008755 0.000000 -0.002475 0.000000
# 2 -0.005082 0.012862 0.001286 0.000000 0.000488 0.000000
# 3 -0.008755 0.001286 0.027719 0.000000 -0.014992 0.000000
# 4 0.000000 0.000000 0.000000 0.036203 0.000000 -0.012816
# 5 -0.002475 0.000488 -0.014992 0.000000 0.030960 0.000000
# 6 0.000000 0.000000 0.000000 -0.012816 0.000000 0.080002
#
#
# Mechanical properties :
#
#
# Convention : Reuss Voigt Hill
#
# Bulk Modulus (GPa) = 33.57932 58.96135 46.27034
# Shear Modulus (GPa) = 21.09055 31.66245 26.37650
#
# Velocity S-wave (km/s) = 2.96995 3.63896 3.32135
# Velocity P-wave (km/s) = 5.07982 6.50502 5.83609
#
# Compressibility (1/GPa) = 0.02978023
#
# Stress axis : x y z
#
# Youngs Moduli (GPa) = 69.92996 77.75025 36.07575
#
# Poissons Ratio (x) = 0.39510 0.31584
# Poissons Ratio (y) = 0.35536 -0.04640
# Poissons Ratio (z) = 0.61224 -0.10000
#
# Static dielectric constant tensor:
#      x y z
#    x 1.933240 0.000000 -0.074850 
#    y 0.000000 2.071280 0.000000 
#    z -0.074850 0.000000 1.988960 
# 
# From -- ./inp_files/312345.got.cif
#   From: 2010.05.17/outbox.cif.g08.bks.cpg/sg15_157_cif.got.tgz:312345.got - 2010.06.03 18:47:42.
