data_PCOD9284265
_publ_section_title
;
Structure prediction by ZEFSAII (Michael W. Deem and Ramdas Pophale) SiO2 
 PCOD9284265
Probable space group: C 2/C
;
_chemical_formula_sum "Si O2"
_cell_formula_units_Z 60
_cell_length_a 9.889795
_cell_length_b 17.037918
_cell_length_c 16.955222
_cell_angle_alpha 90.000000
_cell_angle_beta 96.331411
_cell_angle_gamma 90.000000
_cell_volume 2839.554882
_symmetry_space_group_name_H-M "C 2/C"
_symmetry_group_IT_number 15
_symmetry_cell_setting 'monoclinic'
loop_
_space_group_symop_operation_xyz
x,y,z
-x,y,1/2-z
-x,-y,-z
x,-y,1/2+z
1/2+x,1/2+y,z
1/2-x,1/2+y,1/2-z
1/2-x,1/2-y,-z
1/2+x,1/2-y,1/2+z
loop_
_atom_site_type_symbol
_atom_site_label
_atom_site_fract_x
_atom_site_fract_y
_atom_site_fract_z
Si Si1 0.000000 0.280992 0.250000
Si Si2 0.637050 0.190057 0.408834
Si Si3 0.296764 0.229647 0.259194
Si Si4 0.407273 0.918706 0.850144
Si Si5 0.230268 0.576437 0.990687
Si Si6 0.546795 0.087755 0.624732
Si Si7 0.063613 0.180128 0.590944
Si Si8 0.806458 0.094923 0.528776
O O1 0.137459 0.232461 0.266134
O O2 0.020802 0.338313 0.177411
O O3 0.673479 0.237570 0.331661
O O4 0.557118 0.110227 0.383897
O O5 0.519056 0.242179 0.442507
O O6 0.770899 0.162738 0.462868
O O7 0.354684 0.144645 0.285329
O O8 0.369436 0.293154 0.321421
O O9 0.415484 0.008604 0.825475
O O10 0.310760 0.912046 0.920770
O O11 0.321344 0.645529 0.959280
O O12 0.088028 0.571775 0.934826
O O13 0.305822 0.492122 0.992060
O O14 0.675244 0.100092 0.576527
O O15 0.944698 0.114951 0.583288
#
# Coordination Sequence:
#
# PCOD9284265 Si02
#       8
#     4   8   8   8   8   8   8   8
#     4  12  26  44  68  96 136 178 228 276 338 394
#     4  11  22  40  65  91 133 176 220 268 333 405
#     4  11  26  43  63  94 135 175 224 273 338 405
#     4  10  21  40  68  93 126 172 223 268 332 403
#     4  11  21  41  65 100 130 167 224 280 329 390
#     4  11  22  41  68  96 130 175 226 274 327 401
#     4  11  23  39  62  97 130 169 213 280 337 384
#     4  11  22  41  67  98 129 173 229 273 328 407
#
# _framework density 21.130071999999998
#
# number of rings (size 3 to 8) (size 9 to 14) (size 15 to 20)
#    0.000    1.067    4.000    4.000    1.867    4.267 
#    0.000    0.000    0.000    0.000    0.000    0.000 
#    0.000    0.000    0.000    0.000    0.000    0.000 
#
# Total GULP energy -167570.290580 kJ/mol
# GULP energy per Si atom -5585.676353 kJ/mol
# Density = 2.108198 g / cm^3
# Si number density = 21.130072 Si / 1000 Ang^3
#
#
#
# Elastic Constant Matrix: (Units=GPa)
#
#
# Indices 1 2 3 4 5 6 
#
# 1 120.3601 17.4670 34.8337 0.0000 9.2944 0.0000
# 2 17.4670 54.4016 28.5808 0.0000 1.7584 0.0000
# 3 34.8337 28.5808 70.4144 0.0000 -8.9497 0.0000
# 4 0.0000 0.0000 0.0000 14.1819 0.0000 3.5969
# 5 9.2944 1.7584 -8.9497 0.0000 30.2661 0.0000
# 6 0.0000 0.0000 0.0000 3.5969 0.0000 21.6648
#
#
#
# Elastic Compliance Matrix: (Units=1/GPa)
#
#
# Indices 1 2 3 4 5 6 
#
# 1 0.010347 -0.000195 -0.005654 0.000000 -0.004838 0.000000
# 2 -0.000195 0.023925 -0.010166 0.000000 -0.004336 0.000000
# 3 -0.005654 -0.010166 0.022257 0.000000 0.008908 0.000000
# 4 0.000000 0.000000 0.000000 0.073612 0.000000 -0.012222
# 5 -0.004838 -0.004336 0.008908 0.000000 0.037412 0.000000
# 6 0.000000 0.000000 0.000000 -0.012222 0.000000 0.048187
#
#
# Mechanical properties :
#
#
# Convention : Reuss Voigt Hill
#
# Bulk Modulus (GPa) = 40.81775 45.21545 43.01660
# Shear Modulus (GPa) = 19.53608 24.17554 21.85581
#
# Velocity S-wave (km/s) = 3.04396 3.38617 3.21961
# Velocity P-wave (km/s) = 5.63148 6.06080 5.85008
#
# Compressibility (1/GPa) = 0.02449914
#
# Stress axis : x y z
#
# Youngs Moduli (GPa) = 96.64913 41.79667 44.92925
#
# Poissons Ratio (x) = 0.00816 0.25404
# Poissons Ratio (y) = 0.01886 0.45674
# Poissons Ratio (z) = 0.54647 0.42489
#
# Static dielectric constant tensor:
#      x y z
#    x 1.750940 0.000000 0.010280 
#    y 0.000000 1.785720 0.000000 
#    z 0.010280 0.000000 1.819300 
# 
# From -- ./inp_files/190999.got.cif
#   From: 2010.05.17/outbox.cif.g08.bks.cpg/sg15_96_cif.got.tgz:190999.got - 2010.06.03 18:47:42.
