data_PCOD9284846
_publ_section_title
;
Structure prediction by ZEFSAII (Michael W. Deem and Ramdas Pophale) SiO2 
 PCOD9284846
Probable space group: C 2/C
;
_chemical_formula_sum "Si O2"
_cell_formula_units_Z 48
_cell_length_a 25.971146
_cell_length_b 13.092485
_cell_length_c 18.337784
_cell_angle_alpha 90.000000
_cell_angle_beta 161.488500
_cell_angle_gamma 90.000000
_cell_volume 1979.688814
_symmetry_space_group_name_H-M "C 2/C"
_symmetry_group_IT_number 15
_symmetry_cell_setting 'monoclinic'
loop_
_space_group_symop_operation_xyz
x,y,z
-x,y,1/2-z
-x,-y,-z
x,-y,1/2+z
1/2+x,1/2+y,z
1/2-x,1/2+y,1/2-z
1/2-x,1/2-y,-z
1/2+x,1/2-y,1/2+z
loop_
_atom_site_type_symbol
_atom_site_label
_atom_site_fract_x
_atom_site_fract_y
_atom_site_fract_z
Si Si1 0.002965 0.991558 0.394725
Si Si2 0.560721 0.970088 0.663975
Si Si3 0.248515 0.088142 0.839438
Si Si4 0.580263 0.304516 0.931744
Si Si5 0.847826 0.310136 0.194589
Si Si6 0.163970 0.178718 0.017642
O O1 0.824864 0.960153 0.184275
O O2 0.104122 0.893138 0.504202
O O3 0.106482 0.051878 0.594595
O O4 0.013416 0.080600 0.348311
O O5 0.413609 0.948550 0.521906
O O6 0.500000 0.000000 0.500000
O O7 0.647735 0.070656 0.811240
O O8 0.691917 0.881045 0.830305
O O9 0.273202 0.208481 0.881157
O O10 0.500000 0.260754 0.750000
O O11 0.524720 0.236722 0.924180
O O12 0.768789 0.296614 0.167484
O O13 0.750000 0.250000 0.000000
O O14 0.000000 0.187560 0.750000
#
# Coordination Sequence:
#
# PCOD9284846 Si02
#       6
#     8   8   8   8   8   8
#     4  11  24  47  76 105 154 197 251 323 378 449
#     4  12  25  49  76 110 150 199 254 313 382 455
#     4  11  27  46  74 114 144 203 260 312 372 467
#     4  10  21  41  65 103 144 188 236 304 384 439
#     4  10  23  40  67 106 141 189 238 306 373 441
#     4  12  27  52  78 109 159 207 252 315 391 458
#
# _framework density 24.246234000000001
#
# number of rings (size 3 to 8) (size 9 to 14) (size 15 to 20)
#    0.000    1.000    3.333    1.500    7.000    2.667 
#    3.000    0.000    0.000    0.000    0.000    0.000 
#    0.000    0.000    0.000    0.000    0.000    0.000 
#
# Total GULP energy -134083.817678 kJ/mol
# GULP energy per Si atom -5586.825737 kJ/mol
# Density = 2.419105 g / cm^3
# Si number density = 24.246234 Si / 1000 Ang^3
#
#
#
# Elastic Constant Matrix: (Units=GPa)
#
#
# Indices 1 2 3 4 5 6 
#
# 1 127.1493 74.0392 73.9830 0.0001 62.2498 0.0001
# 2 74.0392 149.1938 59.2869 0.0003 21.6279 0.0002
# 3 73.9830 59.2869 121.5324 0.0003 42.1832 0.0002
# 4 0.0001 0.0003 0.0003 37.3345 0.0002 8.7568
# 5 62.2498 21.6279 42.1832 0.0002 80.9567 0.0001
# 6 0.0001 0.0002 0.0002 8.7568 0.0001 39.9142
#
#
#
# Elastic Compliance Matrix: (Units=1/GPa)
#
#
# Indices 1 2 3 4 5 6 
#
# 1 0.019868 -0.006174 -0.005314 0.000000 -0.010859 0.000000
# 2 -0.006174 0.010234 -0.002360 0.000000 0.003243 0.000000
# 3 -0.005314 -0.002360 0.013401 0.000000 -0.002266 0.000000
# 4 0.000000 0.000000 0.000000 0.028238 0.000000 -0.006195
# 5 -0.010859 0.003243 -0.002266 0.000000 0.021016 0.000000
# 6 0.000000 0.000000 0.000000 -0.006195 0.000000 0.026413
#
#
# Mechanical properties :
#
#
# Convention : Reuss Voigt Hill
#
# Bulk Modulus (GPa) = 63.25863 90.27709 76.76786
# Shear Modulus (GPa) = 32.86563 44.34552 38.60557
#
# Velocity S-wave (km/s) = 3.68570 4.28128 3.99460
# Velocity P-wave (km/s) = 6.65276 7.85833 7.28054
#
# Compressibility (1/GPa) = 0.01580812
#
# Stress axis : x y z
#
# Youngs Moduli (GPa) = 50.33196 97.71156 74.62265
#
# Poissons Ratio (x) = 0.60327 0.39653
# Poissons Ratio (y) = 0.31075 0.17608
# Poissons Ratio (z) = 0.26746 0.23056
#
# Static dielectric constant tensor:
#      x y z
#    x 2.096990 0.000000 0.004450 
#    y 0.000000 1.905990 0.000000 
#    z 0.004450 0.000000 2.104590 
# 
# From -- ./inp_files/257653.got.cif
#   From: 2010.05.17/outbox.cif.g08.bks.cpg/sg15_129_cif.got.tgz:257653.got - 2010.06.03 18:47:42.
