data_PCOD9284676
_publ_section_title
;
Structure prediction by ZEFSAII (Michael W. Deem and Ramdas Pophale) SiO2 
 PCOD9284676
Probable space group: C 2/C
;
_chemical_formula_sum "Si O2"
_cell_formula_units_Z 32
_cell_length_a 11.460262
_cell_length_b 9.850185
_cell_length_c 15.170680
_cell_angle_alpha 90.000000
_cell_angle_beta 137.611570
_cell_angle_gamma 90.000000
_cell_volume 1154.523073
_symmetry_space_group_name_H-M "C 2/C"
_symmetry_group_IT_number 15
_symmetry_cell_setting 'monoclinic'
loop_
_space_group_symop_operation_xyz
x,y,z
-x,y,1/2-z
-x,-y,-z
x,-y,1/2+z
1/2+x,1/2+y,z
1/2-x,1/2+y,1/2-z
1/2-x,1/2-y,-z
1/2+x,1/2-y,1/2+z
loop_
_atom_site_type_symbol
_atom_site_label
_atom_site_fract_x
_atom_site_fract_y
_atom_site_fract_z
Si Si1 0.751275 0.446067 0.436845
Si Si2 0.863195 0.169924 0.440239
Si Si3 0.399482 0.009264 0.778241
Si Si4 0.752680 0.734504 0.394263
O O1 0.750536 0.307479 0.382656
O O2 0.657945 0.409600 0.477655
O O3 0.694040 0.579129 0.353890
O O4 0.954053 0.484122 0.568874
O O5 0.055060 0.220013 0.527355
O O6 0.778606 0.071989 0.320927
O O7 0.500000 0.947816 0.750000
O O8 0.360608 0.163353 0.728615
O O9 0.750000 0.750000 0.500000
#
# Coordination Sequence:
#
# PCOD9284676 Si02
#       4
#     8   8   8   8
#     4  10  23  44  64  91 134 168 218 269 317 388
#     4  10  22  41  65  92 129 174 210 267 325 380
#     4  10  21  41  63  90 129 170 211 267 320 383
#     4  12  22  39  68  95 130 167 214 267 328 384
#
# _framework density 27.717074
#
# number of rings (size 3 to 8) (size 9 to 14) (size 15 to 20)
#    0.000    1.500    5.000    1.500    0.000    2.000 
#    0.000    8.750    0.000    0.000    0.000    0.000 
#    0.000    0.000    0.000    0.000    0.000    0.000 
#
# Total GULP energy -89595.613351 kJ/mol
# GULP energy per Si atom -5599.725834 kJ/mol
# Density = 2.765399 g / cm^3
# Si number density = 27.717074 Si / 1000 Ang^3
#
#
#
# Elastic Constant Matrix: (Units=GPa)
#
#
# Indices 1 2 3 4 5 6 
#
# 1 179.7383 54.2040 49.2605 0.0000 -3.2060 0.0000
# 2 54.2040 267.5430 55.9003 0.0000 -0.8732 0.0000
# 3 49.2605 55.9003 83.5427 0.0000 10.9930 0.0000
# 4 0.0000 0.0000 0.0000 8.7963 0.0000 10.0946
# 5 -3.2060 -0.8732 10.9930 0.0000 52.9832 0.0000
# 6 0.0000 0.0000 0.0000 10.0946 0.0000 33.5989
#
#
#
# Elastic Compliance Matrix: (Units=1/GPa)
#
#
# Indices 1 2 3 4 5 6 
#
# 1 0.006795 -0.000585 -0.003771 0.000000 0.001184 0.000000
# 2 -0.000585 0.004420 -0.002691 0.000000 0.000596 0.000000
# 3 -0.003771 -0.002691 0.016480 0.000000 -0.003692 0.000000
# 4 0.000000 0.000000 0.000000 0.173509 0.000000 -0.052130
# 5 0.001184 0.000596 -0.003692 0.000000 0.019721 0.000000
# 6 0.000000 0.000000 0.000000 -0.052130 0.000000 0.045425
#
#
# Mechanical properties :
#
#
# Convention : Reuss Voigt Hill
#
# Bulk Modulus (GPa) = 73.52426 94.39484 83.95955
# Shear Modulus (GPa) = 17.54519 43.83962 30.69241
#
# Velocity S-wave (km/s) = 2.51870 3.98135 3.33129
# Velocity P-wave (km/s) = 5.91969 7.43407 6.71968
#
# Compressibility (1/GPa) = 0.01360095
#
# Stress axis : x y z
#
# Youngs Moduli (GPa) = 147.17568 226.21920 60.67936
#
# Poissons Ratio (x) = 0.13230 0.22881
# Poissons Ratio (y) = 0.08607 0.16331
# Poissons Ratio (z) = 0.55498 0.60885
#
# Static dielectric constant tensor:
#      x y z
#    x 2.268810 0.000000 0.022370 
#    y 0.000000 2.187820 0.000000 
#    z 0.022370 0.000000 2.230240 
# 
# From -- ./inp_files/272158.got.cif
#   From: 2010.05.17/outbox.cif.g08.bks.cpg/sg15_137_cif.got.tgz:272158.got - 2010.06.03 18:47:42.
