data_PCOD9284388
_publ_section_title
;
Structure prediction by ZEFSAII (Michael W. Deem and Ramdas Pophale) SiO2 
 PCOD9284388
Probable space group: C 2/C
;
_chemical_formula_sum "Si O2"
_cell_formula_units_Z 48
_cell_length_a 28.999401
_cell_length_b 10.167694
_cell_length_c 14.313033
_cell_angle_alpha 90.000000
_cell_angle_beta 33.769826
_cell_angle_gamma 90.000000
_cell_volume 2345.886303
_symmetry_space_group_name_H-M "C 2/C"
_symmetry_group_IT_number 15
_symmetry_cell_setting 'monoclinic'
loop_
_space_group_symop_operation_xyz
x,y,z
-x,y,1/2-z
-x,-y,-z
x,-y,1/2+z
1/2+x,1/2+y,z
1/2-x,1/2+y,1/2-z
1/2-x,1/2-y,-z
1/2+x,1/2-y,1/2+z
loop_
_atom_site_type_symbol
_atom_site_label
_atom_site_fract_x
_atom_site_fract_y
_atom_site_fract_z
Si Si1 0.582874 0.049065 0.911129
Si Si2 0.712573 0.892098 0.033273
Si Si3 0.039163 0.156451 0.493078
Si Si4 0.595548 0.844974 0.053563
Si Si5 0.877043 0.995211 0.294389
Si Si6 0.093227 0.951019 0.552131
O O1 0.654882 0.058815 0.713922
O O2 0.562608 0.196721 0.978685
O O3 0.500000 0.000000 0.000000
O O4 0.604764 0.951367 0.957302
O O5 0.656903 0.874766 0.035607
O O6 0.750000 0.750000 0.000000
O O7 0.789303 0.992050 0.891486
O O8 0.068932 0.118637 0.338168
O O9 0.088468 0.056295 0.477802
O O10 0.941319 0.123671 0.668272
O O11 0.500000 0.849340 0.250000
O O12 0.614066 0.696698 0.987584
O O13 0.857813 0.008849 0.436769
O O14 0.000000 0.948207 0.750000
#
# Coordination Sequence:
#
# PCOD9284388 Si02
#       6
#     8   8   8   8   8   8
#     4  12  26  44  70 101 137 184 230 282 354 414
#     4  12  23  47  70 100 140 183 234 283 345 422
#     4  10  22  40  69  99 130 180 229 273 336 416
#     4  11  23  42  72  99 136 186 228 283 354 418
#     4  10  21  40  70  93 130 176 229 274 331 401
#     4   9  19  37  64  98 126 173 228 266 332 415
#
# _framework density 20.461349999999999
#
# number of rings (size 3 to 8) (size 9 to 14) (size 15 to 20)
#    0.000    1.333    5.000    0.000    7.000    3.333 
#    0.000    0.833    0.000    0.000    0.000    0.000 
#    0.000    0.000    0.000    0.000    0.000    0.000 
#
# Total GULP energy -134072.253911 kJ/mol
# GULP energy per Si atom -5586.343913 kJ/mol
# Density = 2.041478 g / cm^3
# Si number density = 20.461350 Si / 1000 Ang^3
#
#
#
# Elastic Constant Matrix: (Units=GPa)
#
#
# Indices 1 2 3 4 5 6 
#
# 1 166.4158 67.2227 47.1266 0.0000 -8.8947 0.0000
# 2 67.2227 127.7456 46.3038 0.0000 12.8706 0.0000
# 3 47.1266 46.3038 109.6376 0.0000 -8.2640 0.0000
# 4 0.0000 0.0000 0.0000 21.8396 0.0000 6.4766
# 5 -8.8947 12.8706 -8.2640 0.0000 34.2515 0.0000
# 6 0.0000 0.0000 0.0000 6.4766 0.0000 32.0713
#
#
#
# Elastic Compliance Matrix: (Units=1/GPa)
#
#
# Indices 1 2 3 4 5 6 
#
# 1 0.008302 -0.004135 -0.001571 0.000000 0.003331 0.000000
# 2 -0.004135 0.012036 -0.003797 0.000000 -0.006513 0.000000
# 3 -0.001571 -0.003797 0.011689 0.000000 0.003839 0.000000
# 4 0.000000 0.000000 0.000000 0.048705 0.000000 -0.009836
# 5 0.003331 -0.006513 0.003839 0.000000 0.033434 0.000000
# 6 0.000000 0.000000 0.000000 -0.009836 0.000000 0.033167
#
#
# Mechanical properties :
#
#
# Convention : Reuss Voigt Hill
#
# Bulk Modulus (GPa) = 76.79473 80.56725 78.68099
# Shear Modulus (GPa) = 29.29441 33.84221 31.56831
#
# Velocity S-wave (km/s) = 3.78788 4.07130 3.93214
# Velocity P-wave (km/s) = 7.53285 7.84611 7.69107
#
# Compressibility (1/GPa) = 0.01302173
#
# Stress axis : x y z
#
# Youngs Moduli (GPa) = 120.44862 83.08144 85.54809
#
# Poissons Ratio (x) = 0.34353 0.13442
# Poissons Ratio (y) = 0.49804 0.32482
# Poissons Ratio (z) = 0.18926 0.31546
#
# Static dielectric constant tensor:
#      x y z
#    x 1.827830 0.000000 -0.033540 
#    y 0.000000 1.740110 0.000000 
#    z -0.033540 0.000000 1.749080 
# 
# From -- ./inp_files/177758.got.cif
#   From: 2010.05.17/outbox.cif.g08.bks.cpg/sg15_89_cif.got.tgz:177758.got - 2010.06.03 18:47:42.
