data_PCOD9284231
_publ_section_title
;
Structure prediction by ZEFSAII (Michael W. Deem and Ramdas Pophale) SiO2 
 PCOD9284231
Probable space group: C 2/C
;
_chemical_formula_sum "Si O2"
_cell_formula_units_Z 48
_cell_length_a 5.295507
_cell_length_b 23.672542
_cell_length_c 17.938681
_cell_angle_alpha 90.000000
_cell_angle_beta 61.163365
_cell_angle_gamma 90.000000
_cell_volume 1969.909594
_symmetry_space_group_name_H-M "C 2/C"
_symmetry_group_IT_number 15
_symmetry_cell_setting 'monoclinic'
loop_
_space_group_symop_operation_xyz
x,y,z
-x,y,1/2-z
-x,-y,-z
x,-y,1/2+z
1/2+x,1/2+y,z
1/2-x,1/2+y,1/2-z
1/2-x,1/2-y,-z
1/2+x,1/2-y,1/2+z
loop_
_atom_site_type_symbol
_atom_site_label
_atom_site_fract_x
_atom_site_fract_y
_atom_site_fract_z
Si Si1 0.500000 0.883993 0.750000
Si Si2 0.387194 0.074387 0.625679
Si Si3 0.728571 0.054685 0.345077
Si Si4 0.971467 0.843670 0.896544
Si Si5 0.044865 0.272233 0.158228
Si Si6 0.978200 0.871357 0.060544
Si Si7 0.000000 0.155816 0.750000
O O1 0.517264 0.923823 0.675692
O O2 0.225715 0.845169 0.799265
O O3 0.729016 0.082433 0.581043
O O4 0.220978 0.106775 0.582041
O O5 0.250173 0.105193 0.718677
O O6 0.320194 0.008806 0.624045
O O7 0.000000 0.054302 0.250000
O O8 0.779032 0.102687 0.399587
O O9 0.848193 0.781151 0.904304
O O10 0.078867 0.851132 0.965293
O O11 0.733078 0.299229 0.180513
O O12 0.000000 0.256589 0.250000
O O13 0.291597 0.320145 0.121599
#
# Coordination Sequence:
#
# PCOD9284231 Si02
#       7
#     4   8   8   8   8   8   4
#     4  10  23  44  68 100 136 183 244 278 350 414
#     4  11  24  44  71 100 139 178 229 288 344 414
#     4  10  23  41  69 100 133 184 232 287 341 414
#     4  11  25  44  66 102 139 185 230 285 351 417
#     4  11  21  43  70  98 137 182 236 285 344 411
#     4  11  27  44  69 105 142 180 229 291 347 408
#     4  10  21  40  68 100 124 177 232 284 340 406
#
# _framework density 24.366599999999998
#
# number of rings (size 3 to 8) (size 9 to 14) (size 15 to 20)
#    0.000    1.333    2.500    2.500    7.000    1.333 
#    0.000    2.500    0.000    0.000    0.000    0.000 
#    0.000    0.000    0.000    0.000    0.000    0.000 
#
# Total GULP energy -133701.692251 kJ/mol
# GULP energy per Si atom -5570.903844 kJ/mol
# Density = 2.431114 g / cm^3
# Si number density = 24.366600 Si / 1000 Ang^3
#
#
#
# Elastic Constant Matrix: (Units=GPa)
#
#
# Indices 1 2 3 4 5 6 
#
# 1 73.0329 39.9421 22.4684 0.0000 20.1810 0.0000
# 2 39.9421 151.3985 38.5049 0.0000 16.0868 0.0000
# 3 22.4684 38.5049 80.3814 0.0000 19.7219 0.0000
# 4 0.0000 0.0000 0.0000 -16.2599 0.0000 7.9268
# 5 20.1810 16.0868 19.7219 0.0000 43.8991 0.0000
# 6 0.0000 0.0000 0.0000 7.9268 0.0000 28.1216
#
#
#
# Elastic Compliance Matrix: (Units=1/GPa)
#
#
# Indices 1 2 3 4 5 6 
#
# 1 0.017908 -0.003625 -0.001770 0.000000 -0.006109 0.000000
# 2 -0.003625 0.008320 -0.002959 0.000000 -0.000053 0.000000
# 3 -0.001770 -0.002959 0.015608 0.000000 -0.005114 0.000000
# 4 0.000000 0.000000 0.000000 -0.054071 0.000000 0.015241
# 5 -0.006109 -0.000053 -0.005114 0.000000 0.027904 0.000000
# 6 0.000000 0.000000 0.000000 0.015241 0.000000 0.031264
#
#
# Mechanical properties :
#
#
# Convention : Reuss Voigt Hill
#
# Bulk Modulus (GPa) = 39.79936 56.29372 48.04654
# Shear Modulus (GPa) = 69.42847 24.74533 47.08690
#
# Velocity S-wave (km/s) = 5.34370 3.19022 4.40072
# Velocity P-wave (km/s) = 7.37852 6.05995 6.75150
#
# Compressibility (1/GPa) = 0.02512603
#
# Stress axis : x y z
#
# Youngs Moduli (GPa) = 55.84203 120.19726 64.07116
#
# Poissons Ratio (x) = 0.43573 0.11342
# Poissons Ratio (y) = 0.20243 0.18959
# Poissons Ratio (z) = 0.09886 0.35567
#
# Static dielectric constant tensor:
#      x y z
#    x 2.066490 0.000000 0.051040 
#    y 0.000000 1.968540 0.000000 
#    z 0.051040 0.000000 2.120920 
# 
# From -- ./inp_files/185266.got.cif
#   From: 2010.05.17/outbox.cif.g08.bks.cpg/sg15_93_cif.got.tgz:185266.got - 2010.06.03 18:47:42.
