data_PCOD9284861
_publ_section_title
;
Structure prediction by ZEFSAII (Michael W. Deem and Ramdas Pophale) SiO2 
 PCOD9284861
Probable space group: C 2/C
;
_chemical_formula_sum "Si O2"
_cell_formula_units_Z 40
_cell_length_a 4.977225
_cell_length_b 23.519413
_cell_length_c 16.262224
_cell_angle_alpha 90.000000
_cell_angle_beta 102.066249
_cell_angle_gamma 90.000000
_cell_volume 1861.620036
_symmetry_space_group_name_H-M "C 2/C"
_symmetry_group_IT_number 15
_symmetry_cell_setting 'monoclinic'
loop_
_space_group_symop_operation_xyz
x,y,z
-x,y,1/2-z
-x,-y,-z
x,-y,1/2+z
1/2+x,1/2+y,z
1/2-x,1/2+y,1/2-z
1/2-x,1/2-y,-z
1/2+x,1/2-y,1/2+z
loop_
_atom_site_type_symbol
_atom_site_label
_atom_site_fract_x
_atom_site_fract_y
_atom_site_fract_z
Si Si1 0.699044 0.906653 0.190987
Si Si2 0.030469 0.480806 0.908007
Si Si3 0.489343 0.580308 0.153267
Si Si4 0.997477 0.317087 0.048288
Si Si5 0.922784 0.810468 0.933459
O O1 0.500000 0.885791 0.250000
O O2 0.594372 0.968373 0.154676
O O3 0.651001 0.864241 0.111866
O O4 0.000000 0.909398 0.250000
O O5 0.324728 0.462182 0.890565
O O6 0.827929 0.427466 0.889093
O O7 0.000000 0.500000 0.000000
O O8 0.500000 0.567016 0.250000
O O9 0.586404 0.643614 0.138929
O O10 0.022601 0.254297 0.089523
O O11 0.150169 0.312130 0.970671
O O12 0.677350 0.328178 0.009593
#
# Coordination Sequence:
#
# PCOD9284861 Si02
#       5
#     8   8   8   8   8
#     4  12  24  40  62  90 125 157 199 255 309 361
#     4  12  25  42  64  88 121 166 210 250 306 377
#     4  12  24  40  63  93 126 158 202 260 317 366
#     4  10  22  41  64  90 121 163 208 249 300 367
#     4  10  21  41  65  89 122 161 206 251 299 368
#
# _framework density 21.486663
#
# number of rings (size 3 to 8) (size 9 to 14) (size 15 to 20)
#    0.000    0.800    0.000    9.000    0.000    0.800 
#    0.000    2.000    0.000    0.000    0.000    0.000 
#    0.000    0.000    0.000    0.000    0.000    0.000 
#
# Total GULP energy -111837.744167 kJ/mol
# GULP energy per Si atom -5591.887208 kJ/mol
# Density = 2.143776 g / cm^3
# Si number density = 21.486663 Si / 1000 Ang^3
#
#
#
# Elastic Constant Matrix: (Units=GPa)
#
#
# Indices 1 2 3 4 5 6 
#
# 1 83.9168 -14.7722 4.1589 0.0000 -1.9368 0.0000
# 2 -14.7722 82.8944 6.2447 0.0000 2.9929 0.0000
# 3 4.1589 6.2447 56.3056 0.0000 -17.1707 0.0000
# 4 0.0000 0.0000 0.0000 54.7236 0.0000 10.2919
# 5 -1.9368 2.9929 -17.1707 0.0000 34.5928 0.0000
# 6 0.0000 0.0000 0.0000 10.2919 0.0000 38.3388
#
#
#
# Elastic Compliance Matrix: (Units=1/GPa)
#
#
# Indices 1 2 3 4 5 6 
#
# 1 0.012379 0.002300 -0.001200 0.000000 -0.000102 0.000000
# 2 0.002300 0.012715 -0.002211 0.000000 -0.002069 0.000000
# 3 -0.001200 -0.002211 0.021366 0.000000 0.010729 0.000000
# 4 0.000000 0.000000 0.000000 0.019245 0.000000 -0.005166
# 5 -0.000102 -0.002069 0.010729 0.000000 0.034407 0.000000
# 6 0.000000 0.000000 0.000000 -0.005166 0.000000 0.027470
#
#
# Mechanical properties :
#
#
# Convention : Reuss Voigt Hill
#
# Bulk Modulus (GPa) = 22.60562 23.81993 23.21277
# Shear Modulus (GPa) = 34.59018 40.69672 37.64345
#
# Velocity S-wave (km/s) = 4.01664 4.35678 4.19016
# Velocity P-wave (km/s) = 5.66170 6.03479 5.85122
#
# Compressibility (1/GPa) = 0.04423679
#
# Stress axis : x y z
#
# Youngs Moduli (GPa) = 80.78458 78.64932 46.80316
#
# Poissons Ratio (x) = -0.18090 0.05618
# Poissons Ratio (y) = -0.18581 0.10348
# Poissons Ratio (z) = 0.09698 0.17388
#
# Static dielectric constant tensor:
#      x y z
#    x 1.739180 0.000000 0.027680 
#    y 0.000000 1.806770 0.000000 
#    z 0.027680 0.000000 1.990180 
# 
# From -- ./inp_files/129039.got.cif
#   From: 2010.05.17/outbox.cif.g08.bks.cpg/sg15_65_cif.got.tgz:129039.got - 2010.06.03 18:47:42.
