data_PCOD9284732
_publ_section_title
;
Structure prediction by ZEFSAII (Michael W. Deem and Ramdas Pophale) SiO2 
 PCOD9284732
Probable space group: C 2/C
;
_chemical_formula_sum "Si O2"
_cell_formula_units_Z 60
_cell_length_a 22.499123
_cell_length_b 9.330085
_cell_length_c 27.231104
_cell_angle_alpha 90.000000
_cell_angle_beta 27.863866
_cell_angle_gamma 90.000000
_cell_volume 2671.649439
_symmetry_space_group_name_H-M "C 2/C"
_symmetry_group_IT_number 15
_symmetry_cell_setting 'monoclinic'
loop_
_space_group_symop_operation_xyz
x,y,z
-x,y,1/2-z
-x,-y,-z
x,-y,1/2+z
1/2+x,1/2+y,z
1/2-x,1/2+y,1/2-z
1/2-x,1/2-y,-z
1/2+x,1/2-y,1/2+z
loop_
_atom_site_type_symbol
_atom_site_label
_atom_site_fract_x
_atom_site_fract_y
_atom_site_fract_z
Si Si1 0.500000 0.826426 0.250000
Si Si2 0.793678 0.136243 0.885075
Si Si3 0.772213 0.450615 0.909888
Si Si4 0.966931 0.004832 0.467133
Si Si5 0.493485 0.886809 0.929787
Si Si6 0.850831 0.878744 0.916081
Si Si7 0.163827 0.179948 0.759330
Si Si8 0.038683 0.305931 0.435690
O O1 0.526775 0.717635 0.185384
O O2 0.618143 0.931217 0.174075
O O3 0.829867 0.294045 0.879661
O O4 0.837920 0.134967 0.796181
O O5 0.831255 0.990571 0.885209
O O6 0.641022 0.146211 0.996145
O O7 0.676327 0.445432 0.933975
O O8 0.671406 0.511490 0.023306
O O9 0.981871 0.173982 0.447204
O O10 0.000000 0.000000 0.500000
O O11 0.071072 0.922624 0.358467
O O12 0.602950 0.835033 0.813774
O O13 0.493916 0.052279 0.941621
O O14 0.506502 0.812865 0.974180
O O15 0.750000 0.750000 0.000000
O O16 0.308384 0.185237 0.672456
#
# Coordination Sequence:
#
# PCOD9284732 Si02
#       8
#     4   8   8   8   8   8   8   8
#     4  10  26  48  72 110 140 178 252 294 362 438
#     4  11  24  44  74  98 139 189 243 297 368 434
#     4  11  25  49  73 103 147 193 237 299 370 431
#     4  12  23  45  71 104 146 190 237 294 360 430
#     4  10  21  41  63  99 142 183 241 291 357 429
#     4  10  25  47  72 104 139 178 242 307 360 434
#     4  11  22  42  65 105 139 189 245 291 348 447
#     4  10  22  38  65  97 144 194 231 294 357 423
#
# _framework density 22.458037000000001
#
# number of rings (size 3 to 8) (size 9 to 14) (size 15 to 20)
#    0.000    1.333    2.667    2.000    5.600    2.667 
#    2.400    0.000    0.000    0.000    0.000    0.000 
#    0.000    0.000    0.000    0.000    0.000    0.000 
#
# Total GULP energy -167479.963980 kJ/mol
# GULP energy per Si atom -5582.665466 kJ/mol
# Density = 2.240692 g / cm^3
# Si number density = 22.458037 Si / 1000 Ang^3
#
#
#
# Elastic Constant Matrix: (Units=GPa)
#
#
# Indices 1 2 3 4 5 6 
#
# 1 42.7942 17.4902 16.1580 0.0002 -2.8970 -0.0002
# 2 17.4902 154.6418 22.7982 0.0000 -1.7990 -0.0002
# 3 16.1580 22.7982 94.1727 -0.0004 -0.0496 0.0001
# 4 0.0002 0.0000 -0.0004 45.0528 0.0002 0.6763
# 5 -2.8970 -1.7990 -0.0496 0.0002 21.1805 0.0000
# 6 -0.0002 -0.0002 0.0001 0.6763 0.0000 28.2548
#
#
#
# Elastic Compliance Matrix: (Units=1/GPa)
#
#
# Indices 1 2 3 4 5 6 
#
# 1 0.026018 -0.002329 -0.003899 0.000000 0.003352 0.000000
# 2 -0.002329 0.006921 -0.001276 0.000000 0.000266 0.000000
# 3 -0.003899 -0.001276 0.011596 0.000000 -0.000614 0.000000
# 4 0.000000 0.000000 0.000000 0.022204 0.000000 -0.000531
# 5 0.003352 0.000266 -0.000614 0.000000 0.047693 0.000000
# 6 0.000000 0.000000 0.000000 -0.000531 0.000000 0.035405
#
#
# Mechanical properties :
#
#
# Convention : Reuss Voigt Hill
#
# Bulk Modulus (GPa) = 33.86495 44.94460 39.40477
# Shear Modulus (GPa) = 28.62254 34.57512 31.59883
#
# Velocity S-wave (km/s) = 3.57387 3.92796 3.75509
# Velocity P-wave (km/s) = 5.66939 6.37401 6.03200
#
# Compressibility (1/GPa) = 0.02952906
#
# Stress axis : x y z
#
# Youngs Moduli (GPa) = 38.43430 144.48464 86.23485
#
# Poissons Ratio (x) = 0.33650 0.33620
# Poissons Ratio (y) = 0.08951 0.11002
# Poissons Ratio (z) = 0.14984 0.18433
#
# Static dielectric constant tensor:
#      x y z
#    x 1.887560 0.000000 0.043580 
#    y 0.000000 1.963360 0.000000 
#    z 0.043580 0.000000 1.810910 
# 
# From -- ./inp_files/302063.got.cif
#   From: 2010.05.17/outbox.cif.g08.bks.cpg/sg15_152_cif.got.tgz:302063.got - 2010.06.03 18:47:42.
