data_PCOD9284749
_publ_section_title
;
Structure prediction by ZEFSAII (Michael W. Deem and Ramdas Pophale) SiO2 
 PCOD9284749
Probable space group: C 2/C
;
_chemical_formula_sum "Si O2"
_cell_formula_units_Z 44
_cell_length_a 14.118469
_cell_length_b 13.340603
_cell_length_c 9.201782
_cell_angle_alpha 90.000000
_cell_angle_beta 95.986266
_cell_angle_gamma 90.000000
_cell_volume 1723.694449
_symmetry_space_group_name_H-M "C 2/C"
_symmetry_group_IT_number 15
_symmetry_cell_setting 'monoclinic'
loop_
_space_group_symop_operation_xyz
x,y,z
-x,y,1/2-z
-x,-y,-z
x,-y,1/2+z
1/2+x,1/2+y,z
1/2-x,1/2+y,1/2-z
1/2-x,1/2-y,-z
1/2+x,1/2-y,1/2+z
loop_
_atom_site_type_symbol
_atom_site_label
_atom_site_fract_x
_atom_site_fract_y
_atom_site_fract_z
Si Si1 0.328405 0.852681 0.669808
Si Si2 0.500000 0.500000 0.000000
Si Si3 0.500000 0.478735 0.250000
Si Si4 0.581575 0.815489 0.090543
Si Si5 0.136385 0.875116 0.790042
Si Si6 0.500000 0.002961 0.750000
Si Si7 0.406907 0.704078 0.914892
O O1 0.327971 0.824644 0.500654
O O2 0.236046 0.899150 0.728699
O O3 0.357459 0.755970 0.772127
O O4 0.414314 0.931831 0.689422
O O5 0.588690 0.488937 0.878736
O O6 0.463273 0.599979 0.876131
O O7 0.442279 0.567333 0.354552
O O8 0.604218 0.736822 0.220379
O O9 0.546269 0.921619 0.141976
O O10 0.493449 0.771833 0.982920
O O11 0.155410 0.830156 0.960214
#
# Coordination Sequence:
#
# PCOD9284749 Si02
#       7
#     8   4   4   8   8   4   8
#     4  12  27  41  72 108 133 182 247 291 341 430
#     4  10  22  38  70  96 124 188 218 280 354 422
#     4  10  21  41  64  88 140 174 223 279 352 408
#     4  12  22  47  72  96 143 191 228 295 353 424
#     4  11  22  47  67  99 140 181 229 291 358 410
#     4  12  25  47  72 100 150 190 241 287 368 410
#     4  11  22  46  71  96 144 179 231 289 365 417
#
# _framework density 25.526565000000002
#
# number of rings (size 3 to 8) (size 9 to 14) (size 15 to 20)
#    0.000    0.727    7.273    1.636    2.545    0.000 
#    9.818    0.000    0.000    0.000    0.000    0.000 
#    0.000    0.000    0.000    0.000    0.000    0.000 
#
# Total GULP energy -122515.163959 kJ/mol
# GULP energy per Si atom -5568.871089 kJ/mol
# Density = 2.546847 g / cm^3
# Si number density = 25.526565 Si / 1000 Ang^3
#
#
#
# Elastic Constant Matrix: (Units=GPa)
#
#
# Indices 1 2 3 4 5 6 
#
# 1 102.3566 27.9951 39.8796 0.0000 -32.6415 0.0000
# 2 27.9951 145.2791 45.6545 0.0000 2.8309 0.0000
# 3 39.8796 45.6545 280.6346 0.0000 -33.1163 0.0000
# 4 0.0000 0.0000 0.0000 26.7721 0.0000 -8.1371
# 5 -32.6415 2.8309 -33.1163 0.0000 41.5105 0.0000
# 6 0.0000 0.0000 0.0000 -8.1371 0.0000 29.2167
#
#
#
# Elastic Compliance Matrix: (Units=1/GPa)
#
#
# Indices 1 2 3 4 5 6 
#
# 1 0.014218 -0.002886 -0.000230 0.000000 0.011194 0.000000
# 2 -0.002886 0.007936 -0.001339 0.000000 -0.003878 0.000000
# 3 -0.000230 -0.001339 0.004198 0.000000 0.003260 0.000000
# 4 0.000000 0.000000 0.000000 0.040807 0.000000 0.011365
# 5 0.011194 -0.003878 0.003260 0.000000 0.035757 0.000000
# 6 0.000000 0.000000 0.000000 0.011365 0.000000 0.037392
#
#
# Mechanical properties :
#
#
# Convention : Reuss Voigt Hill
#
# Bulk Modulus (GPa) = 57.32730 83.92540 70.62635
# Shear Modulus (GPa) = 32.25141 47.14927 39.70034
#
# Velocity S-wave (km/s) = 3.55835 4.30241 3.94795
# Velocity P-wave (km/s) = 6.27608 7.59145 6.96488
#
# Compressibility (1/GPa) = 0.01744370
#
# Stress axis : x y z
#
# Youngs Moduli (GPa) = 70.33178 126.01475 238.18074
#
# Poissons Ratio (x) = 0.36363 0.05481
# Poissons Ratio (y) = 0.20295 0.31882
# Poissons Ratio (z) = 0.01619 0.16868
#
# Static dielectric constant tensor:
#      x y z
#    x 2.024140 0.000000 -0.037000 
#    y 0.000000 2.082120 0.000000 
#    z -0.037000 0.000000 2.225130 
# 
# From -- ./inp_files/95034.got.cif
#   From: 2010.05.17/outbox.cif.g08.bks.cpg/sg15_48_cif.got.tgz:95034.got - 2010.06.03 18:47:42.
