data_PCOD9284817
_publ_section_title
;
Structure prediction by ZEFSAII (Michael W. Deem and Ramdas Pophale) SiO2 
 PCOD9284817
Probable space group: C 2/C
;
_chemical_formula_sum "Si O2"
_cell_formula_units_Z 40
_cell_length_a 13.505124
_cell_length_b 24.467928
_cell_length_c 9.674862
_cell_angle_alpha 90.000000
_cell_angle_beta 147.957066
_cell_angle_gamma 90.000000
_cell_volume 1696.174877
_symmetry_space_group_name_H-M "C 2/C"
_symmetry_group_IT_number 15
_symmetry_cell_setting 'monoclinic'
loop_
_space_group_symop_operation_xyz
x,y,z
-x,y,1/2-z
-x,-y,-z
x,-y,1/2+z
1/2+x,1/2+y,z
1/2-x,1/2+y,1/2-z
1/2-x,1/2-y,-z
1/2+x,1/2-y,1/2+z
loop_
_atom_site_type_symbol
_atom_site_label
_atom_site_fract_x
_atom_site_fract_y
_atom_site_fract_z
Si Si1 0.329668 0.458088 0.939061
Si Si2 0.822590 0.656079 0.207313
Si Si3 0.755705 0.181266 0.683844
Si Si4 0.916970 0.925442 0.508540
Si Si5 0.666243 0.780699 0.532027
O O1 0.187672 0.409741 0.809876
O O2 0.283290 0.522411 0.881921
O O3 0.500000 0.453072 0.250000
O O4 0.414814 0.446176 0.889112
O O5 0.739645 0.675390 0.255984
O O6 0.032833 0.679513 0.449875
O O7 0.719821 0.681129 0.952544
O O8 0.821032 0.123261 0.816377
O O9 0.854330 0.230030 0.883963
O O10 0.000000 0.904928 0.750000
O O11 0.750000 0.750000 0.500000
O O12 0.500000 0.809882 0.250000
#
# Coordination Sequence:
#
# PCOD9284817 Si02
#       5
#     8   8   8   8   8
#     4  10  21  41  64  96 127 165 211 257 310 376
#     4  11  25  42  65  93 130 166 210 257 316 379
#     4  11  24  44  64  93 129 169 208 256 317 376
#     4  10  22  39  67  95 127 167 211 255 310 373
#     4  12  26  45  65  94 129 162 210 265 317 376
#
# _framework density 23.582474999999999
#
# number of rings (size 3 to 8) (size 9 to 14) (size 15 to 20)
#    0.000    1.200    4.000    1.200    5.600    0.800 
#    3.600    0.000    4.400    0.000    0.000    0.000 
#    0.000    0.000    0.000    0.000    0.000    0.000 
#
# Total GULP energy -111631.269085 kJ/mol
# GULP energy per Si atom -5581.563454 kJ/mol
# Density = 2.352880 g / cm^3
# Si number density = 23.582475 Si / 1000 Ang^3
#
#
#
# Elastic Constant Matrix: (Units=GPa)
#
#
# Indices 1 2 3 4 5 6 
#
# 1 59.7710 5.0677 44.2119 0.0000 -26.8722 0.0000
# 2 5.0677 134.3975 48.5255 0.0000 -4.7354 0.0000
# 3 44.2119 48.5255 133.7322 0.0000 -54.2700 0.0000
# 4 0.0000 0.0000 0.0000 34.5958 0.0000 -10.1478
# 5 -26.8722 -4.7354 -54.2700 0.0000 43.1938 0.0000
# 6 0.0000 0.0000 0.0000 -10.1478 0.0000 24.8330
#
#
#
# Elastic Compliance Matrix: (Units=1/GPa)
#
#
# Indices 1 2 3 4 5 6 
#
# 1 0.024282 0.001067 -0.004564 0.000000 0.009490 0.000000
# 2 0.001067 0.009461 -0.006316 0.000000 -0.006234 0.000000
# 3 -0.004564 -0.006316 0.020086 0.000000 0.021706 0.000000
# 4 0.000000 0.000000 0.000000 0.032842 0.000000 0.013421
# 5 0.009490 -0.006234 0.021706 0.000000 0.055643 0.000000
# 6 0.000000 0.000000 0.000000 0.013421 0.000000 0.045753
#
#
# Mechanical properties :
#
#
# Convention : Reuss Voigt Hill
#
# Bulk Modulus (GPa) = 29.23609 58.16788 43.70199
# Shear Modulus (GPa) = 22.82118 35.86423 29.34270
#
# Velocity S-wave (km/s) = 3.11419 3.90397 3.53123
# Velocity P-wave (km/s) = 5.03540 6.71123 5.93278
#
# Compressibility (1/GPa) = 0.03420429
#
# Stress axis : x y z
#
# Youngs Moduli (GPa) = 41.18236 105.69693 49.78511
#
# Poissons Ratio (x) = -0.11273 0.22720
# Poissons Ratio (y) = -0.04392 0.31442
# Poissons Ratio (z) = 0.18794 0.66753
#
# Static dielectric constant tensor:
#      x y z
#    x 2.010320 0.000000 0.030880 
#    y 0.000000 1.895550 0.000000 
#    z 0.030880 0.000000 2.130980 
# 
# From -- ./inp_files/33329.got.cif
#   From: 2010.05.17/outbox.cif.g08.bks.cpg/sg15_17_cif.got.tgz:33329.got - 2010.06.03 18:47:42.
