data_PCOD9284867
_publ_section_title
;
Structure prediction by ZEFSAII (Michael W. Deem and Ramdas Pophale) SiO2 
 PCOD9284867
Probable space group: C 2/C
;
_chemical_formula_sum "Si O2"
_cell_formula_units_Z 32
_cell_length_a 26.783347
_cell_length_b 9.690613
_cell_length_c 9.783415
_cell_angle_alpha 90.000000
_cell_angle_beta 30.615982
_cell_angle_gamma 90.000000
_cell_volume 1293.196338
_symmetry_space_group_name_H-M "C 2/C"
_symmetry_group_IT_number 15
_symmetry_cell_setting 'monoclinic'
loop_
_space_group_symop_operation_xyz
x,y,z
-x,y,1/2-z
-x,-y,-z
x,-y,1/2+z
1/2+x,1/2+y,z
1/2-x,1/2+y,1/2-z
1/2-x,1/2-y,-z
1/2+x,1/2-y,1/2+z
loop_
_atom_site_type_symbol
_atom_site_label
_atom_site_fract_x
_atom_site_fract_y
_atom_site_fract_z
Si Si1 0.192843 0.488829 0.414912
Si Si2 0.000196 0.838296 0.026057
Si Si3 0.344215 0.710802 0.135218
Si Si4 0.644461 0.172460 0.280258
O O1 0.284032 0.570008 0.263825
O O2 0.211419 0.350498 0.280232
O O3 0.147219 0.596777 0.417293
O O4 0.132285 0.439554 0.688113
O O5 0.925766 0.805949 0.325514
O O6 0.947226 0.771696 0.021619
O O7 0.103251 0.782506 0.841431
O O8 0.000000 0.000000 0.000000
O O9 0.750000 0.250000 0.000000
#
# Coordination Sequence:
#
# PCOD9284867 Si02
#       4
#     8   8   8   8
#     4  11  22  42  69  97 135 177 226 274 342 390
#     4  10  21  41  65  89 133 176 225 274 333 398
#     4  10  23  39  65  96 130 173 225 276 331 404
#     4  11  22  43  66 100 138 173 224 282 328 405
#
# _framework density 24.744889000000001
#
# number of rings (size 3 to 8) (size 9 to 14) (size 15 to 20)
#    0.000    1.500    5.000    1.500    0.000    2.000 
#    0.000    0.000    0.000    0.000    0.000    0.000 
#    0.000    0.000    0.000    0.000    0.000    0.000 
#
# Total GULP energy -89477.905880 kJ/mol
# GULP energy per Si atom -5592.369117 kJ/mol
# Density = 2.468857 g / cm^3
# Si number density = 24.744889 Si / 1000 Ang^3
#
#
#
# Elastic Constant Matrix: (Units=GPa)
#
#
# Indices 1 2 3 4 5 6 
#
# 1 160.1525 71.6623 37.9779 0.0000 -15.3334 0.0000
# 2 71.6623 143.8375 32.7669 0.0000 -33.7122 0.0000
# 3 37.9779 32.7669 49.6917 0.0000 -2.5756 0.0000
# 4 0.0000 0.0000 0.0000 34.2415 0.0000 -6.9198
# 5 -15.3334 -33.7122 -2.5756 0.0000 34.2469 0.0000
# 6 0.0000 0.0000 0.0000 -6.9198 0.0000 52.2951
#
#
#
# Elastic Compliance Matrix: (Units=1/GPa)
#
#
# Indices 1 2 3 4 5 6 
#
# 1 0.008827 -0.003263 -0.004574 0.000000 0.000396 0.000000
# 2 -0.003263 0.012054 -0.004934 0.000000 0.010033 0.000000
# 3 -0.004574 -0.004934 0.026619 0.000000 -0.004903 0.000000
# 4 0.000000 0.000000 0.000000 0.030007 0.000000 0.003971
# 5 0.000396 0.010033 -0.004903 0.000000 0.038885 0.000000
# 6 0.000000 0.000000 0.000000 0.003971 0.000000 0.019648
#
#
# Mechanical properties :
#
#
# Convention : Reuss Voigt Hill
#
# Bulk Modulus (GPa) = 45.54290 70.94397 58.24343
# Shear Modulus (GPa) = 29.60329 38.24169 33.92249
#
# Velocity S-wave (km/s) = 3.46257 3.93547 3.70657
# Velocity P-wave (km/s) = 5.86777 7.02730 6.47355
#
# Compressibility (1/GPa) = 0.02195732
#
# Stress axis : x y z
#
# Youngs Moduli (GPa) = 113.29433 82.96330 37.56655
#
# Poissons Ratio (x) = 0.27069 0.17183
# Poissons Ratio (y) = 0.36965 0.18537
# Poissons Ratio (z) = 0.51820 0.40938
#
# Static dielectric constant tensor:
#      x y z
#    x 2.012170 0.000000 -0.040630 
#    y 0.000000 1.985840 0.000000 
#    z -0.040630 0.000000 2.006130 
# 
# From -- ./inp_files/93244.got.cif
#   From: 2010.05.17/outbox.cif.g08.bks.cpg/sg15_47_cif.got.tgz:93244.got - 2010.06.03 18:47:42.
