data_PCOD9284300
_publ_section_title
;
Structure prediction by ZEFSAII (Michael W. Deem and Ramdas Pophale) SiO2 
 PCOD9284300
Probable space group: C 2/C
;
_chemical_formula_sum "Si O2"
_cell_formula_units_Z 64
_cell_length_a 14.484288
_cell_length_b 15.349313
_cell_length_c 15.980305
_cell_angle_alpha 90.000000
_cell_angle_beta 53.147825
_cell_angle_gamma 90.000000
_cell_volume 2842.901835
_symmetry_space_group_name_H-M "C 2/C"
_symmetry_group_IT_number 15
_symmetry_cell_setting 'monoclinic'
loop_
_space_group_symop_operation_xyz
x,y,z
-x,y,1/2-z
-x,-y,-z
x,-y,1/2+z
1/2+x,1/2+y,z
1/2-x,1/2+y,1/2-z
1/2-x,1/2-y,-z
1/2+x,1/2-y,1/2+z
loop_
_atom_site_type_symbol
_atom_site_label
_atom_site_fract_x
_atom_site_fract_y
_atom_site_fract_z
Si Si1 0.533645 0.989153 0.132623
Si Si2 0.907616 0.335837 0.697599
Si Si3 0.261029 0.272267 0.156820
Si Si4 0.609162 0.439537 0.462375
Si Si5 0.242693 0.419862 0.584392
Si Si6 0.944564 0.684694 0.611758
Si Si7 0.907454 0.827265 0.872884
Si Si8 0.877027 0.765677 0.470335
O O1 0.500000 0.970168 0.250000
O O2 0.511193 0.906017 0.087726
O O3 0.456676 0.070293 0.147516
O O4 0.661586 0.031242 0.062110
O O5 0.817258 0.303734 0.679532
O O6 0.838651 0.354352 0.820199
O O7 0.012789 0.266744 0.642013
O O8 0.359408 0.345952 0.093654
O O9 0.160721 0.316034 0.265921
O O10 0.198756 0.225539 0.111871
O O11 0.500000 0.500000 0.500000
O O12 0.715398 0.501695 0.380477
O O13 0.615441 0.412173 0.557659
O O14 0.358393 0.368633 0.495396
O O15 0.897134 0.714146 0.547064
O O16 0.028889 0.759225 0.600499
O O17 0.000000 0.847927 0.750000
O O18 0.750000 0.750000 0.500000
#
# Coordination Sequence:
#
# PCOD9284300 Si02
#       8
#     8   8   8   8   8   8   8   8
#     4  10  21  40  68  98 134 187 241 295 353 425
#     4  11  23  41  71 101 142 190 239 293 363 431
#     4  11  22  41  72 106 142 189 239 293 363 436
#     4  12  25  42  70 103 142 190 237 294 371 433
#     4  11  23  45  69  98 145 188 240 295 365 429
#     4  11  22  43  70 105 141 185 246 300 355 434
#     4  10  23  44  72 101 143 186 239 298 360 434
#     4  12  25  45  68 103 144 192 241 296 371 444
#
# _framework density 22.512208999999999
#
# number of rings (size 3 to 8) (size 9 to 14) (size 15 to 20)
#    0.000    1.000    2.500    6.000    1.750    1.500 
#    2.250    0.000    0.000    0.000    0.000    0.000 
#    0.000    0.000    0.000    0.000    0.000    0.000 
#
# Total GULP energy -178476.111795 kJ/mol
# GULP energy per Si atom -5577.378494 kJ/mol
# Density = 2.246097 g / cm^3
# Si number density = 22.512209 Si / 1000 Ang^3
#
#
#
# Elastic Constant Matrix: (Units=GPa)
#
#
# Indices 1 2 3 4 5 6 
#
# 1 154.5174 64.2462 41.1215 0.0000 -0.1232 0.0000
# 2 64.2462 115.4342 48.8470 0.0000 -3.5871 0.0000
# 3 41.1215 48.8470 80.3049 0.0000 -15.7328 0.0000
# 4 0.0000 0.0000 0.0000 27.8617 0.0000 -7.7483
# 5 -0.1232 -3.5871 -15.7328 0.0000 28.6894 0.0000
# 6 0.0000 0.0000 0.0000 -7.7483 0.0000 61.1548
#
#
#
# Elastic Compliance Matrix: (Units=1/GPa)
#
#
# Indices 1 2 3 4 5 6 
#
# 1 0.008739 -0.003874 -0.002472 0.000000 -0.001802 0.000000
# 2 -0.003874 0.013576 -0.006661 0.000000 -0.001972 0.000000
# 3 -0.002472 -0.006661 0.019723 0.000000 0.009973 0.000000
# 4 0.000000 0.000000 0.000000 0.037202 0.000000 0.004714
# 5 -0.001802 -0.001972 0.009973 0.000000 0.040071 0.000000
# 6 0.000000 0.000000 0.000000 0.004714 0.000000 0.016949
#
#
# Mechanical properties :
#
#
# Convention : Reuss Voigt Hill
#
# Bulk Modulus (GPa) = 62.39749 73.18731 67.79240
# Shear Modulus (GPa) = 29.83037 36.61064 33.22051
#
# Velocity S-wave (km/s) = 3.64411 4.03706 3.84561
# Velocity P-wave (km/s) = 6.74414 7.36961 7.06380
#
# Compressibility (1/GPa) = 0.01602629
#
# Stress axis : x y z
#
# Youngs Moduli (GPa) = 114.43276 73.65856 50.70135
#
# Poissons Ratio (x) = 0.28534 0.12531
# Poissons Ratio (y) = 0.44329 0.33770
# Poissons Ratio (z) = 0.28283 0.49061
#
# Static dielectric constant tensor:
#      x y z
#    x 1.934290 0.000000 0.027520 
#    y 0.000000 1.962090 0.000000 
#    z 0.027520 0.000000 1.962380 
# 
# From -- ./inp_files/205701.got.cif
#   From: 2010.05.17/outbox.cif.g08.bks.cpg/sg15_103_cif.got.tgz:205701.got - 2010.06.03 18:47:42.
