data_PCOD9284317
_publ_section_title
;
Structure prediction by ZEFSAII (Michael W. Deem and Ramdas Pophale) SiO2 
 PCOD9284317
Probable space group: C 2/C
;
_chemical_formula_sum "Si O2"
_cell_formula_units_Z 52
_cell_length_a 7.030836
_cell_length_b 17.861009
_cell_length_c 23.578208
_cell_angle_alpha 90.000000
_cell_angle_beta 122.842433
_cell_angle_gamma 90.000000
_cell_volume 2487.645167
_symmetry_space_group_name_H-M "C 2/C"
_symmetry_group_IT_number 15
_symmetry_cell_setting 'monoclinic'
loop_
_space_group_symop_operation_xyz
x,y,z
-x,y,1/2-z
-x,-y,-z
x,-y,1/2+z
1/2+x,1/2+y,z
1/2-x,1/2+y,1/2-z
1/2-x,1/2-y,-z
1/2+x,1/2-y,1/2+z
loop_
_atom_site_type_symbol
_atom_site_label
_atom_site_fract_x
_atom_site_fract_y
_atom_site_fract_z
Si Si1 0.939952 0.421040 0.130235
Si Si2 0.088939 0.296559 0.079311
Si Si3 0.498273 0.095871 0.385407
Si Si4 0.000000 0.672435 0.750000
Si Si5 0.546078 0.237238 0.191008
Si Si6 0.220174 0.174012 0.433463
Si Si7 0.506063 0.410884 0.498135
O O1 0.983328 0.509468 0.130551
O O2 0.027056 0.382799 0.200972
O O3 0.062362 0.380385 0.097442
O O4 0.674689 0.397035 0.080849
O O5 0.346784 0.273709 0.121282
O O6 0.958395 0.241428 0.102949
O O7 0.944849 0.289764 0.998481
O O8 0.473403 0.149767 0.327413
O O9 0.295683 0.122389 0.393890
O O10 0.732239 0.112158 0.457938
O O11 0.218321 0.725684 0.787913
O O12 0.500000 0.250309 0.250000
O O13 0.103799 0.123592 0.463031
O O14 0.500000 0.500000 0.500000
#
# Coordination Sequence:
#
# PCOD9284317 Si02
#       7
#     8   8   8   4   8   8   8
#     4  10  23  43  63  99 134 170 221 266 335 399
#     4  10  21  43  67  95 134 167 217 271 324 402
#     4  11  24  41  70  98 129 174 216 278 342 382
#     4  12  26  46  66  90 132 186 224 274 322 398
#     4  12  26  45  66  91 132 178 229 269 323 397
#     4  10  21  40  69 101 133 165 214 273 338 399
#     4   9  20  39  63  99 132 164 212 275 331 389
#
# _framework density 20.903302
#
# number of rings (size 3 to 8) (size 9 to 14) (size 15 to 20)
#    0.000    1.538    3.077    0.923    3.231    6.154 
#    2.769    1.538    0.000    0.000    0.000    0.000 
#    0.000    0.000    0.000    0.000    0.000    0.000 
#
# Total GULP energy -145095.919369 kJ/mol
# GULP energy per Si atom -5580.612283 kJ/mol
# Density = 2.085573 g / cm^3
# Si number density = 20.903302 Si / 1000 Ang^3
#
#
#
# Elastic Constant Matrix: (Units=GPa)
#
#
# Indices 1 2 3 4 5 6 
#
# 1 71.3878 41.0980 12.1524 0.0000 25.7919 0.0000
# 2 41.0980 124.1588 30.5961 0.0000 17.4717 0.0000
# 3 12.1524 30.5961 45.2707 0.0000 24.8037 0.0000
# 4 0.0000 0.0000 0.0000 34.5340 0.0000 2.7449
# 5 25.7919 17.4717 24.8037 0.0000 30.8506 0.0000
# 6 0.0000 0.0000 0.0000 2.7449 0.0000 28.9198
#
#
#
# Elastic Compliance Matrix: (Units=1/GPa)
#
#
# Indices 1 2 3 4 5 6 
#
# 1 0.027059 -0.008396 0.014657 0.000000 -0.029651 0.000000
# 2 -0.008396 0.012272 -0.010863 0.000000 0.008804 0.000000
# 3 0.014657 -0.010863 0.051546 0.000000 -0.047544 0.000000
# 4 0.000000 0.000000 0.000000 0.029177 0.000000 -0.002769
# 5 -0.029651 0.008804 -0.047544 0.000000 0.090442 0.000000
# 6 0.000000 0.000000 0.000000 -0.002769 0.000000 0.034841
#
#
# Mechanical properties :
#
#
# Convention : Reuss Voigt Hill
#
# Bulk Modulus (GPa) = 12.24428 45.39005 28.81717
# Shear Modulus (GPa) = 17.74511 29.32558 23.53535
#
# Velocity S-wave (km/s) = 2.91677 3.74962 3.35911
# Velocity P-wave (km/s) = 4.14894 6.36456 5.37221
#
# Compressibility (1/GPa) = 0.08167079
#
# Stress axis : x y z
#
# Youngs Moduli (GPa) = 36.95572 81.48872 19.40009
#
# Poissons Ratio (x) = 0.68420 -0.28434
# Poissons Ratio (y) = 0.31029 0.21075
# Poissons Ratio (z) = -0.54164 0.88525
#
# Static dielectric constant tensor:
#      x y z
#    x 1.771430 0.000000 0.021040 
#    y 0.000000 1.768890 0.000000 
#    z 0.021040 0.000000 1.785670 
# 
# From -- ./inp_files/286155.got.cif
#   From: 2010.05.17/outbox.cif.g08.bks.cpg/sg15_144_cif.got.tgz:286155.got - 2010.06.03 18:47:42.
