data_PCOD9284379
_publ_section_title
;
Structure prediction by ZEFSAII (Michael W. Deem and Ramdas Pophale) SiO2 
 PCOD9284379
Probable space group: C 2/C
;
_chemical_formula_sum "Si O2"
_cell_formula_units_Z 64
_cell_length_a 12.700849
_cell_length_b 29.245876
_cell_length_c 17.464632
_cell_angle_alpha 90.000000
_cell_angle_beta 30.889484
_cell_angle_gamma 90.000000
_cell_volume 3330.419558
_symmetry_space_group_name_H-M "C 2/C"
_symmetry_group_IT_number 15
_symmetry_cell_setting 'monoclinic'
loop_
_space_group_symop_operation_xyz
x,y,z
-x,y,1/2-z
-x,-y,-z
x,-y,1/2+z
1/2+x,1/2+y,z
1/2-x,1/2+y,1/2-z
1/2-x,1/2-y,-z
1/2+x,1/2-y,1/2+z
loop_
_atom_site_type_symbol
_atom_site_label
_atom_site_fract_x
_atom_site_fract_y
_atom_site_fract_z
Si Si1 0.692467 0.702063 0.570843
Si Si2 0.960631 0.859301 0.107918
Si Si3 0.185985 0.468554 0.079048
Si Si4 0.252325 0.130755 0.915991
Si Si5 0.035976 0.450911 0.439042
Si Si6 0.490005 0.550014 0.848602
Si Si7 0.212119 0.203154 0.072954
Si Si8 0.548598 0.151512 0.966873
O O1 0.500000 0.704680 0.750000
O O2 0.750000 0.750000 0.500000
O O3 0.616337 0.676814 0.542780
O O4 0.870843 0.675144 0.505670
O O5 0.884368 0.853943 0.069857
O O6 0.070657 0.906188 0.064411
O O7 0.750012 0.853888 0.287875
O O8 0.285301 0.423446 0.053429
O O9 0.000000 0.484418 0.250000
O O10 0.088353 0.449990 0.061610
O O11 0.346367 0.507665 0.957792
O O12 0.500000 0.136083 0.750000
O O13 0.194834 0.161192 0.024266
O O14 0.276078 0.454969 0.272069
O O15 0.986596 0.402736 0.513303
O O16 0.000000 0.500000 0.500000
O O17 0.500000 0.558332 0.750000
O O18 0.000000 0.209824 0.250000
O O19 0.250000 0.250000 0.000000
O O20 0.386811 0.184516 0.023679
#
# Coordination Sequence:
#
# PCOD9284379 Si02
#       8
#     8   8   8   8   8   8   8   8
#     4  10  23  41  66  90 120 162 208 259 316 378
#     4  10  21  40  70  91 122 169 219 258 322 382
#     4  11  23  38  61  94 134 166 212 270 331 381
#     4  11  21  43  67  90 128 168 210 271 325 382
#     4  11  21  38  65  94 124 171 214 271 314 375
#     4  11  21  38  65  91 124 174 223 252 317 395
#     4  12  27  42  67  99 129 167 215 266 333 388
#     4  10  21  43  66  93 129 165 218 262 315 390
#
# _framework density 19.216797
#
# number of rings (size 3 to 8) (size 9 to 14) (size 15 to 20)
#    0.000    1.250    3.750    4.500    1.750    4.500 
#    0.000    0.625    0.000    0.000    0.000    0.000 
#    0.000    0.000    0.000    0.000    0.000    0.000 
#
# Total GULP energy -178347.279742 kJ/mol
# GULP energy per Si atom -5573.352492 kJ/mol
# Density = 1.917306 g / cm^3
# Si number density = 19.216797 Si / 1000 Ang^3
#
#
#
# Elastic Constant Matrix: (Units=GPa)
#
#
# Indices 1 2 3 4 5 6 
#
# 1 157.2906 67.5581 32.9091 -0.0030 -16.4457 -0.0008
# 2 67.5581 123.9721 52.6427 -0.0013 -20.7505 -0.0009
# 3 32.9091 52.6427 53.8633 -0.0069 -5.1916 -0.0026
# 4 -0.0030 -0.0013 -0.0069 17.9301 0.0050 -0.4483
# 5 -16.4457 -20.7505 -5.1916 0.0050 23.6707 0.0014
# 6 -0.0008 -0.0009 -0.0026 -0.4483 0.0014 26.6770
#
#
#
# Elastic Compliance Matrix: (Units=1/GPa)
#
#
# Indices 1 2 3 4 5 6 
#
# 1 0.008452 -0.003606 -0.001408 0.000000 0.002402 0.000000
# 2 -0.003606 0.017689 -0.014131 -0.000008 0.009902 -0.000002
# 3 -0.001408 -0.014131 0.032638 0.000013 -0.006208 0.000003
# 4 0.000000 -0.000008 0.000013 0.055796 -0.000016 0.000938
# 5 0.002402 0.009902 -0.006208 -0.000016 0.051235 -0.000003
# 6 0.000000 -0.000002 0.000003 0.000938 -0.000003 0.037501
#
#
# Mechanical properties :
#
#
# Convention : Reuss Voigt Hill
#
# Bulk Modulus (GPa) = 48.80521 71.26066 60.03294
# Shear Modulus (GPa) = 20.12625 25.78996 22.95810
#
# Velocity S-wave (km/s) = 3.23975 3.66738 3.46018
# Velocity P-wave (km/s) = 6.28068 7.42266 6.87542
#
# Compressibility (1/GPa) = 0.02048961
#
# Stress axis : x y z
#
# Youngs Moduli (GPa) = 118.31123 56.53154 30.63875
#
# Poissons Ratio (x) = 0.20384 0.04315
# Poissons Ratio (y) = 0.42661 0.43295
# Poissons Ratio (z) = 0.16663 0.79884
#
# Static dielectric constant tensor:
#      x y z
#    x 1.701040 0.000000 0.012700 
#    y 0.000000 1.680070 0.000000 
#    z 0.012700 0.000000 1.677240 
# 
# From -- ./inp_files/201451.got.cif
#   From: 2010.05.17/outbox.cif.g08.bks.cpg/sg15_101_cif.got.tgz:201451.got - 2010.06.03 18:47:42.
