data_PCOD9284845
_publ_section_title
;
Structure prediction by ZEFSAII (Michael W. Deem and Ramdas Pophale) SiO2 
 PCOD9284845
Probable space group: C 2/C
;
_chemical_formula_sum "Si O2"
_cell_formula_units_Z 56
_cell_length_a 23.143567
_cell_length_b 19.333301
_cell_length_c 12.201211
_cell_angle_alpha 90.000000
_cell_angle_beta 24.315891
_cell_angle_gamma 90.000000
_cell_volume 2247.972070
_symmetry_space_group_name_H-M "C 2/C"
_symmetry_group_IT_number 15
_symmetry_cell_setting 'monoclinic'
loop_
_space_group_symop_operation_xyz
x,y,z
-x,y,1/2-z
-x,-y,-z
x,-y,1/2+z
1/2+x,1/2+y,z
1/2-x,1/2+y,1/2-z
1/2-x,1/2-y,-z
1/2+x,1/2-y,1/2+z
loop_
_atom_site_type_symbol
_atom_site_label
_atom_site_fract_x
_atom_site_fract_y
_atom_site_fract_z
Si Si1 0.609686 0.897975 0.797152
Si Si2 0.841775 0.463084 0.382846
Si Si3 0.790167 0.054919 0.176840
Si Si4 0.979338 0.165828 0.910641
Si Si5 0.046207 0.252256 0.974658
Si Si6 0.660239 0.410759 0.508790
Si Si7 0.288274 0.742994 0.588063
O O1 0.742166 0.905984 0.650459
O O2 0.639698 0.953724 0.650681
O O3 0.475047 0.930491 0.092366
O O4 0.573478 0.817956 0.848858
O O5 0.825969 0.433743 0.530513
O O6 0.702705 0.441097 0.554501
O O7 0.934164 0.086452 0.973687
O O8 0.797450 0.974089 0.141366
O O9 0.843538 0.207345 0.189301
O O10 0.077656 0.185719 0.842683
O O11 0.000000 0.191376 0.750000
O O12 0.899076 0.255552 0.297879
O O13 0.148616 0.256229 0.900993
O O14 0.500000 0.394224 0.750000
O O15 0.742047 0.338879 0.360215
#
# Coordination Sequence:
#
# PCOD9284845 Si02
#       7
#     8   8   8   8   8   8   8
#     4  10  21  41  65 103 127 165 226 279 331 398
#     4  10  22  38  67  94 131 173 214 279 337 386
#     4  11  23  41  65  93 133 180 218 265 337 409
#     4  12  26  43  65 100 138 179 222 283 349 403
#     4  11  22  42  72  95 132 174 231 283 332 405
#     4  11  23  42  60  95 129 164 231 267 321 406
#     4  11  23  43  68  99 125 181 229 280 337 400
#
# _framework density 24.911341
#
# number of rings (size 3 to 8) (size 9 to 14) (size 15 to 20)
#    0.000    1.143    2.857    3.857    2.000    2.286 
#    5.143    0.000    0.000    0.000    0.000    0.000 
#    0.000    0.000    0.000    0.000    0.000    0.000 
#
# Total GULP energy -156459.581971 kJ/mol
# GULP energy per Si atom -5587.842213 kJ/mol
# Density = 2.485464 g / cm^3
# Si number density = 24.911341 Si / 1000 Ang^3
#
#
#
# Elastic Constant Matrix: (Units=GPa)
#
#
# Indices 1 2 3 4 5 6 
#
# 1 65.7157 -14.9969 13.9752 -0.0002 3.9339 -0.0003
# 2 -14.9969 125.4142 -4.7703 -0.0008 3.4671 0.0001
# 3 13.9752 -4.7703 35.7599 -0.0022 8.7223 0.0002
# 4 -0.0002 -0.0008 -0.0022 22.7681 0.0012 0.7075
# 5 3.9339 3.4671 8.7223 0.0012 35.1308 0.0000
# 6 -0.0003 0.0001 0.0002 0.7075 0.0000 25.0198
#
#
#
# Elastic Compliance Matrix: (Units=1/GPa)
#
#
# Indices 1 2 3 4 5 6 
#
# 1 0.016995 0.001808 -0.006273 0.000000 -0.000524 0.000000
# 2 0.001808 0.008249 0.000683 0.000000 -0.001186 0.000000
# 3 -0.006273 0.000683 0.032308 0.000003 -0.007387 0.000000
# 4 0.000000 0.000000 0.000003 0.043960 -0.000002 -0.001243
# 5 -0.000524 -0.001186 -0.007387 -0.000002 0.030475 0.000000
# 6 0.000000 0.000000 0.000000 -0.001243 0.000000 0.040004
#
#
# Mechanical properties :
#
#
# Convention : Reuss Voigt Hill
#
# Bulk Modulus (GPa) = 20.00443 23.92287 21.96365
# Shear Modulus (GPa) = 25.48208 32.09585 28.78896
#
# Velocity S-wave (km/s) = 3.20177 3.59333 3.40318
# Velocity P-wave (km/s) = 4.66005 5.18074 4.92728
#
# Compressibility (1/GPa) = 0.04998892
#
# Stress axis : x y z
#
# Youngs Moduli (GPa) = 58.84067 121.23320 30.95164
#
# Poissons Ratio (x) = -0.21921 0.19415
# Poissons Ratio (y) = -0.10639 -0.02114
# Poissons Ratio (z) = 0.36909 -0.08280
#
# Static dielectric constant tensor:
#      x y z
#    x 2.030800 0.000000 -0.081700 
#    y 0.000000 2.006560 0.000000 
#    z -0.081700 0.000000 2.009930 
# 
# From -- ./inp_files/119791.got.cif
#   From: 2010.05.17/outbox.cif.g08.bks.cpg/sg15_60_cif.got.tgz:119791.got - 2010.06.03 18:47:42.
