data_PCOD9284333
_publ_section_title
;
Structure prediction by ZEFSAII (Michael W. Deem and Ramdas Pophale) SiO2 
 PCOD9284333
Probable space group: C 2/C
;
_chemical_formula_sum "Si O2"
_cell_formula_units_Z 48
_cell_length_a 9.085135
_cell_length_b 18.801291
_cell_length_c 14.836211
_cell_angle_alpha 90.000000
_cell_angle_beta 80.818412
_cell_angle_gamma 90.000000
_cell_volume 2501.737541
_symmetry_space_group_name_H-M "C 2/C"
_symmetry_group_IT_number 15
_symmetry_cell_setting 'monoclinic'
loop_
_space_group_symop_operation_xyz
x,y,z
-x,y,1/2-z
-x,-y,-z
x,-y,1/2+z
1/2+x,1/2+y,z
1/2-x,1/2+y,1/2-z
1/2-x,1/2-y,-z
1/2+x,1/2-y,1/2+z
loop_
_atom_site_type_symbol
_atom_site_label
_atom_site_fract_x
_atom_site_fract_y
_atom_site_fract_z
Si Si1 0.628061 0.033151 0.047716
Si Si2 0.046138 0.340271 0.847945
Si Si3 0.318335 0.732646 0.895465
Si Si4 0.143870 0.065622 0.626420
Si Si5 0.338897 0.337471 0.732227
Si Si6 0.319833 0.501294 0.686669
O O1 0.553222 0.107488 0.083417
O O2 0.682953 0.991380 0.131094
O O3 0.773495 0.041085 0.971721
O O4 0.500000 0.000000 0.000000
O O5 0.223339 0.345389 0.827041
O O6 0.000000 0.358639 0.750000
O O7 0.987222 0.262068 0.875088
O O8 0.325707 0.649835 0.871571
O O9 0.229049 0.780188 0.830770
O O10 0.250000 0.750000 0.000000
O O11 0.211142 0.027667 0.708797
O O12 0.969751 0.043157 0.642899
O O13 0.500000 0.315104 0.750000
O O14 0.351551 0.416269 0.687525
#
# Coordination Sequence:
#
# PCOD9284333 Si02
#       6
#     8   8   8   8   8   8
#     4  12  24  40  66 100 135 175 226 287 343 408
#     4  10  21  40  69  85 131 180 222 261 341 403
#     4  11  22  44  66  97 134 180 221 280 348 416
#     4  11  24  41  70  99 137 175 229 284 345 402
#     4  11  22  42  71  93 129 181 234 271 346 418
#     4  11  23  43  68  99 135 179 228 285 336 414
#
# _framework density 19.186665000000001
#
# number of rings (size 3 to 8) (size 9 to 14) (size 15 to 20)
#    0.000    1.000    6.667    1.500    7.000    0.000 
#    3.000    0.833    0.000    0.000    0.000    0.000 
#    0.000    0.000    0.000    0.000    0.000    0.000 
#
# Total GULP energy -133900.341054 kJ/mol
# GULP energy per Si atom -5579.180877 kJ/mol
# Density = 1.914300 g / cm^3
# Si number density = 19.186665 Si / 1000 Ang^3
#
#
#
# Elastic Constant Matrix: (Units=GPa)
#
#
# Indices 1 2 3 4 5 6 
#
# 1 104.3813 16.8944 28.7556 0.0000 3.1864 0.0000
# 2 16.8944 106.4766 21.6166 0.0000 12.9615 0.0000
# 3 28.7556 21.6166 71.7508 0.0000 -0.5704 0.0000
# 4 0.0000 0.0000 0.0000 31.2923 0.0000 -7.1015
# 5 3.1864 12.9615 -0.5704 0.0000 40.1273 0.0000
# 6 0.0000 0.0000 0.0000 -7.1015 0.0000 24.0796
#
#
#
# Elastic Compliance Matrix: (Units=1/GPa)
#
#
# Indices 1 2 3 4 5 6 
#
# 1 0.010865 -0.000808 -0.004116 0.000000 -0.000660 0.000000
# 2 -0.000808 0.010513 -0.002870 0.000000 -0.003373 0.000000
# 3 -0.004116 -0.002870 0.016463 0.000000 0.001488 0.000000
# 4 0.000000 0.000000 0.000000 0.034249 0.000000 0.010101
# 5 -0.000660 -0.003373 0.001488 0.000000 0.026084 0.000000
# 6 0.000000 0.000000 0.000000 0.010101 0.000000 0.044508
#
#
# Mechanical properties :
#
#
# Convention : Reuss Voigt Hill
#
# Bulk Modulus (GPa) = 44.93844 46.34909 45.64377
# Shear Modulus (GPa) = 30.17705 33.45598 31.81652
#
# Velocity S-wave (km/s) = 3.97017 4.18031 4.07659
# Velocity P-wave (km/s) = 6.67000 6.89270 6.78227
#
# Compressibility (1/GPa) = 0.02225266
#
# Stress axis : x y z
#
# Youngs Moduli (GPa) = 92.03733 95.11846 60.74071
#
# Poissons Ratio (x) = 0.07685 0.25003
# Poissons Ratio (y) = 0.07436 0.17435
# Poissons Ratio (z) = 0.37885 0.27303
#
# Static dielectric constant tensor:
#      x y z
#    x 1.711070 0.000000 -0.011090 
#    y 0.000000 1.704820 0.000000 
#    z -0.011090 0.000000 1.699850 
# 
# From -- ./inp_files/134830.got.cif
#   From: 2010.05.17/outbox.cif.g08.bks.cpg/sg15_68_cif.got.tgz:134830.got - 2010.06.03 18:47:42.
