data_PCOD9284992
_publ_section_title
;
Structure prediction by ZEFSAII (Michael W. Deem and Ramdas Pophale) SiO2 
 PCOD9284992
Probable space group: C 2/C
;
_chemical_formula_sum "Si O2"
_cell_formula_units_Z 48
_cell_length_a 16.354564
_cell_length_b 8.300155
_cell_length_c 16.328546
_cell_angle_alpha 90.000000
_cell_angle_beta 66.581619
_cell_angle_gamma 90.000000
_cell_volume 2033.943812
_symmetry_space_group_name_H-M "C 2/C"
_symmetry_group_IT_number 15
_symmetry_cell_setting 'monoclinic'
loop_
_space_group_symop_operation_xyz
x,y,z
-x,y,1/2-z
-x,-y,-z
x,-y,1/2+z
1/2+x,1/2+y,z
1/2-x,1/2+y,1/2-z
1/2-x,1/2-y,-z
1/2+x,1/2-y,1/2+z
loop_
_atom_site_type_symbol
_atom_site_label
_atom_site_fract_x
_atom_site_fract_y
_atom_site_fract_z
Si Si1 0.809852 0.577912 0.547411
Si Si2 0.810421 0.062937 0.664093
Si Si3 0.976855 0.902363 0.663726
Si Si4 0.648084 0.915624 0.796173
Si Si5 0.365163 0.566421 0.979681
Si Si6 0.523931 0.048039 0.584576
O O1 0.824324 0.505321 0.630681
O O2 0.707638 0.560103 0.562921
O O3 0.844961 0.761341 0.529234
O O4 0.871635 0.488573 0.455696
O O5 0.824690 0.231846 0.702931
O O6 0.873994 0.938778 0.687298
O O7 0.709410 0.000939 0.704874
O O8 0.845757 0.065383 0.557225
O O9 0.000000 0.901537 0.750000
O O10 0.003291 0.731510 0.614210
O O11 0.036890 0.037519 0.594384
O O12 0.542296 0.942842 0.832688
O O13 0.500000 0.000000 0.500000
#
# Coordination Sequence:
#
# PCOD9284992 Si02
#       6
#     8   8   8   8   8   8
#     4  10  22  41  64  94 129 166 214 265 318 382
#     4  12  24  41  66  92 128 172 214 266 324 385
#     4  12  26  43  66  97 131 169 218 271 324 385
#     4  11  23  41  64  93 128 166 214 267 320 381
#     4  11  23  41  66  93 128 172 213 262 323 384
#     4  10  21  41  66  92 128 170 215 264 318 383
#
# _framework density 23.599471999999999
#
# number of rings (size 3 to 8) (size 9 to 14) (size 15 to 20)
#    0.000    1.000    0.000    8.500    0.000    6.667 
#    0.000    1.667    0.000    0.000    0.000    0.000 
#    0.000    0.000    0.000    0.000    0.000    0.000 
#
# Total GULP energy -134363.365511 kJ/mol
# GULP energy per Si atom -5598.473563 kJ/mol
# Density = 2.354576 g / cm^3
# Si number density = 23.599472 Si / 1000 Ang^3
#
#
#
# Elastic Constant Matrix: (Units=GPa)
#
#
# Indices 1 2 3 4 5 6 
#
# 1 39.3667 -9.6027 20.6136 0.0000 -0.8591 0.0000
# 2 -9.6027 75.8753 0.6193 0.0000 -6.9213 0.0000
# 3 20.6136 0.6193 92.4723 0.0000 -8.0020 0.0000
# 4 0.0000 0.0000 0.0000 33.3753 0.0000 -10.5853
# 5 -0.8591 -6.9213 -8.0020 0.0000 43.8816 0.0000
# 6 0.0000 0.0000 0.0000 -10.5853 0.0000 14.5742
#
#
#
# Elastic Compliance Matrix: (Units=1/GPa)
#
#
# Indices 1 2 3 4 5 6 
#
# 1 0.029832 0.003827 -0.006678 0.000000 -0.000030 0.000000
# 2 0.003827 0.013864 -0.000762 0.000000 0.002123 0.000000
# 3 -0.006678 -0.000762 0.012483 0.000000 0.002025 0.000000
# 4 0.000000 0.000000 0.000000 0.038930 0.000000 0.028275
# 5 -0.000030 0.002123 0.002025 0.000000 0.023492 0.000000
# 6 0.000000 0.000000 0.000000 0.028275 0.000000 0.089151
#
#
# Mechanical properties :
#
#
# Convention : Reuss Voigt Hill
#
# Bulk Modulus (GPa) = 20.42808 25.66384 23.04596
# Shear Modulus (GPa) = 21.61732 31.43849 26.52791
#
# Velocity S-wave (km/s) = 3.02985 3.65385 3.35638
# Velocity P-wave (km/s) = 4.57328 5.35716 4.98067
#
# Compressibility (1/GPa) = 0.04895222
#
# Stress axis : x y z
#
# Youngs Moduli (GPa) = 33.52104 72.13062 80.10822
#
# Poissons Ratio (x) = -0.27606 0.53498
# Poissons Ratio (y) = -0.12829 0.06107
# Poissons Ratio (z) = 0.22386 0.05499
#
# Static dielectric constant tensor:
#      x y z
#    x 1.892110 0.000000 -0.022810 
#    y 0.000000 1.885190 0.000000 
#    z -0.022810 0.000000 1.887850 
# 
# From -- ./inp_files/208931.got.cif
#   From: 2010.05.17/outbox.cif.g08.bks.cpg/sg15_105_cif.got.tgz:208931.got - 2010.06.03 18:47:42.
