data_PCOD9284548
_publ_section_title
;
Structure prediction by ZEFSAII (Michael W. Deem and Ramdas Pophale) SiO2 
 PCOD9284548
Probable space group: C 2/C
;
_chemical_formula_sum "Si O2"
_cell_formula_units_Z 60
_cell_length_a 13.064873
_cell_length_b 16.390917
_cell_length_c 14.084387
_cell_angle_alpha 90.000000
_cell_angle_beta 116.187522
_cell_angle_gamma 90.000000
_cell_volume 2706.515001
_symmetry_space_group_name_H-M "C 2/C"
_symmetry_group_IT_number 15
_symmetry_cell_setting 'monoclinic'
loop_
_space_group_symop_operation_xyz
x,y,z
-x,y,1/2-z
-x,-y,-z
x,-y,1/2+z
1/2+x,1/2+y,z
1/2-x,1/2+y,1/2-z
1/2-x,1/2-y,-z
1/2+x,1/2-y,1/2+z
loop_
_atom_site_type_symbol
_atom_site_label
_atom_site_fract_x
_atom_site_fract_y
_atom_site_fract_z
Si Si1 0.500000 0.353962 0.750000
Si Si2 0.135579 0.306642 0.641224
Si Si3 0.813692 0.058481 0.286537
Si Si4 0.179634 0.550876 0.600067
Si Si5 0.775127 0.857443 0.959297
Si Si6 0.063558 0.403832 0.436222
Si Si7 0.073482 0.236342 0.855620
Si Si8 0.186501 0.279776 0.379416
O O1 0.562977 0.409617 0.697430
O O2 0.404744 0.291604 0.674212
O O3 0.219947 0.377668 0.707489
O O4 0.079329 0.331992 0.519023
O O5 0.216052 0.227598 0.661294
O O6 0.027264 0.299332 0.662875
O O7 0.796743 0.070511 0.392539
O O8 0.776819 0.978502 0.212982
O O9 0.224595 0.614824 0.540616
O O10 0.131325 0.479330 0.510336
O O11 0.069926 0.576435 0.617588
O O12 0.687912 0.789057 0.881813
O O13 0.892794 0.814445 0.037406
O O14 0.124318 0.365938 0.369064
O O15 0.000000 0.183344 0.750000
O O16 0.250000 0.250000 0.500000
#
# Coordination Sequence:
#
# PCOD9284548 Si02
#       8
#     4   8   8   8   8   8   8   8
#     4  10  22  40  64  90 128 166 214 274 330 388
#     4   9  17  36  62  94 125 160 207 270 335 380
#     4  10  22  41  66  92 127 176 214 266 337 399
#     4  10  21  41  61  90 133 171 224 261 321 399
#     4  11  24  40  68  95 128 181 215 268 342 386
#     4   9  18  35  62  88 124 167 205 278 317 379
#     4  11  22  39  66  99 134 160 219 279 323 406
#     4   9  19  34  61  92 123 159 209 267 328 384
#
# _framework density 22.16873
#
# number of rings (size 3 to 8) (size 9 to 14) (size 15 to 20)
#    0.000    2.133    2.667    0.800    3.733    0.000 
#    3.600    0.667    0.000    0.000    0.000    0.000 
#    0.000    0.000    0.000    0.000    0.000    0.000 
#
# Total GULP energy -167010.209444 kJ/mol
# GULP energy per Si atom -5567.006981 kJ/mol
# Density = 2.211827 g / cm^3
# Si number density = 22.168730 Si / 1000 Ang^3
#
#
#
# Elastic Constant Matrix: (Units=GPa)
#
#
# Indices 1 2 3 4 5 6 
#
# 1 93.0919 25.1255 22.8470 0.0000 6.1655 0.0000
# 2 25.1255 50.1760 12.5656 0.0000 -2.3605 0.0000
# 3 22.8470 12.5656 96.7451 0.0000 14.2710 0.0000
# 4 0.0000 0.0000 0.0000 26.2393 0.0000 -9.0741
# 5 6.1655 -2.3605 14.2710 0.0000 29.8291 0.0000
# 6 0.0000 0.0000 0.0000 -9.0741 0.0000 20.7793
#
#
#
# Elastic Compliance Matrix: (Units=1/GPa)
#
#
# Indices 1 2 3 4 5 6 
#
# 1 0.013026 -0.006141 -0.001947 0.000000 -0.002247 0.000000
# 2 -0.006141 0.023770 -0.002261 0.000000 0.004232 0.000000
# 3 -0.001947 -0.002261 0.011897 0.000000 -0.005468 0.000000
# 4 0.000000 0.000000 0.000000 0.044890 0.000000 0.019603
# 5 -0.002247 0.004232 -0.005468 0.000000 0.036940 0.000000
# 6 0.000000 0.000000 0.000000 0.019603 0.000000 0.056685
#
#
# Mechanical properties :
#
#
# Convention : Reuss Voigt Hill
#
# Bulk Modulus (GPa) = 35.72191 40.12104 37.92148
# Shear Modulus (GPa) = 23.01616 27.33451 25.17534
#
# Velocity S-wave (km/s) = 3.22565 3.51525 3.37356
# Velocity P-wave (km/s) = 5.47921 5.88331 5.68485
#
# Compressibility (1/GPa) = 0.02799402
#
# Stress axis : x y z
#
# Youngs Moduli (GPa) = 76.76837 42.06922 84.05742
#
# Poissons Ratio (x) = 0.25834 0.16368
# Poissons Ratio (y) = 0.47143 0.19009
# Poissons Ratio (z) = 0.14948 0.09514
#
# Static dielectric constant tensor:
#      x y z
#    x 1.883630 0.000000 -0.117270 
#    y 0.000000 1.860010 0.000000 
#    z -0.117270 0.000000 1.986450 
# 
# From -- ./inp_files/146133.got.cif
#   From: 2010.05.17/outbox.cif.g08.bks.cpg/sg15_74_cif.got.tgz:146133.got - 2010.06.03 18:47:42.
