data_PCOD9284215
_publ_section_title
;
Structure prediction by ZEFSAII (Michael W. Deem and Ramdas Pophale) SiO2 
 PCOD9284215
Probable space group: C 2/C
;
_chemical_formula_sum "Si O2"
_cell_formula_units_Z 60
_cell_length_a 32.878624
_cell_length_b 15.710537
_cell_length_c 13.744884
_cell_angle_alpha 90.000000
_cell_angle_beta 158.667927
_cell_angle_gamma 90.000000
_cell_volume 2582.711308
_symmetry_space_group_name_H-M "C 2/C"
_symmetry_group_IT_number 15
_symmetry_cell_setting 'monoclinic'
loop_
_space_group_symop_operation_xyz
x,y,z
-x,y,1/2-z
-x,-y,-z
x,-y,1/2+z
1/2+x,1/2+y,z
1/2-x,1/2+y,1/2-z
1/2-x,1/2-y,-z
1/2+x,1/2-y,1/2+z
loop_
_atom_site_type_symbol
_atom_site_label
_atom_site_fract_x
_atom_site_fract_y
_atom_site_fract_z
Si Si1 0.343759 0.308952 0.154269
Si Si2 0.000000 0.031916 0.750000
Si Si3 0.411519 0.908652 0.309007
Si Si4 0.009872 0.723654 0.158469
Si Si5 0.970135 0.702008 0.579739
Si Si6 0.848886 0.129034 0.264713
Si Si7 0.349719 0.503082 0.095331
Si Si8 0.604698 0.030679 0.056545
O O1 0.377284 0.270216 0.123917
O O2 0.445396 0.276385 0.450110
O O3 0.348741 0.410508 0.148571
O O4 0.250000 0.250000 0.000000
O O5 0.069045 0.989621 0.816019
O O6 0.906070 0.087378 0.486442
O O7 0.497899 0.863008 0.574150
O O8 0.446376 0.868042 0.282399
O O9 0.408002 0.000075 0.358074
O O10 0.283555 0.878108 0.029060
O O11 0.000000 0.711375 0.250000
O O12 0.903536 0.778789 0.886402
O O13 0.873763 0.632719 0.391660
O O14 0.000000 0.739508 0.750000
O O15 0.882996 0.073170 0.247970
O O16 0.218633 0.513570 0.773795
O O17 0.500000 0.013629 0.750000
#
# Coordination Sequence:
#
# PCOD9284215 Si02
#       8
#     8   4   8   8   8   8   8   8
#     4  11  22  41  63  93 130 172 216 267 324 386
#     4  12  24  42  70  94 128 176 216 264 324 394
#     4  10  23  39  65  96 130 167 215 278 327 378
#     4  11  22  42  68  93 130 175 220 269 325 391
#     4  10  22  38  61  91 130 170 213 266 324 390
#     4  11  23  42  67  93 129 168 221 267 322 390
#     4  11  24  44  68  97 130 173 217 269 325 388
#     4  10  21  40  67  98 131 162 218 266 329 393
#
# _framework density 23.231400000000001
#
# number of rings (size 3 to 8) (size 9 to 14) (size 15 to 20)
#    0.000    1.333    3.333    1.600    3.733    1.067 
#    1.200    2.667    0.000    0.000    0.000    0.000 
#    0.000    0.000    0.000    0.000    0.000    0.000 
#
# Total GULP energy -167095.710598 kJ/mol
# GULP energy per Si atom -5569.857020 kJ/mol
# Density = 2.317852 g / cm^3
# Si number density = 23.231400 Si / 1000 Ang^3
#
#
#
# Elastic Constant Matrix: (Units=GPa)
#
#
# Indices 1 2 3 4 5 6 
#
# 1 144.5403 9.7909 26.4982 0.0000 -20.3729 0.0000
# 2 9.7909 59.2605 16.4375 0.0000 -20.2879 0.0000
# 3 26.4982 16.4375 70.5436 0.0000 -1.5656 0.0000
# 4 0.0000 0.0000 0.0000 21.0729 0.0000 -8.4917
# 5 -20.3729 -20.2879 -1.5656 0.0000 14.6893 0.0000
# 6 0.0000 0.0000 0.0000 -8.4917 0.0000 14.7912
#
#
#
# Elastic Compliance Matrix: (Units=1/GPa)
#
#
# Indices 1 2 3 4 5 6 
#
# 1 0.011267 0.009254 -0.005772 0.000000 0.027793 0.000000
# 2 0.009254 0.042881 -0.011897 0.000000 0.070791 0.000000
# 3 -0.005772 -0.011897 0.018618 0.000000 -0.022452 0.000000
# 4 0.000000 0.000000 0.000000 0.061737 0.000000 0.035443
# 5 0.027793 0.070791 -0.022452 0.000000 0.202002 0.000000
# 6 0.000000 0.000000 0.000000 0.035443 0.000000 0.087956
#
#
# Mechanical properties :
#
#
# Convention : Reuss Voigt Hill
#
# Bulk Modulus (GPa) = 17.87731 42.19971 30.03851
# Shear Modulus (GPa) = 10.87111 24.88520 17.87816
#
# Velocity S-wave (km/s) = 2.16556 3.27645 2.77712
# Velocity P-wave (km/s) = 3.73696 5.70245 4.82093
#
# Compressibility (1/GPa) = 0.05593683
#
# Stress axis : x y z
#
# Youngs Moduli (GPa) = 88.75381 23.32034 53.71274
#
# Poissons Ratio (x) = -0.21581 0.31002
# Poissons Ratio (y) = -0.82136 0.63902
# Poissons Ratio (z) = 0.51227 0.27744
#
# Static dielectric constant tensor:
#      x y z
#    x 1.960520 0.000000 0.066940 
#    y 0.000000 1.943900 0.000000 
#    z 0.066940 0.000000 1.987780 
# 
# From -- ./inp_files/124023.got.cif
#   From: 2010.05.17/outbox.cif.g08.bks.cpg/sg15_63_cif.got.tgz:124023.got - 2010.06.03 18:47:42.
