data_PCOD9284034
_publ_section_title
;
Structure prediction by ZEFSAII (Michael W. Deem and Ramdas Pophale) SiO2 
 PCOD9284034
Probable space group: C 2/C
;
_chemical_formula_sum "Si O2"
_cell_formula_units_Z 64
_cell_length_a 17.872764
_cell_length_b 8.262141
_cell_length_c 18.811562
_cell_angle_alpha 90.000000
_cell_angle_beta 86.655191
_cell_angle_gamma 90.000000
_cell_volume 2773.120406
_symmetry_space_group_name_H-M "C 2/C"
_symmetry_group_IT_number 15
_symmetry_cell_setting 'monoclinic'
loop_
_space_group_symop_operation_xyz
x,y,z
-x,y,1/2-z
-x,-y,-z
x,-y,1/2+z
1/2+x,1/2+y,z
1/2-x,1/2+y,1/2-z
1/2-x,1/2-y,-z
1/2+x,1/2-y,1/2+z
loop_
_atom_site_type_symbol
_atom_site_label
_atom_site_fract_x
_atom_site_fract_y
_atom_site_fract_z
Si Si1 0.924710 0.910153 0.227265
Si Si2 0.987359 0.234323 0.147139
Si Si3 0.758984 0.567439 0.077968
Si Si4 0.354449 0.320172 0.816172
Si Si5 0.830989 0.873298 0.530077
Si Si6 0.674984 0.819233 0.328642
Si Si7 0.525525 0.185838 0.007844
Si Si8 0.610413 0.298688 0.412964
O O1 0.875620 0.817640 0.172135
O O2 0.000000 0.823035 0.250000
O O3 0.957301 0.066089 0.181474
O O4 0.878823 0.996230 0.292844
O O5 0.915064 0.349273 0.159210
O O6 0.066041 0.271880 0.179020
O O7 0.001570 0.225911 0.062777
O O8 0.691336 0.680149 0.108527
O O9 0.731862 0.439971 0.020180
O O10 0.780969 0.474487 0.148996
O O11 0.832088 0.671121 0.055900
O O12 0.312471 0.245552 0.750738
O O13 0.806870 0.808544 0.609152
O O14 0.887388 0.738707 0.493626
O O15 0.877088 0.034045 0.547109
O O16 0.475853 0.250037 0.074646
O O17 0.500000 0.000000 0.000000
#
# Coordination Sequence:
#
# PCOD9284034 Si02
#       8
#     8   8   8   8   8   8   8   8
#     4   9  19  36  65  93 120 164 224 274 323 388
#     4   9  18  40  67  89 117 171 219 256 321 398
#     4  12  27  38  64  99 139 169 220 275 345 399
#     4  10  21  40  66  91 125 171 225 264 331 404
#     4  11  23  43  65  92 131 182 220 270 337 409
#     4  10  21  42  64  90 129 172 214 276 334 385
#     4  11  23  39  65  97 133 170 223 279 337 398
#     4  12  22  40  64  97 133 170 226 274 331 413
#
# _framework density 23.078696000000001
#
# number of rings (size 3 to 8) (size 9 to 14) (size 15 to 20)
#    0.000    1.500    3.750    4.500    5.250    0.000 
#    0.000    3.750    0.000    0.000    0.000    0.000 
#    0.000    0.000    0.000    0.000    0.000    0.000 
#
# Total GULP energy -178548.761581 kJ/mol
# GULP energy per Si atom -5579.648799 kJ/mol
# Density = 2.302617 g / cm^3
# Si number density = 23.078696 Si / 1000 Ang^3
#
#
#
# Elastic Constant Matrix: (Units=GPa)
#
#
# Indices 1 2 3 4 5 6 
#
# 1 91.4698 27.4014 30.9807 0.0000 17.6162 0.0000
# 2 27.4014 57.3021 -1.2067 0.0000 9.6380 0.0000
# 3 30.9807 -1.2067 78.0666 0.0000 14.4791 0.0000
# 4 0.0000 0.0000 0.0000 14.1934 0.0000 5.3742
# 5 17.6162 9.6380 14.4791 0.0000 37.2016 0.0000
# 6 0.0000 0.0000 0.0000 5.3742 0.0000 36.1096
#
#
#
# Elastic Compliance Matrix: (Units=1/GPa)
#
#
# Indices 1 2 3 4 5 6 
#
# 1 0.015605 -0.007016 -0.005678 0.000000 -0.003362 0.000000
# 2 -0.007016 0.021515 0.003810 0.000000 -0.003734 0.000000
# 3 -0.005678 0.003810 0.015958 0.000000 -0.004509 0.000000
# 4 0.000000 0.000000 0.000000 0.074663 0.000000 -0.011112
# 5 -0.003362 -0.003734 -0.004509 0.000000 0.031195 0.000000
# 6 0.000000 0.000000 0.000000 -0.011112 0.000000 0.029347
#
#
# Mechanical properties :
#
#
# Convention : Reuss Voigt Hill
#
# Bulk Modulus (GPa) = 28.32151 37.90992 33.11572
# Shear Modulus (GPa) = 22.95459 28.81179 25.88319
#
# Velocity S-wave (km/s) = 3.15719 3.53712 3.35254
# Velocity P-wave (km/s) = 5.05854 5.75706 5.41906
#
# Compressibility (1/GPa) = 0.03530885
#
# Stress axis : x y z
#
# Youngs Moduli (GPa) = 64.08242 46.47968 62.66454
#
# Poissons Ratio (x) = 0.32611 0.35579
# Poissons Ratio (y) = 0.44962 -0.23872
# Poissons Ratio (z) = 0.36384 -0.17707
#
# Static dielectric constant tensor:
#      x y z
#    x 1.921040 0.000000 0.020720 
#    y 0.000000 1.890450 0.000000 
#    z 0.020720 0.000000 1.871170 
# 
# From -- ./inp_files/247485.got.cif
#   From: 2010.05.17/outbox.cif.g08.bks.cpg/sg15_124_cif.got.tgz:247485.got - 2010.06.03 18:47:42.
