data_PCOD9284645
_publ_section_title
;
Structure prediction by ZEFSAII (Michael W. Deem and Ramdas Pophale) SiO2 
 PCOD9284645
Probable space group: C 2/C
;
_chemical_formula_sum "Si O2"
_cell_formula_units_Z 60
_cell_length_a 21.203106
_cell_length_b 23.541979
_cell_length_c 8.467123
_cell_angle_alpha 90.000000
_cell_angle_beta 136.153751
_cell_angle_gamma 90.000000
_cell_volume 2927.787337
_symmetry_space_group_name_H-M "C 2/C"
_symmetry_group_IT_number 15
_symmetry_cell_setting 'monoclinic'
loop_
_space_group_symop_operation_xyz
x,y,z
-x,y,1/2-z
-x,-y,-z
x,-y,1/2+z
1/2+x,1/2+y,z
1/2-x,1/2+y,1/2-z
1/2-x,1/2-y,-z
1/2+x,1/2-y,1/2+z
loop_
_atom_site_type_symbol
_atom_site_label
_atom_site_fract_x
_atom_site_fract_y
_atom_site_fract_z
Si Si1 0.000000 0.546868 0.750000
Si Si2 0.220538 0.349332 0.658790
Si Si3 0.928046 0.633226 0.355256
Si Si4 0.455917 0.444019 0.841605
Si Si5 0.063652 0.718924 0.708768
Si Si6 0.070828 0.828889 0.515968
Si Si7 0.650425 0.952717 0.009423
Si Si8 0.253613 0.961732 0.992388
O O1 0.080857 0.504257 0.857585
O O2 0.972380 0.586218 0.553438
O O3 0.162622 0.347098 0.715000
O O4 0.158686 0.311570 0.427008
O O5 0.325457 0.331641 0.860751
O O6 0.226516 0.413722 0.603154
O O7 0.895467 0.603459 0.138172
O O8 0.004027 0.681165 0.480719
O O9 0.500000 0.433753 0.750000
O O10 0.460303 0.388758 0.962650
O O11 0.348389 0.454864 0.630314
O O12 0.500000 0.500000 0.000000
O O13 0.073781 0.781015 0.656210
O O14 0.000000 0.719642 0.750000
O O15 0.000000 0.814587 0.250000
O O16 0.733737 0.974973 0.053038
O O17 0.679803 0.950574 0.241748
#
# Coordination Sequence:
#
# PCOD9284645 Si02
#       8
#     4   8   8   8   8   8   8   8
#     4  12  20  36  58  88 134 164 202 236 312 370
#     4  10  21  41  63  86 121 165 203 252 313 367
#     4  11  21  38  61  89 128 169 205 248 310 373
#     4  11  24  43  66  90 119 161 208 259 315 364
#     4  10  21  42  66  87 122 163 206 253 308 371
#     4  11  25  42  65  93 122 158 209 263 309 364
#     4  12  23  33  56  92 130 165 199 247 302 381
#     4  11  22  37  57  87 124 160 206 249 306 370
#
# _framework density 20.493290999999999
#
# number of rings (size 3 to 8) (size 9 to 14) (size 15 to 20)
#    0.000    1.067    4.667    2.400    1.867    5.333 
#    0.000    2.667    0.000    0.000    0.000    0.000 
#    0.000    0.000    0.000    0.000    0.000    0.000 
#
# Total GULP energy -167695.093789 kJ/mol
# GULP energy per Si atom -5589.836460 kJ/mol
# Density = 2.044665 g / cm^3
# Si number density = 20.493291 Si / 1000 Ang^3
#
#
#
# Elastic Constant Matrix: (Units=GPa)
#
#
# Indices 1 2 3 4 5 6 
#
# 1 57.0625 5.6313 24.0600 0.0000 22.7037 0.0000
# 2 5.6313 80.2593 20.0887 0.0000 14.3399 0.0000
# 3 24.0600 20.0887 85.0204 0.0000 11.5764 0.0000
# 4 0.0000 0.0000 0.0000 18.3553 0.0000 -4.0405
# 5 22.7037 14.3399 11.5764 0.0000 32.7682 0.0000
# 6 0.0000 0.0000 0.0000 -4.0405 0.0000 24.4096
#
#
#
# Elastic Compliance Matrix: (Units=1/GPa)
#
#
# Indices 1 2 3 4 5 6 
#
# 1 0.026732 0.002734 -0.005805 0.000000 -0.017667 0.000000
# 2 0.002734 0.014325 -0.003201 0.000000 -0.007032 0.000000
# 3 -0.005805 -0.003201 0.014101 0.000000 0.000441 0.000000
# 4 0.000000 0.000000 0.000000 0.056541 0.000000 0.009359
# 5 -0.017667 -0.007032 0.000441 0.000000 0.045680 0.000000
# 6 0.000000 0.000000 0.000000 0.009359 0.000000 0.042517
#
#
# Mechanical properties :
#
#
# Convention : Reuss Voigt Hill
#
# Bulk Modulus (GPa) = 23.46673 35.76693 29.61683
# Shear Modulus (GPa) = 22.06101 26.61076 24.33588
#
# Velocity S-wave (km/s) = 3.28456 3.60739 3.44976
# Velocity P-wave (km/s) = 5.08530 5.90271 5.50918
#
# Compressibility (1/GPa) = 0.04261353
#
# Stress axis : x y z
#
# Youngs Moduli (GPa) = 37.40868 69.80571 70.91717
#
# Poissons Ratio (x) = -0.19085 0.41170
# Poissons Ratio (y) = -0.10227 0.22700
# Poissons Ratio (z) = 0.21717 0.22345
#
# Static dielectric constant tensor:
#      x y z
#    x 1.807530 0.000000 0.041890 
#    y 0.000000 1.718910 0.000000 
#    z 0.041890 0.000000 1.723150 
# 
# From -- ./inp_files/58793.got.cif
#   From: 2010.05.17/outbox.cif.g08.bks.cpg/sg15_30_cif.got.tgz:58793.got - 2010.06.03 18:47:42.
