data_PCOD9284348
_publ_section_title
;
Structure prediction by ZEFSAII (Michael W. Deem and Ramdas Pophale) SiO2 
 PCOD9284348
Probable space group: C 2/C
;
_chemical_formula_sum "Si O2"
_cell_formula_units_Z 56
_cell_length_a 26.656485
_cell_length_b 6.712479
_cell_length_c 15.865585
_cell_angle_alpha 90.000000
_cell_angle_beta 121.494650
_cell_angle_gamma 90.000000
_cell_volume 2420.653046
_symmetry_space_group_name_H-M "C 2/C"
_symmetry_group_IT_number 15
_symmetry_cell_setting 'monoclinic'
loop_
_space_group_symop_operation_xyz
x,y,z
-x,y,1/2-z
-x,-y,-z
x,-y,1/2+z
1/2+x,1/2+y,z
1/2-x,1/2+y,1/2-z
1/2-x,1/2-y,-z
1/2+x,1/2-y,1/2+z
loop_
_atom_site_type_symbol
_atom_site_label
_atom_site_fract_x
_atom_site_fract_y
_atom_site_fract_z
Si Si1 0.128079 0.126903 0.312006
Si Si2 0.755544 0.733249 0.403803
Si Si3 0.954443 0.806401 0.546705
Si Si4 0.065765 0.425844 0.144338
Si Si5 0.027111 0.170196 0.687109
Si Si6 0.849399 0.014620 0.477104
Si Si7 0.632062 0.032054 0.534154
O O1 0.190971 0.159534 0.322323
O O2 0.090423 0.319853 0.250334
O O3 0.089610 0.939660 0.250166
O O4 0.137585 0.086905 0.419992
O O5 0.750000 0.750000 0.500000
O O6 0.806419 0.578218 0.425503
O O7 0.783429 0.943294 0.397048
O O8 0.921230 0.604208 0.549532
O O9 0.014572 0.717257 0.563175
O O10 0.897762 0.917047 0.456449
O O11 0.981825 0.993035 0.622214
O O12 0.039006 0.640119 0.140390
O O13 0.115337 0.446135 0.117416
O O14 0.000000 0.247867 0.750000
O O15 0.860671 0.246914 0.494868
#
# Coordination Sequence:
#
# PCOD9284348 Si02
#       7
#     8   8   8   8   8   8   8
#     4  10  23  42  62 100 127 174 227 282 331 401
#     4   9  22  43  67  94 127 165 227 281 320 401
#     4  10  22  40  64  96 137 168 223 266 326 404
#     4  11  26  40  64 101 138 176 215 275 348 409
#     4  11  23  39  66  97 132 179 220 278 343 391
#     4  10  21  40  69  95 128 176 221 281 325 393
#     4  11  24  43  66 101 134 178 224 271 346 396
#
# _framework density 23.134252
#
# number of rings (size 3 to 8) (size 9 to 14) (size 15 to 20)
#    0.000    1.714    1.429    1.286    2.000   11.429 
#    5.143    0.000    0.000    0.000    0.000    0.000 
#    0.000    0.000    0.000    0.000    0.000    0.000 
#
# Total GULP energy -156043.845113 kJ/mol
# GULP energy per Si atom -5572.994468 kJ/mol
# Density = 2.308160 g / cm^3
# Si number density = 23.134252 Si / 1000 Ang^3
#
#
#
# Elastic Constant Matrix: (Units=GPa)
#
#
# Indices 1 2 3 4 5 6 
#
# 1 129.3065 50.6701 31.7388 0.0000 21.2889 0.0000
# 2 50.6701 127.4722 27.3284 0.0000 -4.2792 0.0000
# 3 31.7388 27.3284 53.2428 0.0000 1.3954 0.0000
# 4 0.0000 0.0000 0.0000 10.7163 0.0000 2.1451
# 5 21.2889 -4.2792 1.3954 0.0000 41.4495 0.0000
# 6 0.0000 0.0000 0.0000 2.1451 0.0000 39.0911
#
#
#
# Elastic Compliance Matrix: (Units=1/GPa)
#
#
# Indices 1 2 3 4 5 6 
#
# 1 0.011332 -0.003700 -0.004697 0.000000 -0.006044 0.000000
# 2 -0.003700 0.010070 -0.003043 0.000000 0.003042 0.000000
# 3 -0.004697 -0.003043 0.023109 0.000000 0.001320 0.000000
# 4 0.000000 0.000000 0.000000 0.094352 0.000000 -0.005177
# 5 -0.006044 0.003042 0.001320 0.000000 0.027500 0.000000
# 6 0.000000 0.000000 0.000000 -0.005177 0.000000 0.025865
#
#
# Mechanical properties :
#
#
# Convention : Reuss Voigt Hill
#
# Bulk Modulus (GPa) = 46.23124 58.83290 52.53207
# Shear Modulus (GPa) = 22.49023 31.60365 27.04694
#
# Velocity S-wave (km/s) = 3.12133 3.70009 3.42296
# Velocity P-wave (km/s) = 5.74609 6.61366 6.19508
#
# Compressibility (1/GPa) = 0.02163039
#
# Stress axis : x y z
#
# Youngs Moduli (GPa) = 88.24951 99.30369 43.27276
#
# Poissons Ratio (x) = 0.36744 0.20326
# Poissons Ratio (y) = 0.32653 0.13167
# Poissons Ratio (z) = 0.41453 0.30216
#
# Static dielectric constant tensor:
#      x y z
#    x 1.920340 0.000000 -0.027800 
#    y 0.000000 1.862940 0.000000 
#    z -0.027800 0.000000 1.939240 
# 
# From -- ./inp_files/256603.got.cif
#   From: 2010.05.17/outbox.cif.g08.bks.cpg/sg15_129_cif.got.tgz:256603.got - 2010.06.03 18:47:42.
