data_PCOD9284810
_publ_section_title
;
Structure prediction by ZEFSAII (Michael W. Deem and Ramdas Pophale) SiO2 
 PCOD9284810
Probable space group: C 2/C
;
_chemical_formula_sum "Si O2"
_cell_formula_units_Z 60
_cell_length_a 8.803135
_cell_length_b 22.050959
_cell_length_c 20.294754
_cell_angle_alpha 90.000000
_cell_angle_beta 130.587753
_cell_angle_gamma 90.000000
_cell_volume 2991.749119
_symmetry_space_group_name_H-M "C 2/C"
_symmetry_group_IT_number 15
_symmetry_cell_setting 'monoclinic'
loop_
_space_group_symop_operation_xyz
x,y,z
-x,y,1/2-z
-x,-y,-z
x,-y,1/2+z
1/2+x,1/2+y,z
1/2-x,1/2+y,1/2-z
1/2-x,1/2-y,-z
1/2+x,1/2-y,1/2+z
loop_
_atom_site_type_symbol
_atom_site_label
_atom_site_fract_x
_atom_site_fract_y
_atom_site_fract_z
Si Si1 0.073462 0.905287 0.013874
Si Si2 0.511293 0.193761 0.092053
Si Si3 0.852734 0.146261 0.268006
Si Si4 0.757914 0.489644 0.756619
Si Si5 0.814280 0.190296 0.055621
Si Si6 0.000000 0.094366 0.750000
Si Si7 0.291313 0.020972 0.113695
Si Si8 0.583413 0.665197 0.909591
O O1 0.054721 0.874320 0.080037
O O2 0.183204 0.969419 0.041700
O O3 0.195866 0.863234 0.999633
O O4 0.844478 0.919305 0.928234
O O5 0.626154 0.163019 0.185870
O O6 0.665245 0.185702 0.074833
O O7 0.482894 0.264344 0.104040
O O8 0.304410 0.166953 0.005302
O O9 0.000000 0.163106 0.250000
O O10 0.954660 0.184184 0.355432
O O11 0.866322 0.073257 0.277326
O O12 0.665663 0.546689 0.768775
O O13 0.780478 0.502516 0.685558
O O14 0.980824 0.473766 0.843904
O O15 0.750000 0.250000 0.000000
O O16 0.929260 0.135655 0.667360
#
# Coordination Sequence:
#
# PCOD9284810 Si02
#       8
#     8   8   8   8   8   4   8   8
#     4  11  21  42  63  96 131 169 216 279 332 405
#     4  10  24  44  65  91 127 173 225 270 336 400
#     4  10  21  41  64  95 127 169 215 272 328 405
#     4  11  21  42  62  96 131 175 224 270 335 408
#     4  11  22  39  68  95 128 169 217 277 338 403
#     4  12  26  42  66  98 140 182 224 288 346 402
#     4  10  23  38  65  94 129 171 220 270 338 395
#     4  11  24  45  62  92 135 173 224 282 331 409
#
# _framework density 20.055157000000001
#
# number of rings (size 3 to 8) (size 9 to 14) (size 15 to 20)
#    0.000    1.333    4.667    0.800    1.867    1.067 
#    0.000    1.333    0.000    0.000    0.000    0.000 
#    0.000    0.000    0.000    0.000    0.000    0.000 
#
# Total GULP energy -167112.380558 kJ/mol
# GULP energy per Si atom -5570.412685 kJ/mol
# Density = 2.000951 g / cm^3
# Si number density = 20.055157 Si / 1000 Ang^3
#
#
#
# Elastic Constant Matrix: (Units=GPa)
#
#
# Indices 1 2 3 4 5 6 
#
# 1 64.5503 38.0430 28.6046 0.0000 -0.7790 0.0000
# 2 38.0430 112.9570 50.9289 0.0000 2.5379 0.0000
# 3 28.6046 50.9289 90.1704 0.0000 4.3122 0.0000
# 4 0.0000 0.0000 0.0000 32.4469 0.0000 -5.9758
# 5 -0.7790 2.5379 4.3122 0.0000 29.9231 0.0000
# 6 0.0000 0.0000 0.0000 -5.9758 0.0000 32.2383
#
#
#
# Elastic Compliance Matrix: (Units=1/GPa)
#
#
# Indices 1 2 3 4 5 6 
#
# 1 0.020150 -0.005240 -0.003503 0.000000 0.001474 0.000000
# 2 -0.005240 0.013240 -0.005796 0.000000 -0.000424 0.000000
# 3 -0.003503 -0.005796 0.015563 0.000000 -0.001842 0.000000
# 4 0.000000 0.000000 0.000000 0.031909 0.000000 0.005915
# 5 0.001474 -0.000424 -0.001842 0.000000 0.033759 0.000000
# 6 0.000000 0.000000 0.000000 0.005915 0.000000 0.032115
#
#
# Mechanical properties :
#
#
# Convention : Reuss Voigt Hill
#
# Bulk Modulus (GPa) = 50.31234 55.87009 53.09121
# Shear Modulus (GPa) = 27.40633 28.92839 28.16736
#
# Velocity S-wave (km/s) = 3.70070 3.80207 3.75172
# Velocity P-wave (km/s) = 6.58799 6.86972 6.73033
#
# Compressibility (1/GPa) = 0.01987584
#
# Stress axis : x y z
#
# Youngs Moduli (GPa) = 49.62732 75.52656 64.25531
#
# Poissons Ratio (x) = 0.39577 0.22509
# Poissons Ratio (y) = 0.26005 0.37240
# Poissons Ratio (z) = 0.17385 0.43773
#
# Static dielectric constant tensor:
#      x y z
#    x 1.642700 0.000000 0.022360 
#    y 0.000000 1.695340 0.000000 
#    z 0.022360 0.000000 1.792650 
# 
# From -- ./inp_files/234106.got.cif
#   From: 2010.05.17/outbox.cif.g08.bks.cpg/sg15_118_cif.got.tgz:234106.got - 2010.06.03 18:47:42.
