data_PCOD9284567
_publ_section_title
;
Structure prediction by ZEFSAII (Michael W. Deem and Ramdas Pophale) SiO2 
 PCOD9284567
Probable space group: C 2/C
;
_chemical_formula_sum "Si O2"
_cell_formula_units_Z 52
_cell_length_a 22.905506
_cell_length_b 14.723886
_cell_length_c 8.229219
_cell_angle_alpha 90.000000
_cell_angle_beta 103.951852
_cell_angle_gamma 90.000000
_cell_volume 2693.493338
_symmetry_space_group_name_H-M "C 2/C"
_symmetry_group_IT_number 15
_symmetry_cell_setting 'monoclinic'
loop_
_space_group_symop_operation_xyz
x,y,z
-x,y,1/2-z
-x,-y,-z
x,-y,1/2+z
1/2+x,1/2+y,z
1/2-x,1/2+y,1/2-z
1/2-x,1/2-y,-z
1/2+x,1/2-y,1/2+z
loop_
_atom_site_type_symbol
_atom_site_label
_atom_site_fract_x
_atom_site_fract_y
_atom_site_fract_z
Si Si1 0.390324 0.753085 0.991427
Si Si2 0.269448 0.075994 0.878455
Si Si3 0.442385 0.567597 0.440659
Si Si4 0.295514 0.880744 0.749768
Si Si5 0.705679 0.245685 0.817749
Si Si6 0.500000 0.281455 0.750000
Si Si7 0.873992 0.910766 0.228188
O O1 0.351430 0.829551 0.872162
O O2 0.389752 0.666613 0.871071
O O3 0.355915 0.730471 0.136878
O O4 0.456582 0.774596 0.101182
O O5 0.292474 0.146691 0.759141
O O6 0.197574 0.091249 0.850390
O O7 0.280454 0.973167 0.832612
O O8 0.304136 0.096966 0.067606
O O9 0.500000 0.500000 0.500000
O O10 0.464253 0.650273 0.345421
O O11 0.392156 0.507315 0.316963
O O12 0.414017 0.598667 0.592822
O O13 0.236593 0.815908 0.716951
O O14 0.750000 0.250000 0.000000
#
# Coordination Sequence:
#
# PCOD9284567 Si02
#       7
#     8   8   8   8   8   4   8
#     4  11  25  41  62  90 133 170 226 273 324 399
#     4  12  24  40  70  97 135 177 205 278 352 392
#     4  12  23  38  59  91 135 178 224 253 316 406
#     4  11  24  40  62  97 129 171 218 268 337 405
#     4  10  21  41  61  95 132 165 217 270 328 402
#     4  12  26  42  62  88 128 190 212 282 326 376
#     4  12  23  38  62  95 135 176 210 264 329 411
#
# _framework density 19.305783999999999
#
# number of rings (size 3 to 8) (size 9 to 14) (size 15 to 20)
#    0.000    0.615    6.154    3.231    6.462    0.000 
#    0.000    0.000    0.000    3.692    0.000    0.000 
#    0.000    0.000    0.000    0.000    0.000    0.000 
#
# Total GULP energy -145226.872767 kJ/mol
# GULP energy per Si atom -5585.648953 kJ/mol
# Density = 1.926184 g / cm^3
# Si number density = 19.305784 Si / 1000 Ang^3
#
#
#
# Elastic Constant Matrix: (Units=GPa)
#
#
# Indices 1 2 3 4 5 6 
#
# 1 87.2227 34.9596 78.4330 0.0000 -7.4661 0.0000
# 2 34.9596 59.5400 4.9506 0.0000 10.8133 0.0000
# 3 78.4330 4.9506 22.5404 0.0000 42.9895 0.0000
# 4 0.0000 0.0000 0.0000 38.0872 0.0000 -1.5913
# 5 -7.4661 10.8133 42.9895 0.0000 28.5020 0.0000
# 6 0.0000 0.0000 0.0000 -1.5913 0.0000 26.8208
#
#
#
# Elastic Compliance Matrix: (Units=1/GPa)
#
#
# Indices 1 2 3 4 5 6 
#
# 1 0.003673 -0.000861 0.008020 0.000000 -0.010807 0.000000
# 2 -0.000861 0.017299 -0.006471 0.000000 0.002971 0.000000
# 3 0.008020 -0.006471 -0.004898 0.000000 0.011943 0.000000
# 4 0.000000 0.000000 0.000000 0.026321 0.000000 0.001562
# 5 -0.010807 0.002971 0.011943 0.000000 0.013114 0.000000
# 6 0.000000 0.000000 0.000000 0.001562 0.000000 0.037377
#
#
# Mechanical properties :
#
#
# Convention : Reuss Voigt Hill
#
# Bulk Modulus (GPa) = 57.30129 45.10993 51.20561
# Shear Modulus (GPa) = 51.37309 22.07933 36.72621
#
# Velocity S-wave (km/s) = 5.16410 3.38548 4.36632
# Velocity P-wave (km/s) = 8.08100 6.22083 7.21115
#
# Compressibility (1/GPa) = 0.01745161
#
# Stress axis : x y z
#
# Youngs Moduli (GPa) = 272.24298 57.80585 -204.18203
#
# Poissons Ratio (x) = 0.04976 1.63750
# Poissons Ratio (y) = 0.23434 -1.32119
# Poissons Ratio (z) = -2.18334 0.37404
#
# Static dielectric constant tensor:
#      x y z
#    x 1.912940 0.000000 0.127430 
#    y 0.000000 1.639230 0.000000 
#    z 0.127430 0.000000 1.806630 
# 
# From -- ./inp_files/55366.got.cif
#   From: 2010.05.17/outbox.cif.g08.bks.cpg/sg15_28_cif.got.tgz:55366.got - 2010.06.03 18:47:42.
