data_PCOD9284791
_publ_section_title
;
Structure prediction by ZEFSAII (Michael W. Deem and Ramdas Pophale) SiO2 
 PCOD9284791
Probable space group: C 2/C
;
_chemical_formula_sum "Si O2"
_cell_formula_units_Z 44
_cell_length_a 7.994800
_cell_length_b 12.823271
_cell_length_c 22.272470
_cell_angle_alpha 90.000000
_cell_angle_beta 54.894237
_cell_angle_gamma 90.000000
_cell_volume 1868.000068
_symmetry_space_group_name_H-M "C 2/C"
_symmetry_group_IT_number 15
_symmetry_cell_setting 'monoclinic'
loop_
_space_group_symop_operation_xyz
x,y,z
-x,y,1/2-z
-x,-y,-z
x,-y,1/2+z
1/2+x,1/2+y,z
1/2-x,1/2+y,1/2-z
1/2-x,1/2-y,-z
1/2+x,1/2-y,1/2+z
loop_
_atom_site_type_symbol
_atom_site_label
_atom_site_fract_x
_atom_site_fract_y
_atom_site_fract_z
Si Si1 0.698413 0.361154 0.778919
Si Si2 0.234384 0.853305 0.574762
Si Si3 0.500000 0.307280 0.250000
Si Si4 0.269696 0.021360 0.386275
Si Si5 0.975196 0.846469 0.011228
Si Si6 0.200609 0.518121 0.846849
O O1 0.473533 0.322621 0.845713
O O2 0.856224 0.266400 0.739533
O O3 0.775043 0.431739 0.819005
O O4 0.708610 0.434669 0.719455
O O5 0.162426 0.861479 0.520917
O O6 0.414018 0.768694 0.543953
O O7 0.300803 0.962583 0.588913
O O8 0.657762 0.380862 0.182257
O O9 0.198674 0.118251 0.443115
O O10 0.098015 0.932430 0.426341
O O11 0.474356 0.968034 0.367802
#
# Coordination Sequence:
#
# PCOD9284791 Si02
#       6
#     8   8   4   8   8   8
#     4  11  22  43  63  95 137 171 213 281 328 391
#     4  10  21  41  65  92 135 166 229 270 325 398
#     4  12  24  40  66  96 134 170 214 268 342 378
#     4  10  21  41  64  92 134 170 226 265 328 394
#     4   9  21  41  65  91 125 188 210 274 329 382
#     4  12  23  40  66 100 128 174 218 275 330 395
#
# _framework density 23.554604000000001
#
# number of rings (size 3 to 8) (size 9 to 14) (size 15 to 20)
#    0.000    1.455    3.636    1.091    0.000    2.909 
#    3.273    3.636    0.000    0.000    0.000    0.000 
#    0.000    0.000    0.000    0.000    0.000    0.000 
#
# Total GULP energy -122996.380004 kJ/mol
# GULP energy per Si atom -5590.744546 kJ/mol
# Density = 2.350099 g / cm^3
# Si number density = 23.554604 Si / 1000 Ang^3
#
#
#
# Elastic Constant Matrix: (Units=GPa)
#
#
# Indices 1 2 3 4 5 6 
#
# 1 57.3776 10.2265 11.0921 -0.0001 2.3465 0.0001
# 2 10.2265 83.5420 24.9418 0.0000 6.5085 0.0001
# 3 11.0921 24.9418 75.8888 -0.0001 -0.6449 0.0001
# 4 -0.0001 0.0000 -0.0001 25.4318 0.0001 -25.7196
# 5 2.3465 6.5085 -0.6449 0.0001 10.9729 -0.0001
# 6 0.0001 0.0001 0.0001 -25.7196 -0.0001 7.9922
#
#
#
# Elastic Compliance Matrix: (Units=1/GPa)
#
#
# Indices 1 2 3 4 5 6 
#
# 1 0.018232 -0.001302 -0.002265 0.000000 -0.003260 0.000000
# 2 -0.001302 0.014133 -0.004526 0.000000 -0.008370 0.000000
# 3 -0.002265 -0.004526 0.015030 0.000000 0.004052 0.000000
# 4 0.000000 0.000000 0.000000 -0.017441 0.000000 -0.056127
# 5 -0.003260 -0.008370 0.004052 0.000000 0.097034 0.000000
# 6 0.000000 0.000000 0.000000 -0.056127 0.000000 -0.055499
#
#
# Mechanical properties :
#
#
# Convention : Reuss Voigt Hill
#
# Bulk Modulus (GPa) = 32.04094 34.36992 33.20543
# Shear Modulus (GPa) = 50.98077 20.24924 35.61501
#
# Velocity S-wave (km/s) = 4.65732 2.93520 3.89269
# Velocity P-wave (km/s) = 6.52328 5.10984 5.85934
#
# Compressibility (1/GPa) = 0.03121007
#
# Stress axis : x y z
#
# Youngs Moduli (GPa) = 54.85012 70.75808 66.53327
#
# Poissons Ratio (x) = 0.09210 0.15067
# Poissons Ratio (y) = 0.07140 0.30111
# Poissons Ratio (z) = 0.12422 0.32023
#
# Static dielectric constant tensor:
#      x y z
#    x 1.947420 0.000000 -0.046900 
#    y 0.000000 1.887350 0.000000 
#    z -0.046900 0.000000 1.928760 
# 
# From -- ./inp_files/263439.got.cif
#   From: 2010.05.17/outbox.cif.g08.bks.cpg/sg15_132_cif.got.tgz:263439.got - 2010.06.03 18:47:42.
