data_PCOD9284913
_publ_section_title
;
Structure prediction by ZEFSAII (Michael W. Deem and Ramdas Pophale) SiO2 
 PCOD9284913
Probable space group: C 2/C
;
_chemical_formula_sum "Si O2"
_cell_formula_units_Z 32
_cell_length_a 19.322205
_cell_length_b 6.202278
_cell_length_c 15.331117
_cell_angle_alpha 90.000000
_cell_angle_beta 44.570676
_cell_angle_gamma 90.000000
_cell_volume 1289.400955
_symmetry_space_group_name_H-M "C 2/C"
_symmetry_group_IT_number 15
_symmetry_cell_setting 'monoclinic'
loop_
_space_group_symop_operation_xyz
x,y,z
-x,y,1/2-z
-x,-y,-z
x,-y,1/2+z
1/2+x,1/2+y,z
1/2-x,1/2+y,1/2-z
1/2-x,1/2-y,-z
1/2+x,1/2-y,1/2+z
loop_
_atom_site_type_symbol
_atom_site_label
_atom_site_fract_x
_atom_site_fract_y
_atom_site_fract_z
Si Si1 0.274186 0.008219 0.455584
Si Si2 0.349703 0.684709 0.286179
Si Si3 0.955985 0.444622 0.415602
Si Si4 0.075460 0.175769 0.893749
O O1 0.250000 0.250000 0.500000
O O2 0.285760 0.910408 0.347436
O O3 0.185637 0.895414 0.587822
O O4 0.379303 0.983142 0.408815
O O5 0.460542 0.769521 0.180531
O O6 0.344650 0.477218 0.226768
O O7 0.899096 0.344463 0.551246
O O8 0.012524 0.667333 0.386831
O O9 0.000000 0.000000 0.000000
#
# Coordination Sequence:
#
# PCOD9284913 Si02
#       4
#     8   8   8   8
#     4  11  24  39  63 100 137 171 225 282 344 401
#     4  10  22  41  63  93 130 173 225 273 333 405
#     4  10  21  41  65  94 133 178 217 278 337 404
#     4   9  20  41  65  90 126 172 227 262 335 408
#
# _framework density 24.817726
#
# number of rings (size 3 to 8) (size 9 to 14) (size 15 to 20)
#    0.000    2.000    0.000    2.250    0.000   10.000 
#   13.500    0.000    0.000    0.000    0.000    0.000 
#    0.000    0.000    0.000    0.000    0.000    0.000 
#
# Total GULP energy -89100.030840 kJ/mol
# GULP energy per Si atom -5568.751927 kJ/mol
# Density = 2.476124 g / cm^3
# Si number density = 24.817726 Si / 1000 Ang^3
#
#
#
# Elastic Constant Matrix: (Units=GPa)
#
#
# Indices 1 2 3 4 5 6 
#
# 1 54.8061 25.3179 13.7554 0.0000 3.9423 -0.0007
# 2 25.3179 146.6231 54.5811 0.0015 4.2940 -0.0037
# 3 13.7554 54.5811 149.2659 0.0007 10.2148 -0.0008
# 4 0.0000 0.0015 0.0007 70.4358 -0.0012 4.4115
# 5 3.9423 4.2940 10.2148 -0.0012 22.5949 0.0011
# 6 -0.0007 -0.0037 -0.0008 4.4115 0.0011 28.2000
#
#
#
# Elastic Compliance Matrix: (Units=1/GPa)
#
#
# Indices 1 2 3 4 5 6 
#
# 1 0.020039 -0.003198 -0.000495 0.000000 -0.002665 0.000000
# 2 -0.003198 0.008406 -0.002794 0.000000 0.000224 0.000001
# 3 -0.000495 -0.002794 0.007971 0.000000 -0.002986 0.000000
# 4 0.000000 0.000000 0.000000 0.014338 0.000001 -0.002243
# 5 -0.002665 0.000224 -0.002986 0.000001 0.046030 -0.000002
# 6 0.000000 0.000001 0.000000 -0.002243 -0.000002 0.035812
#
#
# Mechanical properties :
#
#
# Convention : Reuss Voigt Hill
#
# Bulk Modulus (GPa) = 42.65841 59.77823 51.21832
# Shear Modulus (GPa) = 32.59763 41.38219 36.98991
#
# Velocity S-wave (km/s) = 3.62813 4.08787 3.86484
# Velocity P-wave (km/s) = 5.89721 6.81323 6.37170
#
# Compressibility (1/GPa) = 0.02344204
#
# Stress axis : x y z
#
# Youngs Moduli (GPa) = 49.90176 118.96135 125.45104
#
# Poissons Ratio (x) = 0.38044 0.06209
# Poissons Ratio (y) = 0.15958 0.35056
# Poissons Ratio (z) = 0.02470 0.33243
#
# Static dielectric constant tensor:
#      x y z
#    x 1.901810 0.000020 0.053680 
#    y 0.000020 2.591340 0.000000 
#    z 0.053680 0.000000 2.047030 
# 
# From -- ./inp_files/217382.got.cif
#   From: 2010.05.17/outbox.cif.g08.bks.cpg/sg15_109_cif.got.tgz:217382.got - 2010.06.03 18:47:42.
