data_PCOD9284804
_publ_section_title
;
Structure prediction by ZEFSAII (Michael W. Deem and Ramdas Pophale) SiO2 
 PCOD9284804
Probable space group: C 2/C
;
_chemical_formula_sum "Si O2"
_cell_formula_units_Z 40
_cell_length_a 15.930181
_cell_length_b 9.847601
_cell_length_c 22.255578
_cell_angle_alpha 90.000000
_cell_angle_beta 144.759092
_cell_angle_gamma 90.000000
_cell_volume 2014.547825
_symmetry_space_group_name_H-M "C 2/C"
_symmetry_group_IT_number 15
_symmetry_cell_setting 'monoclinic'
loop_
_space_group_symop_operation_xyz
x,y,z
-x,y,1/2-z
-x,-y,-z
x,-y,1/2+z
1/2+x,1/2+y,z
1/2-x,1/2+y,1/2-z
1/2-x,1/2-y,-z
1/2+x,1/2-y,1/2+z
loop_
_atom_site_type_symbol
_atom_site_label
_atom_site_fract_x
_atom_site_fract_y
_atom_site_fract_z
Si Si1 0.619322 0.188230 0.601322
Si Si2 0.119222 0.678135 0.741007
Si Si3 0.292905 0.913890 0.899775
Si Si4 0.336074 0.468980 0.923500
Si Si5 0.296563 0.905145 0.037755
O O1 0.625262 0.223380 0.675108
O O2 0.449078 0.162844 0.485441
O O3 0.684427 0.309646 0.600312
O O4 0.699921 0.045864 0.637526
O O5 0.167303 0.807454 0.809050
O O6 0.233151 0.559974 0.821612
O O7 0.961067 0.611571 0.657321
O O8 0.287664 0.964812 0.965597
O O9 0.299624 0.517848 0.969596
O O10 0.500000 0.500000 0.000000
O O11 0.250000 0.750000 0.000000
#
# Coordination Sequence:
#
# PCOD9284804 Si02
#       5
#     8   8   8   8   8
#     4  10  22  38  64  99 127 168 217 270 326 382
#     4  11  21  41  68  92 129 172 216 264 324 397
#     4  10  21  41  64  94 132 168 215 271 325 391
#     4  12  22  40  65  95 127 171 220 269 323 394
#     4  11  23  40  67  93 127 169 220 266 323 389
#
# _framework density 19.855571999999999
#
# number of rings (size 3 to 8) (size 9 to 14) (size 15 to 20)
#    0.000    1.200    4.000    3.000    0.000    0.800 
#    0.000    0.000   13.200    0.000    0.000    0.000 
#    0.000    0.000    0.000    0.000    0.000    0.000 
#
# Total GULP energy -111743.587961 kJ/mol
# GULP energy per Si atom -5587.179398 kJ/mol
# Density = 1.981038 g / cm^3
# Si number density = 19.855572 Si / 1000 Ang^3
#
#
#
# Elastic Constant Matrix: (Units=GPa)
#
#
# Indices 1 2 3 4 5 6 
#
# 1 126.2646 44.7253 40.5320 0.0000 -2.5856 0.0000
# 2 44.7253 99.0823 32.9669 0.0000 -3.9895 0.0000
# 3 40.5320 32.9669 95.8321 0.0000 6.3278 0.0000
# 4 0.0000 0.0000 0.0000 25.2853 0.0000 -3.4212
# 5 -2.5856 -3.9895 6.3278 0.0000 33.2010 0.0000
# 6 0.0000 0.0000 0.0000 -3.4212 0.0000 40.4968
#
#
#
# Elastic Compliance Matrix: (Units=1/GPa)
#
#
# Indices 1 2 3 4 5 6 
#
# 1 0.010201 -0.003510 -0.003172 0.000000 0.000977 0.000000
# 2 -0.003510 0.012758 -0.003025 0.000000 0.001836 0.000000
# 3 -0.003172 -0.003025 0.013021 0.000000 -0.003092 0.000000
# 4 0.000000 0.000000 0.000000 0.040006 0.000000 0.003380
# 5 0.000977 0.001836 -0.003092 0.000000 0.031006 0.000000
# 6 0.000000 0.000000 0.000000 0.003380 0.000000 0.024979
#
#
# Mechanical properties :
#
#
# Convention : Reuss Voigt Hill
#
# Bulk Modulus (GPa) = 60.36484 61.95858 61.16171
# Shear Modulus (GPa) = 31.86600 33.32696 32.59648
#
# Velocity S-wave (km/s) = 4.01045 4.10136 4.05616
# Velocity P-wave (km/s) = 7.20506 7.32807 7.26682
#
# Compressibility (1/GPa) = 0.01656593
#
# Stress axis : x y z
#
# Youngs Moduli (GPa) = 98.02570 78.38436 76.79745
#
# Poissons Ratio (x) = 0.27515 0.24357
# Poissons Ratio (y) = 0.34409 0.23234
# Poissons Ratio (z) = 0.31090 0.23714
#
# Static dielectric constant tensor:
#      x y z
#    x 1.756200 0.000000 -0.016370 
#    y 0.000000 1.693610 0.000000 
#    z -0.016370 0.000000 1.726210 
# 
# From -- ./inp_files/276766.got.cif
#   From: 2010.05.17/outbox.cif.g08.bks.cpg/sg15_139_cif.got.tgz:276766.got - 2010.06.03 18:47:42.
