data_PCOD9284114
_publ_section_title
;
Structure prediction by ZEFSAII (Michael W. Deem and Ramdas Pophale) SiO2 
 PCOD9284114
Probable space group: C 2/C
;
_chemical_formula_sum "Si O2"
_cell_formula_units_Z 28
_cell_length_a 7.132118
_cell_length_b 19.404314
_cell_length_c 9.905339
_cell_angle_alpha 90.000000
_cell_angle_beta 55.021391
_cell_angle_gamma 90.000000
_cell_volume 1123.218282
_symmetry_space_group_name_H-M "C 2/C"
_symmetry_group_IT_number 15
_symmetry_cell_setting 'monoclinic'
loop_
_space_group_symop_operation_xyz
x,y,z
-x,y,1/2-z
-x,-y,-z
x,-y,1/2+z
1/2+x,1/2+y,z
1/2-x,1/2+y,1/2-z
1/2-x,1/2-y,-z
1/2+x,1/2-y,1/2+z
loop_
_atom_site_type_symbol
_atom_site_label
_atom_site_fract_x
_atom_site_fract_y
_atom_site_fract_z
Si Si1 0.611681 0.897880 0.555071
Si Si2 0.000000 0.260309 0.250000
Si Si3 0.181906 0.553778 0.552202
Si Si4 0.970670 0.165499 0.522317
O O1 0.500000 0.893041 0.750000
O O2 0.417920 0.894836 0.521123
O O3 0.813358 0.841889 0.468435
O O4 0.704106 0.975725 0.492148
O O5 0.013955 0.212119 0.374933
O O6 0.772952 0.306329 0.329280
O O7 0.418886 0.586939 0.499249
O O8 0.000000 0.550857 0.750000
#
# Coordination Sequence:
#
# PCOD9284114 Si02
#       4
#     8   4   8   8
#     4  10  22  39  68 101 126 169 220 275 340 397
#     4  10  24  40  68  94 138 182 228 264 328 386
#     4  10  21  40  66  99 130 165 218 277 341 389
#     4  11  21  44  63  94 134 177 218 280 319 396
#
# _framework density 24.928370000000001
#
# number of rings (size 3 to 8) (size 9 to 14) (size 15 to 20)
#    0.000    1.714    1.429    2.571    0.000    1.143 
#    0.000   24.286    0.000    0.000    0.000    0.000 
#    0.000    0.000    0.000    0.000    0.000    0.000 
#
# Total GULP energy -78342.120411 kJ/mol
# GULP energy per Si atom -5595.865744 kJ/mol
# Density = 2.487163 g / cm^3
# Si number density = 24.928370 Si / 1000 Ang^3
#
#
#
# Elastic Constant Matrix: (Units=GPa)
#
#
# Indices 1 2 3 4 5 6 
#
# 1 153.6455 20.0665 33.7686 0.0000 0.0054 0.0000
# 2 20.0665 74.3593 13.0579 0.0000 -18.2485 0.0000
# 3 33.7686 13.0579 64.5239 0.0000 -0.4189 0.0000
# 4 0.0000 0.0000 0.0000 34.8019 0.0000 -3.8745
# 5 0.0054 -18.2485 -0.4189 0.0000 30.8689 0.0000
# 6 0.0000 0.0000 0.0000 -3.8745 0.0000 40.3753
#
#
#
# Elastic Compliance Matrix: (Units=1/GPa)
#
#
# Indices 1 2 3 4 5 6 
#
# 1 0.007516 -0.001646 -0.003607 0.000000 -0.001023 0.000000
# 2 -0.001646 0.016746 -0.002464 0.000000 0.009867 0.000000
# 3 -0.003607 -0.002464 0.017877 0.000000 -0.001213 0.000000
# 4 0.000000 0.000000 0.000000 0.029044 0.000000 0.002787
# 5 -0.001023 0.009867 -0.001213 0.000000 0.038212 0.000000
# 6 0.000000 0.000000 0.000000 0.002787 0.000000 0.025035
#
#
# Mechanical properties :
#
#
# Convention : Reuss Voigt Hill
#
# Bulk Modulus (GPa) = 37.44502 47.36832 42.40667
# Shear Modulus (GPa) = 31.49294 36.25160 33.87227
#
# Velocity S-wave (km/s) = 3.55820 3.81757 3.69017
# Velocity P-wave (km/s) = 5.65108 6.20281 5.93336
#
# Compressibility (1/GPa) = 0.02670582
#
# Stress axis : x y z
#
# Youngs Moduli (GPa) = 133.04417 59.71439 55.93894
#
# Poissons Ratio (x) = 0.09829 0.20178
# Poissons Ratio (y) = 0.21900 0.13781
# Poissons Ratio (z) = 0.47992 0.14711
#
# Static dielectric constant tensor:
#      x y z
#    x 1.908420 0.000000 0.005210 
#    y 0.000000 1.983850 0.000000 
#    z 0.005210 0.000000 1.976320 
# 
# From -- ./inp_files/71738.got.cif
#   From: 2010.05.17/outbox.cif.g08.bks.cpg/sg15_36_cif.got.tgz:71738.got - 2010.06.03 18:47:42.
