data_PCOD9284574
_publ_section_title
;
Structure prediction by ZEFSAII (Michael W. Deem and Ramdas Pophale) SiO2 
 PCOD9284574
Probable space group: C 2/C
;
_chemical_formula_sum "Si O2"
_cell_formula_units_Z 40
_cell_length_a 4.933440
_cell_length_b 29.456985
_cell_length_c 13.644542
_cell_angle_alpha 90.000000
_cell_angle_beta 74.110761
_cell_angle_gamma 90.000000
_cell_volume 1907.122562
_symmetry_space_group_name_H-M "C 2/C"
_symmetry_group_IT_number 15
_symmetry_cell_setting 'monoclinic'
loop_
_space_group_symop_operation_xyz
x,y,z
-x,y,1/2-z
-x,-y,-z
x,-y,1/2+z
1/2+x,1/2+y,z
1/2-x,1/2+y,1/2-z
1/2-x,1/2-y,-z
1/2+x,1/2-y,1/2+z
loop_
_atom_site_type_symbol
_atom_site_label
_atom_site_fract_x
_atom_site_fract_y
_atom_site_fract_z
Si Si1 0.162667 0.492969 0.137157
Si Si2 0.768071 0.054724 0.943159
Si Si3 0.976921 0.698097 0.638452
Si Si4 0.315203 0.700104 0.180219
Si Si5 0.056784 0.156817 0.533303
O O1 0.479464 0.476452 0.122945
O O2 0.000000 0.507073 0.250000
O O3 0.991014 0.451044 0.105309
O O4 0.173463 0.532465 0.055208
O O5 0.885457 0.104571 0.948761
O O6 0.974309 0.752775 0.637541
O O7 0.696436 0.683899 0.609543
O O8 0.000000 0.684485 0.750000
O O9 0.234698 0.673156 0.559672
O O10 0.500000 0.679006 0.250000
O O11 0.000000 0.710022 0.250000
O O12 0.303679 0.670338 0.083691
#
# Coordination Sequence:
#
# PCOD9284574 Si02
#       5
#     8   8   8   8   8
#     4  10  21  41  62  82 119 157 185 237 300 355
#     4  10  23  38  59  92 115 147 202 237 288 369
#     4  11  23  39  59  87 121 160 201 243 299 356
#     4  11  23  41  61  86 120 163 208 245 297 359
#     4  12  23  39  62  89 122 154 197 257 299 340
#
# _framework density 20.974007
#
# number of rings (size 3 to 8) (size 9 to 14) (size 15 to 20)
#    0.000    1.200    0.000    7.200    0.000    5.600 
#    0.000    4.000    0.000    0.000    0.000    0.000 
#    0.000    0.000    0.000    0.000    0.000    0.000 
#
# Total GULP energy -111823.984708 kJ/mol
# GULP energy per Si atom -5591.199235 kJ/mol
# Density = 2.092627 g / cm^3
# Si number density = 20.974007 Si / 1000 Ang^3
#
#
#
# Elastic Constant Matrix: (Units=GPa)
#
#
# Indices 1 2 3 4 5 6 
#
# 1 72.0895 -8.0323 4.8084 0.0000 0.6965 0.0000
# 2 -8.0323 -38.6971 -27.7510 0.0000 3.4790 0.0000
# 3 4.8084 -27.7510 81.0892 0.0000 -4.4219 0.0000
# 4 0.0000 0.0000 0.0000 -1.7778 0.0000 0.6791
# 5 0.6965 3.4790 -4.4219 0.0000 39.6865 0.0000
# 6 0.0000 0.0000 0.0000 0.6791 0.0000 12.5532
#
#
#
# Elastic Compliance Matrix: (Units=1/GPa)
#
#
# Indices 1 2 3 4 5 6 
#
# 1 0.013767 -0.001834 -0.001457 0.000000 -0.000243 0.000000
# 2 -0.001834 -0.020463 -0.006836 0.000000 0.001064 0.000000
# 3 -0.001457 -0.006836 0.010175 0.000000 0.001759 0.000000
# 4 0.000000 0.000000 0.000000 -0.551100 0.000000 0.029813
# 5 -0.000243 0.001064 0.001759 0.000000 0.025304 0.000000
# 6 0.000000 0.000000 0.000000 0.029813 0.000000 0.078048
#
#
# Mechanical properties :
#
#
# Convention : Reuss Voigt Hill
#
# Bulk Modulus (GPa) = -59.60633 5.83687 -26.88473
# Shear Modulus (GPa) = -11.63859 19.78945 4.07543
#
# Velocity S-wave (km/s) = -2.35820 3.07501 1.39546
# Velocity P-wave (km/s) = 5.99130 3.92385 3.20149
#
# Compressibility (1/GPa) = -0.01677674
#
# Stress axis : x y z
#
# Youngs Moduli (GPa) = 72.63839 -48.86905 98.28114
#
# Poissons Ratio (x) = -0.08964 0.14323
# Poissons Ratio (y) = 0.13324 0.67186
# Poissons Ratio (z) = 0.10586 -0.33408
#
# Static dielectric constant tensor:
#      x y z
#    x 1.731830 0.000000 -0.007240 
#    y 0.000000 1.725920 0.000000 
#    z -0.007240 0.000000 1.749410 
# 
# From -- ./inp_files/73088.got.cif
#   From: 2010.05.17/outbox.cif.g08.bks.cpg/sg15_37_cif.got.tgz:73088.got - 2010.06.03 18:47:42.
