data_PCOD9284206
_publ_section_title
;
Structure prediction by ZEFSAII (Michael W. Deem and Ramdas Pophale) SiO2 
 PCOD9284206
Probable space group: C 2/C
;
_chemical_formula_sum "Si O2"
_cell_formula_units_Z 40
_cell_length_a 10.206219
_cell_length_b 14.453386
_cell_length_c 15.791134
_cell_angle_alpha 90.000000
_cell_angle_beta 45.289892
_cell_angle_gamma 90.000000
_cell_volume 1655.461436
_symmetry_space_group_name_H-M "C 2/C"
_symmetry_group_IT_number 15
_symmetry_cell_setting 'monoclinic'
loop_
_space_group_symop_operation_xyz
x,y,z
-x,y,1/2-z
-x,-y,-z
x,-y,1/2+z
1/2+x,1/2+y,z
1/2-x,1/2+y,1/2-z
1/2-x,1/2-y,-z
1/2+x,1/2-y,1/2+z
loop_
_atom_site_type_symbol
_atom_site_label
_atom_site_fract_x
_atom_site_fract_y
_atom_site_fract_z
Si Si1 0.647520 0.038726 0.999524
Si Si2 0.284732 0.376702 0.271821
Si Si3 0.996015 0.941723 0.649753
Si Si4 0.038802 0.718822 0.093311
Si Si5 0.039308 0.744660 0.567492
O O1 0.774007 0.096646 0.875640
O O2 0.794468 0.968929 0.971539
O O3 0.546533 0.109222 0.107949
O O4 0.500000 0.000000 0.000000
O O5 0.365479 0.469419 0.191723
O O6 0.411768 0.287653 0.202275
O O7 0.082650 0.338684 0.337675
O O8 0.947980 0.844083 0.629997
O O9 0.000000 0.926275 0.750000
O O10 0.250000 0.750000 0.000000
O O11 0.966842 0.727895 0.029809
O O12 0.250000 0.750000 0.500000
#
# Coordination Sequence:
#
# PCOD9284206 Si02
#       5
#     8   8   8   8   8
#     4  10  21  40  68  97 131 185 235 272 343 431
#     4  10  23  40  67  98 137 178 231 276 353 412
#     4  10  21  40  67  96 134 181 230 277 342 425
#     4  11  23  43  69  98 142 176 226 291 352 420
#     4  11  26  42  68 104 138 178 232 295 351 409
#
# _framework density 24.16245
#
# number of rings (size 3 to 8) (size 9 to 14) (size 15 to 20)
#    0.000    1.600    2.000    2.400   11.200    0.800 
#    0.000    0.000    0.000    0.000    0.000    0.000 
#    0.000    0.000    0.000    0.000    0.000    0.000 
#
# Total GULP energy -111749.322712 kJ/mol
# GULP energy per Si atom -5587.466136 kJ/mol
# Density = 2.410745 g / cm^3
# Si number density = 24.162450 Si / 1000 Ang^3
#
#
#
# Elastic Constant Matrix: (Units=GPa)
#
#
# Indices 1 2 3 4 5 6 
#
# 1 93.9859 6.9911 11.3996 -0.0001 -33.2809 0.0000
# 2 6.9911 143.0055 23.3850 -0.0003 -14.6833 0.0001
# 3 11.3996 23.3850 56.3380 -0.0010 -20.8985 0.0003
# 4 -0.0001 -0.0003 -0.0010 42.9473 0.0003 -9.1004
# 5 -33.2809 -14.6833 -20.8985 0.0003 35.2067 -0.0001
# 6 0.0000 0.0001 0.0003 -9.1004 -0.0001 47.2023
#
#
#
# Elastic Compliance Matrix: (Units=1/GPa)
#
#
# Indices 1 2 3 4 5 6 
#
# 1 0.016445 0.000511 0.002957 0.000000 0.017514 0.000000
# 2 0.000511 0.007593 -0.002438 0.000000 0.002202 0.000000
# 3 0.002957 -0.002438 0.024139 0.000000 0.016107 0.000000
# 4 0.000000 0.000000 0.000000 0.024276 0.000000 0.004680
# 5 0.017514 0.002202 0.016107 0.000000 0.055439 0.000000
# 6 0.000000 0.000000 0.000000 0.004680 0.000000 0.022088
#
#
# Mechanical properties :
#
#
# Convention : Reuss Voigt Hill
#
# Bulk Modulus (GPa) = 19.90605 41.87568 30.89086
# Shear Modulus (GPa) = 30.36478 41.84152 36.10315
#
# Velocity S-wave (km/s) = 3.54883 4.16585 3.86966
# Velocity P-wave (km/s) = 5.00486 6.36456 5.72522
#
# Compressibility (1/GPa) = 0.05023599
#
# Stress axis : x y z
#
# Youngs Moduli (GPa) = 60.80888 131.70799 41.42748
#
# Poissons Ratio (x) = -0.06727 -0.12251
# Poissons Ratio (y) = -0.03106 0.10100
# Poissons Ratio (z) = -0.17982 0.32110
#
# Static dielectric constant tensor:
#      x y z
#    x 1.907740 0.000000 -0.033710 
#    y 0.000000 2.105600 0.000000 
#    z -0.033710 0.000000 1.955730 
# 
# From -- ./inp_files/197581.got.cif
#   From: 2010.05.17/outbox.cif.g08.bks.cpg/sg15_99_cif.got.tgz:197581.got - 2010.06.03 18:47:42.
