data_PCOD9284544
_publ_section_title
;
Structure prediction by ZEFSAII (Michael W. Deem and Ramdas Pophale) SiO2 
 PCOD9284544
Probable space group: C 2/C
;
_chemical_formula_sum "Si O2"
_cell_formula_units_Z 40
_cell_length_a 18.303671
_cell_length_b 6.668638
_cell_length_c 23.995676
_cell_angle_alpha 90.000000
_cell_angle_beta 144.291955
_cell_angle_gamma 90.000000
_cell_volume 1709.482722
_symmetry_space_group_name_H-M "C 2/C"
_symmetry_group_IT_number 15
_symmetry_cell_setting 'monoclinic'
loop_
_space_group_symop_operation_xyz
x,y,z
-x,y,1/2-z
-x,-y,-z
x,-y,1/2+z
1/2+x,1/2+y,z
1/2-x,1/2+y,1/2-z
1/2-x,1/2-y,-z
1/2+x,1/2-y,1/2+z
loop_
_atom_site_type_symbol
_atom_site_label
_atom_site_fract_x
_atom_site_fract_y
_atom_site_fract_z
Si Si1 0.799359 0.605117 0.445752
Si Si2 0.130657 0.789016 0.740451
Si Si3 0.186670 0.972530 0.654316
Si Si4 0.537281 0.235516 0.469817
Si Si5 0.372526 0.530434 0.062742
O O1 0.707828 0.601739 0.336702
O O2 0.931786 0.498516 0.515566
O O3 0.729658 0.494313 0.453560
O O4 0.817744 0.830147 0.479449
O O5 0.174760 0.557722 0.768837
O O6 0.984986 0.835614 0.657605
O O7 0.168865 0.873640 0.703472
O O8 0.096228 0.170431 0.596843
O O9 0.134476 0.823628 0.575483
O O10 0.569447 0.337766 0.430607
#
# Coordination Sequence:
#
# PCOD9284544 Si02
#       5
#     8   8   8   8   8
#     4  11  22  40  66  84 124 167 199 254 314 352
#     4  11  22  39  61  89 126 157 206 254 306 365
#     4  10  22  37  60  94 125 158 207 255 305 377
#     4  10  21  41  61  90 123 159 207 254 306 370
#     4  10  23  41  61  91 120 160 211 253 297 375
#
# _framework density 23.398889
#
# number of rings (size 3 to 8) (size 9 to 14) (size 15 to 20)
#    0.000    1.600    2.000    2.400    2.800    0.800 
#    0.000    0.000    4.400    0.000    0.000    0.000 
#    0.000    0.000    0.000    0.000    0.000    0.000 
#
# Total GULP energy -111906.893261 kJ/mol
# GULP energy per Si atom -5595.344663 kJ/mol
# Density = 2.334563 g / cm^3
# Si number density = 23.398889 Si / 1000 Ang^3
#
#
#
# Elastic Constant Matrix: (Units=GPa)
#
#
# Indices 1 2 3 4 5 6 
#
# 1 67.1035 10.9573 0.6410 0.0000 -1.1835 0.0003
# 2 10.9573 25.6950 7.2366 -0.0001 -3.9510 0.0006
# 3 0.6410 7.2366 98.7511 0.0000 -3.7760 0.0001
# 4 0.0000 -0.0001 0.0000 30.8492 0.0000 11.0221
# 5 -1.1835 -3.9510 -3.7760 0.0000 36.0310 0.0000
# 6 0.0003 0.0006 0.0001 11.0221 0.0000 30.5979
#
#
#
# Elastic Compliance Matrix: (Units=1/GPa)
#
#
# Indices 1 2 3 4 5 6 
#
# 1 0.016035 -0.006981 0.000400 0.000000 -0.000197 0.000000
# 2 -0.006981 0.043380 -0.002972 0.000000 0.004216 -0.000001
# 3 0.000400 -0.002972 0.010371 0.000000 0.000774 0.000000
# 4 0.000000 0.000000 0.000000 0.037204 0.000000 -0.013402
# 5 -0.000197 0.004216 0.000774 0.000000 0.028291 0.000000
# 6 0.000000 -0.000001 0.000000 -0.013402 0.000000 0.037510
#
#
# Mechanical properties :
#
#
# Convention : Reuss Voigt Hill
#
# Bulk Modulus (GPa) = 19.73164 25.46883 22.60023
# Shear Modulus (GPa) = 23.94739 31.00993 27.47866
#
# Velocity S-wave (km/s) = 3.20260 3.64438 3.43061
# Velocity P-wave (km/s) = 4.70389 5.34948 5.03704
#
# Compressibility (1/GPa) = 0.05068003
#
# Stress axis : x y z
#
# Youngs Moduli (GPa) = 62.36378 23.05191 96.42000
#
# Poissons Ratio (x) = 0.16092 -0.03856
# Poissons Ratio (y) = 0.43535 0.28660
# Poissons Ratio (z) = -0.02494 0.06852
#
# Static dielectric constant tensor:
#      x y z
#    x 1.854980 0.000000 -0.008260 
#    y 0.000000 1.905950 0.000000 
#    z -0.008260 0.000000 1.861990 
# 
# From -- ./inp_files/170551.got.cif
#   From: 2010.05.17/outbox.cif.g08.bks.cpg/sg15_86_cif.got.tgz:170551.got - 2010.06.03 18:47:42.
