data_PCOD9284292
_publ_section_title
;
Structure prediction by ZEFSAII (Michael W. Deem and Ramdas Pophale) SiO2 
 PCOD9284292
Probable space group: C 2/C
;
_chemical_formula_sum "Si O2"
_cell_formula_units_Z 56
_cell_length_a 28.027811
_cell_length_b 10.955250
_cell_length_c 14.376274
_cell_angle_alpha 90.000000
_cell_angle_beta 145.277887
_cell_angle_gamma 90.000000
_cell_volume 2514.347745
_symmetry_space_group_name_H-M "C 2/C"
_symmetry_group_IT_number 15
_symmetry_cell_setting 'monoclinic'
loop_
_space_group_symop_operation_xyz
x,y,z
-x,y,1/2-z
-x,-y,-z
x,-y,1/2+z
1/2+x,1/2+y,z
1/2-x,1/2+y,1/2-z
1/2-x,1/2-y,-z
1/2+x,1/2-y,1/2+z
loop_
_atom_site_type_symbol
_atom_site_label
_atom_site_fract_x
_atom_site_fract_y
_atom_site_fract_z
Si Si1 0.096115 0.890581 0.907106
Si Si2 0.224936 0.771942 0.633535
Si Si3 0.509286 0.701511 0.986228
Si Si4 0.656158 0.567720 0.855168
Si Si5 0.073179 0.597525 0.444617
Si Si6 0.094167 0.316720 0.524944
Si Si7 0.667201 0.542583 0.193063
O O1 0.000000 0.931934 0.750000
O O2 0.141274 0.944924 0.890791
O O3 0.099564 0.747333 0.932886
O O4 0.136984 0.952361 0.063468
O O5 0.195374 0.840073 0.492735
O O6 0.159677 0.661334 0.547787
O O7 0.325057 0.772412 0.787466
O O8 0.215478 0.855176 0.712291
O O9 0.430795 0.629607 0.816238
O O10 0.536741 0.813958 0.965696
O O11 0.483356 0.755299 0.044473
O O12 0.586101 0.608117 0.107216
O O13 0.706450 0.528979 0.843114
O O14 0.089410 0.461541 0.508312
O O15 0.000000 0.592438 0.250000
#
# Coordination Sequence:
#
# PCOD9284292 Si02
#       7
#     8   8   8   8   8   8   8
#     4  11  21  36  67  98 128 166 219 279 338 389
#     4  10  26  43  69  97 137 181 223 283 345 396
#     4  11  21  41  68  97 127 180 225 276 335 411
#     4  11  20  39  69  96 125 170 228 272 334 395
#     4  11  24  46  67  95 141 188 224 271 347 422
#     4  12  26  42  66 100 138 176 229 286 339 406
#     4  10  21  40  68  97 133 163 226 288 330 392
#
# _framework density 22.272179000000001
#
# number of rings (size 3 to 8) (size 9 to 14) (size 15 to 20)
#    0.000    1.143    4.286    2.143    4.000    0.571 
#    2.571    0.714    0.000    0.000    0.000    0.000 
#    0.000    0.000    0.000    0.000    0.000    0.000 
#
# Total GULP energy -156456.485655 kJ/mol
# GULP energy per Si atom -5587.731631 kJ/mol
# Density = 2.222149 g / cm^3
# Si number density = 22.272179 Si / 1000 Ang^3
#
#
#
# Elastic Constant Matrix: (Units=GPa)
#
#
# Indices 1 2 3 4 5 6 
#
# 1 106.8799 42.1768 27.6842 0.0000 -16.4280 0.0000
# 2 42.1768 126.9453 13.9888 0.0000 -11.3748 0.0000
# 3 27.6842 13.9888 41.5081 0.0000 -14.5763 0.0000
# 4 0.0000 0.0000 0.0000 18.4782 0.0000 -13.7882
# 5 -16.4280 -11.3748 -14.5763 0.0000 37.6816 0.0000
# 6 0.0000 0.0000 0.0000 -13.7882 0.0000 29.1678
#
#
#
# Elastic Compliance Matrix: (Units=1/GPa)
#
#
# Indices 1 2 3 4 5 6 
#
# 1 0.012687 -0.003306 -0.006660 0.000000 0.001957 0.000000
# 2 -0.003306 0.009129 -0.000475 0.000000 0.001131 0.000000
# 3 -0.006660 -0.000475 0.031966 0.000000 0.009318 0.000000
# 4 0.000000 0.000000 0.000000 0.083610 0.000000 0.039524
# 5 0.001957 0.001131 0.009318 0.000000 0.031337 0.000000
# 6 0.000000 0.000000 0.000000 0.039524 0.000000 0.052968
#
#
# Mechanical properties :
#
#
# Convention : Reuss Voigt Hill
#
# Bulk Modulus (GPa) = 30.39453 49.22588 39.81020
# Shear Modulus (GPa) = 19.72022 29.83108 24.77565
#
# Velocity S-wave (km/s) = 2.97883 3.66373 3.33889
# Velocity P-wave (km/s) = 5.05052 6.32829 5.72516
#
# Compressibility (1/GPa) = 0.03290066
#
# Stress axis : x y z
#
# Youngs Moduli (GPa) = 78.82232 109.53622 31.28302
#
# Poissons Ratio (x) = 0.36211 0.20835
# Poissons Ratio (y) = 0.26057 0.01485
# Poissons Ratio (z) = 0.52498 0.05200
#
# Static dielectric constant tensor:
#      x y z
#    x 1.834740 0.000000 0.003950 
#    y 0.000000 1.861690 0.000000 
#    z 0.003950 0.000000 1.823450 
# 
# From -- ./inp_files/177638.got.cif
#   From: 2010.05.17/outbox.cif.g08.bks.cpg/sg15_89_cif.got.tgz:177638.got - 2010.06.03 18:47:42.
