data_PCOD9284396
_publ_section_title
;
Structure prediction by ZEFSAII (Michael W. Deem and Ramdas Pophale) SiO2 
 PCOD9284396
Probable space group: C 2/C
;
_chemical_formula_sum "Si O2"
_cell_formula_units_Z 64
_cell_length_a 32.774234
_cell_length_b 6.811838
_cell_length_c 13.722842
_cell_angle_alpha 90.000000
_cell_angle_beta 124.992228
_cell_angle_gamma 90.000000
_cell_volume 2509.843762
_symmetry_space_group_name_H-M "C 2/C"
_symmetry_group_IT_number 15
_symmetry_cell_setting 'monoclinic'
loop_
_space_group_symop_operation_xyz
x,y,z
-x,y,1/2-z
-x,-y,-z
x,-y,1/2+z
1/2+x,1/2+y,z
1/2-x,1/2+y,1/2-z
1/2-x,1/2-y,-z
1/2+x,1/2-y,1/2+z
loop_
_atom_site_type_symbol
_atom_site_label
_atom_site_fract_x
_atom_site_fract_y
_atom_site_fract_z
Si Si1 0.731075 0.569055 0.346875
Si Si2 0.324111 0.668236 0.048592
Si Si3 0.630705 0.938041 0.530175
Si Si4 0.708659 0.716459 0.102979
Si Si5 0.506459 0.773434 0.153394
Si Si6 0.063106 0.277459 0.053748
Si Si7 0.908315 0.842342 0.390542
Si Si8 0.470142 0.336053 0.304215
O O1 0.684486 0.638358 0.348715
O O2 0.776134 0.709495 0.444438
O O3 0.724234 0.611351 0.224010
O O4 0.745869 0.340184 0.382571
O O5 0.368587 0.802809 0.066121
O O6 0.319321 0.450392 0.997191
O O7 0.672518 0.102726 0.578385
O O8 0.585747 0.073801 0.507540
O O9 0.636985 0.777672 0.625098
O O10 0.500000 0.867897 0.250000
O O11 0.544231 0.874333 0.128897
O O12 0.534052 0.568976 0.214614
O O13 0.454093 0.717343 0.028536
O O14 0.094537 0.077701 0.106580
O O15 0.011239 0.199548 0.942138
O O16 0.919990 0.783731 0.294464
O O17 0.500000 0.267763 0.250000
#
# Coordination Sequence:
#
# PCOD9284396 Si02
#       8
#     8   8   8   8   8   8   8   8
#     4  10  21  40  70  95 115 150 200 240 291 356
#     4  10  22  41  64  93 122 153 193 243 292 357
#     4  11  23  37  55  85 128 160 190 240 304 359
#     4  11  21  41  68  91 120 157 193 245 295 359
#     4   8  15  31  57  78 104 153 209 253 290 337
#     4   9  18  35  55  78 115 156 197 250 302 345
#     4   9  18  35  55  78 116 153 198 251 295 347
#     4   8  15  31  57  82 104 151 209 251 291 344
#
# _framework density 25.499594999999999
#
# number of rings (size 3 to 8) (size 9 to 14) (size 15 to 20)
#    0.000    2.500    1.250    2.625    0.000    2.000 
#    4.500    1.250    5.500    0.000    0.000    0.000 
#    0.000    0.000    0.000    0.000    0.000    0.000 
#
# Total GULP energy -178436.442234 kJ/mol
# GULP energy per Si atom -5576.138820 kJ/mol
# Density = 2.544156 g / cm^3
# Si number density = 25.499595 Si / 1000 Ang^3
#
#
#
# Elastic Constant Matrix: (Units=GPa)
#
#
# Indices 1 2 3 4 5 6 
#
# 1 97.8645 39.6569 30.8376 0.0000 -30.7828 0.0000
# 2 39.6569 168.2481 15.3772 0.0000 -8.9640 0.0000
# 3 30.8376 15.3772 71.9211 0.0000 -13.9683 0.0000
# 4 0.0000 0.0000 0.0000 13.5627 0.0000 17.8160
# 5 -30.7828 -8.9640 -13.9683 0.0000 41.9961 0.0000
# 6 0.0000 0.0000 0.0000 17.8160 0.0000 58.6080
#
#
#
# Elastic Compliance Matrix: (Units=1/GPa)
#
#
# Indices 1 2 3 4 5 6 
#
# 1 0.015683 -0.002800 -0.004286 0.000000 0.009472 0.000000
# 2 -0.002800 0.006596 -0.000358 0.000000 -0.000764 0.000000
# 3 -0.004286 -0.000358 0.016243 0.000000 0.002184 0.000000
# 4 0.000000 0.000000 0.000000 0.122746 0.000000 -0.037313
# 5 0.009472 -0.000764 0.002184 0.000000 0.031318 0.000000
# 6 0.000000 0.000000 0.000000 -0.037313 0.000000 0.028405
#
#
# Mechanical properties :
#
#
# Convention : Reuss Voigt Hill
#
# Bulk Modulus (GPa) = 42.31363 56.64187 49.47775
# Shear Modulus (GPa) = 20.51231 39.64418 30.07825
#
# Velocity S-wave (km/s) = 2.83930 3.94724 3.43820
# Velocity P-wave (km/s) = 5.23247 6.56014 5.93355
#
# Compressibility (1/GPa) = 0.02363305
#
# Stress axis : x y z
#
# Youngs Moduli (GPa) = 63.76398 151.61553 61.56650
#
# Poissons Ratio (x) = 0.42454 0.26387
# Poissons Ratio (y) = 0.17855 0.02203
# Poissons Ratio (z) = 0.27329 0.05426
#
# Static dielectric constant tensor:
#      x y z
#    x 2.546870 0.000000 -0.066760 
#    y 0.000000 2.046940 0.000000 
#    z -0.066760 0.000000 2.032130 
# 
# From -- ./inp_files/180551.got.cif
#   From: 2010.05.17/outbox.cif.g08.bks.cpg/sg15_91_cif.got.tgz:180551.got - 2010.06.03 18:47:42.
