data_PCOD9284142
_publ_section_title
;
Structure prediction by ZEFSAII (Michael W. Deem and Ramdas Pophale) SiO2 
 PCOD9284142
Probable space group: C 2/C
;
_chemical_formula_sum "Si O2"
_cell_formula_units_Z 48
_cell_length_a 8.142661
_cell_length_b 20.929016
_cell_length_c 17.341396
_cell_angle_alpha 90.000000
_cell_angle_beta 127.844626
_cell_angle_gamma 90.000000
_cell_volume 2333.720965
_symmetry_space_group_name_H-M "C 2/C"
_symmetry_group_IT_number 15
_symmetry_cell_setting 'monoclinic'
loop_
_space_group_symop_operation_xyz
x,y,z
-x,y,1/2-z
-x,-y,-z
x,-y,1/2+z
1/2+x,1/2+y,z
1/2-x,1/2+y,1/2-z
1/2-x,1/2-y,-z
1/2+x,1/2-y,1/2+z
loop_
_atom_site_type_symbol
_atom_site_label
_atom_site_fract_x
_atom_site_fract_y
_atom_site_fract_z
Si Si1 0.300193 0.789466 0.348061
Si Si2 0.430288 0.331904 0.353763
Si Si3 0.963053 0.611161 0.330709
Si Si4 0.426204 0.349511 0.839679
Si Si5 0.895322 0.067572 0.483344
Si Si6 0.369736 0.792018 0.929506
O O1 0.254811 0.834931 0.262202
O O2 0.300441 0.717071 0.316480
O O3 0.512685 0.798117 0.455712
O O4 0.119869 0.801866 0.358648
O O5 0.512400 0.396580 0.415546
O O6 0.365899 0.280977 0.400538
O O7 0.712747 0.604111 0.254709
O O8 0.993643 0.669780 0.398460
O O9 0.000000 0.620326 0.250000
O O10 0.142439 0.562832 0.410091
O O11 0.447537 0.385888 0.926531
O O12 0.644904 0.323813 0.872369
O O13 0.000000 0.000000 0.500000
#
# Coordination Sequence:
#
# PCOD9284142 Si02
#       6
#     8   8   8   8   8   8
#     4  11  22  36  64 102 135 169 217 275 355 396
#     4  11  22  37  65  96 133 176 219 275 339 404
#     4  10  21  40  67  89 124 176 223 265 335 405
#     4  11  23  38  64 101 130 169 218 275 349 402
#     4  11  24  45  66  89 131 186 233 267 325 411
#     4  12  21  37  64 102 137 161 215 293 348 394
#
# _framework density 20.568014000000002
#
# number of rings (size 3 to 8) (size 9 to 14) (size 15 to 20)
#    0.000    1.000    5.000    3.500    2.333    0.000 
#    0.000    5.833   14.667    0.000    0.000    0.000 
#    0.000    0.000    0.000    0.000    0.000    0.000 
#
# Total GULP energy -133808.574666 kJ/mol
# GULP energy per Si atom -5575.357278 kJ/mol
# Density = 2.052120 g / cm^3
# Si number density = 20.568014 Si / 1000 Ang^3
#
#
#
# Elastic Constant Matrix: (Units=GPa)
#
#
# Indices 1 2 3 4 5 6 
#
# 1 69.5388 32.1709 39.7240 0.0000 14.5665 0.0000
# 2 32.1709 68.3009 45.9853 0.0000 7.9479 0.0000
# 3 39.7240 45.9853 181.2760 0.0000 16.1113 0.0000
# 4 0.0000 0.0000 0.0000 12.5622 0.0000 6.0514
# 5 14.5665 7.9479 16.1113 0.0000 31.7522 0.0000
# 6 0.0000 0.0000 0.0000 6.0514 0.0000 22.2339
#
#
#
# Elastic Compliance Matrix: (Units=1/GPa)
#
#
# Indices 1 2 3 4 5 6 
#
# 1 0.020328 -0.007491 -0.001982 0.000000 -0.006445 0.000000
# 2 -0.007491 0.020572 -0.003587 0.000000 0.000107 0.000000
# 3 -0.001982 -0.003587 0.007016 0.000000 -0.001753 0.000000
# 4 0.000000 0.000000 0.000000 0.091615 0.000000 -0.024935
# 5 -0.006445 0.000107 -0.001753 0.000000 0.035314 0.000000
# 6 0.000000 0.000000 0.000000 -0.024935 0.000000 0.051763
#
#
# Mechanical properties :
#
#
# Convention : Reuss Voigt Hill
#
# Bulk Modulus (GPa) = 45.87510 61.65293 53.76402
# Shear Modulus (GPa) = 19.23144 26.72537 22.97840
#
# Velocity S-wave (km/s) = 3.06112 3.60858 3.34607
# Velocity P-wave (km/s) = 5.90309 6.88496 6.41285
#
# Compressibility (1/GPa) = 0.02179832
#
# Stress axis : x y z
#
# Youngs Moduli (GPa) = 49.19342 48.61068 142.52472
#
# Poissons Ratio (x) = 0.36413 0.28242
# Poissons Ratio (y) = 0.36849 0.51117
# Poissons Ratio (z) = 0.09748 0.17434
#
# Static dielectric constant tensor:
#      x y z
#    x 1.825670 0.000000 0.023140 
#    y 0.000000 1.672930 0.000000 
#    z 0.023140 0.000000 1.813700 
# 
# From -- ./inp_files/192315.got.cif
#   From: 2010.05.17/outbox.cif.g08.bks.cpg/sg15_97_cif.got.tgz:192315.got - 2010.06.03 18:47:42.
