data_PCOD9284938
_publ_section_title
;
Structure prediction by ZEFSAII (Michael W. Deem and Ramdas Pophale) SiO2 
 PCOD9284938
Probable space group: C 2/C
;
_chemical_formula_sum "Si O2"
_cell_formula_units_Z 48
_cell_length_a 11.285840
_cell_length_b 27.782376
_cell_length_c 7.799981
_cell_angle_alpha 90.000000
_cell_angle_beta 108.069635
_cell_angle_gamma 90.000000
_cell_volume 2325.044604
_symmetry_space_group_name_H-M "C 2/C"
_symmetry_group_IT_number 15
_symmetry_cell_setting 'monoclinic'
loop_
_space_group_symop_operation_xyz
x,y,z
-x,y,1/2-z
-x,-y,-z
x,-y,1/2+z
1/2+x,1/2+y,z
1/2-x,1/2+y,1/2-z
1/2-x,1/2-y,-z
1/2+x,1/2-y,1/2+z
loop_
_atom_site_type_symbol
_atom_site_label
_atom_site_fract_x
_atom_site_fract_y
_atom_site_fract_z
Si Si1 0.359358 0.843977 0.974276
Si Si2 0.249745 0.935039 0.111666
Si Si3 0.277687 0.960864 0.523257
Si Si4 0.603582 0.326653 0.662398
Si Si5 0.471235 0.418047 0.040153
Si Si6 0.500000 0.895381 0.750000
Si Si7 0.500000 0.234320 0.750000
O O1 0.240234 0.831838 0.802219
O O2 0.468442 0.862417 0.898929
O O3 0.319312 0.887657 0.079017
O O4 0.403044 0.799047 0.106776
O O5 0.267845 0.943485 0.322596
O O6 0.102151 0.928322 0.007507
O O7 0.301279 0.982431 0.041787
O O8 0.146296 0.950921 0.561036
O O9 0.382768 0.929441 0.660786
O O10 0.500000 0.345805 0.750000
O O11 0.579080 0.363007 0.496471
O O12 0.566431 0.270466 0.643394
O O13 0.500000 0.428489 0.250000
#
# Coordination Sequence:
#
# PCOD9284938 Si02
#       7
#     8   8   8   8   8   4   4
#     4  12  23  44  65  92 131 167 213 261 321 379
#     4  11  23  40  67  90 129 170 211 267 312 377
#     4  11  24  39  61  98 127 172 215 253 317 379
#     4  10  21  41  71  92 122 164 212 262 323 374
#     4  10  21  41  65  97 131 161 210 270 317 368
#     4  12  26  41  62  88 134 170 209 264 310 384
#     4  10  24  41  68  98 122 166 213 262 328 382
#
# _framework density 20.644763000000001
#
# number of rings (size 3 to 8) (size 9 to 14) (size 15 to 20)
#    0.500    0.667    3.333    3.000    0.000    3.333 
#    1.500    0.833    0.000    0.000    0.000    0.000 
#    0.000    0.000    0.000    0.000    0.000    0.000 
#
# Total GULP energy -134001.856392 kJ/mol
# GULP energy per Si atom -5583.410683 kJ/mol
# Density = 2.059777 g / cm^3
# Si number density = 20.644763 Si / 1000 Ang^3
#
#
#
# Elastic Constant Matrix: (Units=GPa)
#
#
# Indices 1 2 3 4 5 6 
#
# 1 16.2574 -5.3274 -6.4617 0.0000 -7.1235 0.0000
# 2 -5.3274 105.6259 -6.9851 0.0000 -0.8539 0.0000
# 3 -6.4617 -6.9851 22.5937 0.0000 9.7984 0.0000
# 4 0.0000 0.0000 0.0000 17.6241 0.0000 22.7311
# 5 -7.1235 -0.8539 9.7984 0.0000 26.5306 0.0000
# 6 0.0000 0.0000 0.0000 22.7311 0.0000 -52.7441
#
#
#
# Elastic Compliance Matrix: (Units=1/GPa)
#
#
# Indices 1 2 3 4 5 6 
#
# 1 0.076279 0.005100 0.017193 0.000000 0.014295 0.000000
# 2 0.005100 0.010026 0.004554 0.000000 0.000010 0.000000
# 3 0.017193 0.004554 0.057773 0.000000 -0.016574 0.000000
# 4 0.000000 0.000000 0.000000 0.036469 0.000000 0.015717
# 5 0.014295 0.000010 -0.016574 0.000000 0.047652 0.000000
# 6 0.000000 0.000000 0.000000 0.015717 0.000000 -0.012186
#
#
# Mechanical properties :
#
#
# Convention : Reuss Voigt Hill
#
# Bulk Modulus (GPa) = 5.05638 11.88094 8.46866
# Shear Modulus (GPa) = 21.90637 9.16554 15.53596
#
# Velocity S-wave (km/s) = 3.26100 2.10933 2.74622
# Velocity P-wave (km/s) = 4.07841 3.42050 3.76386
#
# Compressibility (1/GPa) = 0.19776996
#
# Stress axis : x y z
#
# Youngs Moduli (GPa) = 13.10975 99.74255 17.30918
#
# Poissons Ratio (x) = -0.50866 -0.29759
# Poissons Ratio (y) = -0.06686 -0.07882
# Poissons Ratio (z) = -0.22539 -0.45420
#
# Static dielectric constant tensor:
#      x y z
#    x 1.764090 0.000000 -0.011970 
#    y 0.000000 1.718940 0.000000 
#    z -0.011970 0.000000 1.730470 
# 
# From -- ./inp_files/33854.got.cif
#   From: 2010.05.17/outbox.cif.g08.bks.cpg/sg15_17_cif.got.tgz:33854.got - 2010.06.03 18:47:42.
