data_PCOD9284426
_publ_section_title
;
Structure prediction by ZEFSAII (Michael W. Deem and Ramdas Pophale) SiO2 
 PCOD9284426
Probable space group: C 2/C
;
_chemical_formula_sum "Si O2"
_cell_formula_units_Z 48
_cell_length_a 14.596663
_cell_length_b 10.669855
_cell_length_c 25.164308
_cell_angle_alpha 90.000000
_cell_angle_beta 28.431204
_cell_angle_gamma 90.000000
_cell_volume 1865.942244
_symmetry_space_group_name_H-M "C 2/C"
_symmetry_group_IT_number 15
_symmetry_cell_setting 'monoclinic'
loop_
_space_group_symop_operation_xyz
x,y,z
-x,y,1/2-z
-x,-y,-z
x,-y,1/2+z
1/2+x,1/2+y,z
1/2-x,1/2+y,1/2-z
1/2-x,1/2-y,-z
1/2+x,1/2-y,1/2+z
loop_
_atom_site_type_symbol
_atom_site_label
_atom_site_fract_x
_atom_site_fract_y
_atom_site_fract_z
Si Si1 0.795546 0.024323 0.147100
Si Si2 0.619590 0.530890 0.779892
Si Si3 0.438923 0.185406 0.561763
Si Si4 0.157824 0.488829 0.611171
Si Si5 0.297800 0.368965 0.939979
Si Si6 0.711547 0.289126 0.079461
O O1 0.858939 0.173516 0.118902
O O2 0.569129 0.986884 0.271404
O O3 0.808583 0.965303 0.080377
O O4 0.886948 0.959201 0.152565
O O5 0.820533 0.581854 0.656042
O O6 0.523112 0.395821 0.815906
O O7 0.468085 0.620480 0.827811
O O8 0.661401 0.155139 0.459655
O O9 0.384587 0.166377 0.527926
O O10 0.226098 0.521709 0.517080
O O11 0.156857 0.345398 0.629264
O O12 0.250000 0.250000 0.000000
O O13 0.750000 0.250000 0.000000
#
# Coordination Sequence:
#
# PCOD9284426 Si02
#       6
#     8   8   8   8   8   8
#     4  10  21  40  71  95 133 185 229 290 344 416
#     4  12  23  40  71 104 136 182 234 294 352 412
#     4  11  24  44  68  99 146 183 230 300 349 412
#     4  10  21  41  67  99 129 181 241 274 342 427
#     4  12  25  41  68 103 145 182 232 291 358 422
#     4  11  23  42  69 100 128 183 241 281 345 424
#
# _framework density 25.724269
#
# number of rings (size 3 to 8) (size 9 to 14) (size 15 to 20)
#    0.000    1.000    6.667    0.500    0.000    2.667 
#    0.000    0.000   14.667    0.000    0.000    0.000 
#    0.000    0.000    0.000    0.000    0.000    0.000 
#
# Total GULP energy -133789.101447 kJ/mol
# GULP energy per Si atom -5574.545894 kJ/mol
# Density = 2.566572 g / cm^3
# Si number density = 25.724269 Si / 1000 Ang^3
#
#
#
# Elastic Constant Matrix: (Units=GPa)
#
#
# Indices 1 2 3 4 5 6 
#
# 1 227.8574 11.3971 22.1929 -0.0002 -16.7098 0.0001
# 2 11.3971 89.1960 11.2422 -0.0006 -4.8689 0.0000
# 3 22.1929 11.2422 63.5276 -0.0039 5.1630 -0.0003
# 4 -0.0002 -0.0006 -0.0039 17.3922 -0.0002 -8.4402
# 5 -16.7098 -4.8689 5.1630 -0.0002 43.2469 0.0000
# 6 0.0001 0.0000 -0.0003 -8.4402 0.0000 28.5705
#
#
#
# Elastic Compliance Matrix: (Units=1/GPa)
#
#
# Indices 1 2 3 4 5 6 
#
# 1 0.004721 -0.000271 -0.001764 0.000000 0.002004 0.000000
# 2 -0.000271 0.011586 -0.002073 0.000000 0.001447 0.000000
# 3 -0.001764 -0.002073 0.016963 0.000004 -0.002940 0.000001
# 4 0.000000 0.000000 0.000004 0.067119 0.000000 0.019828
# 5 0.002004 0.001447 -0.002940 0.000000 0.024411 0.000000
# 6 0.000000 0.000000 0.000001 0.019828 0.000000 0.040859
#
#
# Mechanical properties :
#
#
# Convention : Reuss Voigt Hill
#
# Bulk Modulus (GPa) = 39.91512 52.24950 46.08231
# Shear Modulus (GPa) = 27.43808 40.22518 33.83163
#
# Velocity S-wave (km/s) = 3.26946 3.95866 3.63045
# Velocity P-wave (km/s) = 5.45919 6.42263 5.96040
#
# Compressibility (1/GPa) = 0.02505316
#
# Stress axis : x y z
#
# Youngs Moduli (GPa) = 211.81569 86.30934 58.95078
#
# Poissons Ratio (x) = 0.02343 0.10400
# Poissons Ratio (y) = 0.05751 0.12221
# Poissons Ratio (z) = 0.37367 0.17893
#
# Static dielectric constant tensor:
#      x y z
#    x 2.089940 -0.000020 -0.070830 
#    y -0.000020 12.177070 -0.000030 
#    z -0.070830 -0.000030 1.900410 
# 
# From -- ./inp_files/296057.got.cif
#   From: 2010.05.17/outbox.cif.g08.bks.cpg/sg15_149_cif.got.tgz:296057.got - 2010.06.03 18:47:42.
