data_PCOD9284616
_publ_section_title
;
Structure prediction by ZEFSAII (Michael W. Deem and Ramdas Pophale) SiO2 
 PCOD9284616
Probable space group: C 2/C
;
_chemical_formula_sum "Si O2"
_cell_formula_units_Z 52
_cell_length_a 8.020984
_cell_length_b 17.039351
_cell_length_c 18.345544
_cell_angle_alpha 90.000000
_cell_angle_beta 60.598119
_cell_angle_gamma 90.000000
_cell_volume 2184.379092
_symmetry_space_group_name_H-M "C 2/C"
_symmetry_group_IT_number 15
_symmetry_cell_setting 'monoclinic'
loop_
_space_group_symop_operation_xyz
x,y,z
-x,y,1/2-z
-x,-y,-z
x,-y,1/2+z
1/2+x,1/2+y,z
1/2-x,1/2+y,1/2-z
1/2-x,1/2-y,-z
1/2+x,1/2-y,1/2+z
loop_
_atom_site_type_symbol
_atom_site_label
_atom_site_fract_x
_atom_site_fract_y
_atom_site_fract_z
Si Si1 0.168508 0.444573 0.093350
Si Si2 0.253218 0.831180 0.543242
Si Si3 0.365862 0.697965 0.188125
Si Si4 0.753552 0.541415 0.644046
Si Si5 0.866757 0.024183 0.181544
Si Si6 0.822477 0.701549 0.552885
Si Si7 0.000000 0.673434 0.750000
O O1 0.288362 0.398372 0.007242
O O2 0.289566 0.501034 0.118864
O O3 0.084045 0.378238 0.166560
O O4 0.979228 0.479751 0.094979
O O5 0.250000 0.750000 0.500000
O O6 0.093677 0.821043 0.637953
O O7 0.474103 0.834760 0.516571
O O8 0.285599 0.611064 0.217070
O O9 0.328430 0.734658 0.116930
O O10 0.340051 0.769321 0.249050
O O11 0.708035 0.535884 0.740362
O O12 0.595653 0.485079 0.641973
O O13 0.723972 0.625255 0.610904
O O14 0.750000 0.750000 0.500000
#
# Coordination Sequence:
#
# PCOD9284616 Si02
#       7
#     8   8   8   8   8   8   4
#     4  11  20  40  68  84 124 176 209 257 331 396
#     4   9  19  38  60  92 119 163 214 254 320 380
#     4  11  23  40  64 100 122 167 220 272 328 380
#     4  10  21  41  62  94 122 174 217 257 328 392
#     4  11  23  38  66  91 134 165 210 273 332 385
#     4  10  21  41  66  93 133 168 222 271 313 399
#     4  12  18  38  72  84 126 172 220 268 316 394
#
# _framework density 23.805389999999999
#
# number of rings (size 3 to 8) (size 9 to 14) (size 15 to 20)
#    0.000    1.538    6.154    0.923    4.308    0.615 
#    2.769    1.538   13.538    0.000    0.000    0.000 
#    0.000    0.000    0.000    0.000    0.000    0.000 
#
# Total GULP energy -145045.138882 kJ/mol
# GULP energy per Si atom -5578.659188 kJ/mol
# Density = 2.375121 g / cm^3
# Si number density = 23.805390 Si / 1000 Ang^3
#
#
#
# Elastic Constant Matrix: (Units=GPa)
#
#
# Indices 1 2 3 4 5 6 
#
# 1 78.4407 27.1092 5.6513 0.0000 34.1415 0.0000
# 2 27.1092 109.5168 21.5802 0.0000 13.7634 0.0000
# 3 5.6513 21.5802 71.8450 0.0000 16.4996 0.0000
# 4 0.0000 0.0000 0.0000 41.9721 0.0000 8.5527
# 5 34.1415 13.7634 16.4996 0.0000 34.2988 0.0000
# 6 0.0000 0.0000 0.0000 8.5527 0.0000 14.6403
#
#
#
# Elastic Compliance Matrix: (Units=1/GPa)
#
#
# Indices 1 2 3 4 5 6 
#
# 1 0.024929 -0.003952 0.005127 0.000000 -0.025695 0.000000
# 2 -0.003952 0.010577 -0.003142 0.000000 0.001201 0.000000
# 3 0.005127 -0.003142 0.017247 0.000000 -0.012140 0.000000
# 4 0.000000 0.000000 0.000000 0.027045 0.000000 -0.015799
# 5 -0.025695 0.001201 -0.012140 0.000000 0.060091 0.000000
# 6 0.000000 0.000000 0.000000 -0.015799 0.000000 0.077534
#
#
# Mechanical properties :
#
#
# Convention : Reuss Voigt Hill
#
# Bulk Modulus (GPa) = 20.48345 40.94267 30.71306
# Shear Modulus (GPa) = 21.04110 31.87968 26.46039
#
# Velocity S-wave (km/s) = 2.97624 3.66345 3.33758
# Velocity P-wave (km/s) = 4.52038 5.92712 5.27089
#
# Compressibility (1/GPa) = 0.04881990
#
# Stress axis : x y z
#
# Youngs Moduli (GPa) = 40.11453 94.54053 57.98017
#
# Poissons Ratio (x) = 0.37361 -0.29727
# Poissons Ratio (y) = 0.15852 0.18218
# Poissons Ratio (z) = -0.20567 0.29705
#
# Static dielectric constant tensor:
#      x y z
#    x 1.979490 0.000000 -0.041490 
#    y 0.000000 1.973180 0.000000 
#    z -0.041490 0.000000 1.972070 
# 
# From -- ./inp_files/232067.got.cif
#   From: 2010.05.17/outbox.cif.g08.bks.cpg/sg15_117_cif.got.tgz:232067.got - 2010.06.03 18:47:42.
