data_PCOD9284234
_publ_section_title
;
Structure prediction by ZEFSAII (Michael W. Deem and Ramdas Pophale) SiO2 
 PCOD9284234
Probable space group: C 2/C
;
_chemical_formula_sum "Si O2"
_cell_formula_units_Z 40
_cell_length_a 8.270693
_cell_length_b 18.803115
_cell_length_c 13.123939
_cell_angle_alpha 90.000000
_cell_angle_beta 52.480420
_cell_angle_gamma 90.000000
_cell_volume 1618.783012
_symmetry_space_group_name_H-M "C 2/C"
_symmetry_group_IT_number 15
_symmetry_cell_setting 'monoclinic'
loop_
_space_group_symop_operation_xyz
x,y,z
-x,y,1/2-z
-x,-y,-z
x,-y,1/2+z
1/2+x,1/2+y,z
1/2-x,1/2+y,1/2-z
1/2-x,1/2-y,-z
1/2+x,1/2-y,1/2+z
loop_
_atom_site_type_symbol
_atom_site_label
_atom_site_fract_x
_atom_site_fract_y
_atom_site_fract_z
Si Si1 0.225381 0.919682 0.469780
Si Si2 0.023691 0.651040 0.355782
Si Si3 0.681585 0.519081 0.290491
Si Si4 0.174770 0.610210 0.883899
Si Si5 0.261652 0.214414 0.820912
O O1 0.036540 0.944061 0.609930
O O2 0.440845 0.910041 0.443264
O O3 0.185696 0.843874 0.431158
O O4 0.239835 0.977614 0.373152
O O5 0.159865 0.581097 0.292863
O O6 0.135077 0.713918 0.373238
O O7 0.000000 0.676999 0.250000
O O8 0.825140 0.629761 0.497399
O O9 0.704156 0.458655 0.197034
O O10 0.244772 0.675138 0.786105
O O11 0.500000 0.228771 0.750000
#
# Coordination Sequence:
#
# PCOD9284234 Si02
#       5
#     8   8   8   8   8
#     4   9  20  42  72  98 128 175 231 278 334 404
#     4  12  26  39  64  96 142 182 222 272 341 396
#     4  10  21  40  68 101 131 171 226 284 338 393
#     4  10  22  43  68  94 136 177 229 280 330 399
#     4   9  22  42  68  99 132 175 227 279 330 407
#
# _framework density 24.709923
#
# number of rings (size 3 to 8) (size 9 to 14) (size 15 to 20)
#    0.000    2.000    0.000    3.600    5.600    2.400 
#    0.000    2.000    8.800    0.000    0.000    0.000 
#    0.000    0.000    0.000    0.000    0.000    0.000 
#
# Total GULP energy -112165.786104 kJ/mol
# GULP energy per Si atom -5608.289305 kJ/mol
# Density = 2.465368 g / cm^3
# Si number density = 24.709923 Si / 1000 Ang^3
#
#
#
# Elastic Constant Matrix: (Units=GPa)
#
#
# Indices 1 2 3 4 5 6 
#
# 1 50.2478 37.9293 25.6549 0.0000 -2.0675 0.0000
# 2 37.9293 142.3300 45.0608 0.0000 -11.7613 0.0000
# 3 25.6549 45.0608 141.5414 0.0000 -12.5382 0.0000
# 4 0.0000 0.0000 0.0000 15.2483 0.0000 -10.2710
# 5 -2.0675 -11.7613 -12.5382 0.0000 31.2673 0.0000
# 6 0.0000 0.0000 0.0000 -10.2710 0.0000 -2.5968
#
#
#
# Elastic Compliance Matrix: (Units=1/GPa)
#
#
# Indices 1 2 3 4 5 6 
#
# 1 0.025947 -0.006140 -0.002904 0.000000 -0.001759 0.000000
# 2 -0.006140 0.009391 -0.001659 0.000000 0.002461 0.000000
# 3 -0.002904 -0.001659 0.008344 0.000000 0.002530 0.000000
# 4 0.000000 0.000000 0.000000 0.017898 0.000000 -0.070790
# 5 -0.001759 0.002461 0.002530 0.000000 0.033806 0.000000
# 6 0.000000 0.000000 0.000000 -0.070790 0.000000 -0.105095
#
#
# Mechanical properties :
#
#
# Convention : Reuss Voigt Hill
#
# Bulk Modulus (GPa) = 44.89306 61.26770 53.08038
# Shear Modulus (GPa) = 261.49486 23.81538 142.65512
#
# Velocity S-wave (km/s) = 10.29833 3.10788 7.60640
# Velocity P-wave (km/s) = 12.63388 6.14224 9.93333
#
# Compressibility (1/GPa) = 0.02227516
#
# Stress axis : x y z
#
# Youngs Moduli (GPa) = 38.54054 106.48739 119.85325
#
# Poissons Ratio (x) = 0.65388 0.34803
# Poissons Ratio (y) = 0.23666 0.19879
# Poissons Ratio (z) = 0.11192 0.17662
#
# Static dielectric constant tensor:
#      x y z
#    x 1.965340 0.000000 0.069080 
#    y 0.000000 1.877040 0.000000 
#    z 0.069080 0.000000 1.991360 
# 
# From -- ./inp_files/86654.got.cif
#   From: 2010.05.17/outbox.cif.g08.bks.cpg/sg15_44_cif.got.tgz:86654.got - 2010.06.03 18:47:42.
