data_PCOD9284887
_publ_section_title
;
Structure prediction by ZEFSAII (Michael W. Deem and Ramdas Pophale) SiO2 
 PCOD9284887
Probable space group: C 2/C
;
_chemical_formula_sum "Si O2"
_cell_formula_units_Z 44
_cell_length_a 24.332739
_cell_length_b 13.054941
_cell_length_c 8.899819
_cell_angle_alpha 90.000000
_cell_angle_beta 50.619038
_cell_angle_gamma 90.000000
_cell_volume 2185.220978
_symmetry_space_group_name_H-M "C 2/C"
_symmetry_group_IT_number 15
_symmetry_cell_setting 'monoclinic'
loop_
_space_group_symop_operation_xyz
x,y,z
-x,y,1/2-z
-x,-y,-z
x,-y,1/2+z
1/2+x,1/2+y,z
1/2-x,1/2+y,1/2-z
1/2-x,1/2-y,-z
1/2+x,1/2-y,1/2+z
loop_
_atom_site_type_symbol
_atom_site_label
_atom_site_fract_x
_atom_site_fract_y
_atom_site_fract_z
Si Si1 0.728784 0.750035 0.712486
Si Si2 0.438681 0.079419 0.561395
Si Si3 0.000000 0.752626 0.250000
Si Si4 0.141486 0.130038 0.478844
Si Si5 0.305574 0.465264 0.306323
Si Si6 0.154423 0.436482 0.990472
O O1 0.750000 0.750000 0.500000
O O2 0.803393 0.779215 0.661831
O O3 0.697204 0.637675 0.790606
O O4 0.675423 0.841075 0.847847
O O5 0.476192 0.178247 0.426007
O O6 0.500000 0.000000 0.500000
O O7 0.388780 0.022765 0.525627
O O8 0.392411 0.100908 0.788905
O O9 0.068409 0.822350 0.160475
O O10 0.177238 0.068616 0.554844
O O11 0.138745 0.048624 0.349951
O O12 0.227605 0.515190 0.425822
#
# Coordination Sequence:
#
# PCOD9284887 Si02
#       6
#     8   8   4   8   8   8
#     4   9  19  36  65  93 121 160 213 269 322 376
#     4  12  24  41  63  97 135 167 215 272 342 403
#     4  12  26  42  64  90 140 172 222 268 328 408
#     4  10  23  40  64  93 128 173 212 269 326 383
#     4  10  21  41  65  92 128 165 222 268 322 384
#     4  11  22  40  68  98 126 170 218 280 333 388
#
# _framework density 20.135262999999998
#
# number of rings (size 3 to 8) (size 9 to 14) (size 15 to 20)
#    0.000    1.455    1.818    4.364    5.091    2.182 
#    0.000    4.545    0.000    0.000    0.000    0.000 
#    0.000    0.000    0.000    0.000    0.000    0.000 
#
# Total GULP energy -122880.560764 kJ/mol
# GULP energy per Si atom -5585.480035 kJ/mol
# Density = 2.008943 g / cm^3
# Si number density = 20.135263 Si / 1000 Ang^3
#
#
#
# Elastic Constant Matrix: (Units=GPa)
#
#
# Indices 1 2 3 4 5 6 
#
# 1 45.9309 4.6238 21.4281 0.0000 -10.7516 0.0000
# 2 4.6238 83.0302 48.8235 0.0000 -9.7533 0.0000
# 3 21.4281 48.8235 125.0181 0.0000 -6.0583 0.0000
# 4 0.0000 0.0000 0.0000 56.4619 0.0000 -5.1637
# 5 -10.7516 -9.7533 -6.0583 0.0000 27.4779 0.0000
# 6 0.0000 0.0000 0.0000 -5.1637 0.0000 23.5318
#
#
#
# Elastic Compliance Matrix: (Units=1/GPa)
#
#
# Indices 1 2 3 4 5 6 
#
# 1 0.026226 0.002702 -0.005061 0.000000 0.010105 0.000000
# 2 0.002702 0.016419 -0.006612 0.000000 0.005428 0.000000
# 3 -0.005061 -0.006612 0.011360 0.000000 -0.001823 0.000000
# 4 0.000000 0.000000 0.000000 0.018074 0.000000 0.003966
# 5 0.010105 0.005428 -0.001823 0.000000 0.041872 0.000000
# 6 0.000000 0.000000 0.000000 0.003966 0.000000 0.043366
#
#
# Mechanical properties :
#
#
# Convention : Reuss Voigt Hill
#
# Bulk Modulus (GPa) = 27.72840 44.85889 36.29364
# Shear Modulus (GPa) = 26.69802 33.43460 30.06631
#
# Velocity S-wave (km/s) = 3.64529 4.07934 3.86841
# Velocity P-wave (km/s) = 5.61413 6.67197 6.16578
#
# Compressibility (1/GPa) = 0.03606411
#
# Stress axis : x y z
#
# Youngs Moduli (GPa) = 38.12967 60.90475 88.02596
#
# Poissons Ratio (x) = -0.16459 0.44549
# Poissons Ratio (y) = -0.10304 0.58206
# Poissons Ratio (z) = 0.19297 0.40272
#
# Static dielectric constant tensor:
#      x y z
#    x 1.726600 0.000000 0.009320 
#    y 0.000000 1.748300 0.000000 
#    z 0.009320 0.000000 1.710920 
# 
# From -- ./inp_files/47079.got.cif
#   From: 2010.05.17/outbox.cif.g08.bks.cpg/sg15_24_cif.got.tgz:47079.got - 2010.06.03 18:47:42.
