data_PCOD9284958
_publ_section_title
;
Structure prediction by ZEFSAII (Michael W. Deem and Ramdas Pophale) SiO2 
 PCOD9284958
Probable space group: C 2/C
;
_chemical_formula_sum "Si O2"
_cell_formula_units_Z 48
_cell_length_a 17.228249
_cell_length_b 7.061464
_cell_length_c 23.630476
_cell_angle_alpha 90.000000
_cell_angle_beta 138.203261
_cell_angle_gamma 90.000000
_cell_volume 1916.028758
_symmetry_space_group_name_H-M "C 2/C"
_symmetry_group_IT_number 15
_symmetry_cell_setting 'monoclinic'
loop_
_space_group_symop_operation_xyz
x,y,z
-x,y,1/2-z
-x,-y,-z
x,-y,1/2+z
1/2+x,1/2+y,z
1/2-x,1/2+y,1/2-z
1/2-x,1/2-y,-z
1/2+x,1/2-y,1/2+z
loop_
_atom_site_type_symbol
_atom_site_label
_atom_site_fract_x
_atom_site_fract_y
_atom_site_fract_z
Si Si1 0.777010 0.558023 0.440259
Si Si2 0.710203 0.188893 0.809097
Si Si3 0.111332 0.222338 0.689339
Si Si4 0.528023 0.089482 0.576284
Si Si5 0.724332 0.693773 0.121858
Si Si6 0.520500 0.597710 0.326616
O O1 0.898754 0.641994 0.527275
O O2 0.783137 0.329337 0.436611
O O3 0.658485 0.624840 0.404475
O O4 0.757133 0.620916 0.363761
O O5 0.569713 0.915512 0.637784
O O6 0.752669 0.027331 0.875742
O O7 0.783029 0.149312 0.792402
O O8 0.574343 0.230173 0.722330
O O9 0.162847 0.263402 0.778760
O O10 0.017843 0.059033 0.648887
O O11 0.615756 0.256563 0.604896
O O12 0.500000 0.000000 0.500000
O O13 0.500000 0.530500 0.250000
#
# Coordination Sequence:
#
# PCOD9284958 Si02
#       6
#     8   8   8   8   8   8
#     4  10  22  46  59  97 151 175 217 292 353 399
#     4  11  21  37  68  95 129 180 232 274 337 407
#     4  12  20  39  70  95 128 182 231 281 333 406
#     4  10  21  41  66 102 140 177 227 287 345 407
#     4  11  21  37  70  98 127 180 237 273 337 404
#     4  10  21  42  63  99 140 177 222 291 340 403
#
# _framework density 25.051815999999999
#
# number of rings (size 3 to 8) (size 9 to 14) (size 15 to 20)
#    0.000    1.333    6.667    2.000    0.000    1.333 
#    9.000    0.000    0.000    9.000    0.000    0.000 
#    0.000    0.000    0.000    0.000    0.000    0.000 
#
# Total GULP energy -133983.206204 kJ/mol
# GULP energy per Si atom -5582.633592 kJ/mol
# Density = 2.499480 g / cm^3
# Si number density = 25.051816 Si / 1000 Ang^3
#
#
#
# Elastic Constant Matrix: (Units=GPa)
#
#
# Indices 1 2 3 4 5 6 
#
# 1 139.4292 46.1404 34.8872 0.0000 42.0299 0.0000
# 2 46.1404 112.6269 41.6155 0.0000 19.6463 -0.0001
# 3 34.8872 41.6155 109.6708 0.0000 53.6950 0.0000
# 4 0.0000 0.0000 0.0000 31.7433 0.0000 -0.5880
# 5 42.0299 19.6463 53.6950 0.0000 57.0786 0.0000
# 6 0.0000 -0.0001 0.0000 -0.5880 0.0000 43.9830
#
#
#
# Elastic Compliance Matrix: (Units=1/GPa)
#
#
# Indices 1 2 3 4 5 6 
#
# 1 0.010360 -0.003584 0.002216 0.000000 -0.008479 0.000000
# 2 -0.003584 0.011568 -0.004806 0.000000 0.003178 0.000000
# 3 0.002216 -0.004806 0.018957 0.000000 -0.017811 0.000000
# 4 0.000000 0.000000 0.000000 0.031511 0.000000 0.000421
# 5 -0.008479 0.003178 -0.017811 0.000000 0.039425 0.000000
# 6 0.000000 0.000000 0.000000 0.000421 0.000000 0.022742
#
#
# Mechanical properties :
#
#
# Convention : Reuss Voigt Hill
#
# Bulk Modulus (GPa) = 35.04063 67.44590 51.24327
# Shear Modulus (GPa) = 31.96492 42.49989 37.23240
#
# Velocity S-wave (km/s) = 3.57592 4.12330 3.85933
# Velocity P-wave (km/s) = 5.57380 7.04626 6.35284
#
# Compressibility (1/GPa) = 0.02853830
#
# Stress axis : x y z
#
# Youngs Moduli (GPa) = 96.52862 86.44268 52.75085
#
# Poissons Ratio (x) = 0.30979 -0.11689
# Poissons Ratio (y) = 0.34593 0.25350
# Poissons Ratio (z) = -0.21390 0.41540
#
# Static dielectric constant tensor:
#      x y z
#    x 2.012900 0.000000 0.027670 
#    y 0.000000 2.090090 0.000000 
#    z 0.027670 0.000000 2.012680 
# 
# From -- ./inp_files/317671.got.cif
#   From: 2010.05.17/outbox.cif.g08.bks.cpg/sg15_159_cif.got.tgz:317671.got - 2010.06.03 18:47:42.
