data_PCOD9284533
_publ_section_title
;
Structure prediction by ZEFSAII (Michael W. Deem and Ramdas Pophale) SiO2 
 PCOD9284533
Probable space group: C 2/C
;
_chemical_formula_sum "Si O2"
_cell_formula_units_Z 48
_cell_length_a 6.320277
_cell_length_b 15.242935
_cell_length_c 28.587218
_cell_angle_alpha 90.000000
_cell_angle_beta 133.228903
_cell_angle_gamma 90.000000
_cell_volume 2006.686861
_symmetry_space_group_name_H-M "C 2/C"
_symmetry_group_IT_number 15
_symmetry_cell_setting 'monoclinic'
loop_
_space_group_symop_operation_xyz
x,y,z
-x,y,1/2-z
-x,-y,-z
x,-y,1/2+z
1/2+x,1/2+y,z
1/2-x,1/2+y,1/2-z
1/2-x,1/2-y,-z
1/2+x,1/2-y,1/2+z
loop_
_atom_site_type_symbol
_atom_site_label
_atom_site_fract_x
_atom_site_fract_y
_atom_site_fract_z
Si Si1 0.881514 0.068334 0.581534
Si Si2 0.121911 0.335771 0.958239
Si Si3 0.496101 0.848438 0.196121
Si Si4 0.237030 0.900235 0.614958
Si Si5 0.278456 0.480876 0.169418
Si Si6 0.959876 0.153048 0.322702
O O1 0.683541 0.093781 0.507982
O O2 0.753443 0.063460 0.614477
O O3 0.169579 0.130757 0.628032
O O4 0.993118 0.971398 0.587377
O O5 0.305522 0.345744 0.938177
O O6 0.783096 0.335446 0.894140
O O7 0.250000 0.250000 0.000000
O O8 0.500000 0.882121 0.250000
O O9 0.718759 0.903381 0.197806
O O10 0.574021 0.745151 0.208903
O O11 0.263209 0.849781 0.667667
O O12 0.515886 0.955937 0.643375
O O13 0.532453 0.556907 0.201845
#
# Coordination Sequence:
#
# PCOD9284533 Si02
#       6
#     8   8   8   8   8   8
#     4  10  21  41  61  87 123 162 206 255 311 377
#     4  11  21  34  60  92 125 162 205 251 314 381
#     4  11  24  43  64  91 120 163 214 261 318 370
#     4   9  21  38  60  91 126 161 200 252 313 378
#     4   9  22  42  64  89 125 162 208 258 313 377
#     4  10  22  41  62  94 126 161 208 258 317 380
#
# _framework density 23.920024999999999
#
# number of rings (size 3 to 8) (size 9 to 14) (size 15 to 20)
#    0.000    2.000    1.667    0.500    2.333   10.000 
#    9.000    0.000    0.000    0.000    0.000    0.000 
#    0.000    0.000    0.000    0.000    0.000    0.000 
#
# Total GULP energy -133953.503175 kJ/mol
# GULP energy per Si atom -5581.395966 kJ/mol
# Density = 2.386558 g / cm^3
# Si number density = 23.920025 Si / 1000 Ang^3
#
#
#
# Elastic Constant Matrix: (Units=GPa)
#
#
# Indices 1 2 3 4 5 6 
#
# 1 158.7214 37.7901 41.1394 0.0000 -51.0615 0.0000
# 2 37.7901 102.5077 7.7534 0.0000 -26.7452 0.0000
# 3 41.1394 7.7534 62.8244 0.0001 -20.5154 0.0000
# 4 0.0000 0.0000 0.0001 16.5030 0.0000 -18.3463
# 5 -51.0615 -26.7452 -20.5154 0.0000 54.7797 0.0000
# 6 0.0000 0.0000 0.0000 -18.3463 0.0000 24.4554
#
#
#
# Elastic Compliance Matrix: (Units=1/GPa)
#
#
# Indices 1 2 3 4 5 6 
#
# 1 0.009979 -0.001537 -0.004047 0.000000 0.007035 0.000000
# 2 -0.001537 0.011428 0.001083 0.000000 0.004552 0.000000
# 3 -0.004047 0.001083 0.019796 -0.000001 0.004170 -0.000001
# 4 0.000000 0.000000 -0.000001 0.365010 -0.000001 0.273829
# 5 0.007035 0.004552 0.004170 -0.000001 0.028597 -0.000001
# 6 0.000000 0.000000 -0.000001 0.273829 -0.000001 0.246316
#
#
# Mechanical properties :
#
#
# Convention : Reuss Voigt Hill
#
# Bulk Modulus (GPa) = 31.05704 55.26882 43.16293
# Shear Modulus (GPa) = 7.13409 34.97233 21.05321
#
# Velocity S-wave (km/s) = 1.72886 3.82783 2.96995
# Velocity P-wave (km/s) = 4.12276 6.53393 5.46303
#
# Compressibility (1/GPa) = 0.03219882
#
# Stress axis : x y z
#
# Youngs Moduli (GPa) = 100.21517 87.50581 50.51609
#
# Poissons Ratio (x) = 0.13450 0.20445
# Poissons Ratio (y) = 0.15403 -0.05469
# Poissons Ratio (z) = 0.40560 -0.09474
#
# Static dielectric constant tensor:
#      x y z
#    x 2.118980 0.000000 -0.029880 
#    y 0.000000 1.986230 0.000000 
#    z -0.029880 0.000000 2.036710 
# 
# From -- ./inp_files/305287.got.cif
#   From: 2010.05.17/outbox.cif.g08.bks.cpg/sg15_153_cif.got.tgz:305287.got - 2010.06.03 18:47:42.
