data_PCOD9284250
_publ_section_title
;
Structure prediction by ZEFSAII (Michael W. Deem and Ramdas Pophale) SiO2 
 PCOD9284250
Probable space group: C 2/C
;
_chemical_formula_sum "Si O2"
_cell_formula_units_Z 56
_cell_length_a 25.553171
_cell_length_b 8.639930
_cell_length_c 14.212280
_cell_angle_alpha 90.000000
_cell_angle_beta 120.687217
_cell_angle_gamma 90.000000
_cell_volume 2698.361549
_symmetry_space_group_name_H-M "C 2/C"
_symmetry_group_IT_number 15
_symmetry_cell_setting 'monoclinic'
loop_
_space_group_symop_operation_xyz
x,y,z
-x,y,1/2-z
-x,-y,-z
x,-y,1/2+z
1/2+x,1/2+y,z
1/2-x,1/2+y,1/2-z
1/2-x,1/2-y,-z
1/2+x,1/2-y,1/2+z
loop_
_atom_site_type_symbol
_atom_site_label
_atom_site_fract_x
_atom_site_fract_y
_atom_site_fract_z
Si Si1 0.784202 0.359867 0.102700
Si Si2 0.303717 0.366123 0.947293
Si Si3 0.500000 0.206674 0.750000
Si Si4 0.820841 0.193552 0.678472
Si Si5 0.487867 0.547926 0.381833
Si Si6 0.600900 0.954484 0.810335
Si Si7 0.354334 0.625814 0.299451
Si Si8 0.500000 0.274334 0.250000
O O1 0.733079 0.474089 0.094796
O O2 0.837252 0.460490 0.099700
O O3 0.815611 0.257253 0.211795
O O4 0.750000 0.250000 0.000000
O O5 0.249439 0.243704 0.881155
O O6 0.351925 0.352233 0.908923
O O7 0.329162 0.351527 0.075846
O O8 0.474744 0.324021 0.645108
O O9 0.551880 0.093246 0.754054
O O10 0.867248 0.338337 0.738009
O O11 0.830646 0.045045 0.751089
O O12 0.500000 0.500000 0.500000
O O13 0.421766 0.624140 0.322290
O O14 0.486658 0.388827 0.323193
O O15 0.557762 0.834071 0.825941
#
# Coordination Sequence:
#
# PCOD9284250 Si02
#       8
#     8   8   4   8   8   8   8   4
#     4  11  22  40  64  95 127 167 210 263 322 393
#     4  10  23  38  63  92 131 166 215 260 329 389
#     4  10  22  46  66  92 130 172 212 274 322 386
#     4  10  21  41  62  93 127 172 211 266 322 393
#     4  11  25  41  67  96 123 165 224 269 324 378
#     4  10  21  40  68  89 128 174 208 260 330 377
#     4  12  22  40  63  92 130 168 215 272 323 385
#     4  10  22  44  66  88 128 172 212 272 322 376
#
# _framework density 20.753335
#
# number of rings (size 3 to 8) (size 9 to 14) (size 15 to 20)
#    0.000    1.429    4.286    0.857    2.000    1.143 
#    0.000    4.286    3.143    0.000    0.000    0.000 
#    0.000    0.000    0.000    0.000    0.000    0.000 
#
# Total GULP energy -155943.351114 kJ/mol
# GULP energy per Si atom -5569.405397 kJ/mol
# Density = 2.070610 g / cm^3
# Si number density = 20.753335 Si / 1000 Ang^3
#
#
#
# Elastic Constant Matrix: (Units=GPa)
#
#
# Indices 1 2 3 4 5 6 
#
# 1 71.2847 31.7819 8.6028 0.0000 -8.6281 0.0000
# 2 31.7819 120.6849 33.8143 0.0000 -5.0984 0.0000
# 3 8.6028 33.8143 60.7538 0.0000 -21.6729 0.0000
# 4 0.0000 0.0000 0.0000 23.6350 0.0000 16.9008
# 5 -8.6281 -5.0984 -21.6729 0.0000 29.6662 0.0000
# 6 0.0000 0.0000 0.0000 16.9008 0.0000 26.7701
#
#
#
# Elastic Compliance Matrix: (Units=1/GPa)
#
#
# Indices 1 2 3 4 5 6 
#
# 1 0.016568 -0.004781 0.002355 0.000000 0.005717 0.000000
# 2 -0.004781 0.011415 -0.007401 0.000000 -0.004836 0.000000
# 3 0.002355 -0.007401 0.027099 0.000000 0.019210 0.000000
# 4 0.000000 0.000000 0.000000 0.077131 0.000000 -0.048695
# 5 0.005717 -0.004836 0.019210 0.000000 0.048574 0.000000
# 6 0.000000 0.000000 0.000000 -0.048695 0.000000 0.068098
#
#
# Mechanical properties :
#
#
# Convention : Reuss Voigt Hill
#
# Bulk Modulus (GPa) = 28.22845 44.56904 36.39874
# Shear Modulus (GPa) = 17.83499 27.91589 22.87544
#
# Velocity S-wave (km/s) = 2.93470 3.67158 3.32362
# Velocity P-wave (km/s) = 5.01146 6.28460 5.68379
#
# Compressibility (1/GPa) = 0.03542526
#
# Stress axis : x y z
#
# Youngs Moduli (GPa) = 60.35820 87.60711 36.90215
#
# Poissons Ratio (x) = 0.41887 -0.08689
# Poissons Ratio (y) = 0.28859 0.27312
# Poissons Ratio (z) = -0.14212 0.64840
#
# Static dielectric constant tensor:
#      x y z
#    x 1.784430 0.000000 0.006820 
#    y 0.000000 1.647590 0.000000 
#    z 0.006820 0.000000 1.733160 
# 
# From -- ./inp_files/172005.got.cif
#   From: 2010.05.17/outbox.cif.g08.bks.cpg/sg15_87_cif.got.tgz:172005.got - 2010.06.03 18:47:42.
