data_PCOD9284051
_publ_section_title
;
Structure prediction by ZEFSAII (Michael W. Deem and Ramdas Pophale) SiO2 
 PCOD9284051
Probable space group: C 2/C
;
_chemical_formula_sum "Si O2"
_cell_formula_units_Z 32
_cell_length_a 13.746636
_cell_length_b 8.051913
_cell_length_c 11.146222
_cell_angle_alpha 90.000000
_cell_angle_beta 87.542352
_cell_angle_gamma 90.000000
_cell_volume 1232.603918
_symmetry_space_group_name_H-M "C 2/C"
_symmetry_group_IT_number 15
_symmetry_cell_setting 'monoclinic'
loop_
_space_group_symop_operation_xyz
x,y,z
-x,y,1/2-z
-x,-y,-z
x,-y,1/2+z
1/2+x,1/2+y,z
1/2-x,1/2+y,1/2-z
1/2-x,1/2-y,-z
1/2+x,1/2-y,1/2+z
loop_
_atom_site_type_symbol
_atom_site_label
_atom_site_fract_x
_atom_site_fract_y
_atom_site_fract_z
Si Si1 0.642915 0.797441 0.964388
Si Si2 0.189686 0.222233 0.708952
Si Si3 0.612571 0.941086 0.278529
Si Si4 0.553606 0.548382 0.119568
O O1 0.619393 0.976832 0.912691
O O2 0.750000 0.750000 0.000000
O O3 0.581847 0.734849 0.079058
O O4 0.635908 0.693365 0.840300
O O5 0.161659 0.414620 0.690694
O O6 0.143312 0.082010 0.627382
O O7 0.500000 0.934619 0.250000
O O8 0.694367 0.797602 0.283677
O O9 0.500000 0.552212 0.250000
O O10 0.500000 0.500000 0.000000
#
# Coordination Sequence:
#
# PCOD9284051 Si02
#       4
#     8   8   8   8
#     4  10  21  40  66  92 142 181 224 301 347 409
#     4  10  21  40  69 100 136 184 232 290 355 415
#     4  10  21  42  69  97 142 181 233 291 355 415
#     4  12  20  36  68 100 132 182 237 284 351 420
#
# _framework density 25.961302
#
# number of rings (size 3 to 8) (size 9 to 14) (size 15 to 20)
#    1.500    0.000    5.000    2.250    0.000    0.000 
#    0.000    8.750    5.500    0.000    0.000    0.000 
#    0.000    0.000    0.000    0.000    0.000    0.000 
#
# Total GULP energy -89194.199322 kJ/mol
# GULP energy per Si atom -5574.637458 kJ/mol
# Density = 2.590221 g / cm^3
# Si number density = 25.961302 Si / 1000 Ang^3
#
#
#
# Elastic Constant Matrix: (Units=GPa)
#
#
# Indices 1 2 3 4 5 6 
#
# 1 172.2171 52.6628 50.4106 0.0000 -2.5579 0.0000
# 2 52.6628 76.7147 -0.9353 0.0000 -16.7654 0.0000
# 3 50.4106 -0.9353 110.1237 0.0000 8.2990 0.0000
# 4 0.0000 0.0000 0.0000 46.1580 0.0000 -11.5233
# 5 -2.5579 -16.7654 8.2990 0.0000 38.6219 0.0000
# 6 0.0000 0.0000 0.0000 -11.5233 0.0000 33.4745
#
#
#
# Elastic Compliance Matrix: (Units=1/GPa)
#
#
# Indices 1 2 3 4 5 6 
#
# 1 0.008960 -0.006496 -0.004055 0.000000 -0.001355 0.000000
# 2 -0.006496 0.019125 0.002585 0.000000 0.007316 0.000000
# 3 -0.004055 0.002585 0.011074 0.000000 -0.001526 0.000000
# 4 0.000000 0.000000 0.000000 0.023702 0.000000 0.008159
# 5 -0.001355 0.007316 -0.001526 0.000000 0.029306 0.000000
# 6 0.000000 0.000000 0.000000 0.008159 0.000000 0.032682
#
#
# Mechanical properties :
#
#
# Convention : Reuss Voigt Hill
#
# Bulk Modulus (GPa) = 43.05365 62.59241 52.82303
# Shear Modulus (GPa) = 33.66477 40.77871 37.22174
#
# Velocity S-wave (km/s) = 3.60492 3.96757 3.79058
# Velocity P-wave (km/s) = 5.82641 6.71945 6.28880
#
# Compressibility (1/GPa) = 0.02322684
#
# Stress axis : x y z
#
# Youngs Moduli (GPa) = 111.60888 52.28657 90.30434
#
# Poissons Ratio (x) = 0.33967 0.36614
# Poissons Ratio (y) = 0.72505 -0.23342
# Poissons Ratio (z) = 0.45252 -0.13515
#
# Static dielectric constant tensor:
#      x y z
#    x 2.176400 0.000000 0.045490 
#    y 0.000000 2.012760 0.000000 
#    z 0.045490 0.000000 2.074400 
# 
# From -- ./inp_files/37363.got.cif
#   From: 2010.05.17/outbox.cif.g08.bks.cpg/sg15_19_cif.got.tgz:37363.got - 2010.06.03 18:47:42.
