data_PCOD9284026
_publ_section_title
;
Structure prediction by ZEFSAII (Michael W. Deem and Ramdas Pophale) SiO2 
 PCOD9284026
Probable space group: C 2/C
;
_chemical_formula_sum "Si O2"
_cell_formula_units_Z 60
_cell_length_a 25.690286
_cell_length_b 14.360807
_cell_length_c 19.852444
_cell_angle_alpha 90.000000
_cell_angle_beta 20.920550
_cell_angle_gamma 90.000000
_cell_volume 2615.283832
_symmetry_space_group_name_H-M "C 2/C"
_symmetry_group_IT_number 15
_symmetry_cell_setting 'monoclinic'
loop_
_space_group_symop_operation_xyz
x,y,z
-x,y,1/2-z
-x,-y,-z
x,-y,1/2+z
1/2+x,1/2+y,z
1/2-x,1/2+y,1/2-z
1/2-x,1/2-y,-z
1/2+x,1/2-y,1/2+z
loop_
_atom_site_type_symbol
_atom_site_label
_atom_site_fract_x
_atom_site_fract_y
_atom_site_fract_z
Si Si1 0.188099 0.306796 0.721236
Si Si2 0.146746 0.027201 0.643907
Si Si3 0.629376 0.998654 0.252127
Si Si4 0.014860 0.232411 0.806877
Si Si5 0.609815 0.005250 0.558760
Si Si6 0.000000 0.127698 0.250000
Si Si7 0.568113 0.789899 0.368539
Si Si8 0.632989 0.222204 0.510443
O O1 0.185168 0.418715 0.731440
O O2 0.350652 0.269215 0.534278
O O3 0.129628 0.283182 0.716564
O O4 0.063249 0.271971 0.921706
O O5 0.260606 0.003061 0.445294
O O6 0.070822 0.126548 0.729120
O O7 0.232871 0.030277 0.610021
O O8 0.035500 0.941836 0.768562
O O9 0.468280 0.020489 0.416363
O O10 0.612959 0.898840 0.307063
O O11 0.000000 0.273355 0.750000
O O12 0.500000 0.975305 0.750000
O O13 0.619978 0.117106 0.550470
O O14 0.125975 0.199725 0.076655
O O15 0.502630 0.761760 0.375156
O O16 0.712506 0.733995 0.212130
#
# Coordination Sequence:
#
# PCOD9284026 Si02
#       8
#     8   8   8   8   8   4   8   8
#     4  12  26  45  67  92 128 174 221 266 332 389
#     4  11  21  39  60  97 130 159 211 272 332 367
#     4  10  21  40  66  90 127 170 212 260 326 384
#     4  12  26  44  69  97 125 163 225 287 327 375
#     4   9  20  34  61  97 132 163 202 263 320 387
#     4  12  20  34  68  94 134 166 212 272 322 378
#     4  11  24  43  64  94 136 176 213 259 319 405
#     4  11  22  38  64  98 130 172 214 258 319 387
#
# _framework density 22.942060999999999
#
# number of rings (size 3 to 8) (size 9 to 14) (size 15 to 20)
#    0.000    1.067    4.000    2.400    1.867    1.600 
#    0.000    0.000    0.000    3.200    0.000    0.000 
#    0.000    0.000    0.000    0.000    0.000    0.000 
#
# Total GULP energy -167696.775160 kJ/mol
# GULP energy per Si atom -5589.892505 kJ/mol
# Density = 2.288984 g / cm^3
# Si number density = 22.942061 Si / 1000 Ang^3
#
#
#
# Elastic Constant Matrix: (Units=GPa)
#
#
# Indices 1 2 3 4 5 6 
#
# 1 32.5027 4.1139 -0.0336 0.0000 -13.2962 0.0000
# 2 4.1139 93.8200 10.8905 0.0000 -5.8846 0.0000
# 3 -0.0336 10.8905 96.8549 0.0002 -6.6129 0.0000
# 4 0.0000 0.0000 0.0002 16.4269 0.0000 -7.4279
# 5 -13.2962 -5.8846 -6.6129 0.0000 39.9408 -0.0001
# 6 0.0000 0.0000 0.0000 -7.4279 -0.0001 15.1231
#
#
#
# Elastic Compliance Matrix: (Units=1/GPa)
#
#
# Indices 1 2 3 4 5 6 
#
# 1 0.035762 -0.000928 0.000931 0.000000 0.011923 0.000000
# 2 -0.000928 0.010902 -0.001151 0.000000 0.001107 0.000000
# 3 0.000931 -0.001151 0.010584 0.000000 0.001893 0.000000
# 4 0.000000 0.000000 0.000000 0.078256 0.000000 0.038437
# 5 0.011923 0.001107 0.001893 0.000000 0.029482 0.000000
# 6 0.000000 0.000000 0.000000 0.038437 0.000000 0.085003
#
#
# Mechanical properties :
#
#
# Convention : Reuss Voigt Hill
#
# Bulk Modulus (GPa) = 18.19768 28.12434 23.16101
# Shear Modulus (GPa) = 18.47722 28.17862 23.32792
#
# Velocity S-wave (km/s) = 2.84101 3.50844 3.19222
# Velocity P-wave (km/s) = 4.32562 5.35702 4.86871
#
# Compressibility (1/GPa) = 0.05495205
#
# Stress axis : x y z
#
# Youngs Moduli (GPa) = 27.96236 91.72295 94.48540
#
# Poissons Ratio (x) = 0.08515 -0.08795
# Poissons Ratio (y) = 0.02596 0.10872
# Poissons Ratio (z) = -0.02603 0.10554
#
# Static dielectric constant tensor:
#      x y z
#    x 1.892040 0.000000 0.013210 
#    y 0.000000 1.824660 0.000000 
#    z 0.013210 0.000000 1.909770 
# 
# From -- ./inp_files/257841.got.cif
#   From: 2010.05.17/outbox.cif.g08.bks.cpg/sg15_129_cif.got.tgz:257841.got - 2010.06.03 18:47:42.
