data_PCOD9284500
_publ_section_title
;
Structure prediction by ZEFSAII (Michael W. Deem and Ramdas Pophale) SiO2 
 PCOD9284500
Probable space group: C 2/C
;
_chemical_formula_sum "Si O2"
_cell_formula_units_Z 48
_cell_length_a 15.352883
_cell_length_b 11.587463
_cell_length_c 22.809313
_cell_angle_alpha 90.000000
_cell_angle_beta 33.966780
_cell_angle_gamma 90.000000
_cell_volume 2267.141410
_symmetry_space_group_name_H-M "C 2/C"
_symmetry_group_IT_number 15
_symmetry_cell_setting 'monoclinic'
loop_
_space_group_symop_operation_xyz
x,y,z
-x,y,1/2-z
-x,-y,-z
x,-y,1/2+z
1/2+x,1/2+y,z
1/2-x,1/2+y,1/2-z
1/2-x,1/2-y,-z
1/2+x,1/2-y,1/2+z
loop_
_atom_site_type_symbol
_atom_site_label
_atom_site_fract_x
_atom_site_fract_y
_atom_site_fract_z
Si Si1 0.384450 0.748499 0.262452
Si Si2 0.933357 0.334979 0.517640
Si Si3 0.336231 0.020985 0.377160
Si Si4 0.776326 0.991410 0.180842
Si Si5 0.444687 0.382856 0.935612
Si Si6 0.517576 0.939390 0.587020
O O1 0.500000 0.782511 0.250000
O O2 0.247957 0.667851 0.363421
O O3 0.295789 0.862373 0.286401
O O4 0.491339 0.679876 0.157374
O O5 0.972989 0.211099 0.470005
O O6 0.028399 0.359977 0.523954
O O7 0.957534 0.433264 0.455102
O O8 0.500000 0.012946 0.250000
O O9 0.227931 0.048383 0.381583
O O10 0.237608 0.913870 0.459548
O O11 0.376785 0.087069 0.414942
O O12 0.053384 0.993872 0.887047
O O13 0.656982 0.059257 0.289384
#
# Coordination Sequence:
#
# PCOD9284500 Si02
#       6
#     8   8   8   8   8   8
#     4  12  24  39  64  98 125 161 212 257 312 372
#     4  11  23  37  63  89 130 166 206 253 319 371
#     4  10  22  39  64  89 127 162 209 254 307 364
#     4  11  22  39  62  95 127 159 206 265 304 367
#     4  12  24  39  65  94 125 166 210 256 311 372
#     4  10  21  41  59  92 128 169 200 261 315 368
#
# _framework density 21.172035999999999
#
# number of rings (size 3 to 8) (size 9 to 14) (size 15 to 20)
#    0.000    1.000    5.000    3.000    0.000    1.333 
#    0.000    0.833    0.000    0.000    0.000    0.000 
#    0.000    0.000    0.000    0.000    0.000    0.000 
#
# Total GULP energy -133682.122366 kJ/mol
# GULP energy per Si atom -5570.088432 kJ/mol
# Density = 2.112385 g / cm^3
# Si number density = 21.172036 Si / 1000 Ang^3
#
#
#
# Elastic Constant Matrix: (Units=GPa)
#
#
# Indices 1 2 3 4 5 6 
#
# 1 79.6025 15.6597 22.0597 -0.0001 18.7220 0.0000
# 2 15.6597 28.3039 15.1615 -0.0002 -2.7234 0.0001
# 3 22.0597 15.1615 109.1254 -0.0008 13.2655 0.0003
# 4 -0.0001 -0.0002 -0.0008 23.7917 0.0003 0.0029
# 5 18.7220 -2.7234 13.2655 0.0003 32.6958 -0.0001
# 6 0.0000 0.0001 0.0003 0.0029 -0.0001 23.3715
#
#
#
# Elastic Compliance Matrix: (Units=1/GPa)
#
#
# Indices 1 2 3 4 5 6 
#
# 1 0.017209 -0.010080 -0.000819 0.000000 -0.010362 0.000000
# 2 -0.010080 0.045079 -0.005663 0.000000 0.011824 0.000000
# 3 -0.000819 -0.005663 0.010641 0.000000 -0.004320 0.000000
# 4 0.000000 0.000000 0.000000 0.042032 -0.000001 -0.000005
# 5 -0.010362 0.011824 -0.004320 -0.000001 0.039256 0.000000
# 6 0.000000 0.000000 0.000000 -0.000005 0.000000 0.042787
#
#
# Mechanical properties :
#
#
# Convention : Reuss Voigt Hill
#
# Bulk Modulus (GPa) = 25.12155 35.86597 30.49376
# Shear Modulus (GPa) = 20.54269 26.91517 23.72893
#
# Velocity S-wave (km/s) = 3.11830 3.56934 3.35142
# Velocity P-wave (km/s) = 4.98561 5.82786 5.42311
#
# Compressibility (1/GPa) = 0.03980646
#
# Stress axis : x y z
#
# Youngs Moduli (GPa) = 58.10829 22.18338 93.97400
#
# Poissons Ratio (x) = 0.22360 0.07695
# Poissons Ratio (y) = 0.58572 0.53216
# Poissons Ratio (z) = 0.04758 0.12562
#
# Static dielectric constant tensor:
#      x y z
#    x 1.809510 0.000000 0.011060 
#    y 0.000000 1.793490 0.000000 
#    z 0.011060 0.000000 1.792640 
# 
# From -- ./inp_files/199900.got.cif
#   From: 2010.05.17/outbox.cif.g08.bks.cpg/sg15_100_cif.got.tgz:199900.got - 2010.06.03 18:47:42.
