data_PCOD9284842
_publ_section_title
;
Structure prediction by ZEFSAII (Michael W. Deem and Ramdas Pophale) SiO2 
 PCOD9284842
Probable space group: C 2/C
;
_chemical_formula_sum "Si O2"
_cell_formula_units_Z 40
_cell_length_a 9.078710
_cell_length_b 26.853160
_cell_length_c 9.742008
_cell_angle_alpha 90.000000
_cell_angle_beta 42.605276
_cell_angle_gamma 90.000000
_cell_volume 1607.757734
_symmetry_space_group_name_H-M "C 2/C"
_symmetry_group_IT_number 15
_symmetry_cell_setting 'monoclinic'
loop_
_space_group_symop_operation_xyz
x,y,z
-x,y,1/2-z
-x,-y,-z
x,-y,1/2+z
1/2+x,1/2+y,z
1/2-x,1/2+y,1/2-z
1/2-x,1/2-y,-z
1/2+x,1/2-y,1/2+z
loop_
_atom_site_type_symbol
_atom_site_label
_atom_site_fract_x
_atom_site_fract_y
_atom_site_fract_z
Si Si1 0.060734 0.339431 0.985095
Si Si2 0.857276 0.847061 0.028933
Si Si3 0.131820 0.430662 0.539141
Si Si4 0.062026 0.053743 0.904793
Si Si5 0.948950 0.760904 0.422127
O O1 0.857712 0.343757 0.227637
O O2 0.013664 0.383201 0.906695
O O3 0.054171 0.286823 0.918835
O O4 0.275127 0.338223 0.931367
O O5 0.914002 0.905262 0.995279
O O6 0.017352 0.809379 0.002707
O O7 0.219102 0.453005 0.336489
O O8 0.364088 0.422275 0.452832
O O9 0.000000 0.458580 0.750000
O O10 0.000000 0.000000 0.000000
O O11 0.675500 0.735576 0.645225
#
# Coordination Sequence:
#
# PCOD9284842 Si02
#       5
#     8   8   8   8   8
#     4  10  21  41  65 101 137 183 232 284 357 424
#     4  10  22  41  65  96 142 182 231 296 347 427
#     4  10  22  45  72 100 138 182 238 293 355 430
#     4  10  23  46  71 100 138 186 243 300 358 423
#     4  12  22  37  65  97 137 180 225 276 350 423
#
# _framework density 24.879370000000002
#
# number of rings (size 3 to 8) (size 9 to 14) (size 15 to 20)
#    0.000    1.600    2.000    2.400    2.800    0.800 
#   14.400    2.000    0.000    0.000    0.000    0.000 
#    0.000    0.000    0.000    0.000    0.000    0.200 
#
# Total GULP energy -111437.433586 kJ/mol
# GULP energy per Si atom -5571.871679 kJ/mol
# Density = 2.482274 g / cm^3
# Si number density = 24.879370 Si / 1000 Ang^3
#
#
#
# Elastic Constant Matrix: (Units=GPa)
#
#
# Indices 1 2 3 4 5 6 
#
# 1 186.1417 96.8936 40.0804 0.0000 8.3031 0.0000
# 2 96.8936 192.6682 44.0854 0.0000 23.9998 0.0000
# 3 40.0804 44.0854 103.8643 0.0000 -11.5046 0.0000
# 4 0.0000 0.0000 0.0000 105.8571 0.0000 -87.5253
# 5 8.3031 23.9998 -11.5046 0.0000 43.0987 0.0000
# 6 0.0000 0.0000 0.0000 -87.5253 0.0000 80.7612
#
#
#
# Elastic Compliance Matrix: (Units=1/GPa)
#
#
# Indices 1 2 3 4 5 6 
#
# 1 0.007463 -0.003445 -0.001406 0.000000 0.000105 0.000000
# 2 -0.003445 0.008083 -0.002604 0.000000 -0.004532 0.000000
# 3 -0.001406 -0.002604 0.011816 0.000000 0.004875 0.000000
# 4 0.000000 0.000000 0.000000 0.090900 0.000000 0.098514
# 5 0.000105 -0.004532 0.004875 0.000000 0.027007 0.000000
# 6 0.000000 0.000000 0.000000 0.098514 0.000000 0.119147
#
#
# Mechanical properties :
#
#
# Convention : Reuss Voigt Hill
#
# Bulk Modulus (GPa) = 80.30282 93.86587 87.08435
# Shear Modulus (GPa) = 17.63811 66.05105 41.84458
#
# Velocity S-wave (km/s) = 2.66549 5.15812 4.10554
# Velocity P-wave (km/s) = 6.46684 8.56068 7.58634
#
# Compressibility (1/GPa) = 0.01245286
#
# Stress axis : x y z
#
# Youngs Moduli (GPa) = 133.98573 123.71755 84.63309
#
# Poissons Ratio (x) = 0.42617 0.11903
# Poissons Ratio (y) = 0.46154 0.22035
# Poissons Ratio (z) = 0.18843 0.32211
#
# Static dielectric constant tensor:
#      x y z
#    x 1.954760 0.000000 -0.154090 
#    y 0.000000 1.862580 0.000000 
#    z -0.154090 0.000000 2.743150 
# 
# From -- ./inp_files/7333.got.cif
#   From: 2010.05.17/outbox.cif.g08.bks.cpg/sg15_4_cif.got.tgz:7333.got - 2010.06.03 18:47:42.
