data_PCOD9284197
_publ_section_title
;
Structure prediction by ZEFSAII (Michael W. Deem and Ramdas Pophale) SiO2 
 PCOD9284197
Probable space group: C 2/C
;
_chemical_formula_sum "Si O2"
_cell_formula_units_Z 52
_cell_length_a 12.258907
_cell_length_b 29.308624
_cell_length_c 7.917681
_cell_angle_alpha 90.000000
_cell_angle_beta 59.125465
_cell_angle_gamma 90.000000
_cell_volume 2441.635230
_symmetry_space_group_name_H-M "C 2/C"
_symmetry_group_IT_number 15
_symmetry_cell_setting 'monoclinic'
loop_
_space_group_symop_operation_xyz
x,y,z
-x,y,1/2-z
-x,-y,-z
x,-y,1/2+z
1/2+x,1/2+y,z
1/2-x,1/2+y,1/2-z
1/2-x,1/2-y,-z
1/2+x,1/2-y,1/2+z
loop_
_atom_site_type_symbol
_atom_site_label
_atom_site_fract_x
_atom_site_fract_y
_atom_site_fract_z
Si Si1 0.340221 0.564199 0.193220
Si Si2 0.500000 0.053798 0.750000
Si Si3 0.395295 0.798362 0.481852
Si Si4 0.230311 0.031386 0.880601
Si Si5 0.080051 0.893483 0.356380
Si Si6 0.879806 0.805893 0.970409
Si Si7 0.581182 0.889154 0.851609
O O1 0.309199 0.552692 0.410316
O O2 0.338519 0.515813 0.099761
O O3 0.227009 0.595471 0.212626
O O4 0.474139 0.587827 0.068890
O O5 0.380934 0.024399 0.780151
O O6 0.536377 0.084869 0.559017
O O7 0.500000 0.803473 0.250000
O O8 0.253530 0.808071 0.523758
O O9 0.395419 0.745129 0.531551
O O10 0.424690 0.835484 0.600603
O O11 0.192001 0.069045 0.771728
O O12 0.125001 0.844709 0.384679
O O13 0.000000 0.891024 0.250000
O O14 0.000000 0.813272 0.750000
O O15 0.500000 0.900138 0.750000
#
# Coordination Sequence:
#
# PCOD9284197 Si02
#       7
#     8   4   8   8   8   8   8
#     4  11  25  42  64  93 128 171 219 270 332 391
#     4  10  24  42  64  92 130 172 218 268 342 376
#     4  10  21  40  67  96 129 175 218 272 335 398
#     4  11  24  42  66  89 129 170 217 275 324 399
#     4  12  25  40  64  94 133 171 219 272 326 395
#     4  10  21  41  67  93 130 174 219 267 336 394
#     4  11  24  38  66  93 133 168 219 272 323 402
#
# _framework density 21.297201999999999
#
# number of rings (size 3 to 8) (size 9 to 14) (size 15 to 20)
#    0.000    1.231    0.769    5.538    5.385    1.846 
#    0.000    0.000    0.000    7.385    0.000    0.000 
#    0.000    0.000    0.000    0.000    0.000    0.000 
#
# Total GULP energy -145424.850897 kJ/mol
# GULP energy per Si atom -5593.263496 kJ/mol
# Density = 2.124873 g / cm^3
# Si number density = 21.297202 Si / 1000 Ang^3
#
#
#
# Elastic Constant Matrix: (Units=GPa)
#
#
# Indices 1 2 3 4 5 6 
#
# 1 110.5691 33.5083 23.0892 0.0000 -3.2626 0.0000
# 2 33.5083 100.1552 2.3896 0.0000 15.0294 0.0000
# 3 23.0892 2.3896 39.7526 0.0000 -3.1152 0.0000
# 4 0.0000 0.0000 0.0000 153.7417 0.0000 -19.5102
# 5 -3.2626 15.0294 -3.1152 0.0000 39.6344 0.0000
# 6 0.0000 0.0000 0.0000 -19.5102 0.0000 35.7558
#
#
#
# Elastic Compliance Matrix: (Units=1/GPa)
#
#
# Indices 1 2 3 4 5 6 
#
# 1 0.011661 -0.004048 -0.006373 0.000000 0.001994 0.000000
# 2 -0.004048 0.012029 0.001253 0.000000 -0.004796 0.000000
# 3 -0.006373 0.001253 0.028882 0.000000 0.001270 0.000000
# 4 0.000000 0.000000 0.000000 0.006988 0.000000 0.003813
# 5 0.001994 -0.004796 0.001270 0.000000 0.027313 0.000000
# 6 0.000000 0.000000 0.000000 0.003813 0.000000 0.030048
#
#
# Mechanical properties :
#
#
# Convention : Reuss Voigt Hill
#
# Bulk Modulus (GPa) = 29.21174 40.93902 35.07538
# Shear Modulus (GPa) = 34.09015 58.59238 46.34127
#
# Velocity S-wave (km/s) = 4.00520 5.25086 4.66975
# Velocity P-wave (km/s) = 5.92746 7.48508 6.75134
#
# Compressibility (1/GPa) = 0.03423281
#
# Stress axis : x y z
#
# Youngs Moduli (GPa) = 85.75809 83.13379 34.62422
#
# Poissons Ratio (x) = 0.33656 0.22067
# Poissons Ratio (y) = 0.34719 -0.04337
# Poissons Ratio (z) = 0.54655 -0.10413
#
# Static dielectric constant tensor:
#      x y z
#    x 1.789190 0.000000 -0.015650 
#    y 0.000000 1.775080 0.000000 
#    z -0.015650 0.000000 1.791440 
# 
# From -- ./inp_files/34117.got.cif
#   From: 2010.05.17/outbox.cif.g08.bks.cpg/sg15_18_cif.got.tgz:34117.got - 2010.06.03 18:47:42.
