data_PCOD9284852
_publ_section_title
;
Structure prediction by ZEFSAII (Michael W. Deem and Ramdas Pophale) SiO2 
 PCOD9284852
Probable space group: C 2/C
;
_chemical_formula_sum "Si O2"
_cell_formula_units_Z 40
_cell_length_a 8.197035
_cell_length_b 17.895648
_cell_length_c 18.612888
_cell_angle_alpha 90.000000
_cell_angle_beta 38.183394
_cell_angle_gamma 90.000000
_cell_volume 1687.848094
_symmetry_space_group_name_H-M "C 2/C"
_symmetry_group_IT_number 15
_symmetry_cell_setting 'monoclinic'
loop_
_space_group_symop_operation_xyz
x,y,z
-x,y,1/2-z
-x,-y,-z
x,-y,1/2+z
1/2+x,1/2+y,z
1/2-x,1/2+y,1/2-z
1/2-x,1/2-y,-z
1/2+x,1/2-y,1/2+z
loop_
_atom_site_type_symbol
_atom_site_label
_atom_site_fract_x
_atom_site_fract_y
_atom_site_fract_z
Si Si1 0.109108 0.851816 0.889492
Si Si2 0.701577 0.960706 0.865876
Si Si3 0.450152 0.813579 0.646099
Si Si4 0.065611 0.015632 0.849220
Si Si5 0.702884 0.332948 0.378752
O O1 0.186260 0.815884 0.787343
O O2 0.320990 0.824511 0.874639
O O3 0.131951 0.940947 0.870103
O O4 0.833835 0.833826 0.022613
O O5 0.538079 0.886413 0.908800
O O6 0.719459 0.017409 0.791426
O O7 0.000000 0.927498 0.750000
O O8 0.768573 0.001316 0.918398
O O9 0.444738 0.737531 0.604804
O O10 0.086930 0.089474 0.887916
O O11 0.000000 0.329596 0.250000
#
# Coordination Sequence:
#
# PCOD9284852 Si02
#       5
#     8   8   8   8   8
#     4  10  22  41  68  84 123 170 201 241 318 366
#     4   7  16  35  63  80 119 157 194 236 306 361
#     4  10  21  41  65  87 120 161 206 249 305 368
#     4   8  19  38  62  88 121 157 203 243 302 362
#     4  12  25  37  61  97 125 152 211 263 293 354
#
# _framework density 23.698815
#
# number of rings (size 3 to 8) (size 9 to 14) (size 15 to 20)
#    1.200    1.200    0.000    1.800    5.600    4.000 
#    0.000    1.000    0.000    3.600    0.000    0.000 
#    0.000    0.000    0.000    0.000    0.000    0.000 
#
# Total GULP energy -111477.698757 kJ/mol
# GULP energy per Si atom -5573.884938 kJ/mol
# Density = 2.364487 g / cm^3
# Si number density = 23.698815 Si / 1000 Ang^3
#
#
#
# Elastic Constant Matrix: (Units=GPa)
#
#
# Indices 1 2 3 4 5 6 
#
# 1 36.9335 24.7589 6.1560 -0.0046 12.5430 0.0032
# 2 24.7589 126.0560 44.4032 -0.0019 33.4174 0.0020
# 3 6.1560 44.4032 90.4218 0.0033 27.5753 0.0027
# 4 -0.0046 -0.0019 0.0033 19.8425 0.0021 2.0684
# 5 12.5430 33.4174 27.5753 0.0021 37.4065 -0.0033
# 6 0.0032 0.0020 0.0027 2.0684 -0.0033 31.7143
#
#
#
# Elastic Compliance Matrix: (Units=1/GPa)
#
#
# Indices 1 2 3 4 5 6 
#
# 1 0.033008 -0.005254 0.002937 0.000008 -0.008540 -0.000005
# 2 -0.005254 0.011871 -0.003579 0.000001 -0.006204 -0.000001
# 3 0.002937 -0.003579 0.015406 -0.000001 -0.009144 -0.000002
# 4 0.000008 0.000001 -0.000001 0.050742 -0.000006 -0.003309
# 5 -0.008540 -0.006204 -0.009144 -0.000006 0.041880 0.000007
# 6 -0.000005 -0.000001 -0.000002 -0.003309 0.000007 0.031747
#
#
# Mechanical properties :
#
#
# Convention : Reuss Voigt Hill
#
# Bulk Modulus (GPa) = 20.62201 44.89416 32.75808
# Shear Modulus (GPa) = 23.51720 29.66555 26.59138
#
# Velocity S-wave (km/s) = 3.15356 3.54188 3.35334
# Velocity P-wave (km/s) = 4.68833 5.97589 5.37084
#
# Compressibility (1/GPa) = 0.04849188
#
# Stress axis : x y z
#
# Youngs Moduli (GPa) = 30.29533 84.24229 64.91143
#
# Poissons Ratio (x) = 0.44260 -0.19065
# Poissons Ratio (y) = 0.15917 0.23235
# Poissons Ratio (z) = -0.08898 0.30154
#
# Static dielectric constant tensor:
#      x y z
#    x 1.973440 0.000000 -0.029950 
#    y 0.000000 1.817020 0.000000 
#    z -0.029950 0.000000 2.190370 
# 
# From -- ./inp_files/232437.got.cif
#   From: 2010.05.17/outbox.cif.g08.bks.cpg/sg15_117_cif.got.tgz:232437.got - 2010.06.03 18:47:42.
