data_PCOD9284572
_publ_section_title
;
Structure prediction by ZEFSAII (Michael W. Deem and Ramdas Pophale) SiO2 
 PCOD9284572
Probable space group: C 2/C
;
_chemical_formula_sum "Si O2"
_cell_formula_units_Z 56
_cell_length_a 14.479853
_cell_length_b 27.663325
_cell_length_c 9.088885
_cell_angle_alpha 90.000000
_cell_angle_beta 44.881619
_cell_angle_gamma 90.000000
_cell_volume 2569.005142
_symmetry_space_group_name_H-M "C 2/C"
_symmetry_group_IT_number 15
_symmetry_cell_setting 'monoclinic'
loop_
_space_group_symop_operation_xyz
x,y,z
-x,y,1/2-z
-x,-y,-z
x,-y,1/2+z
1/2+x,1/2+y,z
1/2-x,1/2+y,1/2-z
1/2-x,1/2-y,-z
1/2+x,1/2-y,1/2+z
loop_
_atom_site_type_symbol
_atom_site_label
_atom_site_fract_x
_atom_site_fract_y
_atom_site_fract_z
Si Si1 0.838884 0.555985 0.783192
Si Si2 0.646434 0.967065 0.907708
Si Si3 0.693271 0.122070 0.185397
Si Si4 0.544101 0.653969 0.539802
Si Si5 0.340622 0.746520 0.196703
Si Si6 0.423603 0.193922 0.962878
Si Si7 0.259650 0.648147 0.774529
O O1 0.790382 0.517418 0.715504
O O2 0.805063 0.609171 0.760821
O O3 0.990975 0.539691 0.610794
O O4 0.793593 0.549157 0.002840
O O5 0.655037 0.932505 0.754731
O O6 0.595623 0.160478 0.372145
O O7 0.824131 0.125409 0.138590
O O8 0.718786 0.135129 0.988201
O O9 0.500000 0.638238 0.750000
O O10 0.599405 0.708747 0.487416
O O11 0.417813 0.647839 0.582220
O O12 0.471485 0.763384 0.131745
O O13 0.219874 0.716779 0.407124
O O14 0.282735 0.796600 0.204060
O O15 0.500000 0.164279 0.750000
#
# Coordination Sequence:
#
# PCOD9284572 Si02
#       7
#     8   8   8   8   8   8   8
#     4  10  22  38  68  91 132 156 206 258 316 381
#     4  10  21  41  61  98 124 163 198 261 319 376
#     4  10  23  38  64  89 128 162 211 260 320 376
#     4   9  21  39  59  88 125 165 213 268 307 371
#     4  11  22  38  61  86 125 168 217 264 311 376
#     4  11  24  38  57  87 124 171 210 264 315 370
#     4  11  22  40  63  94 120 170 215 261 317 377
#
# _framework density 21.798321000000001
#
# number of rings (size 3 to 8) (size 9 to 14) (size 15 to 20)
#    0.000    1.714    1.429    2.143    6.000    4.571 
#    0.000    1.429    0.000    0.000    0.000    0.000 
#    0.000    0.000    0.000    0.000    0.000    0.000 
#
# Total GULP energy -155879.607788 kJ/mol
# GULP energy per Si atom -5567.128850 kJ/mol
# Density = 2.174871 g / cm^3
# Si number density = 21.798321 Si / 1000 Ang^3
#
#
#
# Elastic Constant Matrix: (Units=GPa)
#
#
# Indices 1 2 3 4 5 6 
#
# 1 71.2088 7.2410 22.6064 0.0000 -2.4904 0.0000
# 2 7.2410 72.1639 20.7125 0.0000 8.7662 0.0000
# 3 22.6064 20.7125 90.5427 0.0000 3.6852 0.0000
# 4 0.0000 0.0000 0.0000 -5.4659 0.0000 -0.1977
# 5 -2.4904 8.7662 3.6852 0.0000 33.2662 0.0000
# 6 0.0000 0.0000 0.0000 -0.1977 0.0000 17.6101
#
#
#
# Elastic Compliance Matrix: (Units=1/GPa)
#
#
# Indices 1 2 3 4 5 6 
#
# 1 0.015364 -0.000677 -0.003752 0.000000 0.001744 0.000000
# 2 -0.000677 0.015290 -0.003177 0.000000 -0.003728 0.000000
# 3 -0.003752 -0.003177 0.012743 0.000000 -0.000855 0.000000
# 4 0.000000 0.000000 0.000000 -0.182877 0.000000 -0.002053
# 5 0.001744 -0.003728 -0.000855 0.000000 0.031268 0.000000
# 6 0.000000 0.000000 0.000000 -0.002053 0.000000 0.056763
#
#
# Mechanical properties :
#
#
# Convention : Reuss Voigt Hill
#
# Bulk Modulus (GPa) = 35.47948 37.22613 36.35280
# Shear Modulus (GPa) = -186.27703 21.30577 -82.48563
#
# Velocity S-wave (km/s) = -9.25420 3.12974 -6.15813
# Velocity P-wave (km/s) = 9.89320 5.49317 5.81810
#
# Compressibility (1/GPa) = 0.02818530
#
# Stress axis : x y z
#
# Youngs Moduli (GPa) = 65.08623 65.40241 78.47463
#
# Poissons Ratio (x) = 0.04425 0.29446
# Poissons Ratio (y) = 0.04403 0.24932
# Poissons Ratio (z) = 0.24422 0.20779
#
# Static dielectric constant tensor:
#      x y z
#    x 1.928330 0.000000 0.034700 
#    y 0.000000 1.848070 0.000000 
#    z 0.034700 0.000000 1.850870 
# 
# From -- ./inp_files/44498.got.cif
#   From: 2010.05.17/outbox.cif.g08.bks.cpg/sg15_23_cif.got.tgz:44498.got - 2010.06.03 18:47:42.
