data_PCOD9284741
_publ_section_title
;
Structure prediction by ZEFSAII (Michael W. Deem and Ramdas Pophale) SiO2 
 PCOD9284741
Probable space group: C 2/C
;
_chemical_formula_sum "Si O2"
_cell_formula_units_Z 40
_cell_length_a 9.556173
_cell_length_b 12.258775
_cell_length_c 14.073885
_cell_angle_alpha 90.000000
_cell_angle_beta 108.732307
_cell_angle_gamma 90.000000
_cell_volume 1561.379640
_symmetry_space_group_name_H-M "C 2/C"
_symmetry_group_IT_number 15
_symmetry_cell_setting 'monoclinic'
loop_
_space_group_symop_operation_xyz
x,y,z
-x,y,1/2-z
-x,-y,-z
x,-y,1/2+z
1/2+x,1/2+y,z
1/2-x,1/2+y,1/2-z
1/2-x,1/2-y,-z
1/2+x,1/2-y,1/2+z
loop_
_atom_site_type_symbol
_atom_site_label
_atom_site_fract_x
_atom_site_fract_y
_atom_site_fract_z
Si Si1 0.300238 0.918404 0.385170
Si Si2 0.944142 0.279167 0.881830
Si Si3 0.865316 0.586792 0.545742
Si Si4 0.145950 0.945589 0.157005
Si Si5 0.759111 0.325313 0.653315
O O1 0.468250 0.949751 0.393947
O O2 0.189326 0.944540 0.276497
O O3 0.306039 0.788426 0.396789
O O4 0.273167 0.994849 0.468910
O O5 0.975110 0.148438 0.885289
O O6 0.822115 0.305986 0.773988
O O7 0.092838 0.337946 0.877506
O O8 0.887198 0.319442 0.971279
O O9 0.780254 0.606248 0.624268
O O10 0.147358 0.072776 0.129191
#
# Coordination Sequence:
#
# PCOD9284741 Si02
#       5
#     8   8   8   8   8
#     4  10  22  38  63  94 119 165 212 248 314 379
#     4  10  22  39  62  93 121 164 213 249 311 379
#     4  11  21  37  63  91 124 160 210 254 306 379
#     4  11  22  39  65  92 125 163 205 261 310 369
#     4  10  21  41  64  84 129 166 200 261 315 364
#
# _framework density 25.618369999999999
#
# number of rings (size 3 to 8) (size 9 to 14) (size 15 to 20)
#    0.000    1.600    2.000    3.600    2.800    3.200 
#    0.000    6.000   13.200    0.000    0.000    0.000 
#    0.000    0.000    0.000    0.000    0.000    0.000 
#
# Total GULP energy -111859.806969 kJ/mol
# GULP energy per Si atom -5592.990348 kJ/mol
# Density = 2.556006 g / cm^3
# Si number density = 25.618370 Si / 1000 Ang^3
#
#
#
# Elastic Constant Matrix: (Units=GPa)
#
#
# Indices 1 2 3 4 5 6 
#
# 1 33.7071 14.1520 12.5261 0.0000 -16.7733 0.0000
# 2 14.1520 209.8710 17.1719 0.0000 11.6685 0.0000
# 3 12.5261 17.1719 90.0320 0.0000 -1.2922 0.0000
# 4 0.0000 0.0000 0.0000 33.0533 0.0000 1.3633
# 5 -16.7733 11.6685 -1.2922 0.0000 28.9355 0.0000
# 6 0.0000 0.0000 0.0000 1.3633 0.0000 43.2562
#
#
#
# Elastic Compliance Matrix: (Units=1/GPa)
#
#
# Indices 1 2 3 4 5 6 
#
# 1 0.048246 -0.004449 -0.005440 0.000000 0.029519 0.000000
# 2 -0.004449 0.005369 -0.000473 0.000000 -0.004765 0.000000
# 3 -0.005440 -0.000473 0.011919 0.000000 -0.002430 0.000000
# 4 0.000000 0.000000 0.000000 0.030294 0.000000 -0.000955
# 5 0.029519 -0.004765 -0.002430 0.000000 0.053484 0.000000
# 6 0.000000 0.000000 0.000000 -0.000955 0.000000 0.023148
#
#
# Mechanical properties :
#
#
# Convention : Reuss Voigt Hill
#
# Bulk Modulus (GPa) = 22.31724 46.81224 34.56474
# Shear Modulus (GPa) = 24.02444 40.36635 32.19539
#
# Velocity S-wave (km/s) = 3.06564 3.97379 3.54889
# Velocity P-wave (km/s) = 4.61099 6.27433 5.50584
#
# Compressibility (1/GPa) = 0.04480841
#
# Stress axis : x y z
#
# Youngs Moduli (GPa) = 20.72708 186.27077 83.89660
#
# Poissons Ratio (x) = 0.82879 0.45641
# Poissons Ratio (y) = 0.09222 0.03971
# Poissons Ratio (z) = 0.11276 0.08816
#
# Static dielectric constant tensor:
#      x y z
#    x 1.979070 0.000000 0.014460 
#    y 0.000000 2.144940 0.000000 
#    z 0.014460 0.000000 1.972080 
# 
# From -- ./inp_files/141884.got.cif
#   From: 2010.05.17/outbox.cif.g08.bks.cpg/sg15_71_cif.got.tgz:141884.got - 2010.06.03 18:47:42.
