data_PCOD9284805
_publ_section_title
;
Structure prediction by ZEFSAII (Michael W. Deem and Ramdas Pophale) SiO2 
 PCOD9284805
Probable space group: C 2/C
;
_chemical_formula_sum "Si O2"
_cell_formula_units_Z 44
_cell_length_a 15.415701
_cell_length_b 9.670033
_cell_length_c 15.753009
_cell_angle_alpha 90.000000
_cell_angle_beta 54.876529
_cell_angle_gamma 90.000000
_cell_volume 1920.712888
_symmetry_space_group_name_H-M "C 2/C"
_symmetry_group_IT_number 15
_symmetry_cell_setting 'monoclinic'
loop_
_space_group_symop_operation_xyz
x,y,z
-x,y,1/2-z
-x,-y,-z
x,-y,1/2+z
1/2+x,1/2+y,z
1/2-x,1/2+y,1/2-z
1/2-x,1/2-y,-z
1/2+x,1/2-y,1/2+z
loop_
_atom_site_type_symbol
_atom_site_label
_atom_site_fract_x
_atom_site_fract_y
_atom_site_fract_z
Si Si1 0.500000 0.659725 0.250000
Si Si2 0.456784 0.291941 0.954755
Si Si3 0.613011 0.993472 0.982310
Si Si4 0.167530 0.329731 0.608446
Si Si5 0.339060 0.567157 0.787316
Si Si6 0.856729 0.041066 0.089815
O O1 0.506734 0.743497 0.160239
O O2 0.601147 0.559810 0.201862
O O3 0.564496 0.326417 0.946854
O O4 0.374576 0.172906 0.023500
O O5 0.400277 0.440319 0.992809
O O6 0.713660 0.054978 0.876070
O O7 0.500000 0.000000 0.000000
O O8 0.606675 0.069656 0.077588
O O9 0.250000 0.250000 0.500000
O O10 0.119225 0.208409 0.693702
O O11 0.238969 0.417214 0.633002
O O12 0.361425 0.544414 0.675084
#
# Coordination Sequence:
#
# PCOD9284805 Si02
#       6
#     4   8   8   8   8   8
#     4  10  22  42  66  94 124 180 228 276 330 416
#     4  10  21  41  64  94 132 173 228 276 339 405
#     4  11  24  43  66  97 137 176 221 291 343 404
#     4  10  21  41  64  94 132 177 224 279 345 409
#     4  10  23  41  67  96 135 177 230 277 347 413
#     4  10  22  40  67  96 133 183 224 282 338 420
#
# _framework density 22.908161
#
# number of rings (size 3 to 8) (size 9 to 14) (size 15 to 20)
#    0.000    1.818    0.000    4.364    2.545    5.818 
#    6.545    0.000    0.000    0.000    0.000    0.000 
#    0.000    0.000    0.000    0.000    0.000    0.000 
#
# Total GULP energy -122766.955138 kJ/mol
# GULP energy per Si atom -5580.316143 kJ/mol
# Density = 2.285602 g / cm^3
# Si number density = 22.908161 Si / 1000 Ang^3
#
#
#
# Elastic Constant Matrix: (Units=GPa)
#
#
# Indices 1 2 3 4 5 6 
#
# 1 87.6775 28.2654 22.5434 0.0000 -4.6231 0.0000
# 2 28.2654 77.2431 14.9253 0.0000 1.5674 0.0000
# 3 22.5434 14.9253 70.6247 0.0000 7.9736 0.0000
# 4 0.0000 0.0000 0.0000 29.9987 0.0000 6.6536
# 5 -4.6231 1.5674 7.9736 0.0000 40.9227 0.0000
# 6 0.0000 0.0000 0.0000 6.6536 0.0000 23.2380
#
#
#
# Elastic Compliance Matrix: (Units=1/GPa)
#
#
# Indices 1 2 3 4 5 6 
#
# 1 0.013936 -0.004417 -0.003795 0.000000 0.002483 0.000000
# 2 -0.004417 0.014897 -0.001654 0.000000 -0.000747 0.000000
# 3 -0.003795 -0.001654 0.016116 0.000000 -0.003506 0.000000
# 4 0.000000 0.000000 0.000000 0.035595 0.000000 -0.010192
# 5 0.002483 -0.000747 -0.003506 0.000000 0.025428 0.000000
# 6 0.000000 0.000000 0.000000 -0.010192 0.000000 0.045951
#
#
# Mechanical properties :
#
#
# Convention : Reuss Voigt Hill
#
# Bulk Modulus (GPa) = 39.65550 40.77928 40.21739
# Shear Modulus (GPa) = 27.76822 30.15263 28.96043
#
# Velocity S-wave (km/s) = 3.48538 3.63194 3.55941
# Velocity P-wave (km/s) = 5.79184 5.95213 5.87253
#
# Compressibility (1/GPa) = 0.02521718
#
# Stress axis : x y z
#
# Youngs Moduli (GPa) = 71.75638 67.12727 62.04946
#
# Poissons Ratio (x) = 0.29648 0.23550
# Poissons Ratio (y) = 0.31692 0.10264
# Poissons Ratio (z) = 0.27234 0.11103
#
# Static dielectric constant tensor:
#      x y z
#    x 1.889380 0.000000 0.020910 
#    y 0.000000 1.961350 0.000000 
#    z 0.020910 0.000000 1.868930 
# 
# From -- ./inp_files/202550.got.cif
#   From: 2010.05.17/outbox.cif.g08.bks.cpg/sg15_102_cif.got.tgz:202550.got - 2010.06.03 18:47:42.
