data_PCOD9284539
_publ_section_title
;
Structure prediction by ZEFSAII (Michael W. Deem and Ramdas Pophale) SiO2 
 PCOD9284539
Probable space group: C 2/C
;
_chemical_formula_sum "Si O2"
_cell_formula_units_Z 64
_cell_length_a 14.988449
_cell_length_b 13.006769
_cell_length_c 26.220738
_cell_angle_alpha 90.000000
_cell_angle_beta 140.447188
_cell_angle_gamma 90.000000
_cell_volume 3255.117837
_symmetry_space_group_name_H-M "C 2/C"
_symmetry_group_IT_number 15
_symmetry_cell_setting 'monoclinic'
loop_
_space_group_symop_operation_xyz
x,y,z
-x,y,1/2-z
-x,-y,-z
x,-y,1/2+z
1/2+x,1/2+y,z
1/2-x,1/2+y,1/2-z
1/2-x,1/2-y,-z
1/2+x,1/2-y,1/2+z
loop_
_atom_site_type_symbol
_atom_site_label
_atom_site_fract_x
_atom_site_fract_y
_atom_site_fract_z
Si Si1 0.163100 0.488788 0.700674
Si Si2 0.859962 0.286813 0.426391
Si Si3 0.384077 0.439131 0.154905
Si Si4 0.455710 0.833478 0.090752
Si Si5 0.606121 0.343357 0.197240
Si Si6 0.352907 0.148099 0.210952
Si Si7 0.318126 0.329717 0.599172
Si Si8 0.865675 0.292077 0.885393
O O1 0.292942 0.562223 0.745657
O O2 0.188793 0.438481 0.767180
O O3 0.149776 0.398849 0.652762
O O4 0.025038 0.560759 0.640333
O O5 0.760418 0.385008 0.392991
O O6 0.762442 0.185676 0.380497
O O7 0.938042 0.294265 0.406208
O O8 0.981676 0.286762 0.521676
O O9 0.500000 0.422731 0.250000
O O10 0.447553 0.381307 0.133703
O O11 0.374927 0.558959 0.139105
O O12 0.428612 0.748433 0.122423
O O13 0.306971 0.847956 0.996926
O O14 0.624520 0.249786 0.244575
O O15 0.646777 0.299061 0.160503
O O16 0.500000 0.121988 0.250000
O O17 0.246725 0.285581 0.618806
#
# Coordination Sequence:
#
# PCOD9284539 Si02
#       8
#     8   8   8   8   8   8   8   8
#     4  11  23  39  65  87 123 163 200 249 312 362
#     4  11  20  41  64  84 127 157 205 253 301 354
#     4  12  21  36  64  94 115 157 204 255 293 355
#     4  10  21  41  61  89 122 162 194 257 300 363
#     4  11  22  40  59  91 124 150 205 250 301 357
#     4  11  22  41  60  89 121 163 204 246 305 363
#     4  10  23  38  63  90 122 153 211 244 305 357
#     4  10  24  40  62  91 118 164 202 249 304 366
#
# _framework density 19.661346000000002
#
# number of rings (size 3 to 8) (size 9 to 14) (size 15 to 20)
#    0.000    1.250    3.750    2.250    1.750    4.500 
#    2.250    0.625    0.000    0.000    0.000    0.000 
#    0.000    0.000    0.000    0.000    0.000    0.000 
#
# Total GULP energy -178749.383611 kJ/mol
# GULP energy per Si atom -5585.918238 kJ/mol
# Density = 1.961660 g / cm^3
# Si number density = 19.661346 Si / 1000 Ang^3
#
#
#
# Elastic Constant Matrix: (Units=GPa)
#
#
# Indices 1 2 3 4 5 6 
#
# 1 96.1941 49.1789 25.8850 0.0000 1.3932 0.0000
# 2 49.1789 59.1006 13.5990 0.0000 -0.3483 0.0000
# 3 25.8850 13.5990 43.7998 0.0000 0.4907 0.0000
# 4 0.0000 0.0000 0.0000 27.6435 0.0000 -0.8347
# 5 1.3932 -0.3483 0.4907 0.0000 22.9699 0.0000
# 6 0.0000 0.0000 0.0000 -0.8347 0.0000 35.6057
#
#
#
# Elastic Compliance Matrix: (Units=1/GPa)
#
#
# Indices 1 2 3 4 5 6 
#
# 1 0.020017 -0.015018 -0.007152 0.000000 -0.001289 0.000000
# 2 -0.015018 0.029494 -0.000297 0.000000 0.001364 0.000000
# 3 -0.007152 -0.000297 0.027152 0.000000 -0.000151 0.000000
# 4 0.000000 0.000000 0.000000 0.036200 0.000000 0.000849
# 5 -0.001289 0.001364 -0.000151 0.000000 0.043637 0.000000
# 6 0.000000 0.000000 0.000000 0.000849 0.000000 0.028105
#
#
# Mechanical properties :
#
#
# Convention : Reuss Voigt Hill
#
# Bulk Modulus (GPa) = 31.51849 41.82447 36.67148
# Shear Modulus (GPa) = 20.82316 24.60594 22.71455
#
# Velocity S-wave (km/s) = 3.25790 3.54148 3.40264
# Velocity P-wave (km/s) = 5.49703 6.16777 5.84203
#
# Compressibility (1/GPa) = 0.03172741
#
# Stress axis : x y z
#
# Youngs Moduli (GPa) = 49.95727 33.90537 36.82975
#
# Poissons Ratio (x) = 0.50921 0.26342
# Poissons Ratio (y) = 0.75028 0.01093
# Poissons Ratio (z) = 0.35731 0.01007
#
# Static dielectric constant tensor:
#      x y z
#    x 1.714580 0.000000 -0.003960 
#    y 0.000000 1.667760 0.000000 
#    z -0.003960 0.000000 1.716470 
# 
# From -- ./inp_files/296144.got.cif
#   From: 2010.05.17/outbox.cif.g08.bks.cpg/sg15_149_cif.got.tgz:296144.got - 2010.06.03 18:47:42.
