data_PCOD9284370
_publ_section_title
;
Structure prediction by ZEFSAII (Michael W. Deem and Ramdas Pophale) SiO2 
 PCOD9284370
Probable space group: C 2/C
;
_chemical_formula_sum "Si O2"
_cell_formula_units_Z 56
_cell_length_a 12.659305
_cell_length_b 18.776158
_cell_length_c 18.431085
_cell_angle_alpha 90.000000
_cell_angle_beta 146.644952
_cell_angle_gamma 90.000000
_cell_volume 2408.753947
_symmetry_space_group_name_H-M "C 2/C"
_symmetry_group_IT_number 15
_symmetry_cell_setting 'monoclinic'
loop_
_space_group_symop_operation_xyz
x,y,z
-x,y,1/2-z
-x,-y,-z
x,-y,1/2+z
1/2+x,1/2+y,z
1/2-x,1/2+y,1/2-z
1/2-x,1/2-y,-z
1/2+x,1/2-y,1/2+z
loop_
_atom_site_type_symbol
_atom_site_label
_atom_site_fract_x
_atom_site_fract_y
_atom_site_fract_z
Si Si1 0.211491 0.959204 0.487470
Si Si2 0.683470 0.892638 0.407963
Si Si3 0.301934 0.155450 0.163907
Si Si4 0.136473 0.543311 0.176004
Si Si5 0.411174 0.868177 0.978777
Si Si6 0.397428 0.713289 0.927332
Si Si7 0.682048 0.602150 0.744553
O O1 0.257831 0.904380 0.578435
O O2 0.408453 0.967514 0.556174
O O3 0.022470 0.925350 0.343804
O O4 0.185439 0.037285 0.507318
O O5 0.500000 0.908151 0.250000
O O6 0.625895 0.869571 0.456460
O O7 0.799078 0.830363 0.435420
O O8 0.500000 0.189873 0.250000
O O9 0.316833 0.109473 0.245383
O O10 0.126479 0.208749 0.066980
O O11 0.240356 0.469071 0.252712
O O12 0.180878 0.567621 0.119694
O O13 0.641610 0.877477 0.102801
O O14 0.341174 0.795080 0.902546
O O15 0.346875 0.669131 0.825830
#
# Coordination Sequence:
#
# PCOD9284370 Si02
#       7
#     8   8   8   8   8   8   8
#     4  10  21  40  70 103 124 182 235 273 339 402
#     4  12  22  43  71  99 141 180 226 281 340 409
#     4   9  20  40  68  98 126 177 233 281 328 398
#     4  11  22  43  68  99 143 168 229 294 330 400
#     4  12  27  42  66 103 143 179 224 284 345 398
#     4  11  24  44  68  99 137 184 232 270 339 416
#     4  11  23  45  70  95 138 183 226 281 341 398
#
# _framework density 23.248536000000001
#
# number of rings (size 3 to 8) (size 9 to 14) (size 15 to 20)
#    0.000    1.143    2.857    3.857    2.000    2.857 
#    2.571    4.286    0.000    0.000    0.000    0.000 
#    0.000    0.000    0.000    0.000    0.000    0.000 
#
# Total GULP energy -156516.564131 kJ/mol
# GULP energy per Si atom -5589.877290 kJ/mol
# Density = 2.319562 g / cm^3
# Si number density = 23.248536 Si / 1000 Ang^3
#
#
#
# Elastic Constant Matrix: (Units=GPa)
#
#
# Indices 1 2 3 4 5 6 
#
# 1 44.7377 5.2121 26.1827 0.0000 -11.5361 0.0001
# 2 5.2121 83.4403 1.2016 0.0003 -9.4809 -0.0001
# 3 26.1827 1.2016 54.7207 0.0006 -6.4400 -0.0003
# 4 0.0000 0.0003 0.0006 27.7311 0.0003 -1.5462
# 5 -11.5361 -9.4809 -6.4400 0.0003 36.6695 0.0000
# 6 0.0001 -0.0001 -0.0003 -1.5462 0.0000 12.3994
#
#
#
# Elastic Compliance Matrix: (Units=1/GPa)
#
#
# Indices 1 2 3 4 5 6 
#
# 1 0.033172 -0.000999 -0.014962 0.000000 0.007550 -0.000001
# 2 -0.000999 0.012378 0.000557 0.000000 0.002984 0.000000
# 3 -0.014962 0.000557 0.025409 -0.000001 -0.000100 0.000001
# 4 0.000000 0.000000 -0.000001 0.036313 0.000000 0.004528
# 5 0.007550 0.002984 -0.000100 0.000000 0.030400 0.000000
# 6 -0.000001 0.000000 0.000001 0.004528 0.000000 0.081214
#
#
# Mechanical properties :
#
#
# Convention : Reuss Voigt Hill
#
# Bulk Modulus (GPa) = 24.90465 27.56573 26.23519
# Shear Modulus (GPa) = 19.00587 25.38013 22.19300
#
# Velocity S-wave (km/s) = 2.86231 3.30765 3.09301
# Velocity P-wave (km/s) = 4.65396 5.14491 4.90558
#
# Compressibility (1/GPa) = 0.04015315
#
# Stress axis : x y z
#
# Youngs Moduli (GPa) = 30.14590 80.78821 39.35556
#
# Poissons Ratio (x) = 0.08069 0.58882
# Poissons Ratio (y) = 0.03011 -0.02193
# Poissons Ratio (z) = 0.45103 -0.04502
#
# Static dielectric constant tensor:
#      x y z
#    x 1.881050 0.000000 0.027800 
#    y 0.000000 1.823630 0.000000 
#    z 0.027800 0.000000 1.905440 
# 
# From -- ./inp_files/245180.got.cif
#   From: 2010.05.17/outbox.cif.g08.bks.cpg/sg15_123_cif.got.tgz:245180.got - 2010.06.03 18:47:42.
