data_PCOD9284387
_publ_section_title
;
Structure prediction by ZEFSAII (Michael W. Deem and Ramdas Pophale) SiO2 
 PCOD9284387
Probable space group: C 2/C
;
_chemical_formula_sum "Si O2"
_cell_formula_units_Z 44
_cell_length_a 26.072960
_cell_length_b 11.220480
_cell_length_c 14.891732
_cell_angle_alpha 90.000000
_cell_angle_beta 23.166503
_cell_angle_gamma 90.000000
_cell_volume 1713.903215
_symmetry_space_group_name_H-M "C 2/C"
_symmetry_group_IT_number 15
_symmetry_cell_setting 'monoclinic'
loop_
_space_group_symop_operation_xyz
x,y,z
-x,y,1/2-z
-x,-y,-z
x,-y,1/2+z
1/2+x,1/2+y,z
1/2-x,1/2+y,1/2-z
1/2-x,1/2-y,-z
1/2+x,1/2-y,1/2+z
loop_
_atom_site_type_symbol
_atom_site_label
_atom_site_fract_x
_atom_site_fract_y
_atom_site_fract_z
Si Si1 0.088381 0.873521 0.435298
Si Si2 0.033662 0.868479 0.328630
Si Si3 0.250000 0.750000 0.000000
Si Si4 0.953651 0.451991 0.721030
Si Si5 0.317755 0.170894 0.704163
Si Si6 0.394521 0.215934 0.838131
O O1 0.211176 0.852728 0.299183
O O2 0.126800 0.850390 0.269727
O O3 0.972454 0.780959 0.635079
O O4 0.024629 0.000364 0.564139
O O5 0.912118 0.780635 0.527005
O O6 0.152326 0.833817 0.075017
O O7 0.359900 0.854170 0.831433
O O8 0.879636 0.577422 0.843157
O O9 0.000000 0.429102 0.750000
O O10 0.086839 0.442950 0.448538
O O11 0.231777 0.211845 0.927424
O O12 0.500000 0.222675 0.750000
#
# Coordination Sequence:
#
# PCOD9284387 Si02
#       6
#     8   8   4   8   8   8
#     4  10  22  41  67  94 131 176 218 273 335 403
#     4  10  23  41  66  93 129 179 214 273 337 400
#     4  10  22  42  58 102 120 166 234 254 330 408
#     4  10  21  40  70  92 134 178 213 280 333 397
#     4  10  22  40  66 100 127 171 231 263 335 404
#     4   9  21  40  64  96 129 171 219 276 333 391
#
# _framework density 25.672395000000002
#
# number of rings (size 3 to 8) (size 9 to 14) (size 15 to 20)
#    0.000    2.182    0.000    1.091   12.727    0.727 
#    3.273   14.545    0.000    0.000    0.000    0.000 
#    0.000    0.000    0.000    0.000    0.000    0.000 
#
# Total GULP energy -122640.909605 kJ/mol
# GULP energy per Si atom -5574.586800 kJ/mol
# Density = 2.561396 g / cm^3
# Si number density = 25.672395 Si / 1000 Ang^3
#
#
#
# Elastic Constant Matrix: (Units=GPa)
#
#
# Indices 1 2 3 4 5 6 
#
# 1 71.9319 31.1159 50.8475 0.0000 -15.9778 0.0000
# 2 31.1159 79.0020 35.9057 0.0000 -8.4712 0.0000
# 3 50.8475 35.9057 176.6191 0.0000 -17.6038 0.0000
# 4 0.0000 0.0000 0.0000 44.0277 0.0000 -0.9008
# 5 -15.9778 -8.4712 -17.6038 0.0000 44.9423 0.0000
# 6 0.0000 0.0000 0.0000 -0.9008 0.0000 20.3756
#
#
#
# Elastic Compliance Matrix: (Units=1/GPa)
#
#
# Indices 1 2 3 4 5 6 
#
# 1 0.020338 -0.005586 -0.004270 0.000000 0.004505 0.000000
# 2 -0.005586 0.015590 -0.001526 0.000000 0.000355 0.000000
# 3 -0.004270 -0.001526 0.007307 0.000000 0.001056 0.000000
# 4 0.000000 0.000000 0.000000 0.022734 0.000000 0.001005
# 5 0.004505 0.000355 0.001056 0.000000 0.024333 0.000000
# 6 0.000000 0.000000 0.000000 0.001005 0.000000 0.049123
#
#
# Mechanical properties :
#
#
# Convention : Reuss Voigt Hill
#
# Bulk Modulus (GPa) = 48.85366 62.58792 55.72079
# Shear Modulus (GPa) = 29.58377 35.84804 32.71591
#
# Velocity S-wave (km/s) = 3.39832 3.74085 3.57369
# Velocity P-wave (km/s) = 5.87104 6.56437 6.22736
#
# Compressibility (1/GPa) = 0.02046930
#
# Stress axis : x y z
#
# Youngs Moduli (GPa) = 49.16928 64.14528 136.85926
#
# Poissons Ratio (x) = 0.35834 0.58445
# Poissons Ratio (y) = 0.27468 0.20880
# Poissons Ratio (z) = 0.20998 0.09786
#
# Static dielectric constant tensor:
#      x y z
#    x 2.465780 0.000000 0.313190 
#    y 0.000000 2.256980 0.000000 
#    z 0.313190 0.000000 2.580920 
# 
# From -- ./inp_files/225096.got.cif
#   From: 2010.05.17/outbox.cif.g08.bks.cpg/sg15_113_cif.got.tgz:225096.got - 2010.06.03 18:47:42.
