data_PCOD9284967
_publ_section_title
;
Structure prediction by ZEFSAII (Michael W. Deem and Ramdas Pophale) SiO2 
 PCOD9284967
Probable space group: C 2/C
;
_chemical_formula_sum "Si O2"
_cell_formula_units_Z 36
_cell_length_a 8.490928
_cell_length_b 15.448787
_cell_length_c 28.157298
_cell_angle_alpha 90.000000
_cell_angle_beta 30.978856
_cell_angle_gamma 90.000000
_cell_volume 1901.135245
_symmetry_space_group_name_H-M "C 2/C"
_symmetry_group_IT_number 15
_symmetry_cell_setting 'monoclinic'
loop_
_space_group_symop_operation_xyz
x,y,z
-x,y,1/2-z
-x,-y,-z
x,-y,1/2+z
1/2+x,1/2+y,z
1/2-x,1/2+y,1/2-z
1/2-x,1/2-y,-z
1/2+x,1/2-y,1/2+z
loop_
_atom_site_type_symbol
_atom_site_label
_atom_site_fract_x
_atom_site_fract_y
_atom_site_fract_z
Si Si1 0.276588 0.578473 0.347636
Si Si2 0.740026 0.549052 0.969707
Si Si3 0.000000 0.749567 0.750000
Si Si4 0.139929 0.118974 0.344975
Si Si5 0.181760 0.682942 0.805061
O O1 0.500000 0.539564 0.250000
O O2 0.257926 0.680086 0.335396
O O3 0.462539 0.574574 0.347881
O O4 0.970942 0.523821 0.429848
O O5 0.932300 0.616116 0.888467
O O6 0.500000 0.500000 0.000000
O O7 0.541003 0.595930 0.061118
O O8 0.149725 0.696063 0.755417
O O9 0.500000 0.095732 0.250000
O O10 0.117902 0.221031 0.341204
O O11 0.500000 0.660162 0.750000
#
# Coordination Sequence:
#
# PCOD9284967 Si02
#       5
#     8   8   4   8   8
#     4   9  19  40  64  86 128 161 204 256 310 365
#     4  12  24  38  60 101 124 160 210 259 314 369
#     4   8  20  44  66  90 124 176 202 252 322 364
#     4  10  21  41  66  84 126 171 205 254 316 371
#     4  10  22  43  67  89 127 166 212 256 310 384
#
# _framework density 18.936053999999999
#
# number of rings (size 3 to 8) (size 9 to 14) (size 15 to 20)
#    0.667    1.333    0.000    3.333    3.111    0.000 
#   14.000    2.222    0.000    0.000    0.000    0.000 
#    0.000    0.000    0.000    0.000    0.000    0.000 
#
# Total GULP energy -100237.191610 kJ/mol
# GULP energy per Si atom -5568.732867 kJ/mol
# Density = 1.889295 g / cm^3
# Si number density = 18.936054 Si / 1000 Ang^3
#
#
#
# Elastic Constant Matrix: (Units=GPa)
#
#
# Indices 1 2 3 4 5 6 
#
# 1 179.6293 72.2481 79.8870 0.0475 -4.1279 0.0172
# 2 72.2481 46.3603 46.7205 0.0478 -9.4443 0.0414
# 3 79.8870 46.7205 104.4873 0.0698 -4.4332 0.0311
# 4 0.0475 0.0478 0.0698 25.5880 -0.0299 -6.0014
# 5 -4.1279 -9.4443 -4.4332 -0.0299 40.8218 -0.0083
# 6 0.0172 0.0414 0.0311 -6.0014 -0.0083 27.1751
#
#
#
# Elastic Compliance Matrix: (Units=1/GPa)
#
#
# Indices 1 2 3 4 5 6 
#
# 1 0.015727 -0.023750 -0.001578 0.000022 -0.004076 0.000032
# 2 -0.023750 0.077358 -0.015848 -0.000063 0.013774 -0.000095
# 3 -0.001578 -0.015848 0.017783 -0.000018 -0.001895 0.000000
# 4 0.000022 -0.000063 -0.000018 0.041216 0.000018 0.009102
# 5 -0.004076 0.013774 -0.001895 0.000018 0.027066 -0.000004
# 6 0.000032 -0.000095 0.000000 0.009102 -0.000004 0.038809
#
#
# Mechanical properties :
#
#
# Convention : Reuss Voigt Hill
#
# Bulk Modulus (GPa) = 35.06541 80.90980 57.98761
# Shear Modulus (GPa) = 16.13864 27.49176 21.81520
#
# Velocity S-wave (km/s) = 2.92253 3.81441 3.39786
# Velocity P-wave (km/s) = 5.47232 7.88798 6.78847
#
# Compressibility (1/GPa) = 0.02851813
#
# Stress axis : x y z
#
# Youngs Moduli (GPa) = 63.58315 12.92683 56.23391
#
# Poissons Ratio (x) = 0.30701 0.08875
# Poissons Ratio (y) = 1.51007 0.89117
# Poissons Ratio (z) = 0.10034 0.20486
#
# Static dielectric constant tensor:
#      x y z
#    x 1.674580 -0.000010 -0.011770 
#    y -0.000010 1.666520 0.000000 
#    z -0.011770 0.000000 1.596060 
# 
# From -- ./inp_files/288567.got.cif
#   From: 2010.05.17/outbox.cif.g08.bks.cpg/sg15_145_cif.got.tgz:288567.got - 2010.06.03 18:47:42.
