data_PCOD9284937
_publ_section_title
;
Structure prediction by ZEFSAII (Michael W. Deem and Ramdas Pophale) SiO2 
 PCOD9284937
Probable space group: C 2/C
;
_chemical_formula_sum "Si O2"
_cell_formula_units_Z 36
_cell_length_a 21.370705
_cell_length_b 20.176899
_cell_length_c 4.959145
_cell_angle_alpha 90.000000
_cell_angle_beta 126.880953
_cell_angle_gamma 90.000000
_cell_volume 1710.437470
_symmetry_space_group_name_H-M "C 2/C"
_symmetry_group_IT_number 15
_symmetry_cell_setting 'monoclinic'
loop_
_space_group_symop_operation_xyz
x,y,z
-x,y,1/2-z
-x,-y,-z
x,-y,1/2+z
1/2+x,1/2+y,z
1/2-x,1/2+y,1/2-z
1/2-x,1/2-y,-z
1/2+x,1/2-y,1/2+z
loop_
_atom_site_type_symbol
_atom_site_label
_atom_site_fract_x
_atom_site_fract_y
_atom_site_fract_z
Si Si1 0.000000 0.235542 0.250000
Si Si2 0.000000 0.149271 0.750000
Si Si3 0.381676 0.456003 0.703735
Si Si4 0.577176 0.149556 0.643313
Si Si5 0.302187 0.048385 0.749686
Si Si6 0.500000 0.047717 0.750000
O O1 0.934033 0.280498 0.232008
O O2 0.032679 0.193045 0.585235
O O3 0.064674 0.103149 0.056455
O O4 0.396797 0.481327 0.440848
O O5 0.290541 0.437494 0.495654
O O6 0.649002 0.116284 0.668145
O O7 0.568854 0.098509 0.869367
O O8 0.500000 0.145003 0.250000
O O9 0.318503 0.994175 0.558900
O O10 0.500000 0.000000 0.500000
#
# Coordination Sequence:
#
# PCOD9284937 Si02
#       6
#     4   4   8   8   8   4
#     4  11  26  39  58  89 116 161 214 242 266 345
#     4  12  22  42  68  84 116 156 196 248 302 350
#     4  10  21  41  65  97 117 141 186 249 316 366
#     4  11  23  38  56  80 127 163 205 238 276 337
#     4  10  23  36  59  91 124 150 190 247 302 354
#     4  11  20  29  50  81 104 147 202 234 282 331
#
# _framework density 21.047246999999999
#
# number of rings (size 3 to 8) (size 9 to 14) (size 15 to 20)
#    0.000    1.333    2.222    3.333    6.222    0.000 
#    0.000    2.222    0.000    0.000    0.000    0.000 
#    0.000    0.000    0.000    0.000    0.000    0.000 
#
# Total GULP energy -100379.566887 kJ/mol
# GULP energy per Si atom -5576.642605 kJ/mol
# Density = 2.099934 g / cm^3
# Si number density = 21.047247 Si / 1000 Ang^3
#
#
#
# Elastic Constant Matrix: (Units=GPa)
#
#
# Indices 1 2 3 4 5 6 
#
# 1 47.4964 18.0159 29.2238 0.0000 -2.7025 0.0000
# 2 18.0159 78.0927 26.2199 0.0000 7.2452 0.0000
# 3 29.2238 26.2199 101.8897 0.0000 -13.9693 0.0000
# 4 0.0000 0.0000 0.0000 -0.0796 0.0000 -4.5377
# 5 -2.7025 7.2452 -13.9693 0.0000 46.5442 0.0000
# 6 0.0000 0.0000 0.0000 -4.5377 0.0000 15.8474
#
#
#
# Elastic Compliance Matrix: (Units=1/GPa)
#
#
# Indices 1 2 3 4 5 6 
#
# 1 0.026618 -0.003943 -0.006595 0.000000 0.000180 0.000000
# 2 -0.003943 0.015138 -0.003253 0.000000 -0.003562 0.000000
# 3 -0.006595 -0.003253 0.013099 0.000000 0.004055 0.000000
# 4 0.000000 0.000000 0.000000 -0.725217 0.000000 -0.207659
# 5 0.000180 -0.003562 0.004055 0.000000 0.023267 0.000000
# 6 0.000000 0.000000 0.000000 -0.207659 0.000000 0.003641
#
#
# Mechanical properties :
#
#
# Convention : Reuss Voigt Hill
#
# Bulk Modulus (GPa) = 36.66681 41.59978 39.13329
# Shear Modulus (GPa) = -8.24020 22.73034 7.24507
#
# Velocity S-wave (km/s) = -1.98081 3.28985 1.85735
# Velocity P-wave (km/s) = 3.49679 5.85138 4.82007
#
# Compressibility (1/GPa) = 0.02727262
#
# Stress axis : x y z
#
# Youngs Moduli (GPa) = 37.56847 66.06105 76.34085
#
# Poissons Ratio (x) = 0.26048 0.50348
# Poissons Ratio (y) = 0.14814 0.24832
# Poissons Ratio (z) = 0.24777 0.21488
#
# Static dielectric constant tensor:
#      x y z
#    x 1.832210 0.000000 0.006240 
#    y 0.000000 1.807010 0.000000 
#    z 0.006240 0.000000 1.803350 
# 
# From -- ./inp_files/15251.got.cif
#   From: 2010.05.17/outbox.cif.g08.bks.cpg/sg15_8_cif.got.tgz:15251.got - 2010.06.03 18:47:42.
