data_PCOD9284115
_publ_section_title
;
Structure prediction by ZEFSAII (Michael W. Deem and Ramdas Pophale) SiO2 
 PCOD9284115
Probable space group: C 2/C
;
_chemical_formula_sum "Si O2"
_cell_formula_units_Z 44
_cell_length_a 19.003224
_cell_length_b 9.071467
_cell_length_c 13.592236
_cell_angle_alpha 90.000000
_cell_angle_beta 81.073939
_cell_angle_gamma 90.000000
_cell_volume 2314.749728
_symmetry_space_group_name_H-M "C 2/C"
_symmetry_group_IT_number 15
_symmetry_cell_setting 'monoclinic'
loop_
_space_group_symop_operation_xyz
x,y,z
-x,y,1/2-z
-x,-y,-z
x,-y,1/2+z
1/2+x,1/2+y,z
1/2-x,1/2+y,1/2-z
1/2-x,1/2-y,-z
1/2+x,1/2-y,1/2+z
loop_
_atom_site_type_symbol
_atom_site_label
_atom_site_fract_x
_atom_site_fract_y
_atom_site_fract_z
Si Si1 0.314602 0.159293 0.534755
Si Si2 0.500000 0.216754 0.750000
Si Si3 0.566242 0.944931 0.051727
Si Si4 0.120226 0.892862 0.835346
Si Si5 0.270230 0.605561 0.366258
Si Si6 0.847674 0.173340 0.551409
O O1 0.250000 0.250000 0.500000
O O2 0.358800 0.276576 0.586146
O O3 0.370447 0.066811 0.455782
O O4 0.279793 0.036759 0.613284
O O5 0.459166 0.112982 0.836792
O O6 0.551761 0.325118 0.798139
O O7 0.599761 0.804562 0.988895
O O8 0.500000 0.000000 0.000000
O O9 0.181798 0.898452 0.739925
O O10 0.116368 0.051077 0.888396
O O11 0.220717 0.750783 0.381944
O O12 0.318167 0.607341 0.455027
#
# Coordination Sequence:
#
# PCOD9284115 Si02
#       6
#     8   4   8   8   8   8
#     4  11  23  41  71 100 132 174 223 284 334 395
#     4  12  26  44  70  94 134 188 220 272 342 420
#     4  11  24  48  66  94 138 182 219 270 342 407
#     4  12  23  42  67 100 133 171 228 275 334 405
#     4  10  21  40  66  99 132 170 213 276 343 392
#     4  10  22  41  68  94 132 172 218 278 332 391
#
# _framework density 19.008534999999998
#
# number of rings (size 3 to 8) (size 9 to 14) (size 15 to 20)
#    0.000    1.091    5.455    1.091    0.000    2.182 
#    6.545    0.000    0.000    0.000    0.000    0.000 
#    0.000    0.000    0.000    0.000    0.000    0.000 
#
# Total GULP energy -122881.331138 kJ/mol
# GULP energy per Si atom -5585.515052 kJ/mol
# Density = 1.896527 g / cm^3
# Si number density = 19.008535 Si / 1000 Ang^3
#
#
#
# Elastic Constant Matrix: (Units=GPa)
#
#
# Indices 1 2 3 4 5 6 
#
# 1 115.6005 60.5779 53.1197 0.0000 8.9907 0.0000
# 2 60.5779 122.2631 66.6967 0.0000 0.4132 0.0000
# 3 53.1197 66.6967 101.7237 0.0000 -12.7284 0.0000
# 4 0.0000 0.0000 0.0000 14.4232 0.0000 -7.1609
# 5 8.9907 0.4132 -12.7284 0.0000 39.8927 0.0000
# 6 0.0000 0.0000 0.0000 -7.1609 0.0000 3.5188
#
#
#
# Elastic Compliance Matrix: (Units=1/GPa)
#
#
# Indices 1 2 3 4 5 6 
#
# 1 0.013324 -0.003860 -0.004997 0.000000 -0.004557 0.000000
# 2 -0.003860 0.014185 -0.007494 0.000000 -0.001668 0.000000
# 3 -0.004997 -0.007494 0.018232 0.000000 0.007021 0.000000
# 4 0.000000 0.000000 0.000000 -6.692953 0.000000-13.620388
# 5 -0.004557 -0.001668 0.007021 0.000000 0.028352 0.000000
# 6 0.000000 0.000000 0.000000-13.620388 0.000000-27.433769
#
#
# Mechanical properties :
#
#
# Convention : Reuss Voigt Hill
#
# Bulk Modulus (GPa) = 76.69136 77.81954 77.25545
# Shear Modulus (GPa) = -0.14699 22.17978 11.01640
#
# Velocity S-wave (km/s) = -0.27838 3.41960 2.41000
# Velocity P-wave (km/s) = 6.35059 7.52461 6.96239
#
# Compressibility (1/GPa) = 0.01303928
#
# Stress axis : x y z
#
# Youngs Moduli (GPa) = 75.05274 70.49513 54.84941
#
# Poissons Ratio (x) = 0.27214 0.27407
# Poissons Ratio (y) = 0.28973 0.41102
# Poissons Ratio (z) = 0.37503 0.52827
#
# Static dielectric constant tensor:
#      x y z
#    x 1.416090 0.000000 -0.125050 
#    y 0.000000 1.647430 0.000000 
#    z -0.125050 0.000000 1.581420 
# 
# From -- ./inp_files/110067.got.cif
#   From: 2010.05.17/outbox.cif.g08.bks.cpg/sg15_56_cif.got.tgz:110067.got - 2010.06.03 18:47:42.
