data_PCOD9284037
_publ_section_title
;
Structure prediction by ZEFSAII (Michael W. Deem and Ramdas Pophale) SiO2 
 PCOD9284037
Probable space group: C 2/C
;
_chemical_formula_sum "Si O2"
_cell_formula_units_Z 40
_cell_length_a 25.616287
_cell_length_b 12.915110
_cell_length_c 10.816027
_cell_angle_alpha 90.000000
_cell_angle_beta 145.755226
_cell_angle_gamma 90.000000
_cell_volume 2013.639675
_symmetry_space_group_name_H-M "C 2/C"
_symmetry_group_IT_number 15
_symmetry_cell_setting 'monoclinic'
loop_
_space_group_symop_operation_xyz
x,y,z
-x,y,1/2-z
-x,-y,-z
x,-y,1/2+z
1/2+x,1/2+y,z
1/2-x,1/2+y,1/2-z
1/2-x,1/2-y,-z
1/2+x,1/2-y,1/2+z
loop_
_atom_site_type_symbol
_atom_site_label
_atom_site_fract_x
_atom_site_fract_y
_atom_site_fract_z
Si Si1 0.570211 0.928706 0.800448
Si Si2 0.842604 0.013224 0.202496
Si Si3 0.007256 0.864880 0.904358
Si Si4 0.230332 0.461355 0.731381
Si Si5 0.941152 0.632425 0.491895
O O1 0.500000 0.866740 0.750000
O O2 0.591411 0.879839 0.712105
O O3 0.513098 0.036617 0.657054
O O4 0.662554 0.945209 0.058744
O O5 0.920813 0.094491 0.313514
O O6 0.789709 0.053843 0.222338
O O7 0.898857 0.910556 0.353300
O O8 0.782743 0.987933 0.961810
O O9 0.000000 0.906583 0.750000
O O10 0.009614 0.741609 0.901861
O O11 0.151831 0.375050 0.607711
#
# Coordination Sequence:
#
# PCOD9284037 Si02
#       5
#     8   8   8   8   8
#     4   9  19  38  63  90 129 168 208 263 325 376
#     4  11  24  41  67  88 133 169 214 262 323 376
#     4  11  23  43  62  92 129 173 211 265 323 381
#     4  11  20  42  65  94 122 171 213 266 308 381
#     4  10  21  40  66  91 130 168 209 265 327 375
#
# _framework density 19.864526999999999
#
# number of rings (size 3 to 8) (size 9 to 14) (size 15 to 20)
#    0.000    1.600    4.000    1.800    0.000    0.800 
#    3.600    8.000    0.000    0.000    0.000    0.000 
#    0.000    0.000    0.000    0.000    0.000    0.000 
#
# Total GULP energy -111375.570255 kJ/mol
# GULP energy per Si atom -5568.778513 kJ/mol
# Density = 1.981931 g / cm^3
# Si number density = 19.864527 Si / 1000 Ang^3
#
#
#
# Elastic Constant Matrix: (Units=GPa)
#
#
# Indices 1 2 3 4 5 6 
#
# 1 188.2524 21.5260 49.4911 0.0000 1.2646 0.0000
# 2 21.5260 40.7405 1.6676 0.0000 3.5392 0.0000
# 3 49.4911 1.6676 132.4858 0.0000 -31.2770 0.0000
# 4 0.0000 0.0000 0.0000 4.7772 0.0000 3.6439
# 5 1.2646 3.5392 -31.2770 0.0000 46.8105 0.0000
# 6 0.0000 0.0000 0.0000 3.6439 0.0000 9.3762
#
#
#
# Elastic Compliance Matrix: (Units=1/GPa)
#
#
# Indices 1 2 3 4 5 6 
#
# 1 0.006411 -0.003118 -0.002779 0.000000 -0.001795 0.000000
# 2 -0.003118 0.026313 0.000456 0.000000 -0.001601 0.000000
# 3 -0.002779 0.000456 0.010199 0.000000 0.006855 0.000000
# 4 0.000000 0.000000 0.000000 0.297526 0.000000 -0.115629
# 5 -0.001795 -0.001601 0.006855 0.000000 0.026113 0.000000
# 6 0.000000 0.000000 0.000000 -0.115629 0.000000 0.151590
#
#
# Mechanical properties :
#
#
# Convention : Reuss Voigt Hill
#
# Bulk Modulus (GPa) = 31.21083 56.31645 43.76364
# Shear Modulus (GPa) = 9.26413 31.44573 20.35493
#
# Velocity S-wave (km/s) = 2.16189 3.98302 3.20455
# Velocity P-wave (km/s) = 4.68803 7.04020 5.98089
#
# Compressibility (1/GPa) = 0.03204016
#
# Stress axis : x y z
#
# Youngs Moduli (GPa) = 155.97505 38.00346 98.05030
#
# Poissons Ratio (x) = 0.11849 0.27252
# Poissons Ratio (y) = 0.48631 -0.04467
# Poissons Ratio (z) = 0.43352 -0.01731
#
# Static dielectric constant tensor:
#      x y z
#    x 1.787200 0.000000 -0.031210 
#    y 0.000000 1.697680 0.000000 
#    z -0.031210 0.000000 1.739760 
# 
# From -- ./inp_files/94481.got.cif
#   From: 2010.05.17/outbox.cif.g08.bks.cpg/sg15_48_cif.got.tgz:94481.got - 2010.06.03 18:47:42.
