data_PCOD9284885
_publ_section_title
;
Structure prediction by ZEFSAII (Michael W. Deem and Ramdas Pophale) SiO2 
 PCOD9284885
Probable space group: C 2/C
;
_chemical_formula_sum "Si O2"
_cell_formula_units_Z 60
_cell_length_a 16.698276
_cell_length_b 19.591832
_cell_length_c 8.814286
_cell_angle_alpha 90.000000
_cell_angle_beta 87.661886
_cell_angle_gamma 90.000000
_cell_volume 2881.191407
_symmetry_space_group_name_H-M "C 2/C"
_symmetry_group_IT_number 15
_symmetry_cell_setting 'monoclinic'
loop_
_space_group_symop_operation_xyz
x,y,z
-x,y,1/2-z
-x,-y,-z
x,-y,1/2+z
1/2+x,1/2+y,z
1/2-x,1/2+y,1/2-z
1/2-x,1/2-y,-z
1/2+x,1/2-y,1/2+z
loop_
_atom_site_type_symbol
_atom_site_label
_atom_site_fract_x
_atom_site_fract_y
_atom_site_fract_z
Si Si1 0.000000 0.013595 0.750000
Si Si2 0.181542 0.806979 0.979145
Si Si3 0.411029 0.208713 0.323327
Si Si4 0.911214 0.795521 0.820675
Si Si5 0.899110 0.070863 0.500264
Si Si6 0.221686 0.450853 0.917383
Si Si7 0.824475 0.699075 0.015024
Si Si8 0.307218 0.085145 0.432903
O O1 0.934118 0.057071 0.663717
O O2 0.957858 0.965439 0.875891
O O3 0.151080 0.811246 0.809057
O O4 0.228583 0.876776 0.008181
O O5 0.250000 0.750000 0.000000
O O6 0.106585 0.777536 0.079896
O O7 0.500000 0.202562 0.250000
O O8 0.354325 0.211508 0.182054
O O9 0.378270 0.141796 0.416175
O O10 0.898508 0.849992 0.955300
O O11 0.000000 0.800521 0.750000
O O12 0.891151 0.722217 0.890378
O O13 0.812137 0.040542 0.471348
O O14 0.194048 0.380404 0.996832
O O15 0.214541 0.438170 0.737495
O O16 0.174347 0.518053 0.972020
O O17 0.750000 0.750000 0.000000
#
# Coordination Sequence:
#
# PCOD9284885 Si02
#       8
#     4   8   8   8   8   8   8   8
#     4  10  24  38  60  90 132 170 202 258 334 396
#     4  10  21  41  65  92 127 169 216 268 320 391
#     4  10  22  43  65  96 129 164 211 271 325 386
#     4  12  23  40  62  91 127 168 209 276 329 382
#     4  11  21  41  58  87 129 168 214 259 317 399
#     4  11  22  39  65  88 122 167 216 268 318 381
#     4  11  22  42  62  90 123 166 218 266 318 387
#     4  10  22  40  64  95 124 165 217 264 319 389
#
# _framework density 20.824719000000002
#
# number of rings (size 3 to 8) (size 9 to 14) (size 15 to 20)
#    0.000    1.333    3.333    3.200    0.000    3.200 
#    6.000    3.333    0.000    0.000    0.000    0.000 
#    0.000    0.000    0.000    0.000    0.000    0.000 
#
# Total GULP energy -167606.340647 kJ/mol
# GULP energy per Si atom -5586.878022 kJ/mol
# Density = 2.077732 g / cm^3
# Si number density = 20.824719 Si / 1000 Ang^3
#
#
#
# Elastic Constant Matrix: (Units=GPa)
#
#
# Indices 1 2 3 4 5 6 
#
# 1 51.1222 30.9020 19.5822 0.0000 -7.5426 0.0000
# 2 30.9020 135.1758 34.9824 0.0000 -14.9657 0.0000
# 3 19.5822 34.9824 37.9038 0.0000 -2.9857 0.0000
# 4 0.0000 0.0000 0.0000 28.8402 0.0000 -3.0300
# 5 -7.5426 -14.9657 -2.9857 0.0000 34.6617 0.0000
# 6 0.0000 0.0000 0.0000 -3.0300 0.0000 22.7122
#
#
#
# Elastic Compliance Matrix: (Units=1/GPa)
#
#
# Indices 1 2 3 4 5 6 
#
# 1 0.025775 -0.002798 -0.010457 0.000000 0.003500 0.000000
# 2 -0.002798 0.010450 -0.007945 0.000000 0.003219 0.000000
# 3 -0.010457 -0.007945 0.038933 0.000000 -0.002353 0.000000
# 4 0.000000 0.000000 0.000000 0.035167 0.000000 0.004691
# 5 0.003500 0.003219 -0.002353 0.000000 0.030799 0.000000
# 6 0.000000 0.000000 0.000000 0.004691 0.000000 0.044655
#
#
# Mechanical properties :
#
#
# Convention : Reuss Voigt Hill
#
# Bulk Modulus (GPa) = 30.52972 43.90392 37.21682
# Shear Modulus (GPa) = 20.91182 26.49181 23.70181
#
# Velocity S-wave (km/s) = 3.17232 3.57057 3.37732
# Velocity P-wave (km/s) = 5.30192 6.17470 5.75488
#
# Compressibility (1/GPa) = 0.03275496
#
# Stress axis : x y z
#
# Youngs Moduli (GPa) = 38.79785 95.69331 25.68524
#
# Poissons Ratio (x) = 0.26779 0.26860
# Poissons Ratio (y) = 0.10857 0.20408
# Poissons Ratio (z) = 0.40573 0.76031
#
# Static dielectric constant tensor:
#      x y z
#    x 1.788920 0.000000 -0.023280 
#    y 0.000000 1.818810 0.000000 
#    z -0.023280 0.000000 1.738830 
# 
# From -- ./inp_files/50224.got.cif
#   From: 2010.05.17/outbox.cif.g08.bks.cpg/sg15_26_cif.got.tgz:50224.got - 2010.06.03 18:47:42.
