data_PCOD9284304
_publ_section_title
;
Structure prediction by ZEFSAII (Michael W. Deem and Ramdas Pophale) SiO2 
 PCOD9284304
Probable space group: C 2/C
;
_chemical_formula_sum "Si O2"
_cell_formula_units_Z 52
_cell_length_a 11.873191
_cell_length_b 14.328053
_cell_length_c 14.517661
_cell_angle_alpha 90.000000
_cell_angle_beta 54.319516
_cell_angle_gamma 90.000000
_cell_volume 2006.126177
_symmetry_space_group_name_H-M "C 2/C"
_symmetry_group_IT_number 15
_symmetry_cell_setting 'monoclinic'
loop_
_space_group_symop_operation_xyz
x,y,z
-x,y,1/2-z
-x,-y,-z
x,-y,1/2+z
1/2+x,1/2+y,z
1/2-x,1/2+y,1/2-z
1/2-x,1/2-y,-z
1/2+x,1/2-y,1/2+z
loop_
_atom_site_type_symbol
_atom_site_label
_atom_site_fract_x
_atom_site_fract_y
_atom_site_fract_z
Si Si1 0.998400 0.523724 0.859082
Si Si2 0.275214 0.883629 0.757971
Si Si3 0.500000 0.582311 0.750000
Si Si4 0.402752 0.572895 0.994744
Si Si5 0.263005 0.163801 0.728719
Si Si6 0.258488 0.395842 0.922681
Si Si7 0.386165 0.303459 0.027506
O O1 0.069429 0.421453 0.833670
O O2 0.105112 0.599348 0.853739
O O3 0.000000 0.546209 0.750000
O O4 0.849534 0.534216 0.977554
O O5 0.234282 0.775464 0.780741
O O6 0.197420 0.921632 0.702685
O O7 0.232915 0.924155 0.877356
O O8 0.419216 0.545516 0.880387
O O9 0.628167 0.636177 0.735413
O O10 0.474793 0.673281 0.982769
O O11 0.500000 0.500000 0.000000
O O12 0.229230 0.148566 0.852811
O O13 0.159452 0.302970 0.957931
O O14 0.375909 0.352538 0.933379
#
# Coordination Sequence:
#
# PCOD9284304 Si02
#       7
#     8   8   4   8   8   8   8
#     4  12  24  43  68 101 145 184 225 293 351 408
#     4  11  25  42  66 103 136 182 240 282 340 428
#     4  10  24  46  72  90 136 186 222 292 352 412
#     4  11  24  43  64  97 134 176 234 284 341 418
#     4  10  22  44  69 100 139 185 232 284 355 413
#     4  10  21  40  68  98 139 180 224 290 348 405
#     4   9  19  39  66 100 134 178 231 283 346 413
#
# _framework density 25.920603
#
# number of rings (size 3 to 8) (size 9 to 14) (size 15 to 20)
#    0.000    1.538    1.538    3.231    1.077    3.692 
#    2.769    0.000    0.000    0.000    0.000    0.000 
#    0.000    0.000    0.000    0.000    0.000    0.000 
#
# Total GULP energy -145138.179772 kJ/mol
# GULP energy per Si atom -5582.237684 kJ/mol
# Density = 2.586161 g / cm^3
# Si number density = 25.920603 Si / 1000 Ang^3
#
#
#
# Elastic Constant Matrix: (Units=GPa)
#
#
# Indices 1 2 3 4 5 6 
#
# 1 73.9833 12.1369 43.0815 0.0000 19.2015 0.0000
# 2 12.1369 92.4340 21.2405 0.0000 6.2856 0.0000
# 3 43.0815 21.2405 184.8798 0.0000 18.5154 0.0000
# 4 0.0000 0.0000 0.0000 33.8664 0.0000 11.9326
# 5 19.2015 6.2856 18.5154 0.0000 57.2436 0.0000
# 6 0.0000 0.0000 0.0000 11.9326 0.0000 28.4563
#
#
#
# Elastic Compliance Matrix: (Units=1/GPa)
#
#
# Indices 1 2 3 4 5 6 
#
# 1 0.016798 -0.001137 -0.003340 0.000000 -0.004429 0.000000
# 2 -0.001137 0.011228 -0.000971 0.000000 -0.000537 0.000000
# 3 -0.003340 -0.000971 0.006383 0.000000 -0.000837 0.000000
# 4 0.000000 0.000000 0.000000 0.034647 0.000000 -0.014529
# 5 -0.004429 -0.000537 -0.000837 0.000000 0.019285 0.000000
# 6 0.000000 0.000000 0.000000 -0.014529 0.000000 0.041234
#
#
# Mechanical properties :
#
#
# Convention : Reuss Voigt Hill
#
# Bulk Modulus (GPa) = 42.53220 56.02389 49.27805
# Shear Modulus (GPa) = 33.71391 42.23580 37.97486
#
# Velocity S-wave (km/s) = 3.61038 4.04100 3.83174
# Velocity P-wave (km/s) = 5.81585 6.59041 6.21520
#
# Compressibility (1/GPa) = 0.02351160
#
# Stress axis : x y z
#
# Youngs Moduli (GPa) = 59.53225 89.06696 156.67394
#
# Poissons Ratio (x) = 0.10126 0.52330
# Poissons Ratio (y) = 0.06768 0.15216
# Poissons Ratio (z) = 0.19884 0.08650
#
# Static dielectric constant tensor:
#      x y z
#    x 2.070980 0.000000 -0.008110 
#    y 0.000000 2.145470 0.000000 
#    z -0.008110 0.000000 2.099280 
# 
# From -- ./inp_files/145505.got.cif
#   From: 2010.05.17/outbox.cif.g08.bks.cpg/sg15_73_cif.got.tgz:145505.got - 2010.06.03 18:47:42.
