data_PCOD9284373
_publ_section_title
;
Structure prediction by ZEFSAII (Michael W. Deem and Ramdas Pophale) SiO2 
 PCOD9284373
Probable space group: C 2/C
;
_chemical_formula_sum "Si O2"
_cell_formula_units_Z 44
_cell_length_a 6.599460
_cell_length_b 16.873828
_cell_length_c 23.065560
_cell_angle_alpha 90.000000
_cell_angle_beta 134.841925
_cell_angle_gamma 90.000000
_cell_volume 1821.234683
_symmetry_space_group_name_H-M "C 2/C"
_symmetry_group_IT_number 15
_symmetry_cell_setting 'monoclinic'
loop_
_space_group_symop_operation_xyz
x,y,z
-x,y,1/2-z
-x,-y,-z
x,-y,1/2+z
1/2+x,1/2+y,z
1/2-x,1/2+y,1/2-z
1/2-x,1/2-y,-z
1/2+x,1/2-y,1/2+z
loop_
_atom_site_type_symbol
_atom_site_label
_atom_site_fract_x
_atom_site_fract_y
_atom_site_fract_z
Si Si1 0.300765 0.107372 0.887750
Si Si2 0.807739 0.988356 0.790831
Si Si3 0.077455 0.899106 0.954852
Si Si4 0.880459 0.837071 0.025550
Si Si5 0.000000 0.858173 0.750000
Si Si6 0.048852 0.253623 0.372217
O O1 0.238016 0.122085 0.942503
O O2 0.309133 0.190018 0.853194
O O3 0.623332 0.071974 0.956841
O O4 0.038157 0.052538 0.817300
O O5 0.500000 0.018675 0.750000
O O6 0.777467 0.920905 0.734702
O O7 0.955056 0.949438 0.877504
O O8 0.130363 0.811621 0.937485
O O9 0.849402 0.885353 0.960054
O O10 0.214273 0.818292 0.095748
O O11 0.750000 0.750000 0.000000
O O12 0.969295 0.798945 0.689386
#
# Coordination Sequence:
#
# PCOD9284373 Si02
#       6
#     8   8   8   8   4   8
#     4  11  22  42  69 105 143 178 240 305 357 425
#     4  11  27  44  67 100 154 198 233 284 369 444
#     4  10  21  40  70 104 135 184 240 294 357 427
#     4  11  19  35  71 102 138 166 241 305 352 406
#     4  10  26  48  70  94 146 198 246 284 358 434
#     4  10  21  41  70 104 131 186 240 300 352 421
#
# _framework density 24.159435999999999
#
# number of rings (size 3 to 8) (size 9 to 14) (size 15 to 20)
#    0.000    1.455    3.636    1.636    2.545    3.636 
#    4.909    0.000    0.000    0.000    0.000    0.000 
#    0.000    0.000    0.000    0.000    0.000    0.000 
#
# Total GULP energy -122712.315750 kJ/mol
# GULP energy per Si atom -5577.832534 kJ/mol
# Density = 2.410445 g / cm^3
# Si number density = 24.159436 Si / 1000 Ang^3
#
#
#
# Elastic Constant Matrix: (Units=GPa)
#
#
# Indices 1 2 3 4 5 6 
#
# 1 154.9498 51.0155 60.3145 0.0001 -24.6631 0.0000
# 2 51.0155 97.5918 54.0833 -0.0001 3.2450 -0.0001
# 3 60.3145 54.0833 86.1091 -0.0003 4.2862 -0.0002
# 4 0.0001 -0.0001 -0.0003 29.6702 0.0000 -2.6069
# 5 -24.6631 3.2450 4.2862 0.0000 42.6366 -0.0001
# 6 0.0000 -0.0001 -0.0002 -2.6069 -0.0001 32.8341
#
#
#
# Elastic Compliance Matrix: (Units=1/GPa)
#
#
# Indices 1 2 3 4 5 6 
#
# 1 0.010893 -0.002311 -0.006534 0.000000 0.007134 0.000000
# 2 -0.002311 0.016209 -0.008477 0.000000 -0.001718 0.000000
# 3 -0.006534 -0.008477 0.021779 0.000000 -0.005324 0.000000
# 4 0.000000 0.000000 0.000000 0.033941 0.000000 0.002695
# 5 0.007134 -0.001718 -0.005324 0.000000 0.028247 0.000000
# 6 0.000000 0.000000 0.000000 0.002695 0.000000 0.030670
#
#
# Mechanical properties :
#
#
# Convention : Reuss Voigt Hill
#
# Bulk Modulus (GPa) = 70.23040 74.38637 72.30838
# Shear Modulus (GPa) = 27.60477 32.57735 30.09106
#
# Velocity S-wave (km/s) = 3.38392 3.67608 3.53302
# Velocity P-wave (km/s) = 6.66337 6.99105 6.82917
#
# Compressibility (1/GPa) = 0.01423885
#
# Stress axis : x y z
#
# Youngs Moduli (GPa) = 91.79936 61.69254 45.91587
#
# Poissons Ratio (x) = 0.14255 0.30001
# Poissons Ratio (y) = 0.21211 0.38922
# Poissons Ratio (z) = 0.59982 0.52296
#
# Static dielectric constant tensor:
#      x y z
#    x 2.075050 0.000000 0.087160 
#    y 0.000000 1.984070 0.000000 
#    z 0.087160 0.000000 2.037830 
# 
# From -- ./inp_files/286178.got.cif
#   From: 2010.05.17/outbox.cif.g08.bks.cpg/sg15_144_cif.got.tgz:286178.got - 2010.06.03 18:47:42.
