data_PCOD9284463
_publ_section_title
;
Structure prediction by ZEFSAII (Michael W. Deem and Ramdas Pophale) SiO2 
 PCOD9284463
Probable space group: C 2/C
;
_chemical_formula_sum "Si O2"
_cell_formula_units_Z 44
_cell_length_a 18.852347
_cell_length_b 8.700006
_cell_length_c 17.989647
_cell_angle_alpha 90.000000
_cell_angle_beta 133.204875
_cell_angle_gamma 90.000000
_cell_volume 2150.709500
_symmetry_space_group_name_H-M "C 2/C"
_symmetry_group_IT_number 15
_symmetry_cell_setting 'monoclinic'
loop_
_space_group_symop_operation_xyz
x,y,z
-x,y,1/2-z
-x,-y,-z
x,-y,1/2+z
1/2+x,1/2+y,z
1/2-x,1/2+y,1/2-z
1/2-x,1/2-y,-z
1/2+x,1/2-y,1/2+z
loop_
_atom_site_type_symbol
_atom_site_label
_atom_site_fract_x
_atom_site_fract_y
_atom_site_fract_z
Si Si1 0.471367 0.817286 0.985671
Si Si2 0.500000 0.979766 0.250000
Si Si3 0.338288 0.845290 0.028279
Si Si4 0.679146 0.720692 0.171941
Si Si5 0.781042 0.992084 0.175495
Si Si6 0.124961 0.298088 0.740588
O O1 0.404998 0.780028 0.009334
O O2 0.570683 0.721820 0.063845
O O3 0.410599 0.779133 0.869089
O O4 0.500000 0.000000 0.000000
O O5 0.446272 0.087587 0.270538
O O6 0.415493 0.888669 0.146928
O O7 0.250000 0.750000 0.000000
O O8 0.283560 0.981072 0.943479
O O9 0.716513 0.896455 0.189605
O O10 0.685846 0.645681 0.258259
O O11 0.762828 0.643977 0.180632
O O12 0.867367 0.873068 0.220017
#
# Coordination Sequence:
#
# PCOD9284463 Si02
#       6
#     8   4   8   8   8   8
#     4  12  20  44  74  98 138 192 239 287 370 434
#     4  12  26  44  72 100 142 206 226 298 392 422
#     4  12  27  44  69 110 148 187 241 305 363 441
#     4  10  21  40  73  98 135 179 242 293 341 431
#     4  10  22  44  67 103 142 176 236 310 343 422
#     4  10  23  42  71  99 137 185 243 292 360 433
#
# _framework density 20.458365000000001
#
# number of rings (size 3 to 8) (size 9 to 14) (size 15 to 20)
#    1.091    0.000    5.455    0.000    2.545    2.909 
#    3.273    0.000    0.000    0.000    0.000    0.000 
#    0.000    0.000    0.000    0.000    0.000    0.000 
#
# Total GULP energy -122509.375539 kJ/mol
# GULP energy per Si atom -5568.607979 kJ/mol
# Density = 2.041180 g / cm^3
# Si number density = 20.458365 Si / 1000 Ang^3
#
#
#
# Elastic Constant Matrix: (Units=GPa)
#
#
# Indices 1 2 3 4 5 6 
#
# 1 131.5722 35.3333 56.4824 0.0000 19.6295 0.0000
# 2 35.3333 47.7800 52.7145 0.0000 5.8944 0.0000
# 3 56.4824 52.7145 162.7767 0.0000 15.1320 0.0000
# 4 0.0000 0.0000 0.0000 29.1189 0.0000 18.8589
# 5 19.6295 5.8944 15.1320 0.0000 37.9195 0.0000
# 6 0.0000 0.0000 0.0000 18.8589 0.0000 26.8917
#
#
#
# Elastic Compliance Matrix: (Units=1/GPa)
#
#
# Indices 1 2 3 4 5 6 
#
# 1 0.010280 -0.005579 -0.001398 0.000000 -0.003896 0.000000
# 2 -0.005579 0.035620 -0.009714 0.000000 0.001227 0.000000
# 3 -0.001398 -0.009714 0.009935 0.000000 -0.001731 0.000000
# 4 0.000000 0.000000 0.000000 0.062919 0.000000 -0.044125
# 5 -0.003896 0.001227 -0.001731 0.000000 0.028889 0.000000
# 6 0.000000 0.000000 0.000000 -0.044125 0.000000 0.068130
#
#
# Mechanical properties :
#
#
# Convention : Reuss Voigt Hill
#
# Bulk Modulus (GPa) = 44.53538 70.13214 57.33376
# Shear Modulus (GPa) = 19.48252 31.95927 25.72090
#
# Velocity S-wave (km/s) = 3.08929 3.95671 3.54959
# Velocity P-wave (km/s) = 5.87716 7.43161 6.69962
#
# Compressibility (1/GPa) = 0.02245406
#
# Stress axis : x y z
#
# Youngs Moduli (GPa) = 97.27510 28.07390 100.65196
#
# Poissons Ratio (x) = 0.15662 0.14074
# Poissons Ratio (y) = 0.54268 0.97771
# Poissons Ratio (z) = 0.13601 0.27270
#
# Static dielectric constant tensor:
#      x y z
#    x 1.769040 0.000000 0.020000 
#    y 0.000000 1.797310 0.000000 
#    z 0.020000 0.000000 1.718290 
# 
# From -- ./inp_files/209765.got.cif
#   From: 2010.05.17/outbox.cif.g08.bks.cpg/sg15_105_cif.got.tgz:209765.got - 2010.06.03 18:47:42.
