data_PCOD9284368
_publ_section_title
;
Structure prediction by ZEFSAII (Michael W. Deem and Ramdas Pophale) SiO2 
 PCOD9284368
Probable space group: C 2/C
;
_chemical_formula_sum "Si O2"
_cell_formula_units_Z 48
_cell_length_a 12.251820
_cell_length_b 27.014500
_cell_length_c 6.712261
_cell_angle_alpha 90.000000
_cell_angle_beta 108.484915
_cell_angle_gamma 90.000000
_cell_volume 2106.983828
_symmetry_space_group_name_H-M "C 2/C"
_symmetry_group_IT_number 15
_symmetry_cell_setting 'monoclinic'
loop_
_space_group_symop_operation_xyz
x,y,z
-x,y,1/2-z
-x,-y,-z
x,-y,1/2+z
1/2+x,1/2+y,z
1/2-x,1/2+y,1/2-z
1/2-x,1/2-y,-z
1/2+x,1/2-y,1/2+z
loop_
_atom_site_type_symbol
_atom_site_label
_atom_site_fract_x
_atom_site_fract_y
_atom_site_fract_z
Si Si1 0.629959 0.396683 0.353077
Si Si2 0.774702 0.340947 0.118352
Si Si3 0.401293 0.786562 0.538264
Si Si4 0.907471 0.568581 0.493023
Si Si5 0.325880 0.310268 0.840807
Si Si6 0.647417 0.044889 0.486099
O O1 0.500000 0.413029 0.250000
O O2 0.673954 0.360027 0.205239
O O3 0.640125 0.364721 0.562261
O O4 0.723442 0.440075 0.391100
O O5 0.869413 0.315708 0.317218
O O6 0.840149 0.385730 0.046131
O O7 0.711402 0.309437 0.910571
O O8 0.500000 0.802370 0.750000
O O9 0.417351 0.730314 0.470337
O O10 0.288449 0.794402 0.606889
O O11 0.877907 0.568798 0.241405
O O12 0.867109 0.513904 0.537218
O O13 0.952601 0.566240 0.926682
#
# Coordination Sequence:
#
# PCOD9284368 Si02
#       6
#     8   8   8   8   8   8
#     4  11  24  42  65  99 141 188 232 288 341 419
#     4  11  23  42  70  99 134 183 238 284 358 425
#     4  10  23  41  66 101 137 174 229 303 357 415
#     4  10  21  40  70 102 135 181 230 295 354 419
#     4  10  22  43  64  97 136 181 235 286 351 416
#     4  10  21  41  66 101 144 177 232 291 353 417
#
# _framework density 22.781381
#
# number of rings (size 3 to 8) (size 9 to 14) (size 15 to 20)
#    0.000    1.667    1.667    2.000    0.000    7.333 
#    0.000    5.000    0.000    2.000    0.000    0.000 
#    0.000    0.000    0.000    0.000    0.000    0.000 
#
# Total GULP energy -134158.544505 kJ/mol
# GULP energy per Si atom -5589.939354 kJ/mol
# Density = 2.272953 g / cm^3
# Si number density = 22.781381 Si / 1000 Ang^3
#
#
#
# Elastic Constant Matrix: (Units=GPa)
#
#
# Indices 1 2 3 4 5 6 
#
# 1 125.6113 29.6512 34.5069 0.0000 30.6240 0.0000
# 2 29.6512 45.8642 22.7293 0.0000 2.6370 0.0000
# 3 34.5069 22.7293 131.4718 0.0000 7.3155 0.0000
# 4 0.0000 0.0000 0.0000 30.8944 0.0000 10.6718
# 5 30.6240 2.6370 7.3155 0.0000 34.7443 0.0000
# 6 0.0000 0.0000 0.0000 10.6718 0.0000 13.7482
#
#
#
# Elastic Compliance Matrix: (Units=1/GPa)
#
#
# Indices 1 2 3 4 5 6 
#
# 1 0.012433 -0.006691 -0.001543 0.000000 -0.010126 0.000000
# 2 -0.006691 0.027479 -0.003245 0.000000 0.004495 0.000000
# 3 -0.001543 -0.003245 0.008583 0.000000 -0.000201 0.000000
# 4 0.000000 0.000000 0.000000 0.044227 0.000000 -0.034331
# 5 -0.010126 0.004495 -0.000201 0.000000 0.037408 0.000000
# 6 0.000000 0.000000 0.000000 -0.034331 0.000000 0.099385
#
#
# Mechanical properties :
#
#
# Convention : Reuss Voigt Hill
#
# Bulk Modulus (GPa) = 39.15770 52.96913 46.06341
# Shear Modulus (GPa) = 19.15813 30.28135 24.71974
#
# Velocity S-wave (km/s) = 2.90307 3.64980 3.29764
# Velocity P-wave (km/s) = 5.33506 6.40803 5.89600
#
# Compressibility (1/GPa) = 0.02553776
#
# Stress axis : x y z
#
# Youngs Moduli (GPa) = 80.43005 36.39172 116.50523
#
# Poissons Ratio (x) = 0.24350 0.17977
# Poissons Ratio (y) = 0.53817 0.37801
# Poissons Ratio (z) = 0.12411 0.11807
#
# Static dielectric constant tensor:
#      x y z
#    x 1.815980 0.000000 0.001500 
#    y 0.000000 1.872290 0.000000 
#    z 0.001500 0.000000 1.933910 
# 
# From -- ./inp_files/8845.got.cif
#   From: 2010.05.17/outbox.cif.g08.bks.cpg/sg15_5_cif.got.tgz:8845.got - 2010.06.03 18:47:42.
