data_PCOD9284807
_publ_section_title
;
Structure prediction by ZEFSAII (Michael W. Deem and Ramdas Pophale) SiO2 
 PCOD9284807
Probable space group: C 2/C
;
_chemical_formula_sum "Si O2"
_cell_formula_units_Z 32
_cell_length_a 7.910399
_cell_length_b 10.594028
_cell_length_c 14.725656
_cell_angle_alpha 90.000000
_cell_angle_beta 108.912717
_cell_angle_gamma 90.000000
_cell_volume 1167.431652
_symmetry_space_group_name_H-M "C 2/C"
_symmetry_group_IT_number 15
_symmetry_cell_setting 'monoclinic'
loop_
_space_group_symop_operation_xyz
x,y,z
-x,y,1/2-z
-x,-y,-z
x,-y,1/2+z
1/2+x,1/2+y,z
1/2-x,1/2+y,1/2-z
1/2-x,1/2-y,-z
1/2+x,1/2-y,1/2+z
loop_
_atom_site_type_symbol
_atom_site_label
_atom_site_fract_x
_atom_site_fract_y
_atom_site_fract_z
Si Si1 0.554795 0.579683 0.859866
Si Si2 0.325524 0.959016 0.025777
Si Si3 0.830381 0.700784 0.677274
Si Si4 0.802373 0.328797 0.675562
O O1 0.500000 0.540547 0.750000
O O2 0.371892 0.645176 0.860284
O O3 0.696786 0.693679 0.874825
O O4 0.651206 0.469619 0.931534
O O5 0.369582 0.823718 0.078267
O O6 0.282182 0.062277 0.097816
O O7 0.500000 0.000000 0.000000
O O8 0.813013 0.809231 0.752254
O O9 0.000000 0.626211 0.750000
O O10 0.000000 0.343149 0.750000
#
# Coordination Sequence:
#
# PCOD9284807 Si02
#       4
#     8   8   8   8
#     4   9  20  39  60  93 134 168 216 279 327 386
#     4  12  22  38  69  99 125 174 226 274 333 394
#     4  10  21  41  64  94 135 177 217 266 331 397
#     4   9  21  42  62  90 134 173 216 275 329 395
#
# _framework density 27.410596999999999
#
# number of rings (size 3 to 8) (size 9 to 14) (size 15 to 20)
#    0.000    2.500    0.000    5.250    0.000    0.000 
#    0.000   21.250    0.000    0.000    0.000    0.000 
#    0.000    0.000    0.000    0.000    0.000    0.000 
#
# Total GULP energy -89157.847801 kJ/mol
# GULP energy per Si atom -5572.365488 kJ/mol
# Density = 2.734821 g / cm^3
# Si number density = 27.410597 Si / 1000 Ang^3
#
#
#
# Elastic Constant Matrix: (Units=GPa)
#
#
# Indices 1 2 3 4 5 6 
#
# 1 144.0691 17.2638 17.7769 0.0000 -18.0393 0.0000
# 2 17.2638 136.0814 45.2419 0.0000 -22.9709 0.0000
# 3 17.7769 45.2419 171.8054 0.0000 4.2401 0.0000
# 4 0.0000 0.0000 0.0000 79.2006 0.0000 25.5399
# 5 -18.0393 -22.9709 4.2401 0.0000 55.9867 0.0000
# 6 0.0000 0.0000 0.0000 25.5399 0.0000 61.2070
#
#
#
# Elastic Compliance Matrix: (Units=1/GPa)
#
#
# Indices 1 2 3 4 5 6 
#
# 1 0.007357 -0.000299 -0.000739 0.000000 0.002304 0.000000
# 2 -0.000299 0.008801 -0.002378 0.000000 0.003695 0.000000
# 3 -0.000739 -0.002378 0.006565 0.000000 -0.001711 0.000000
# 4 0.000000 0.000000 0.000000 0.014589 0.000000 -0.006088
# 5 0.002304 0.003695 -0.001711 0.000000 0.020249 0.000000
# 6 0.000000 0.000000 0.000000 -0.006088 0.000000 0.018878
#
#
# Mechanical properties :
#
#
# Convention : Reuss Voigt Hill
#
# Bulk Modulus (GPa) = 62.92828 68.05789 65.49309
# Shear Modulus (GPa) = 56.45389 64.05709 60.25549
#
# Velocity S-wave (km/s) = 4.54317 4.83944 4.69364
# Velocity P-wave (km/s) = 7.10830 7.49065 7.30198
#
# Compressibility (1/GPa) = 0.01589111
#
# Stress axis : x y z
#
# Youngs Moduli (GPa) = 135.93234 113.62836 152.31307
#
# Poissons Ratio (x) = 0.03392 0.11263
# Poissons Ratio (y) = 0.04058 0.36217
# Poissons Ratio (z) = 0.10051 0.27018
#
# Static dielectric constant tensor:
#      x y z
#    x 2.183260 0.000000 -0.083170 
#    y 0.000000 2.297720 0.000000 
#    z -0.083170 0.000000 2.139800 
# 
# From -- ./inp_files/132074.got.cif
#   From: 2010.05.17/outbox.cif.g08.bks.cpg/sg15_67_cif.got.tgz:132074.got - 2010.06.03 18:47:42.
