data_PCOD9284261
_publ_section_title
;
Structure prediction by ZEFSAII (Michael W. Deem and Ramdas Pophale) SiO2 
 PCOD9284261
Probable space group: C 2/C
;
_chemical_formula_sum "Si O2"
_cell_formula_units_Z 48
_cell_length_a 7.684244
_cell_length_b 21.110773
_cell_length_c 15.465033
_cell_angle_alpha 90.000000
_cell_angle_beta 90.478626
_cell_angle_gamma 90.000000
_cell_volume 2508.655236
_symmetry_space_group_name_H-M "C 2/C"
_symmetry_group_IT_number 15
_symmetry_cell_setting 'monoclinic'
loop_
_space_group_symop_operation_xyz
x,y,z
-x,y,1/2-z
-x,-y,-z
x,-y,1/2+z
1/2+x,1/2+y,z
1/2-x,1/2+y,1/2-z
1/2-x,1/2-y,-z
1/2+x,1/2-y,1/2+z
loop_
_atom_site_type_symbol
_atom_site_label
_atom_site_fract_x
_atom_site_fract_y
_atom_site_fract_z
Si Si1 0.510550 0.213527 0.649107
Si Si2 0.972974 0.035230 0.590883
Si Si3 0.500000 0.250834 0.250000
Si Si4 0.296909 0.665437 0.336164
Si Si5 0.796923 0.847797 0.032156
Si Si6 0.846986 0.161676 0.898386
Si Si7 0.500000 0.443337 0.750000
O O1 0.500000 0.190700 0.750000
O O2 0.532653 0.289161 0.656267
O O3 0.680960 0.192724 0.596351
O O4 0.348719 0.185724 0.594380
O O5 0.812404 0.082814 0.574439
O O6 0.129273 0.085670 0.612027
O O7 0.948619 0.987284 0.668980
O O8 0.000000 0.000000 0.500000
O O9 0.649376 0.206260 0.288982
O O10 0.586319 0.298137 0.182367
O O11 0.236808 0.650793 0.433639
O O12 0.348881 0.602616 0.285084
O O13 0.999501 0.824607 0.031914
#
# Coordination Sequence:
#
# PCOD9284261 Si02
#       7
#     8   8   4   8   8   8   4
#     4  12  22  39  67 102 128 165 218 266 331 400
#     4  10  22  44  67  90 132 176 227 266 324 388
#     4  12  21  42  62  98 139 164 216 268 334 396
#     4  12  23  42  63 100 137 168 214 274 336 390
#     4  10  24  43  65  95 132 171 213 280 319 384
#     4  10  21  40  68  92 123 175 214 264 325 383
#     4  12  21  40  72  90 129 186 212 272 334 382
#
# _framework density 19.133758
#
# number of rings (size 3 to 8) (size 9 to 14) (size 15 to 20)
#    1.000    0.000    5.833    1.000    2.333    0.667 
#    6.000    2.500    0.000    0.000    0.000    0.000 
#    0.000    0.000    0.000    0.000    0.000    0.000 
#
# Total GULP energy -133662.615024 kJ/mol
# GULP energy per Si atom -5569.275626 kJ/mol
# Density = 1.909021 g / cm^3
# Si number density = 19.133758 Si / 1000 Ang^3
#
#
#
# Elastic Constant Matrix: (Units=GPa)
#
#
# Indices 1 2 3 4 5 6 
#
# 1 70.3930 30.9681 24.0477 0.0000 12.0532 0.0000
# 2 30.9681 127.7929 65.7853 0.0000 5.5763 0.0000
# 3 24.0477 65.7853 143.3516 0.0000 2.2187 0.0000
# 4 0.0000 0.0000 0.0000 5.9234 0.0000 -4.8113
# 5 12.0532 5.5763 2.2187 0.0000 22.8515 0.0000
# 6 0.0000 0.0000 0.0000 -4.8113 0.0000 17.6811
#
#
#
# Elastic Compliance Matrix: (Units=1/GPa)
#
#
# Indices 1 2 3 4 5 6 
#
# 1 0.017490 -0.003183 -0.001344 0.000000 -0.008318 0.000000
# 2 -0.003183 0.010921 -0.004469 0.000000 -0.000552 0.000000
# 3 -0.001344 -0.004469 0.009238 0.000000 0.000903 0.000000
# 4 0.000000 0.000000 0.000000 0.216720 0.000000 0.058972
# 5 -0.008318 -0.000552 0.000903 0.000000 0.048195 0.000000
# 6 0.000000 0.000000 0.000000 0.058972 0.000000 0.072605
#
#
# Mechanical properties :
#
#
# Convention : Reuss Voigt Hill
#
# Bulk Modulus (GPa) = 50.87611 64.79330 57.83471
# Shear Modulus (GPa) = 12.50888 24.00698 18.25793
#
# Velocity S-wave (km/s) = 2.55965 3.54601 3.09241
# Velocity P-wave (km/s) = 5.94837 7.12056 6.56070
#
# Compressibility (1/GPa) = 0.01965559
#
# Stress axis : x y z
#
# Youngs Moduli (GPa) = 57.17581 91.56324 108.24337
#
# Poissons Ratio (x) = 0.29147 0.14552
# Poissons Ratio (y) = 0.18201 0.48378
# Poissons Ratio (z) = 0.07687 0.40923
#
# Static dielectric constant tensor:
#      x y z
#    x 1.711990 0.000000 0.017960 
#    y 0.000000 1.699440 0.000000 
#    z 0.017960 0.000000 1.675470 
# 
# From -- ./inp_files/135515.got.cif
#   From: 2010.05.17/outbox.cif.g08.bks.cpg/sg15_68_cif.got.tgz:135515.got - 2010.06.03 18:47:42.
