data_PCOD9284012
_publ_section_title
;
Structure prediction by ZEFSAII (Michael W. Deem and Ramdas Pophale) SiO2 
 PCOD9284012
Probable space group: C 2/C
;
_chemical_formula_sum "Si O2"
_cell_formula_units_Z 56
_cell_length_a 8.014221
_cell_length_b 24.660289
_cell_length_c 14.217571
_cell_angle_alpha 90.000000
_cell_angle_beta 121.715512
_cell_angle_gamma 90.000000
_cell_volume 2390.261376
_symmetry_space_group_name_H-M "C 2/C"
_symmetry_group_IT_number 15
_symmetry_cell_setting 'monoclinic'
loop_
_space_group_symop_operation_xyz
x,y,z
-x,y,1/2-z
-x,-y,-z
x,-y,1/2+z
1/2+x,1/2+y,z
1/2-x,1/2+y,1/2-z
1/2-x,1/2-y,-z
1/2+x,1/2-y,1/2+z
loop_
_atom_site_type_symbol
_atom_site_label
_atom_site_fract_x
_atom_site_fract_y
_atom_site_fract_z
Si Si1 0.946667 0.946365 0.876792
Si Si2 0.123698 0.697873 0.495510
Si Si3 0.218632 0.487104 0.985233
Si Si4 0.784172 0.850887 0.230389
Si Si5 0.686137 0.031579 0.687667
Si Si6 0.230628 0.760310 0.797008
Si Si7 0.713863 0.150695 0.334603
O O1 0.877679 0.886201 0.835344
O O2 0.176106 0.956952 0.951743
O O3 0.845703 0.990893 0.779301
O O4 0.859168 0.957407 0.954452
O O5 0.250000 0.750000 0.500000
O O6 0.156634 0.675203 0.608565
O O7 0.207470 0.655138 0.444448
O O8 0.893828 0.711190 0.411058
O O9 0.202549 0.457406 0.080053
O O10 0.021294 0.501077 0.871988
O O11 0.706987 0.909413 0.239880
O O12 0.783792 0.803335 0.307275
O O13 0.000000 0.858497 0.250000
O O14 0.272642 0.790426 0.709813
O O15 0.000000 0.766253 0.750000
O O16 0.500000 0.126421 0.250000
#
# Coordination Sequence:
#
# PCOD9284012 Si02
#       7
#     8   8   8   8   8   8   8
#     4  11  22  41  65  91 129 171 214 269 323 384
#     4  11  21  44  68  89 124 171 216 265 313 390
#     4  10  23  41  60  95 129 164 221 260 326 394
#     4  12  23  42  67  93 126 172 220 260 322 395
#     4  11  24  41  65  95 131 171 216 272 324 383
#     4  11  25  41  61  98 129 161 214 268 327 383
#     4  10  21  40  66  88 120 170 217 257 318 388
#
# _framework density 23.4284
#
# number of rings (size 3 to 8) (size 9 to 14) (size 15 to 20)
#    0.000    1.143    2.857    3.857    0.000    8.571 
#    2.571    0.000    0.000    0.000    0.000    0.000 
#    0.000    0.000    0.000    0.000    0.000    0.000 
#
# Total GULP energy -156449.107117 kJ/mol
# GULP energy per Si atom -5587.468111 kJ/mol
# Density = 2.337508 g / cm^3
# Si number density = 23.428400 Si / 1000 Ang^3
#
#
#
# Elastic Constant Matrix: (Units=GPa)
#
#
# Indices 1 2 3 4 5 6 
#
# 1 68.0715 -7.5463 0.8489 0.0000 21.0977 0.0000
# 2 -7.5463 103.5870 6.6676 0.0000 4.4650 0.0000
# 3 0.8489 6.6676 63.7516 0.0000 10.7672 0.0000
# 4 0.0000 0.0000 0.0000 11.6467 0.0000 -1.3261
# 5 21.0977 4.4650 10.7672 0.0000 35.5376 0.0000
# 6 0.0000 0.0000 0.0000 -1.3261 0.0000 10.4534
#
#
#
# Elastic Compliance Matrix: (Units=1/GPa)
#
#
# Indices 1 2 3 4 5 6 
#
# 1 0.018478 0.001749 0.001540 0.000000 -0.011656 0.000000
# 2 0.001749 0.009916 -0.000711 0.000000 -0.002069 0.000000
# 3 0.001540 -0.000711 0.016735 0.000000 -0.005895 0.000000
# 4 0.000000 0.000000 0.000000 0.087120 0.000000 0.011052
# 5 -0.011656 -0.002069 -0.005895 0.000000 0.037105 0.000000
# 6 0.000000 0.000000 0.000000 0.011052 0.000000 0.097065
#
#
# Mechanical properties :
#
#
# Convention : Reuss Voigt Hill
#
# Bulk Modulus (GPa) = 19.88649 26.15007 23.01828
# Shear Modulus (GPa) = 17.98404 27.22354 22.60379
#
# Velocity S-wave (km/s) = 2.77360 3.41249 3.10950
# Velocity P-wave (km/s) = 4.33171 5.16844 4.76846
#
# Compressibility (1/GPa) = 0.05028539
#
# Stress axis : x y z
#
# Youngs Moduli (GPa) = 54.11910 100.84604 59.75360
#
# Poissons Ratio (x) = -0.17642 -0.09200
# Poissons Ratio (y) = -0.09468 0.04248
# Poissons Ratio (z) = -0.08332 0.07170
#
# Static dielectric constant tensor:
#      x y z
#    x 1.927810 0.000000 -0.003730 
#    y 0.000000 1.932210 0.000000 
#    z -0.003730 0.000000 1.910400 
# 
# From -- ./inp_files/137947.got.cif
#   From: 2010.05.17/outbox.cif.g08.bks.cpg/sg15_69_cif.got.tgz:137947.got - 2010.06.03 18:47:42.
