data_PCOD9284947
_publ_section_title
;
Structure prediction by ZEFSAII (Michael W. Deem and Ramdas Pophale) SiO2 
 PCOD9284947
Probable space group: C 2/C
;
_chemical_formula_sum "Si O2"
_cell_formula_units_Z 40
_cell_length_a 11.835539
_cell_length_b 7.040437
_cell_length_c 19.437146
_cell_angle_alpha 90.000000
_cell_angle_beta 89.360769
_cell_angle_gamma 90.000000
_cell_volume 1619.545393
_symmetry_space_group_name_H-M "C 2/C"
_symmetry_group_IT_number 15
_symmetry_cell_setting 'monoclinic'
loop_
_space_group_symop_operation_xyz
x,y,z
-x,y,1/2-z
-x,-y,-z
x,-y,1/2+z
1/2+x,1/2+y,z
1/2-x,1/2+y,1/2-z
1/2-x,1/2-y,-z
1/2+x,1/2-y,1/2+z
loop_
_atom_site_type_symbol
_atom_site_label
_atom_site_fract_x
_atom_site_fract_y
_atom_site_fract_z
Si Si1 0.614524 0.030702 0.751073
Si Si2 0.207168 0.999838 0.644432
Si Si3 0.546996 0.646357 0.362390
Si Si4 0.123479 0.556538 0.973341
Si Si5 0.726807 0.948746 0.621922
O O1 0.500000 0.906355 0.750000
O O2 0.725121 0.945984 0.786854
O O3 0.578876 0.432428 0.636413
O O4 0.646627 0.069235 0.672050
O O5 0.423806 0.206450 0.699674
O O6 0.294928 0.949429 0.581936
O O7 0.202880 0.230216 0.643963
O O8 0.586782 0.754405 0.431720
O O9 0.646015 0.490314 0.360275
O O10 0.195711 0.552621 0.042462
O O11 0.000000 0.500000 0.000000
#
# Coordination Sequence:
#
# PCOD9284947 Si02
#       5
#     8   8   8   8   8
#     4  10  22  42  63  93 137 178 222 287 337 403
#     4  10  23  40  67 103 132 181 233 275 349 411
#     4  10  23  41  68  95 137 178 231 284 340 416
#     4  10  21  41  65  98 136 182 227 281 347 409
#     4  10  21  41  65  98 137 173 229 289 340 406
#
# _framework density 24.698291000000001
#
# number of rings (size 3 to 8) (size 9 to 14) (size 15 to 20)
#    0.000    2.400    0.000    4.800    5.600    4.000 
#    7.200    2.000    0.000    0.000    0.000    0.000 
#    0.000    0.000    0.000    0.000    0.000    0.000 
#
# Total GULP energy -111499.056542 kJ/mol
# GULP energy per Si atom -5574.952827 kJ/mol
# Density = 2.464208 g / cm^3
# Si number density = 24.698291 Si / 1000 Ang^3
#
#
#
# Elastic Constant Matrix: (Units=GPa)
#
#
# Indices 1 2 3 4 5 6 
#
# 1 253.3326 41.3999 64.7960 0.0000 7.4476 0.0000
# 2 41.3999 52.4604 17.6977 0.0000 -1.1881 0.0000
# 3 64.7960 17.6977 164.6487 0.0000 12.7861 0.0000
# 4 0.0000 0.0000 0.0000 12.5643 0.0000 3.1809
# 5 7.4476 -1.1881 12.7861 0.0000 52.2848 0.0000
# 6 0.0000 0.0000 0.0000 3.1809 0.0000 34.5713
#
#
#
# Elastic Compliance Matrix: (Units=1/GPa)
#
#
# Indices 1 2 3 4 5 6 
#
# 1 0.004901 -0.003358 -0.001537 0.000000 -0.000399 0.000000
# 2 -0.003358 0.022131 -0.001155 0.000000 0.001264 0.000000
# 3 -0.001537 -0.001155 0.006919 0.000000 -0.001499 0.000000
# 4 0.000000 0.000000 0.000000 0.081488 0.000000 -0.007498
# 5 -0.000399 0.001264 -0.001499 0.000000 0.019578 0.000000
# 6 0.000000 0.000000 0.000000 -0.007498 0.000000 0.029616
#
#
# Mechanical properties :
#
#
# Convention : Reuss Voigt Hill
#
# Bulk Modulus (GPa) = 45.76705 79.80321 62.78513
# Shear Modulus (GPa) = 27.17145 42.98729 35.07937
#
# Velocity S-wave (km/s) = 3.32043 4.17645 3.77280
# Velocity P-wave (km/s) = 5.76810 7.45911 6.66743
#
# Compressibility (1/GPa) = 0.02184978
#
# Stress axis : x y z
#
# Youngs Moduli (GPa) = 204.04054 45.18635 144.53057
#
# Poissons Ratio (x) = 0.15175 0.22212
# Poissons Ratio (y) = 0.68522 0.16697
# Poissons Ratio (z) = 0.31357 0.05220
#
# Static dielectric constant tensor:
#      x y z
#    x 2.137810 0.000000 -0.029920 
#    y 0.000000 2.092510 0.000000 
#    z -0.029920 0.000000 2.003390 
# 
# From -- ./inp_files/235765.got.cif
#   From: 2010.05.17/outbox.cif.g08.bks.cpg/sg15_118_cif.got.tgz:235765.got - 2010.06.03 18:47:42.
