data_PCOD9284188
_publ_section_title
;
Structure prediction by ZEFSAII (Michael W. Deem and Ramdas Pophale) SiO2 
 PCOD9284188
Probable space group: C 2/C
;
_chemical_formula_sum "Si O2"
_cell_formula_units_Z 52
_cell_length_a 10.475430
_cell_length_b 26.766271
_cell_length_c 8.885312
_cell_angle_alpha 90.000000
_cell_angle_beta 120.237694
_cell_angle_gamma 90.000000
_cell_volume 2152.374544
_symmetry_space_group_name_H-M "C 2/C"
_symmetry_group_IT_number 15
_symmetry_cell_setting 'monoclinic'
loop_
_space_group_symop_operation_xyz
x,y,z
-x,y,1/2-z
-x,-y,-z
x,-y,1/2+z
1/2+x,1/2+y,z
1/2-x,1/2+y,1/2-z
1/2-x,1/2-y,-z
1/2+x,1/2-y,1/2+z
loop_
_atom_site_type_symbol
_atom_site_label
_atom_site_fract_x
_atom_site_fract_y
_atom_site_fract_z
Si Si1 0.897081 0.359186 0.891656
Si Si2 0.324703 0.049099 0.139104
Si Si3 0.000000 0.781538 0.750000
Si Si4 0.302096 0.716295 0.393666
Si Si5 0.290284 0.356006 0.443457
Si Si6 0.751857 0.637453 0.922041
Si Si7 0.100627 0.966120 0.957283
O O1 0.815493 0.408678 0.769460
O O2 0.827425 0.308797 0.781322
O O3 0.858749 0.360912 0.045377
O O4 0.069277 0.357564 0.951904
O O5 0.500000 0.041446 0.250000
O O6 0.243155 0.078803 0.953804
O O7 0.255800 0.994596 0.076160
O O8 0.089479 0.758024 0.662972
O O9 0.885205 0.816255 0.592566
O O10 0.250000 0.750000 0.500000
O O11 0.349927 0.667139 0.518947
O O12 0.274582 0.343458 0.260244
O O13 0.372312 0.408799 0.490947
O O14 0.000000 0.965973 0.750000
O O15 0.000000 0.000000 0.000000
#
# Coordination Sequence:
#
# PCOD9284188 Si02
#       7
#     8   8   4   8   8   8   8
#     4   9  20  42  67  89 136 174 223 282 342 393
#     4   9  20  39  61  89 128 184 234 283 335 400
#     4  10  24  46  66  98 142 176 212 274 344 414
#     4  10  22  45  72 100 131 172 216 275 341 413
#     4  11  22  40  61  94 135 184 221 272 344 404
#     4  10  21  40  67  95 125 177 228 274 343 403
#     4  12  24  37  59  95 136 179 235 291 337 403
#
# _framework density 24.159364
#
# number of rings (size 3 to 8) (size 9 to 14) (size 15 to 20)
#    0.000    1.846    0.769    3.692    4.308    1.846 
#    8.308    5.385    0.000    0.000    0.000    0.000 
#    0.000    0.000    0.000    0.000    0.000    0.000 
#
# Total GULP energy -144869.483811 kJ/mol
# GULP energy per Si atom -5571.903224 kJ/mol
# Density = 2.410438 g / cm^3
# Si number density = 24.159364 Si / 1000 Ang^3
#
#
#
# Elastic Constant Matrix: (Units=GPa)
#
#
# Indices 1 2 3 4 5 6 
#
# 1 84.8016 14.8813 29.4721 0.0000 -24.6767 0.0000
# 2 14.8813 63.2119 15.9508 0.0000 1.7757 0.0000
# 3 29.4721 15.9508 120.4918 0.0000 -16.8484 0.0000
# 4 0.0000 0.0000 0.0000 18.0807 0.0000 -3.3820
# 5 -24.6767 1.7757 -16.8484 0.0000 39.4847 0.0000
# 6 0.0000 0.0000 0.0000 -3.3820 0.0000 36.8566
#
#
#
# Elastic Compliance Matrix: (Units=1/GPa)
#
#
# Indices 1 2 3 4 5 6 
#
# 1 0.015787 -0.003434 -0.002133 0.000000 0.009111 0.000000
# 2 -0.003434 0.017230 -0.001967 0.000000 -0.003760 0.000000
# 3 -0.002133 -0.001967 0.009473 0.000000 0.002797 0.000000
# 4 0.000000 0.000000 0.000000 0.056273 0.000000 0.005164
# 5 0.009111 -0.003760 0.002797 0.000000 0.032383 0.000000
# 6 0.000000 0.000000 0.000000 0.005164 0.000000 0.027606
#
#
# Mechanical properties :
#
#
# Convention : Reuss Voigt Hill
#
# Bulk Modulus (GPa) = 36.46696 43.23487 39.85091
# Shear Modulus (GPa) = 27.32815 32.76448 30.04631
#
# Velocity S-wave (km/s) = 3.36692 3.68663 3.53040
# Velocity P-wave (km/s) = 5.49927 6.00468 5.75753
#
# Compressibility (1/GPa) = 0.02742208
#
# Stress axis : x y z
#
# Youngs Moduli (GPa) = 63.34166 58.03748 105.56806
#
# Poissons Ratio (x) = 0.19932 0.22517
# Poissons Ratio (y) = 0.21754 0.20762
# Poissons Ratio (z) = 0.13510 0.11414
#
# Static dielectric constant tensor:
#      x y z
#    x 2.014700 0.000000 -0.054110 
#    y 0.000000 1.531190 0.000000 
#    z -0.054110 0.000000 1.947680 
# 
# From -- ./inp_files/34431.got.cif
#   From: 2010.05.17/outbox.cif.g08.bks.cpg/sg15_18_cif.got.tgz:34431.got - 2010.06.03 18:47:42.
