data_PCOD9284894
_publ_section_title
;
Structure prediction by ZEFSAII (Michael W. Deem and Ramdas Pophale) SiO2 
 PCOD9284894
Probable space group: C 2/C
;
_chemical_formula_sum "Si O2"
_cell_formula_units_Z 64
_cell_length_a 22.842054
_cell_length_b 11.932665
_cell_length_c 16.491412
_cell_angle_alpha 90.000000
_cell_angle_beta 44.632299
_cell_angle_gamma 90.000000
_cell_volume 3157.987140
_symmetry_space_group_name_H-M "C 2/C"
_symmetry_group_IT_number 15
_symmetry_cell_setting 'monoclinic'
loop_
_space_group_symop_operation_xyz
x,y,z
-x,y,1/2-z
-x,-y,-z
x,-y,1/2+z
1/2+x,1/2+y,z
1/2-x,1/2+y,1/2-z
1/2-x,1/2-y,-z
1/2+x,1/2-y,1/2+z
loop_
_atom_site_type_symbol
_atom_site_label
_atom_site_fract_x
_atom_site_fract_y
_atom_site_fract_z
Si Si1 0.993374 0.504249 0.602318
Si Si2 0.962801 0.734485 0.197892
Si Si3 0.793515 0.640372 0.425601
Si Si4 0.168373 0.504875 0.453653
Si Si5 0.334615 0.615411 0.236703
Si Si6 0.324059 0.503664 0.571722
Si Si7 0.668962 0.123631 0.778322
Si Si8 0.008748 0.981225 0.395327
O O1 0.004761 0.376997 0.621223
O O2 0.901988 0.557833 0.704639
O O3 0.000000 0.500000 0.500000
O O4 0.077823 0.564603 0.548008
O O5 0.868810 0.690032 0.298227
O O6 0.974844 0.849824 0.138092
O O7 0.000000 0.755538 0.250000
O O8 0.750000 0.750000 0.500000
O O9 0.822091 0.567991 0.474626
O O10 0.727286 0.571433 0.439632
O O11 0.246977 0.587059 0.365927
O O12 0.169329 0.428042 0.369776
O O13 0.328912 0.561813 0.152525
O O14 0.351527 0.745955 0.206416
O O15 0.410460 0.553440 0.208172
O O16 0.262012 0.606247 0.651494
O O17 0.419041 0.519287 0.449277
O O18 0.000000 0.000000 0.500000
#
# Coordination Sequence:
#
# PCOD9284894 Si02
#       8
#     8   8   8   8   8   8   8   8
#     4  10  22  38  63  97 129 167 220 271 324 386
#     4  12  23  41  68 100 134 169 217 277 327 390
#     4  12  22  36  64  92 130 165 211 266 328 378
#     4  10  22  39  59  97 127 166 213 270 326 389
#     4  10  22  41  62  89 128 167 218 268 319 387
#     4  10  22  39  59  93 123 166 214 262 323 388
#     4  10  21  41  65  93 128 167 220 268 322 390
#     4  10  24  40  60  95 131 170 218 268 329 387
#
# _framework density 20.266074
#
# number of rings (size 3 to 8) (size 9 to 14) (size 15 to 20)
#    0.000    1.500    2.500    2.250    7.000    3.000 
#    0.000    0.625    0.000    3.750    0.000    0.000 
#    0.000    0.000    0.000    0.000    0.000    0.000 
#
# Total GULP energy -178432.633314 kJ/mol
# GULP energy per Si atom -5576.019791 kJ/mol
# Density = 2.021995 g / cm^3
# Si number density = 20.266074 Si / 1000 Ang^3
#
#
#
# Elastic Constant Matrix: (Units=GPa)
#
#
# Indices 1 2 3 4 5 6 
#
# 1 117.1529 25.4292 44.0343 0.0000 -35.2691 0.0000
# 2 25.4292 87.2162 28.4898 0.0000 -15.0721 0.0000
# 3 44.0343 28.4898 68.7447 0.0000 -26.3116 0.0000
# 4 0.0000 0.0000 0.0000 28.4675 0.0000 23.2485
# 5 -35.2691 -15.0721 -26.3116 0.0000 40.7221 0.0000
# 6 0.0000 0.0000 0.0000 23.2485 0.0000 -27.1415
#
#
#
# Elastic Compliance Matrix: (Units=1/GPa)
#
#
# Indices 1 2 3 4 5 6 
#
# 1 0.012888 -0.000805 -0.005000 0.000000 0.007634 0.000000
# 2 -0.000805 0.013412 -0.004530 0.000000 0.001340 0.000000
# 3 -0.005000 -0.004530 0.023020 0.000000 0.008867 0.000000
# 4 0.000000 0.000000 0.000000 0.020669 0.000000 0.017704
# 5 0.007634 0.001340 0.008867 0.000000 0.037393 0.000000
# 6 0.000000 0.000000 0.000000 0.017704 0.000000 -0.021679
#
#
# Mechanical properties :
#
#
# Convention : Reuss Voigt Hill
#
# Bulk Modulus (GPa) = 34.90342 52.11339 43.50841
# Shear Modulus (GPa) = 43.13185 20.08697 31.60941
#
# Velocity S-wave (km/s) = 4.61833 3.15169 3.95361
# Velocity P-wave (km/s) = 6.76008 6.24617 6.50820
#
# Compressibility (1/GPa) = 0.02865049
#
# Stress axis : x y z
#
# Youngs Moduli (GPa) = 77.59089 74.56173 43.43975
#
# Poissons Ratio (x) = 0.06004 0.21720
# Poissons Ratio (y) = 0.06248 0.19676
# Poissons Ratio (z) = 0.38796 0.33773
#
# Static dielectric constant tensor:
#      x y z
#    x 1.729150 0.000000 -0.069450 
#    y 0.000000 1.724440 0.000000 
#    z -0.069450 0.000000 1.998560 
# 
# From -- ./inp_files/215047.got.cif
#   From: 2010.05.17/outbox.cif.g08.bks.cpg/sg15_108_cif.got.tgz:215047.got - 2010.06.03 18:47:42.
