data_PCOD9284986
_publ_section_title
;
Structure prediction by ZEFSAII (Michael W. Deem and Ramdas Pophale) SiO2 
 PCOD9284986
Probable space group: C 2/C
;
_chemical_formula_sum "Si O2"
_cell_formula_units_Z 48
_cell_length_a 8.821780
_cell_length_b 16.265277
_cell_length_c 21.734332
_cell_angle_alpha 90.000000
_cell_angle_beta 52.799916
_cell_angle_gamma 90.000000
_cell_volume 2484.080085
_symmetry_space_group_name_H-M "C 2/C"
_symmetry_group_IT_number 15
_symmetry_cell_setting 'monoclinic'
loop_
_space_group_symop_operation_xyz
x,y,z
-x,y,1/2-z
-x,-y,-z
x,-y,1/2+z
1/2+x,1/2+y,z
1/2-x,1/2+y,1/2-z
1/2-x,1/2-y,-z
1/2+x,1/2-y,1/2+z
loop_
_atom_site_type_symbol
_atom_site_label
_atom_site_fract_x
_atom_site_fract_y
_atom_site_fract_z
Si Si1 0.362128 0.120766 0.013664
Si Si2 0.156138 0.504780 0.878177
Si Si3 0.957949 0.867449 0.331464
Si Si4 0.286409 0.968532 0.280267
Si Si5 0.831709 0.241529 0.047603
Si Si6 0.955457 0.930497 0.562772
O O1 0.145556 0.109795 0.045645
O O2 0.379345 0.079744 0.077323
O O3 0.478534 0.063878 0.936661
O O4 0.471094 0.207935 0.989914
O O5 0.327171 0.551459 0.872289
O O6 0.203169 0.502466 0.794132
O O7 0.831475 0.788903 0.375173
O O8 0.000000 0.865290 0.250000
O O9 0.156400 0.886141 0.315858
O O10 0.500000 0.954813 0.250000
O O11 0.179610 0.031963 0.351272
O O12 0.852210 0.146460 0.057059
O O13 0.750000 0.250000 0.000000
O O14 0.000000 0.000000 0.500000
#
# Coordination Sequence:
#
# PCOD9284986 Si02
#       6
#     8   8   8   8   8   8
#     4  10  21  41  66  91 131 166 216 258 328 379
#     4   9  19  37  67  94 120 171 205 261 320 388
#     4   9  19  41  63  88 125 168 206 255 324 376
#     4  11  22  36  64  98 127 161 220 262 314 383
#     4  11  25  40  62  94 130 169 214 266 319 381
#     4  12  25  41  66  96 129 168 221 269 322 384
#
# _framework density 19.323049000000001
#
# number of rings (size 3 to 8) (size 9 to 14) (size 15 to 20)
#    0.000    1.667    1.667    2.500    7.000    0.667 
#    0.000    1.667    0.000    0.000    0.000    0.000 
#    0.000    0.000    0.000    0.000    0.000    0.000 
#
# Total GULP energy -133822.204567 kJ/mol
# GULP energy per Si atom -5575.925190 kJ/mol
# Density = 1.927907 g / cm^3
# Si number density = 19.323049 Si / 1000 Ang^3
#
#
#
# Elastic Constant Matrix: (Units=GPa)
#
#
# Indices 1 2 3 4 5 6 
#
# 1 119.4259 38.5269 28.0119 -0.0003 -24.0560 0.0003
# 2 38.5269 125.2997 46.6663 -0.0003 -0.6220 0.0002
# 3 28.0119 46.6663 97.9674 -0.0006 -8.5735 0.0004
# 4 -0.0003 -0.0003 -0.0006 13.7488 0.0003 1.2743
# 5 -24.0560 -0.6220 -8.5735 0.0003 33.7326 -0.0002
# 6 0.0003 0.0002 0.0004 1.2743 -0.0002 19.4823
#
#
#
# Elastic Compliance Matrix: (Units=1/GPa)
#
#
# Indices 1 2 3 4 5 6 
#
# 1 0.011120 -0.002972 -0.001099 0.000000 0.007596 0.000000
# 2 -0.002972 0.010531 -0.004434 0.000000 -0.003052 0.000000
# 3 -0.001099 -0.004434 0.012844 0.000000 0.002399 0.000000
# 4 0.000000 0.000000 0.000000 0.073177 -0.000001 -0.004786
# 5 0.007596 -0.003052 0.002399 -0.000001 0.035615 0.000000
# 6 0.000000 0.000000 0.000000 -0.004786 0.000000 0.051642
#
#
# Mechanical properties :
#
#
# Convention : Reuss Voigt Hill
#
# Bulk Modulus (GPa) = 57.19220 63.23369 60.21294
# Shear Modulus (GPa) = 22.96038 28.69193 25.82615
#
# Velocity S-wave (km/s) = 3.45082 3.85756 3.65985
# Velocity P-wave (km/s) = 6.74831 7.25511 7.00629
#
# Compressibility (1/GPa) = 0.01748490
#
# Stress axis : x y z
#
# Youngs Moduli (GPa) = 89.92753 94.95943 77.85991
#
# Poissons Ratio (x) = 0.28223 0.08557
# Poissons Ratio (y) = 0.26728 0.34520
# Poissons Ratio (z) = 0.09883 0.42101
#
# Static dielectric constant tensor:
#      x y z
#    x 1.750940 0.000000 -0.041780 
#    y 0.000000 1.435690 0.000000 
#    z -0.041780 0.000000 1.650200 
# 
# From -- ./inp_files/232496.got.cif
#   From: 2010.05.17/outbox.cif.g08.bks.cpg/sg15_117_cif.got.tgz:232496.got - 2010.06.03 18:47:42.
