data_PCOD9284157
_publ_section_title
;
Structure prediction by ZEFSAII (Michael W. Deem and Ramdas Pophale) SiO2 
 PCOD9284157
Probable space group: C 2/C
;
_chemical_formula_sum "Si O2"
_cell_formula_units_Z 56
_cell_length_a 13.770402
_cell_length_b 7.376365
_cell_length_c 22.580836
_cell_angle_alpha 90.000000
_cell_angle_beta 89.613546
_cell_angle_gamma 90.000000
_cell_volume 2293.607790
_symmetry_space_group_name_H-M "C 2/C"
_symmetry_group_IT_number 15
_symmetry_cell_setting 'monoclinic'
loop_
_space_group_symop_operation_xyz
x,y,z
-x,y,1/2-z
-x,-y,-z
x,-y,1/2+z
1/2+x,1/2+y,z
1/2-x,1/2+y,1/2-z
1/2-x,1/2-y,-z
1/2+x,1/2-y,1/2+z
loop_
_atom_site_type_symbol
_atom_site_label
_atom_site_fract_x
_atom_site_fract_y
_atom_site_fract_z
Si Si1 0.086434 0.235829 0.886841
Si Si2 0.176010 0.974867 0.984481
Si Si3 0.870440 0.417226 0.431913
Si Si4 0.082215 0.648474 0.922049
Si Si5 0.302207 0.760300 0.185663
Si Si6 0.376882 0.338786 0.390320
Si Si7 0.263744 0.844658 0.317344
O O1 0.088529 0.432260 0.917330
O O2 0.984770 0.155653 0.863621
O O3 0.163657 0.255068 0.833490
O O4 0.116529 0.094618 0.937834
O O5 0.340490 0.729822 0.041902
O O6 0.139616 0.961089 0.051532
O O7 0.282287 0.064373 0.978140
O O8 0.879312 0.628977 0.413068
O O9 0.833883 0.317576 0.372803
O O10 0.973516 0.330567 0.447979
O O11 0.102730 0.709769 0.854473
O O12 0.211797 0.865072 0.154563
O O13 0.269281 0.553206 0.181174
O O14 0.309774 0.805818 0.254195
#
# Coordination Sequence:
#
# PCOD9284157 Si02
#       7
#     8   8   8   8   8   8   8
#     4  10  22  41  64 102 130 169 228 268 334 411
#     4  11  21  45  65  94 144 171 219 285 327 404
#     4   9  21  39  65  94 130 172 222 272 333 399
#     4  11  22  41  68  97 129 181 218 268 350 402
#     4  11  22  42  68  91 132 178 215 281 340 387
#     4  10  21  40  67  91 134 183 211 276 345 389
#     4  10  21  43  63  93 135 166 220 287 324 403
#
# _framework density 24.415683000000001
#
# number of rings (size 3 to 8) (size 9 to 14) (size 15 to 20)
#    0.000    1.714    4.286    1.714    0.000    3.429 
#    7.714    6.429    3.143    0.000    0.000    0.000 
#    0.000    0.000    0.000    0.000    0.000    0.000 
#
# Total GULP energy -156557.999485 kJ/mol
# GULP energy per Si atom -5591.357124 kJ/mol
# Density = 2.436011 g / cm^3
# Si number density = 24.415683 Si / 1000 Ang^3
#
#
#
# Elastic Constant Matrix: (Units=GPa)
#
#
# Indices 1 2 3 4 5 6 
#
# 1 114.1793 21.1210 27.7646 0.0000 -26.6075 0.0000
# 2 21.1210 77.5044 36.0368 0.0000 -3.3668 0.0000
# 3 27.7646 36.0368 112.1662 0.0000 -23.8909 0.0000
# 4 0.0000 0.0000 0.0000 37.4071 0.0000 -4.9801
# 5 -26.6075 -3.3668 -23.8909 0.0000 23.6910 0.0000
# 6 0.0000 0.0000 0.0000 -4.9801 0.0000 27.8868
#
#
#
# Elastic Compliance Matrix: (Units=1/GPa)
#
#
# Indices 1 2 3 4 5 6 
#
# 1 0.012525 -0.003278 0.001082 0.000000 0.014693 0.000000
# 2 -0.003278 0.016260 -0.005991 0.000000 -0.007413 0.000000
# 3 0.001082 -0.005991 0.013563 0.000000 0.014042 0.000000
# 4 0.000000 0.000000 0.000000 0.027384 0.000000 0.004890
# 5 0.014693 -0.007413 0.014042 0.000000 0.071819 0.000000
# 6 0.000000 0.000000 0.000000 0.004890 0.000000 0.036733
#
#
# Mechanical properties :
#
#
# Convention : Reuss Voigt Hill
#
# Bulk Modulus (GPa) = 38.50083 52.63276 45.56679
# Shear Modulus (GPa) = 24.59225 32.39213 28.49219
#
# Velocity S-wave (km/s) = 3.17713 3.64633 3.41979
# Velocity P-wave (km/s) = 5.40944 6.27147 5.85634
#
# Compressibility (1/GPa) = 0.02597347
#
# Stress axis : x y z
#
# Youngs Moduli (GPa) = 79.83822 61.50197 73.72895
#
# Poissons Ratio (x) = 0.20162 -0.07980
# Poissons Ratio (y) = 0.26174 0.44174
# Poissons Ratio (z) = -0.08642 0.36848
#
# Static dielectric constant tensor:
#      x y z
#    x 2.009750 0.000000 -0.001160 
#    y 0.000000 2.009900 0.000000 
#    z -0.001160 0.000000 1.916750 
# 
# From -- ./inp_files/242823.got.cif
#   From: 2010.05.17/outbox.cif.g08.bks.cpg/sg15_122_cif.got.tgz:242823.got - 2010.06.03 18:47:42.
