data_PCOD9284881
_publ_section_title
;
Structure prediction by ZEFSAII (Michael W. Deem and Ramdas Pophale) SiO2 
 PCOD9284881
Probable space group: C 2/C
;
_chemical_formula_sum "Si O2"
_cell_formula_units_Z 56
_cell_length_a 22.581893
_cell_length_b 8.378686
_cell_length_c 12.825365
_cell_angle_alpha 90.000000
_cell_angle_beta 112.799573
_cell_angle_gamma 90.000000
_cell_volume 2237.040313
_symmetry_space_group_name_H-M "C 2/C"
_symmetry_group_IT_number 15
_symmetry_cell_setting 'monoclinic'
loop_
_space_group_symop_operation_xyz
x,y,z
-x,y,1/2-z
-x,-y,-z
x,-y,1/2+z
1/2+x,1/2+y,z
1/2-x,1/2+y,1/2-z
1/2-x,1/2-y,-z
1/2+x,1/2-y,1/2+z
loop_
_atom_site_type_symbol
_atom_site_label
_atom_site_fract_x
_atom_site_fract_y
_atom_site_fract_z
Si Si1 0.923841 0.537677 0.854930
Si Si2 0.358809 0.246561 0.440953
Si Si3 0.105219 0.034597 0.914355
Si Si4 0.696574 0.463476 0.282164
Si Si5 0.776460 0.175504 0.375427
Si Si6 0.162513 0.461631 0.390203
Si Si7 0.546937 0.837409 0.912451
O O1 0.889466 0.397231 0.897320
O O2 0.876090 0.605612 0.736203
O O3 0.985399 0.447529 0.850242
O O4 0.945877 0.662124 0.956997
O O5 0.406043 0.366799 0.535978
O O6 0.325908 0.354887 0.330958
O O7 0.319481 0.167657 0.509855
O O8 0.140254 0.016469 0.827247
O O9 0.046411 0.156482 0.873174
O O10 0.159023 0.127933 0.020979
O O11 0.754538 0.358496 0.369739
O O12 0.717845 0.625279 0.241533
O O13 0.720583 0.065482 0.385748
O O14 0.108733 0.577365 0.403935
#
# Coordination Sequence:
#
# PCOD9284881 Si02
#       7
#     8   8   8   8   8   8   8
#     4  10  21  41  65  92 121 165 223 275 323 373
#     4  10  24  40  63  99 129 168 217 264 331 390
#     4  11  24  40  60  93 134 169 213 265 334 392
#     4  11  24  40  58  92 131 170 213 266 317 387
#     4  11  25  36  64  91 129 172 219 258 326 391
#     4  11  22  39  66  90 129 171 214 268 317 386
#     4  10  22  39  65  91 122 166 221 268 320 394
#
# _framework density 25.033076000000001
#
# number of rings (size 3 to 8) (size 9 to 14) (size 15 to 20)
#    0.000    1.429    2.857    0.857    6.000    2.857 
#    0.000    0.000    0.000   10.286    0.000    0.000 
#    0.000    0.000    0.000    0.000    0.000    0.000 
#
# Total GULP energy -156774.512075 kJ/mol
# GULP energy per Si atom -5599.089717 kJ/mol
# Density = 2.497610 g / cm^3
# Si number density = 25.033076 Si / 1000 Ang^3
#
#
#
# Elastic Constant Matrix: (Units=GPa)
#
#
# Indices 1 2 3 4 5 6 
#
# 1 81.7553 12.9779 23.8236 0.0000 -17.2965 0.0000
# 2 12.9779 51.7033 17.2253 0.0000 -19.6882 0.0000
# 3 23.8236 17.2253 145.9481 0.0000 -14.7790 0.0000
# 4 0.0000 0.0000 0.0000 6.8369 0.0000 -19.8123
# 5 -17.2965 -19.6882 -14.7790 0.0000 37.2862 0.0000
# 6 0.0000 0.0000 0.0000 -19.8123 0.0000 25.2949
#
#
#
# Elastic Compliance Matrix: (Units=1/GPa)
#
#
# Indices 1 2 3 4 5 6 
#
# 1 0.013987 -0.000930 -0.001632 0.000000 0.005351 0.000000
# 2 -0.000930 0.024648 -0.001545 0.000000 0.011971 0.000000
# 3 -0.001632 -0.001545 0.007440 0.000000 0.001376 0.000000
# 4 0.000000 0.000000 0.000000 -0.115192 0.000000 -0.090225
# 5 0.005351 0.011971 0.001376 0.000000 0.036168 0.000000
# 6 0.000000 0.000000 0.000000 -0.090225 0.000000 -0.031135
#
#
# Mechanical properties :
#
#
# Convention : Reuss Voigt Hill
#
# Bulk Modulus (GPa) = 26.41212 43.05117 34.73164
# Shear Modulus (GPa) = -115.60175 28.90892 -43.34642
#
# Velocity S-wave (km/s) = -6.80293 3.40196 -4.16572
# Velocity P-wave (km/s) = 7.15071 5.71543 3.03863
#
# Compressibility (1/GPa) = 0.03786141
#
# Stress axis : x y z
#
# Youngs Moduli (GPa) = 71.49685 40.57181 134.41252
#
# Poissons Ratio (x) = 0.03772 0.21930
# Poissons Ratio (y) = 0.06647 0.20767
# Poissons Ratio (z) = 0.11665 0.06268
#
# Static dielectric constant tensor:
#      x y z
#    x 1.963820 0.000000 0.029950 
#    y 0.000000 2.015720 0.000000 
#    z 0.029950 0.000000 2.036340 
# 
# From -- ./inp_files/121992.got.cif
#   From: 2010.05.17/outbox.cif.g08.bks.cpg/sg15_61_cif.got.tgz:121992.got - 2010.06.03 18:47:42.
