data_PCOD9284665
_publ_section_title
;
Structure prediction by ZEFSAII (Michael W. Deem and Ramdas Pophale) SiO2 
 PCOD9284665
Probable space group: C 2/C
;
_chemical_formula_sum "Si O2"
_cell_formula_units_Z 52
_cell_length_a 21.365697
_cell_length_b 8.373856
_cell_length_c 29.227054
_cell_angle_alpha 90.000000
_cell_angle_beta 31.583312
_cell_angle_gamma 90.000000
_cell_volume 2738.681466
_symmetry_space_group_name_H-M "C 2/C"
_symmetry_group_IT_number 15
_symmetry_cell_setting 'monoclinic'
loop_
_space_group_symop_operation_xyz
x,y,z
-x,y,1/2-z
-x,-y,-z
x,-y,1/2+z
1/2+x,1/2+y,z
1/2-x,1/2+y,1/2-z
1/2-x,1/2-y,-z
1/2+x,1/2-y,1/2+z
loop_
_atom_site_type_symbol
_atom_site_label
_atom_site_fract_x
_atom_site_fract_y
_atom_site_fract_z
Si Si1 0.486396 0.251609 0.524008
Si Si2 0.500000 0.347193 0.250000
Si Si3 0.206932 0.433245 0.074078
Si Si4 0.212139 0.939549 0.578415
Si Si5 0.546930 0.077087 0.294451
Si Si6 0.023914 0.540739 0.059664
Si Si7 0.700081 0.500930 0.392574
O O1 0.496875 0.155647 0.470068
O O2 0.606560 0.355878 0.453097
O O3 0.371426 0.363513 0.589955
O O4 0.474320 0.130967 0.573884
O O5 0.395935 0.459645 0.334214
O O6 0.547093 0.233855 0.262051
O O7 0.205997 0.250089 0.091662
O O8 0.267783 0.541236 0.074842
O O9 0.071081 0.483179 0.148754
O O10 0.279469 0.448840 0.981926
O O11 0.335383 0.011126 0.520582
O O12 0.529337 0.103073 0.359521
O O13 0.669251 0.979966 0.210571
#
# Coordination Sequence:
#
# PCOD9284665 Si02
#       7
#     8   4   8   8   8   8   8
#     4  10  23  39  64  83 120 173 205 244 303 362
#     4  12  24  36  60 104 118 160 198 266 322 366
#     4  10  21  41  63  89 123 167 196 260 316 369
#     4  10  23  38  63  91 124 158 210 253 319 365
#     4  11  24  39  63  92 126 153 205 263 318 357
#     4  10  22  42  60  88 122 164 204 252 303 370
#     4  11  21  40  62  89 122 160 209 252 297 371
#
# _framework density 18.987238999999999
#
# number of rings (size 3 to 8) (size 9 to 14) (size 15 to 20)
#    0.000    1.538    3.077    0.923    4.308    2.462 
#    0.000    0.000    0.000    0.000    0.000    0.000 
#    0.000    0.000    0.000    0.000    0.000    0.000 
#
# Total GULP energy -145113.202789 kJ/mol
# GULP energy per Si atom -5581.277030 kJ/mol
# Density = 1.894402 g / cm^3
# Si number density = 18.987239 Si / 1000 Ang^3
#
#
#
# Elastic Constant Matrix: (Units=GPa)
#
#
# Indices 1 2 3 4 5 6 
#
# 1 101.8741 26.2026 43.6587 -0.0005 3.3526 0.0004
# 2 26.2026 56.4196 37.4537 -0.0012 7.8059 0.0009
# 3 43.6587 37.4537 105.4621 -0.0001 0.5201 0.0001
# 4 -0.0005 -0.0012 -0.0001 21.4713 0.0002 2.9101
# 5 3.3526 7.8059 0.5201 0.0002 24.0630 -0.0002
# 6 0.0004 0.0009 0.0001 2.9101 -0.0002 25.0322
#
#
#
# Elastic Compliance Matrix: (Units=1/GPa)
#
#
# Indices 1 2 3 4 5 6 
#
# 1 0.012334 -0.002940 -0.004058 0.000000 -0.000677 0.000000
# 2 -0.002940 0.025268 -0.007719 0.000002 -0.007620 -0.000001
# 3 -0.004058 -0.007719 0.013890 -0.000001 0.002769 0.000000
# 4 0.000000 0.000002 -0.000001 0.047319 -0.000001 -0.005501
# 5 -0.000677 -0.007620 0.002769 -0.000001 0.044064 0.000001
# 6 0.000000 -0.000001 0.000000 -0.005501 0.000001 0.040588
#
#
# Mechanical properties :
#
#
# Convention : Reuss Voigt Hill
#
# Bulk Modulus (GPa) = 45.33777 53.15399 49.24588
# Shear Modulus (GPa) = 22.70136 24.54270 23.62203
#
# Velocity S-wave (km/s) = 3.46151 3.59916 3.53101
# Velocity P-wave (km/s) = 6.31712 6.73255 6.52814
#
# Compressibility (1/GPa) = 0.02205666
#
# Stress axis : x y z
#
# Youngs Moduli (GPa) = 81.07796 39.57504 71.99540
#
# Poissons Ratio (x) = 0.11637 0.29218
# Poissons Ratio (y) = 0.23840 0.55573
# Poissons Ratio (z) = 0.32904 0.30548
#
# Static dielectric constant tensor:
#      x y z
#    x 1.657010 0.000000 0.008980 
#    y 0.000000 1.687520 0.000000 
#    z 0.008980 0.000000 1.629230 
# 
# From -- ./inp_files/166283.got.cif
#   From: 2010.05.17/outbox.cif.g08.bks.cpg/sg15_84_cif.got.tgz:166283.got - 2010.06.03 18:47:42.
