data_PCOD9284693
_publ_section_title
;
Structure prediction by ZEFSAII (Michael W. Deem and Ramdas Pophale) SiO2 
 PCOD9284693
Probable space group: C 2/C
;
_chemical_formula_sum "Si O2"
_cell_formula_units_Z 56
_cell_length_a 21.966095
_cell_length_b 12.675395
_cell_length_c 22.382986
_cell_angle_alpha 90.000000
_cell_angle_beta 21.561583
_cell_angle_gamma 90.000000
_cell_volume 2290.292596
_symmetry_space_group_name_H-M "C 2/C"
_symmetry_group_IT_number 15
_symmetry_cell_setting 'monoclinic'
loop_
_space_group_symop_operation_xyz
x,y,z
-x,y,1/2-z
-x,-y,-z
x,-y,1/2+z
1/2+x,1/2+y,z
1/2-x,1/2+y,1/2-z
1/2-x,1/2-y,-z
1/2+x,1/2-y,1/2+z
loop_
_atom_site_type_symbol
_atom_site_label
_atom_site_fract_x
_atom_site_fract_y
_atom_site_fract_z
Si Si1 0.880132 0.370880 0.977240
Si Si2 0.809636 0.494085 0.302069
Si Si3 0.565795 0.683298 0.063407
Si Si4 0.624851 0.694967 0.801938
Si Si5 0.135592 0.873568 0.869080
Si Si6 0.784262 0.837013 0.916739
Si Si7 0.693581 0.956514 0.568957
O O1 0.809474 0.362536 0.975159
O O2 0.997842 0.473654 0.876430
O O3 0.999728 0.273446 0.882325
O O4 0.731495 0.373115 0.159300
O O5 0.734284 0.383563 0.393667
O O6 0.740250 0.529641 0.301153
O O7 0.748711 0.563553 0.416116
O O8 0.442029 0.643410 0.124643
O O9 0.454121 0.666990 0.224508
O O10 0.637839 0.801829 0.003861
O O11 0.750514 0.771378 0.722496
O O12 0.517883 0.629632 0.945426
O O13 0.750000 0.750000 0.000000
O O14 0.775871 0.948033 0.958061
O O15 0.500000 0.989390 0.750000
#
# Coordination Sequence:
#
# PCOD9284693 Si02
#       7
#     8   8   8   8   8   8   8
#     4   9  20  39  67  94 128 172 212 274 334 390
#     4  10  22  40  62  91 134 167 209 277 331 396
#     4  12  25  41  65  93 127 178 219 277 333 398
#     4   9  19  41  66  90 130 166 219 267 324 400
#     4  10  21  41  63  92 129 171 219 269 331 401
#     4  12  25  42  66  94 130 174 232 278 338 398
#     4  10  21  41  64  92 133 166 215 275 333 394
#
# _framework density 24.451025000000001
#
# number of rings (size 3 to 8) (size 9 to 14) (size 15 to 20)
#    0.000    1.714    1.429    2.571    4.000    0.000 
#    0.000   20.000    0.000    0.000    0.000    0.000 
#    0.000    0.000    0.000    0.000    0.000    0.000 
#
# Total GULP energy -156211.224578 kJ/mol
# GULP energy per Si atom -5578.972306 kJ/mol
# Density = 2.439537 g / cm^3
# Si number density = 24.451025 Si / 1000 Ang^3
#
#
#
# Elastic Constant Matrix: (Units=GPa)
#
#
# Indices 1 2 3 4 5 6 
#
# 1 118.7312 22.6665 2.6188 0.0018 1.6045 -0.0088
# 2 22.6665 37.4713 12.5152 0.0033 1.6218 -0.0015
# 3 2.6188 12.5152 98.4709 0.0079 22.1349 -0.0106
# 4 0.0018 0.0033 0.0079 25.7503 -0.0036 -1.2587
# 5 1.6045 1.6218 22.1349 -0.0036 20.1619 -0.0023
# 6 -0.0088 -0.0015 -0.0106 -1.2587 -0.0023 30.8453
#
#
#
# Elastic Compliance Matrix: (Units=1/GPa)
#
#
# Indices 1 2 3 4 5 6 
#
# 1 0.009564 -0.005990 0.000756 0.000000 -0.001110 0.000003
# 2 -0.005990 0.031694 -0.004518 -0.000002 0.002887 -0.000002
# 3 0.000756 -0.004518 0.014128 -0.000006 -0.015207 0.000003
# 4 0.000000 -0.000002 -0.000006 0.038912 0.000014 0.001588
# 5 -0.001110 0.002887 -0.015207 0.000014 0.066150 0.000000
# 6 0.000003 -0.000002 0.000003 0.001588 0.000000 0.032485
#
#
# Mechanical properties :
#
#
# Convention : Reuss Voigt Hill
#
# Bulk Modulus (GPa) = 27.86814 36.69714 32.28264
# Shear Modulus (GPa) = 22.28193 29.80968 26.04580
#
# Velocity S-wave (km/s) = 3.02203 3.49543 3.26732
# Velocity P-wave (km/s) = 4.85790 5.59748 5.24075
#
# Compressibility (1/GPa) = 0.03588327
#
# Stress axis : x y z
#
# Youngs Moduli (GPa) = 104.55624 31.55126 70.78297
#
# Poissons Ratio (x) = 0.18899 -0.05354
# Poissons Ratio (y) = 0.62629 0.31979
# Poissons Ratio (z) = -0.07909 0.14255
#
# Static dielectric constant tensor:
#      x y z
#    x 2.060730 0.000000 -0.058980 
#    y 0.000000 1.984810 0.000010 
#    z -0.058980 0.000010 1.913090 
# 
# From -- ./inp_files/282080.got.cif
#   From: 2010.05.17/outbox.cif.g08.bks.cpg/sg15_142_cif.got.tgz:282080.got - 2010.06.03 18:47:42.
