data_PCOD9284648
_publ_section_title
;
Structure prediction by ZEFSAII (Michael W. Deem and Ramdas Pophale) SiO2 
 PCOD9284648
Probable space group: C 2/C
;
_chemical_formula_sum "Si O2"
_cell_formula_units_Z 40
_cell_length_a 21.202161
_cell_length_b 20.762824
_cell_length_c 14.804990
_cell_angle_alpha 90.000000
_cell_angle_beta 162.064453
_cell_angle_gamma 90.000000
_cell_volume 2007.014736
_symmetry_space_group_name_H-M "C 2/C"
_symmetry_group_IT_number 15
_symmetry_cell_setting 'monoclinic'
loop_
_space_group_symop_operation_xyz
x,y,z
-x,y,1/2-z
-x,-y,-z
x,-y,1/2+z
1/2+x,1/2+y,z
1/2-x,1/2+y,1/2-z
1/2-x,1/2-y,-z
1/2+x,1/2-y,1/2+z
loop_
_atom_site_type_symbol
_atom_site_label
_atom_site_fract_x
_atom_site_fract_y
_atom_site_fract_z
Si Si1 0.000000 0.204160 0.250000
Si Si2 0.041123 0.310330 0.151741
Si Si3 0.500000 0.881457 0.750000
Si Si4 0.500000 0.910235 0.250000
Si Si5 0.850940 0.985990 0.215095
Si Si6 0.656393 0.806671 0.808954
Si Si7 0.500000 0.415106 0.250000
O O1 0.981490 0.248997 0.313429
O O2 0.223160 0.171161 0.552184
O O3 0.954939 0.366876 0.099577
O O4 0.931614 0.291147 0.909154
O O5 0.302210 0.926408 0.477901
O O6 0.489238 0.837528 0.647071
O O7 0.696083 0.954067 0.492948
O O8 0.987863 0.962705 0.318150
O O9 0.000000 0.000000 0.500000
O O10 0.750000 0.750000 0.000000
O O11 0.812664 0.865166 0.001594
#
# Coordination Sequence:
#
# PCOD9284648 Si02
#       7
#     4   8   4   4   8   8   4
#     4   9  22  40  58  88 122 164 199 258 300 362
#     4  10  22  40  61  89 126 159 212 248 307 378
#     4   9  23  39  54  94 119 151 213 244 302 374
#     4  10  22  40  63  93 120 168 206 258 314 366
#     4  10  21  41  63  86 124 161 203 259 309 363
#     4  11  23  38  62  91 124 165 202 253 313 367
#     4  10  23  39  59  95 119 157 212 244 312 368
#
# _framework density 19.930098000000001
#
# number of rings (size 3 to 8) (size 9 to 14) (size 15 to 20)
#    0.000    2.000    0.000    1.800    5.600    4.000 
#    7.200    6.000    0.000    0.000    0.000    0.000 
#    0.000    0.000    0.000    0.000    0.000    0.000 
#
# Total GULP energy -111400.158733 kJ/mol
# GULP energy per Si atom -5570.007937 kJ/mol
# Density = 1.988474 g / cm^3
# Si number density = 19.930098 Si / 1000 Ang^3
#
#
#
# Elastic Constant Matrix: (Units=GPa)
#
#
# Indices 1 2 3 4 5 6 
#
# 1 173.7527 54.8576 58.2111 0.0000 -26.6287 0.0000
# 2 54.8576 75.5118 27.1499 0.0000 -14.0866 0.0000
# 3 58.2111 27.1499 65.9724 0.0000 -22.7102 -0.0001
# 4 0.0000 0.0000 0.0000 -3.0368 0.0000 7.9091
# 5 -26.6287 -14.0866 -22.7102 0.0000 44.9642 0.0000
# 6 0.0000 0.0000 -0.0001 7.9091 0.0000 26.6755
#
#
#
# Elastic Compliance Matrix: (Units=1/GPa)
#
#
# Indices 1 2 3 4 5 6 
#
# 1 0.009342 -0.004406 -0.006053 0.000000 0.001095 0.000000
# 2 -0.004406 0.017769 -0.002913 0.000000 0.001486 0.000000
# 3 -0.006053 -0.002913 0.024390 0.000000 0.007821 0.000000
# 4 0.000000 0.000000 0.000000 -0.185810 0.000000 0.055091
# 5 0.001095 0.001486 0.007821 0.000000 0.027304 0.000000
# 6 0.000000 0.000000 0.000000 0.055091 0.000000 0.021153
#
#
# Mechanical properties :
#
#
# Convention : Reuss Voigt Hill
#
# Bulk Modulus (GPa) = 40.39359 66.18599 53.28979
# Shear Modulus (GPa) = -98.31641 25.38848 -36.46397
#
# Velocity S-wave (km/s) = -7.03120 3.57301 -4.28201
# Velocity P-wave (km/s) = 6.75317 7.09246 1.53260
#
# Compressibility (1/GPa) = 0.02475640
#
# Stress axis : x y z
#
# Youngs Moduli (GPa) = 107.04217 56.27914 41.00088
#
# Poissons Ratio (x) = 0.24798 0.24817
# Poissons Ratio (y) = 0.47166 0.11943
# Poissons Ratio (z) = 0.64790 0.16394
#
# Static dielectric constant tensor:
#      x y z
#    x 1.700310 0.000000 0.097940 
#    y 0.000000 1.721380 0.000000 
#    z 0.097940 0.000000 1.642690 
# 
# From -- ./inp_files/23576.got.cif
#   From: 2010.05.17/outbox.cif.g08.bks.cpg/sg15_12_cif.got.tgz:23576.got - 2010.06.03 18:47:42.
