data_PCOD9284882
_publ_section_title
;
Structure prediction by ZEFSAII (Michael W. Deem and Ramdas Pophale) SiO2 
 PCOD9284882
Probable space group: C 2/C
;
_chemical_formula_sum "Si O2"
_cell_formula_units_Z 48
_cell_length_a 21.483962
_cell_length_b 8.513131
_cell_length_c 23.422159
_cell_angle_alpha 90.000000
_cell_angle_beta 28.217387
_cell_angle_gamma 90.000000
_cell_volume 2025.465206
_symmetry_space_group_name_H-M "C 2/C"
_symmetry_group_IT_number 15
_symmetry_cell_setting 'monoclinic'
loop_
_space_group_symop_operation_xyz
x,y,z
-x,y,1/2-z
-x,-y,-z
x,-y,1/2+z
1/2+x,1/2+y,z
1/2-x,1/2+y,1/2-z
1/2-x,1/2-y,-z
1/2+x,1/2-y,1/2+z
loop_
_atom_site_type_symbol
_atom_site_label
_atom_site_fract_x
_atom_site_fract_y
_atom_site_fract_z
Si Si1 0.719953 0.367000 0.336042
Si Si2 0.714375 0.963399 0.823493
Si Si3 0.283480 0.571005 0.986243
Si Si4 0.584964 0.092518 0.730425
Si Si5 0.028762 0.068580 0.081024
Si Si6 0.127794 0.567452 0.516341
O O1 0.657730 0.211156 0.360434
O O2 0.808694 0.438219 0.214500
O O3 0.818079 0.311051 0.307539
O O4 0.612861 0.471640 0.455478
O O5 0.655215 0.008118 0.932704
O O6 0.874345 0.954621 0.695921
O O7 0.178868 0.519244 0.118885
O O8 0.250000 0.750000 0.000000
O O9 0.421044 0.532233 0.905739
O O10 0.253917 0.461870 0.954988
O O11 0.500000 0.177467 0.750000
O O12 0.489216 0.997768 0.850075
O O13 0.077085 0.250502 0.052873
#
# Coordination Sequence:
#
# PCOD9284882 Si02
#       6
#     8   8   8   8   8   8
#     4  10  22  41  63  91 127 168 215 265 319 376
#     4  11  23  40  61  94 128 167 220 259 321 391
#     4  10  22  41  65  96 129 161 213 274 332 372
#     4   9  19  41  67  86 123 166 207 257 321 376
#     4  10  21  42  64  90 127 173 220 260 317 393
#     4  10  21  41  65  92 126 172 215 258 322 389
#
# _framework density 23.698257999999999
#
# number of rings (size 3 to 8) (size 9 to 14) (size 15 to 20)
#    0.000    2.000    1.667    1.000    0.000    5.333 
#   15.000    0.000    0.000    0.000    0.000    0.000 
#    0.000    0.000    0.000    0.000    0.000    0.000 
#
# Total GULP energy -133768.119371 kJ/mol
# GULP energy per Si atom -5573.671640 kJ/mol
# Density = 2.364432 g / cm^3
# Si number density = 23.698258 Si / 1000 Ang^3
#
#
#
# Elastic Constant Matrix: (Units=GPa)
#
#
# Indices 1 2 3 4 5 6 
#
# 1 108.8588 24.0923 22.2295 0.0000 15.4917 0.0000
# 2 24.0923 45.8129 -13.8130 0.0000 13.2300 0.0000
# 3 22.2295 -13.8130 90.6869 0.0000 27.2081 0.0000
# 4 0.0000 0.0000 0.0000 18.0266 0.0000 8.4987
# 5 15.4917 13.2300 27.2081 0.0000 53.4629 0.0000
# 6 0.0000 0.0000 0.0000 8.4987 0.0000 24.3916
#
#
#
# Elastic Compliance Matrix: (Units=1/GPa)
#
#
# Indices 1 2 3 4 5 6 
#
# 1 0.011625 -0.007561 -0.004192 0.000000 0.000636 0.000000
# 2 -0.007561 0.031912 0.009944 0.000000 -0.010767 0.000000
# 3 -0.004192 0.009944 0.016456 0.000000 -0.009621 0.000000
# 4 0.000000 0.000000 0.000000 0.066377 0.000000 -0.023128
# 5 0.000636 -0.010767 -0.009621 0.000000 0.026081 0.000000
# 6 0.000000 0.000000 0.000000 -0.023128 0.000000 0.049056
#
#
# Mechanical properties :
#
#
# Convention : Reuss Voigt Hill
#
# Bulk Modulus (GPa) = 17.73840 34.48625 26.11232
# Shear Modulus (GPa) = 22.32981 33.36621 27.84801
#
# Velocity S-wave (km/s) = 3.07295 3.75635 3.43170
# Velocity P-wave (km/s) = 4.48241 5.77905 5.17153
#
# Compressibility (1/GPa) = 0.05637488
#
# Stress axis : x y z
#
# Youngs Moduli (GPa) = 86.02039 31.33642 60.76959
#
# Poissons Ratio (x) = 0.23694 0.25475
# Poissons Ratio (y) = 0.65041 -0.60431
# Poissons Ratio (z) = 0.36060 -0.31162
#
# Static dielectric constant tensor:
#      x y z
#    x 2.005450 0.000000 -0.015950 
#    y 0.000000 1.932240 0.000000 
#    z -0.015950 0.000000 2.005490 
# 
# From -- ./inp_files/281596.got.cif
#   From: 2010.05.17/outbox.cif.g08.bks.cpg/sg15_141_cif.got.tgz:281596.got - 2010.06.03 18:47:42.
