data_PCOD9284759
_publ_section_title
;
Structure prediction by ZEFSAII (Michael W. Deem and Ramdas Pophale) SiO2 
 PCOD9284759
Probable space group: C 2/C
;
_chemical_formula_sum "Si O2"
_cell_formula_units_Z 52
_cell_length_a 26.077318
_cell_length_b 11.887361
_cell_length_c 11.390929
_cell_angle_alpha 90.000000
_cell_angle_beta 136.597128
_cell_angle_gamma 90.000000
_cell_volume 2426.289358
_symmetry_space_group_name_H-M "C 2/C"
_symmetry_group_IT_number 15
_symmetry_cell_setting 'monoclinic'
loop_
_space_group_symop_operation_xyz
x,y,z
-x,y,1/2-z
-x,-y,-z
x,-y,1/2+z
1/2+x,1/2+y,z
1/2-x,1/2+y,1/2-z
1/2-x,1/2-y,-z
1/2+x,1/2-y,1/2+z
loop_
_atom_site_type_symbol
_atom_site_label
_atom_site_fract_x
_atom_site_fract_y
_atom_site_fract_z
Si Si1 0.844573 0.139870 0.615584
Si Si2 0.101070 0.639299 0.990921
Si Si3 0.128804 0.718566 0.784101
Si Si4 0.237193 0.762458 0.290316
Si Si5 0.000000 0.561291 0.250000
Si Si6 0.734789 0.596249 0.550739
Si Si7 0.978275 0.262749 0.911766
O O1 0.803221 0.182719 0.664780
O O2 0.817706 0.222360 0.466787
O O3 0.932246 0.155774 0.786766
O O4 0.808987 0.019973 0.527719
O O5 0.188019 0.654068 0.168718
O O6 0.058631 0.698292 0.027437
O O7 0.093105 0.703414 0.853551
O O8 0.064846 0.518374 0.909981
O O9 0.178703 0.606554 0.844777
O O10 0.065534 0.745556 0.585122
O O11 0.187107 0.820472 0.887976
O O12 0.235386 0.849163 0.180876
O O13 0.031079 0.638793 0.198471
#
# Coordination Sequence:
#
# PCOD9284759 Si02
#       7
#     8   8   8   8   4   8   8
#     4  10  23  42  63  91 127 173 209 261 336 378
#     4  10  21  41  64  90 125 170 211 266 328 377
#     4  10  22  41  65  97 127 164 223 268 311 396
#     4   9  22  41  63  89 127 165 220 263 308 405
#     4  12  24  36  64  98 124 168 208 278 334 366
#     4  10  23  41  66  94 127 173 213 265 327 382
#     4  11  24  40  61  95 133 161 219 272 321 398
#
# _framework density 21.431903999999999
#
# number of rings (size 3 to 8) (size 9 to 14) (size 15 to 20)
#    0.000    1.846    1.538    0.462    4.308    6.769 
#    0.000    0.000    3.385    0.000    0.000    0.000 
#    0.000    0.000    0.000    0.000    0.000    0.000 
#
# Total GULP energy -145145.284153 kJ/mol
# GULP energy per Si atom -5582.510929 kJ/mol
# Density = 2.138312 g / cm^3
# Si number density = 21.431904 Si / 1000 Ang^3
#
#
#
# Elastic Constant Matrix: (Units=GPa)
#
#
# Indices 1 2 3 4 5 6 
#
# 1 69.0620 28.7237 46.7815 0.0000 3.8450 0.0000
# 2 28.7237 95.9498 66.7118 0.0000 4.9679 0.0000
# 3 46.7815 66.7118 166.7660 0.0000 15.0731 0.0000
# 4 0.0000 0.0000 0.0000 34.3333 0.0000 -4.0372
# 5 3.8450 4.9679 15.0731 0.0000 25.1328 0.0000
# 6 0.0000 0.0000 0.0000 -4.0372 0.0000 26.3903
#
#
#
# Elastic Compliance Matrix: (Units=1/GPa)
#
#
# Indices 1 2 3 4 5 6 
#
# 1 0.018352 -0.002649 -0.004104 0.000000 0.000178 0.000000
# 2 -0.002649 0.014830 -0.005245 0.000000 0.000620 0.000000
# 3 -0.004104 -0.005245 0.009617 0.000000 -0.004103 0.000000
# 4 0.000000 0.000000 0.000000 0.029660 0.000000 0.004537
# 5 0.000178 0.000620 -0.004103 0.000000 0.042100 0.000000
# 6 0.000000 0.000000 0.000000 0.004537 0.000000 0.038587
#
#
# Mechanical properties :
#
#
# Convention : Reuss Voigt Hill
#
# Bulk Modulus (GPa) = 53.18903 68.46800 60.82851
# Shear Modulus (GPa) = 27.26128 29.80868 28.53498
#
# Velocity S-wave (km/s) = 3.57037 3.73346 3.65283
# Velocity P-wave (km/s) = 6.47057 7.11345 6.79961
#
# Compressibility (1/GPa) = 0.01880087
#
# Stress axis : x y z
#
# Youngs Moduli (GPa) = 54.49005 67.43034 103.98342
#
# Poissons Ratio (x) = 0.17865 0.42678
# Poissons Ratio (y) = 0.14437 0.54543
# Poissons Ratio (z) = 0.22364 0.35369
#
# Static dielectric constant tensor:
#      x y z
#    x 1.807590 0.000000 0.035540 
#    y 0.000000 1.773400 0.000000 
#    z 0.035540 0.000000 1.807400 
# 
# From -- ./inp_files/126470.got.cif
#   From: 2010.05.17/outbox.cif.g08.bks.cpg/sg15_64_cif.got.tgz:126470.got - 2010.06.03 18:47:42.
