data_PCOD9284613
_publ_section_title
;
Structure prediction by ZEFSAII (Michael W. Deem and Ramdas Pophale) SiO2 
 PCOD9284613
Probable space group: C 2/C
;
_chemical_formula_sum "Si O2"
_cell_formula_units_Z 64
_cell_length_a 31.962291
_cell_length_b 17.007606
_cell_length_c 12.729746
_cell_angle_alpha 90.000000
_cell_angle_beta 156.707654
_cell_angle_gamma 90.000000
_cell_volume 2736.292622
_symmetry_space_group_name_H-M "C 2/C"
_symmetry_group_IT_number 15
_symmetry_cell_setting 'monoclinic'
loop_
_space_group_symop_operation_xyz
x,y,z
-x,y,1/2-z
-x,-y,-z
x,-y,1/2+z
1/2+x,1/2+y,z
1/2-x,1/2+y,1/2-z
1/2-x,1/2-y,-z
1/2+x,1/2-y,1/2+z
loop_
_atom_site_type_symbol
_atom_site_label
_atom_site_fract_x
_atom_site_fract_y
_atom_site_fract_z
Si Si1 0.604155 0.313467 0.172898
Si Si2 0.611179 0.459239 0.045477
Si Si3 0.740059 0.105953 0.794204
Si Si4 0.325467 0.862215 0.978316
Si Si5 0.394330 0.282358 0.769448
Si Si6 0.340774 0.143722 0.277326
Si Si7 0.874338 0.761168 0.958637
Si Si8 0.693468 0.014682 0.887261
O O1 0.578985 0.376685 0.025182
O O2 0.609676 0.226625 0.137769
O O3 0.715826 0.338085 0.477692
O O4 0.514526 0.310485 0.053604
O O5 0.696480 0.440597 0.149783
O O6 0.681336 0.503592 0.294991
O O7 0.500000 0.495791 0.750000
O O8 0.668292 0.179555 0.587674
O O9 0.828526 0.146828 0.070172
O O10 0.680218 0.052236 0.741173
O O11 0.363419 0.879250 0.949046
O O12 0.201698 0.834059 0.686725
O O13 0.344844 0.930445 0.106940
O O14 0.382254 0.786021 0.156397
O O15 0.353722 0.251806 0.786379
O O16 0.359451 0.071230 0.241945
O O17 0.000000 0.771043 0.250000
#
# Coordination Sequence:
#
# PCOD9284613 Si02
#       8
#     8   8   8   8   8   8   8   8
#     4  10  21  41  62  93 121 153 219 263 298 364
#     4  11  23  38  64  94 120 167 204 253 313 362
#     4  11  21  42  63  88 129 162 204 256 309 364
#     4  11  21  40  63  91 124 163 207 253 309 370
#     4  11  20  38  68  89 120 159 206 264 302 354
#     4  10  23  39  63  90 124 168 203 257 311 360
#     4  11  22  37  66  94 118 162 210 260 304 358
#     4  11  23  41  59  89 136 162 199 247 311 383
#
# _framework density 23.389309999999998
#
# number of rings (size 3 to 8) (size 9 to 14) (size 15 to 20)
#    0.000    1.250    3.750    3.750    0.000    3.000 
#    2.250    0.625    5.500    0.000    0.000    0.000 
#    0.000    0.000    0.000    0.000    0.000    0.000 
#
# Total GULP energy -178819.999351 kJ/mol
# GULP energy per Si atom -5588.124980 kJ/mol
# Density = 2.333608 g / cm^3
# Si number density = 23.389310 Si / 1000 Ang^3
#
#
#
# Elastic Constant Matrix: (Units=GPa)
#
#
# Indices 1 2 3 4 5 6 
#
# 1 78.8798 6.5477 11.6988 0.0000 -17.2394 0.0000
# 2 6.5477 74.0907 -10.1927 0.0000 -19.0987 0.0000
# 3 11.6988 -10.1927 40.8891 0.0000 5.9513 0.0000
# 4 0.0000 0.0000 0.0000 2.9027 0.0000 -17.3538
# 5 -17.2394 -19.0987 5.9513 0.0000 33.3190 0.0000
# 6 0.0000 0.0000 0.0000 -17.3538 0.0000 10.5128
#
#
#
# Elastic Compliance Matrix: (Units=1/GPa)
#
#
# Indices 1 2 3 4 5 6 
#
# 1 0.015512 0.000205 -0.005721 0.000000 0.009165 0.000000
# 2 0.000205 0.016135 0.002671 0.000000 0.008877 0.000000
# 3 -0.005721 0.002671 0.027687 0.000000 -0.006374 0.000000
# 4 0.000000 0.000000 0.000000 -0.038844 0.000000 -0.064122
# 5 0.009165 0.008877 -0.006374 0.000000 0.040982 0.000000
# 6 0.000000 0.000000 0.000000 -0.064122 0.000000 -0.010725
#
#
# Mechanical properties :
#
#
# Convention : Reuss Voigt Hill
#
# Bulk Modulus (GPa) = 18.64156 23.32970 20.98563
# Shear Modulus (GPa) = 67.27895 21.73396 44.50646
#
# Velocity S-wave (km/s) = 5.36910 3.05163 4.36690
# Velocity P-wave (km/s) = 6.81350 4.73421 5.86671
#
# Compressibility (1/GPa) = 0.05364359
#
# Stress axis : x y z
#
# Youngs Moduli (GPa) = 64.46573 61.97806 36.11805
#
# Poissons Ratio (x) = -0.01268 0.20664
# Poissons Ratio (y) = -0.01319 -0.09649
# Poissons Ratio (z) = 0.36882 -0.16557
#
# Static dielectric constant tensor:
#      x y z
#    x 1.862150 0.000000 0.018350 
#    y 0.000000 1.882990 0.000000 
#    z 0.018350 0.000000 1.912310 
# 
# From -- ./inp_files/127312.got.cif
#   From: 2010.05.17/outbox.cif.g08.bks.cpg/sg15_64_cif.got.tgz:127312.got - 2010.06.03 18:47:42.
