data_PCOD9284158
_publ_section_title
;
Structure prediction by ZEFSAII (Michael W. Deem and Ramdas Pophale) SiO2 
 PCOD9284158
Probable space group: C 2/C
;
_chemical_formula_sum "Si O2"
_cell_formula_units_Z 36
_cell_length_a 8.410302
_cell_length_b 10.568266
_cell_length_c 16.744985
_cell_angle_alpha 90.000000
_cell_angle_beta 60.521701
_cell_angle_gamma 90.000000
_cell_volume 1295.656531
_symmetry_space_group_name_H-M "C 2/C"
_symmetry_group_IT_number 15
_symmetry_cell_setting 'monoclinic'
loop_
_space_group_symop_operation_xyz
x,y,z
-x,y,1/2-z
-x,-y,-z
x,-y,1/2+z
1/2+x,1/2+y,z
1/2-x,1/2+y,1/2-z
1/2-x,1/2-y,-z
1/2+x,1/2-y,1/2+z
loop_
_atom_site_type_symbol
_atom_site_label
_atom_site_fract_x
_atom_site_fract_y
_atom_site_fract_z
Si Si1 0.602915 0.307730 0.388020
Si Si2 0.540783 0.043053 0.334910
Si Si3 0.344782 0.404165 0.348148
Si Si4 0.000000 0.757629 0.750000
Si Si5 0.527442 0.781761 0.074691
O O1 0.507892 0.180075 0.378674
O O2 0.462880 0.418319 0.399677
O O3 0.627834 0.278690 0.475099
O O4 0.801916 0.314764 0.296443
O O5 0.500000 0.044738 0.250000
O O6 0.745887 0.015030 0.320789
O O7 0.433293 0.927105 0.404266
O O8 0.500000 0.355132 0.250000
O O9 0.179917 0.307946 0.403275
O O10 0.012034 0.805973 0.656897
#
# Coordination Sequence:
#
# PCOD9284158 Si02
#       5
#     8   8   8   4   8
#     4  12  23  41  69 101 131 178 232 271 334 421
#     4  10  23  41  67  97 135 177 220 282 343 396
#     4  10  21  40  67  91 135 175 216 279 342 387
#     4  12  24  42  66  96 134 182 216 278 342 398
#     4  10  22  43  64  94 137 175 217 284 341 388
#
# _framework density 27.785142
#
# number of rings (size 3 to 8) (size 9 to 14) (size 15 to 20)
#    1.333    0.000    3.333    2.667    1.556    0.000 
#    0.000    0.000    0.000    5.333    0.000    0.000 
#    0.000    0.000    0.000    0.000    0.000    0.000 
#
# Total GULP energy -100307.784991 kJ/mol
# GULP energy per Si atom -5572.654722 kJ/mol
# Density = 2.772190 g / cm^3
# Si number density = 27.785142 Si / 1000 Ang^3
#
#
#
# Elastic Constant Matrix: (Units=GPa)
#
#
# Indices 1 2 3 4 5 6 
#
# 1 110.6839 36.5994 37.4396 0.0000 39.5201 0.0000
# 2 36.5994 112.3293 23.4045 0.0000 11.6962 0.0000
# 3 37.4396 23.4045 165.8001 0.0000 28.3294 0.0000
# 4 0.0000 0.0000 0.0000 24.2306 0.0000 9.8195
# 5 39.5201 11.6962 28.3294 0.0000 71.1277 0.0000
# 6 0.0000 0.0000 0.0000 9.8195 0.0000 40.3590
#
#
#
# Elastic Compliance Matrix: (Units=1/GPa)
#
#
# Indices 1 2 3 4 5 6 
#
# 1 0.012706 -0.003228 -0.001393 0.000000 -0.005974 0.000000
# 2 -0.003228 0.010068 -0.000768 0.000000 0.000444 0.000000
# 3 -0.001393 -0.000768 0.006761 0.000000 -0.001792 0.000000
# 4 0.000000 0.000000 0.000000 0.045784 0.000000 -0.011139
# 5 -0.005974 0.000444 -0.001792 0.000000 0.018020 0.000000
# 6 0.000000 0.000000 0.000000 -0.011139 0.000000 0.027488
#
#
# Mechanical properties :
#
#
# Convention : Reuss Voigt Hill
#
# Bulk Modulus (GPa) = 53.31217 64.85561 59.08389
# Shear Modulus (GPa) = 36.26954 46.56811 41.41883
#
# Velocity S-wave (km/s) = 3.61689 4.09835 3.86512
# Velocity P-wave (km/s) = 6.05570 6.76667 6.42103
#
# Compressibility (1/GPa) = 0.01875744
#
# Stress axis : x y z
#
# Youngs Moduli (GPa) = 78.70072 99.32551 147.91640
#
# Poissons Ratio (x) = 0.32060 0.20602
# Poissons Ratio (y) = 0.25403 0.11362
# Poissons Ratio (z) = 0.10961 0.07630
#
# Static dielectric constant tensor:
#      x y z
#    x 2.324050 0.000000 0.084650 
#    y 0.000000 2.189090 0.000000 
#    z 0.084650 0.000000 2.160250 
# 
# From -- ./inp_files/132597.got.cif
#   From: 2010.05.17/outbox.cif.g08.bks.cpg/sg15_67_cif.got.tgz:132597.got - 2010.06.03 18:47:42.
