data_PCOD9284652
_publ_section_title
;
Structure prediction by ZEFSAII (Michael W. Deem and Ramdas Pophale) SiO2 
 PCOD9284652
Probable space group: C 2/C
;
_chemical_formula_sum "Si O2"
_cell_formula_units_Z 32
_cell_length_a 11.822928
_cell_length_b 8.261486
_cell_length_c 12.153936
_cell_angle_alpha 90.000000
_cell_angle_beta 106.551320
_cell_angle_gamma 90.000000
_cell_volume 1137.946146
_symmetry_space_group_name_H-M "C 2/C"
_symmetry_group_IT_number 15
_symmetry_cell_setting 'monoclinic'
loop_
_space_group_symop_operation_xyz
x,y,z
-x,y,1/2-z
-x,-y,-z
x,-y,1/2+z
1/2+x,1/2+y,z
1/2-x,1/2+y,1/2-z
1/2-x,1/2-y,-z
1/2+x,1/2-y,1/2+z
loop_
_atom_site_type_symbol
_atom_site_label
_atom_site_fract_x
_atom_site_fract_y
_atom_site_fract_z
Si Si1 0.691702 0.548160 0.396728
Si Si2 0.099638 0.576897 0.397770
Si Si3 0.479008 0.257005 0.925323
Si Si4 0.779886 0.246320 0.748126
O O1 0.776212 0.457211 0.505359
O O2 0.569317 0.604765 0.414559
O O3 0.762071 0.706660 0.370012
O O4 0.681234 0.426540 0.289448
O O5 0.038862 0.720992 0.450302
O O6 0.131289 0.628489 0.284430
O O7 0.029626 0.411778 0.392182
O O8 0.351135 0.273751 0.836584
#
# Coordination Sequence:
#
# PCOD9284652 Si02
#       4
#     8   8   8   8
#     4  11  22  40  65  92 128 167 208 259 312 370
#     4  10  23  42  66  92 125 167 210 258 311 372
#     4  10  21  41  63  87 122 164 203 254 313 365
#     4  11  24  41  62  94 129 164 211 261 309 371
#
# _framework density 28.120840999999999
#
# number of rings (size 3 to 8) (size 9 to 14) (size 15 to 20)
#    0.000    1.500    0.000    6.000    0.000    6.000 
#    0.000   18.750    0.000    0.000    0.000    0.000 
#    0.000    0.000    0.000    0.000    0.000    0.000 
#
# Total GULP energy -89919.937842 kJ/mol
# GULP energy per Si atom -5619.996115 kJ/mol
# Density = 2.805684 g / cm^3
# Si number density = 28.120841 Si / 1000 Ang^3
#
#
#
# Elastic Constant Matrix: (Units=GPa)
#
#
# Indices 1 2 3 4 5 6 
#
# 1 184.6497 55.6267 46.1425 0.0000 -31.6775 0.0000
# 2 55.6267 115.5562 44.4271 0.0000 -14.2729 0.0000
# 3 46.1425 44.4271 103.7431 0.0000 -23.5848 0.0000
# 4 0.0000 0.0000 0.0000 55.8143 0.0000 -16.1875
# 5 -31.6775 -14.2729 -23.5848 0.0000 48.4782 0.0000
# 6 0.0000 0.0000 0.0000 -16.1875 0.0000 70.7141
#
#
#
# Elastic Compliance Matrix: (Units=1/GPa)
#
#
# Indices 1 2 3 4 5 6 
#
# 1 0.007051 -0.002481 -0.001341 0.000000 0.003225 0.000000
# 2 -0.002481 0.011276 -0.003754 0.000000 -0.000128 0.000000
# 3 -0.001341 -0.003754 0.012810 0.000000 0.004250 0.000000
# 4 0.000000 0.000000 0.000000 0.019191 0.000000 0.004393
# 5 0.003225 -0.000128 0.004250 0.000000 0.024765 0.000000
# 6 0.000000 0.000000 0.000000 0.004393 0.000000 0.015147
#
#
# Mechanical properties :
#
#
# Convention : Reuss Voigt Hill
#
# Bulk Modulus (GPa) = 62.55889 77.37130 69.96510
# Shear Modulus (GPa) = 45.15924 52.18483 48.67204
#
# Velocity S-wave (km/s) = 4.01171 4.31250 4.16482
# Velocity P-wave (km/s) = 6.61462 7.23674 6.93266
#
# Compressibility (1/GPa) = 0.01598494
#
# Stress axis : x y z
#
# Youngs Moduli (GPa) = 141.81900 88.68756 78.06618
#
# Poissons Ratio (x) = 0.21999 0.10467
# Poissons Ratio (y) = 0.35179 0.29309
# Poissons Ratio (z) = 0.19015 0.33297
#
# Static dielectric constant tensor:
#      x y z
#    x 2.139430 0.000000 0.017710 
#    y 0.000000 2.191520 0.000000 
#    z 0.017710 0.000000 2.167600 
# 
# From -- ./inp_files/140544.got.cif
#   From: 2010.05.17/outbox.cif.g08.bks.cpg/sg15_71_cif.got.tgz:140544.got - 2010.06.03 18:47:42.
