data_PCOD9284232
_publ_section_title
;
Structure prediction by ZEFSAII (Michael W. Deem and Ramdas Pophale) SiO2 
 PCOD9284232
Probable space group: C 2/C
;
_chemical_formula_sum "Si O2"
_cell_formula_units_Z 48
_cell_length_a 13.228349
_cell_length_b 11.975654
_cell_length_c 19.948392
_cell_angle_alpha 90.000000
_cell_angle_beta 40.559175
_cell_angle_gamma 90.000000
_cell_volume 2054.858005
_symmetry_space_group_name_H-M "C 2/C"
_symmetry_group_IT_number 15
_symmetry_cell_setting 'monoclinic'
loop_
_space_group_symop_operation_xyz
x,y,z
-x,y,1/2-z
-x,-y,-z
x,-y,1/2+z
1/2+x,1/2+y,z
1/2-x,1/2+y,1/2-z
1/2-x,1/2-y,-z
1/2+x,1/2-y,1/2+z
loop_
_atom_site_type_symbol
_atom_site_label
_atom_site_fract_x
_atom_site_fract_y
_atom_site_fract_z
Si Si1 0.855969 0.315306 0.499247
Si Si2 0.680689 0.039093 0.922210
Si Si3 0.430022 0.920402 0.217103
Si Si4 0.916252 0.784050 0.504564
Si Si5 0.629844 0.161952 0.229058
Si Si6 0.641572 0.629805 0.796570
O O1 0.750000 0.250000 0.500000
O O2 0.763166 0.426007 0.570325
O O3 0.997644 0.360939 0.382620
O O4 0.939318 0.245916 0.517375
O O5 0.658436 0.159900 0.969109
O O6 0.794450 0.064071 0.801054
O O7 0.500000 0.000000 0.000000
O O8 0.500000 0.874147 0.250000
O O9 0.246495 0.913186 0.303951
O O10 0.458506 0.052723 0.201566
O O11 0.782849 0.854512 0.608469
O O12 0.970482 0.853761 0.412428
O O13 0.500000 0.225526 0.250000
O O14 0.681993 0.240737 0.262340
#
# Coordination Sequence:
#
# PCOD9284232 Si02
#       6
#     8   8   8   8   8   8
#     4  11  21  40  69 104 142 184 235 288 354 417
#     4   9  18  38  64  96 135 191 221 278 355 416
#     4  11  22  40  66  99 137 188 229 279 359 417
#     4  10  21  40  68 100 134 183 235 293 346 418
#     4  10  23  42  65  92 135 186 232 289 354 419
#     4  11  21  39  70  98 135 177 243 283 348 416
#
# _framework density 23.359276999999999
#
# number of rings (size 3 to 8) (size 9 to 14) (size 15 to 20)
#    0.000    1.667    5.000    2.000    2.333    1.333 
#    0.000    5.000    0.000    4.000    0.000    0.000 
#    0.000    0.000    0.000    0.000    0.000    0.000 
#
# Total GULP energy -133680.280142 kJ/mol
# GULP energy per Si atom -5570.011673 kJ/mol
# Density = 2.330611 g / cm^3
# Si number density = 23.359277 Si / 1000 Ang^3
#
#
#
# Elastic Constant Matrix: (Units=GPa)
#
#
# Indices 1 2 3 4 5 6 
#
# 1 74.5692 38.7503 11.2225 0.0000 3.5940 0.0000
# 2 38.7503 64.9115 19.2243 0.0000 1.4152 0.0000
# 3 11.2225 19.2243 120.7332 -0.0001 8.0870 0.0000
# 4 0.0000 0.0000 -0.0001 32.9867 0.0000 13.1606
# 5 3.5940 1.4152 8.0870 0.0000 21.7610 0.0000
# 6 0.0000 0.0000 0.0000 13.1606 0.0000 29.1233
#
#
#
# Elastic Compliance Matrix: (Units=1/GPa)
#
#
# Indices 1 2 3 4 5 6 
#
# 1 0.019579 -0.011696 0.000213 0.000000 -0.002552 0.000000
# 2 -0.011696 0.023155 -0.002695 0.000000 0.001427 0.000000
# 3 0.000213 -0.002695 0.008904 0.000000 -0.003169 0.000000
# 4 0.000000 0.000000 0.000000 0.036983 0.000000 -0.016712
# 5 -0.002552 0.001427 -0.003169 0.000000 0.047460 0.000000
# 6 0.000000 0.000000 0.000000 -0.016712 0.000000 0.041889
#
#
# Mechanical properties :
#
#
# Convention : Reuss Voigt Hill
#
# Bulk Modulus (GPa) = 42.95046 44.28982 43.62014
# Shear Modulus (GPa) = 23.35506 29.50863 26.43184
#
# Velocity S-wave (km/s) = 3.16542 3.55808 3.36748
# Velocity P-wave (km/s) = 5.63797 5.99010 5.81670
#
# Compressibility (1/GPa) = 0.02328264
#
# Stress axis : x y z
#
# Youngs Moduli (GPa) = 51.07524 43.18779 112.30466
#
# Poissons Ratio (x) = 0.50511 -0.02396
# Poissons Ratio (y) = 0.59736 0.30270
# Poissons Ratio (z) = -0.01090 0.11641
#
# Static dielectric constant tensor:
#      x y z
#    x 2.127180 0.000000 0.009490 
#    y 0.000000 1.898090 0.000000 
#    z 0.009490 0.000000 1.945290 
# 
# From -- ./inp_files/243889.got.cif
#   From: 2010.05.17/outbox.cif.g08.bks.cpg/sg15_122_cif.got.tgz:243889.got - 2010.06.03 18:47:42.
