data_PCOD9284768
_publ_section_title
;
Structure prediction by ZEFSAII (Michael W. Deem and Ramdas Pophale) SiO2 
 PCOD9284768
Probable space group: C 2/C
;
_chemical_formula_sum "Si O2"
_cell_formula_units_Z 60
_cell_length_a 15.262712
_cell_length_b 10.417405
_cell_length_c 19.669804
_cell_angle_alpha 90.000000
_cell_angle_beta 132.968677
_cell_angle_gamma 90.000000
_cell_volume 2288.442658
_symmetry_space_group_name_H-M "C 2/C"
_symmetry_group_IT_number 15
_symmetry_cell_setting 'monoclinic'
loop_
_space_group_symop_operation_xyz
x,y,z
-x,y,1/2-z
-x,-y,-z
x,-y,1/2+z
1/2+x,1/2+y,z
1/2-x,1/2+y,1/2-z
1/2-x,1/2-y,-z
1/2+x,1/2-y,1/2+z
loop_
_atom_site_type_symbol
_atom_site_label
_atom_site_fract_x
_atom_site_fract_y
_atom_site_fract_z
Si Si1 0.894485 0.927979 0.781798
Si Si2 0.693207 0.037466 0.615675
Si Si3 0.500000 0.175579 0.250000
Si Si4 0.583795 0.862695 0.198227
Si Si5 0.270386 0.907684 0.676764
Si Si6 0.166228 0.373403 0.963912
Si Si7 0.649727 0.802652 0.500074
Si Si8 0.375969 0.481834 0.515568
O O1 0.915169 0.781081 0.770729
O O2 0.836859 0.018142 0.694927
O O3 0.790711 0.904766 0.782984
O O4 0.006356 0.996746 0.876487
O O5 0.653471 0.104838 0.664570
O O6 0.632119 0.118928 0.524058
O O7 0.662339 0.892063 0.573422
O O8 0.440986 0.130686 0.146110
O O9 0.635181 0.203721 0.290429
O O10 0.642875 0.964962 0.280870
O O11 0.449313 0.869911 0.099783
O O12 0.161664 0.928132 0.566970
O O13 0.260419 0.489920 0.001847
O O14 0.250000 0.250000 0.000000
O O15 0.750000 0.750000 0.500000
O O16 0.607728 0.662037 0.503738
#
# Coordination Sequence:
#
# PCOD9284768 Si02
#       8
#     8   8   4   8   8   8   8   8
#     4  10  23  42  65  97 138 178 230 289 352 423
#     4  11  23  42  69 101 138 182 240 287 359 430
#     4  10  24  42  68  92 130 178 224 286 340 410
#     4  10  23  40  66 100 134 179 229 293 353 421
#     4  10  21  41  64  90 132 171 229 273 348 412
#     4  11  25  44  67 101 137 185 232 294 352 430
#     4  11  21  40  64  95 135 172 230 288 354 416
#     4  10  22  41  64  96 132 180 231 286 356 418
#
# _framework density 26.218703000000001
#
# number of rings (size 3 to 8) (size 9 to 14) (size 15 to 20)
#    0.000    1.600    1.333    2.400    5.600    2.667 
#    2.400    0.000    0.000    0.000    0.000    0.000 
#    0.000    0.000    0.000    0.000    0.000    0.000 
#
# Total GULP energy -167032.999932 kJ/mol
# GULP energy per Si atom -5567.766664 kJ/mol
# Density = 2.615903 g / cm^3
# Si number density = 26.218703 Si / 1000 Ang^3
#
#
#
# Elastic Constant Matrix: (Units=GPa)
#
#
# Indices 1 2 3 4 5 6 
#
# 1 62.9256 3.3708 15.2206 0.0000 -1.5097 0.0000
# 2 3.3708 118.2332 70.1124 0.0000 5.3761 0.0000
# 3 15.2206 70.1124 179.5336 0.0000 13.2655 0.0000
# 4 0.0000 0.0000 0.0000 18.9756 0.0000 1.0213
# 5 -1.5097 5.3761 13.2655 0.0000 51.9757 0.0000
# 6 0.0000 0.0000 0.0000 1.0213 0.0000 8.3567
#
#
#
# Elastic Compliance Matrix: (Units=1/GPa)
#
#
# Indices 1 2 3 4 5 6 
#
# 1 0.016280 0.000459 -0.001622 0.000000 0.000839 0.000000
# 2 0.000459 0.011020 -0.004341 0.000000 -0.000019 0.000000
# 3 -0.001622 -0.004341 0.007515 0.000000 -0.001516 0.000000
# 4 0.000000 0.000000 0.000000 0.053048 0.000000 -0.006483
# 5 0.000839 -0.000019 -0.001516 0.000000 0.019653 0.000000
# 6 0.000000 0.000000 0.000000 -0.006483 0.000000 0.120457
#
#
# Mechanical properties :
#
#
# Convention : Reuss Voigt Hill
#
# Bulk Modulus (GPa) = 42.00356 59.78889 50.89622
# Shear Modulus (GPa) = 20.24991 33.99417 27.12204
#
# Velocity S-wave (km/s) = 2.78213 3.60469 3.21978
# Velocity P-wave (km/s) = 5.13571 6.33865 5.76862
#
# Compressibility (1/GPa) = 0.02380751
#
# Stress axis : x y z
#
# Youngs Moduli (GPa) = 61.42682 90.74492 133.07083
#
# Poissons Ratio (x) = -0.04168 0.21578
# Poissons Ratio (y) = -0.02821 0.57768
# Poissons Ratio (z) = 0.09961 0.39393
#
# Static dielectric constant tensor:
#      x y z
#    x 2.187180 0.000000 -0.030140 
#    y 0.000000 2.228830 0.000000 
#    z -0.030140 0.000000 2.031100 
# 
# From -- ./inp_files/248790.got.cif
#   From: 2010.05.17/outbox.cif.g08.bks.cpg/sg15_125_cif.got.tgz:248790.got - 2010.06.03 18:47:42.
