data_PCOD9284684
_publ_section_title
;
Structure prediction by ZEFSAII (Michael W. Deem and Ramdas Pophale) SiO2 
 PCOD9284684
Probable space group: C 2/C
;
_chemical_formula_sum "Si O2"
_cell_formula_units_Z 56
_cell_length_a 17.611512
_cell_length_b 18.339399
_cell_length_c 8.783413
_cell_angle_alpha 90.000000
_cell_angle_beta 66.466616
_cell_angle_gamma 90.000000
_cell_volume 2600.954274
_symmetry_space_group_name_H-M "C 2/C"
_symmetry_group_IT_number 15
_symmetry_cell_setting 'monoclinic'
loop_
_space_group_symop_operation_xyz
x,y,z
-x,y,1/2-z
-x,-y,-z
x,-y,1/2+z
1/2+x,1/2+y,z
1/2-x,1/2+y,1/2-z
1/2-x,1/2-y,-z
1/2+x,1/2-y,1/2+z
loop_
_atom_site_type_symbol
_atom_site_label
_atom_site_fract_x
_atom_site_fract_y
_atom_site_fract_z
Si Si1 0.291761 0.911997 0.573067
Si Si2 0.402743 0.790220 0.625130
Si Si3 0.947865 0.939426 0.443944
Si Si4 0.430261 0.720039 0.116828
Si Si5 0.174791 0.196335 0.021161
Si Si6 0.244031 0.047969 0.455570
Si Si7 0.816114 0.307601 0.002463
O O1 0.364417 0.853441 0.546499
O O2 0.214446 0.878109 0.542956
O O3 0.263434 0.932287 0.765538
O O4 0.304618 0.984140 0.465176
O O5 0.493726 0.768178 0.503309
O O6 0.351138 0.716195 0.627965
O O7 0.385636 0.811667 0.812415
O O8 0.936393 0.861269 0.539370
O O9 0.855238 0.965037 0.467634
O O10 0.000000 0.925513 0.250000
O O11 0.000000 0.000000 0.500000
O O12 0.406974 0.709165 0.311609
O O13 0.354040 0.769641 0.118843
O O14 0.250000 0.250000 0.000000
O O15 0.269645 0.115649 0.542362
O O16 0.750000 0.250000 0.000000
#
# Coordination Sequence:
#
# PCOD9284684 Si02
#       7
#     8   8   8   8   8   8   8
#     4  10  22  42  60  94 123 168 214 252 313 379
#     4  10  23  38  63  92 126 163 209 267 315 367
#     4  12  26  40  60  95 136 171 207 258 329 384
#     4  12  23  42  65  96 128 164 212 267 321 375
#     4  10  21  41  63  91 125 164 213 257 310 383
#     4  11  23  41  64  87 130 169 212 259 308 380
#     4  11  21  41  63  90 123 166 222 256 304 380
#
# _framework density 21.530559
#
# number of rings (size 3 to 8) (size 9 to 14) (size 15 to 20)
#    0.000    1.143    2.857    4.286    2.000    3.429 
#    0.000    0.714    0.000    5.143    0.000    0.000 
#    0.000    0.000    0.000    0.000    0.000    0.000 
#
# Total GULP energy -156129.108474 kJ/mol
# GULP energy per Si atom -5576.039588 kJ/mol
# Density = 2.148155 g / cm^3
# Si number density = 21.530559 Si / 1000 Ang^3
#
#
#
# Elastic Constant Matrix: (Units=GPa)
#
#
# Indices 1 2 3 4 5 6 
#
# 1 69.1811 31.5404 2.5260 0.0000 -10.3699 0.0000
# 2 31.5404 114.1133 18.5332 0.0000 7.3622 0.0000
# 3 2.5260 18.5332 57.3562 0.0000 -6.5395 0.0000
# 4 0.0000 0.0000 0.0000 20.8446 0.0000 9.3688
# 5 -10.3699 7.3622 -6.5395 0.0000 33.8512 0.0000
# 6 0.0000 0.0000 0.0000 9.3688 0.0000 36.5440
#
#
#
# Elastic Compliance Matrix: (Units=1/GPa)
#
#
# Indices 1 2 3 4 5 6 
#
# 1 0.018089 -0.005767 0.001883 0.000000 0.007159 0.000000
# 2 -0.005767 0.011325 -0.003975 0.000000 -0.004998 0.000000
# 3 0.001883 -0.003975 0.019224 0.000000 0.005155 0.000000
# 4 0.000000 0.000000 0.000000 0.054222 0.000000 -0.013901
# 5 0.007159 -0.004998 0.005155 0.000000 0.033817 0.000000
# 6 0.000000 0.000000 0.000000 -0.013901 0.000000 0.030928
#
#
# Mechanical properties :
#
#
# Convention : Reuss Voigt Hill
#
# Bulk Modulus (GPa) = 30.37729 38.42776 34.40252
# Shear Modulus (GPa) = 25.73372 30.78469 28.25921
#
# Velocity S-wave (km/s) = 3.46094 3.78539 3.62680
# Velocity P-wave (km/s) = 5.48729 6.08213 5.79235
#
# Compressibility (1/GPa) = 0.03291933
#
# Stress axis : x y z
#
# Youngs Moduli (GPa) = 55.28338 88.29722 52.01747
#
# Poissons Ratio (x) = 0.50924 -0.09796
# Poissons Ratio (y) = 0.31884 0.20679
# Poissons Ratio (z) = -0.10411 0.35101
#
# Static dielectric constant tensor:
#      x y z
#    x 1.781680 0.000000 -0.003470 
#    y 0.000000 1.840090 0.000000 
#    z -0.003470 0.000000 1.812850 
# 
# From -- ./inp_files/49011.got.cif
#   From: 2010.05.17/outbox.cif.g08.bks.cpg/sg15_25_cif.got.tgz:49011.got - 2010.06.03 18:47:42.
