data_PCOD9284236
_publ_section_title
;
Structure prediction by ZEFSAII (Michael W. Deem and Ramdas Pophale) SiO2 
 PCOD9284236
Probable space group: C 2/C
;
_chemical_formula_sum "Si O2"
_cell_formula_units_Z 40
_cell_length_a 21.425609
_cell_length_b 8.011322
_cell_length_c 29.999766
_cell_angle_alpha 90.000000
_cell_angle_beta 20.001150
_cell_angle_gamma 90.000000
_cell_volume 1761.289976
_symmetry_space_group_name_H-M "C 2/C"
_symmetry_group_IT_number 15
_symmetry_cell_setting 'monoclinic'
loop_
_space_group_symop_operation_xyz
x,y,z
-x,y,1/2-z
-x,-y,-z
x,-y,1/2+z
1/2+x,1/2+y,z
1/2-x,1/2+y,1/2-z
1/2-x,1/2-y,-z
1/2+x,1/2-y,1/2+z
loop_
_atom_site_type_symbol
_atom_site_label
_atom_site_fract_x
_atom_site_fract_y
_atom_site_fract_z
Si Si1 0.306211 0.578586 0.366216
Si Si2 0.185694 0.449049 0.102453
Si Si3 0.665266 0.101014 0.366239
Si Si4 0.429063 0.368400 0.139117
Si Si5 0.885817 0.622140 0.434461
O O1 0.500000 0.506163 0.250000
O O2 0.286945 0.758422 0.402037
O O3 0.299313 0.613767 0.318541
O O4 0.167690 0.447588 0.480966
O O5 0.131935 0.467381 0.086752
O O6 0.000000 0.516401 0.250000
O O7 0.370761 0.545454 0.992294
O O8 0.607793 0.275217 0.382592
O O9 0.500000 0.000000 0.500000
O O10 0.771037 0.996424 0.257697
O O11 0.435714 0.230018 0.174687
O O12 0.750000 0.750000 0.500000
#
# Coordination Sequence:
#
# PCOD9284236 Si02
#       5
#     8   8   8   8   8
#     4  11  23  44  71 104 144 191 246 305 364 433
#     4  10  24  42  73 108 145 192 245 307 366 430
#     4  12  28  49  73 107 150 196 243 303 370 439
#     4  11  27  46  73 104 148 194 244 302 370 443
#     4  10  21  40  68 101 142 183 242 298 359 430
#
# _framework density 22.710626000000001
#
# number of rings (size 3 to 8) (size 9 to 14) (size 15 to 20)
#    0.000    1.200    2.000    3.000    5.600    8.800 
#    0.000    0.000    0.000    0.000    0.000    0.000 
#    0.000    0.000    0.000    0.000    0.000    0.000 
#
# Total GULP energy -111602.646457 kJ/mol
# GULP energy per Si atom -5580.132323 kJ/mol
# Density = 2.265894 g / cm^3
# Si number density = 22.710626 Si / 1000 Ang^3
#
#
#
# Elastic Constant Matrix: (Units=GPa)
#
#
# Indices 1 2 3 4 5 6 
#
# 1 77.9440 0.5185 3.6107 -0.0523 9.7686 0.0751
# 2 0.5185 62.2871 26.3625 -0.0468 8.9411 0.0942
# 3 3.6107 26.3625 110.4970 -0.0249 -2.3470 0.0171
# 4 -0.0523 -0.0468 -0.0249 26.5359 -0.0008 0.4307
# 5 9.7686 8.9411 -2.3470 -0.0008 27.1541 -0.0078
# 6 0.0751 0.0942 0.0171 0.4307 -0.0078 40.8879
#
#
#
# Elastic Compliance Matrix: (Units=1/GPa)
#
#
# Indices 1 2 3 4 5 6 
#
# 1 0.013518 0.000974 -0.000786 0.000028 -0.005252 -0.000028
# 2 0.000974 0.019057 -0.004728 0.000032 -0.007034 -0.000045
# 3 -0.000786 -0.004728 0.010262 0.000000 0.002726 0.000009
# 4 0.000028 0.000032 0.000000 0.037691 -0.000019 -0.000397
# 5 -0.005252 -0.007034 0.002726 -0.000019 0.041268 0.000033
# 6 -0.000028 -0.000045 0.000009 -0.000397 0.000033 0.024461
#
#
# Mechanical properties :
#
#
# Convention : Reuss Voigt Hill
#
# Bulk Modulus (GPa) = 29.62302 34.63462 32.12882
# Shear Modulus (GPa) = 30.01391 33.59802 31.80597
#
# Velocity S-wave (km/s) = 3.63930 3.85047 3.74637
# Velocity P-wave (km/s) = 5.54358 5.92044 5.73511
#
# Compressibility (1/GPa) = 0.03375753
#
# Stress axis : x y z
#
# Youngs Moduli (GPa) = 73.97625 52.47285 97.45067
#
# Poissons Ratio (x) = -0.05110 0.07656
# Poissons Ratio (y) = -0.07204 0.46074
# Poissons Ratio (z) = 0.05812 0.24809
#
# Static dielectric constant tensor:
#      x y z
#    x 1.915580 0.000000 0.001120 
#    y 0.000000 1.866210 0.000010 
#    z 0.001120 0.000010 1.921040 
# 
# From -- ./inp_files/109729.got.cif
#   From: 2010.05.17/outbox.cif.g08.bks.cpg/sg15_55_cif.got.tgz:109729.got - 2010.06.03 18:47:42.
