data_PCOD9284181
_publ_section_title
;
Structure prediction by ZEFSAII (Michael W. Deem and Ramdas Pophale) SiO2 
 PCOD9284181
Probable space group: C 2/C
;
_chemical_formula_sum "Si O2"
_cell_formula_units_Z 48
_cell_length_a 19.748950
_cell_length_b 12.083310
_cell_length_c 10.523638
_cell_angle_alpha 90.000000
_cell_angle_beta 129.938989
_cell_angle_gamma 90.000000
_cell_volume 1925.472949
_symmetry_space_group_name_H-M "C 2/C"
_symmetry_group_IT_number 15
_symmetry_cell_setting 'monoclinic'
loop_
_space_group_symop_operation_xyz
x,y,z
-x,y,1/2-z
-x,-y,-z
x,-y,1/2+z
1/2+x,1/2+y,z
1/2-x,1/2+y,1/2-z
1/2-x,1/2-y,-z
1/2+x,1/2-y,1/2+z
loop_
_atom_site_type_symbol
_atom_site_label
_atom_site_fract_x
_atom_site_fract_y
_atom_site_fract_z
Si Si1 0.609650 0.251488 0.146110
Si Si2 0.947467 0.042621 0.063948
Si Si3 0.289148 0.866923 0.401174
Si Si4 0.419755 0.308507 0.019563
Si Si5 0.908627 0.434131 0.087489
Si Si6 0.672437 0.786924 0.315446
O O1 0.702508 0.291186 0.320138
O O2 0.521102 0.275296 0.120230
O O3 0.605196 0.350570 0.037800
O O4 0.599187 0.134130 0.057147
O O5 0.000000 0.077108 0.250000
O O6 0.902205 0.928791 0.053798
O O7 0.000000 0.000000 0.000000
O O8 0.371383 0.788634 0.533723
O O9 0.297155 0.872935 0.256567
O O10 0.321896 0.985794 0.490973
O O11 0.371220 0.308261 0.822873
O O12 0.900050 0.341797 0.185088
O O13 0.000000 0.490909 0.250000
O O14 0.750000 0.750000 0.500000
#
# Coordination Sequence:
#
# PCOD9284181 Si02
#       6
#     8   8   8   8   8   8
#     4  11  22  40  70  95 137 185 238 281 367 427
#     4  10  23  40  68 101 138 184 239 296 355 427
#     4  10  25  39  66 104 134 172 235 300 339 432
#     4   9  22  44  63 101 133 182 237 294 356 430
#     4  12  22  41  71  95 135 185 232 286 366 430
#     4  10  21  40  67  94 133 179 234 285 347 433
#
# _framework density 24.928940999999998
#
# number of rings (size 3 to 8) (size 9 to 14) (size 15 to 20)
#    1.000    0.667    3.333    0.500    7.000    3.333 
#    3.000    1.667    0.000    6.000    0.000    0.000 
#    0.000    0.000    0.000    0.000    0.000    0.000 
#
# Total GULP energy -133615.513328 kJ/mol
# GULP energy per Si atom -5567.313055 kJ/mol
# Density = 2.487220 g / cm^3
# Si number density = 24.928941 Si / 1000 Ang^3
#
#
#
# Elastic Constant Matrix: (Units=GPa)
#
#
# Indices 1 2 3 4 5 6 
#
# 1 66.2193 20.7318 29.4521 0.0000 18.9183 0.0000
# 2 20.7318 89.3381 23.6110 0.0000 16.7717 0.0000
# 3 29.4521 23.6110 147.7744 0.0000 29.4411 0.0000
# 4 0.0000 0.0000 0.0000 52.8070 0.0000 12.3919
# 5 18.9183 16.7717 29.4411 0.0000 44.8906 0.0000
# 6 0.0000 0.0000 0.0000 12.3919 0.0000 1.8324
#
#
#
# Elastic Compliance Matrix: (Units=1/GPa)
#
#
# Indices 1 2 3 4 5 6 
#
# 1 0.018441 -0.002702 -0.002181 0.000000 -0.005331 0.000000
# 2 -0.002702 0.012616 -0.000880 0.000000 -0.002998 0.000000
# 3 -0.002181 -0.000880 0.008160 0.000000 -0.004104 0.000000
# 4 0.000000 0.000000 0.000000 -0.032262 0.000000 0.218181
# 5 -0.005331 -0.002998 -0.004104 0.000000 0.028334 0.000000
# 6 0.000000 0.000000 0.000000 0.218181 0.000000 -0.929761
#
#
# Mechanical properties :
#
#
# Convention : Reuss Voigt Hill
#
# Bulk Modulus (GPa) = 36.11459 50.10240 43.10849
# Shear Modulus (GPa) = -5.72268 35.20847 14.74289
#
# Velocity S-wave (km/s) = -1.51677 3.76221 2.43450
# Velocity P-wave (km/s) = 3.38394 6.24612 5.02320
#
# Compressibility (1/GPa) = 0.02768964
#
# Stress axis : x y z
#
# Youngs Moduli (GPa) = 54.22820 79.26592 122.54919
#
# Poissons Ratio (x) = 0.21417 0.26733
# Poissons Ratio (y) = 0.14652 0.10784
# Poissons Ratio (z) = 0.11829 0.06975
#
# Static dielectric constant tensor:
#      x y z
#    x 2.086540 0.000000 0.012130 
#    y 0.000000 1.988800 0.000000 
#    z 0.012130 0.000000 2.104380 
# 
# From -- ./inp_files/117723.got.cif
#   From: 2010.05.17/outbox.cif.g08.bks.cpg/sg15_59_cif.got.tgz:117723.got - 2010.06.03 18:47:42.
