data_PCOD9284658
_publ_section_title
;
Structure prediction by ZEFSAII (Michael W. Deem and Ramdas Pophale) SiO2 
 PCOD9284658
Probable space group: C 2/C
;
_chemical_formula_sum "Si O2"
_cell_formula_units_Z 32
_cell_length_a 18.714081
_cell_length_b 6.871327
_cell_length_c 12.910374
_cell_angle_alpha 90.000000
_cell_angle_beta 113.610427
_cell_angle_gamma 90.000000
_cell_volume 1521.180761
_symmetry_space_group_name_H-M "C 2/C"
_symmetry_group_IT_number 15
_symmetry_cell_setting 'monoclinic'
loop_
_space_group_symop_operation_xyz
x,y,z
-x,y,1/2-z
-x,-y,-z
x,-y,1/2+z
1/2+x,1/2+y,z
1/2-x,1/2+y,1/2-z
1/2-x,1/2-y,-z
1/2+x,1/2-y,1/2+z
loop_
_atom_site_type_symbol
_atom_site_label
_atom_site_fract_x
_atom_site_fract_y
_atom_site_fract_z
Si Si1 0.119378 0.464835 0.144152
Si Si2 0.520513 0.276711 0.998702
Si Si3 0.251800 0.049269 0.937914
Si Si4 0.371160 0.770073 0.129314
O O1 0.205527 0.436115 0.148363
O O2 0.113302 0.375113 0.253698
O O3 0.059386 0.343560 0.037319
O O4 0.085787 0.683952 0.112955
O O5 0.555843 0.248061 0.904482
O O6 0.500000 0.500000 0.000000
O O7 0.169308 0.940527 0.880239
O O8 0.250000 0.250000 0.000000
O O9 0.308770 0.905782 0.034250
#
# Coordination Sequence:
#
# PCOD9284658 Si02
#       4
#     8   8   8   8
#     4  10  22  38  62  90 123 160 208 264 310 378
#     4  10  21  41  63  88 124 165 211 262 315 377
#     4  10  22  38  59  88 124 162 204 254 313 377
#     4  10  22  39  59  91 124 157 213 258 305 384
#
# _framework density 21.036290999999999
#
# number of rings (size 3 to 8) (size 9 to 14) (size 15 to 20)
#    0.000    2.000    0.000    2.250    3.500    2.000 
#    0.000    7.500    0.000    0.000    0.000    0.000 
#    0.000    0.000    0.000    0.000    0.000    0.000 
#
# Total GULP energy -89351.877714 kJ/mol
# GULP energy per Si atom -5584.492357 kJ/mol
# Density = 2.098841 g / cm^3
# Si number density = 21.036291 Si / 1000 Ang^3
#
#
#
# Elastic Constant Matrix: (Units=GPa)
#
#
# Indices 1 2 3 4 5 6 
#
# 1 102.0199 40.8511 18.8869 0.0000 -14.2194 0.0000
# 2 40.8511 138.1013 18.9045 0.0000 -19.0185 0.0000
# 3 18.8869 18.9045 66.5057 0.0000 -27.5649 0.0000
# 4 0.0000 0.0000 0.0000 22.2186 0.0000 4.0881
# 5 -14.2194 -19.0185 -27.5649 0.0000 24.2913 0.0000
# 6 0.0000 0.0000 0.0000 4.0881 0.0000 37.9866
#
#
#
# Elastic Compliance Matrix: (Units=1/GPa)
#
#
# Indices 1 2 3 4 5 6 
#
# 1 0.011601 -0.002822 -0.001121 0.000000 0.003309 0.000000
# 2 -0.002822 0.008816 0.000890 0.000000 0.006261 0.000000
# 3 -0.001121 0.000890 0.028543 0.000000 0.032431 0.000000
# 4 0.000000 0.000000 0.000000 0.045916 0.000000 -0.004941
# 5 0.003309 0.006261 0.032431 0.000000 0.084808 0.000000
# 6 0.000000 0.000000 0.000000 -0.004941 0.000000 0.026857
#
#
# Mechanical properties :
#
#
# Convention : Reuss Voigt Hill
#
# Bulk Modulus (GPa) = 23.33429 51.54577 37.44003
# Shear Modulus (GPa) = 22.03304 32.09826 27.06565
#
# Velocity S-wave (km/s) = 3.23984 3.91045 3.59084
# Velocity P-wave (km/s) = 5.01118 6.70413 5.91850
#
# Compressibility (1/GPa) = 0.04285538
#
# Stress axis : x y z
#
# Youngs Moduli (GPa) = 86.20015 113.42661 35.03447
#
# Poissons Ratio (x) = 0.32014 0.03926
# Poissons Ratio (y) = 0.24330 -0.03120
# Poissons Ratio (z) = 0.09659 -0.10100
#
# Static dielectric constant tensor:
#      x y z
#    x 1.757080 0.000000 0.002760 
#    y 0.000000 1.778830 0.000000 
#    z 0.002760 0.000000 1.752370 
# 
# From -- ./inp_files/165158.got.cif
#   From: 2010.05.17/outbox.cif.g08.bks.cpg/sg15_83_cif.got.tgz:165158.got - 2010.06.03 18:47:42.
