data_PCOD9284789
_publ_section_title
;
Structure prediction by ZEFSAII (Michael W. Deem and Ramdas Pophale) SiO2 
 PCOD9284789
Probable space group: C 2/C
;
_chemical_formula_sum "Si O2"
_cell_formula_units_Z 40
_cell_length_a 8.319302
_cell_length_b 17.075397
_cell_length_c 18.429360
_cell_angle_alpha 90.000000
_cell_angle_beta 46.289360
_cell_angle_gamma 90.000000
_cell_volume 1892.384710
_symmetry_space_group_name_H-M "C 2/C"
_symmetry_group_IT_number 15
_symmetry_cell_setting 'monoclinic'
loop_
_space_group_symop_operation_xyz
x,y,z
-x,y,1/2-z
-x,-y,-z
x,-y,1/2+z
1/2+x,1/2+y,z
1/2-x,1/2+y,1/2-z
1/2-x,1/2-y,-z
1/2+x,1/2-y,1/2+z
loop_
_atom_site_type_symbol
_atom_site_label
_atom_site_fract_x
_atom_site_fract_y
_atom_site_fract_z
Si Si1 0.080130 0.597182 0.306038
Si Si2 0.922739 0.215918 0.538123
Si Si3 0.569527 0.656194 0.123432
Si Si4 0.262064 0.850686 0.028488
Si Si5 0.269863 0.505323 0.858323
O O1 0.315059 0.643353 0.227622
O O2 0.115162 0.516236 0.338798
O O3 0.000000 0.584533 0.250000
O O4 0.901309 0.642063 0.410438
O O5 0.697641 0.267122 0.613417
O O6 0.914004 0.163549 0.468725
O O7 0.011716 0.168923 0.580561
O O8 0.117583 0.280931 0.466169
O O9 0.690306 0.577690 0.113826
O O10 0.290616 0.928795 0.065805
O O11 0.500000 0.530494 0.750000
#
# Coordination Sequence:
#
# PCOD9284789 Si02
#       5
#     8   8   8   8   8
#     4  11  21  40  66  96 129 181 221 266 332 398
#     4  10  22  39  63  99 125 167 218 270 338 384
#     4  10  21  41  64  92 132 169 220 267 329 398
#     4  11  22  42  67  96 129 172 224 272 329 393
#     4  10  23  43  64  94 129 178 221 274 322 393
#
# _framework density 21.137350999999999
#
# number of rings (size 3 to 8) (size 9 to 14) (size 15 to 20)
#    0.000    1.600    4.000    0.600    0.000    0.800 
#    7.200    0.000    0.000    0.000    0.000    0.000 
#    0.000    0.000    0.000    0.000    0.000    0.000 
#
# Total GULP energy -111651.547752 kJ/mol
# GULP energy per Si atom -5582.577388 kJ/mol
# Density = 2.108924 g / cm^3
# Si number density = 21.137351 Si / 1000 Ang^3
#
#
#
# Elastic Constant Matrix: (Units=GPa)
#
#
# Indices 1 2 3 4 5 6 
#
# 1 138.0667 44.4762 45.7710 0.0001 13.1608 -0.0001
# 2 44.4762 81.6469 53.6494 0.0000 12.0718 0.0000
# 3 45.7710 53.6494 96.0205 -0.0001 10.3995 -0.0002
# 4 0.0001 0.0000 -0.0001 24.1818 -0.0001 5.7736
# 5 13.1608 12.0718 10.3995 -0.0001 31.4429 0.0002
# 6 -0.0001 0.0000 -0.0002 5.7736 0.0002 11.3628
#
#
#
# Elastic Compliance Matrix: (Units=1/GPa)
#
#
# Indices 1 2 3 4 5 6 
#
# 1 0.009246 -0.003158 -0.002443 0.000000 -0.001850 0.000000
# 2 -0.003158 0.020929 -0.009812 0.000000 -0.003468 0.000000
# 3 -0.002443 -0.009812 0.017157 0.000000 -0.000885 0.000000
# 4 0.000000 0.000000 0.000000 0.047063 0.000000 -0.023913
# 5 -0.001850 -0.003468 -0.000885 0.000000 0.034202 -0.000001
# 6 0.000000 0.000000 0.000000 -0.023913 -0.000001 0.100157
#
#
# Mechanical properties :
#
#
# Convention : Reuss Voigt Hill
#
# Bulk Modulus (GPa) = 60.58563 67.05856 63.82210
# Shear Modulus (GPa) = 18.86204 24.85334 21.85769
#
# Velocity S-wave (km/s) = 2.99047 3.43272 3.21920
# Velocity P-wave (km/s) = 6.37565 6.89242 6.63907
#
# Compressibility (1/GPa) = 0.01650556
#
# Stress axis : x y z
#
# Youngs Moduli (GPa) = 108.15072 47.78136 58.28519
#
# Poissons Ratio (x) = 0.15091 0.14236
# Poissons Ratio (y) = 0.34158 0.57191
# Poissons Ratio (z) = 0.26416 0.46885
#
# Static dielectric constant tensor:
#      x y z
#    x 1.826710 0.000000 -0.040020 
#    y 0.000000 1.750630 0.000000 
#    z -0.040020 0.000000 1.785660 
# 
# From -- ./inp_files/133268.got.cif
#   From: 2010.05.17/outbox.cif.g08.bks.cpg/sg15_67_cif.got.tgz:133268.got - 2010.06.03 18:47:42.
