data_PCOD9284537
_publ_section_title
;
Structure prediction by ZEFSAII (Michael W. Deem and Ramdas Pophale) SiO2 
 PCOD9284537
Probable space group: C 2/C
;
_chemical_formula_sum "Si O2"
_cell_formula_units_Z 52
_cell_length_a 16.966183
_cell_length_b 14.836694
_cell_length_c 15.111076
_cell_angle_alpha 90.000000
_cell_angle_beta 43.639334
_cell_angle_gamma 90.000000
_cell_volume 2625.059230
_symmetry_space_group_name_H-M "C 2/C"
_symmetry_group_IT_number 15
_symmetry_cell_setting 'monoclinic'
loop_
_space_group_symop_operation_xyz
x,y,z
-x,y,1/2-z
-x,-y,-z
x,-y,1/2+z
1/2+x,1/2+y,z
1/2-x,1/2+y,1/2-z
1/2-x,1/2-y,-z
1/2+x,1/2-y,1/2+z
loop_
_atom_site_type_symbol
_atom_site_label
_atom_site_fract_x
_atom_site_fract_y
_atom_site_fract_z
Si Si1 0.765494 0.147167 0.460258
Si Si2 0.991100 0.429933 0.926532
Si Si3 0.500000 0.444235 0.750000
Si Si4 0.102214 0.983283 0.348352
Si Si5 0.795119 0.340616 0.182476
Si Si6 0.591508 0.084480 0.732984
Si Si7 0.224820 0.355351 0.784981
O O1 0.750000 0.250000 0.500000
O O2 0.696569 0.079528 0.580177
O O3 0.723924 0.143790 0.392654
O O4 0.895781 0.118418 0.363456
O O5 0.025686 0.494162 0.817089
O O6 0.096495 0.362548 0.853875
O O7 0.000000 0.500000 0.000000
O O8 0.869861 0.380467 0.039820
O O9 0.449661 0.498691 0.707210
O O10 0.172186 0.889684 0.289851
O O11 0.200016 0.056142 0.295256
O O12 0.000000 0.000000 0.500000
O O13 0.864565 0.367361 0.214773
O O14 0.781154 0.233662 0.198623
O O15 0.500000 0.140555 0.750000
#
# Coordination Sequence:
#
# PCOD9284537 Si02
#       7
#     8   8   4   8   8   8   8
#     4  11  22  36  58  97 135 158 208 271 338 401
#     4  10  21  41  61  88 125 172 223 249 319 392
#     4  10  26  38  62  94 130 176 214 266 332 394
#     4  11  24  43  64  92 133 178 219 268 339 402
#     4  11  23  41  63  96 130 171 219 271 331 399
#     4  11  22  37  66  90 127 171 215 272 325 391
#     4  11  23  39  66  95 129 170 214 275 330 399
#
# _framework density 19.809078
#
# number of rings (size 3 to 8) (size 9 to 14) (size 15 to 20)
#    0.000    1.231    4.615    2.769    5.385    1.231 
#    0.000    0.000    1.692    1.846    0.000    0.000 
#    0.000    0.000    0.000    0.000    0.000    0.000 
#
# Total GULP energy -145010.457493 kJ/mol
# GULP energy per Si atom -5577.325288 kJ/mol
# Density = 1.976399 g / cm^3
# Si number density = 19.809078 Si / 1000 Ang^3
#
#
#
# Elastic Constant Matrix: (Units=GPa)
#
#
# Indices 1 2 3 4 5 6 
#
# 1 69.7606 -1.3829 6.7093 0.0000 -10.0082 0.0000
# 2 -1.3829 57.8195 13.7573 0.0000 7.0303 0.0000
# 3 6.7093 13.7573 120.3998 0.0000 -9.4549 0.0000
# 4 0.0000 0.0000 0.0000 31.7526 0.0000 -4.5488
# 5 -10.0082 7.0303 -9.4549 0.0000 23.2419 0.0000
# 6 0.0000 0.0000 0.0000 -4.5488 0.0000 6.3534
#
#
#
# Elastic Compliance Matrix: (Units=1/GPa)
#
#
# Indices 1 2 3 4 5 6 
#
# 1 0.015300 -0.000364 -0.000294 0.000000 0.006578 0.000000
# 2 -0.000364 0.018762 -0.002667 0.000000 -0.006917 0.000000
# 3 -0.000294 -0.002667 0.008967 0.000000 0.004328 0.000000
# 4 0.000000 0.000000 0.000000 0.035093 0.000000 0.025125
# 5 0.006578 -0.006917 0.004328 0.000000 0.049711 0.000000
# 6 0.000000 0.000000 0.000000 0.025125 0.000000 0.175385
#
#
# Mechanical properties :
#
#
# Convention : Reuss Voigt Hill
#
# Bulk Modulus (GPa) = 27.48893 31.79413 29.64153
# Shear Modulus (GPa) = 15.52826 27.52933 21.52880
#
# Velocity S-wave (km/s) = 2.80285 3.73196 3.30026
# Velocity P-wave (km/s) = 4.93778 5.88686 5.43309
#
# Compressibility (1/GPa) = 0.03637828
#
# Stress axis : x y z
#
# Youngs Moduli (GPa) = 65.36114 53.29917 111.52485
#
# Poissons Ratio (x) = 0.01940 0.03283
# Poissons Ratio (y) = 0.02378 0.29740
# Poissons Ratio (z) = 0.01924 0.14213
#
# Static dielectric constant tensor:
#      x y z
#    x 1.748690 0.000000 -0.010340 
#    y 0.000000 1.654660 0.000000 
#    z -0.010340 0.000000 1.747740 
# 
# From -- ./inp_files/162466.got.cif
#   From: 2010.05.17/outbox.cif.g08.bks.cpg/sg15_82_cif.got.tgz:162466.got - 2010.06.03 18:47:42.
