data_PCOD9284669
_publ_section_title
;
Structure prediction by ZEFSAII (Michael W. Deem and Ramdas Pophale) SiO2 
 PCOD9284669
Probable space group: C 2/C
;
_chemical_formula_sum "Si O2"
_cell_formula_units_Z 48
_cell_length_a 12.935042
_cell_length_b 20.948933
_cell_length_c 9.098481
_cell_angle_alpha 90.000000
_cell_angle_beta 69.277507
_cell_angle_gamma 90.000000
_cell_volume 2305.961165
_symmetry_space_group_name_H-M "C 2/C"
_symmetry_group_IT_number 15
_symmetry_cell_setting 'monoclinic'
loop_
_space_group_symop_operation_xyz
x,y,z
-x,y,1/2-z
-x,-y,-z
x,-y,1/2+z
1/2+x,1/2+y,z
1/2-x,1/2+y,1/2-z
1/2-x,1/2-y,-z
1/2+x,1/2-y,1/2+z
loop_
_atom_site_type_symbol
_atom_site_label
_atom_site_fract_x
_atom_site_fract_y
_atom_site_fract_z
Si Si1 0.745396 0.997831 0.440833
Si Si2 0.214290 0.360845 0.842806
Si Si3 0.931441 0.844437 0.911736
Si Si4 0.396251 0.538886 0.616139
Si Si5 0.998436 0.296880 0.080981
Si Si6 0.885432 0.622533 0.403112
O O1 0.854984 0.972329 0.301151
O O2 0.653410 0.943540 0.503238
O O3 0.707365 0.063992 0.386231
O O4 0.788598 0.016840 0.579131
O O5 0.317395 0.333232 0.882160
O O6 0.207891 0.357353 0.669187
O O7 0.109991 0.322953 0.954084
O O8 0.994121 0.779640 0.918973
O O9 0.000000 0.881300 0.750000
O O10 0.915645 0.888144 0.060540
O O11 0.500000 0.500000 0.500000
O O12 0.000000 0.318384 0.250000
O O13 0.904830 0.326525 0.023464
O O14 0.000000 0.615495 0.250000
#
# Coordination Sequence:
#
# PCOD9284669 Si02
#       6
#     8   8   8   8   8   8
#     4  11  22  38  64  97 128 165 215 261 335 379
#     4  10  21  41  63  89 132 164 208 265 319 384
#     4  10  22  41  65  90 124 170 216 261 319 380
#     4  11  22  40  65  93 127 166 212 273 321 381
#     4  10  23  40  65  90 125 171 216 255 318 386
#     4  10  23  41  62  93 135 166 210 268 322 388
#
# _framework density 20.815617
#
# number of rings (size 3 to 8) (size 9 to 14) (size 15 to 20)
#    0.000    1.667    1.667    3.000    4.667    3.333 
#    0.000    8.333    0.000    0.000    0.000    0.000 
#    0.000    0.000    0.000    0.000    0.000    0.000 
#
# Total GULP energy -133877.683474 kJ/mol
# GULP energy per Si atom -5578.236811 kJ/mol
# Density = 2.076824 g / cm^3
# Si number density = 20.815617 Si / 1000 Ang^3
#
#
#
# Elastic Constant Matrix: (Units=GPa)
#
#
# Indices 1 2 3 4 5 6 
#
# 1 39.7675 19.3119 -8.4762 0.0000 21.1788 0.0000
# 2 19.3119 105.5684 30.5510 0.0000 12.6175 0.0000
# 3 -8.4762 30.5510 73.5404 0.0000 11.2138 0.0000
# 4 0.0000 0.0000 0.0000 21.5399 0.0000 -8.2452
# 5 21.1788 12.6175 11.2138 0.0000 40.0108 0.0000
# 6 0.0000 0.0000 0.0000 -8.2452 0.0000 14.3536
#
#
#
# Elastic Compliance Matrix: (Units=1/GPa)
#
#
# Indices 1 2 3 4 5 6 
#
# 1 0.045476 -0.009055 0.012785 0.000000 -0.024799 0.000000
# 2 -0.009055 0.012765 -0.006752 0.000000 0.002660 0.000000
# 3 0.012785 -0.006752 0.019413 0.000000 -0.010079 0.000000
# 4 0.000000 0.000000 0.000000 0.059511 0.000000 0.034186
# 5 -0.024799 0.002660 -0.010079 0.000000 0.040106 0.000000
# 6 0.000000 0.000000 0.000000 0.034186 0.000000 0.089306
#
#
# Mechanical properties :
#
#
# Convention : Reuss Voigt Hill
#
# Bulk Modulus (GPa) = 13.96468 33.51662 23.74065
# Shear Modulus (GPa) = 16.86382 27.01349 21.93865
#
# Velocity S-wave (km/s) = 2.84941 3.60634 3.24998
# Velocity P-wave (km/s) = 4.18913 5.78598 5.05106
#
# Compressibility (1/GPa) = 0.07160924
#
# Stress axis : x y z
#
# Youngs Moduli (GPa) = 21.98985 78.33855 51.51058
#
# Poissons Ratio (x) = 0.70934 -0.65854
# Poissons Ratio (y) = 0.19911 0.34781
# Poissons Ratio (z) = -0.28113 0.52896
#
# Static dielectric constant tensor:
#      x y z
#    x 1.832400 0.000000 -0.034550 
#    y 0.000000 1.734140 0.000000 
#    z -0.034550 0.000000 1.883320 
# 
# From -- ./inp_files/40675.got.cif
#   From: 2010.05.17/outbox.cif.g08.bks.cpg/sg15_21_cif.got.tgz:40675.got - 2010.06.03 18:47:42.
