data_PCOD9284334
_publ_section_title
;
Structure prediction by ZEFSAII (Michael W. Deem and Ramdas Pophale) SiO2 
 PCOD9284334
Probable space group: C 2/C
;
_chemical_formula_sum "Si O2"
_cell_formula_units_Z 44
_cell_length_a 24.651023
_cell_length_b 6.393021
_cell_length_c 11.540049
_cell_angle_alpha 90.000000
_cell_angle_beta 100.247221
_cell_angle_gamma 90.000000
_cell_volume 1789.639677
_symmetry_space_group_name_H-M "C 2/C"
_symmetry_group_IT_number 15
_symmetry_cell_setting 'monoclinic'
loop_
_space_group_symop_operation_xyz
x,y,z
-x,y,1/2-z
-x,-y,-z
x,-y,1/2+z
1/2+x,1/2+y,z
1/2-x,1/2+y,1/2-z
1/2-x,1/2-y,-z
1/2+x,1/2-y,1/2+z
loop_
_atom_site_type_symbol
_atom_site_label
_atom_site_fract_x
_atom_site_fract_y
_atom_site_fract_z
Si Si1 0.097223 0.319270 0.353346
Si Si2 0.300385 0.275979 0.743465
Si Si3 0.373833 0.538155 0.473174
Si Si4 0.214953 0.135614 0.892213
Si Si5 0.469326 0.824314 0.562129
Si Si6 0.000000 0.003567 0.250000
O O1 0.149790 0.361545 0.289977
O O2 0.065435 0.532416 0.363187
O O3 0.115155 0.199810 0.480584
O O4 0.053231 0.150273 0.287394
O O5 0.333402 0.423769 0.848897
O O6 0.245289 0.205444 0.786553
O O7 0.278900 0.389137 0.620318
O O8 0.346211 0.643716 0.578897
O O9 0.427663 0.678828 0.473902
O O10 0.250000 0.250000 0.000000
O O11 0.505647 0.655545 0.644329
O O12 0.500000 0.000000 0.500000
#
# Coordination Sequence:
#
# PCOD9284334 Si02
#       6
#     8   8   8   8   8   4
#     4  10  23  41  63  95 129 172 220 264 332 390
#     4  10  21  40  69  88 131 174 202 274 330 378
#     4   9  22  42  60  97 134 164 223 270 320 394
#     4   9  20  42  62  96 126 164 219 265 326 393
#     4  11  25  40  66  96 127 174 220 272 318 395
#     4  10  24  42  64  92 134 166 220 264 324 388
#
# _framework density 24.585954999999998
#
# number of rings (size 3 to 8) (size 9 to 14) (size 15 to 20)
#    0.000    2.182    0.000    0.545   10.182    1.455 
#    6.545    2.727    0.000    0.000    0.000    0.000 
#    0.000    0.000    0.000    0.000    0.000    0.000 
#
# Total GULP energy -122559.287270 kJ/mol
# GULP energy per Si atom -5570.876694 kJ/mol
# Density = 2.453000 g / cm^3
# Si number density = 24.585955 Si / 1000 Ang^3
#
#
#
# Elastic Constant Matrix: (Units=GPa)
#
#
# Indices 1 2 3 4 5 6 
#
# 1 73.3076 34.1423 33.7405 0.0000 -23.8160 0.0000
# 2 34.1423 79.3805 34.7373 0.0000 2.2452 0.0000
# 3 33.7405 34.7373 63.0691 0.0000 -8.7813 0.0000
# 4 0.0000 0.0000 0.0000 37.5774 0.0000 -9.1242
# 5 -23.8160 2.2452 -8.7813 0.0000 48.6776 0.0000
# 6 0.0000 0.0000 0.0000 -9.1242 0.0000 44.1958
#
#
#
# Elastic Compliance Matrix: (Units=1/GPa)
#
#
# Indices 1 2 3 4 5 6 
#
# 1 0.023907 -0.007437 -0.007198 0.000000 0.010741 0.000000
# 2 -0.007437 0.019208 -0.007417 0.000000 -0.005862 0.000000
# 3 -0.007198 -0.007417 0.023951 0.000000 0.001141 0.000000
# 4 0.000000 0.000000 0.000000 0.028016 0.000000 0.005784
# 5 0.010741 -0.005862 0.001141 0.000000 0.026275 0.000000
# 6 0.000000 0.000000 0.000000 0.005784 0.000000 0.023821
#
#
# Mechanical properties :
#
#
# Convention : Reuss Voigt Hill
#
# Bulk Modulus (GPa) = 43.55100 46.77749 45.16425
# Shear Modulus (GPa) = 25.38905 33.63264 29.51084
#
# Velocity S-wave (km/s) = 3.21700 3.70261 3.46831
# Velocity P-wave (km/s) = 5.61703 6.11118 5.86930
#
# Compressibility (1/GPa) = 0.02296159
#
# Stress axis : x y z
#
# Youngs Moduli (GPa) = 41.82807 52.06259 41.75249
#
# Poissons Ratio (x) = 0.38716 0.30055
# Poissons Ratio (y) = 0.31106 0.30968
# Poissons Ratio (z) = 0.30110 0.38615
#
# Static dielectric constant tensor:
#      x y z
#    x 2.068600 0.000000 -0.044050 
#    y 0.000000 1.966460 0.000000 
#    z -0.044050 0.000000 2.032830 
# 
# From -- ./inp_files/125037.got.cif
#   From: 2010.05.17/outbox.cif.g08.bks.cpg/sg15_63_cif.got.tgz:125037.got - 2010.06.03 18:47:42.
