data_PCOD9284301
_publ_section_title
;
Structure prediction by ZEFSAII (Michael W. Deem and Ramdas Pophale) SiO2 
 PCOD9284301
Probable space group: C 2/C
;
_chemical_formula_sum "Si O2"
_cell_formula_units_Z 60
_cell_length_a 16.829291
_cell_length_b 11.296305
_cell_length_c 13.985777
_cell_angle_alpha 90.000000
_cell_angle_beta 69.015734
_cell_angle_gamma 90.000000
_cell_volume 2482.483258
_symmetry_space_group_name_H-M "C 2/C"
_symmetry_group_IT_number 15
_symmetry_cell_setting 'monoclinic'
loop_
_space_group_symop_operation_xyz
x,y,z
-x,y,1/2-z
-x,-y,-z
x,-y,1/2+z
1/2+x,1/2+y,z
1/2-x,1/2+y,1/2-z
1/2-x,1/2-y,-z
1/2+x,1/2-y,1/2+z
loop_
_atom_site_type_symbol
_atom_site_label
_atom_site_fract_x
_atom_site_fract_y
_atom_site_fract_z
Si Si1 0.000000 0.775829 0.750000
Si Si2 0.652112 0.376529 0.609851
Si Si3 0.999617 0.872146 0.137903
Si Si4 0.916168 0.356360 0.590515
Si Si5 0.267945 0.321487 0.108330
Si Si6 0.568560 0.117284 0.883387
Si Si7 0.170216 0.012140 0.306371
Si Si8 0.827666 0.794887 0.534419
O O1 0.948652 0.860759 0.844638
O O2 0.942883 0.695724 0.705812
O O3 0.695122 0.405512 0.491412
O O4 0.684035 0.241460 0.610493
O O5 0.673673 0.449269 0.694894
O O6 0.000000 0.892237 0.250000
O O7 0.964312 0.740044 0.133596
O O8 0.095765 0.864674 0.055106
O O9 0.925212 0.959713 0.129739
O O10 0.831009 0.288705 0.597828
O O11 0.904914 0.482358 0.644983
O O12 0.974753 0.381135 0.472865
O O13 0.267590 0.402070 0.201040
O O14 0.629186 0.180857 0.934032
O O15 0.194402 0.120192 0.365749
O O16 0.750000 0.750000 0.500000
#
# Coordination Sequence:
#
# PCOD9284301 Si02
#       8
#     4   8   8   8   8   8   8   8
#     4  12  22  40  70 100 138 180 246 284 354 452
#     4  11  25  43  70 104 139 186 238 298 363 441
#     4  10  24  43  69 102 143 194 247 302 369 445
#     4   9  20  42  65  94 138 180 233 290 365 426
#     4  10  24  47  68 102 143 183 238 304 369 430
#     4  10  21  40  68  98 135 186 233 294 357 440
#     4  11  25  45  72 102 141 192 244 302 372 448
#     4  11  25  44  69 105 149 190 247 310 372 440
#
# _framework density 24.169346999999998
#
# number of rings (size 3 to 8) (size 9 to 14) (size 15 to 20)
#    0.000    1.600    2.667    0.400    3.733    5.333 
#    2.400    0.000    0.000    0.000    0.000    0.000 
#    0.000    0.000    0.000    0.000    0.000    0.000 
#
# Total GULP energy -167711.221780 kJ/mol
# GULP energy per Si atom -5590.374059 kJ/mol
# Density = 2.411434 g / cm^3
# Si number density = 24.169347 Si / 1000 Ang^3
#
#
#
# Elastic Constant Matrix: (Units=GPa)
#
#
# Indices 1 2 3 4 5 6 
#
# 1 83.8180 22.1163 17.4529 0.0000 16.9664 0.0000
# 2 22.1163 100.2754 21.8421 0.0000 11.6067 0.0000
# 3 17.4529 21.8421 83.5110 0.0000 7.1104 0.0000
# 4 0.0000 0.0000 0.0000 37.7828 0.0000 8.1239
# 5 16.9664 11.6067 7.1104 0.0000 39.6770 0.0000
# 6 0.0000 0.0000 0.0000 8.1239 0.0000 39.9249
#
#
#
# Elastic Compliance Matrix: (Units=1/GPa)
#
#
# Indices 1 2 3 4 5 6 
#
# 1 0.013888 -0.002064 -0.001938 0.000000 -0.004988 0.000000
# 2 -0.002064 0.011161 -0.002320 0.000000 -0.001967 0.000000
# 3 -0.001938 -0.002320 0.013057 0.000000 -0.000832 0.000000
# 4 0.000000 0.000000 0.000000 0.027678 0.000000 -0.005632
# 5 -0.004988 -0.001967 -0.000832 0.000000 0.028061 0.000000
# 6 0.000000 0.000000 0.000000 -0.005632 0.000000 0.026193
#
#
# Mechanical properties :
#
#
# Convention : Reuss Voigt Hill
#
# Bulk Modulus (GPa) = 39.27397 43.38078 41.32737
# Shear Modulus (GPa) = 35.41835 37.22315 36.32075
#
# Velocity S-wave (km/s) = 3.83224 3.92866 3.88075
# Velocity P-wave (km/s) = 5.98884 6.21022 6.10053
#
# Compressibility (1/GPa) = 0.02546216
#
# Stress axis : x y z
#
# Youngs Moduli (GPa) = 72.00291 89.59981 76.58574
#
# Poissons Ratio (x) = 0.18490 0.14843
# Poissons Ratio (y) = 0.14859 0.17770
# Poissons Ratio (z) = 0.13955 0.20790
#
# Static dielectric constant tensor:
#      x y z
#    x 1.988530 0.000000 -0.060950 
#    y 0.000000 1.914150 0.000000 
#    z -0.060950 0.000000 1.946160 
# 
# From -- ./inp_files/161317.got.cif
#   From: 2010.05.17/outbox.cif.g08.bks.cpg/sg15_81_cif.got.tgz:161317.got - 2010.06.03 18:47:42.
