data_PCOD9284876
_publ_section_title
;
Structure prediction by ZEFSAII (Michael W. Deem and Ramdas Pophale) SiO2 
 PCOD9284876
Probable space group: C 2/C
;
_chemical_formula_sum "Si O2"
_cell_formula_units_Z 60
_cell_length_a 19.841403
_cell_length_b 9.269100
_cell_length_c 16.562159
_cell_angle_alpha 90.000000
_cell_angle_beta 76.081391
_cell_angle_gamma 90.000000
_cell_volume 2956.544140
_symmetry_space_group_name_H-M "C 2/C"
_symmetry_group_IT_number 15
_symmetry_cell_setting 'monoclinic'
loop_
_space_group_symop_operation_xyz
x,y,z
-x,y,1/2-z
-x,-y,-z
x,-y,1/2+z
1/2+x,1/2+y,z
1/2-x,1/2+y,1/2-z
1/2-x,1/2-y,-z
1/2+x,1/2-y,1/2+z
loop_
_atom_site_type_symbol
_atom_site_label
_atom_site_fract_x
_atom_site_fract_y
_atom_site_fract_z
Si Si1 0.384012 0.469032 0.389988
Si Si2 0.369899 0.754088 0.025762
Si Si3 0.000000 0.926426 0.750000
Si Si4 0.687928 0.964877 0.218064
Si Si5 0.675706 0.781720 0.058954
Si Si6 0.939995 0.525447 0.950334
Si Si7 0.556963 0.168812 0.828983
Si Si8 0.232401 0.211102 0.666924
O O1 0.381865 0.396650 0.478570
O O2 0.459036 0.479829 0.326992
O O3 0.356158 0.630982 0.404008
O O4 0.332597 0.374032 0.350424
O O5 0.415487 0.776770 0.092566
O O6 0.291596 0.777623 0.079936
O O7 0.397914 0.876379 0.955891
O O8 0.948283 0.813518 0.721758
O O9 0.686200 0.887049 0.131992
O O10 0.611503 0.944342 0.277948
O O11 0.736626 0.878015 0.266677
O O12 0.712017 0.128649 0.200698
O O13 0.620425 0.858235 0.014803
O O14 0.750000 0.750000 0.000000
O O15 0.982708 0.591831 0.863136
O O16 0.000000 0.500000 0.000000
#
# Coordination Sequence:
#
# PCOD9284876 Si02
#       8
#     8   8   4   8   8   8   8   8
#     4  12  24  41  64  97 134 174 221 276 342 398
#     4  10  23  41  66  96 134 169 221 287 336 400
#     4  12  24  42  64  96 136 178 218 280 332 402
#     4  11  23  41  68  94 134 182 222 283 344 405
#     4  12  23  40  66  96 131 177 230 280 342 409
#     4  10  21  41  65  91 125 179 228 274 342 407
#     4  10  21  43  66  90 133 177 226 277 338 399
#     4  11  24  42  66 101 136 173 226 283 341 404
#
# _framework density 20.293963999999999
#
# number of rings (size 3 to 8) (size 9 to 14) (size 15 to 20)
#    0.000    1.067    2.667    3.600    1.867    3.733 
#    0.000    0.000    0.000    0.000    0.000    0.000 
#    0.000    0.000    0.000    0.000    0.000    0.000 
#
# Total GULP energy -167587.158633 kJ/mol
# GULP energy per Si atom -5586.238621 kJ/mol
# Density = 2.024777 g / cm^3
# Si number density = 20.293964 Si / 1000 Ang^3
#
#
#
# Elastic Constant Matrix: (Units=GPa)
#
#
# Indices 1 2 3 4 5 6 
#
# 1 94.6430 44.5051 35.8203 0.0000 -15.6222 0.0000
# 2 44.5051 115.9672 18.1954 0.0000 2.4309 0.0000
# 3 35.8203 18.1954 59.4692 0.0000 -4.0262 0.0000
# 4 0.0000 0.0000 0.0000 30.5837 0.0000 -9.4548
# 5 -15.6222 2.4309 -4.0262 0.0000 32.7830 0.0000
# 6 0.0000 0.0000 0.0000 -9.4548 0.0000 27.6958
#
#
#
# Elastic Compliance Matrix: (Units=1/GPa)
#
#
# Indices 1 2 3 4 5 6 
#
# 1 0.017683 -0.005632 -0.008399 0.000000 0.007813 0.000000
# 2 -0.005632 0.010886 -0.000176 0.000000 -0.003513 0.000000
# 3 -0.008399 -0.000176 0.021840 0.000000 -0.001307 0.000000
# 4 0.000000 0.000000 0.000000 0.036555 0.000000 0.012479
# 5 0.007813 -0.003513 -0.001307 0.000000 0.034327 0.000000
# 6 0.000000 0.000000 0.000000 0.012479 0.000000 0.040367
#
#
# Mechanical properties :
#
#
# Convention : Reuss Voigt Hill
#
# Bulk Modulus (GPa) = 45.46622 51.90230 48.68426
# Shear Modulus (GPa) = 25.32902 29.64975 27.48938
#
# Velocity S-wave (km/s) = 3.53669 3.82647 3.68443
# Velocity P-wave (km/s) = 6.25540 6.71961 6.49166
#
# Compressibility (1/GPa) = 0.02199435
#
# Stress axis : x y z
#
# Youngs Moduli (GPa) = 56.55200 91.86225 45.78821
#
# Poissons Ratio (x) = 0.51739 0.38457
# Poissons Ratio (y) = 0.31851 0.00806
# Poissons Ratio (z) = 0.47497 0.01617
#
# Static dielectric constant tensor:
#      x y z
#    x 1.768130 0.000000 0.003760 
#    y 0.000000 1.688030 0.000000 
#    z 0.003760 0.000000 1.747480 
# 
# From -- ./inp_files/213839.got.cif
#   From: 2010.05.17/outbox.cif.g08.bks.cpg/sg15_107_cif.got.tgz:213839.got - 2010.06.03 18:47:42.
