data_PCOD9284083
_publ_section_title
;
Structure prediction by ZEFSAII (Michael W. Deem and Ramdas Pophale) SiO2 
 PCOD9284083
Probable space group: C 2/C
;
_chemical_formula_sum "Si O2"
_cell_formula_units_Z 40
_cell_length_a 14.298980
_cell_length_b 23.358052
_cell_length_c 8.711083
_cell_angle_alpha 90.000000
_cell_angle_beta 143.674247
_cell_angle_gamma 90.000000
_cell_volume 1723.498142
_symmetry_space_group_name_H-M "C 2/C"
_symmetry_group_IT_number 15
_symmetry_cell_setting 'monoclinic'
loop_
_space_group_symop_operation_xyz
x,y,z
-x,y,1/2-z
-x,-y,-z
x,-y,1/2+z
1/2+x,1/2+y,z
1/2-x,1/2+y,1/2-z
1/2-x,1/2-y,-z
1/2+x,1/2-y,1/2+z
loop_
_atom_site_type_symbol
_atom_site_label
_atom_site_fract_x
_atom_site_fract_y
_atom_site_fract_z
Si Si1 0.328156 0.942603 0.600439
Si Si2 0.580526 0.630967 0.621781
Si Si3 0.256322 0.558091 0.168096
Si Si4 0.563193 0.738824 0.158738
Si Si5 0.788453 0.347055 0.107416
O O1 0.500000 0.937599 0.750000
O O2 0.213868 0.889587 0.413364
O O3 0.332100 0.949018 0.787940
O O4 0.238224 0.996605 0.405087
O O5 0.426852 0.589421 0.419790
O O6 0.539810 0.698183 0.585259
O O7 0.660400 0.629809 0.558435
O O8 0.164072 0.599088 0.928334
O O9 0.500000 0.740908 0.250000
O O10 0.714495 0.697531 0.385493
O O11 0.593367 0.803921 0.150093
#
# Coordination Sequence:
#
# PCOD9284083 Si02
#       5
#     8   8   8   8   8
#     4  12  26  42  62  95 134 170 216 272 330 385
#     4  10  21  40  66  95 127 171 219 266 320 389
#     4  11  23  41  65  93 129 173 217 265 327 394
#     4   8  16  32  60  93 123 161 211 261 311 375
#     4   9  18  35  63  95 124 159 213 266 313 374
#
# _framework density 23.208611999999999
#
# number of rings (size 3 to 8) (size 9 to 14) (size 15 to 20)
#    0.000    2.000    0.000    4.800    0.000    4.000 
#    0.000    0.000    0.000   45.600    0.000    0.000 
#    0.000    0.000    0.000    0.000    0.000    0.000 
#
# Total GULP energy -111583.968202 kJ/mol
# GULP energy per Si atom -5579.198410 kJ/mol
# Density = 2.315579 g / cm^3
# Si number density = 23.208612 Si / 1000 Ang^3
#
#
#
# Elastic Constant Matrix: (Units=GPa)
#
#
# Indices 1 2 3 4 5 6 
#
# 1 127.6812 43.4705 26.1464 0.0000 -1.4530 0.0000
# 2 43.4705 82.5986 29.0082 0.0000 1.4339 0.0000
# 3 26.1464 29.0082 43.2672 0.0000 9.4367 0.0000
# 4 0.0000 0.0000 0.0000 30.1625 0.0000 2.8722
# 5 -1.4530 1.4339 9.4367 0.0000 34.0270 0.0000
# 6 0.0000 0.0000 0.0000 2.8722 0.0000 18.4349
#
#
#
# Elastic Compliance Matrix: (Units=1/GPa)
#
#
# Indices 1 2 3 4 5 6 
#
# 1 0.009961 -0.003966 -0.003714 0.000000 0.001623 0.000000
# 2 -0.003966 0.017604 -0.009800 0.000000 0.001807 0.000000
# 3 -0.003714 -0.009800 0.033924 0.000000 -0.009154 0.000000
# 4 0.000000 0.000000 0.000000 0.033653 0.000000 -0.005243
# 5 0.001623 0.001807 -0.009154 0.000000 0.031920 0.000000
# 6 0.000000 0.000000 0.000000 -0.005243 0.000000 0.055062
#
#
# Mechanical properties :
#
#
# Convention : Reuss Voigt Hill
#
# Bulk Modulus (GPa) = 37.69587 50.08859 43.89223
# Shear Modulus (GPa) = 22.13083 26.85300 24.49192
#
# Velocity S-wave (km/s) = 3.09133 3.40520 3.25205
# Velocity P-wave (km/s) = 5.38695 6.09010 5.74928
#
# Compressibility (1/GPa) = 0.02652811
#
# Stress axis : x y z
#
# Youngs Moduli (GPa) = 100.38676 56.80372 29.47791
#
# Poissons Ratio (x) = 0.22530 0.10950
# Poissons Ratio (y) = 0.39816 0.28888
# Poissons Ratio (z) = 0.37289 0.55668
#
# Static dielectric constant tensor:
#      x y z
#    x 1.590850 0.000000 -0.239760 
#    y 0.000000 1.926650 0.000000 
#    z -0.239760 0.000000 1.602940 
# 
# From -- ./inp_files/42407.got.cif
#   From: 2010.05.17/outbox.cif.g08.bks.cpg/sg15_22_cif.got.tgz:42407.got - 2010.06.03 18:47:42.
