data_PCOD9285784
_publ_section_title
;
Structure prediction by ZEFSAII (Michael W. Deem and Ramdas Pophale) SiO2 
 PCOD9285784
Probable space group: C 2/C
;
_chemical_formula_sum "Si O2"
_cell_formula_units_Z 52
_cell_length_a 22.740393
_cell_length_b 5.719472
_cell_length_c 26.964224
_cell_angle_alpha 90.000000
_cell_angle_beta 135.272243
_cell_angle_gamma 90.000000
_cell_volume 2468.047024
_symmetry_space_group_name_H-M "C 2/C"
_symmetry_group_IT_number 15
_symmetry_cell_setting 'monoclinic'
loop_
_space_group_symop_operation_xyz
x,y,z
-x,y,1/2-z
-x,-y,-z
x,-y,1/2+z
1/2+x,1/2+y,z
1/2-x,1/2+y,1/2-z
1/2-x,1/2-y,-z
1/2+x,1/2-y,1/2+z
loop_
_atom_site_type_symbol
_atom_site_label
_atom_site_fract_x
_atom_site_fract_y
_atom_site_fract_z
Si Si1 0.542256 0.382880 0.186874
Si Si2 0.373090 0.904792 0.683622
Si Si3 0.634268 0.410816 0.468161
Si Si4 0.225878 0.974119 0.431696
Si Si5 0.795467 0.147178 0.898800
Si Si6 0.701979 0.370003 0.212509
Si Si7 0.500000 0.269401 0.750000
O O1 0.458720 0.360620 0.105027
O O2 0.622704 0.412516 0.200422
O O3 0.529287 0.584855 0.219902
O O4 0.564407 0.164998 0.235246
O O5 0.284271 0.976584 0.652034
O O6 0.419754 0.117340 0.685750
O O7 0.349011 0.692537 0.633509
O O8 0.693179 0.182339 0.506526
O O9 0.684322 0.568037 0.457500
O O10 0.638550 0.534659 0.523963
O O11 0.256203 0.134161 0.404809
O O12 0.824735 0.178321 0.860500
O O13 0.752200 0.621374 0.245429
#
# Coordination Sequence:
#
# PCOD9285784 Si02
#       7
#     8   8   8   8   8   8   4
#     4  12  25  43  67 105 143 180 239 305 361 428
#     4  11  21  39  65  95 134 178 234 295 349 432
#     4  10  23  39  64 101 144 180 231 293 367 426
#     4  10  21  42  66  98 141 186 231 292 360 434
#     4  11  23  42  69  95 135 189 239 283 361 431
#     4  12  27  50  77 106 141 195 252 303 359 431
#     4  12  24  38  68 104 138 176 236 300 368 418
#
# _framework density 21.069291
#
# number of rings (size 3 to 8) (size 9 to 14) (size 15 to 20)
#    0.000    0.923    1.538    6.462    2.154    4.308 
#    0.000    0.769    0.000    0.000    0.000    0.000 
#    0.000    0.000    0.000    0.000    0.000    0.000 
#
# Total GULP energy -145152.798128 kJ/mol
# GULP energy per Si atom -5582.799928 kJ/mol
# Density = 2.102134 g / cm^3
# Si number density = 21.069291 Si / 1000 Ang^3
#
#
#
# Elastic Constant Matrix: (Units=GPa)
#
#
# Indices 1 2 3 4 5 6 
#
# 1 146.1683 36.5460 58.6433 -0.0020 -16.9391 -0.0036
# 2 36.5460 72.4469 53.4123 -0.0023 -2.1890 0.0040
# 3 58.6433 53.4123 161.4844 0.0012 0.8234 -0.0011
# 4 -0.0020 -0.0023 0.0012 25.7966 0.0013 -9.7238
# 5 -16.9391 -2.1890 0.8234 0.0013 42.8505 0.0000
# 6 -0.0036 0.0040 -0.0011 -9.7238 0.0000 4.4462
#
#
#
# Elastic Compliance Matrix: (Units=1/GPa)
#
#
# Indices 1 2 3 4 5 6 
#
# 1 0.008837 -0.002614 -0.002362 0.000021 0.003405 0.000055
# 2 -0.002614 0.019075 -0.005360 -0.000034 0.000044 -0.000094
# 3 -0.002362 -0.005360 0.008830 0.000005 -0.001377 0.000016
# 4 0.000021 -0.000034 0.000005 0.220698 -0.000001 0.482660
# 5 0.003405 0.000044 -0.001377 -0.000001 0.024712 0.000001
# 6 0.000055 -0.000094 0.000016 0.482660 0.000001 1.280473
#
#
# Mechanical properties :
#
#
# Convention : Reuss Voigt Hill
#
# Bulk Modulus (GPa) = 62.22586 75.25586 68.74086
# Shear Modulus (GPa) = 3.14732 30.05188 16.59960
#
# Velocity S-wave (km/s) = 1.22353 3.78078 2.80992
# Velocity P-wave (km/s) = 5.62086 7.40641 6.57453
#
# Compressibility (1/GPa) = 0.01607049
#
# Stress axis : x y z
#
# Youngs Moduli (GPa) = 113.15773 52.42489 113.24575
#
# Poissons Ratio (x) = 0.13701 0.26750
# Poissons Ratio (y) = 0.29574 0.60703
# Poissons Ratio (z) = 0.26730 0.28101
#
# Static dielectric constant tensor:
#      x y z
#    x 1.742500 0.000000 -0.021960 
#    y 0.000000 1.888590 0.000000 
#    z -0.021960 0.000000 1.777980 
# 
# From -- ./inp_files/300154.got.cif
#   From: 2010.05.17/outbox.cif.g08.bks.cpg/sg15_151_cif.got.tgz:300154.got - 2010.06.03 18:47:42.
