data_PCOD9285984
_publ_section_title
;
Structure prediction by ZEFSAII (Michael W. Deem and Ramdas Pophale) SiO2 
 PCOD9285984
Probable space group: C 2/C
;
_chemical_formula_sum "Si O2"
_cell_formula_units_Z 40
_cell_length_a 26.558938
_cell_length_b 5.296762
_cell_length_c 10.723259
_cell_angle_alpha 90.000000
_cell_angle_beta 84.511033
_cell_angle_gamma 90.000000
_cell_volume 1501.592125
_symmetry_space_group_name_H-M "C 2/C"
_symmetry_group_IT_number 15
_symmetry_cell_setting 'monoclinic'
loop_
_space_group_symop_operation_xyz
x,y,z
-x,y,1/2-z
-x,-y,-z
x,-y,1/2+z
1/2+x,1/2+y,z
1/2-x,1/2+y,1/2-z
1/2-x,1/2-y,-z
1/2+x,1/2-y,1/2+z
loop_
_atom_site_type_symbol
_atom_site_label
_atom_site_fract_x
_atom_site_fract_y
_atom_site_fract_z
Si Si1 0.147478 0.919581 0.102609
Si Si2 0.287954 0.689512 0.601446
Si Si3 0.185089 0.579059 0.733158
Si Si4 0.440990 0.526624 0.048760
Si Si5 0.533980 0.025425 0.365503
O O1 0.162396 0.153657 0.191284
O O2 0.163792 0.648011 0.150286
O O3 0.176215 0.979449 0.965490
O O4 0.089832 0.935492 0.070564
O O5 0.250000 0.750000 0.500000
O O6 0.246672 0.597508 0.710568
O O7 0.319405 0.935041 0.633749
O O8 0.430844 0.267586 0.123596
O O9 0.435055 0.766591 0.139335
O O10 0.500000 0.500000 0.000000
O O11 0.500000 0.045208 0.250000
O O12 0.500000 0.000000 0.500000
#
# Coordination Sequence:
#
# PCOD9285984 Si02
#       5
#     8   8   8   8   8
#     4  11  24  43  65 100 133 172 231 267 334 403
#     4  10  22  42  67  94 132 171 215 273 337 408
#     4  11  23  41  67  98 131 173 216 279 338 397
#     4  10  22  44  67  96 135 179 226 282 335 399
#     4  10  21  42  69  95 130 179 233 279 341 398
#
# _framework density 26.638393000000001
#
# number of rings (size 3 to 8) (size 9 to 14) (size 15 to 20)
#    0.000    1.600    0.000    4.800    0.000    4.800 
#   21.600    0.000    0.000    0.000    0.000    0.000 
#    0.000    0.000    0.000    0.000    0.000    0.000 
#
# Total GULP energy -111850.480090 kJ/mol
# GULP energy per Si atom -5592.524005 kJ/mol
# Density = 2.657776 g / cm^3
# Si number density = 26.638393 Si / 1000 Ang^3
#
#
#
# Elastic Constant Matrix: (Units=GPa)
#
#
# Indices 1 2 3 4 5 6 
#
# 1 121.4052 16.9931 12.8894 0.0000 28.7562 0.0000
# 2 16.9931 247.9036 39.0657 0.0000 39.1781 0.0000
# 3 12.8894 39.0657 107.8767 0.0000 39.0244 0.0000
# 4 0.0000 0.0000 0.0000 54.8490 0.0000 24.1285
# 5 28.7562 39.1781 39.0244 0.0000 51.9123 0.0000
# 6 0.0000 0.0000 0.0000 24.1285 0.0000 25.9967
#
#
#
# Elastic Compliance Matrix: (Units=1/GPa)
#
#
# Indices 1 2 3 4 5 6 
#
# 1 0.009574 0.000161 0.001044 0.000000 -0.006210 0.000000
# 2 0.000161 0.004608 -0.000546 0.000000 -0.003156 0.000000
# 3 0.001044 -0.000546 0.012915 0.000000 -0.009875 0.000000
# 4 0.000000 0.000000 0.000000 0.030812 0.000000 -0.028598
# 5 -0.006210 -0.003156 -0.009875 0.000000 0.032508 0.000000
# 6 0.000000 0.000000 0.000000 -0.028598 0.000000 0.065009
#
#
# Mechanical properties :
#
#
# Convention : Reuss Voigt Hill
#
# Bulk Modulus (GPa) = 35.19326 68.34243 51.76784
# Shear Modulus (GPa) = 30.56580 53.76739 42.16660
#
# Velocity S-wave (km/s) = 3.39105 4.49755 3.98292
# Velocity P-wave (km/s) = 5.34532 7.25823 6.37395
#
# Compressibility (1/GPa) = 0.02841453
#
# Stress axis : x y z
#
# Youngs Moduli (GPa) = 104.44503 217.03218 77.42819
#
# Poissons Ratio (x) = -0.03484 -0.08086
# Poissons Ratio (y) = -0.01677 0.04229
# Poissons Ratio (z) = -0.10907 0.11854
#
# Static dielectric constant tensor:
#      x y z
#    x 1.958930 0.000000 0.055290 
#    y 0.000000 2.236830 0.000000 
#    z 0.055290 0.000000 1.980550 
# 
# From -- ./inp_files/124809.got.cif
#   From: 2010.05.17/outbox.cif.g08.bks.cpg/sg15_63_cif.got.tgz:124809.got - 2010.06.03 18:47:42.
