data_PCOD9285202
_publ_section_title
;
Structure prediction by ZEFSAII (Michael W. Deem and Ramdas Pophale) SiO2 
 PCOD9285202
Probable space group: C 2/C
;
_chemical_formula_sum "Si O2"
_cell_formula_units_Z 56
_cell_length_a 19.374556
_cell_length_b 18.378350
_cell_length_c 10.373977
_cell_angle_alpha 90.000000
_cell_angle_beta 57.625797
_cell_angle_gamma 90.000000
_cell_volume 3119.742443
_symmetry_space_group_name_H-M "C 2/C"
_symmetry_group_IT_number 15
_symmetry_cell_setting 'monoclinic'
loop_
_space_group_symop_operation_xyz
x,y,z
-x,y,1/2-z
-x,-y,-z
x,-y,1/2+z
1/2+x,1/2+y,z
1/2-x,1/2+y,1/2-z
1/2-x,1/2-y,-z
1/2+x,1/2-y,1/2+z
loop_
_atom_site_type_symbol
_atom_site_label
_atom_site_fract_x
_atom_site_fract_y
_atom_site_fract_z
Si Si1 0.336662 0.660773 0.644473
Si Si2 0.401908 0.394995 0.348089
Si Si3 0.000000 0.569268 0.595455
Si Si4 0.846643 0.324626 0.250051
Si Si5 0.346641 0.175372 0.056663
Si Si6 0.836663 0.839228 0.682196
Si Si7 0.597687 0.436320 0.652317
O O1 0.368126 0.641960 0.753759
O O2 0.238270 0.657649 0.735430
O O3 0.365949 0.741472 0.574782
O O4 0.370166 0.604315 0.506186
O O5 0.500000 0.391560 0.250000
O O6 0.368123 0.358037 0.509982
O O7 0.376989 0.479684 0.373009
O O8 0.079894 0.619565 0.491279
O O9 0.000000 0.550268 0.750000
O O10 0.000000 0.500000 0.500000
O O11 0.920108 0.619567 0.651065
O O12 0.829889 0.326041 0.420110
O O13 0.865950 0.241471 0.193318
O O14 0.261728 0.157648 0.211970
O O15 0.870171 0.895689 0.753464
O O16 0.500000 0.433298 0.750000
#
# Coordination Sequence:
#
# PCOD9285202 Si02
#       7
#     8   8   8   8   8   8   8
#     4  11  21  41  65  90 125 164 210 256 309 364
#     4  11  26  39  54  99 135 158 199 254 312 374
#     4  10  24  44  64  96 127 163 210 260 315 373
#     4  10  21  41  68  94 117 160 222 256 295 376
#     4  10  21  41  68  94 117 160 222 256 295 376
#     4  11  21  41  65  90 125 164 210 256 309 364
#     4  11  22  37  64  89 121 170 207 244 306 372
#
# _framework density 17.950199999999999
#
# number of rings (size 3 to 8) (size 9 to 14) (size 15 to 20)
#    0.000    1.429    2.857    2.571    4.000    6.857 
#    5.143    0.000    0.000    0.000    0.000    0.000 
#    0.000    0.000    0.000    0.000    0.000    0.000 
#
# Total GULP energy -156432.866575 kJ/mol
# GULP energy per Si atom -5586.888092 kJ/mol
# Density = 1.790934 g / cm^3
# Si number density = 17.950200 Si / 1000 Ang^3
#
#
#
# Elastic Constant Matrix: (Units=GPa)
#
#
# Indices 1 2 3 4 5 6 
#
# 1 101.8342 70.5566 47.9100 0.0000 19.0290 0.0000
# 2 70.5566 110.3196 61.2449 0.0000 -5.6419 0.0000
# 3 47.9100 61.2449 137.7584 0.0000 2.6903 0.0000
# 4 0.0000 0.0000 0.0000 -751.6803 0.0000 -373.2181
# 5 19.0290 -5.6419 2.6903 0.0000 32.7933 0.0000
# 6 0.0000 0.0000 0.0000 -373.2181 0.0000 -134.3668
#
#
#
# Elastic Compliance Matrix: (Units=1/GPa)
#
#
# Indices 1 2 3 4 5 6 
#
# 1 0.024552 -0.015945 -0.001120 0.000000 -0.016898 0.000000
# 2 -0.015945 0.022601 -0.004767 0.000000 0.013532 0.000000
# 3 -0.001120 -0.004767 0.009787 0.000000 -0.000973 0.000000
# 4 0.000000 0.000000 0.000000 0.003509 0.000000 -0.009747
# 5 -0.016898 0.013532 -0.000973 0.000000 0.042708 0.000000
# 6 0.000000 0.000000 0.000000 -0.009747 0.000000 0.019631
#
#
# Mechanical properties :
#
#
# Convention : Reuss Voigt Hill
#
# Bulk Modulus (GPa) = 75.32275 78.81502 77.06888
# Shear Modulus (GPa) = 29.26093 -159.30405 -65.02156
#
# Velocity S-wave (km/s) = 4.04185 -9.43082 -6.02511
# Velocity P-wave (km/s) = 7.98970 8.63622 2.31831
#
# Compressibility (1/GPa) = 0.01327620
#
# Stress axis : x y z
#
# Youngs Moduli (GPa) = 40.72961 44.24602 102.17874
#
# Poissons Ratio (x) = 0.70551 0.11443
# Poissons Ratio (y) = 0.64944 0.48706
# Poissons Ratio (z) = 0.04561 0.21091
#
# Static dielectric constant tensor:
#      x y z
#    x 1.602870 0.000000 -0.013730 
#    y 0.000000 1.604200 0.000000 
#    z -0.013730 0.000000 1.580190 
# 
# From -- ./inp_files/49004.got.cif
#   From: 2010.05.17/outbox.cif.g08.bks.cpg/sg15_25_cif.got.tgz:49004.got - 2010.06.03 18:47:42.
