data_PCOD9285859
_publ_section_title
;
Structure prediction by ZEFSAII (Michael W. Deem and Ramdas Pophale) SiO2 
 PCOD9285859
Probable space group: C 2/C
;
_chemical_formula_sum "Si O2"
_cell_formula_units_Z 48
_cell_length_a 11.350637
_cell_length_b 7.413111
_cell_length_c 24.929511
_cell_angle_alpha 90.000000
_cell_angle_beta 71.745785
_cell_angle_gamma 90.000000
_cell_volume 1992.094790
_symmetry_space_group_name_H-M "C 2/C"
_symmetry_group_IT_number 15
_symmetry_cell_setting 'monoclinic'
loop_
_space_group_symop_operation_xyz
x,y,z
-x,y,1/2-z
-x,-y,-z
x,-y,1/2+z
1/2+x,1/2+y,z
1/2-x,1/2+y,1/2-z
1/2-x,1/2-y,-z
1/2+x,1/2-y,1/2+z
loop_
_atom_site_type_symbol
_atom_site_label
_atom_site_fract_x
_atom_site_fract_y
_atom_site_fract_z
Si Si1 0.159936 0.697892 0.962436
Si Si2 0.719256 0.710281 0.858044
Si Si3 0.781619 0.202434 0.162511
Si Si4 0.909847 0.253957 0.723357
Si Si5 0.020128 0.864720 0.686061
Si Si6 0.875878 0.274140 0.517343
O O1 0.231677 0.739768 0.896872
O O2 0.132028 0.486532 0.969832
O O3 0.250000 0.750000 0.000000
O O4 0.017491 0.776251 0.980155
O O5 0.747798 0.512543 0.830155
O O6 0.643995 0.823954 0.824349
O O7 0.645736 0.677427 0.922778
O O8 0.843605 0.817836 0.851748
O O9 0.702396 0.294257 0.220794
O O10 0.923376 0.223477 0.159755
O O11 0.000000 0.363039 0.750000
O O12 0.986159 0.076687 0.694075
O O13 0.000000 0.800918 0.750000
O O14 0.750000 0.250000 0.500000
#
# Coordination Sequence:
#
# PCOD9285859 Si02
#       6
#     8   8   8   8   8   8
#     4  11  27  46  72 104 139 182 238 287 346 414
#     4  11  24  43  73 100 137 183 228 283 344 407
#     4  11  24  43  69 103 137 179 231 283 340 411
#     4  10  24  41  65 103 138 179 223 274 343 408
#     4  10  21  42  67  98 139 178 222 274 340 408
#     4  11  26  48  72 102 140 184 234 290 345 412
#
# _framework density 24.095237000000001
#
# number of rings (size 3 to 8) (size 9 to 14) (size 15 to 20)
#    0.000    1.333    1.667    2.000    7.000    6.000 
#    0.000    0.000    0.000    0.000    0.000    0.000 
#    0.000    0.000    0.000    0.000    0.000    0.000 
#
# Total GULP energy -134040.221022 kJ/mol
# GULP energy per Si atom -5585.009209 kJ/mol
# Density = 2.404039 g / cm^3
# Si number density = 24.095237 Si / 1000 Ang^3
#
#
#
# Elastic Constant Matrix: (Units=GPa)
#
#
# Indices 1 2 3 4 5 6 
#
# 1 166.8332 3.4012 48.0706 0.0000 12.7305 0.0000
# 2 3.4012 71.0968 -8.5651 0.0000 -12.0079 0.0000
# 3 48.0706 -8.5651 124.4356 0.0000 9.7393 0.0000
# 4 0.0000 0.0000 0.0000 27.3833 0.0000 -5.3078
# 5 12.7305 -12.0079 9.7393 0.0000 49.9426 0.0000
# 6 0.0000 0.0000 0.0000 -5.3078 0.0000 10.2774
#
#
#
# Elastic Compliance Matrix: (Units=1/GPa)
#
#
# Indices 1 2 3 4 5 6 
#
# 1 0.006873 -0.000889 -0.002602 0.000000 -0.001458 0.000000
# 2 -0.000889 0.014844 0.001084 0.000000 0.003584 0.000000
# 3 -0.002602 0.001084 0.009184 0.000000 -0.000867 0.000000
# 4 0.000000 0.000000 0.000000 0.040581 0.000000 0.020958
# 5 -0.001458 0.003584 -0.000867 0.000000 0.021425 0.000000
# 6 0.000000 0.000000 0.000000 0.020958 0.000000 0.108124
#
#
# Mechanical properties :
#
#
# Convention : Reuss Voigt Hill
#
# Bulk Modulus (GPa) = 38.33119 49.79768 44.06443
# Shear Modulus (GPa) = 23.30561 38.81791 31.06176
#
# Velocity S-wave (km/s) = 3.11340 4.01811 3.59433
# Velocity P-wave (km/s) = 5.37281 6.49914 5.96263
#
# Compressibility (1/GPa) = 0.02608842
#
# Stress axis : x y z
#
# Youngs Moduli (GPa) = 145.49295 67.36817 108.88449
#
# Poissons Ratio (x) = 0.05986 0.28334
# Poissons Ratio (y) = 0.12928 -0.11808
# Poissons Ratio (z) = 0.37860 -0.07306
#
# Static dielectric constant tensor:
#      x y z
#    x 2.026620 0.000000 -0.023350 
#    y 0.000000 2.018720 0.000000 
#    z -0.023350 0.000000 1.975710 
# 
# From -- ./inp_files/268031.got.cif
#   From: 2010.05.17/outbox.cif.g08.bks.cpg/sg15_135_cif.got.tgz:268031.got - 2010.06.03 18:47:42.
