data_PCOD9285035
_publ_section_title
;
Structure prediction by ZEFSAII (Michael W. Deem and Ramdas Pophale) SiO2 
 PCOD9285035
Probable space group: C 2/C
;
_chemical_formula_sum "Si O2"
_cell_formula_units_Z 60
_cell_length_a 26.661286
_cell_length_b 20.488770
_cell_length_c 15.311668
_cell_angle_alpha 90.000000
_cell_angle_beta 160.647962
_cell_angle_gamma 90.000000
_cell_volume 2771.625646
_symmetry_space_group_name_H-M "C 2/C"
_symmetry_group_IT_number 15
_symmetry_cell_setting 'monoclinic'
loop_
_space_group_symop_operation_xyz
x,y,z
-x,y,1/2-z
-x,-y,-z
x,-y,1/2+z
1/2+x,1/2+y,z
1/2-x,1/2+y,1/2-z
1/2-x,1/2-y,-z
1/2+x,1/2-y,1/2+z
loop_
_atom_site_type_symbol
_atom_site_label
_atom_site_fract_x
_atom_site_fract_y
_atom_site_fract_z
Si Si1 0.149961 0.963966 0.552521
Si Si2 0.312639 0.911034 0.282215
Si Si3 0.838042 0.163272 0.110173
Si Si4 0.500000 0.142137 0.250000
Si Si5 0.534846 0.576720 0.045159
Si Si6 0.545117 0.206041 0.725895
Si Si7 0.086236 0.398456 0.618654
Si Si8 0.243901 0.823286 0.450379
O O1 0.301349 0.941029 0.753183
O O2 0.133218 0.928038 0.617831
O O3 0.181365 0.041570 0.601403
O O4 0.000000 0.949424 0.250000
O O5 0.419424 0.897829 0.540419
O O6 0.432147 0.931052 0.401669
O O7 0.236469 0.849707 0.106733
O O8 0.967541 0.216958 0.311853
O O9 0.889378 0.096779 0.239058
O O10 0.718942 0.189730 0.986947
O O11 0.640033 0.181055 0.439582
O O12 0.407347 0.633998 0.821224
O O13 0.500000 0.500000 0.000000
O O14 0.500000 0.190051 0.750000
O O15 0.455548 0.163044 0.510121
O O16 0.177618 0.370312 0.850054
O O17 0.250000 0.750000 0.500000
#
# Coordination Sequence:
#
# PCOD9285035 Si02
#       8
#     8   8   8   4   8   8   8   8
#     4  12  23  41  67  99 135 179 231 288 355 405
#     4  10  23  44  67  96 136 181 231 277 351 431
#     4  10  23  41  66  97 133 177 220 286 335 413
#     4  10  24  46  68  96 132 188 232 278 358 432
#     4  12  25  42  65  99 143 174 232 289 351 415
#     4  10  21  41  66  96 131 173 230 273 339 410
#     4  10  22  42  64  95 135 176 225 283 347 415
#     4  11  24  43  67  97 135 180 233 289 352 426
#
# _framework density 21.647943999999999
#
# number of rings (size 3 to 8) (size 9 to 14) (size 15 to 20)
#    0.000    1.333    1.333    3.600    0.000    5.867 
#    8.400    0.000    0.000    0.000    0.000    0.000 
#    0.000    0.000    0.000    0.000    0.000    0.000 
#
# Total GULP energy -167152.653435 kJ/mol
# GULP energy per Si atom -5571.755114 kJ/mol
# Density = 2.159867 g / cm^3
# Si number density = 21.647944 Si / 1000 Ang^3
#
#
#
# Elastic Constant Matrix: (Units=GPa)
#
#
# Indices 1 2 3 4 5 6 
#
# 1 125.7766 22.6729 35.0317 0.0000 8.8376 0.0000
# 2 22.6729 79.0451 14.1958 0.0000 8.7271 0.0000
# 3 35.0317 14.1958 61.8262 0.0000 -4.3022 0.0000
# 4 0.0000 0.0000 0.0000 32.7265 0.0000 11.7214
# 5 8.8376 8.7271 -4.3022 0.0000 40.5048 0.0000
# 6 0.0000 0.0000 0.0000 11.7214 0.0000 63.7136
#
#
#
# Elastic Compliance Matrix: (Units=1/GPa)
#
#
# Indices 1 2 3 4 5 6 
#
# 1 0.009917 -0.001608 -0.005417 0.000000 -0.002393 0.000000
# 2 -0.001608 0.013877 -0.002477 0.000000 -0.002902 0.000000
# 3 -0.005417 -0.002477 0.020080 0.000000 0.003848 0.000000
# 4 0.000000 0.000000 0.000000 0.032712 0.000000 -0.006018
# 5 -0.002393 -0.002902 0.003848 0.000000 0.026245 0.000000
# 6 0.000000 0.000000 0.000000 -0.006018 0.000000 0.016802
#
#
# Mechanical properties :
#
#
# Convention : Reuss Voigt Hill
#
# Bulk Modulus (GPa) = 40.20673 45.60541 42.90607
# Shear Modulus (GPa) = 34.03042 40.37215 37.20128
#
# Velocity S-wave (km/s) = 3.96914 4.32318 4.14994
# Velocity P-wave (km/s) = 6.29434 6.78472 6.54413
#
# Compressibility (1/GPa) = 0.02487146
#
# Stress axis : x y z
#
# Youngs Moduli (GPa) = 100.83512 72.05910 49.80045
#
# Poissons Ratio (x) = 0.11585 0.26975
# Poissons Ratio (y) = 0.16211 0.12338
# Poissons Ratio (z) = 0.54618 0.17852
#
# Static dielectric constant tensor:
#      x y z
#    x 1.769630 0.000000 0.024400 
#    y 0.000000 1.954830 0.000000 
#    z 0.024400 0.000000 1.781790 
# 
# From -- ./inp_files/179144.got.cif
#   From: 2010.05.17/outbox.cif.g08.bks.cpg/sg15_90_cif.got.tgz:179144.got - 2010.06.03 18:47:42.
