data_PCOD9285185
_publ_section_title
;
Structure prediction by ZEFSAII (Michael W. Deem and Ramdas Pophale) SiO2 
 PCOD9285185
Probable space group: C 2/C
;
_chemical_formula_sum "Si O2"
_cell_formula_units_Z 48
_cell_length_a 19.953355
_cell_length_b 14.433825
_cell_length_c 8.586033
_cell_angle_alpha 90.000000
_cell_angle_beta 72.781347
_cell_angle_gamma 90.000000
_cell_volume 2361.979190
_symmetry_space_group_name_H-M "C 2/C"
_symmetry_group_IT_number 15
_symmetry_cell_setting 'monoclinic'
loop_
_space_group_symop_operation_xyz
x,y,z
-x,y,1/2-z
-x,-y,-z
x,-y,1/2+z
1/2+x,1/2+y,z
1/2-x,1/2+y,1/2-z
1/2-x,1/2-y,-z
1/2+x,1/2-y,1/2+z
loop_
_atom_site_type_symbol
_atom_site_label
_atom_site_fract_x
_atom_site_fract_y
_atom_site_fract_z
Si Si1 0.921513 0.368783 0.256499
Si Si2 0.043956 0.063405 0.847859
Si Si3 0.738845 0.091678 0.139436
Si Si4 0.141394 0.514956 0.955342
Si Si5 0.139005 0.047525 0.044973
Si Si6 0.799418 0.217857 0.326212
O O1 0.891999 0.437285 0.410627
O O2 0.916694 0.429491 0.102427
O O3 0.866026 0.285533 0.270820
O O4 0.000000 0.339115 0.250000
O O5 0.000000 0.123168 0.750000
O O6 0.083164 0.997554 0.699429
O O7 0.102740 0.101699 0.925029
O O8 0.000000 0.000000 0.000000
O O9 0.759909 0.191987 0.193022
O O10 0.693530 0.036772 0.300301
O O11 0.688946 0.085629 0.023045
O O12 0.808257 0.031142 0.053054
O O13 0.177685 0.118501 0.127435
O O14 0.750000 0.250000 0.500000
#
# Coordination Sequence:
#
# PCOD9285185 Si02
#       6
#     8   8   8   8   8   8
#     4  11  24  42  66  94 127 172 215 275 334 389
#     4   9  19  33  55  84 117 168 212 233 295 382
#     4  11  19  38  67  97 125 168 216 264 331 385
#     4  10  21  41  68  91 123 171 223 266 327 396
#     4  11  19  36  61  89 124 165 206 256 313 392
#     4  12  23  39  65  96 131 160 214 276 326 377
#
# _framework density 20.321937999999999
#
# number of rings (size 3 to 8) (size 9 to 14) (size 15 to 20)
#    0.000    1.333    5.000    1.500    0.000    2.667 
#    0.000    0.000    0.000    0.000    0.000    0.000 
#    0.000    0.000    0.000    0.000    0.000    0.000 
#
# Total GULP energy -133701.453039 kJ/mol
# GULP energy per Si atom -5570.893877 kJ/mol
# Density = 2.027568 g / cm^3
# Si number density = 20.321938 Si / 1000 Ang^3
#
#
#
# Elastic Constant Matrix: (Units=GPa)
#
#
# Indices 1 2 3 4 5 6 
#
# 1 96.9353 12.5677 28.7959 0.0000 11.2267 0.0000
# 2 12.5677 49.8720 12.5306 0.0000 -7.4351 0.0000
# 3 28.7959 12.5306 86.1290 0.0000 7.6690 0.0000
# 4 0.0000 0.0000 0.0000 15.2081 0.0000 14.3770
# 5 11.2267 -7.4351 7.6690 0.0000 37.5418 0.0000
# 6 0.0000 0.0000 0.0000 14.3770 0.0000 25.0595
#
#
#
# Elastic Compliance Matrix: (Units=1/GPa)
#
#
# Indices 1 2 3 4 5 6 
#
# 1 0.012058 -0.002719 -0.003327 0.000000 -0.003465 0.000000
# 2 -0.002719 0.022322 -0.002856 0.000000 0.005817 0.000000
# 3 -0.003327 -0.002856 0.013343 0.000000 -0.002296 0.000000
# 4 0.000000 0.000000 0.000000 0.143681 0.000000 -0.082431
# 5 -0.003465 0.005817 -0.002296 0.000000 0.029294 0.000000
# 6 0.000000 0.000000 0.000000 -0.082431 0.000000 0.087197
#
#
# Mechanical properties :
#
#
# Convention : Reuss Voigt Hill
#
# Bulk Modulus (GPa) = 33.42584 37.85829 35.64206
# Shear Modulus (GPa) = 14.89544 27.49804 21.19674
#
# Velocity S-wave (km/s) = 2.71028 3.68247 3.23313
# Velocity P-wave (km/s) = 5.12621 6.06222 5.61376
#
# Compressibility (1/GPa) = 0.02991697
#
# Stress axis : x y z
#
# Youngs Moduli (GPa) = 82.92939 44.79985 74.94568
#
# Poissons Ratio (x) = 0.12182 0.24938
# Poissons Ratio (y) = 0.22550 0.21407
# Poissons Ratio (z) = 0.27594 0.12796
#
# Static dielectric constant tensor:
#      x y z
#    x 1.835420 0.000000 0.099810 
#    y 0.000000 1.715860 0.000000 
#    z 0.099810 0.000000 1.705030 
# 
# From -- ./inp_files/55237.got.cif
#   From: 2010.05.17/outbox.cif.g08.bks.cpg/sg15_28_cif.got.tgz:55237.got - 2010.06.03 18:47:42.
