data_PCOD9285896
_publ_section_title
;
Structure prediction by ZEFSAII (Michael W. Deem and Ramdas Pophale) SiO2 
 PCOD9285896
Probable space group: C 2/C
;
_chemical_formula_sum "Si O2"
_cell_formula_units_Z 44
_cell_length_a 10.403512
_cell_length_b 12.742796
_cell_length_c 19.049186
_cell_angle_alpha 90.000000
_cell_angle_beta 60.767621
_cell_angle_gamma 90.000000
_cell_volume 2203.734884
_symmetry_space_group_name_H-M "C 2/C"
_symmetry_group_IT_number 15
_symmetry_cell_setting 'monoclinic'
loop_
_space_group_symop_operation_xyz
x,y,z
-x,y,1/2-z
-x,-y,-z
x,-y,1/2+z
1/2+x,1/2+y,z
1/2-x,1/2+y,1/2-z
1/2-x,1/2-y,-z
1/2+x,1/2-y,1/2+z
loop_
_atom_site_type_symbol
_atom_site_label
_atom_site_fract_x
_atom_site_fract_y
_atom_site_fract_z
Si Si1 0.535515 0.050273 0.660266
Si Si2 0.206582 0.585443 0.021348
Si Si3 0.000000 0.124211 0.750000
Si Si4 0.715398 0.248043 0.592261
Si Si5 0.509854 0.707345 0.593158
Si Si6 0.770256 0.519758 0.131432
O O1 0.500000 0.031258 0.750000
O O2 0.573025 0.173541 0.639907
O O3 0.679041 0.989082 0.594393
O O4 0.404610 0.000789 0.648739
O O5 0.095034 0.683210 0.057441
O O6 0.373271 0.624146 0.968120
O O7 0.175897 0.524457 0.957684
O O8 0.016594 0.191111 0.816787
O O9 0.860723 0.050595 0.802619
O O10 0.750000 0.250000 0.500000
O O11 0.711185 0.363639 0.628972
O O12 0.856914 0.199759 0.593760
#
# Coordination Sequence:
#
# PCOD9285896 Si02
#       6
#     8   8   4   8   8   8
#     4  12  25  41  67 102 133 175 227 282 343 406
#     4  10  21  42  68  91 133 179 215 279 336 400
#     4  10  24  44  68  94 132 178 216 284 342 398
#     4  12  24  42  68  98 132 179 228 277 336 412
#     4  10  22  41  67  99 127 176 231 264 344 412
#     4  11  23  47  66  94 140 176 221 283 343 400
#
# _framework density 19.966103
#
# number of rings (size 3 to 8) (size 9 to 14) (size 15 to 20)
#    0.000    1.091    3.636    2.727    2.545    0.727 
#    3.273    0.000    0.000    0.000    0.000    0.000 
#    0.000    0.000    0.000    0.000    0.000    0.000 
#
# Total GULP energy -122822.231970 kJ/mol
# GULP energy per Si atom -5582.828726 kJ/mol
# Density = 1.992066 g / cm^3
# Si number density = 19.966103 Si / 1000 Ang^3
#
#
#
# Elastic Constant Matrix: (Units=GPa)
#
#
# Indices 1 2 3 4 5 6 
#
# 1 55.4958 8.4078 24.5299 0.0000 16.8272 0.0000
# 2 8.4078 76.7044 36.7757 0.0000 14.3747 0.0000
# 3 24.5299 36.7757 161.8251 0.0000 17.9290 0.0000
# 4 0.0000 0.0000 0.0000 46.1509 0.0000 9.5142
# 5 16.8272 14.3747 17.9290 0.0000 27.3805 0.0000
# 6 0.0000 0.0000 0.0000 9.5142 0.0000 36.6091
#
#
#
# Elastic Compliance Matrix: (Units=1/GPa)
#
#
# Indices 1 2 3 4 5 6 
#
# 1 0.022827 0.001028 -0.002242 0.000000 -0.013100 0.000000
# 2 0.001028 0.015630 -0.002942 0.000000 -0.006911 0.000000
# 3 -0.002242 -0.002942 0.007401 0.000000 -0.001924 0.000000
# 4 0.000000 0.000000 0.000000 0.022895 0.000000 -0.005950
# 5 -0.013100 -0.006911 -0.001924 0.000000 0.049461 0.000000
# 6 0.000000 0.000000 0.000000 -0.005950 0.000000 0.028862
#
#
# Mechanical properties :
#
#
# Convention : Reuss Voigt Hill
#
# Bulk Modulus (GPa) = 26.63462 48.16134 37.39798
# Shear Modulus (GPa) = 29.77889 36.98223 33.38056
#
# Velocity S-wave (km/s) = 3.86615 4.30845 4.09328
# Velocity P-wave (km/s) = 5.77047 6.99458 6.41181
#
# Compressibility (1/GPa) = 0.03754512
#
# Stress axis : x y z
#
# Youngs Moduli (GPa) = 43.80781 63.97890 135.11375
#
# Poissons Ratio (x) = -0.06577 0.30298
# Poissons Ratio (y) = -0.04503 0.39753
# Poissons Ratio (z) = 0.09823 0.18824
#
# Static dielectric constant tensor:
#      x y z
#    x 1.706910 0.000000 -0.019450 
#    y 0.000000 1.765190 0.000000 
#    z -0.019450 0.000000 1.677410 
# 
# From -- ./inp_files/196438.got.cif
#   From: 2010.05.17/outbox.cif.g08.bks.cpg/sg15_99_cif.got.tgz:196438.got - 2010.06.03 18:47:42.
