data_PCOD9285563
_publ_section_title
;
Structure prediction by ZEFSAII (Michael W. Deem and Ramdas Pophale) SiO2 
 PCOD9285563
Probable space group: C 2/C
;
_chemical_formula_sum "Si O2"
_cell_formula_units_Z 44
_cell_length_a 12.263538
_cell_length_b 14.103562
_cell_length_c 16.333213
_cell_angle_alpha 90.000000
_cell_angle_beta 132.683862
_cell_angle_gamma 90.000000
_cell_volume 2076.662577
_symmetry_space_group_name_H-M "C 2/C"
_symmetry_group_IT_number 15
_symmetry_cell_setting 'monoclinic'
loop_
_space_group_symop_operation_xyz
x,y,z
-x,y,1/2-z
-x,-y,-z
x,-y,1/2+z
1/2+x,1/2+y,z
1/2-x,1/2+y,1/2-z
1/2-x,1/2-y,-z
1/2+x,1/2-y,1/2+z
loop_
_atom_site_type_symbol
_atom_site_label
_atom_site_fract_x
_atom_site_fract_y
_atom_site_fract_z
Si Si1 0.934519 0.762065 0.517579
Si Si2 0.845650 0.638047 0.623210
Si Si3 0.052177 0.033862 0.118224
Si Si4 0.325578 0.055014 0.172369
Si Si5 0.000000 0.091795 0.750000
Si Si6 0.767222 0.265327 0.413013
O O1 0.878498 0.685091 0.553456
O O2 0.785573 0.802996 0.399632
O O3 0.999711 0.856182 0.596951
O O4 0.062714 0.718394 0.526840
O O5 0.793947 0.529091 0.591287
O O6 0.000000 0.640263 0.750000
O O7 0.232499 0.021809 0.204627
O O8 0.996788 0.971821 0.166020
O O9 0.000000 0.000000 0.000000
O O10 0.500000 0.064237 0.250000
O O11 0.267179 0.160281 0.135553
O O12 0.146343 0.158543 0.822460
O O13 0.750000 0.250000 0.500000
#
# Coordination Sequence:
#
# PCOD9285563 Si02
#       6
#     8   8   8   8   4   8
#     4  10  23  42  64  98 124 175 227 278 334 404
#     4  10  22  39  70  89 129 169 228 272 344 395
#     4  11  23  44  70  93 140 181 221 279 343 411
#     4  10  21  42  64  89 126 178 219 271 343 395
#     4  12  26  42  70 106 136 186 232 278 346 406
#     4  11  25  42  65  97 140 178 228 278 338 417
#
# _framework density 21.187840999999999
#
# number of rings (size 3 to 8) (size 9 to 14) (size 15 to 20)
#    0.000    1.455    2.727    2.182    6.364    0.000 
#    0.000    0.909    0.000    0.000    0.000    0.000 
#    0.000    0.000    0.000    0.000    0.000    0.000 
#
# Total GULP energy -122533.550744 kJ/mol
# GULP energy per Si atom -5569.706852 kJ/mol
# Density = 2.113962 g / cm^3
# Si number density = 21.187841 Si / 1000 Ang^3
#
#
#
# Elastic Constant Matrix: (Units=GPa)
#
#
# Indices 1 2 3 4 5 6 
#
# 1 159.6101 45.0047 37.4859 0.0000 28.2325 0.0000
# 2 45.0047 87.8959 8.1200 0.0000 -9.4825 0.0000
# 3 37.4859 8.1200 60.4444 0.0000 13.2696 0.0000
# 4 0.0000 0.0000 0.0000 42.4951 0.0000 13.8856
# 5 28.2325 -9.4825 13.2696 0.0000 42.2694 0.0000
# 6 0.0000 0.0000 0.0000 13.8856 0.0000 38.8925
#
#
#
# Elastic Compliance Matrix: (Units=1/GPa)
#
#
# Indices 1 2 3 4 5 6 
#
# 1 0.009880 -0.005402 -0.003960 0.000000 -0.006568 0.000000
# 2 -0.005402 0.014918 -0.000194 0.000000 0.007015 0.000000
# 3 -0.003960 -0.000194 0.019821 0.000000 -0.003621 0.000000
# 4 0.000000 0.000000 0.000000 0.026640 0.000000 -0.009511
# 5 -0.006568 0.007015 -0.003621 0.000000 0.030755 0.000000
# 6 0.000000 0.000000 0.000000 -0.009511 0.000000 0.029108
#
#
# Mechanical properties :
#
#
# Convention : Reuss Voigt Hill
#
# Bulk Modulus (GPa) = 39.20434 54.35239 46.77837
# Shear Modulus (GPa) = 31.49906 39.22072 35.35989
#
# Velocity S-wave (km/s) = 3.85990 4.30710 4.08962
# Velocity P-wave (km/s) = 6.19746 7.10234 6.66527
#
# Compressibility (1/GPa) = 0.02550738
#
# Stress axis : x y z
#
# Youngs Moduli (GPa) = 101.21395 67.03500 50.45162
#
# Poissons Ratio (x) = 0.36209 0.19978
# Poissons Ratio (y) = 0.54671 0.00980
# Poissons Ratio (z) = 0.40079 0.01302
#
# Static dielectric constant tensor:
#      x y z
#    x 1.761240 0.000000 0.131620 
#    y 0.000000 1.640130 0.000000 
#    z 0.131620 0.000000 1.797710 
# 
# From -- ./inp_files/86063.got.cif
#   From: 2010.05.17/outbox.cif.g08.bks.cpg/sg15_44_cif.got.tgz:86063.got - 2010.06.03 18:47:42.
