data_PCOD9285716
_publ_section_title
;
Structure prediction by ZEFSAII (Michael W. Deem and Ramdas Pophale) SiO2 
 PCOD9285716
Probable space group: C 2/C
;
_chemical_formula_sum "Si O2"
_cell_formula_units_Z 60
_cell_length_a 24.739837
_cell_length_b 9.136055
_cell_length_c 22.490721
_cell_angle_alpha 90.000000
_cell_angle_beta 35.709648
_cell_angle_gamma 90.000000
_cell_volume 2967.100139
_symmetry_space_group_name_H-M "C 2/C"
_symmetry_group_IT_number 15
_symmetry_cell_setting 'monoclinic'
loop_
_space_group_symop_operation_xyz
x,y,z
-x,y,1/2-z
-x,-y,-z
x,-y,1/2+z
1/2+x,1/2+y,z
1/2-x,1/2+y,1/2-z
1/2-x,1/2-y,-z
1/2+x,1/2-y,1/2+z
loop_
_atom_site_type_symbol
_atom_site_label
_atom_site_fract_x
_atom_site_fract_y
_atom_site_fract_z
Si Si1 0.078899 0.724498 0.788581
Si Si2 0.796271 0.412466 0.954257
Si Si3 0.000000 0.543575 0.750000
Si Si4 0.717269 0.220115 0.836394
Si Si5 0.165518 0.773709 0.380322
Si Si6 0.256844 0.442327 0.875224
Si Si7 0.476103 0.672496 0.030712
Si Si8 0.738864 0.003636 0.140227
O O1 0.016363 0.651922 0.792396
O O2 0.145914 0.856981 0.706913
O O3 0.036615 0.785657 0.887860
O O4 0.150056 0.590831 0.737925
O O5 0.749878 0.498693 0.940405
O O6 0.907299 0.442284 0.842974
O O7 0.750000 0.250000 0.000000
O O8 0.771131 0.484798 0.038818
O O9 0.753180 0.253808 0.738658
O O10 0.608572 0.257971 0.930308
O O11 0.767920 0.329001 0.836051
O O12 0.748189 0.060602 0.829924
O O13 0.180582 0.675744 0.424219
O O14 0.178460 0.935976 0.394855
O O15 0.071890 0.748687 0.429211
O O16 0.500000 0.500000 0.000000
#
# Coordination Sequence:
#
# PCOD9285716 Si02
#       8
#     8   8   4   8   8   8   8   8
#     4  10  23  43  69 101 132 179 228 275 344 408
#     4  11  23  45  68  99 135 182 229 281 359 402
#     4  10  24  46  72 100 144 176 234 296 330 428
#     4  12  22  43  63  97 141 172 220 279 337 404
#     4  11  23  39  66  96 129 177 220 273 337 406
#     4  11  23  41  69  96 133 175 227 275 340 409
#     4  12  23  39  66  99 135 176 228 275 339 399
#     4  10  21  42  66  88 136 178 210 285 336 401
#
# _framework density 20.221764
#
# number of rings (size 3 to 8) (size 9 to 14) (size 15 to 20)
#    0.000    1.067    5.333    2.400    0.000    6.400 
#    4.800    2.000    0.000    0.000    0.000    0.000 
#    0.000    0.000    0.000    0.000    0.000    0.000 
#
# Total GULP energy -167078.618430 kJ/mol
# GULP energy per Si atom -5569.287281 kJ/mol
# Density = 2.017574 g / cm^3
# Si number density = 20.221764 Si / 1000 Ang^3
#
#
#
# Elastic Constant Matrix: (Units=GPa)
#
#
# Indices 1 2 3 4 5 6 
#
# 1 80.4314 10.1855 22.2137 -0.0002 -5.8752 0.0003
# 2 10.1855 74.5974 22.0711 0.0001 -9.2377 0.0006
# 3 22.2137 22.0711 57.0978 -0.0001 -12.2631 0.0002
# 4 -0.0002 0.0001 -0.0001 31.0496 0.0000 5.4008
# 5 -5.8752 -9.2377 -12.2631 0.0000 29.5572 -0.0001
# 6 0.0003 0.0006 0.0002 5.4008 -0.0001 38.3698
#
#
#
# Elastic Compliance Matrix: (Units=1/GPa)
#
#
# Indices 1 2 3 4 5 6 
#
# 1 0.013944 -0.000302 -0.005196 0.000000 0.000522 0.000000
# 2 -0.000302 0.015317 -0.005256 0.000000 0.002546 0.000000
# 3 -0.005196 -0.005256 0.023046 0.000000 0.006886 0.000000
# 4 0.000000 0.000000 0.000000 0.033015 0.000000 -0.004647
# 5 0.000522 0.002546 0.006886 0.000000 0.037589 0.000000
# 6 0.000000 0.000000 0.000000 -0.004647 0.000000 0.026716
#
#
# Mechanical properties :
#
#
# Convention : Reuss Voigt Hill
#
# Bulk Modulus (GPa) = 32.46934 35.67413 34.07173
# Shear Modulus (GPa) = 27.56286 30.30573 28.93429
#
# Velocity S-wave (km/s) = 3.69593 3.87546 3.78676
# Velocity P-wave (km/s) = 5.85702 6.14047 6.00042
#
# Compressibility (1/GPa) = 0.03079828
#
# Stress axis : x y z
#
# Youngs Moduli (GPa) = 71.71330 65.28662 43.39103
#
# Poissons Ratio (x) = 0.01971 0.22547
# Poissons Ratio (y) = 0.02165 0.22808
# Poissons Ratio (z) = 0.37264 0.34318
#
# Static dielectric constant tensor:
#      x y z
#    x 1.774350 0.000000 -0.034250 
#    y 0.000000 1.773250 0.000000 
#    z -0.034250 0.000000 1.739960 
# 
# From -- ./inp_files/283360.got.cif
#   From: 2010.05.17/outbox.cif.g08.bks.cpg/sg15_142_cif.got.tgz:283360.got - 2010.06.03 18:47:42.
