data_PCOD9285428
_publ_section_title
;
Structure prediction by ZEFSAII (Michael W. Deem and Ramdas Pophale) SiO2 
 PCOD9285428
Probable space group: C 2/C
;
_chemical_formula_sum "Si O2"
_cell_formula_units_Z 40
_cell_length_a 7.894591
_cell_length_b 17.381944
_cell_length_c 21.397366
_cell_angle_alpha 90.000000
_cell_angle_beta 47.552759
_cell_angle_gamma 90.000000
_cell_volume 2166.632679
_symmetry_space_group_name_H-M "C 2/C"
_symmetry_group_IT_number 15
_symmetry_cell_setting 'monoclinic'
loop_
_space_group_symop_operation_xyz
x,y,z
-x,y,1/2-z
-x,-y,-z
x,-y,1/2+z
1/2+x,1/2+y,z
1/2-x,1/2+y,1/2-z
1/2-x,1/2-y,-z
1/2+x,1/2-y,1/2+z
loop_
_atom_site_type_symbol
_atom_site_label
_atom_site_fract_x
_atom_site_fract_y
_atom_site_fract_z
Si Si1 0.776449 0.332528 0.685865
Si Si2 0.290861 0.969195 0.592916
Si Si3 0.724466 0.342478 0.312794
Si Si4 0.591452 0.501868 0.907405
Si Si5 0.000000 0.915344 0.250000
Si Si6 0.500000 0.906988 0.750000
O O1 0.500000 0.337462 0.750000
O O2 0.861452 0.393774 0.613642
O O3 0.844734 0.244815 0.655108
O O4 0.861333 0.357167 0.733560
O O5 0.183725 0.029943 0.669025
O O6 0.085495 0.958887 0.594621
O O7 0.500000 0.000000 0.500000
O O8 0.615058 0.408934 0.382336
O O9 0.637064 0.364424 0.265552
O O10 0.000000 0.347508 0.250000
O O11 0.832444 0.461058 0.832577
O O12 0.500000 0.500000 0.000000
#
# Coordination Sequence:
#
# PCOD9285428 Si02
#       6
#     8   8   8   8   4   4
#     4  11  21  40  61  93 121 158 198 251 309 350
#     4  11  22  39  64  90 125 160 206 250 294 365
#     4  10  22  38  63  89 123 156 198 253 303 355
#     4  11  23  39  63  93 119 165 207 245 299 362
#     4  10  21  42  59  90 118 162 206 236 307 358
#     4  12  21  40  65  88 124 158 208 244 297 370
#
# _framework density 18.461829999999999
#
# number of rings (size 3 to 8) (size 9 to 14) (size 15 to 20)
#    0.000    1.200    4.000    3.000    2.800    0.000 
#    0.000   12.000    0.000    0.000    0.000    0.000 
#    0.000    0.000    0.000    0.000    0.000    0.000 
#
# Total GULP energy -111673.665906 kJ/mol
# GULP energy per Si atom -5583.683295 kJ/mol
# Density = 1.841981 g / cm^3
# Si number density = 18.461830 Si / 1000 Ang^3
#
#
#
# Elastic Constant Matrix: (Units=GPa)
#
#
# Indices 1 2 3 4 5 6 
#
# 1 121.5320 62.5108 43.4449 -0.0003 19.1474 -0.0004
# 2 62.5108 129.0223 53.5666 -0.0001 22.7384 -0.0001
# 3 43.4449 53.5666 113.9362 -0.0007 8.3393 0.0002
# 4 -0.0003 -0.0001 -0.0007 3.6252 0.0003 -4.9424
# 5 19.1474 22.7384 8.3393 0.0003 31.8904 0.0001
# 6 -0.0004 -0.0001 0.0002 -4.9424 0.0001 23.9696
#
#
#
# Elastic Compliance Matrix: (Units=1/GPa)
#
#
# Indices 1 2 3 4 5 6 
#
# 1 0.011708 -0.004110 -0.002275 0.000001 -0.003504 0.000000
# 2 -0.004110 0.012252 -0.003807 0.000000 -0.005272 0.000000
# 3 -0.002275 -0.003807 0.011353 0.000002 0.001112 0.000000
# 4 0.000001 0.000000 0.000002 0.383711 -0.000004 0.079119
# 5 -0.003504 -0.005272 0.001112 -0.000004 0.036930 -0.000001
# 6 0.000000 0.000000 0.000000 0.079119 -0.000001 0.058033
#
#
# Mechanical properties :
#
#
# Convention : Reuss Voigt Hill
#
# Bulk Modulus (GPa) = 66.99132 75.94832 71.46982
# Shear Modulus (GPa) = 9.27046 25.56159 17.41602
#
# Velocity S-wave (km/s) = 2.24328 3.72501 3.07474
# Velocity P-wave (km/s) = 6.56315 7.72841 7.16949
#
# Compressibility (1/GPa) = 0.01492731
#
# Stress axis : x y z
#
# Youngs Moduli (GPa) = 85.41275 81.62150 88.08305
#
# Poissons Ratio (x) = 0.33548 0.20043
# Poissons Ratio (y) = 0.35106 0.33533
# Poissons Ratio (z) = 0.19435 0.31073
#
# Static dielectric constant tensor:
#      x y z
#    x 1.666650 0.000000 -0.014650 
#    y 0.000000 1.633060 0.000000 
#    z -0.014650 0.000000 1.614440 
# 
# From -- ./inp_files/133121.got.cif
#   From: 2010.05.17/outbox.cif.g08.bks.cpg/sg15_67_cif.got.tgz:133121.got - 2010.06.03 18:47:42.
