data_PCOD9285461
_publ_section_title
;
Structure prediction by ZEFSAII (Michael W. Deem and Ramdas Pophale) SiO2 
 PCOD9285461
Probable space group: C 2/C
;
_chemical_formula_sum "Si O2"
_cell_formula_units_Z 48
_cell_length_a 7.749000
_cell_length_b 26.186436
_cell_length_c 15.113333
_cell_angle_alpha 90.000000
_cell_angle_beta 138.935959
_cell_angle_gamma 90.000000
_cell_volume 2014.572998
_symmetry_space_group_name_H-M "C 2/C"
_symmetry_group_IT_number 15
_symmetry_cell_setting 'monoclinic'
loop_
_space_group_symop_operation_xyz
x,y,z
-x,y,1/2-z
-x,-y,-z
x,-y,1/2+z
1/2+x,1/2+y,z
1/2-x,1/2+y,1/2-z
1/2-x,1/2-y,-z
1/2+x,1/2-y,1/2+z
loop_
_atom_site_type_symbol
_atom_site_label
_atom_site_fract_x
_atom_site_fract_y
_atom_site_fract_z
Si Si1 0.996223 0.143568 0.846887
Si Si2 0.111330 0.655966 0.088721
Si Si3 0.243994 0.053078 0.109290
Si Si4 0.981174 0.028071 0.843875
Si Si5 0.502356 0.269265 0.039118
Si Si6 0.498909 0.643982 0.098304
O O1 0.884564 0.086570 0.799298
O O2 0.856473 0.186304 0.850604
O O3 0.000000 0.165152 0.750000
O O4 0.309050 0.142419 0.991423
O O5 0.221706 0.634141 0.039644
O O6 0.292375 0.640507 0.240807
O O7 0.150188 0.716498 0.086474
O O8 0.500000 0.077153 0.250000
O O9 0.034037 0.098236 0.041787
O O10 0.241414 0.033335 0.007500
O O11 0.186673 0.007399 0.156230
O O12 0.000000 0.008837 0.750000
O O13 0.250000 0.250000 0.000000
O O14 0.449925 0.301365 0.929443
#
# Coordination Sequence:
#
# PCOD9285461 Si02
#       6
#     8   8   8   8   8   8
#     4  10  21  42  61  93 127 172 216 259 328 390
#     4  10  24  39  66  95 129 175 215 275 321 389
#     4  11  24  44  71  98 132 175 222 279 329 397
#     4  10  23  45  65  98 131 169 224 270 335 394
#     4  10  22  37  65  92 129 170 210 266 318 387
#     4  11  23  43  64  97 129 167 228 266 331 385
#
# _framework density 23.826387
#
# number of rings (size 3 to 8) (size 9 to 14) (size 15 to 20)
#    0.000    1.667    1.667    1.500    9.333    0.667 
#   12.000    0.000    0.000    0.000    0.000    0.000 
#    0.000    0.000    0.000    0.000    0.000    0.000 
#
# Total GULP energy -133764.267568 kJ/mol
# GULP energy per Si atom -5573.511149 kJ/mol
# Density = 2.377216 g / cm^3
# Si number density = 23.826387 Si / 1000 Ang^3
#
#
#
# Elastic Constant Matrix: (Units=GPa)
#
#
# Indices 1 2 3 4 5 6 
#
# 1 84.9358 25.9472 25.4663 0.0000 -32.2431 0.0000
# 2 25.9472 90.2053 -11.3744 0.0000 -4.7325 0.0000
# 3 25.4663 -11.3744 64.7731 0.0000 -40.9457 0.0000
# 4 0.0000 0.0000 0.0000 36.9213 0.0000 -29.6198
# 5 -32.2431 -4.7325 -40.9457 0.0000 35.8352 0.0000
# 6 0.0000 0.0000 0.0000 -29.6198 0.0000 70.4267
#
#
#
# Elastic Compliance Matrix: (Units=1/GPa)
#
#
# Indices 1 2 3 4 5 6 
#
# 1 0.021244 -0.003183 0.010464 0.000000 0.030651 0.000000
# 2 -0.003183 0.014004 0.011052 0.000000 0.011614 0.000000
# 3 0.010464 0.011052 0.072521 0.000000 0.093738 0.000000
# 4 0.000000 0.000000 0.000000 0.040876 0.000000 0.017192
# 5 0.030651 0.011614 0.093738 0.000000 0.164124 0.000000
# 6 0.000000 0.000000 0.000000 0.017192 0.000000 0.021430
#
#
# Mechanical properties :
#
#
# Convention : Reuss Voigt Hill
#
# Bulk Modulus (GPa) = 6.92349 35.55470 21.23909
# Shear Modulus (GPa) = 14.46436 41.96166 28.21301
#
# Velocity S-wave (km/s) = 2.46656 4.20115 3.44482
# Velocity P-wave (km/s) = 3.32024 6.20384 4.97552
#
# Compressibility (1/GPa) = 0.14443586
#
# Stress axis : x y z
#
# Youngs Moduli (GPa) = 47.07177 71.40607 13.78918
#
# Poissons Ratio (x) = 0.22730 -0.14429
# Poissons Ratio (y) = 0.14984 -0.15240
# Poissons Ratio (z) = -0.49257 -0.78920
#
# Static dielectric constant tensor:
#      x y z
#    x 1.992930 0.000000 -0.013660 
#    y 0.000000 1.940650 0.000000 
#    z -0.013660 0.000000 1.997900 
# 
# From -- ./inp_files/139022.got.cif
#   From: 2010.05.17/outbox.cif.g08.bks.cpg/sg15_70_cif.got.tgz:139022.got - 2010.06.03 18:47:42.
