data_PCOD9285583
_publ_section_title
;
Structure prediction by ZEFSAII (Michael W. Deem and Ramdas Pophale) SiO2 
 PCOD9285583
Probable space group: C 2/C
;
_chemical_formula_sum "Si O2"
_cell_formula_units_Z 60
_cell_length_a 7.414040
_cell_length_b 12.249898
_cell_length_c 28.525855
_cell_angle_alpha 90.000000
_cell_angle_beta 98.760560
_cell_angle_gamma 90.000000
_cell_volume 2560.528208
_symmetry_space_group_name_H-M "C 2/C"
_symmetry_group_IT_number 15
_symmetry_cell_setting 'monoclinic'
loop_
_space_group_symop_operation_xyz
x,y,z
-x,y,1/2-z
-x,-y,-z
x,-y,1/2+z
1/2+x,1/2+y,z
1/2-x,1/2+y,1/2-z
1/2-x,1/2-y,-z
1/2+x,1/2-y,1/2+z
loop_
_atom_site_type_symbol
_atom_site_label
_atom_site_fract_x
_atom_site_fract_y
_atom_site_fract_z
Si Si1 0.682662 0.291901 0.065921
Si Si2 0.424079 0.483377 0.944293
Si Si3 0.908477 0.637840 0.358706
Si Si4 0.217228 0.600629 0.247499
Si Si5 0.714277 0.931705 0.092339
Si Si6 0.709679 0.259594 0.324986
Si Si7 0.950870 0.753681 0.969848
Si Si8 0.000000 0.914641 0.250000
O O1 0.719314 0.420448 0.068387
O O2 0.651221 0.243883 0.115211
O O3 0.854356 0.236839 0.048484
O O4 0.505625 0.266967 0.026422
O O5 0.587722 0.518310 0.914969
O O6 0.353304 0.359928 0.944289
O O7 0.500000 0.500000 0.000000
O O8 0.781764 0.622779 0.308104
O O9 0.891799 0.536034 0.392549
O O10 0.110212 0.661967 0.348277
O O11 0.297542 0.696985 0.283836
O O12 0.333510 0.491684 0.258849
O O13 0.000000 0.588362 0.250000
O O14 0.703225 0.841103 0.133794
O O15 0.636959 0.862169 0.045674
O O16 0.559793 0.336654 0.294393
#
# Coordination Sequence:
#
# PCOD9285583 Si02
#       8
#     8   8   8   8   8   8   8   4
#     4  10  21  42  64  92 134 180 215 279 337 390
#     4  10  22  42  63  92 133 172 226 280 326 404
#     4  11  21  42  66  94 135 171 220 279 328 410
#     4  10  24  45  67 103 136 171 232 284 340 423
#     4  12  24  41  69  98 132 176 229 279 339 412
#     4  11  24  45  66 101 137 172 225 288 345 410
#     4  10  24  42  62  97 133 171 228 273 333 406
#     4  12  22  48  78  90 140 188 214 296 362 394
#
# _framework density 23.432665
#
# number of rings (size 3 to 8) (size 9 to 14) (size 15 to 20)
#    0.000    1.333    6.000    0.000    0.000    5.867 
#    6.000    0.000    0.000    0.000    0.000    0.000 
#    0.000    0.000    0.000    0.000    0.000    0.000 
#
# Total GULP energy -167493.888374 kJ/mol
# GULP energy per Si atom -5583.129612 kJ/mol
# Density = 2.337933 g / cm^3
# Si number density = 23.432665 Si / 1000 Ang^3
#
#
#
# Elastic Constant Matrix: (Units=GPa)
#
#
# Indices 1 2 3 4 5 6 
#
# 1 28.1289 19.3903 26.1381 0.0000 2.0815 0.0000
# 2 19.3903 120.2189 24.1753 0.0000 -7.8440 0.0000
# 3 26.1381 24.1753 80.2736 0.0000 -11.2866 0.0000
# 4 0.0000 0.0000 0.0000 46.6459 0.0000 4.4285
# 5 2.0815 -7.8440 -11.2866 0.0000 15.8382 0.0000
# 6 0.0000 0.0000 0.0000 4.4285 0.0000 33.8021
#
#
#
# Elastic Compliance Matrix: (Units=1/GPa)
#
#
# Indices 1 2 3 4 5 6 
#
# 1 0.063679 -0.007600 -0.022396 0.000000 -0.028093 0.000000
# 2 -0.007600 0.009872 0.000366 0.000000 0.006149 0.000000
# 3 -0.022396 0.000366 0.022315 0.000000 0.019026 0.000000
# 4 0.000000 0.000000 0.000000 0.021708 0.000000 -0.002844
# 5 -0.028093 0.006149 0.019026 0.000000 0.083434 0.000000
# 6 0.000000 0.000000 0.000000 -0.002844 0.000000 0.029957
#
#
# Mechanical properties :
#
#
# Convention : Reuss Voigt Hill
#
# Bulk Modulus (GPa) = 27.31782 40.89206 34.10494
# Shear Modulus (GPa) = 16.53299 29.85175 23.19237
#
# Velocity S-wave (km/s) = 2.65911 3.57310 3.14943
# Velocity P-wave (km/s) = 4.59468 5.87465 5.27364
#
# Compressibility (1/GPa) = 0.03660615
#
# Stress axis : x y z
#
# Youngs Moduli (GPa) = 15.70368 101.30135 44.81380
#
# Poissons Ratio (x) = 0.76991 1.00364
# Poissons Ratio (y) = 0.11935 -0.01642
# Poissons Ratio (z) = 0.35170 -0.03711
#
# Static dielectric constant tensor:
#      x y z
#    x 1.918810 0.000000 0.002120 
#    y 0.000000 1.881030 0.000000 
#    z 0.002120 0.000000 1.927510 
# 
# From -- ./inp_files/307157.got.cif
#   From: 2010.05.17/outbox.cif.g08.bks.cpg/sg15_154_cif.got.tgz:307157.got - 2010.06.03 18:47:42.
