data_PCOD9285053
_publ_section_title
;
Structure prediction by ZEFSAII (Michael W. Deem and Ramdas Pophale) SiO2 
 PCOD9285053
Probable space group: C 2/C
;
_chemical_formula_sum "Si O2"
_cell_formula_units_Z 64
_cell_length_a 15.450273
_cell_length_b 10.916875
_cell_length_c 26.449811
_cell_angle_alpha 90.000000
_cell_angle_beta 37.870346
_cell_angle_gamma 90.000000
_cell_volume 2738.660714
_symmetry_space_group_name_H-M "C 2/C"
_symmetry_group_IT_number 15
_symmetry_cell_setting 'monoclinic'
loop_
_space_group_symop_operation_xyz
x,y,z
-x,y,1/2-z
-x,-y,-z
x,-y,1/2+z
1/2+x,1/2+y,z
1/2-x,1/2+y,1/2-z
1/2-x,1/2-y,-z
1/2+x,1/2-y,1/2+z
loop_
_atom_site_type_symbol
_atom_site_label
_atom_site_fract_x
_atom_site_fract_y
_atom_site_fract_z
Si Si1 0.586454 0.575015 0.262015
Si Si2 0.964796 0.712800 0.380653
Si Si3 0.301808 0.632663 0.714661
Si Si4 0.730867 0.441362 0.032112
Si Si5 0.894236 0.827784 0.937677
Si Si6 0.375394 0.952731 0.772650
Si Si7 0.832928 0.494565 0.586378
Si Si8 0.158356 0.758244 0.873134
O O1 0.500000 0.549263 0.250000
O O2 0.614235 0.462029 0.287527
O O3 0.492745 0.665586 0.340774
O O4 0.748196 0.589036 0.166010
O O5 0.882196 0.603360 0.444508
O O6 0.854212 0.818038 0.416819
O O7 0.075982 0.783186 0.364817
O O8 0.042593 0.650086 0.298028
O O9 0.198882 0.556360 0.726723
O O10 0.215540 0.721797 0.791061
O O11 0.652227 0.531656 0.030391
O O12 0.757522 0.525310 0.068097
O O13 0.994703 0.782984 0.937027
O O14 0.750000 0.750000 0.000000
O O15 0.500000 0.004399 0.750000
O O16 0.244468 0.873790 0.855093
O O17 0.806422 0.636817 0.612453
O O18 0.000000 0.500000 0.500000
#
# Coordination Sequence:
#
# PCOD9285053 Si02
#       8
#     8   8   8   8   8   8   8   8
#     4  11  21  41  70 101 140 183 243 306 371 432
#     4  10  22  39  68  95 132 184 231 292 358 444
#     4  10  21  41  66  98 136 182 231 300 367 430
#     4  11  22  41  65  97 136 180 238 288 361 434
#     4  12  24  41  67 103 147 189 233 304 378 436
#     4  11  22  40  69  96 137 185 244 292 361 447
#     4  11  23  37  66 102 134 177 239 304 354 433
#     4  10  23  39  65  95 138 181 231 297 368 426
#
# _framework density 23.369085999999999
#
# number of rings (size 3 to 8) (size 9 to 14) (size 15 to 20)
#    0.000    1.250    3.750    1.500    5.250    3.500 
#    0.000    1.875    2.750    4.500    0.000    0.000 
#    0.000    0.000    0.000    0.000    0.000    0.000 
#
# Total GULP energy -178330.658825 kJ/mol
# GULP energy per Si atom -5572.833088 kJ/mol
# Density = 2.331590 g / cm^3
# Si number density = 23.369086 Si / 1000 Ang^3
#
#
#
# Elastic Constant Matrix: (Units=GPa)
#
#
# Indices 1 2 3 4 5 6 
#
# 1 126.5082 26.6103 13.1856 0.0000 -24.1023 0.0000
# 2 26.6103 36.0548 21.2414 0.0000 -6.1612 0.0000
# 3 13.1856 21.2414 98.5412 0.0000 -24.6024 0.0000
# 4 0.0000 0.0000 0.0000 102.2921 0.0000 -85.1807
# 5 -24.1023 -6.1612 -24.6024 0.0000 22.2435 0.0000
# 6 0.0000 0.0000 0.0000 -85.1807 0.0000 101.2248
#
#
#
# Elastic Compliance Matrix: (Units=1/GPa)
#
#
# Indices 1 2 3 4 5 6 
#
# 1 0.012268 -0.008845 0.004106 0.000000 0.015385 0.000000
# 2 -0.008845 0.038193 -0.009395 0.000000 -0.009396 0.000000
# 3 0.004106 -0.009395 0.016695 0.000000 0.020313 0.000000
# 4 0.000000 0.000000 0.000000 0.032666 0.000000 0.027489
# 5 0.015385 -0.009396 0.020313 0.000000 0.081492 0.000000
# 6 0.000000 0.000000 0.000000 0.027489 0.000000 0.033011
#
#
# Mechanical properties :
#
#
# Convention : Reuss Voigt Hill
#
# Bulk Modulus (GPa) = 25.71438 42.57541 34.14490
# Shear Modulus (GPa) = 19.56521 58.48989 39.02755
#
# Velocity S-wave (km/s) = 2.89663 5.00830 4.09106
# Velocity P-wave (km/s) = 4.71325 7.19043 6.07935
#
# Compressibility (1/GPa) = 0.03888874
#
# Stress axis : x y z
#
# Youngs Moduli (GPa) = 81.51126 26.18299 59.89743
#
# Poissons Ratio (x) = 0.23158 -0.24594
# Poissons Ratio (y) = 0.72093 0.56275
# Poissons Ratio (z) = -0.33469 0.24600
#
# Static dielectric constant tensor:
#      x y z
#    x 1.962820 0.000000 0.068600 
#    y 0.000000 1.899130 0.000000 
#    z 0.068600 0.000000 2.178200 
# 
# From -- ./inp_files/296099.got.cif
#   From: 2010.05.17/outbox.cif.g08.bks.cpg/sg15_149_cif.got.tgz:296099.got - 2010.06.03 18:47:42.
