data_PCOD9285016
_publ_section_title
;
Structure prediction by ZEFSAII (Michael W. Deem and Ramdas Pophale) SiO2 
 PCOD9285016
Probable space group: C 2/C
;
_chemical_formula_sum "Si O2"
_cell_formula_units_Z 60
_cell_length_a 16.780184
_cell_length_b 7.257759
_cell_length_c 21.798787
_cell_angle_alpha 90.000000
_cell_angle_beta 77.866432
_cell_angle_gamma 90.000000
_cell_volume 2595.491145
_symmetry_space_group_name_H-M "C 2/C"
_symmetry_group_IT_number 15
_symmetry_cell_setting 'monoclinic'
loop_
_space_group_symop_operation_xyz
x,y,z
-x,y,1/2-z
-x,-y,-z
x,-y,1/2+z
1/2+x,1/2+y,z
1/2-x,1/2+y,1/2-z
1/2-x,1/2-y,-z
1/2+x,1/2-y,1/2+z
loop_
_atom_site_type_symbol
_atom_site_label
_atom_site_fract_x
_atom_site_fract_y
_atom_site_fract_z
Si Si1 0.296996 0.240566 0.818485
Si Si2 0.982713 0.293937 0.484631
Si Si3 0.798877 0.671926 0.049842
Si Si4 0.056966 0.827191 0.636041
Si Si5 0.000000 0.901358 0.250000
Si Si6 0.254446 0.260052 0.584243
Si Si7 0.625589 0.387912 0.029351
Si Si8 0.814293 0.834671 0.279327
O O1 0.234823 0.233661 0.884179
O O2 0.385918 0.189789 0.832946
O O3 0.247252 0.169210 0.768176
O O4 0.314889 0.454009 0.800284
O O5 0.890274 0.272551 0.520190
O O6 0.995065 0.268018 0.409428
O O7 0.000000 0.500000 0.500000
O O8 0.039156 0.165633 0.516663
O O9 0.787794 0.450148 0.064633
O O10 0.750000 0.750000 0.000000
O O11 0.114127 0.956258 0.583039
O O12 0.008872 0.963511 0.689291
O O13 0.087680 0.793917 0.242879
O O14 0.317113 0.393615 0.540128
O O15 0.169476 0.272697 0.561275
O O16 0.230363 0.278337 0.658871
#
# Coordination Sequence:
#
# PCOD9285016 Si02
#       8
#     8   8   8   8   4   8   8   8
#     4  10  22  43  64  92 128 172 218 263 320 400
#     4  12  25  41  65 103 131 166 219 284 335 385
#     4  11  20  41  64  92 136 166 210 275 339 387
#     4  11  23  45  63  95 134 175 222 266 338 401
#     4  10  22  44  68  92 130 172 222 274 314 408
#     4  10  21  41  66  94 132 169 217 276 325 401
#     4  11  21  40  67  96 130 170 214 274 331 393
#     4  10  22  44  68  94 128 174 223 265 326 395
#
# _framework density 23.117011999999999
#
# number of rings (size 3 to 8) (size 9 to 14) (size 15 to 20)
#    0.000    1.333    6.667    0.400    1.867    2.133 
#    9.600    0.000    0.000    0.800    0.000    0.000 
#    0.000    0.000    0.000    0.000    0.000    0.000 
#
# Total GULP energy -167328.813490 kJ/mol
# GULP energy per Si atom -5577.627116 kJ/mol
# Density = 2.306440 g / cm^3
# Si number density = 23.117012 Si / 1000 Ang^3
#
#
#
# Elastic Constant Matrix: (Units=GPa)
#
#
# Indices 1 2 3 4 5 6 
#
# 1 146.6070 16.2540 55.3309 0.0000 14.3052 0.0000
# 2 16.2540 44.5799 24.9043 0.0000 0.5938 0.0000
# 3 55.3309 24.9043 177.8487 0.0000 12.5089 0.0000
# 4 0.0000 0.0000 0.0000 38.8114 0.0000 3.1952
# 5 14.3052 0.5938 12.5089 0.0000 50.1385 0.0000
# 6 0.0000 0.0000 0.0000 3.1952 0.0000 28.2883
#
#
#
# Elastic Compliance Matrix: (Units=1/GPa)
#
#
# Indices 1 2 3 4 5 6 
#
# 1 0.007979 -0.001700 -0.002123 0.000000 -0.001727 0.000000
# 2 -0.001700 0.024714 -0.002998 0.000000 0.000940 0.000000
# 3 -0.002123 -0.002998 0.006777 0.000000 -0.001050 0.000000
# 4 0.000000 0.000000 0.000000 0.026007 0.000000 -0.002938
# 5 -0.001727 0.000940 -0.001050 0.000000 0.020688 0.000000
# 6 0.000000 0.000000 0.000000 -0.002938 0.000000 0.035682
#
#
# Mechanical properties :
#
#
# Convention : Reuss Voigt Hill
#
# Bulk Modulus (GPa) = 38.71811 62.44602 50.58206
# Shear Modulus (GPa) = 34.69842 41.61738 38.15790
#
# Velocity S-wave (km/s) = 3.87847 4.24759 4.06722
# Velocity P-wave (km/s) = 6.06974 7.15036 6.63210
#
# Compressibility (1/GPa) = 0.02582771
#
# Stress axis : x y z
#
# Youngs Moduli (GPa) = 125.32663 40.46325 147.56187
#
# Poissons Ratio (x) = 0.06880 0.31325
# Poissons Ratio (y) = 0.21309 0.44237
# Poissons Ratio (z) = 0.26605 0.12130
#
# Static dielectric constant tensor:
#      x y z
#    x 1.950610 0.000000 0.037150 
#    y 0.000000 1.979510 0.000000 
#    z 0.037150 0.000000 1.859810 
# 
# From -- ./inp_files/247442.got.cif
#   From: 2010.05.17/outbox.cif.g08.bks.cpg/sg15_124_cif.got.tgz:247442.got - 2010.06.03 18:47:42.
