data_PCOD9285290
_publ_section_title
;
Structure prediction by ZEFSAII (Michael W. Deem and Ramdas Pophale) SiO2 
 PCOD9285290
Probable space group: C 2/C
;
_chemical_formula_sum "Si O2"
_cell_formula_units_Z 64
_cell_length_a 18.943587
_cell_length_b 28.887899
_cell_length_c 9.789818
_cell_angle_alpha 90.000000
_cell_angle_beta 37.976577
_cell_angle_gamma 90.000000
_cell_volume 3296.608923
_symmetry_space_group_name_H-M "C 2/C"
_symmetry_group_IT_number 15
_symmetry_cell_setting 'monoclinic'
loop_
_space_group_symop_operation_xyz
x,y,z
-x,y,1/2-z
-x,-y,-z
x,-y,1/2+z
1/2+x,1/2+y,z
1/2-x,1/2+y,1/2-z
1/2-x,1/2-y,-z
1/2+x,1/2-y,1/2+z
loop_
_atom_site_type_symbol
_atom_site_label
_atom_site_fract_x
_atom_site_fract_y
_atom_site_fract_z
Si Si1 0.747679 0.466761 0.994243
Si Si2 0.478961 0.328438 0.941577
Si Si3 0.755178 0.948429 0.815906
Si Si4 0.486945 0.417032 0.111724
Si Si5 0.295883 0.722758 0.298160
Si Si6 0.885000 0.355061 0.511453
Si Si7 0.245848 0.716108 0.876999
Si Si8 0.889102 0.373979 0.823664
O O1 0.779857 0.513946 0.019493
O O2 0.615154 0.454232 0.230171
O O3 0.759891 0.469440 0.812562
O O4 0.822481 0.422809 0.927273
O O5 0.500000 0.337697 0.750000
O O6 0.593433 0.306229 0.828631
O O7 0.454472 0.375006 0.063032
O O8 0.372640 0.294008 0.125604
O O9 0.889980 0.936183 0.622093
O O10 0.682606 0.901294 0.932684
O O11 0.500000 0.400662 0.250000
O O12 0.250000 0.750000 0.500000
O O13 0.199712 0.687993 0.385419
O O14 0.324288 0.759130 0.136110
O O15 0.913594 0.362000 0.627601
O O16 0.000000 0.348843 0.250000
O O17 0.250000 0.750000 0.000000
O O18 0.190825 0.667472 0.001554
O O19 0.000000 0.376321 0.750000
#
# Coordination Sequence:
#
# PCOD9285290 Si02
#       8
#     8   8   8   8   8   8   8   8
#     4  10  22  42  67  97 132 167 216 266 323 397
#     4  12  26  43  65 101 137 172 218 271 324 383
#     4  10  22  42  67  98 128 172 214 264 331 387
#     4  10  21  41  69  96 134 171 213 267 327 387
#     4  12  27  44  68  96 136 175 219 272 322 385
#     4  11  26  46  68  95 133 173 220 270 331 390
#     4  12  27  44  68  98 130 174 226 265 325 387
#     4  11  26  46  67  98 131 171 221 275 324 388
#
# _framework density 19.413889000000001
#
# number of rings (size 3 to 8) (size 9 to 14) (size 15 to 20)
#    0.000    1.000    5.000    0.375    7.000    2.500 
#    0.000    2.500    0.000    0.000    0.000    0.000 
#    0.000    0.000    0.000    0.000    0.000    0.000 
#
# Total GULP energy -178953.834997 kJ/mol
# GULP energy per Si atom -5592.307344 kJ/mol
# Density = 1.936970 g / cm^3
# Si number density = 19.413889 Si / 1000 Ang^3
#
#
#
# Elastic Constant Matrix: (Units=GPa)
#
#
# Indices 1 2 3 4 5 6 
#
# 1 95.0679 25.3099 15.5133 0.0000 1.1477 0.0000
# 2 25.3099 74.7583 8.5138 0.0000 16.2346 0.0000
# 3 15.5133 8.5138 53.5903 0.0000 -2.6172 0.0000
# 4 0.0000 0.0000 0.0000 24.7512 0.0000 14.7189
# 5 1.1477 16.2346 -2.6172 0.0000 31.6314 0.0000
# 6 0.0000 0.0000 0.0000 14.7189 0.0000 23.6753
#
#
#
# Elastic Compliance Matrix: (Units=1/GPa)
#
#
# Indices 1 2 3 4 5 6 
#
# 1 0.012037 -0.004069 -0.002768 0.000000 0.001422 0.000000
# 2 -0.004069 0.016854 -0.001923 0.000000 -0.008662 0.000000
# 3 -0.002768 -0.001923 0.019900 0.000000 0.002734 0.000000
# 4 0.000000 0.000000 0.000000 0.064100 0.000000 -0.039851
# 5 0.001422 -0.008662 0.002734 0.000000 0.036234 0.000000
# 6 0.000000 0.000000 0.000000 -0.039851 0.000000 0.067014
#
#
# Mechanical properties :
#
#
# Convention : Reuss Voigt Hill
#
# Bulk Modulus (GPa) = 31.97844 35.78784 33.88314
# Shear Modulus (GPa) = 20.48485 27.61688 24.05087
#
# Velocity S-wave (km/s) = 3.25185 3.77574 3.52355
# Velocity P-wave (km/s) = 5.53237 6.12229 5.83479
#
# Compressibility (1/GPa) = 0.03127107
#
# Stress axis : x y z
#
# Youngs Moduli (GPa) = 83.08000 59.33363 50.25000
#
# Poissons Ratio (x) = 0.24141 0.13912
# Poissons Ratio (y) = 0.33802 0.09662
# Poissons Ratio (z) = 0.23001 0.11409
#
# Static dielectric constant tensor:
#      x y z
#    x 1.664650 0.000000 -0.001850 
#    y 0.000000 1.652060 0.000000 
#    z -0.001850 0.000000 1.678030 
# 
# From -- ./inp_files/52816.got.cif
#   From: 2010.05.17/outbox.cif.g08.bks.cpg/sg15_27_cif.got.tgz:52816.got - 2010.06.03 18:47:42.
