data_PCOD9285973
_publ_section_title
;
Structure prediction by ZEFSAII (Michael W. Deem and Ramdas Pophale) SiO2 
 PCOD9285973
Probable space group: C 2/C
;
_chemical_formula_sum "Si O2"
_cell_formula_units_Z 48
_cell_length_a 10.705894
_cell_length_b 15.575205
_cell_length_c 25.873697
_cell_angle_alpha 90.000000
_cell_angle_beta 32.041435
_cell_angle_gamma 90.000000
_cell_volume 2288.901597
_symmetry_space_group_name_H-M "C 2/C"
_symmetry_group_IT_number 15
_symmetry_cell_setting 'monoclinic'
loop_
_space_group_symop_operation_xyz
x,y,z
-x,y,1/2-z
-x,-y,-z
x,-y,1/2+z
1/2+x,1/2+y,z
1/2-x,1/2+y,1/2-z
1/2-x,1/2-y,-z
1/2+x,1/2-y,1/2+z
loop_
_atom_site_type_symbol
_atom_site_label
_atom_site_fract_x
_atom_site_fract_y
_atom_site_fract_z
Si Si1 0.994399 0.133323 0.427583
Si Si2 0.114113 0.039686 0.596989
Si Si3 0.000000 0.708983 0.250000
Si Si4 0.929445 0.358505 0.594260
Si Si5 0.863898 0.212166 0.689997
Si Si6 0.335620 0.239150 0.892668
Si Si7 0.000000 0.026935 0.250000
O O1 0.819268 0.157003 0.536156
O O2 0.922073 0.205573 0.411269
O O3 0.269052 0.151314 0.343210
O O4 0.945544 0.042809 0.417010
O O5 0.371068 0.076825 0.494048
O O6 0.944228 0.118965 0.644892
O O7 0.087323 0.020452 0.667699
O O8 0.931242 0.769056 0.225787
O O9 0.996554 0.287294 0.612509
O O10 0.826086 0.303181 0.583352
O O11 0.715340 0.413528 0.692416
O O12 0.584223 0.218137 0.779127
#
# Coordination Sequence:
#
# PCOD9285973 Si02
#       7
#     8   8   4   8   8   8   4
#     4  10  22  41  66  99 132 174 225 278 326 404
#     4  12  26  39  69 107 132 171 229 287 331 389
#     4  10  21  46  65  92 136 192 220 263 348 407
#     4  12  23  46  68  99 135 178 224 277 340 401
#     4  11  23  43  67  95 136 180 223 274 335 409
#     4  10  21  42  69  93 132 181 222 266 343 399
#     4  12  23  42  67 100 136 166 224 291 332 383
#
# _framework density 20.970758
#
# number of rings (size 3 to 8) (size 9 to 14) (size 15 to 20)
#    0.000    1.000    3.333    3.500    2.333    1.333 
#    3.000    1.667    0.000    0.000    0.000    0.000 
#    0.000    0.000    0.000    0.000    0.000    0.000 
#
# Total GULP energy -134064.170282 kJ/mol
# GULP energy per Si atom -5586.007095 kJ/mol
# Density = 2.092303 g / cm^3
# Si number density = 20.970758 Si / 1000 Ang^3
#
#
#
# Elastic Constant Matrix: (Units=GPa)
#
#
# Indices 1 2 3 4 5 6 
#
# 1 68.1188 25.4521 35.8377 -0.0201 -13.5367 0.0086
# 2 25.4521 130.7105 77.5783 0.0126 -20.4490 -0.0156
# 3 35.8377 77.5783 135.8491 0.0002 -20.3561 -0.0295
# 4 -0.0201 0.0126 0.0002 -30.1510 0.0076 30.3413
# 5 -13.5367 -20.4490 -20.3561 0.0076 26.2483 0.0046
# 6 0.0086 -0.0156 -0.0295 30.3413 0.0046 19.0267
#
#
#
# Elastic Compliance Matrix: (Units=1/GPa)
#
#
# Indices 1 2 3 4 5 6 
#
# 1 0.017938 -0.000406 -0.003577 -0.000010 0.006161 0.000001
# 2 -0.000406 0.012050 -0.006109 0.000002 0.004441 -0.000004
# 3 -0.003577 -0.006109 0.012224 0.000006 0.002876 0.000005
# 4 -0.000010 0.000002 0.000006 -0.012733 0.000001 0.020305
# 5 0.006161 0.004441 0.002876 0.000001 0.046965 -0.000008
# 6 0.000001 -0.000004 0.000005 0.020305 -0.000008 0.020178
#
#
# Mechanical properties :
#
#
# Convention : Reuss Voigt Hill
#
# Bulk Modulus (GPa) = 45.39598 68.04610 56.72104
# Shear Modulus (GPa) = 40.27429 16.07881 28.17655
#
# Velocity S-wave (km/s) = 4.38710 2.77198 3.66951
# Velocity P-wave (km/s) = 6.88161 6.53940 6.71268
#
# Compressibility (1/GPa) = 0.02202838
#
# Stress axis : x y z
#
# Youngs Moduli (GPa) = 55.74709 82.98835 81.80473
#
# Poissons Ratio (x) = 0.03370 0.29263
# Poissons Ratio (y) = 0.02264 0.49972
# Poissons Ratio (z) = 0.19942 0.50695
#
# Static dielectric constant tensor:
#      x y z
#    x 1.777340 0.000000 0.022090 
#    y 0.000000 1.722110 0.000000 
#    z 0.022090 0.000000 1.811070 
# 
# From -- ./inp_files/238967.got.cif
#   From: 2010.05.17/outbox.cif.g08.bks.cpg/sg15_120_cif.got.tgz:238967.got - 2010.06.03 18:47:42.
