data_PCOD9285703
_publ_section_title
;
Structure prediction by ZEFSAII (Michael W. Deem and Ramdas Pophale) SiO2 
 PCOD9285703
Probable space group: C 2/C
;
_chemical_formula_sum "Si O2"
_cell_formula_units_Z 60
_cell_length_a 16.050907
_cell_length_b 23.904071
_cell_length_c 10.608366
_cell_angle_alpha 90.000000
_cell_angle_beta 41.132430
_cell_angle_gamma 90.000000
_cell_volume 2677.410190
_symmetry_space_group_name_H-M "C 2/C"
_symmetry_group_IT_number 15
_symmetry_cell_setting 'monoclinic'
loop_
_space_group_symop_operation_xyz
x,y,z
-x,y,1/2-z
-x,-y,-z
x,-y,1/2+z
1/2+x,1/2+y,z
1/2-x,1/2+y,1/2-z
1/2-x,1/2-y,-z
1/2+x,1/2-y,1/2+z
loop_
_atom_site_type_symbol
_atom_site_label
_atom_site_fract_x
_atom_site_fract_y
_atom_site_fract_z
Si Si1 0.865007 0.696760 0.629713
Si Si2 0.511385 0.902961 0.370841
Si Si3 0.727870 0.396640 0.701231
Si Si4 0.131815 0.123600 0.863249
Si Si5 0.416023 0.308183 0.721088
Si Si6 0.230384 0.036701 0.958823
Si Si7 0.742087 0.404462 0.965815
Si Si8 0.500000 0.841722 0.750000
O O1 0.720492 0.677022 0.796207
O O2 0.938806 0.641241 0.588254
O O3 0.896357 0.749523 0.677608
O O4 0.921371 0.701257 0.427104
O O5 0.500000 0.872461 0.250000
O O6 0.370313 0.921314 0.560937
O O7 0.619991 0.948561 0.226721
O O8 0.719367 0.339979 0.625116
O O9 0.677516 0.441329 0.654535
O O10 0.698057 0.380941 0.880624
O O11 0.165906 0.071970 0.918276
O O12 0.163092 0.110103 0.682553
O O13 0.992826 0.145147 0.053278
O O14 0.500000 0.302820 0.750000
O O15 0.223078 0.970572 0.966230
O O16 0.885550 0.382092 0.830106
#
# Coordination Sequence:
#
# PCOD9285703 Si02
#       8
#     8   8   8   8   8   8   8   4
#     4  10  22  40  65  94 130 170 207 275 328 387
#     4   9  19  36  60  98 133 151 215 270 308 389
#     4  11  23  40  64  99 131 169 225 266 314 406
#     4  10  24  45  63 102 135 166 232 270 314 413
#     4  12  26  45  70  89 129 180 222 274 338 381
#     4  10  21  42  66 100 134 173 216 278 325 382
#     4  11  23  40  69  98 135 178 210 270 348 375
#     4  10  22  40  62 102 140 160 216 266 334 416
#
# _framework density 22.409714999999998
#
# number of rings (size 3 to 8) (size 9 to 14) (size 15 to 20)
#    0.000    1.600    2.667    1.200    4.667    2.667 
#    0.000    6.667    0.000    0.000    0.000    0.000 
#    0.000    0.000    0.000    0.000    0.000    0.000 
#
# Total GULP energy -167057.826076 kJ/mol
# GULP energy per Si atom -5568.594203 kJ/mol
# Density = 2.235871 g / cm^3
# Si number density = 22.409715 Si / 1000 Ang^3
#
#
#
# Elastic Constant Matrix: (Units=GPa)
#
#
# Indices 1 2 3 4 5 6 
#
# 1 115.4031 35.9719 25.8200 0.0000 21.9616 0.0000
# 2 35.9719 72.7978 4.1737 0.0000 4.2232 0.0000
# 3 25.8200 4.1737 57.9787 0.0001 13.8567 -0.0001
# 4 0.0000 0.0000 0.0001 9.9468 0.0000 -32.8848
# 5 21.9616 4.2232 13.8567 0.0000 23.2235 0.0000
# 6 0.0000 0.0000 -0.0001 -32.8848 0.0000 18.5063
#
#
#
# Elastic Compliance Matrix: (Units=1/GPa)
#
#
# Indices 1 2 3 4 5 6 
#
# 1 0.012895 -0.005654 -0.003111 0.000000 -0.009311 0.000000
# 2 -0.005654 0.016372 0.000901 0.000000 0.001831 0.000000
# 3 -0.003111 0.000901 0.020882 0.000000 -0.009682 0.000000
# 4 0.000000 0.000000 0.000000 -0.020624 0.000000 -0.036647
# 5 -0.009311 0.001831 -0.009682 0.000000 0.057309 0.000000
# 6 0.000000 0.000000 0.000000 -0.036647 0.000000 -0.011085
#
#
# Mechanical properties :
#
#
# Convention : Reuss Voigt Hill
#
# Bulk Modulus (GPa) = 29.04912 42.01230 35.53071
# Shear Modulus (GPa) = 48.56737 22.34959 35.45848
#
# Velocity S-wave (km/s) = 4.66042 3.16146 3.98211
# Velocity P-wave (km/s) = 6.47690 5.66696 6.08542
#
# Compressibility (1/GPa) = 0.03442445
#
# Stress axis : x y z
#
# Youngs Moduli (GPa) = 77.54752 61.07853 47.88812
#
# Poissons Ratio (x) = 0.34531 0.14896
# Poissons Ratio (y) = 0.43842 -0.04317
# Poissons Ratio (z) = 0.24122 -0.05506
#
# Static dielectric constant tensor:
#      x y z
#    x 1.917230 0.000000 0.002890 
#    y 0.000000 1.780300 0.000000 
#    z 0.002890 0.000000 2.077090 
# 
# From -- ./inp_files/107605.got.cif
#   From: 2010.05.17/outbox.cif.g08.bks.cpg/sg15_54_cif.got.tgz:107605.got - 2010.06.03 18:47:42.
