data_PCOD9285392
_publ_section_title
;
Structure prediction by ZEFSAII (Michael W. Deem and Ramdas Pophale) SiO2 
 PCOD9285392
Probable space group: C 2/C
;
_chemical_formula_sum "Si O2"
_cell_formula_units_Z 52
_cell_length_a 13.513100
_cell_length_b 13.269414
_cell_length_c 14.073990
_cell_angle_alpha 90.000000
_cell_angle_beta 60.097664
_cell_angle_gamma 90.000000
_cell_volume 2187.666744
_symmetry_space_group_name_H-M "C 2/C"
_symmetry_group_IT_number 15
_symmetry_cell_setting 'monoclinic'
loop_
_space_group_symop_operation_xyz
x,y,z
-x,y,1/2-z
-x,-y,-z
x,-y,1/2+z
1/2+x,1/2+y,z
1/2-x,1/2+y,1/2-z
1/2-x,1/2-y,-z
1/2+x,1/2-y,1/2+z
loop_
_atom_site_type_symbol
_atom_site_label
_atom_site_fract_x
_atom_site_fract_y
_atom_site_fract_z
Si Si1 0.229845 0.039030 0.084837
Si Si2 0.682253 0.828165 0.678312
Si Si3 0.397490 0.963170 0.359146
Si Si4 0.000000 0.149918 0.250000
Si Si5 0.419392 0.650413 0.879716
Si Si6 0.944642 0.777989 0.567528
Si Si7 0.942744 0.395637 0.593413
O O1 0.118299 0.090023 0.180752
O O2 0.329593 0.046258 0.114244
O O3 0.185184 0.929089 0.075278
O O4 0.293977 0.090870 0.963244
O O5 0.664370 0.947317 0.670189
O O6 0.632238 0.760926 0.617305
O O7 0.808323 0.789922 0.637241
O O8 0.603621 0.814134 0.808138
O O9 0.500000 0.912147 0.250000
O O10 0.469132 0.028376 0.401211
O O11 0.009783 0.199108 0.349646
O O12 0.500000 0.627177 0.750000
O O13 0.470818 0.650357 0.962067
O O14 0.993056 0.669161 0.516468
#
# Coordination Sequence:
#
# PCOD9285392 Si02
#       7
#     8   8   8   4   8   8   8
#     4  12  25  45  64 106 153 184 238 306 373 432
#     4  11  20  42  75 110 134 183 248 305 357 439
#     4  10  21  41  72 108 145 182 237 308 374 423
#     4  12  30  48  68 100 154 200 242 292 372 444
#     4  12  22  42  77 109 131 188 255 306 364 426
#     4  12  24  47  73  99 146 195 243 298 358 444
#     4  11  23  43  71 104 150 181 236 305 364 443
#
# _framework density 23.769618999999999
#
# number of rings (size 3 to 8) (size 9 to 14) (size 15 to 20)
#    0.000    0.615    6.923    2.308    0.000    1.231 
#    6.923    0.000    0.000    0.000    0.000    0.000 
#    0.000    0.000    0.000    0.000    0.000    0.000 
#
# Total GULP energy -145104.302396 kJ/mol
# GULP energy per Si atom -5580.934708 kJ/mol
# Density = 2.371552 g / cm^3
# Si number density = 23.769619 Si / 1000 Ang^3
#
#
#
# Elastic Constant Matrix: (Units=GPa)
#
#
# Indices 1 2 3 4 5 6 
#
# 1 120.1896 29.6214 39.8397 0.0000 6.4248 0.0000
# 2 29.6214 40.9003 34.6074 0.0000 8.1588 0.0000
# 3 39.8397 34.6074 182.4067 0.0000 -9.9457 0.0000
# 4 0.0000 0.0000 0.0000 36.0017 0.0000 -3.1816
# 5 6.4248 8.1588 -9.9457 0.0000 60.0816 0.0000
# 6 0.0000 0.0000 0.0000 -3.1816 0.0000 24.1437
#
#
#
# Elastic Compliance Matrix: (Units=1/GPa)
#
#
# Indices 1 2 3 4 5 6 
#
# 1 0.010285 -0.006495 -0.001035 0.000000 -0.000389 0.000000
# 2 -0.006495 0.034740 -0.005441 0.000000 -0.004924 0.000000
# 3 -0.001035 -0.005441 0.006849 0.000000 0.001983 0.000000
# 4 0.000000 0.000000 0.000000 0.028104 0.000000 0.003703
# 5 -0.000389 -0.004924 0.001983 0.000000 0.017683 0.000000
# 6 0.000000 0.000000 0.000000 0.003703 0.000000 0.041907
#
#
# Mechanical properties :
#
#
# Convention : Reuss Voigt Hill
#
# Bulk Modulus (GPa) = 38.56412 61.29261 49.92836
# Shear Modulus (GPa) = 28.71050 40.00728 34.35889
#
# Velocity S-wave (km/s) = 3.47921 4.10704 3.80609
# Velocity P-wave (km/s) = 5.69203 6.95216 6.35341
#
# Compressibility (1/GPa) = 0.02593084
#
# Stress axis : x y z
#
# Youngs Moduli (GPa) = 97.22995 28.78559 146.01116
#
# Poissons Ratio (x) = 0.18696 0.15116
# Poissons Ratio (y) = 0.63151 0.79443
# Poissons Ratio (z) = 0.10066 0.15662
#
# Static dielectric constant tensor:
#      x y z
#    x 1.875540 0.000000 0.047690 
#    y 0.000000 1.919610 0.000000 
#    z 0.047690 0.000000 2.054650 
# 
# From -- ./inp_files/153867.got.cif
#   From: 2010.05.17/outbox.cif.g08.bks.cpg/sg15_77_cif.got.tgz:153867.got - 2010.06.03 18:47:42.
