data_PCOD9285446
_publ_section_title
;
Structure prediction by ZEFSAII (Michael W. Deem and Ramdas Pophale) SiO2 
 PCOD9285446
Probable space group: C 2/C
;
_chemical_formula_sum "Si O2"
_cell_formula_units_Z 40
_cell_length_a 7.661012
_cell_length_b 12.652829
_cell_length_c 19.013850
_cell_angle_alpha 90.000000
_cell_angle_beta 82.303956
_cell_angle_gamma 90.000000
_cell_volume 1826.476925
_symmetry_space_group_name_H-M "C 2/C"
_symmetry_group_IT_number 15
_symmetry_cell_setting 'monoclinic'
loop_
_space_group_symop_operation_xyz
x,y,z
-x,y,1/2-z
-x,-y,-z
x,-y,1/2+z
1/2+x,1/2+y,z
1/2-x,1/2+y,1/2-z
1/2-x,1/2-y,-z
1/2+x,1/2-y,1/2+z
loop_
_atom_site_type_symbol
_atom_site_label
_atom_site_fract_x
_atom_site_fract_y
_atom_site_fract_z
Si Si1 0.992710 0.277666 0.175148
Si Si2 0.965073 0.228079 0.480251
Si Si3 0.166428 0.371088 0.553400
Si Si4 0.205301 0.092499 0.894644
Si Si5 0.595112 0.309117 0.170715
O O1 0.038320 0.210738 0.103221
O O2 0.801805 0.328926 0.172297
O O3 0.000000 0.221202 0.250000
O O4 0.148150 0.362485 0.165888
O O5 0.020310 0.347035 0.501536
O O6 0.147256 0.166348 0.488678
O O7 0.821375 0.173028 0.537541
O O8 0.217206 0.484414 0.580562
O O9 0.100660 0.295383 0.620818
O O10 0.020200 0.101346 0.862886
O O11 0.500000 0.287998 0.250000
#
# Coordination Sequence:
#
# PCOD9285446 Si02
#       5
#     8   8   8   8   8
#     4  11  22  38  63  89 124 169 212 254 327 394
#     4   9  20  39  62  91 127 167 206 267 324 373
#     4   9  20  38  66  93 123 168 217 259 322 388
#     4  11  21  39  67  94 124 165 216 269 314 385
#     4  10  21  42  61  87 135 173 204 272 331 370
#
# _framework density 21.900085000000001
#
# number of rings (size 3 to 8) (size 9 to 14) (size 15 to 20)
#    0.000    2.000    2.000    2.400    0.000    1.600 
#    0.000   12.000    8.800    0.000    0.000    0.000 
#    0.000    0.000    0.000    0.000    0.000    0.000 
#
# Total GULP energy -111378.391675 kJ/mol
# GULP energy per Si atom -5568.919584 kJ/mol
# Density = 2.185024 g / cm^3
# Si number density = 21.900085 Si / 1000 Ang^3
#
#
#
# Elastic Constant Matrix: (Units=GPa)
#
#
# Indices 1 2 3 4 5 6 
#
# 1 122.0275 9.9714 39.2794 0.0000 3.5699 0.0000
# 2 9.9714 70.1704 30.3467 0.0000 9.0714 0.0000
# 3 39.2794 30.3467 172.4845 0.0000 1.3246 0.0000
# 4 0.0000 0.0000 0.0000 17.8586 0.0000 0.1644
# 5 3.5699 9.0714 1.3246 0.0000 43.9980 0.0000
# 6 0.0000 0.0000 0.0000 0.1644 0.0000 20.8079
#
#
#
# Elastic Compliance Matrix: (Units=1/GPa)
#
#
# Indices 1 2 3 4 5 6 
#
# 1 0.008869 -0.000338 -0.001956 0.000000 -0.000591 0.000000
# 2 -0.000338 0.015872 -0.002691 0.000000 -0.003164 0.000000
# 3 -0.001956 -0.002691 0.006713 0.000000 0.000511 0.000000
# 4 0.000000 0.000000 0.000000 0.055999 0.000000 -0.000443
# 5 -0.000591 -0.003164 0.000511 0.000000 0.023413 0.000000
# 6 0.000000 0.000000 0.000000 -0.000443 0.000000 0.048062
#
#
# Mechanical properties :
#
#
# Convention : Reuss Voigt Hill
#
# Bulk Modulus (GPa) = 46.54695 58.20859 52.37777
# Shear Modulus (GPa) = 28.39941 35.53857 31.96899
#
# Velocity S-wave (km/s) = 3.60498 4.03272 3.82483
# Velocity P-wave (km/s) = 6.21516 6.95130 6.59351
#
# Compressibility (1/GPa) = 0.02148368
#
# Stress axis : x y z
#
# Youngs Moduli (GPa) = 112.74802 63.00416 148.97452
#
# Poissons Ratio (x) = 0.02130 0.29136
# Poissons Ratio (y) = 0.03813 0.40092
# Poissons Ratio (z) = 0.22051 0.16956
#
# Static dielectric constant tensor:
#      x y z
#    x 2.001720 0.000000 0.110740 
#    y 0.000000 1.851390 0.000000 
#    z 0.110740 0.000000 1.869240 
# 
# From -- ./inp_files/229784.got.cif
#   From: 2010.05.17/outbox.cif.g08.bks.cpg/sg15_115_cif.got.tgz:229784.got - 2010.06.03 18:47:42.
