data_PCOD9285187
_publ_section_title
;
Structure prediction by ZEFSAII (Michael W. Deem and Ramdas Pophale) SiO2 
 PCOD9285187
Probable space group: C 2/C
;
_chemical_formula_sum "Si O2"
_cell_formula_units_Z 40
_cell_length_a 13.164552
_cell_length_b 9.570883
_cell_length_c 28.876759
_cell_angle_alpha 90.000000
_cell_angle_beta 30.144807
_cell_angle_gamma 90.000000
_cell_volume 1827.141334
_symmetry_space_group_name_H-M "C 2/C"
_symmetry_group_IT_number 15
_symmetry_cell_setting 'monoclinic'
loop_
_space_group_symop_operation_xyz
x,y,z
-x,y,1/2-z
-x,-y,-z
x,-y,1/2+z
1/2+x,1/2+y,z
1/2-x,1/2+y,1/2-z
1/2-x,1/2-y,-z
1/2+x,1/2-y,1/2+z
loop_
_atom_site_type_symbol
_atom_site_label
_atom_site_fract_x
_atom_site_fract_y
_atom_site_fract_z
Si Si1 0.121028 0.352638 0.653845
Si Si2 0.311583 0.210639 0.773264
Si Si3 0.212645 0.863323 0.409937
Si Si4 0.436448 0.868615 0.055958
Si Si5 0.672094 0.007108 0.305253
O O1 0.296145 0.470220 0.580736
O O2 0.231176 0.203983 0.616960
O O3 0.000000 0.375529 0.750000
O O4 0.978409 0.394940 0.666763
O O5 0.544694 0.162728 0.682830
O O6 0.174798 0.179210 0.871758
O O7 0.323814 0.375742 0.762915
O O8 0.230139 0.112410 0.764613
O O9 0.099464 0.756551 0.487835
O O10 0.418534 0.926226 0.115121
O O11 0.500000 0.000000 0.000000
#
# Coordination Sequence:
#
# PCOD9285187 Si02
#       5
#     8   8   8   8   8
#     4  11  23  45  69  94 134 178 227 281 336 410
#     4  10  21  41  68  91 130 171 226 267 336 409
#     4  10  21  45  64  91 133 172 212 284 332 394
#     4  12  26  41  65 101 139 169 224 288 343 403
#     4  11  23  42  68 100 128 184 231 272 348 410
#
# _framework density 21.892122000000001
#
# number of rings (size 3 to 8) (size 9 to 14) (size 15 to 20)
#    0.000    1.200    6.000    1.800    0.000    7.200 
#    3.600    0.000    0.000    0.000    0.000    0.000 
#    0.000    0.000    0.000    0.000    0.000    0.000 
#
# Total GULP energy -111490.631027 kJ/mol
# GULP energy per Si atom -5574.531551 kJ/mol
# Density = 2.184229 g / cm^3
# Si number density = 21.892122 Si / 1000 Ang^3
#
#
#
# Elastic Constant Matrix: (Units=GPa)
#
#
# Indices 1 2 3 4 5 6 
#
# 1 57.2951 34.6270 29.7377 0.0001 25.3475 -0.0002
# 2 34.6270 161.0386 31.4265 -0.0001 16.3908 -0.0001
# 3 29.7377 31.4265 34.9851 0.0000 12.8937 -0.0012
# 4 0.0001 -0.0001 0.0000 48.3347 -0.0001 -15.4517
# 5 25.3475 16.3908 12.8937 -0.0001 34.6669 0.0001
# 6 -0.0002 -0.0001 -0.0012 -15.4517 0.0001 15.4365
#
#
#
# Elastic Compliance Matrix: (Units=1/GPa)
#
#
# Indices 1 2 3 4 5 6 
#
# 1 0.040225 -0.001706 -0.025630 -0.000001 -0.019072 -0.000002
# 2 -0.001706 0.007646 -0.005267 0.000000 -0.000408 -0.000001
# 3 -0.025630 -0.005267 0.054786 0.000002 0.000854 0.000006
# 4 -0.000001 0.000000 0.000002 0.030425 0.000000 0.030455
# 5 -0.019072 -0.000408 0.000854 0.000000 0.042667 0.000000
# 6 -0.000002 -0.000001 0.000006 0.030455 0.000000 0.095267
#
#
# Mechanical properties :
#
#
# Convention : Reuss Voigt Hill
#
# Bulk Modulus (GPa) = 26.70224 49.43347 38.06786
# Shear Modulus (GPa) = 14.33873 30.18945 22.26409
#
# Velocity S-wave (km/s) = 2.56202 3.71753 3.19249
# Velocity P-wave (km/s) = 4.57991 6.40751 5.56919
#
# Compressibility (1/GPa) = 0.03745004
#
# Stress axis : x y z
#
# Youngs Moduli (GPa) = 24.86021 130.78562 18.25274
#
# Poissons Ratio (x) = 0.22318 0.46781
# Poissons Ratio (y) = 0.04242 0.09614
# Poissons Ratio (z) = 0.63716 0.68889
#
# Static dielectric constant tensor:
#      x y z
#    x 2.008290 0.000000 0.002060 
#    y 0.000000 1.861530 0.000000 
#    z 0.002060 0.000000 1.817930 
# 
# From -- ./inp_files/150566.got.cif
#   From: 2010.05.17/outbox.cif.g08.bks.cpg/sg15_76_cif.got.tgz:150566.got - 2010.06.03 18:47:42.
