data_PCOD9285997
_publ_section_title
;
Structure prediction by ZEFSAII (Michael W. Deem and Ramdas Pophale) SiO2 
 PCOD9285997
Probable space group: C 2/C
;
_chemical_formula_sum "Si O2"
_cell_formula_units_Z 60
_cell_length_a 26.491411
_cell_length_b 15.527185
_cell_length_c 20.613335
_cell_angle_alpha 90.000000
_cell_angle_beta 159.752788
_cell_angle_gamma 90.000000
_cell_volume 2934.349196
_symmetry_space_group_name_H-M "C 2/C"
_symmetry_group_IT_number 15
_symmetry_cell_setting 'monoclinic'
loop_
_space_group_symop_operation_xyz
x,y,z
-x,y,1/2-z
-x,-y,-z
x,-y,1/2+z
1/2+x,1/2+y,z
1/2-x,1/2+y,1/2-z
1/2-x,1/2-y,-z
1/2+x,1/2-y,1/2+z
loop_
_atom_site_type_symbol
_atom_site_label
_atom_site_fract_x
_atom_site_fract_y
_atom_site_fract_z
Si Si1 0.895012 0.222218 0.884896
Si Si2 0.101168 0.299693 0.752625
Si Si3 0.816104 0.595535 0.924425
Si Si4 0.448955 0.071356 0.616355
Si Si5 0.255498 0.168139 0.556682
Si Si6 0.668476 0.613147 0.884234
Si Si7 0.500000 0.527042 0.250000
Si Si8 0.762421 0.210638 0.179864
O O1 0.877158 0.274897 0.796232
O O2 0.811300 0.131273 0.774728
O O3 0.821321 0.275714 0.853737
O O4 0.065032 0.204665 0.101992
O O5 0.112295 0.209669 0.804262
O O6 0.939775 0.332736 0.570588
O O7 0.215182 0.370694 0.917381
O O8 0.752680 0.587291 0.920368
O O9 0.901515 0.507639 0.014221
O O10 0.500000 0.043602 0.750000
O O11 0.585090 0.126606 0.755912
O O12 0.307486 0.132275 0.444680
O O13 0.250000 0.250000 0.500000
O O14 0.232323 0.206718 0.599674
O O15 0.136097 0.092717 0.407073
O O16 0.543137 0.543491 0.746750
#
# Coordination Sequence:
#
# PCOD9285997 Si02
#       8
#     8   8   8   8   8   8   4   8
#     4  11  25  44  69 100 138 198 235 280 355 449
#     4  10  21  42  69  96 143 190 235 274 367 426
#     4  11  23  43  69 104 141 184 237 294 357 430
#     4  12  24  43  74 107 135 177 242 308 363 410
#     4  12  25  45  72 101 135 190 235 309 365 426
#     4  10  24  37  68 104 141 182 230 307 347 418
#     4  12  26  40  64 114 138 166 246 310 364 418
#     4  12  25  46  72  98 142 185 245 287 364 437
#
# _framework density 20.447464
#
# number of rings (size 3 to 8) (size 9 to 14) (size 15 to 20)
#    0.000    0.800    4.000    3.600    5.600    0.533 
#    0.000    5.333    0.000    0.000    0.000    0.000 
#    0.000    0.000    0.000    0.000    0.000    0.000 
#
# Total GULP energy -167418.101799 kJ/mol
# GULP energy per Si atom -5580.603393 kJ/mol
# Density = 2.040092 g / cm^3
# Si number density = 20.447464 Si / 1000 Ang^3
#
#
#
# Elastic Constant Matrix: (Units=GPa)
#
#
# Indices 1 2 3 4 5 6 
#
# 1 66.0013 8.2760 11.7038 0.0005 7.4913 0.0003
# 2 8.2760 86.9148 35.9802 0.0004 9.1000 0.0002
# 3 11.7038 35.9802 95.6730 0.0011 11.8729 0.0007
# 4 0.0005 0.0004 0.0011 40.9487 0.0005 17.2518
# 5 7.4913 9.1000 11.8729 0.0005 27.8659 0.0010
# 6 0.0003 0.0002 0.0007 17.2518 0.0010 19.5904
#
#
#
# Elastic Compliance Matrix: (Units=1/GPa)
#
#
# Indices 1 2 3 4 5 6 
#
# 1 0.015853 -0.000615 -0.001271 0.000000 -0.003519 0.000000
# 2 -0.000615 0.013804 -0.004833 0.000000 -0.002283 0.000000
# 3 -0.001271 -0.004833 0.012867 0.000000 -0.003562 0.000000
# 4 0.000000 0.000000 0.000000 0.038826 0.000001 -0.034191
# 5 -0.003519 -0.002283 -0.003562 0.000001 0.039096 -0.000002
# 6 0.000000 0.000000 0.000000 -0.034191 -0.000002 0.081155
#
#
# Mechanical properties :
#
#
# Convention : Reuss Voigt Hill
#
# Bulk Modulus (GPa) = 34.37998 40.05656 37.21827
# Shear Modulus (GPa) = 22.24855 30.52292 26.38573
#
# Velocity S-wave (km/s) = 3.30219 3.86780 3.59613
# Velocity P-wave (km/s) = 5.60264 6.29119 5.95687
#
# Compressibility (1/GPa) = 0.02908669
#
# Stress axis : x y z
#
# Youngs Moduli (GPa) = 63.07873 72.44428 77.71612
#
# Poissons Ratio (x) = 0.04453 0.09881
# Poissons Ratio (y) = 0.03878 0.37558
# Poissons Ratio (z) = 0.08020 0.35010
#
# Static dielectric constant tensor:
#      x y z
#    x 1.780330 0.000000 0.021980 
#    y 0.000000 1.744600 0.000000 
#    z 0.021980 0.000000 1.760370 
# 
# From -- ./inp_files/257907.got.cif
#   From: 2010.05.17/outbox.cif.g08.bks.cpg/sg15_129_cif.got.tgz:257907.got - 2010.06.03 18:47:42.
