data_PCOD9285905
_publ_section_title
;
Structure prediction by ZEFSAII (Michael W. Deem and Ramdas Pophale) SiO2 
 PCOD9285905
Probable space group: C 2/C
;
_chemical_formula_sum "Si O2"
_cell_formula_units_Z 40
_cell_length_a 13.169711
_cell_length_b 12.951225
_cell_length_c 9.227795
_cell_angle_alpha 90.000000
_cell_angle_beta 82.412436
_cell_angle_gamma 90.000000
_cell_volume 1560.147647
_symmetry_space_group_name_H-M "C 2/C"
_symmetry_group_IT_number 15
_symmetry_cell_setting 'monoclinic'
loop_
_space_group_symop_operation_xyz
x,y,z
-x,y,1/2-z
-x,-y,-z
x,-y,1/2+z
1/2+x,1/2+y,z
1/2-x,1/2+y,1/2-z
1/2-x,1/2-y,-z
1/2+x,1/2-y,1/2+z
loop_
_atom_site_type_symbol
_atom_site_label
_atom_site_fract_x
_atom_site_fract_y
_atom_site_fract_z
Si Si1 0.893858 0.523215 0.825620
Si Si2 0.083597 0.314341 0.532120
Si Si3 0.297445 0.427186 0.746945
Si Si4 0.305107 0.368713 0.401785
Si Si5 0.595889 0.242122 0.621878
O O1 0.930454 0.431869 0.921863
O O2 0.821609 0.460543 0.731297
O O3 0.845785 0.630704 0.887575
O O4 0.000000 0.566312 0.750000
O O5 0.185432 0.331494 0.409327
O O6 0.130041 0.233759 0.636658
O O7 0.975716 0.266871 0.505835
O O8 0.317223 0.401686 0.571755
O O9 0.329717 0.334856 0.846223
O O10 0.341656 0.535365 0.799127
O O11 0.500000 0.263033 0.750000
#
# Coordination Sequence:
#
# PCOD9285905 Si02
#       5
#     8   8   8   8   8
#     4  10  23  41  68  97 131 173 231 278 328 397
#     4  10  21  42  68  92 134 182 221 274 338 394
#     4  11  24  42  70 101 134 183 220 275 338 402
#     4  10  22  43  70  97 140 177 224 271 340 398
#     4  11  21  41  67  94 133 177 226 270 338 397
#
# _framework density 25.6386
#
# number of rings (size 3 to 8) (size 9 to 14) (size 15 to 20)
#    0.000    1.600    2.000    3.000    5.600    2.400 
#    3.600    5.000    0.000    0.000    0.000    0.000 
#    0.000    0.000    0.000    0.000    0.000    0.000 
#
# Total GULP energy -111366.614539 kJ/mol
# GULP energy per Si atom -5568.330727 kJ/mol
# Density = 2.558025 g / cm^3
# Si number density = 25.638600 Si / 1000 Ang^3
#
#
#
# Elastic Constant Matrix: (Units=GPa)
#
#
# Indices 1 2 3 4 5 6 
#
# 1 85.2630 56.4065 34.8647 0.0000 37.4116 0.0000
# 2 56.4065 182.7838 34.3888 0.0000 31.8662 0.0000
# 3 34.8647 34.3888 64.9021 0.0000 17.1052 0.0000
# 4 0.0000 0.0000 0.0000 31.1160 0.0000 13.1069
# 5 37.4116 31.8662 17.1052 0.0000 44.6672 0.0000
# 6 0.0000 0.0000 0.0000 13.1069 0.0000 44.2686
#
#
#
# Elastic Compliance Matrix: (Units=1/GPa)
#
#
# Indices 1 2 3 4 5 6 
#
# 1 0.022970 -0.003319 -0.006823 0.000000 -0.014258 0.000000
# 2 -0.003319 0.007075 -0.001522 0.000000 -0.001685 0.000000
# 3 -0.006823 -0.001522 0.020118 0.000000 -0.000904 0.000000
# 4 0.000000 0.000000 0.000000 0.036717 0.000000 -0.010871
# 5 -0.014258 -0.001685 -0.000904 0.000000 0.035878 0.000000
# 6 0.000000 0.000000 0.000000 -0.010871 0.000000 0.025808
#
#
# Mechanical properties :
#
#
# Convention : Reuss Voigt Hill
#
# Bulk Modulus (GPa) = 37.26414 64.91875 51.09145
# Shear Modulus (GPa) = 27.64884 37.82962 32.73923
#
# Velocity S-wave (km/s) = 3.28747 3.84538 3.57732
# Velocity P-wave (km/s) = 5.38293 6.71503 6.08554
#
# Compressibility (1/GPa) = 0.02683545
#
# Stress axis : x y z
#
# Youngs Moduli (GPa) = 43.53413 141.33738 49.70788
#
# Poissons Ratio (x) = 0.46912 0.33915
# Poissons Ratio (y) = 0.14450 0.07565
# Poissons Ratio (z) = 0.29703 0.21509
#
# Static dielectric constant tensor:
#      x y z
#    x 2.131010 0.000000 0.023900 
#    y 0.000000 2.066230 0.000000 
#    z 0.023900 0.000000 2.345890 
# 
# From -- ./inp_files/94476.got.cif
#   From: 2010.05.17/outbox.cif.g08.bks.cpg/sg15_48_cif.got.tgz:94476.got - 2010.06.03 18:47:42.
