data_PCOD9285805
_publ_section_title
;
Structure prediction by ZEFSAII (Michael W. Deem and Ramdas Pophale) SiO2 
 PCOD9285805
Probable space group: C 2/C
;
_chemical_formula_sum "Si O2"
_cell_formula_units_Z 44
_cell_length_a 7.047008
_cell_length_b 25.001418
_cell_length_c 11.272119
_cell_angle_alpha 90.000000
_cell_angle_beta 104.279931
_cell_angle_gamma 90.000000
_cell_volume 1924.618008
_symmetry_space_group_name_H-M "C 2/C"
_symmetry_group_IT_number 15
_symmetry_cell_setting 'monoclinic'
loop_
_space_group_symop_operation_xyz
x,y,z
-x,y,1/2-z
-x,-y,-z
x,-y,1/2+z
1/2+x,1/2+y,z
1/2-x,1/2+y,1/2-z
1/2-x,1/2-y,-z
1/2+x,1/2-y,1/2+z
loop_
_atom_site_type_symbol
_atom_site_label
_atom_site_fract_x
_atom_site_fract_y
_atom_site_fract_z
Si Si1 0.175638 0.791105 0.086221
Si Si2 0.295136 0.996891 0.337681
Si Si3 0.257238 0.034957 0.081917
Si Si4 0.760435 0.125533 0.726342
Si Si5 0.262956 0.657983 0.476751
Si Si6 0.000000 0.718343 0.250000
O O1 0.278582 0.844753 0.155168
O O2 0.144770 0.756285 0.199874
O O3 0.250000 0.750000 0.000000
O O4 0.965994 0.810777 0.006281
O O5 0.198873 0.997867 0.454037
O O6 0.317964 0.934238 0.305585
O O7 0.193750 0.020087 0.204751
O O8 0.505795 0.025931 0.380893
O O9 0.205621 0.096080 0.049464
O O10 0.691696 0.159085 0.601650
O O11 0.000000 0.122093 0.750000
O O12 0.111936 0.682947 0.362710
#
# Coordination Sequence:
#
# PCOD9285805 Si02
#       6
#     8   8   8   8   8   4
#     4  11  24  43  65  96 128 177 230 276 333 398
#     4   9  17  34  59  93 117 168 213 262 324 395
#     4   9  18  35  60  86 130 156 212 270 324 390
#     4   9  19  41  64  87 133 181 213 262 342 398
#     4  10  21  42  67  89 129 181 214 268 347 400
#     4  12  22  42  68  90 130 174 220 282 338 396
#
# _framework density 22.861678000000001
#
# number of rings (size 3 to 8) (size 9 to 14) (size 15 to 20)
#    0.000    2.182    2.727    1.636    0.000    0.727 
#   19.636    8.182    0.000    0.000    0.000    0.000 
#    0.000    0.000    0.000    0.000    0.000    0.000 
#
# Total GULP energy -122849.355789 kJ/mol
# GULP energy per Si atom -5584.061627 kJ/mol
# Density = 2.280964 g / cm^3
# Si number density = 22.861678 Si / 1000 Ang^3
#
#
#
# Elastic Constant Matrix: (Units=GPa)
#
#
# Indices 1 2 3 4 5 6 
#
# 1 57.0063 9.5099 22.5330 0.0000 -5.0394 0.0000
# 2 9.5099 65.8054 20.1306 0.0000 -6.0144 0.0000
# 3 22.5330 20.1306 155.3182 0.0000 -2.5568 0.0000
# 4 0.0000 0.0000 0.0000 62.5972 0.0000 13.1733
# 5 -5.0394 -6.0144 -2.5568 0.0000 47.8048 0.0000
# 6 0.0000 0.0000 0.0000 13.1733 0.0000 44.6251
#
#
#
# Elastic Compliance Matrix: (Units=1/GPa)
#
#
# Indices 1 2 3 4 5 6 
#
# 1 0.018976 -0.001831 -0.002489 0.000000 0.001637 0.000000
# 2 -0.001831 0.016172 -0.001802 0.000000 0.001745 0.000000
# 3 -0.002489 -0.001802 0.007031 0.000000 -0.000113 0.000000
# 4 0.000000 0.000000 0.000000 0.017033 0.000000 -0.005028
# 5 0.001637 0.001745 -0.000113 0.000000 0.021304 0.000000
# 6 0.000000 0.000000 0.000000 -0.005028 0.000000 0.023893
#
#
# Mechanical properties :
#
#
# Convention : Reuss Voigt Hill
#
# Bulk Modulus (GPa) = 33.40534 42.49744 37.95139
# Shear Modulus (GPa) = 39.48475 46.06918 42.77697
#
# Velocity S-wave (km/s) = 4.16037 4.49389 4.33034
# Velocity P-wave (km/s) = 6.14181 6.74952 6.45282
#
# Compressibility (1/GPa) = 0.02993533
#
# Stress axis : x y z
#
# Youngs Moduli (GPa) = 52.69863 61.83681 142.22572
#
# Poissons Ratio (x) = 0.11325 0.35395
# Poissons Ratio (y) = 0.09651 0.25623
# Poissons Ratio (z) = 0.13115 0.11140
#
# Static dielectric constant tensor:
#      x y z
#    x 1.774490 0.000000 -0.003850 
#    y 0.000000 1.857530 0.000000 
#    z -0.003850 0.000000 1.853130 
# 
# From -- ./inp_files/79447.got.cif
#   From: 2010.05.17/outbox.cif.g08.bks.cpg/sg15_40_cif.got.tgz:79447.got - 2010.06.03 18:47:42.
