data_PCOD9285501
_publ_section_title
;
Structure prediction by ZEFSAII (Michael W. Deem and Ramdas Pophale) SiO2 
 PCOD9285501
Probable space group: C 2/C
;
_chemical_formula_sum "Si O2"
_cell_formula_units_Z 32
_cell_length_a 5.112542
_cell_length_b 14.426010
_cell_length_c 18.694385
_cell_angle_alpha 90.000000
_cell_angle_beta 92.591082
_cell_angle_gamma 90.000000
_cell_volume 1377.368220
_symmetry_space_group_name_H-M "C 2/C"
_symmetry_group_IT_number 15
_symmetry_cell_setting 'monoclinic'
loop_
_space_group_symop_operation_xyz
x,y,z
-x,y,1/2-z
-x,-y,-z
x,-y,1/2+z
1/2+x,1/2+y,z
1/2-x,1/2+y,1/2-z
1/2-x,1/2-y,-z
1/2+x,1/2-y,1/2+z
loop_
_atom_site_type_symbol
_atom_site_label
_atom_site_fract_x
_atom_site_fract_y
_atom_site_fract_z
Si Si1 0.487607 0.482425 0.886677
Si Si2 0.710648 0.111402 0.990441
Si Si3 0.233331 0.177510 0.202863
Si Si4 0.183434 0.171452 0.914714
O O1 0.279106 0.518620 0.943874
O O2 0.347346 0.424426 0.824593
O O3 0.626871 0.578501 0.867105
O O4 0.697198 0.416113 0.929398
O O5 0.422484 0.144462 0.969017
O O6 0.921356 0.181731 0.958301
O O7 0.500000 0.176843 0.250000
O O8 0.260250 0.242226 0.134015
O O9 0.000000 0.213753 0.250000
#
# Coordination Sequence:
#
# PCOD9285501 Si02
#       4
#     8   8   8   8
#     4   9  23  41  68  95 126 163 215 272 331 380
#     4   9  20  40  70  97 122 157 216 271 346 378
#     4  12  28  43  60  94 134 178 226 253 310 405
#     4  10  21  42  62  95 127 164 206 277 322 384
#
# _framework density 23.232710999999998
#
# number of rings (size 3 to 8) (size 9 to 14) (size 15 to 20)
#    1.500    0.500    0.000    2.250    3.500    3.000 
#    0.000    0.000    0.000    0.000    0.000    0.000 
#    0.000    0.000    0.000    0.000    0.000    0.000 
#
# Total GULP energy -89480.782646 kJ/mol
# GULP energy per Si atom -5592.548915 kJ/mol
# Density = 2.317983 g / cm^3
# Si number density = 23.232711 Si / 1000 Ang^3
#
#
#
# Elastic Constant Matrix: (Units=GPa)
#
#
# Indices 1 2 3 4 5 6 
#
# 1 129.6749 17.7155 35.5383 0.0000 20.4622 0.0000
# 2 17.7155 102.0121 27.2303 0.0000 4.3501 0.0000
# 3 35.5383 27.2303 51.9378 0.0000 17.2807 0.0000
# 4 0.0000 0.0000 0.0000 -119.6893 0.0000 -52.0283
# 5 20.4622 4.3501 17.2807 0.0000 37.4050 0.0000
# 6 0.0000 0.0000 0.0000 -52.0283 0.0000 -9.2745
#
#
#
# Elastic Compliance Matrix: (Units=1/GPa)
#
#
# Indices 1 2 3 4 5 6 
#
# 1 0.009709 -0.000041 -0.005738 0.000000 -0.002655 0.000000
# 2 -0.000041 0.011490 -0.006568 0.000000 0.001721 0.000000
# 3 -0.005738 -0.006568 0.029925 0.000000 -0.009922 0.000000
# 4 0.000000 0.000000 0.000000 0.005808 0.000000 -0.032581
# 5 -0.002655 0.001721 -0.009922 0.000000 0.032571 0.000000
# 6 0.000000 0.000000 0.000000 -0.032581 0.000000 0.074952
#
#
# Mechanical properties :
#
#
# Convention : Reuss Voigt Hill
#
# Bulk Modulus (GPa) = 37.83804 49.39922 43.61863
# Shear Modulus (GPa) = 25.25773 -4.76904 10.24435
#
# Velocity S-wave (km/s) = 3.30079 -1.43429 2.10215
# Velocity P-wave (km/s) = 5.55417 4.30883 4.97066
#
# Compressibility (1/GPa) = 0.02642843
#
# Stress axis : x y z
#
# Youngs Moduli (GPa) = 102.99937 87.03343 33.41675
#
# Poissons Ratio (x) = 0.00358 0.19175
# Poissons Ratio (y) = 0.00423 0.21949
# Poissons Ratio (z) = 0.59103 0.57167
#
# Static dielectric constant tensor:
#      x y z
#    x 1.878720 0.000000 -0.033230 
#    y 0.000000 1.920380 0.000000 
#    z -0.033230 0.000000 1.831940 
# 
# From -- ./inp_files/183897.got.cif
#   From: 2010.05.17/outbox.cif.g08.bks.cpg/sg15_92_cif.got.tgz:183897.got - 2010.06.03 18:47:42.
