data_PCOD9285582
_publ_section_title
;
Structure prediction by ZEFSAII (Michael W. Deem and Ramdas Pophale) SiO2 
 PCOD9285582
Probable space group: C 2/C
;
_chemical_formula_sum "Si O2"
_cell_formula_units_Z 52
_cell_length_a 12.873478
_cell_length_b 25.579004
_cell_length_c 9.484674
_cell_angle_alpha 90.000000
_cell_angle_beta 125.082474
_cell_angle_gamma 90.000000
_cell_volume 2555.806984
_symmetry_space_group_name_H-M "C 2/C"
_symmetry_group_IT_number 15
_symmetry_cell_setting 'monoclinic'
loop_
_space_group_symop_operation_xyz
x,y,z
-x,y,1/2-z
-x,-y,-z
x,-y,1/2+z
1/2+x,1/2+y,z
1/2-x,1/2+y,1/2-z
1/2-x,1/2-y,-z
1/2+x,1/2-y,1/2+z
loop_
_atom_site_type_symbol
_atom_site_label
_atom_site_fract_x
_atom_site_fract_y
_atom_site_fract_z
Si Si1 0.681376 0.859523 0.610042
Si Si2 0.641310 0.783658 0.335803
Si Si3 0.500000 0.631152 0.750000
Si Si4 0.149946 0.047183 0.363987
Si Si5 0.263149 0.306883 0.942460
Si Si6 0.314274 0.559397 0.778311
Si Si7 0.606465 0.856286 0.047675
O O1 0.652605 0.836731 0.434089
O O2 0.773518 0.908320 0.660925
O O3 0.744863 0.815783 0.761697
O O4 0.540580 0.869924 0.556972
O O5 0.500000 0.760110 0.250000
O O6 0.750000 0.750000 0.500000
O O7 0.642219 0.806201 0.177071
O O8 0.394487 0.667248 0.594588
O O9 0.431434 0.595303 0.814161
O O10 0.183860 0.045869 0.555620
O O11 0.000000 0.058138 0.250000
O O12 0.178076 0.992516 0.309586
O O13 0.250000 0.250000 0.000000
O O14 0.151963 0.339975 0.929205
O O15 0.190696 0.594328 0.655672
#
# Coordination Sequence:
#
# PCOD9285582 Si02
#       7
#     8   8   4   8   8   8   8
#     4  11  24  42  66  97 133 177 221 278 335 410
#     4  10  21  42  64  92 131 173 217 277 336 400
#     4  10  24  44  70  96 144 172 220 286 340 396
#     4  12  25  41  71  97 133 173 230 279 349 407
#     4  11  24  42  68  99 133 180 228 272 335 403
#     4  11  24  44  67  98 133 175 222 287 342 405
#     4  10  23  44  64  92 140 170 220 284 335 402
#
# _framework density 20.345824
#
# number of rings (size 3 to 8) (size 9 to 14) (size 15 to 20)
#    0.000    1.231    2.308    2.769    6.462    1.231 
#    8.308    0.000    0.000    0.000    0.000    0.000 
#    0.000    0.000    0.000    0.000    0.000    0.000 
#
# Total GULP energy -145116.218196 kJ/mol
# GULP energy per Si atom -5581.393008 kJ/mol
# Density = 2.029952 g / cm^3
# Si number density = 20.345824 Si / 1000 Ang^3
#
#
#
# Elastic Constant Matrix: (Units=GPa)
#
#
# Indices 1 2 3 4 5 6 
#
# 1 98.4576 59.4415 52.2884 0.0000 24.2791 0.0000
# 2 59.4415 112.5849 55.2550 0.0000 15.8408 0.0000
# 3 52.2884 55.2550 102.5555 0.0000 -13.5696 0.0000
# 4 0.0000 0.0000 0.0000 21.6645 0.0000 -5.0589
# 5 24.2791 15.8408 -13.5696 0.0000 43.2397 0.0000
# 6 0.0000 0.0000 0.0000 -5.0589 0.0000 30.6519
#
#
#
# Elastic Compliance Matrix: (Units=1/GPa)
#
#
# Indices 1 2 3 4 5 6 
#
# 1 0.021943 -0.004346 -0.010710 0.000000 -0.014090 0.000000
# 2 -0.004346 0.015171 -0.006646 0.000000 -0.005203 0.000000
# 3 -0.010710 -0.006646 0.020773 0.000000 0.014968 0.000000
# 4 0.000000 0.000000 0.000000 0.048009 0.000000 0.007924
# 5 -0.014090 -0.005203 0.014968 0.000000 0.037642 0.000000
# 6 0.000000 0.000000 0.000000 0.007924 0.000000 0.033932
#
#
# Mechanical properties :
#
#
# Convention : Reuss Voigt Hill
#
# Bulk Modulus (GPa) = 69.05613 71.95197 70.50405
# Shear Modulus (GPa) = 22.15303 28.88541 25.51922
#
# Velocity S-wave (km/s) = 3.30331 3.77201 3.54541
# Velocity P-wave (km/s) = 6.96879 7.37645 7.17551
#
# Compressibility (1/GPa) = 0.01448097
#
# Stress axis : x y z
#
# Youngs Moduli (GPa) = 45.57209 65.91568 48.13977
#
# Poissons Ratio (x) = 0.28650 0.51560
# Poissons Ratio (y) = 0.19807 0.31995
# Poissons Ratio (z) = 0.48810 0.43809
#
# Static dielectric constant tensor:
#      x y z
#    x 1.733720 0.000000 0.004130 
#    y 0.000000 1.662900 0.000000 
#    z 0.004130 0.000000 1.745180 
# 
# From -- ./inp_files/34455.got.cif
#   From: 2010.05.17/outbox.cif.g08.bks.cpg/sg15_18_cif.got.tgz:34455.got - 2010.06.03 18:47:42.
