data_PCOD9285419
_publ_section_title
;
Structure prediction by ZEFSAII (Michael W. Deem and Ramdas Pophale) SiO2 
 PCOD9285419
Probable space group: C 2/C
;
_chemical_formula_sum "Si O2"
_cell_formula_units_Z 60
_cell_length_a 17.909221
_cell_length_b 17.973731
_cell_length_c 15.647234
_cell_angle_alpha 90.000000
_cell_angle_beta 138.962537
_cell_angle_gamma 90.000000
_cell_volume 3306.906196
_symmetry_space_group_name_H-M "C 2/C"
_symmetry_group_IT_number 15
_symmetry_cell_setting 'monoclinic'
loop_
_space_group_symop_operation_xyz
x,y,z
-x,y,1/2-z
-x,-y,-z
x,-y,1/2+z
1/2+x,1/2+y,z
1/2-x,1/2+y,1/2-z
1/2-x,1/2-y,-z
1/2+x,1/2-y,1/2+z
loop_
_atom_site_type_symbol
_atom_site_label
_atom_site_fract_x
_atom_site_fract_y
_atom_site_fract_z
Si Si1 0.995393 0.577325 0.444098
Si Si2 0.748099 0.574621 0.155945
Si Si3 0.906674 0.322534 0.325927
Si Si4 0.167683 0.537269 0.447351
Si Si5 0.678422 0.402807 0.072853
Si Si6 0.072479 0.851606 0.623998
Si Si7 0.874163 0.052998 0.162893
Si Si8 0.000000 0.590713 0.750000
O O1 0.049452 0.639865 0.549794
O O2 0.071812 0.570717 0.425181
O O3 0.000000 0.500000 0.500000
O O4 0.863897 0.587698 0.307887
O O5 0.783470 0.586145 0.087698
O O6 0.707224 0.488048 0.124272
O O7 0.650529 0.625107 0.111754
O O8 0.780140 0.350347 0.192390
O O9 0.917350 0.234754 0.344157
O O10 0.984577 0.357739 0.318576
O O11 0.276632 0.507801 0.593011
O O12 0.106162 0.465071 0.351965
O O13 0.557536 0.375861 0.004251
O O14 0.661819 0.403431 0.955025
O O15 0.114566 0.896745 0.743998
O O16 0.000000 0.021811 0.250000
#
# Coordination Sequence:
#
# PCOD9285419 Si02
#       8
#     8   8   8   8   8   8   8   4
#     4  12  20  37  63  94 117 153 214 259 308 367
#     4  11  21  40  63  87 119 164 212 256 305 362
#     4  12  26  37  60  96 129 161 201 259 322 377
#     4  11  19  39  64  91 116 155 210 270 303 352
#     4  10  21  42  57  87 124 161 211 252 299 370
#     4  11  26  38  59  88 130 171 196 250 317 384
#     4   9  20  36  55  86 118 161 203 236 306 373
#     4  12  20  36  60  94 128 150 198 262 322 356
#
# _framework density 18.143847000000001
#
# number of rings (size 3 to 8) (size 9 to 14) (size 15 to 20)
#    0.000    1.067    6.667    1.200    4.667    0.533 
#    0.000    0.667    0.000    0.000    0.000    0.000 
#    0.000    0.000    0.000    0.000    0.000    0.000 
#
# Total GULP energy -167478.472047 kJ/mol
# GULP energy per Si atom -5582.615735 kJ/mol
# Density = 1.810255 g / cm^3
# Si number density = 18.143847 Si / 1000 Ang^3
#
#
#
# Elastic Constant Matrix: (Units=GPa)
#
#
# Indices 1 2 3 4 5 6 
#
# 1 117.1347 20.6128 18.5017 0.0000 0.0237 0.0000
# 2 20.6128 26.5271 12.0019 0.0000 -4.2543 0.0000
# 3 18.5017 12.0019 90.9557 0.0000 14.4069 0.0000
# 4 0.0000 0.0000 0.0000 11.2286 0.0000 -4.8272
# 5 0.0237 -4.2543 14.4069 0.0000 24.3710 0.0000
# 6 0.0000 0.0000 0.0000 -4.8272 0.0000 11.7839
#
#
#
# Elastic Compliance Matrix: (Units=1/GPa)
#
#
# Indices 1 2 3 4 5 6 
#
# 1 0.009999 -0.007473 -0.000926 0.000000 -0.000767 0.000000
# 2 -0.007473 0.048637 -0.006889 0.000000 0.012570 0.000000
# 3 -0.000926 -0.006889 0.013551 0.000000 -0.009212 0.000000
# 4 0.000000 0.000000 0.000000 0.108094 0.000000 0.044280
# 5 -0.000767 0.012570 -0.009212 0.000000 0.048673 0.000000
# 6 0.000000 0.000000 0.000000 0.044280 0.000000 0.103000
#
#
# Mechanical properties :
#
#
# Convention : Reuss Voigt Hill
#
# Bulk Modulus (GPa) = 24.03258 37.42781 30.73020
# Shear Modulus (GPa) = 13.28370 21.71011 17.49691
#
# Velocity S-wave (km/s) = 2.70873 3.46288 3.10876
# Velocity P-wave (km/s) = 4.80180 6.05490 5.46439
#
# Compressibility (1/GPa) = 0.04161018
#
# Stress axis : x y z
#
# Youngs Moduli (GPa) = 100.01224 20.56042 73.79571
#
# Poissons Ratio (x) = 0.15366 0.06836
# Poissons Ratio (y) = 0.74743 0.50835
# Poissons Ratio (z) = 0.09264 0.14163
#
# Static dielectric constant tensor:
#      x y z
#    x 1.654280 0.000000 -0.003190 
#    y 0.000000 1.592900 0.000000 
#    z -0.003190 0.000000 1.641870 
# 
# From -- ./inp_files/163286.got.cif
#   From: 2010.05.17/outbox.cif.g08.bks.cpg/sg15_82_cif.got.tgz:163286.got - 2010.06.03 18:47:42.
