data_PCOD9285432
_publ_section_title
;
Structure prediction by ZEFSAII (Michael W. Deem and Ramdas Pophale) SiO2 
 PCOD9285432
Probable space group: C 2/C
;
_chemical_formula_sum "Si O2"
_cell_formula_units_Z 56
_cell_length_a 10.866746
_cell_length_b 8.863430
_cell_length_c 28.269534
_cell_angle_alpha 90.000000
_cell_angle_beta 69.155413
_cell_angle_gamma 90.000000
_cell_volume 2544.615020
_symmetry_space_group_name_H-M "C 2/C"
_symmetry_group_IT_number 15
_symmetry_cell_setting 'monoclinic'
loop_
_space_group_symop_operation_xyz
x,y,z
-x,y,1/2-z
-x,-y,-z
x,-y,1/2+z
1/2+x,1/2+y,z
1/2-x,1/2+y,1/2-z
1/2-x,1/2-y,-z
1/2+x,1/2-y,1/2+z
loop_
_atom_site_type_symbol
_atom_site_label
_atom_site_fract_x
_atom_site_fract_y
_atom_site_fract_z
Si Si1 0.276352 0.962254 0.570689
Si Si2 0.128027 0.244691 0.612574
Si Si3 0.891989 0.681265 0.208476
Si Si4 0.500000 0.075055 0.750000
Si Si5 0.293799 0.542863 0.027010
Si Si6 0.353971 0.322186 0.828170
Si Si7 0.026768 0.211455 0.953484
Si Si8 0.500000 0.431087 0.250000
O O1 0.181286 0.845726 0.612189
O O2 0.417150 0.880241 0.554633
O O3 0.243684 0.120518 0.601726
O O4 0.249221 0.988458 0.519098
O O5 0.184404 0.384334 0.575014
O O6 0.040718 0.302566 0.667382
O O7 0.021049 0.167531 0.592250
O O8 0.782294 0.677339 0.183164
O O9 0.892867 0.532325 0.240024
O O10 0.886716 0.826388 0.243064
O O11 0.434330 0.177652 0.799473
O O12 0.364398 0.403946 0.042720
O O13 0.400056 0.676981 0.003168
O O14 0.440424 0.462895 0.798472
#
# Coordination Sequence:
#
# PCOD9285432 Si02
#       8
#     8   8   8   4   8   8   8   4
#     4  11  21  39  64  90 122 164 203 248 301 360
#     4  11  23  39  62  92 124 160 204 250 301 364
#     4  11  22  42  63  90 121 158 199 253 312 362
#     4  10  26  42  64  90 118 156 204 258 304 370
#     4  10  24  40  60  91 127 166 203 248 298 358
#     4  11  22  42  64  91 118 157 204 252 310 363
#     4  10  21  42  60  85 127 161 200 248 295 348
#     4  10  22  42  66  84 122 156 198 258 310 366
#
# _framework density 22.007259000000001
#
# number of rings (size 3 to 8) (size 9 to 14) (size 15 to 20)
#    0.000    1.429    2.857    3.000    2.000    2.286 
#    0.000    2.857    0.000    0.000    0.000    0.000 
#    0.000    0.000    0.000    0.000    0.000    0.000 
#
# Total GULP energy -156304.744099 kJ/mol
# GULP energy per Si atom -5582.312289 kJ/mol
# Density = 2.195717 g / cm^3
# Si number density = 22.007259 Si / 1000 Ang^3
#
#
#
# Elastic Constant Matrix: (Units=GPa)
#
#
# Indices 1 2 3 4 5 6 
#
# 1 57.1465 30.4761 -4.2755 0.0000 -1.8310 0.0000
# 2 30.4761 86.1988 12.0403 0.0000 -1.3426 0.0000
# 3 -4.2755 12.0403 57.6247 0.0000 -9.9958 0.0000
# 4 0.0000 0.0000 0.0000 39.2295 0.0000 -17.5379
# 5 -1.8310 -1.3426 -9.9958 0.0000 20.1300 0.0000
# 6 0.0000 0.0000 0.0000 -17.5379 0.0000 56.7106
#
#
#
# Elastic Compliance Matrix: (Units=1/GPa)
#
#
# Indices 1 2 3 4 5 6 
#
# 1 0.022408 -0.008431 0.004027 0.000000 0.003475 0.000000
# 2 -0.008431 0.015126 -0.004097 0.000000 -0.001792 0.000000
# 3 0.004027 -0.004097 0.020271 0.000000 0.010159 0.000000
# 4 0.000000 0.000000 0.000000 0.029581 0.000000 0.009148
# 5 0.003475 -0.001792 0.010159 0.000000 0.054918 0.000000
# 6 0.000000 0.000000 0.000000 0.009148 0.000000 0.020462
#
#
# Mechanical properties :
#
#
# Convention : Reuss Voigt Hill
#
# Bulk Modulus (GPa) = 24.50801 30.82799 27.66800
# Shear Modulus (GPa) = 25.85745 34.06263 29.96004
#
# Velocity S-wave (km/s) = 3.43147 3.93847 3.69368
# Velocity P-wave (km/s) = 5.18271 5.89241 5.54892
#
# Compressibility (1/GPa) = 0.04080299
#
# Stress axis : x y z
#
# Youngs Moduli (GPa) = 44.62782 66.11076 49.33247
#
# Poissons Ratio (x) = 0.55736 -0.19866
# Poissons Ratio (y) = 0.37624 0.20211
# Poissons Ratio (z) = -0.17971 0.27085
#
# Static dielectric constant tensor:
#      x y z
#    x 1.807630 0.000000 -0.010830 
#    y 0.000000 1.842360 0.000000 
#    z -0.010830 0.000000 1.822700 
# 
# From -- ./inp_files/291553.got.cif
#   From: 2010.05.17/outbox.cif.g08.bks.cpg/sg15_146_cif.got.tgz:291553.got - 2010.06.03 18:47:42.
