data_PCOD9285910
_publ_section_title
;
Structure prediction by ZEFSAII (Michael W. Deem and Ramdas Pophale) SiO2 
 PCOD9285910
Probable space group: C 2/C
;
_chemical_formula_sum "Si O2"
_cell_formula_units_Z 40
_cell_length_a 14.173917
_cell_length_b 12.663508
_cell_length_c 12.609896
_cell_angle_alpha 90.000000
_cell_angle_beta 55.374150
_cell_angle_gamma 90.000000
_cell_volume 1862.481530
_symmetry_space_group_name_H-M "C 2/C"
_symmetry_group_IT_number 15
_symmetry_cell_setting 'monoclinic'
loop_
_space_group_symop_operation_xyz
x,y,z
-x,y,1/2-z
-x,-y,-z
x,-y,1/2+z
1/2+x,1/2+y,z
1/2-x,1/2+y,1/2-z
1/2-x,1/2-y,-z
1/2+x,1/2-y,1/2+z
loop_
_atom_site_type_symbol
_atom_site_label
_atom_site_fract_x
_atom_site_fract_y
_atom_site_fract_z
Si Si1 0.472493 0.375148 0.936629
Si Si2 0.500000 0.559305 0.750000
Si Si3 0.895724 0.550134 0.633951
Si Si4 0.305339 0.469073 0.617652
Si Si5 0.000000 0.693235 0.750000
Si Si6 0.260099 0.640203 0.937514
O O1 0.485363 0.478613 0.855145
O O2 0.594522 0.382509 0.920382
O O3 0.452862 0.275463 0.871470
O O4 0.365127 0.414349 0.075517
O O5 0.386838 0.626769 0.810159
O O6 0.796220 0.467630 0.731859
O O7 0.834027 0.626767 0.590993
O O8 0.000000 0.500000 0.500000
O O9 0.928642 0.613891 0.719680
O O10 0.251310 0.446151 0.537123
O O11 0.250000 0.750000 0.000000
#
# Coordination Sequence:
#
# PCOD9285910 Si02
#       6
#     8   4   8   8   4   8
#     4   9  19  41  70  96 123 163 230 281 321 379
#     4   9  18  38  67  92 126 166 219 280 328 381
#     4  12  26  45  62  96 141 180 209 267 348 404
#     4  10  21  42  68  93 131 175 213 280 333 380
#     4  11  24  44  67 102 132 176 231 268 332 411
#     4  11  23  40  65  98 129 173 223 268 331 396
#
# _framework density 21.476721999999999
#
# number of rings (size 3 to 8) (size 9 to 14) (size 15 to 20)
#    0.000    1.600    2.000    2.400    0.000    2.400 
#    7.200    0.000    0.000    0.000    0.000    0.000 
#    0.000    0.000    0.000    0.000    0.000    0.000 
#
# Total GULP energy -111420.323806 kJ/mol
# GULP energy per Si atom -5571.016190 kJ/mol
# Density = 2.142784 g / cm^3
# Si number density = 21.476722 Si / 1000 Ang^3
#
#
#
# Elastic Constant Matrix: (Units=GPa)
#
#
# Indices 1 2 3 4 5 6 
#
# 1 158.2358 44.2945 37.3724 0.0000 17.9919 0.0000
# 2 44.2945 69.3256 22.7760 0.0000 -7.8208 0.0000
# 3 37.3724 22.7760 113.4977 0.0000 -16.3364 0.0000
# 4 0.0000 0.0000 0.0000 24.2612 0.0000 20.5544
# 5 17.9919 -7.8208 -16.3364 0.0000 42.1691 0.0000
# 6 0.0000 0.0000 0.0000 20.5544 0.0000 27.8188
#
#
#
# Elastic Compliance Matrix: (Units=1/GPa)
#
#
# Indices 1 2 3 4 5 6 
#
# 1 0.009262 -0.005690 -0.002784 0.000000 -0.006085 0.000000
# 2 -0.005690 0.019063 -0.001158 0.000000 0.005514 0.000000
# 3 -0.002784 -0.001158 0.010696 0.000000 0.005117 0.000000
# 4 0.000000 0.000000 0.000000 0.110202 0.000000 -0.081424
# 5 -0.006085 0.005514 0.005117 0.000000 0.029315 0.000000
# 6 0.000000 0.000000 0.000000 -0.081424 0.000000 0.096108
#
#
# Mechanical properties :
#
#
# Convention : Reuss Voigt Hill
#
# Bulk Modulus (GPa) = 50.61400 61.10499 55.85949
# Shear Modulus (GPa) = 16.63920 34.62423 25.63171
#
# Velocity S-wave (km/s) = 2.78646 4.01955 3.45840
# Velocity P-wave (km/s) = 5.82843 7.07501 6.48176
#
# Compressibility (1/GPa) = 0.01975738
#
# Stress axis : x y z
#
# Youngs Moduli (GPa) = 107.97081 52.45892 93.49011
#
# Poissons Ratio (x) = 0.29847 0.26026
# Poissons Ratio (y) = 0.61431 0.10828
# Poissons Ratio (z) = 0.30057 0.06076
#
# Static dielectric constant tensor:
#      x y z
#    x 1.875640 0.000000 0.056590 
#    y 0.000000 1.837230 0.000000 
#    z 0.056590 0.000000 2.060200 
# 
# From -- ./inp_files/151695.got.cif
#   From: 2010.05.17/outbox.cif.g08.bks.cpg/sg15_76_cif.got.tgz:151695.got - 2010.06.03 18:47:42.
