data_PCOD9285499
_publ_section_title
;
Structure prediction by ZEFSAII (Michael W. Deem and Ramdas Pophale) SiO2 
 PCOD9285499
Probable space group: C 2/C
;
_chemical_formula_sum "Si O2"
_cell_formula_units_Z 36
_cell_length_a 12.407382
_cell_length_b 24.806641
_cell_length_c 5.367770
_cell_angle_alpha 90.000000
_cell_angle_beta 93.899541
_cell_angle_gamma 90.000000
_cell_volume 1648.296665
_symmetry_space_group_name_H-M "C 2/C"
_symmetry_group_IT_number 15
_symmetry_cell_setting 'monoclinic'
loop_
_space_group_symop_operation_xyz
x,y,z
-x,y,1/2-z
-x,-y,-z
x,-y,1/2+z
1/2+x,1/2+y,z
1/2-x,1/2+y,1/2-z
1/2-x,1/2-y,-z
1/2+x,1/2-y,1/2+z
loop_
_atom_site_type_symbol
_atom_site_label
_atom_site_fract_x
_atom_site_fract_y
_atom_site_fract_z
Si Si1 0.500000 0.314196 0.750000
Si Si2 0.621379 0.882083 0.380471
Si Si3 0.500000 0.830705 0.750000
Si Si4 0.653418 0.772153 0.148863
Si Si5 0.305828 0.464693 0.323332
Si Si6 0.500000 0.617217 0.750000
O O1 0.395220 0.276062 0.695847
O O2 0.520986 0.347847 0.502164
O O3 0.500000 0.886791 0.250000
O O4 0.594843 0.869238 0.663426
O O5 0.678705 0.827100 0.297528
O O6 0.693108 0.932508 0.322604
O O7 0.445706 0.792018 0.540421
O O8 0.750000 0.750000 0.000000
O O9 0.314846 0.497027 0.583845
O O10 0.399625 0.420765 0.304985
#
# Coordination Sequence:
#
# PCOD9285499 Si02
#       6
#     4   8   4   8   8   4
#     4  12  24  43  70 109 139 191 222 270 364 420
#     4  10  24  43  67  99 142 178 230 296 338 423
#     4  10  21  42  62  93 149 178 224 289 340 400
#     4  11  23  39  65 101 144 186 228 275 346 427
#     4  12  28  49  75 101 134 188 240 301 363 400
#     4  12  27  47  72 104 144 175 246 295 342 432
#
# _framework density 21.840731000000002
#
# number of rings (size 3 to 8) (size 9 to 14) (size 15 to 20)
#    0.000    0.889    3.333    4.000    9.333    1.778 
#    0.000    0.000    0.000    0.000    0.000    0.000 
#    0.000    0.000    0.000    0.000    0.000    0.000 
#
# Total GULP energy -100609.589225 kJ/mol
# GULP energy per Si atom -5589.421624 kJ/mol
# Density = 2.179102 g / cm^3
# Si number density = 21.840731 Si / 1000 Ang^3
#
#
#
# Elastic Constant Matrix: (Units=GPa)
#
#
# Indices 1 2 3 4 5 6 
#
# 1 44.5823 -15.8057 -17.4354 0.0000 -19.1502 0.0000
# 2 -15.8057 33.0688 7.2965 0.0000 -2.2606 0.0000
# 3 -17.4354 7.2965 93.5492 0.0000 -15.4729 0.0000
# 4 0.0000 0.0000 0.0000 156.0765 0.0000 27.9126
# 5 -19.1502 -2.2606 -15.4729 0.0000 37.5149 0.0000
# 6 0.0000 0.0000 0.0000 27.9126 0.0000 70.9100
#
#
#
# Elastic Compliance Matrix: (Units=1/GPa)
#
#
# Indices 1 2 3 4 5 6 
#
# 1 0.048991 0.022800 0.012574 0.000000 0.031568 0.000000
# 2 0.022800 0.041410 0.003603 0.000000 0.015620 0.000000
# 3 0.012574 0.003603 0.014864 0.000000 0.012766 0.000000
# 4 0.000000 0.000000 0.000000 0.006892 0.000000 -0.002713
# 5 0.031568 0.015620 0.012766 0.000000 0.048977 0.000000
# 6 0.000000 0.000000 0.000000 -0.002713 0.000000 0.015170
#
#
# Mechanical properties :
#
#
# Convention : Reuss Voigt Hill
#
# Bulk Modulus (GPa) = 5.45798 13.25678 9.35738
# Shear Modulus (GPa) = 31.36283 66.04328 48.70306
#
# Velocity S-wave (km/s) = 3.79354 5.50493 4.72732
# Velocity P-wave (km/s) = 4.65751 6.81825 5.83870
#
# Compressibility (1/GPa) = 0.18321794
#
# Stress axis : x y z
#
# Youngs Moduli (GPa) = 20.41187 24.14863 67.27883
#
# Poissons Ratio (x) = -0.55058 -0.84596
# Poissons Ratio (y) = -0.46538 -0.24241
# Poissons Ratio (z) = -0.25666 -0.08701
#
# Static dielectric constant tensor:
#      x y z
#    x 1.794920 0.000000 0.009520 
#    y 0.000000 1.796440 0.000000 
#    z 0.009520 0.000000 1.941210 
# 
# From -- ./inp_files/4315.got.cif
#   From: 2010.05.17/outbox.cif.g08.bks.cpg/sg15_3_cif.got.tgz:4315.got - 2010.06.03 18:47:42.
