data_PCOD9285546
_publ_section_title
;
Structure prediction by ZEFSAII (Michael W. Deem and Ramdas Pophale) SiO2 
 PCOD9285546
Probable space group: C 2/C
;
_chemical_formula_sum "Si O2"
_cell_formula_units_Z 40
_cell_length_a 26.840347
_cell_length_b 5.197472
_cell_length_c 10.972790
_cell_angle_alpha 90.000000
_cell_angle_beta 85.253445
_cell_angle_gamma 90.000000
_cell_volume 1525.475969
_symmetry_space_group_name_H-M "C 2/C"
_symmetry_group_IT_number 15
_symmetry_cell_setting 'monoclinic'
loop_
_space_group_symop_operation_xyz
x,y,z
-x,y,1/2-z
-x,-y,-z
x,-y,1/2+z
1/2+x,1/2+y,z
1/2-x,1/2+y,1/2-z
1/2-x,1/2-y,-z
1/2+x,1/2-y,1/2+z
loop_
_atom_site_type_symbol
_atom_site_label
_atom_site_fract_x
_atom_site_fract_y
_atom_site_fract_z
Si Si1 0.011489 0.414791 0.863616
Si Si2 0.089423 0.124626 0.623243
Si Si3 0.826561 0.428835 0.008762
Si Si4 0.257846 0.596860 0.169812
Si Si5 0.384588 0.666340 0.628533
O O1 0.069745 0.359442 0.849162
O O2 0.000000 0.596234 0.750000
O O3 0.968908 0.194316 0.854183
O O4 0.000000 0.500000 0.000000
O O5 0.124563 0.369406 0.581548
O O6 0.114014 0.013430 0.742873
O O7 0.096327 0.963406 0.499011
O O8 0.808935 0.179085 0.090209
O O9 0.838640 0.652942 0.100852
O O10 0.781552 0.486080 0.925848
O O11 0.259558 0.369282 0.267608
#
# Coordination Sequence:
#
# PCOD9285546 Si02
#       5
#     8   8   8   8   8
#     4  10  21  42  64 101 147 194 243 306 373 453
#     4  11  25  42  73 105 147 195 249 311 374 463
#     4  11  26  45  75 105 145 197 251 317 381 467
#     4  11  28  49  75 107 154 196 257 323 398 458
#     4  11  25  44  71 109 147 195 253 303 385 450
#
# _framework density 26.221326000000001
#
# number of rings (size 3 to 8) (size 9 to 14) (size 15 to 20)
#    0.000    1.200    2.000    1.800    8.400    4.800 
#    0.000    0.000    0.000    0.000    0.000    0.000 
#    0.000    0.000    0.000    0.000    0.000    0.000 
#
# Total GULP energy -111801.011257 kJ/mol
# GULP energy per Si atom -5590.050563 kJ/mol
# Density = 2.616164 g / cm^3
# Si number density = 26.221326 Si / 1000 Ang^3
#
#
#
# Elastic Constant Matrix: (Units=GPa)
#
#
# Indices 1 2 3 4 5 6 
#
# 1 108.3782 28.5201 27.2319 0.0000 -19.8866 0.0000
# 2 28.5201 76.5490 43.0513 0.0000 9.7660 0.0000
# 3 27.2319 43.0513 229.7258 0.0000 27.7724 0.0000
# 4 0.0000 0.0000 0.0000 37.5187 0.0000 -10.6267
# 5 -19.8866 9.7660 27.7724 0.0000 56.3065 0.0000
# 6 0.0000 0.0000 0.0000 -10.6267 0.0000 19.0529
#
#
#
# Elastic Compliance Matrix: (Units=1/GPa)
#
#
# Indices 1 2 3 4 5 6 
#
# 1 0.011693 -0.004365 -0.001233 0.000000 0.005495 0.000000
# 2 -0.004365 0.016316 -0.002139 0.000000 -0.003316 0.000000
# 3 -0.001233 -0.002139 0.005219 0.000000 -0.002638 0.000000
# 4 0.000000 0.000000 0.000000 0.031654 0.000000 0.017655
# 5 0.005495 -0.003316 -0.002638 0.000000 0.021577 0.000000
# 6 0.000000 0.000000 0.000000 0.017655 0.000000 0.062332
#
#
# Mechanical properties :
#
#
# Convention : Reuss Voigt Hill
#
# Bulk Modulus (GPa) = 56.32050 68.02885 62.17468
# Shear Modulus (GPa) = 29.38016 43.63227 36.50621
#
# Velocity S-wave (km/s) = 3.35097 4.08364 3.73531
# Velocity P-wave (km/s) = 6.04132 6.94516 6.50895
#
# Compressibility (1/GPa) = 0.01775552
#
# Stress axis : x y z
#
# Youngs Moduli (GPa) = 85.51803 61.28995 191.60696
#
# Poissons Ratio (x) = 0.26750 0.23616
# Poissons Ratio (y) = 0.37325 0.40992
# Poissons Ratio (z) = 0.10540 0.13112
#
# Static dielectric constant tensor:
#      x y z
#    x 2.083200 0.000000 -0.044780 
#    y 0.000000 2.137360 0.000000 
#    z -0.044780 0.000000 2.169630 
# 
# From -- ./inp_files/120871.got.cif
#   From: 2010.05.17/outbox.cif.g08.bks.cpg/sg15_61_cif.got.tgz:120871.got - 2010.06.03 18:47:42.
