data_PCOD9285381
_publ_section_title
;
Structure prediction by ZEFSAII (Michael W. Deem and Ramdas Pophale) SiO2 
 PCOD9285381
Probable space group: C 2/C
;
_chemical_formula_sum "Si O2"
_cell_formula_units_Z 36
_cell_length_a 8.700908
_cell_length_b 16.601856
_cell_length_c 13.544658
_cell_angle_alpha 90.000000
_cell_angle_beta 133.839959
_cell_angle_gamma 90.000000
_cell_volume 1411.209696
_symmetry_space_group_name_H-M "C 2/C"
_symmetry_group_IT_number 15
_symmetry_cell_setting 'monoclinic'
loop_
_space_group_symop_operation_xyz
x,y,z
-x,y,1/2-z
-x,-y,-z
x,-y,1/2+z
1/2+x,1/2+y,z
1/2-x,1/2+y,1/2-z
1/2-x,1/2-y,-z
1/2+x,1/2-y,1/2+z
loop_
_atom_site_type_symbol
_atom_site_label
_atom_site_fract_x
_atom_site_fract_y
_atom_site_fract_z
Si Si1 0.500000 0.130711 0.250000
Si Si2 0.061149 0.615473 0.992212
Si Si3 0.820597 0.081041 0.537696
Si Si4 0.000000 0.958338 0.750000
Si Si5 0.083785 0.239726 0.619201
Si Si6 0.000000 0.359230 0.250000
O O1 0.693439 0.078357 0.378777
O O2 0.421230 0.190919 0.300586
O O3 0.287965 0.593862 0.141422
O O4 0.024772 0.711024 0.993963
O O5 0.063337 0.594753 0.878068
O O6 0.863367 0.575448 0.960649
O O7 0.923377 0.169756 0.581372
O O8 0.993031 0.016623 0.650377
O O9 0.302377 0.195544 0.694210
#
# Coordination Sequence:
#
# PCOD9285381 Si02
#       6
#     4   8   8   4   8   4
#     4  10  21  41  72 101 131 182 240 282 335 417
#     4  11  25  44  68 102 143 183 230 286 347 412
#     4  11  24  45  71  97 137 187 234 281 343 419
#     4  12  26  46  68 104 148 182 226 296 350 400
#     4  11  22  43  72 107 137 178 234 292 342 413
#     4  12  23  39  68 103 139 184 230 284 347 409
#
# _framework density 25.510028999999999
#
# number of rings (size 3 to 8) (size 9 to 14) (size 15 to 20)
#    0.000    0.889    0.000    9.333    0.000    4.444 
#    0.000   11.111    0.000    0.000    0.000    0.000 
#    0.000    0.000    0.000    0.000    0.000    0.000 
#
# Total GULP energy -100810.402404 kJ/mol
# GULP energy per Si atom -5600.577911 kJ/mol
# Density = 2.545197 g / cm^3
# Si number density = 25.510029 Si / 1000 Ang^3
#
#
#
# Elastic Constant Matrix: (Units=GPa)
#
#
# Indices 1 2 3 4 5 6 
#
# 1 129.3597 52.1665 85.5137 0.0000 0.6630 0.0000
# 2 52.1665 85.4689 15.2794 0.0000 0.5245 0.0000
# 3 85.5137 15.2794 145.6212 -0.0001 -10.9387 -0.0001
# 4 0.0000 0.0000 -0.0001 45.0613 0.0000 7.8332
# 5 0.6630 0.5245 -10.9387 0.0000 44.4680 -0.0001
# 6 0.0000 0.0000 -0.0001 7.8332 -0.0001 35.7493
#
#
#
# Elastic Compliance Matrix: (Units=1/GPa)
#
#
# Indices 1 2 3 4 5 6 
#
# 1 0.017855 -0.009145 -0.009717 0.000000 -0.002549 0.000000
# 2 -0.009145 0.016617 0.003690 0.000000 0.000848 0.000000
# 3 -0.009717 0.003690 0.012423 0.000000 0.003157 0.000000
# 4 0.000000 0.000000 0.000000 0.023071 0.000000 -0.005055
# 5 -0.002549 0.000848 0.003157 0.000000 0.023293 0.000000
# 6 0.000000 0.000000 0.000000 -0.005055 0.000000 0.029080
#
#
# Mechanical properties :
#
#
# Convention : Reuss Voigt Hill
#
# Bulk Modulus (GPa) = 60.41561 74.04100 67.22831
# Shear Modulus (GPa) = 31.60595 38.88840 35.24718
#
# Velocity S-wave (km/s) = 3.52371 3.90864 3.72115
# Velocity P-wave (km/s) = 6.34743 7.03258 6.69877
#
# Compressibility (1/GPa) = 0.01655201
#
# Stress axis : x y z
#
# Youngs Moduli (GPa) = 56.00812 60.17967 80.49545
#
# Poissons Ratio (x) = 0.55034 0.78215
# Poissons Ratio (y) = 0.51219 -0.29706
# Poissons Ratio (z) = 0.54421 -0.22209
#
# Static dielectric constant tensor:
#      x y z
#    x 2.021390 0.000000 -0.107250 
#    y 0.000000 2.026900 0.000000 
#    z -0.107250 0.000000 2.133430 
# 
# From -- ./inp_files/22599.got.cif
#   From: 2010.05.17/outbox.cif.g08.bks.cpg/sg15_12_cif.got.tgz:22599.got - 2010.06.03 18:47:42.
