data_PCOD9285434
_publ_section_title
;
Structure prediction by ZEFSAII (Michael W. Deem and Ramdas Pophale) SiO2 
 PCOD9285434
Probable space group: C 2/C
;
_chemical_formula_sum "Si O2"
_cell_formula_units_Z 64
_cell_length_a 16.986407
_cell_length_b 22.904186
_cell_length_c 8.677418
_cell_angle_alpha 90.000000
_cell_angle_beta 97.608621
_cell_angle_gamma 90.000000
_cell_volume 3346.310870
_symmetry_space_group_name_H-M "C 2/C"
_symmetry_group_IT_number 15
_symmetry_cell_setting 'monoclinic'
loop_
_space_group_symop_operation_xyz
x,y,z
-x,y,1/2-z
-x,-y,-z
x,-y,1/2+z
1/2+x,1/2+y,z
1/2-x,1/2+y,1/2-z
1/2-x,1/2-y,-z
1/2+x,1/2-y,1/2+z
loop_
_atom_site_type_symbol
_atom_site_label
_atom_site_fract_x
_atom_site_fract_y
_atom_site_fract_z
Si Si1 0.262004 0.376422 0.745805
Si Si2 0.171721 0.283842 0.920237
Si Si3 0.590161 0.185058 0.715785
Si Si4 0.868556 0.177440 0.802680
Si Si5 0.909784 0.942796 0.221725
Si Si6 0.715009 0.888923 0.392755
Si Si7 0.304969 0.505065 0.422319
Si Si8 0.589194 0.307871 0.837643
O O1 0.209071 0.341376 0.853490
O O2 0.218013 0.370068 0.571065
O O3 0.277613 0.441772 0.807939
O O4 0.349305 0.349433 0.735618
O O5 0.135126 0.238792 0.786188
O O6 0.250000 0.250000 0.000000
O O7 0.111386 0.300186 0.043233
O O8 0.500000 0.180285 0.750000
O O9 0.635979 0.128002 0.783746
O O10 0.620832 0.242505 0.814412
O O11 0.908361 0.127161 0.709946
O O12 0.782121 0.149355 0.820330
O O13 0.909844 0.181420 0.979757
O O14 0.000000 0.964068 0.250000
O O15 0.874814 0.964669 0.373330
O O16 0.845990 0.967561 0.083531
O O17 0.735170 0.957432 0.409781
O O18 0.500000 0.313316 0.750000
#
# Coordination Sequence:
#
# PCOD9285434 Si02
#       8
#     8   8   8   8   8   8   8   8
#     4  11  22  37  65  90 123 172 216 260 307 380
#     4  12  21  38  67  95 123 163 215 261 308 388
#     4  11  24  41  65  95 130 163 202 267 334 376
#     4  10  22  38  61  95 125 175 214 254 307 377
#     4  11  24  38  58  89 132 168 210 260 310 374
#     4  10  21  42  60  87 126 167 218 266 312 370
#     4  11  23  40  60  91 119 171 220 257 315 369
#     4  10  22  38  59  94 140 171 201 254 324 377
#
# _framework density 19.125537999999999
#
# number of rings (size 3 to 8) (size 9 to 14) (size 15 to 20)
#    0.000    1.250    3.750    1.875    3.500    3.500 
#    0.000    3.125    0.000    3.000    0.000    0.000 
#    0.000    0.000    0.000    0.000    0.000    0.000 
#
# Total GULP energy -178460.492757 kJ/mol
# GULP energy per Si atom -5576.890399 kJ/mol
# Density = 1.908201 g / cm^3
# Si number density = 19.125538 Si / 1000 Ang^3
#
#
#
# Elastic Constant Matrix: (Units=GPa)
#
#
# Indices 1 2 3 4 5 6 
#
# 1 79.5435 42.0654 49.7479 0.0000 -7.1933 0.0000
# 2 42.0654 94.2644 39.8396 0.0000 1.5026 0.0000
# 3 49.7479 39.8396 75.7731 0.0000 -1.7160 0.0000
# 4 0.0000 0.0000 0.0000 13.0631 0.0000 4.8210
# 5 -7.1933 1.5026 -1.7160 0.0000 23.9090 0.0000
# 6 0.0000 0.0000 0.0000 4.8210 0.0000 13.4269
#
#
#
# Elastic Compliance Matrix: (Units=1/GPa)
#
#
# Indices 1 2 3 4 5 6 
#
# 1 0.024035 -0.005434 -0.012772 0.000000 0.006656 0.000000
# 2 -0.005434 0.014913 -0.004339 0.000000 -0.002883 0.000000
# 3 -0.012772 -0.004339 0.023822 0.000000 -0.001860 0.000000
# 4 0.000000 0.000000 0.000000 0.088245 0.000000 -0.031685
# 5 0.006656 -0.002883 -0.001860 0.000000 0.043876 0.000000
# 6 0.000000 0.000000 0.000000 -0.031685 0.000000 0.085854
#
#
# Mechanical properties :
#
#
# Convention : Reuss Voigt Hill
#
# Bulk Modulus (GPa) = 56.55966 56.98742 56.77354
# Shear Modulus (GPa) = 15.07262 17.94168 16.50715
#
# Velocity S-wave (km/s) = 2.81034 3.06617 2.94103
# Velocity P-wave (km/s) = 6.33780 6.51125 6.42511
#
# Compressibility (1/GPa) = 0.01768044
#
# Stress axis : x y z
#
# Youngs Moduli (GPa) = 41.60542 67.05603 41.97810
#
# Poissons Ratio (x) = 0.36436 0.53616
# Poissons Ratio (y) = 0.22607 0.18213
# Poissons Ratio (z) = 0.53140 0.29094
#
# Static dielectric constant tensor:
#      x y z
#    x 1.692820 0.000000 -0.014150 
#    y 0.000000 1.686900 0.000000 
#    z -0.014150 0.000000 1.711620 
# 
# From -- ./inp_files/50260.got.cif
#   From: 2010.05.17/outbox.cif.g08.bks.cpg/sg15_26_cif.got.tgz:50260.got - 2010.06.03 18:47:42.
