data_PCOD9285875
_publ_section_title
;
Structure prediction by ZEFSAII (Michael W. Deem and Ramdas Pophale) SiO2 
 PCOD9285875
Probable space group: C 2/C
;
_chemical_formula_sum "Si O2"
_cell_formula_units_Z 44
_cell_length_a 8.117846
_cell_length_b 12.153879
_cell_length_c 18.826707
_cell_angle_alpha 90.000000
_cell_angle_beta 111.594266
_cell_angle_gamma 90.000000
_cell_volume 1727.133248
_symmetry_space_group_name_H-M "C 2/C"
_symmetry_group_IT_number 15
_symmetry_cell_setting 'monoclinic'
loop_
_space_group_symop_operation_xyz
x,y,z
-x,y,1/2-z
-x,-y,-z
x,-y,1/2+z
1/2+x,1/2+y,z
1/2-x,1/2+y,1/2-z
1/2-x,1/2-y,-z
1/2+x,1/2-y,1/2+z
loop_
_atom_site_type_symbol
_atom_site_label
_atom_site_fract_x
_atom_site_fract_y
_atom_site_fract_z
Si Si1 0.082506 0.652617 0.364830
Si Si2 0.483993 0.662637 0.562415
Si Si3 0.041352 0.927714 0.603890
Si Si4 0.146255 0.724704 0.909132
Si Si5 0.500000 0.646450 0.750000
Si Si6 0.610261 0.941112 0.194569
O O1 0.247636 0.588132 0.356038
O O2 0.096542 0.713368 0.443287
O O3 0.049289 0.766113 0.319011
O O4 0.926560 0.565941 0.334844
O O5 0.448336 0.545643 0.596185
O O6 0.470716 0.618577 0.479212
O O7 0.692638 0.679820 0.610808
O O8 0.937609 0.837285 0.631946
O O9 0.986688 0.636902 0.880010
O O10 0.250000 0.750000 0.000000
O O11 0.681624 0.581707 0.765102
O O12 0.500000 0.919349 0.250000
#
# Coordination Sequence:
#
# PCOD9285875 Si02
#       6
#     8   8   8   8   4   8
#     4  12  24  45  67 103 137 183 245 290 352 442
#     4  10  22  40  70 101 138 184 221 294 370 413
#     4  10  21  42  68 100 141 178 229 289 358 434
#     4  10  21  43  71 103 140 187 239 296 362 433
#     4  12  28  46  70 104 140 196 246 294 366 440
#     4  12  26  50  72 102 150 193 243 306 370 436
#
# _framework density 25.475742
#
# number of rings (size 3 to 8) (size 9 to 14) (size 15 to 20)
#    0.000    1.091    4.545    1.636    0.000    1.455 
#    4.909    1.818    0.000    0.000    0.000    0.000 
#    0.000    0.000    0.000    0.000    0.000    0.000 
#
# Total GULP energy -122655.547103 kJ/mol
# GULP energy per Si atom -5575.252141 kJ/mol
# Density = 2.541776 g / cm^3
# Si number density = 25.475742 Si / 1000 Ang^3
#
#
#
# Elastic Constant Matrix: (Units=GPa)
#
#
# Indices 1 2 3 4 5 6 
#
# 1 104.3076 32.1612 34.0968 0.0000 26.7361 0.0000
# 2 32.1612 157.4121 23.1056 0.0000 -2.7903 0.0000
# 3 34.0968 23.1056 70.3254 0.0000 15.3604 0.0000
# 4 0.0000 0.0000 0.0000 41.3074 0.0000 -1.8520
# 5 26.7361 -2.7903 15.3604 0.0000 34.2617 0.0000
# 6 0.0000 0.0000 0.0000 -1.8520 0.0000 47.0387
#
#
#
# Elastic Compliance Matrix: (Units=1/GPa)
#
#
# Indices 1 2 3 4 5 6 
#
# 1 0.014041 -0.002455 -0.003951 0.000000 -0.009386 0.000000
# 2 -0.002455 0.007194 -0.001906 0.000000 0.003356 0.000000
# 3 -0.003951 -0.001906 0.017872 0.000000 -0.005084 0.000000
# 4 0.000000 0.000000 0.000000 0.024252 0.000000 0.000955
# 5 -0.009386 0.003356 -0.005084 0.000000 0.039064 0.000000
# 6 0.000000 0.000000 0.000000 0.000955 0.000000 0.021297
#
#
# Mechanical properties :
#
#
# Convention : Reuss Voigt Hill
#
# Bulk Modulus (GPa) = 44.48004 56.75247 50.61626
# Shear Modulus (GPa) = 33.82061 40.70030 37.26046
#
# Velocity S-wave (km/s) = 3.64752 4.00135 3.82853
# Velocity P-wave (km/s) = 5.93607 6.60857 6.28132
#
# Compressibility (1/GPa) = 0.02248199
#
# Stress axis : x y z
#
# Youngs Moduli (GPa) = 71.21802 139.01090 55.95296
#
# Poissons Ratio (x) = 0.34130 0.22108
# Poissons Ratio (y) = 0.17486 0.10666
# Poissons Ratio (z) = 0.28140 0.26498
#
# Static dielectric constant tensor:
#      x y z
#    x 0.367100 0.000000 1.617610 
#    y 0.000000 2.050380 0.000000 
#    z 1.617610 0.000000 0.675340 
# 
# From -- ./inp_files/263620.got.cif
#   From: 2010.05.17/outbox.cif.g08.bks.cpg/sg15_132_cif.got.tgz:263620.got - 2010.06.03 18:47:42.
