data_PCOD9285427
_publ_section_title
;
Structure prediction by ZEFSAII (Michael W. Deem and Ramdas Pophale) SiO2 
 PCOD9285427
Probable space group: C 2/C
;
_chemical_formula_sum "Si O2"
_cell_formula_units_Z 40
_cell_length_a 7.213125
_cell_length_b 28.836536
_cell_length_c 9.531745
_cell_angle_alpha 90.000000
_cell_angle_beta 132.843285
_cell_angle_gamma 90.000000
_cell_volume 1453.687681
_symmetry_space_group_name_H-M "C 2/C"
_symmetry_group_IT_number 15
_symmetry_cell_setting 'monoclinic'
loop_
_space_group_symop_operation_xyz
x,y,z
-x,y,1/2-z
-x,-y,-z
x,-y,1/2+z
1/2+x,1/2+y,z
1/2-x,1/2+y,1/2-z
1/2-x,1/2-y,-z
1/2+x,1/2-y,1/2+z
loop_
_atom_site_type_symbol
_atom_site_label
_atom_site_fract_x
_atom_site_fract_y
_atom_site_fract_z
Si Si1 0.500000 0.829701 0.750000
Si Si2 0.000000 0.383246 0.250000
Si Si3 0.041942 0.697691 0.578396
Si Si4 0.639758 0.408997 0.555514
Si Si5 0.664565 0.058304 0.615408
Si Si6 0.500000 0.529743 0.250000
Si Si7 0.000000 0.218545 0.250000
O O1 0.408943 0.804748 0.560892
O O2 0.243961 0.859104 0.656239
O O3 0.857522 0.344600 0.276276
O O4 0.937671 0.420900 0.093473
O O5 0.737368 0.692085 0.432197
O O6 0.103085 0.746198 0.683120
O O7 0.852458 0.420558 0.547660
O O8 0.394484 0.421109 0.331517
O O9 0.580002 0.440479 0.657056
O O10 0.761130 0.006542 0.629608
#
# Coordination Sequence:
#
# PCOD9285427 Si02
#       7
#     4   4   8   8   8   4   4
#     4  12  24  39  62 104 128 158 224 256 318 371
#     4  11  22  39  66  95 130 168 218 263 320 369
#     4  10  23  42  66  99 127 165 204 261 312 403
#     4  10  23  40  60  92 126 174 214 267 311 373
#     4  10  21  42  59  89 127 178 214 265 315 369
#     4  10  22  41  64  86 132 172 230 260 320 361
#     4   9  22  47  70  91 128 166 200 247 342 381
#
# _framework density 27.51623
#
# number of rings (size 3 to 8) (size 9 to 14) (size 15 to 20)
#    0.000    2.000    2.000    2.400    5.600    1.600 
#    0.000    6.000    0.000    0.000    0.000    0.000 
#    0.000    0.000    0.000    0.000    0.000    0.000 
#
# Total GULP energy -111348.389829 kJ/mol
# GULP energy per Si atom -5567.419491 kJ/mol
# Density = 2.745360 g / cm^3
# Si number density = 27.516230 Si / 1000 Ang^3
#
#
#
# Elastic Constant Matrix: (Units=GPa)
#
#
# Indices 1 2 3 4 5 6 
#
# 1 104.3410 33.8511 38.5300 0.0000 -21.0770 0.0000
# 2 33.8511 77.8380 41.7578 0.0000 -26.6749 0.0000
# 3 38.5300 41.7578 169.0350 0.0000 -59.7730 0.0000
# 4 0.0000 0.0000 0.0000 24.8647 0.0000 -29.2424
# 5 -21.0770 -26.6749 -59.7730 0.0000 77.1513 0.0000
# 6 0.0000 0.0000 0.0000 -29.2424 0.0000 -75.4210
#
#
#
# Elastic Compliance Matrix: (Units=1/GPa)
#
#
# Indices 1 2 3 4 5 6 
#
# 1 0.011547 -0.004042 -0.001394 0.000000 0.000677 0.000000
# 2 -0.004042 0.016802 -0.002156 0.000000 0.003034 0.000000
# 3 -0.001394 -0.002156 0.008771 0.000000 0.005669 0.000000
# 4 0.000000 0.000000 0.000000 0.027622 0.000000 -0.010710
# 5 0.000677 0.003034 0.005669 0.000000 0.018588 0.000000
# 6 0.000000 0.000000 0.000000 -0.010710 0.000000 -0.009106
#
#
# Mechanical properties :
#
#
# Convention : Reuss Voigt Hill
#
# Bulk Modulus (GPa) = 45.58931 64.38795 54.98863
# Shear Modulus (GPa) = 51.69627 21.12401 36.41014
#
# Velocity S-wave (km/s) = 4.33916 2.77373 3.64156
# Velocity P-wave (km/s) = 6.45822 5.80594 6.14074
#
# Compressibility (1/GPa) = 0.02193496
#
# Stress axis : x y z
#
# Youngs Moduli (GPa) = 86.60440 59.51826 114.01170
#
# Poissons Ratio (x) = 0.24055 0.15895
# Poissons Ratio (y) = 0.35003 0.24585
# Poissons Ratio (z) = 0.12074 0.12834
#
# Static dielectric constant tensor:
#      x y z
#    x 2.911820 0.000000 0.199710 
#    y 0.000000 2.170240 0.000000 
#    z 0.199710 0.000000 2.115350 
# 
# From -- ./inp_files/25877.got.cif
#   From: 2010.05.17/outbox.cif.g08.bks.cpg/sg15_13_cif.got.tgz:25877.got - 2010.06.03 18:47:42.
