data_PCOD9285826
_publ_section_title
;
Structure prediction by ZEFSAII (Michael W. Deem and Ramdas Pophale) SiO2 
 PCOD9285826
Probable space group: C 2/C
;
_chemical_formula_sum "Si O2"
_cell_formula_units_Z 56
_cell_length_a 14.803263
_cell_length_b 13.141217
_cell_length_c 11.702741
_cell_angle_alpha 90.000000
_cell_angle_beta 79.368458
_cell_angle_gamma 90.000000
_cell_volume 2237.488324
_symmetry_space_group_name_H-M "C 2/C"
_symmetry_group_IT_number 15
_symmetry_cell_setting 'monoclinic'
loop_
_space_group_symop_operation_xyz
x,y,z
-x,y,1/2-z
-x,-y,-z
x,-y,1/2+z
1/2+x,1/2+y,z
1/2-x,1/2+y,1/2-z
1/2-x,1/2-y,-z
1/2+x,1/2-y,1/2+z
loop_
_atom_site_type_symbol
_atom_site_label
_atom_site_fract_x
_atom_site_fract_y
_atom_site_fract_z
Si Si1 0.832154 0.675766 0.444686
Si Si2 0.500000 0.981692 0.250000
Si Si3 0.173805 0.051768 0.089352
Si Si4 0.500000 0.342890 0.750000
Si Si5 0.183869 0.586603 0.273707
Si Si6 0.162834 0.207234 0.894948
Si Si7 0.504207 0.180428 0.934897
Si Si8 0.599364 0.368426 0.184189
O O1 0.750000 0.750000 0.500000
O O2 0.793408 0.592486 0.366033
O O3 0.904989 0.640377 0.521909
O O4 0.896364 0.751858 0.355077
O O5 0.535576 0.907285 0.139678
O O6 0.578743 0.049703 0.290014
O O7 0.258366 0.021631 0.150929
O O8 0.088601 0.098497 0.181660
O O9 0.131451 0.940449 0.073665
O O10 0.198555 0.135053 0.988132
O O11 0.535315 0.270441 0.843211
O O12 0.210115 0.696965 0.322204
O O13 0.152001 0.130598 0.792144
O O14 0.072253 0.264938 0.967543
O O15 0.500000 0.397255 0.250000
#
# Coordination Sequence:
#
# PCOD9285826 Si02
#       8
#     8   4   8   4   8   8   8   8
#     4  11  24  41  69  95 135 185 226 283 352 411
#     4  11  26  44  69 102 134 180 237 294 330 423
#     4  11  23  42  65  99 134 175 225 282 341 417
#     4   9  20  38  65  92 132 168 217 274 338 415
#     4  11  25  44  65  97 136 174 236 287 346 408
#     4  10  23  44  70  93 133 186 219 284 355 411
#     4  10  21  42  67  94 132 179 227 274 352 402
#     4  11  23  43  68 103 136 173 232 285 341 418
#
# _framework density 25.028063
#
# number of rings (size 3 to 8) (size 9 to 14) (size 15 to 20)
#    0.000    1.429    2.143    2.143    4.000    5.143 
#    7.714    0.000    0.000    0.000    0.000    0.000 
#    0.000    0.000    0.000    0.000    0.000    0.000 
#
# Total GULP energy -156105.580634 kJ/mol
# GULP energy per Si atom -5575.199308 kJ/mol
# Density = 2.497110 g / cm^3
# Si number density = 25.028063 Si / 1000 Ang^3
#
#
#
# Elastic Constant Matrix: (Units=GPa)
#
#
# Indices 1 2 3 4 5 6 
#
# 1 78.7084 18.2018 26.8459 0.0000 21.0693 0.0000
# 2 18.2018 77.4455 19.6809 0.0000 1.8640 0.0000
# 3 26.8459 19.6809 81.8782 0.0000 15.8579 0.0000
# 4 0.0000 0.0000 0.0000 42.7387 0.0000 -1.0515
# 5 21.0693 1.8640 15.8579 0.0000 39.1923 0.0000
# 6 0.0000 0.0000 0.0000 -1.0515 0.0000 26.1580
#
#
#
# Elastic Compliance Matrix: (Units=1/GPa)
#
#
# Indices 1 2 3 4 5 6 
#
# 1 0.016462 -0.002858 -0.003280 0.000000 -0.007387 0.000000
# 2 -0.002858 0.014268 -0.002885 0.000000 0.002025 0.000000
# 3 -0.003280 -0.002885 0.014772 0.000000 -0.004076 0.000000
# 4 0.000000 0.000000 0.000000 0.023421 0.000000 0.000941
# 5 -0.007387 0.002025 -0.004076 0.000000 0.031039 0.000000
# 6 0.000000 0.000000 0.000000 0.000941 0.000000 0.038267
#
#
# Mechanical properties :
#
#
# Convention : Reuss Voigt Hill
#
# Bulk Modulus (GPa) = 36.42068 40.83216 38.62642
# Shear Modulus (GPa) = 30.22482 33.17137 31.69810
#
# Velocity S-wave (km/s) = 3.47888 3.64451 3.56266
# Velocity P-wave (km/s) = 5.54259 5.83609 5.69123
#
# Compressibility (1/GPa) = 0.02745693
#
# Stress axis : x y z
#
# Youngs Moduli (GPa) = 60.74573 70.08536 67.69737
#
# Poissons Ratio (x) = 0.20028 0.22205
# Poissons Ratio (y) = 0.17359 0.19530
# Poissons Ratio (z) = 0.19924 0.20219
#
# Static dielectric constant tensor:
#      x y z
#    x 1.890130 0.000000 -0.116100 
#    y 0.000000 2.000220 0.000000 
#    z -0.116100 0.000000 1.888350 
# 
# From -- ./inp_files/97065.got.cif
#   From: 2010.05.17/outbox.cif.g08.bks.cpg/sg15_49_cif.got.tgz:97065.got - 2010.06.03 18:47:42.
