data_PCOD9285386
_publ_section_title
;
Structure prediction by ZEFSAII (Michael W. Deem and Ramdas Pophale) SiO2 
 PCOD9285386
Probable space group: C 2/C
;
_chemical_formula_sum "Si O2"
_cell_formula_units_Z 40
_cell_length_a 24.722475
_cell_length_b 14.071744
_cell_length_c 14.545443
_cell_angle_alpha 90.000000
_cell_angle_beta 158.955843
_cell_angle_gamma 90.000000
_cell_volume 1817.050168
_symmetry_space_group_name_H-M "C 2/C"
_symmetry_group_IT_number 15
_symmetry_cell_setting 'monoclinic'
loop_
_space_group_symop_operation_xyz
x,y,z
-x,y,1/2-z
-x,-y,-z
x,-y,1/2+z
1/2+x,1/2+y,z
1/2-x,1/2+y,1/2-z
1/2-x,1/2-y,-z
1/2+x,1/2-y,1/2+z
loop_
_atom_site_type_symbol
_atom_site_label
_atom_site_fract_x
_atom_site_fract_y
_atom_site_fract_z
Si Si1 0.414445 0.435707 0.030319
Si Si2 0.106239 0.333876 0.500917
Si Si3 0.828914 0.883923 0.178211
Si Si4 0.451924 0.832029 0.882060
Si Si5 0.271735 0.374481 0.299999
O O1 0.500000 0.382739 0.250000
O O2 0.541393 0.451435 0.155134
O O3 0.272573 0.379069 0.765867
O O4 0.347850 0.533244 0.964122
O O5 0.038502 0.353364 0.494365
O O6 0.132966 0.220962 0.534657
O O7 0.000000 0.367734 0.250000
O O8 0.906313 0.778969 0.298512
O O9 0.772205 0.896887 0.191704
O O10 0.687109 0.886269 0.885287
O O11 0.606002 0.856269 0.075710
#
# Coordination Sequence:
#
# PCOD9285386 Si02
#       5
#     8   8   8   8   8
#     4  12  24  46  69  98 137 178 227 274 333 405
#     4  11  25  45  66  99 138 178 222 277 337 394
#     4  10  21  41  72 102 132 176 227 278 330 402
#     4  10  21  41  72  99 134 177 227 275 332 402
#     4  11  24  42  68 103 134 176 221 280 340 394
#
# _framework density 22.013701999999999
#
# number of rings (size 3 to 8) (size 9 to 14) (size 15 to 20)
#    0.000    1.200    4.000    1.800    0.000    3.200 
#    7.200    0.000    0.000    0.000    0.000    0.000 
#    0.000    0.000    0.000    0.000    0.000    0.000 
#
# Total GULP energy -111864.826925 kJ/mol
# GULP energy per Si atom -5593.241346 kJ/mol
# Density = 2.196360 g / cm^3
# Si number density = 22.013702 Si / 1000 Ang^3
#
#
#
# Elastic Constant Matrix: (Units=GPa)
#
#
# Indices 1 2 3 4 5 6 
#
# 1 178.9706 1.8116 94.2023 0.0000 13.5921 0.0000
# 2 1.8116 35.1408 19.3400 0.0000 -1.9587 0.0000
# 3 94.2023 19.3400 165.2559 0.0000 -18.3503 0.0000
# 4 0.0000 0.0000 0.0000 16.2875 0.0000 2.7953
# 5 13.5921 -1.9587 -18.3503 0.0000 43.0552 0.0000
# 6 0.0000 0.0000 0.0000 2.7953 0.0000 25.5990
#
#
#
# Elastic Compliance Matrix: (Units=1/GPa)
#
#
# Indices 1 2 3 4 5 6 
#
# 1 0.009215 0.002613 -0.006160 0.000000 -0.005415 0.000000
# 2 0.002613 0.031158 -0.005322 0.000000 -0.001676 0.000000
# 3 -0.006160 -0.005322 0.010890 0.000000 0.006344 0.000000
# 4 0.000000 0.000000 0.000000 0.062569 0.000000 -0.006832
# 5 -0.005415 -0.001676 0.006344 0.000000 0.027563 0.000000
# 6 0.000000 0.000000 0.000000 -0.006832 0.000000 0.039810
#
#
# Mechanical properties :
#
#
# Convention : Reuss Voigt Hill
#
# Bulk Modulus (GPa) = 29.82866 67.78612 48.80739
# Shear Modulus (GPa) = 23.79619 34.58923 29.19271
#
# Velocity S-wave (km/s) = 3.29138 3.96821 3.64554
# Velocity P-wave (km/s) = 5.29374 7.20105 6.31976
#
# Compressibility (1/GPa) = 0.03352480
#
# Stress axis : x y z
#
# Youngs Moduli (GPa) = 108.52327 32.09460 91.82853
#
# Poissons Ratio (x) = -0.08387 0.56565
# Poissons Ratio (y) = -0.28360 0.48873
# Poissons Ratio (z) = 0.66849 0.17081
#
# Static dielectric constant tensor:
#      x y z
#    x 1.806200 0.000000 -0.033690 
#    y 0.000000 1.831420 0.000000 
#    z -0.033690 0.000000 1.784130 
# 
# From -- ./inp_files/178495.got.cif
#   From: 2010.05.17/outbox.cif.g08.bks.cpg/sg15_90_cif.got.tgz:178495.got - 2010.06.03 18:47:42.
