data_PCOD9285537
_publ_section_title
;
Structure prediction by ZEFSAII (Michael W. Deem and Ramdas Pophale) SiO2 
 PCOD9285537
Probable space group: C 2/C
;
_chemical_formula_sum "Si O2"
_cell_formula_units_Z 40
_cell_length_a 17.625587
_cell_length_b 19.928207
_cell_length_c 11.012306
_cell_angle_alpha 90.000000
_cell_angle_beta 151.376690
_cell_angle_gamma 90.000000
_cell_volume 1852.977032
_symmetry_space_group_name_H-M "C 2/C"
_symmetry_group_IT_number 15
_symmetry_cell_setting 'monoclinic'
loop_
_space_group_symop_operation_xyz
x,y,z
-x,y,1/2-z
-x,-y,-z
x,-y,1/2+z
1/2+x,1/2+y,z
1/2-x,1/2+y,1/2-z
1/2-x,1/2-y,-z
1/2+x,1/2-y,1/2+z
loop_
_atom_site_type_symbol
_atom_site_label
_atom_site_fract_x
_atom_site_fract_y
_atom_site_fract_z
Si Si1 0.604738 0.235643 0.649067
Si Si2 0.192472 0.064576 0.021029
Si Si3 0.244211 0.721385 0.358932
Si Si4 0.310568 0.507295 0.226724
Si Si5 0.323182 0.855110 0.056721
O O1 0.619544 0.244549 0.527778
O O2 0.423900 0.243743 0.433835
O O3 0.660814 0.164529 0.779829
O O4 0.716510 0.294877 0.854511
O O5 0.000000 0.063501 0.750000
O O6 0.244888 0.045010 0.956817
O O7 0.243261 0.140731 0.122708
O O8 0.243874 0.016389 0.207610
O O9 0.250000 0.750000 0.500000
O O10 0.500000 0.500000 0.500000
O O11 0.263407 0.577169 0.097948
O O12 0.500000 0.856259 0.250000
#
# Coordination Sequence:
#
# PCOD9285537 Si02
#       5
#     8   8   8   8   8
#     4  11  23  42  68  99 133 177 224 274 345 401
#     4  10  21  42  63  95 135 178 224 278 341 401
#     4  12  24  41  68 100 142 176 218 285 345 408
#     4  10  22  41  68  92 130 179 224 277 334 406
#     4  11  22  44  70  96 134 174 226 285 333 399
#
# _framework density 21.586883
#
# number of rings (size 3 to 8) (size 9 to 14) (size 15 to 20)
#    0.000    1.200    4.000    1.800    2.800    1.600 
#    7.200    6.000    0.000    0.000    0.000    0.000 
#    0.000    0.000    0.000    0.000    0.000    0.000 
#
# Total GULP energy -111481.327728 kJ/mol
# GULP energy per Si atom -5574.066386 kJ/mol
# Density = 2.153775 g / cm^3
# Si number density = 21.586883 Si / 1000 Ang^3
#
#
#
# Elastic Constant Matrix: (Units=GPa)
#
#
# Indices 1 2 3 4 5 6 
#
# 1 101.4762 39.9599 18.2726 0.0000 -24.5400 0.0000
# 2 39.9599 81.1209 45.7172 0.0000 1.1441 0.0000
# 3 18.2726 45.7172 84.0321 0.0000 4.3058 0.0000
# 4 0.0000 0.0000 0.0000 39.3598 0.0000 -7.3462
# 5 -24.5400 1.1441 4.3058 0.0000 32.1698 0.0000
# 6 0.0000 0.0000 0.0000 -7.3462 0.0000 31.8935
#
#
#
# Elastic Compliance Matrix: (Units=1/GPa)
#
#
# Indices 1 2 3 4 5 6 
#
# 1 0.016088 -0.008319 0.000386 0.000000 0.012516 0.000000
# 2 -0.008319 0.022094 -0.009914 0.000000 -0.005805 0.000000
# 3 0.000386 -0.009914 0.017295 0.000000 -0.001668 0.000000
# 4 0.000000 0.000000 0.000000 0.026548 0.000000 0.006115
# 5 0.012516 -0.005805 -0.001668 0.000000 0.041063 0.000000
# 6 0.000000 0.000000 0.000000 0.006115 0.000000 0.032763
#
#
# Mechanical properties :
#
#
# Convention : Reuss Voigt Hill
#
# Bulk Modulus (GPa) = 50.54562 52.72540 51.63551
# Shear Modulus (GPa) = 25.23494 31.52993 28.38243
#
# Velocity S-wave (km/s) = 3.42276 3.82593 3.62995
# Velocity P-wave (km/s) = 6.25190 6.63286 6.44519
#
# Compressibility (1/GPa) = 0.01978411
#
# Stress axis : x y z
#
# Youngs Moduli (GPa) = 62.15938 45.26083 57.81942
#
# Poissons Ratio (x) = 0.37652 -0.02234
# Poissons Ratio (y) = 0.51710 0.57321
# Poissons Ratio (z) = -0.02401 0.44871
#
# Static dielectric constant tensor:
#      x y z
#    x 1.813890 0.000000 -0.109340 
#    y 0.000000 1.749110 0.000000 
#    z -0.109340 0.000000 1.792570 
# 
# From -- ./inp_files/106900.got.cif
#   From: 2010.05.17/outbox.cif.g08.bks.cpg/sg15_54_cif.got.tgz:106900.got - 2010.06.03 18:47:42.
