data_PCOD9285230
_publ_section_title
;
Structure prediction by ZEFSAII (Michael W. Deem and Ramdas Pophale) SiO2 
 PCOD9285230
Probable space group: C 2/C
;
_chemical_formula_sum "Si O2"
_cell_formula_units_Z 52
_cell_length_a 17.402639
_cell_length_b 8.515717
_cell_length_c 22.181581
_cell_angle_alpha 90.000000
_cell_angle_beta 40.105099
_cell_angle_gamma 90.000000
_cell_volume 2117.600128
_symmetry_space_group_name_H-M "C 2/C"
_symmetry_group_IT_number 15
_symmetry_cell_setting 'monoclinic'
loop_
_space_group_symop_operation_xyz
x,y,z
-x,y,1/2-z
-x,-y,-z
x,-y,1/2+z
1/2+x,1/2+y,z
1/2-x,1/2+y,1/2-z
1/2-x,1/2-y,-z
1/2+x,1/2-y,1/2+z
loop_
_atom_site_type_symbol
_atom_site_label
_atom_site_fract_x
_atom_site_fract_y
_atom_site_fract_z
Si Si1 0.728286 0.602630 0.843732
Si Si2 0.575590 0.858904 0.588702
Si Si3 0.465274 0.425175 0.604709
Si Si4 0.602268 0.917086 0.373001
Si Si5 0.305484 0.561145 0.322317
Si Si6 0.500000 0.339488 0.250000
Si Si7 0.717198 0.562251 0.460918
O O1 0.595028 0.561747 0.900179
O O2 0.806177 0.604591 0.737302
O O3 0.763636 0.760089 0.858593
O O4 0.762153 0.457648 0.865894
O O5 0.509517 0.766483 0.683694
O O6 0.658372 0.730413 0.507036
O O7 0.672306 0.971788 0.562304
O O8 0.488713 0.952079 0.596866
O O9 0.450697 0.253948 0.584632
O O10 0.390690 0.429841 0.711743
O O11 0.603364 0.450600 0.534793
O O12 0.682838 0.976319 0.378939
O O13 0.384788 0.454996 0.318859
#
# Coordination Sequence:
#
# PCOD9285230 Si02
#       7
#     8   8   8   8   8   4   8
#     4  10  22  41  68  95 132 170 221 281 330 388
#     4  11  25  42  67  95 138 175 219 270 336 403
#     4  10  21  41  68  97 133 172 221 280 330 395
#     4  10  23  42  70  98 125 179 229 272 322 403
#     4  10  23  41  69  96 129 172 235 269 328 395
#     4  12  24  44  72 100 134 182 228 280 328 404
#     4  11  23  43  63  95 139 176 210 276 345 391
#
# _framework density 24.556101000000002
#
# number of rings (size 3 to 8) (size 9 to 14) (size 15 to 20)
#    0.000    1.538    1.538    2.308    8.615    3.077 
#    5.538    1.538    0.000    0.000    0.000    0.000 
#    0.000    0.000    0.000    0.000    0.000    0.000 
#
# Total GULP energy -145471.463140 kJ/mol
# GULP energy per Si atom -5595.056275 kJ/mol
# Density = 2.450021 g / cm^3
# Si number density = 24.556101 Si / 1000 Ang^3
#
#
#
# Elastic Constant Matrix: (Units=GPa)
#
#
# Indices 1 2 3 4 5 6 
#
# 1 109.1758 50.7167 30.7125 0.0000 -42.5346 0.0000
# 2 50.7167 113.3211 48.5694 0.0000 -20.3100 0.0000
# 3 30.7125 48.5694 76.8078 0.0000 -8.1262 0.0000
# 4 0.0000 0.0000 0.0000 32.8849 0.0000 -2.4529
# 5 -42.5346 -20.3100 -8.1262 0.0000 47.8308 0.0000
# 6 0.0000 0.0000 0.0000 -2.4529 0.0000 42.3601
#
#
#
# Elastic Compliance Matrix: (Units=1/GPa)
#
#
# Indices 1 2 3 4 5 6 
#
# 1 0.016783 -0.004019 -0.002822 0.000000 0.012739 0.000000
# 2 -0.004019 0.013831 -0.007022 0.000000 0.001106 0.000000
# 3 -0.002822 -0.007022 0.018337 0.000000 -0.002376 0.000000
# 4 0.000000 0.000000 0.000000 0.030541 0.000000 0.001768
# 5 0.012739 0.001106 -0.002376 0.000000 0.032302 0.000000
# 6 0.000000 0.000000 0.000000 0.001768 0.000000 0.023710
#
#
# Mechanical properties :
#
#
# Convention : Reuss Voigt Hill
#
# Bulk Modulus (GPa) = 47.11253 62.14467 54.62860
# Shear Modulus (GPa) = 29.35921 35.90224 32.63072
#
# Velocity S-wave (km/s) = 3.46149 3.82782 3.64926
# Velocity P-wave (km/s) = 5.93323 6.70063 6.32857
#
# Compressibility (1/GPa) = 0.02122578
#
# Stress axis : x y z
#
# Youngs Moduli (GPa) = 59.58263 72.30165 54.53474
#
# Poissons Ratio (x) = 0.29056 0.15390
# Poissons Ratio (y) = 0.23944 0.38294
# Poissons Ratio (z) = 0.16814 0.50770
#
# Static dielectric constant tensor:
#      x y z
#    x 1.974170 0.000000 0.057110 
#    y 0.000000 1.927800 0.000000 
#    z 0.057110 0.000000 1.994490 
# 
# From -- ./inp_files/298343.got.cif
#   From: 2010.05.17/outbox.cif.g08.bks.cpg/sg15_150_cif.got.tgz:298343.got - 2010.06.03 18:47:42.
