data_PCOD9285952
_publ_section_title
;
Structure prediction by ZEFSAII (Michael W. Deem and Ramdas Pophale) SiO2 
 PCOD9285952
Probable space group: C 2/C
;
_chemical_formula_sum "Si O2"
_cell_formula_units_Z 40
_cell_length_a 27.554318
_cell_length_b 5.387901
_cell_length_c 10.057838
_cell_angle_alpha 90.000000
_cell_angle_beta 85.353412
_cell_angle_gamma 90.000000
_cell_volume 1488.278403
_symmetry_space_group_name_H-M "C 2/C"
_symmetry_group_IT_number 15
_symmetry_cell_setting 'monoclinic'
loop_
_space_group_symop_operation_xyz
x,y,z
-x,y,1/2-z
-x,-y,-z
x,-y,1/2+z
1/2+x,1/2+y,z
1/2-x,1/2+y,1/2-z
1/2-x,1/2-y,-z
1/2+x,1/2-y,1/2+z
loop_
_atom_site_type_symbol
_atom_site_label
_atom_site_fract_x
_atom_site_fract_y
_atom_site_fract_z
Si Si1 0.401600 0.210405 0.868010
Si Si2 0.305432 0.346573 0.980255
Si Si3 0.032164 0.316369 0.579332
Si Si4 0.718634 0.329901 0.237332
Si Si5 0.433800 0.543386 0.624673
O O1 0.343311 0.184435 0.885906
O O2 0.414105 0.444406 0.770188
O O3 0.436820 0.979995 0.822519
O O4 0.413169 0.262466 0.021126
O O5 0.302744 0.607425 0.902747
O O6 0.250000 0.250000 0.000000
O O7 0.319005 0.355441 0.132538
O O8 0.069738 0.197591 0.468815
O O9 0.000000 0.500000 0.500000
O O10 0.990953 0.115111 0.626341
O O11 0.754620 0.566039 0.258184
#
# Coordination Sequence:
#
# PCOD9285952 Si02
#       5
#     8   8   8   8   8
#     4  11  23  44  68 105 144 188 246 302 376 448
#     4  10  22  43  66 103 142 195 243 306 365 442
#     4   9  22  42  67  98 137 182 228 298 366 433
#     4  10  21  42  69 100 140 198 250 304 371 430
#     4  10  23  42  70 102 139 182 242 300 370 449
#
# _framework density 26.876691000000001
#
# number of rings (size 3 to 8) (size 9 to 14) (size 15 to 20)
#    0.000    2.000    0.000    1.800    0.000   12.000 
#   28.800    0.000    0.000    0.000    0.000    0.000 
#    0.000    0.000    0.000    0.000    0.000    0.000 
#
# Total GULP energy -111544.792938 kJ/mol
# GULP energy per Si atom -5577.239647 kJ/mol
# Density = 2.681552 g / cm^3
# Si number density = 26.876691 Si / 1000 Ang^3
#
#
#
# Elastic Constant Matrix: (Units=GPa)
#
#
# Indices 1 2 3 4 5 6 
#
# 1 106.9156 29.5212 36.2208 0.0000 -30.1359 0.0000
# 2 29.5212 113.8823 15.2523 0.0000 -8.8237 0.0000
# 3 36.2208 15.2523 171.4029 0.0000 -11.7694 0.0000
# 4 0.0000 0.0000 0.0000 32.1151 0.0000 8.3478
# 5 -30.1359 -8.8237 -11.7694 0.0000 38.8135 0.0000
# 6 0.0000 0.0000 0.0000 8.3478 0.0000 25.2933
#
#
#
# Elastic Compliance Matrix: (Units=1/GPa)
#
#
# Indices 1 2 3 4 5 6 
#
# 1 0.013279 -0.002471 -0.001958 0.000000 0.009155 0.000000
# 2 -0.002471 0.009474 -0.000311 0.000000 0.000141 0.000000
# 3 -0.001958 -0.000311 0.006297 0.000000 0.000319 0.000000
# 4 0.000000 0.000000 0.000000 0.034060 0.000000 -0.011241
# 5 0.009155 0.000141 0.000319 0.000000 0.033001 0.000000
# 6 0.000000 0.000000 0.000000 -0.011241 0.000000 0.043246
#
#
# Mechanical properties :
#
#
# Convention : Reuss Voigt Hill
#
# Bulk Modulus (GPa) = 51.09506 61.57659 56.33583
# Shear Modulus (GPa) = 32.18308 39.99146 36.08727
#
# Velocity S-wave (km/s) = 3.46415 3.86159 3.66826
# Velocity P-wave (km/s) = 5.92053 6.54546 6.24082
#
# Compressibility (1/GPa) = 0.01957136
#
# Stress axis : x y z
#
# Youngs Moduli (GPa) = 75.30656 105.55098 158.79358
#
# Poissons Ratio (x) = 0.26079 0.31086
# Poissons Ratio (y) = 0.18606 0.04942
# Poissons Ratio (z) = 0.14742 0.03285
#
# Static dielectric constant tensor:
#      x y z
#    x 2.280910 0.000000 0.392350 
#    y 0.000000 2.268000 0.000000 
#    z 0.392350 0.000000 5.072460 
# 
# From -- ./inp_files/124923.got.cif
#   From: 2010.05.17/outbox.cif.g08.bks.cpg/sg15_63_cif.got.tgz:124923.got - 2010.06.03 18:47:42.
