data_PCOD9285443
_publ_section_title
;
Structure prediction by ZEFSAII (Michael W. Deem and Ramdas Pophale) SiO2 
 PCOD9285443
Probable space group: C 2/C
;
_chemical_formula_sum "Si O2"
_cell_formula_units_Z 44
_cell_length_a 8.362860
_cell_length_b 13.514517
_cell_length_c 24.734299
_cell_angle_alpha 90.000000
_cell_angle_beta 43.646331
_cell_angle_gamma 90.000000
_cell_volume 1929.447663
_symmetry_space_group_name_H-M "C 2/C"
_symmetry_group_IT_number 15
_symmetry_cell_setting 'monoclinic'
loop_
_space_group_symop_operation_xyz
x,y,z
-x,y,1/2-z
-x,-y,-z
x,-y,1/2+z
1/2+x,1/2+y,z
1/2-x,1/2+y,1/2-z
1/2-x,1/2-y,-z
1/2+x,1/2-y,1/2+z
loop_
_atom_site_type_symbol
_atom_site_label
_atom_site_fract_x
_atom_site_fract_y
_atom_site_fract_z
Si Si1 0.904946 0.521387 0.376189
Si Si2 0.392912 0.153833 0.949956
Si Si3 0.500000 0.075675 0.750000
Si Si4 0.674946 0.214416 0.158400
Si Si5 0.964006 0.616469 0.468838
Si Si6 0.468795 0.317771 0.103485
O O1 0.795803 0.422958 0.429832
O O2 0.750819 0.608123 0.386156
O O3 0.042699 0.564087 0.394344
O O4 0.064161 0.487648 0.287317
O O5 0.630351 0.206550 0.872048
O O6 0.438389 0.096272 0.995541
O O7 0.250000 0.250000 0.000000
O O8 0.278305 0.136147 0.823839
O O9 0.500000 0.196665 0.250000
O O10 0.545319 0.265446 0.140311
O O11 0.683349 0.609614 0.537924
O O12 0.024234 0.732372 0.443389
#
# Coordination Sequence:
#
# PCOD9285443 Si02
#       6
#     8   8   4   8   8   8
#     4  11  23  39  62  92 128 164 214 263 316 405
#     4  11  23  39  67  94 119 167 220 269 318 386
#     4  12  22  36  62  98 124 158 222 264 316 396
#     4  10  21  42  61  84 133 170 201 264 336 380
#     4   9  20  41  62  88 126 168 208 263 331 381
#     4   9  20  37  65  88 120 171 209 262 324 388
#
# _framework density 22.804452999999999
#
# number of rings (size 3 to 8) (size 9 to 14) (size 15 to 20)
#    0.000    1.818    0.909    3.818    0.000    2.909 
#    0.000    0.000   48.000    0.000    0.000    0.000 
#    0.000    0.000    0.000    0.000    0.000    0.000 
#
# Total GULP energy -122685.816426 kJ/mol
# GULP energy per Si atom -5576.628019 kJ/mol
# Density = 2.275255 g / cm^3
# Si number density = 22.804453 Si / 1000 Ang^3
#
#
#
# Elastic Constant Matrix: (Units=GPa)
#
#
# Indices 1 2 3 4 5 6 
#
# 1 43.6803 22.0125 54.5906 0.0000 14.7346 -0.0001
# 2 22.0125 98.1491 43.0169 0.0001 5.8965 -0.0001
# 3 54.5906 43.0169 127.7819 0.0003 19.6573 -0.0006
# 4 0.0000 0.0001 0.0003 28.8838 -0.0001 9.6389
# 5 14.7346 5.8965 19.6573 -0.0001 32.5176 0.0001
# 6 -0.0001 -0.0001 -0.0006 9.6389 0.0001 16.8397
#
#
#
# Elastic Compliance Matrix: (Units=1/GPa)
#
#
# Indices 1 2 3 4 5 6 
#
# 1 0.053120 -0.002407 -0.020119 0.000000 -0.011472 -0.000001
# 2 -0.002407 0.012064 -0.003158 0.000000 0.000812 0.000000
# 3 -0.020119 -0.003158 0.017633 0.000000 -0.000971 0.000001
# 4 0.000000 0.000000 0.000000 0.042796 0.000000 -0.024496
# 5 -0.011472 0.000812 -0.000971 0.000000 0.036390 -0.000001
# 6 -0.000001 0.000000 0.000001 -0.024496 -0.000001 0.073405
#
#
# Mechanical properties :
#
#
# Convention : Reuss Voigt Hill
#
# Bulk Modulus (GPa) = 31.79623 56.53905 44.16764
# Shear Modulus (GPa) = 16.82035 25.64764 21.23399
#
# Velocity S-wave (km/s) = 2.71881 3.35726 3.05476
# Velocity P-wave (km/s) = 4.88151 6.31467 5.64377
#
# Compressibility (1/GPa) = 0.03145027
#
# Stress axis : x y z
#
# Youngs Moduli (GPa) = 18.82518 82.89406 56.71055
#
# Poissons Ratio (x) = 0.19950 1.14096
# Poissons Ratio (y) = 0.04531 0.17908
# Poissons Ratio (z) = 0.37874 0.26177
#
# Static dielectric constant tensor:
#      x y z
#    x 1.859340 0.000000 -0.000370 
#    y 0.000000 2.031640 0.000000 
#    z -0.000370 0.000000 1.850890 
# 
# From -- ./inp_files/288585.got.cif
#   From: 2010.05.17/outbox.cif.g08.bks.cpg/sg15_145_cif.got.tgz:288585.got - 2010.06.03 18:47:42.
