data_PCOD9285134
_publ_section_title
;
Structure prediction by ZEFSAII (Michael W. Deem and Ramdas Pophale) SiO2 
 PCOD9285134
Probable space group: C 2/C
;
_chemical_formula_sum "Si O2"
_cell_formula_units_Z 40
_cell_length_a 11.885986
_cell_length_b 19.248835
_cell_length_c 18.291536
_cell_angle_alpha 90.000000
_cell_angle_beta 27.769080
_cell_angle_gamma 90.000000
_cell_volume 1949.804775
_symmetry_space_group_name_H-M "C 2/C"
_symmetry_group_IT_number 15
_symmetry_cell_setting 'monoclinic'
loop_
_space_group_symop_operation_xyz
x,y,z
-x,y,1/2-z
-x,-y,-z
x,-y,1/2+z
1/2+x,1/2+y,z
1/2-x,1/2+y,1/2-z
1/2-x,1/2-y,-z
1/2+x,1/2-y,1/2+z
loop_
_atom_site_type_symbol
_atom_site_label
_atom_site_fract_x
_atom_site_fract_y
_atom_site_fract_z
Si Si1 0.459545 0.464635 0.600537
Si Si2 0.753665 0.423477 0.166125
Si Si3 0.258485 0.168139 0.338845
Si Si4 0.501389 0.291142 0.372270
Si Si5 0.756487 0.050549 0.429345
O O1 0.500000 0.500000 0.500000
O O2 0.325924 0.519134 0.729104
O O3 0.299727 0.397720 0.676540
O O4 0.698879 0.446642 0.509818
O O5 0.581062 0.357547 0.277907
O O6 0.762558 0.469063 0.086258
O O7 0.028843 0.407958 0.029942
O O8 0.500000 0.157223 0.250000
O O9 0.303308 0.233452 0.260721
O O10 0.042073 0.182493 0.520593
O O11 0.250000 0.250000 0.500000
O O12 0.000000 0.076460 0.250000
#
# Coordination Sequence:
#
# PCOD9285134 Si02
#       5
#     8   8   8   8   8
#     4  11  22  37  62  95 133 165 225 270 339 392
#     4  10  21  41  67  95 131 179 222 285 336 398
#     4  10  23  39  62  96 133 176 217 280 330 404
#     4  10  22  41  64  96 135 176 223 276 339 403
#     4   9  22  38  62  98 129 173 224 275 336 404
#
# _framework density 20.514875
#
# number of rings (size 3 to 8) (size 9 to 14) (size 15 to 20)
#    0.000    2.000    2.000    0.000    2.800   13.600 
#    0.000    1.000    0.000    0.000    0.000    0.000 
#    0.000    0.000    0.000    0.000    0.000    0.000 
#
# Total GULP energy -111516.785314 kJ/mol
# GULP energy per Si atom -5575.839266 kJ/mol
# Density = 2.046818 g / cm^3
# Si number density = 20.514875 Si / 1000 Ang^3
#
#
#
# Elastic Constant Matrix: (Units=GPa)
#
#
# Indices 1 2 3 4 5 6 
#
# 1 112.0812 27.8201 34.9533 -0.0388 12.6775 0.0592
# 2 27.8201 143.3399 37.4407 -0.0918 9.2371 0.0939
# 3 34.9533 37.4407 77.3777 -0.4694 0.4894 0.1669
# 4 -0.0388 -0.0918 -0.4694 41.6431 0.2664 2.5709
# 5 12.6775 9.2371 0.4894 0.2664 22.6533 -0.1693
# 6 0.0592 0.0939 0.1669 2.5709 -0.1693 7.7107
#
#
#
# Elastic Compliance Matrix: (Units=1/GPa)
#
#
# Indices 1 2 3 4 5 6 
#
# 1 0.011217 -0.000549 -0.004763 0.000000 -0.005951 -0.000107
# 2 -0.000549 0.008247 -0.003724 0.000000 -0.002976 -0.000081
# 3 -0.004763 -0.003724 0.016855 0.000169 0.003816 -0.000255
# 4 0.000000 0.000000 0.000169 0.024523 -0.000353 -0.008188
# 5 -0.005951 -0.002976 0.003816 -0.000353 0.048618 0.001185
# 6 -0.000107 -0.000081 -0.000255 -0.008188 0.001185 0.132453
#
#
# Mechanical properties :
#
#
# Convention : Reuss Voigt Hill
#
# Bulk Modulus (GPa) = 54.80467 59.24745 57.02606
# Shear Modulus (GPa) = 18.79215 29.90706 24.34961
#
# Velocity S-wave (km/s) = 3.02987 3.82229 3.44891
# Velocity P-wave (km/s) = 6.24602 6.95865 6.61194
#
# Compressibility (1/GPa) = 0.01824662
#
# Stress axis : x y z
#
# Youngs Moduli (GPa) = 89.14910 121.24961 59.33129
#
# Poissons Ratio (x) = 0.06660 0.28262
# Poissons Ratio (y) = 0.04897 0.22092
# Poissons Ratio (z) = 0.42465 0.45148
#
# Static dielectric constant tensor:
#      x y z
#    x 1.816040 -0.000030 -0.034720 
#    y -0.000030 1.738610 0.000070 
#    z -0.034720 0.000070 1.790640 
# 
# From -- ./inp_files/199669.got.cif
#   From: 2010.05.17/outbox.cif.g08.bks.cpg/sg15_100_cif.got.tgz:199669.got - 2010.06.03 18:47:42.
