data_PCOD9285252
_publ_section_title
;
Structure prediction by ZEFSAII (Michael W. Deem and Ramdas Pophale) SiO2 
 PCOD9285252
Probable space group: C 2/C
;
_chemical_formula_sum "Si O2"
_cell_formula_units_Z 52
_cell_length_a 9.222715
_cell_length_b 23.456069
_cell_length_c 11.856964
_cell_angle_alpha 90.000000
_cell_angle_beta 123.503263
_cell_angle_gamma 90.000000
_cell_volume 2138.837247
_symmetry_space_group_name_H-M "C 2/C"
_symmetry_group_IT_number 15
_symmetry_cell_setting 'monoclinic'
loop_
_space_group_symop_operation_xyz
x,y,z
-x,y,1/2-z
-x,-y,-z
x,-y,1/2+z
1/2+x,1/2+y,z
1/2-x,1/2+y,1/2-z
1/2-x,1/2-y,-z
1/2+x,1/2-y,1/2+z
loop_
_atom_site_type_symbol
_atom_site_label
_atom_site_fract_x
_atom_site_fract_y
_atom_site_fract_z
Si Si1 0.798869 0.801883 0.192682
Si Si2 0.835319 0.145804 0.929106
Si Si3 0.107169 0.947073 0.501689
Si Si4 0.361643 0.884909 0.783767
Si Si5 0.000000 0.577019 0.750000
Si Si6 0.403625 0.289393 0.811988
Si Si7 0.363938 0.926580 0.426057
O O1 0.798449 0.803371 0.328167
O O2 0.666356 0.750113 0.115554
O O3 0.717283 0.862327 0.120607
O O4 0.000000 0.794247 0.250000
O O5 0.654633 0.114156 0.871343
O O6 0.966346 0.102620 0.920459
O O7 0.944324 0.168847 0.078586
O O8 0.234143 0.924450 0.654644
O O9 0.221850 0.959479 0.440229
O O10 0.000000 0.000000 0.500000
O O11 0.500000 0.863486 0.750000
O O12 0.255602 0.831345 0.784912
O O13 0.465087 0.918399 0.924425
O O14 0.089471 0.549468 0.677983
O O15 0.500000 0.259311 0.750000
#
# Coordination Sequence:
#
# PCOD9285252 Si02
#       7
#     8   8   8   8   4   8   8
#     4  11  23  38  64  95 138 186 222 283 344 414
#     4  10  23  43  62  98 135 177 232 288 344 421
#     4  10  21  44  76  99 130 179 234 298 363 416
#     4   9  20  41  67 102 140 174 233 304 341 409
#     4  10  22  40  70  90 148 186 216 292 362 400
#     4  11  24  37  63  96 141 188 236 277 349 418
#     4  10  21  41  69 100 141 177 231 293 347 424
#
# _framework density 24.312277000000002
#
# number of rings (size 3 to 8) (size 9 to 14) (size 15 to 20)
#    0.000    1.846    1.538    1.385    6.462    1.231 
#    4.154    0.769   37.231    0.000    0.000    0.000 
#    0.000    0.000    0.000    0.000    0.000    0.000 
#
# Total GULP energy -145292.697034 kJ/mol
# GULP energy per Si atom -5588.180655 kJ/mol
# Density = 2.425694 g / cm^3
# Si number density = 24.312277 Si / 1000 Ang^3
#
#
#
# Elastic Constant Matrix: (Units=GPa)
#
#
# Indices 1 2 3 4 5 6 
#
# 1 196.7753 65.5269 57.5778 0.0000 -7.8227 0.0000
# 2 65.5269 70.3286 11.1639 0.0000 2.9302 0.0000
# 3 57.5778 11.1639 61.4102 0.0000 15.0405 0.0000
# 4 0.0000 0.0000 0.0000 3.0124 0.0000 3.9105
# 5 -7.8227 2.9302 15.0405 0.0000 49.3430 0.0000
# 6 0.0000 0.0000 0.0000 3.9105 0.0000 42.6852
#
#
#
# Elastic Compliance Matrix: (Units=1/GPa)
#
#
# Indices 1 2 3 4 5 6 
#
# 1 0.011399 -0.009206 -0.010365 0.000000 0.005513 0.000000
# 2 -0.009206 0.022076 0.005724 0.000000 -0.004515 0.000000
# 3 -0.010365 0.005724 0.027500 0.000000 -0.010366 0.000000
# 4 0.000000 0.000000 0.000000 0.376771 0.000000 -0.034517
# 5 0.005513 -0.004515 -0.010366 0.000000 0.024568 0.000000
# 6 0.000000 0.000000 0.000000 -0.034517 0.000000 0.026590
#
#
# Mechanical properties :
#
#
# Convention : Reuss Voigt Hill
#
# Bulk Modulus (GPa) = 30.04649 66.33905 48.19277
# Shear Modulus (GPa) = 9.47524 31.95780 20.71652
#
# Velocity S-wave (km/s) = 1.97630 3.62950 2.92224
# Velocity P-wave (km/s) = 4.19441 6.70148 5.59030
#
# Compressibility (1/GPa) = 0.03328176
#
# Stress axis : x y z
#
# Youngs Moduli (GPa) = 87.72386 45.29907 36.36344
#
# Poissons Ratio (x) = 0.41700 0.37690
# Poissons Ratio (y) = 0.80754 -0.20813
# Poissons Ratio (z) = 0.90924 -0.25928
#
# Static dielectric constant tensor:
#      x y z
#    x 1.948750 0.000000 0.015050 
#    y 0.000000 1.998380 0.000000 
#    z 0.015050 0.000000 1.994990 
# 
# From -- ./inp_files/81512.got.cif
#   From: 2010.05.17/outbox.cif.g08.bks.cpg/sg15_41_cif.got.tgz:81512.got - 2010.06.03 18:47:42.
