data_PCOD9285304
_publ_section_title
;
Structure prediction by ZEFSAII (Michael W. Deem and Ramdas Pophale) SiO2 
 PCOD9285304
Probable space group: C 2/C
;
_chemical_formula_sum "Si O2"
_cell_formula_units_Z 40
_cell_length_a 20.868958
_cell_length_b 9.725570
_cell_length_c 20.256673
_cell_angle_alpha 90.000000
_cell_angle_beta 155.435965
_cell_angle_gamma 90.000000
_cell_volume 1709.127228
_symmetry_space_group_name_H-M "C 2/C"
_symmetry_group_IT_number 15
_symmetry_cell_setting 'monoclinic'
loop_
_space_group_symop_operation_xyz
x,y,z
-x,y,1/2-z
-x,-y,-z
x,-y,1/2+z
1/2+x,1/2+y,z
1/2-x,1/2+y,1/2-z
1/2-x,1/2-y,-z
1/2+x,1/2-y,1/2+z
loop_
_atom_site_type_symbol
_atom_site_label
_atom_site_fract_x
_atom_site_fract_y
_atom_site_fract_z
Si Si1 0.960270 0.699676 0.287253
Si Si2 0.124667 0.597193 0.808162
Si Si3 0.284934 0.830492 0.365430
Si Si4 0.912293 0.224438 0.020316
Si Si5 0.693624 0.396901 0.719175
O O1 0.853020 0.565596 0.177507
O O2 0.874785 0.818959 0.245521
O O3 0.000000 0.741725 0.250000
O O4 0.093274 0.648860 0.461584
O O5 0.292799 0.667054 0.963143
O O6 0.000000 0.615617 0.750000
O O7 0.031050 0.665334 0.660732
O O8 0.314280 0.685683 0.356549
O O9 0.267709 0.952287 0.295964
O O10 0.809945 0.303164 0.871091
O O11 0.022448 0.110748 0.090168
#
# Coordination Sequence:
#
# PCOD9285304 Si02
#       5
#     8   8   8   8   8
#     4  11  26  47  72  99 142 185 239 291 350 413
#     4  10  21  41  69  98 139 187 234 288 347 412
#     4  12  27  47  72 106 140 188 236 291 349 423
#     4  10  22  42  66 103 143 179 234 288 353 418
#     4  11  26  43  72 103 142 185 232 290 355 412
#
# _framework density 23.403758
#
# number of rings (size 3 to 8) (size 9 to 14) (size 15 to 20)
#    0.000    1.200    2.000    2.400    8.400    3.200 
#    0.000    1.000    0.000    0.000    0.000    0.000 
#    0.000    0.000    0.000    0.000    0.000    0.000 
#
# Total GULP energy -111702.031909 kJ/mol
# GULP energy per Si atom -5585.101595 kJ/mol
# Density = 2.335049 g / cm^3
# Si number density = 23.403758 Si / 1000 Ang^3
#
#
#
# Elastic Constant Matrix: (Units=GPa)
#
#
# Indices 1 2 3 4 5 6 
#
# 1 82.7330 23.7987 -17.7172 0.0003 -2.2373 -0.0001
# 2 23.7987 55.6524 1.9744 -0.0001 -14.1035 0.0000
# 3 -17.7172 1.9744 45.2515 -0.0002 3.6619 0.0000
# 4 0.0003 -0.0001 -0.0002 -11.2383 0.0000 28.0047
# 5 -2.2373 -14.1035 3.6619 0.0000 31.2255 0.0000
# 6 -0.0001 0.0000 0.0000 28.0047 0.0000 4.8064
#
#
#
# Elastic Compliance Matrix: (Units=1/GPa)
#
#
# Indices 1 2 3 4 5 6 
#
# 1 0.015669 -0.007741 0.006729 0.000000 -0.003163 0.000000
# 2 -0.007741 0.024237 -0.004976 0.000000 0.010976 0.000000
# 3 0.006729 -0.004976 0.025334 0.000000 -0.004737 0.000000
# 4 0.000000 0.000000 0.000000 -0.005734 0.000000 0.033407
# 5 -0.003163 0.010976 -0.004737 0.000000 0.037311 0.000000
# 6 0.000000 0.000000 0.000000 0.033407 0.000000 0.013406
#
#
# Mechanical properties :
#
#
# Convention : Reuss Voigt Hill
#
# Bulk Modulus (GPa) = 18.77500 22.19431 20.48465
# Shear Modulus (GPa) = 35.72562 16.66412 26.19487
#
# Velocity S-wave (km/s) = 3.91127 2.67128 3.34916
# Velocity P-wave (km/s) = 5.33264 4.36098 4.87110
#
# Compressibility (1/GPa) = 0.05326233
#
# Stress axis : x y z
#
# Youngs Moduli (GPa) = 63.81954 41.25920 39.47329
#
# Poissons Ratio (x) = 0.31938 -0.26560
# Poissons Ratio (y) = 0.49402 0.19644
# Poissons Ratio (z) = -0.42942 0.20533
#
# Static dielectric constant tensor:
#      x y z
#    x 1.972170 0.000000 -0.002720 
#    y 0.000000 1.868730 0.000000 
#    z -0.002720 0.000000 1.862660 
# 
# From -- ./inp_files/210833.got.cif
#   From: 2010.05.17/outbox.cif.g08.bks.cpg/sg15_106_cif.got.tgz:210833.got - 2010.06.03 18:47:42.
