data_PCOD9285451
_publ_section_title
;
Structure prediction by ZEFSAII (Michael W. Deem and Ramdas Pophale) SiO2 
 PCOD9285451
Probable space group: C 2/C
;
_chemical_formula_sum "Si O2"
_cell_formula_units_Z 48
_cell_length_a 14.052639
_cell_length_b 28.790141
_cell_length_c 8.120567
_cell_angle_alpha 90.000000
_cell_angle_beta 46.831083
_cell_angle_gamma 90.000000
_cell_volume 2396.172067
_symmetry_space_group_name_H-M "C 2/C"
_symmetry_group_IT_number 15
_symmetry_cell_setting 'monoclinic'
loop_
_space_group_symop_operation_xyz
x,y,z
-x,y,1/2-z
-x,-y,-z
x,-y,1/2+z
1/2+x,1/2+y,z
1/2-x,1/2+y,1/2-z
1/2-x,1/2-y,-z
1/2+x,1/2-y,1/2+z
loop_
_atom_site_type_symbol
_atom_site_label
_atom_site_fract_x
_atom_site_fract_y
_atom_site_fract_z
Si Si1 0.851143 0.908618 0.390950
Si Si2 0.711377 0.354417 0.709660
Si Si3 0.360074 0.236435 0.002427
Si Si4 0.944842 0.816956 0.130473
Si Si5 0.359132 0.071453 0.870296
Si Si6 0.137323 0.526233 0.993516
O O1 0.795814 0.887547 0.624285
O O2 0.863717 0.864191 0.254205
O O3 0.757036 0.947787 0.437140
O O4 0.000000 0.924309 0.250000
O O5 0.815375 0.313933 0.616776
O O6 0.753750 0.387822 0.510919
O O7 0.569701 0.330453 0.870664
O O8 0.500000 0.233646 0.750000
O O9 0.250000 0.250000 0.000000
O O10 0.369678 0.274907 0.134590
O O11 0.000000 0.805444 0.250000
O O12 0.500000 0.092145 0.750000
O O13 0.368045 0.046424 0.683732
O O14 0.337712 0.028851 0.022901
O O15 0.000000 0.534936 0.250000
#
# Coordination Sequence:
#
# PCOD9285451 Si02
#       6
#     8   8   8   8   8   8
#     4   9  21  42  65  88 127 162 212 251 312 371
#     4  10  21  42  61  89 126 161 210 256 308 375
#     4  12  24  40  63  90 128 163 213 263 319 372
#     4   9  22  43  64  88 126 171 208 262 314 374
#     4  11  22  39  64  93 129 161 206 254 316 365
#     4  11  22  39  66  94 126 164 202 260 306 375
#
# _framework density 20.031952
#
# number of rings (size 3 to 8) (size 9 to 14) (size 15 to 20)
#    0.000    2.000    1.667    4.500    2.333    2.667 
#    0.000    7.500    0.000    0.000    0.000    0.000 
#    0.000    0.000    0.000    0.000    0.000    0.000 
#
# Total GULP energy -134011.341386 kJ/mol
# GULP energy per Si atom -5583.805891 kJ/mol
# Density = 1.998636 g / cm^3
# Si number density = 20.031952 Si / 1000 Ang^3
#
#
#
# Elastic Constant Matrix: (Units=GPa)
#
#
# Indices 1 2 3 4 5 6 
#
# 1 95.2447 43.4986 36.6963 0.0000 -7.3118 0.0000
# 2 43.4986 96.9808 53.3125 0.0000 -12.4970 0.0000
# 3 36.6963 53.3125 94.9017 0.0000 -7.9442 0.0000
# 4 0.0000 0.0000 0.0000 13.6957 0.0000 9.2356
# 5 -7.3118 -12.4970 -7.9442 0.0000 20.0023 0.0000
# 6 0.0000 0.0000 0.0000 9.2356 0.0000 23.4019
#
#
#
# Elastic Compliance Matrix: (Units=1/GPa)
#
#
# Indices 1 2 3 4 5 6 
#
# 1 0.013676 -0.004535 -0.002647 0.000000 0.001114 0.000000
# 2 -0.004535 0.017204 -0.007396 0.000000 0.006154 0.000000
# 3 -0.002647 -0.007396 0.015772 0.000000 0.000676 0.000000
# 4 0.000000 0.000000 0.000000 0.099494 0.000000 -0.039265
# 5 0.001114 0.006154 0.000676 0.000000 0.054515 0.000000
# 6 0.000000 0.000000 0.000000 -0.039265 0.000000 0.058227
#
#
# Mechanical properties :
#
#
# Convention : Reuss Voigt Hill
#
# Bulk Modulus (GPa) = 57.15708 61.57130 59.36419
# Shear Modulus (GPa) = 17.01395 21.66131 19.33763
#
# Velocity S-wave (km/s) = 2.91751 3.29194 3.11036
# Velocity P-wave (km/s) = 6.32013 6.72699 6.52673
#
# Compressibility (1/GPa) = 0.01749565
#
# Stress axis : x y z
#
# Youngs Moduli (GPa) = 73.12076 58.12545 63.40295
#
# Poissons Ratio (x) = 0.26362 0.16784
# Poissons Ratio (y) = 0.33162 0.46892
# Poissons Ratio (z) = 0.19356 0.42989
#
# Static dielectric constant tensor:
#      x y z
#    x 1.712710 0.000000 0.018710 
#    y 0.000000 1.705440 0.000000 
#    z 0.018710 0.000000 1.735620 
# 
# From -- ./inp_files/44408.got.cif
#   From: 2010.05.17/outbox.cif.g08.bks.cpg/sg15_23_cif.got.tgz:44408.got - 2010.06.03 18:47:42.
