data_PCOD9285718
_publ_section_title
;
Structure prediction by ZEFSAII (Michael W. Deem and Ramdas Pophale) SiO2 
 PCOD9285718
Probable space group: C 2/C
;
_chemical_formula_sum "Si O2"
_cell_formula_units_Z 44
_cell_length_a 19.612350
_cell_length_b 7.598468
_cell_length_c 14.555565
_cell_angle_alpha 90.000000
_cell_angle_beta 80.228404
_cell_angle_gamma 90.000000
_cell_volume 2137.656474
_symmetry_space_group_name_H-M "C 2/C"
_symmetry_group_IT_number 15
_symmetry_cell_setting 'monoclinic'
loop_
_space_group_symop_operation_xyz
x,y,z
-x,y,1/2-z
-x,-y,-z
x,-y,1/2+z
1/2+x,1/2+y,z
1/2-x,1/2+y,1/2-z
1/2-x,1/2-y,-z
1/2+x,1/2-y,1/2+z
loop_
_atom_site_type_symbol
_atom_site_label
_atom_site_fract_x
_atom_site_fract_y
_atom_site_fract_z
Si Si1 0.000000 0.161230 0.250000
Si Si2 0.113418 0.050028 0.792838
Si Si3 0.090129 0.585806 0.396246
Si Si4 0.938039 0.446951 0.385036
Si Si5 0.843097 0.777009 0.393959
Si Si6 0.819111 0.759218 0.607898
O O1 0.945495 0.288218 0.312706
O O2 0.961287 0.042185 0.184185
O O3 0.115574 0.237096 0.842402
O O4 0.124892 0.083304 0.682540
O O5 0.166692 0.913884 0.824094
O O6 0.081259 0.613520 0.507727
O O7 0.141852 0.420500 0.372822
O O8 0.014435 0.534358 0.374780
O O9 0.882551 0.592788 0.368431
O O10 0.849714 0.813277 0.500899
O O11 0.762198 0.767154 0.388163
#
# Coordination Sequence:
#
# PCOD9285718 Si02
#       6
#     4   8   8   8   8   8
#     4  12  24  38  64 104 128 168 228 270 334 398
#     4  12  25  38  70  96 127 173 217 272 328 400
#     4  10  22  43  65  90 129 171 214 266 335 382
#     4  10  21  42  66  89 132 170 210 277 322 392
#     4  10  24  44  67  94 135 172 222 271 330 390
#     4  10  24  47  63  97 133 172 219 276 322 403
#
# _framework density 20.583288
#
# number of rings (size 3 to 8) (size 9 to 14) (size 15 to 20)
#    0.000    1.455    1.818    2.182    5.091    0.727 
#    0.000    2.727    0.000    0.000    0.000    0.000 
#    0.000    0.000    0.000    0.000    0.000    0.000 
#
# Total GULP energy -122994.470966 kJ/mol
# GULP energy per Si atom -5590.657771 kJ/mol
# Density = 2.053644 g / cm^3
# Si number density = 20.583288 Si / 1000 Ang^3
#
#
#
# Elastic Constant Matrix: (Units=GPa)
#
#
# Indices 1 2 3 4 5 6 
#
# 1 66.8941 18.4224 6.0299 0.0000 -6.1728 0.0000
# 2 18.4224 97.2226 48.4842 0.0000 -2.8342 0.0000
# 3 6.0299 48.4842 54.6396 0.0000 -2.1025 0.0000
# 4 0.0000 0.0000 0.0000 25.2960 0.0000 9.8639
# 5 -6.1728 -2.8342 -2.1025 0.0000 19.2903 0.0000
# 6 0.0000 0.0000 0.0000 9.8639 0.0000 26.2543
#
#
#
# Elastic Compliance Matrix: (Units=1/GPa)
#
#
# Indices 1 2 3 4 5 6 
#
# 1 0.016292 -0.003843 0.001798 0.000000 0.004845 0.000000
# 2 -0.003843 0.019373 -0.016775 0.000000 -0.000212 0.000000
# 3 0.001798 -0.016775 0.033054 0.000000 0.001714 0.000000
# 4 0.000000 0.000000 0.000000 0.046318 0.000000 -0.017402
# 5 0.004845 -0.000212 0.001714 0.000000 0.053546 0.000000
# 6 0.000000 0.000000 0.000000 -0.017402 0.000000 0.044627
#
#
# Mechanical properties :
#
#
# Convention : Reuss Voigt Hill
#
# Bulk Modulus (GPa) = 32.17374 40.51436 36.34405
# Shear Modulus (GPa) = 19.14182 23.88943 21.51562
#
# Velocity S-wave (km/s) = 3.05285 3.41049 3.23661
# Velocity P-wave (km/s) = 5.30014 5.93586 5.62698
#
# Compressibility (1/GPa) = 0.03108124
#
# Stress axis : x y z
#
# Youngs Moduli (GPa) = 61.37892 51.61820 30.25344
#
# Poissons Ratio (x) = 0.19835 -0.05440
# Poissons Ratio (y) = 0.23586 0.50749
# Poissons Ratio (z) = -0.11038 0.86588
#
# Static dielectric constant tensor:
#      x y z
#    x 1.732100 0.000000 0.000290 
#    y 0.000000 1.698540 0.000000 
#    z 0.000290 0.000000 1.760560 
# 
# From -- ./inp_files/212878.got.cif
#   From: 2010.05.17/outbox.cif.g08.bks.cpg/sg15_107_cif.got.tgz:212878.got - 2010.06.03 18:47:42.
