data_PCOD9285209
_publ_section_title
;
Structure prediction by ZEFSAII (Michael W. Deem and Ramdas Pophale) SiO2 
 PCOD9285209
Probable space group: C 2/C
;
_chemical_formula_sum "Si O2"
_cell_formula_units_Z 60
_cell_length_a 11.712576
_cell_length_b 21.642632
_cell_length_c 20.412697
_cell_angle_alpha 90.000000
_cell_angle_beta 147.987430
_cell_angle_gamma 90.000000
_cell_volume 2742.995119
_symmetry_space_group_name_H-M "C 2/C"
_symmetry_group_IT_number 15
_symmetry_cell_setting 'monoclinic'
loop_
_space_group_symop_operation_xyz
x,y,z
-x,y,1/2-z
-x,-y,-z
x,-y,1/2+z
1/2+x,1/2+y,z
1/2-x,1/2+y,1/2-z
1/2-x,1/2-y,-z
1/2+x,1/2-y,1/2+z
loop_
_atom_site_type_symbol
_atom_site_label
_atom_site_fract_x
_atom_site_fract_y
_atom_site_fract_z
Si Si1 0.751367 0.845528 0.631944
Si Si2 0.000000 0.637602 0.750000
Si Si3 0.104108 0.440641 0.996808
Si Si4 0.806378 0.544615 0.819150
Si Si5 0.922914 0.058707 0.923046
Si Si6 0.279413 0.655928 0.480174
Si Si7 0.396264 0.763760 0.817541
Si Si8 0.518231 0.817390 0.116957
O O1 0.605463 0.905319 0.576034
O O2 0.691480 0.799179 0.661445
O O3 0.681746 0.816202 0.528780
O O4 0.000000 0.861023 0.750000
O O5 0.206649 0.592852 0.842674
O O6 0.974633 0.679911 0.673198
O O7 0.008239 0.497484 0.908252
O O8 0.239563 0.461891 0.125834
O O9 0.226412 0.389272 0.015039
O O10 0.629591 0.535790 0.676950
O O11 0.872535 0.615862 0.842143
O O12 0.108750 0.110560 0.016338
O O13 0.000000 0.000000 0.000000
O O14 0.454900 0.706765 0.586494
O O15 0.056991 0.691000 0.357007
O O16 0.190391 0.734932 0.681914
#
# Coordination Sequence:
#
# PCOD9285209 Si02
#       8
#     8   4   8   8   8   8   8   8
#     4  10  23  41  64  94 131 171 216 276 329 398
#     4  10  22  42  64  90 126 178 232 270 330 412
#     4   9  20  40  65  97 129 162 218 275 332 393
#     4   9  19  41  63  92 129 167 212 267 332 397
#     4  11  24  39  63  96 134 182 220 273 341 406
#     4  10  21  41  68  94 132 172 222 282 333 405
#     4  10  21  43  64  96 131 168 228 275 338 402
#     4  10  21  42  66  90 128 173 218 276 332 395
#
# _framework density 21.873899000000002
#
# number of rings (size 3 to 8) (size 9 to 14) (size 15 to 20)
#    0.000    2.133    2.667    0.000    4.667    2.133 
#    7.200    6.000    0.000    0.000    0.000    0.000 
#    0.000    0.000    0.000    0.000    0.000    0.000 
#
# Total GULP energy -167491.388690 kJ/mol
# GULP energy per Si atom -5583.046290 kJ/mol
# Density = 2.182411 g / cm^3
# Si number density = 21.873899 Si / 1000 Ang^3
#
#
#
# Elastic Constant Matrix: (Units=GPa)
#
#
# Indices 1 2 3 4 5 6 
#
# 1 66.5971 34.8395 39.6677 0.0037 27.9046 0.0025
# 2 34.8395 104.0744 28.6627 0.0053 4.9990 0.0026
# 3 39.6677 28.6627 111.2626 0.0171 3.5593 0.0114
# 4 0.0037 0.0053 0.0171 -0.4136 -0.0026 2.6316
# 5 27.9046 4.9990 3.5593 -0.0026 29.6120 -0.0010
# 6 0.0025 0.0026 0.0114 2.6316 -0.0010 27.9708
#
#
#
# Elastic Compliance Matrix: (Units=1/GPa)
#
#
# Indices 1 2 3 4 5 6 
#
# 1 0.041938 -0.009134 -0.011428 0.000012 -0.036605 -0.000001
# 2 -0.009134 0.012392 -0.000145 0.000019 0.006532 -0.000002
# 3 -0.011428 -0.000145 0.012803 0.000214 0.009255 -0.000024
# 4 0.000012 0.000019 0.000214 -1.512379 -0.000168 0.142289
# 5 -0.036605 0.006532 0.009255 -0.000168 0.066049 0.000017
# 6 -0.000001 -0.000002 -0.000024 0.142289 0.000017 0.022365
#
#
# Mechanical properties :
#
#
# Convention : Reuss Voigt Hill
#
# Bulk Modulus (GPa) = 38.87932 54.25266 46.56599
# Shear Modulus (GPa) = -3.82601 23.35144 9.76271
#
# Velocity S-wave (km/s) = -1.32398 3.27088 2.11492
# Velocity P-wave (km/s) = 3.93391 6.25469 5.22479
#
# Compressibility (1/GPa) = 0.02572061
#
# Stress axis : x y z
#
# Youngs Moduli (GPa) = 23.84451 80.69600 78.10411
#
# Poissons Ratio (x) = 0.73704 0.89258
# Poissons Ratio (y) = 0.21778 0.01133
# Poissons Ratio (z) = 0.27250 0.01171
#
# Static dielectric constant tensor:
#      x y z
#    x 1.850920 0.000000 -0.011270 
#    y 0.000000 1.796470 0.000000 
#    z -0.011270 0.000000 1.806690 
# 
# From -- ./inp_files/240862.got.cif
#   From: 2010.05.17/outbox.cif.g08.bks.cpg/sg15_121_cif.got.tgz:240862.got - 2010.06.03 18:47:42.
