data_PCOD9285208
_publ_section_title
;
Structure prediction by ZEFSAII (Michael W. Deem and Ramdas Pophale) SiO2 
 PCOD9285208
Probable space group: C 2/C
;
_chemical_formula_sum "Si O2"
_cell_formula_units_Z 48
_cell_length_a 10.758977
_cell_length_b 16.760971
_cell_length_c 20.438651
_cell_angle_alpha 90.000000
_cell_angle_beta 138.472803
_cell_angle_gamma 90.000000
_cell_volume 2443.542246
_symmetry_space_group_name_H-M "C 2/C"
_symmetry_group_IT_number 15
_symmetry_cell_setting 'monoclinic'
loop_
_space_group_symop_operation_xyz
x,y,z
-x,y,1/2-z
-x,-y,-z
x,-y,1/2+z
1/2+x,1/2+y,z
1/2-x,1/2+y,1/2-z
1/2-x,1/2-y,-z
1/2+x,1/2-y,1/2+z
loop_
_atom_site_type_symbol
_atom_site_label
_atom_site_fract_x
_atom_site_fract_y
_atom_site_fract_z
Si Si1 0.463250 0.945632 0.082647
Si Si2 0.449381 0.771446 0.611524
Si Si3 0.500000 0.893749 0.750000
Si Si4 0.000000 0.982342 0.750000
Si Si5 0.132251 0.106330 0.707496
Si Si6 0.621662 0.105858 0.089888
Si Si7 0.204877 0.024520 0.605303
O O1 0.668942 0.910436 0.179396
O O2 0.333399 0.947717 0.095336
O O3 0.483992 0.036748 0.064353
O O4 0.387077 0.895763 0.991667
O O5 0.250000 0.750000 0.500000
O O6 0.450786 0.838226 0.668936
O O7 0.543683 0.692948 0.678913
O O8 0.571189 0.810783 0.601850
O O9 0.321107 0.952796 0.686374
O O10 0.007950 0.041270 0.815661
O O11 0.823221 0.926445 0.689057
O O12 0.170046 0.090328 0.646477
O O13 0.000000 0.000000 0.500000
#
# Coordination Sequence:
#
# PCOD9285208 Si02
#       7
#     8   8   4   4   8   8   8
#     4  10  21  41  68  94 126 178 223 273 326 406
#     4  12  27  41  64 103 136 176 218 283 344 400
#     4  12  23  46  69  96 138 172 232 278 329 406
#     4  10  21  42  67  94 118 182 216 272 319 404
#     4  11  23  40  65  94 135 164 223 274 338 389
#     4  10  22  41  67  94 130 167 226 269 328 400
#     4  12  22  42  72  99 126 179 230 279 329 413
#
# _framework density 19.643615
#
# number of rings (size 3 to 8) (size 9 to 14) (size 15 to 20)
#    0.000    1.000    3.333    3.500    9.333    0.000 
#    3.000    0.833    0.000    0.000    0.000    0.000 
#    0.000    0.000    0.000    0.000    0.000    0.000 
#
# Total GULP energy -134068.407995 kJ/mol
# GULP energy per Si atom -5586.183666 kJ/mol
# Density = 1.959891 g / cm^3
# Si number density = 19.643615 Si / 1000 Ang^3
#
#
#
# Elastic Constant Matrix: (Units=GPa)
#
#
# Indices 1 2 3 4 5 6 
#
# 1 93.6811 22.5057 7.3783 0.0000 -3.7586 0.0000
# 2 22.5057 77.7201 29.6110 0.0000 13.2600 0.0000
# 3 7.3783 29.6110 74.2711 0.0000 6.6924 0.0000
# 4 0.0000 0.0000 0.0000 17.7043 0.0000 -2.7503
# 5 -3.7586 13.2600 6.6924 0.0000 38.9865 0.0000
# 6 0.0000 0.0000 0.0000 -2.7503 0.0000 34.5304
#
#
#
# Elastic Compliance Matrix: (Units=1/GPa)
#
#
# Indices 1 2 3 4 5 6 
#
# 1 0.011685 -0.003856 0.000159 0.000000 0.002411 0.000000
# 2 -0.003856 0.017147 -0.005987 0.000000 -0.005176 0.000000
# 3 0.000159 -0.005987 0.015896 0.000000 -0.000677 0.000000
# 4 0.000000 0.000000 0.000000 0.057191 0.000000 0.004555
# 5 0.002411 -0.005176 -0.000677 0.000000 0.027759 0.000000
# 6 0.000000 0.000000 0.000000 0.004555 0.000000 0.029323
#
#
# Mechanical properties :
#
#
# Convention : Reuss Voigt Hill
#
# Bulk Modulus (GPa) = 39.42944 40.51801 39.97373
# Shear Modulus (GPa) = 26.76342 30.65605 28.70973
#
# Velocity S-wave (km/s) = 3.69514 3.95474 3.82714
# Velocity P-wave (km/s) = 6.19043 6.44396 6.31847
#
# Compressibility (1/GPa) = 0.02536176
#
# Stress axis : x y z
#
# Youngs Moduli (GPa) = 85.58021 58.31837 62.90758
#
# Poissons Ratio (x) = 0.22485 -0.01001
# Poissons Ratio (y) = 0.32996 0.37663
# Poissons Ratio (z) = -0.01362 0.34915
#
# Static dielectric constant tensor:
#      x y z
#    x 1.702210 0.000000 -0.022010 
#    y 0.000000 1.658000 0.000000 
#    z -0.022010 0.000000 1.721680 
# 
# From -- ./inp_files/143854.got.cif
#   From: 2010.05.17/outbox.cif.g08.bks.cpg/sg15_72_cif.got.tgz:143854.got - 2010.06.03 18:47:42.
