data_PCOD9285753
_publ_section_title
;
Structure prediction by ZEFSAII (Michael W. Deem and Ramdas Pophale) SiO2 
 PCOD9285753
Probable space group: C 2/C
;
_chemical_formula_sum "Si O2"
_cell_formula_units_Z 28
_cell_length_a 32.307749
_cell_length_b 6.914339
_cell_length_c 5.314271
_cell_angle_alpha 90.000000
_cell_angle_beta 98.892215
_cell_angle_gamma 90.000000
_cell_volume 1172.869263
_symmetry_space_group_name_H-M "C 2/C"
_symmetry_group_IT_number 15
_symmetry_cell_setting 'monoclinic'
loop_
_space_group_symop_operation_xyz
x,y,z
-x,y,1/2-z
-x,-y,-z
x,-y,1/2+z
1/2+x,1/2+y,z
1/2-x,1/2+y,1/2-z
1/2-x,1/2-y,-z
1/2+x,1/2-y,1/2+z
loop_
_atom_site_type_symbol
_atom_site_label
_atom_site_fract_x
_atom_site_fract_y
_atom_site_fract_z
Si Si1 0.000000 0.130389 0.250000
Si Si2 0.796335 0.226120 0.437346
Si Si3 0.170895 0.211758 0.531049
Si Si4 0.414847 0.872594 0.194756
O O1 0.958598 0.261500 0.213471
O O2 0.000000 0.000000 0.500000
O O3 0.750000 0.250000 0.500000
O O4 0.800521 0.306536 0.159515
O O5 0.811009 0.003709 0.414027
O O6 0.826387 0.301022 0.688075
O O7 0.124007 0.226638 0.383798
O O8 0.412251 0.973306 0.464411
#
# Coordination Sequence:
#
# PCOD9285753 Si02
#       4
#     4   8   8   8
#     4  12  28  46  84 114 146 190 244 304 360 448
#     4  10  21  42  66  94 135 183 239 312 356 416
#     4  10  23  41  68  97 136 186 244 293 360 432
#     4  12  26  49  73 109 154 196 238 297 375 443
#
# _framework density 23.873080000000002
#
# number of rings (size 3 to 8) (size 9 to 14) (size 15 to 20)
#    0.000    1.143    0.000    5.143    8.000    0.000 
#   30.857    0.000    0.000    0.000    0.000    0.000 
#    0.000    0.000    0.000    0.000    0.000    0.000 
#
# Total GULP energy -78337.256981 kJ/mol
# GULP energy per Si atom -5595.518356 kJ/mol
# Density = 2.381874 g / cm^3
# Si number density = 23.873080 Si / 1000 Ang^3
#
#
#
# Elastic Constant Matrix: (Units=GPa)
#
#
# Indices 1 2 3 4 5 6 
#
# 1 147.7973 20.2490 1.8989 0.0000 14.5570 0.0000
# 2 20.2490 112.7584 -2.0363 0.0000 4.9771 0.0000
# 3 1.8989 -2.0363 178.7639 0.0000 -19.6836 0.0000
# 4 0.0000 0.0000 0.0000 -2.3606 0.0000 -1.6474
# 5 14.5570 4.9771 -19.6836 0.0000 50.3143 0.0000
# 6 0.0000 0.0000 0.0000 -1.6474 0.0000 52.7688
#
#
#
# Elastic Compliance Matrix: (Units=1/GPa)
#
#
# Indices 1 2 3 4 5 6 
#
# 1 0.007138 -0.001196 -0.000317 0.000000 -0.002071 0.000000
# 2 -0.001196 0.009108 0.000058 0.000000 -0.000532 0.000000
# 3 -0.000317 0.000058 0.005860 0.000000 0.002379 0.000000
# 4 0.000000 0.000000 0.000000 -0.414583 0.000000 -0.012943
# 5 -0.002071 -0.000532 0.002379 0.000000 0.021457 0.000000
# 6 0.000000 0.000000 0.000000 -0.012943 0.000000 0.018547
#
#
# Mechanical properties :
#
#
# Convention : Reuss Voigt Hill
#
# Bulk Modulus (GPa) = 52.09917 53.28252 52.69085
# Shear Modulus (GPa) = -14.57032 48.09168 16.76068
#
# Velocity S-wave (km/s) = -2.47315 4.49316 2.65254
# Velocity P-wave (km/s) = 3.70344 7.02036 5.61253
#
# Compressibility (1/GPa) = 0.01919416
#
# Stress axis : x y z
#
# Youngs Moduli (GPa) = 140.09594 109.79531 170.65108
#
# Poissons Ratio (x) = 0.13133 0.05418
# Poissons Ratio (y) = 0.16757 -0.00987
# Poissons Ratio (z) = 0.04448 -0.00635
#
# Static dielectric constant tensor:
#      x y z
#    x 1.862980 0.000000 -0.022180 
#    y 0.000000 2.910920 0.000000 
#    z -0.022180 0.000000 1.987790 
# 
# From -- ./inp_files/16639.got.cif
#   From: 2010.05.17/outbox.cif.g08.bks.cpg/sg15_9_cif.got.tgz:16639.got - 2010.06.03 18:47:42.
