data_PCOD9285250
_publ_section_title
;
Structure prediction by ZEFSAII (Michael W. Deem and Ramdas Pophale) SiO2 
 PCOD9285250
Probable space group: C 2/C
;
_chemical_formula_sum "Si O2"
_cell_formula_units_Z 48
_cell_length_a 19.515595
_cell_length_b 25.352051
_cell_length_c 8.369263
_cell_angle_alpha 90.000000
_cell_angle_beta 149.456207
_cell_angle_gamma 90.000000
_cell_volume 2104.330868
_symmetry_space_group_name_H-M "C 2/C"
_symmetry_group_IT_number 15
_symmetry_cell_setting 'monoclinic'
loop_
_space_group_symop_operation_xyz
x,y,z
-x,y,1/2-z
-x,-y,-z
x,-y,1/2+z
1/2+x,1/2+y,z
1/2-x,1/2+y,1/2-z
1/2-x,1/2-y,-z
1/2+x,1/2-y,1/2+z
loop_
_atom_site_type_symbol
_atom_site_label
_atom_site_fract_x
_atom_site_fract_y
_atom_site_fract_z
Si Si1 0.576915 0.855299 0.192083
Si Si2 0.000000 0.836949 0.250000
Si Si3 0.736169 0.421224 0.717178
Si Si4 0.500000 0.405521 0.750000
Si Si5 0.765464 0.974952 0.126617
Si Si6 0.861018 0.812550 0.660350
Si Si7 0.500000 0.931340 0.750000
Si Si8 0.500000 0.771890 0.250000
O O1 0.636102 0.891277 0.453583
O O2 0.706749 0.822847 0.390614
O O3 0.473259 0.811779 0.050092
O O4 0.528737 0.893480 0.957253
O O5 0.123568 0.876738 0.460604
O O6 0.051651 0.803132 0.503955
O O7 0.757749 0.454100 0.598835
O O8 0.696230 0.463858 0.773235
O O9 0.388348 0.441179 0.442297
O O10 0.422416 0.366688 0.714599
O O11 0.629444 0.964835 0.955466
O O12 0.883653 0.767226 0.575313
#
# Coordination Sequence:
#
# PCOD9285250 Si02
#       8
#     8   4   8   4   8   8   4   4
#     4  11  24  46  65  99 135 177 225 284 336 399
#     4  10  21  41  69 100 138 169 223 289 334 384
#     4  11  25  41  67 100 139 181 227 275 330 401
#     4  11  21  42  70  99 135 172 226 274 332 394
#     4  12  25  41  68 101 137 185 225 267 335 400
#     4  10  22  43  69  99 131 173 224 284 337 398
#     4  12  26  44  70  95 139 184 218 282 332 402
#     4  11  24  43  71  94 136 173 227 281 346 404
#
# _framework density 22.810099999999998
#
# number of rings (size 3 to 8) (size 9 to 14) (size 15 to 20)
#    0.000    1.000    3.333    3.000    2.333    5.333 
#    0.000    4.167    0.000    0.000    0.000    0.000 
#    0.000    0.000    0.000    0.000    0.000    0.000 
#
# Total GULP energy -134267.546020 kJ/mol
# GULP energy per Si atom -5594.481084 kJ/mol
# Density = 2.275818 g / cm^3
# Si number density = 22.810100 Si / 1000 Ang^3
#
#
#
# Elastic Constant Matrix: (Units=GPa)
#
#
# Indices 1 2 3 4 5 6 
#
# 1 84.5747 21.9344 35.4805 0.0000 -4.8943 0.0000
# 2 21.9344 53.5293 26.4923 0.0000 -5.9553 0.0000
# 3 35.4805 26.4923 105.7981 0.0000 -13.0662 0.0000
# 4 0.0000 0.0000 0.0000 22.9253 0.0000 -69.8633
# 5 -4.8943 -5.9553 -13.0662 0.0000 25.2645 0.0000
# 6 0.0000 0.0000 0.0000 -69.8633 0.0000 140.1426
#
#
#
# Elastic Compliance Matrix: (Units=1/GPa)
#
#
# Indices 1 2 3 4 5 6 
#
# 1 0.014484 -0.004039 -0.003864 0.000000 -0.000144 0.000000
# 2 -0.004039 0.022590 -0.003996 0.000000 0.002475 0.000000
# 3 -0.003864 -0.003996 0.012327 0.000000 0.004685 0.000000
# 4 0.000000 0.000000 0.000000 -0.084015 0.000000 -0.041883
# 5 -0.000144 0.002475 0.004685 0.000000 0.042560 0.000000
# 6 0.000000 0.000000 0.000000 -0.041883 0.000000 -0.013744
#
#
# Mechanical properties :
#
#
# Convention : Reuss Voigt Hill
#
# Bulk Modulus (GPa) = 39.05865 45.74629 42.40247
# Shear Modulus (GPa) = 188.43811 48.33280 118.38546
#
# Velocity S-wave (km/s) = 9.09896 4.60817 7.21201
# Velocity P-wave (km/s) = 11.29374 6.95790 9.37979
#
# Compressibility (1/GPa) = 0.02560252
#
# Stress axis : x y z
#
# Youngs Moduli (GPa) = 69.04212 44.26824 81.12260
#
# Poissons Ratio (x) = 0.17879 0.31344
# Poissons Ratio (y) = 0.27885 0.32419
# Poissons Ratio (z) = 0.26677 0.17691
#
# Static dielectric constant tensor:
#      x y z
#    x 1.916590 0.000000 -0.007110 
#    y 0.000000 1.847040 0.000000 
#    z -0.007110 0.000000 1.803010 
# 
# From -- ./inp_files/59188.got.cif
#   From: 2010.05.17/outbox.cif.g08.bks.cpg/sg15_30_cif.got.tgz:59188.got - 2010.06.03 18:47:42.
