data_PCOD9285152
_publ_section_title
;
Structure prediction by ZEFSAII (Michael W. Deem and Ramdas Pophale) SiO2 
 PCOD9285152
Probable space group: C 2/C
;
_chemical_formula_sum "Si O2"
_cell_formula_units_Z 60
_cell_length_a 16.464235
_cell_length_b 20.567550
_cell_length_c 9.963850
_cell_angle_alpha 90.000000
_cell_angle_beta 114.800643
_cell_angle_gamma 90.000000
_cell_volume 3062.869201
_symmetry_space_group_name_H-M "C 2/C"
_symmetry_group_IT_number 15
_symmetry_cell_setting 'monoclinic'
loop_
_space_group_symop_operation_xyz
x,y,z
-x,y,1/2-z
-x,-y,-z
x,-y,1/2+z
1/2+x,1/2+y,z
1/2-x,1/2+y,1/2-z
1/2-x,1/2-y,-z
1/2+x,1/2-y,1/2+z
loop_
_atom_site_type_symbol
_atom_site_label
_atom_site_fract_x
_atom_site_fract_y
_atom_site_fract_z
Si Si1 0.327390 0.989896 0.208300
Si Si2 0.430162 0.952803 0.520398
Si Si3 0.500000 0.155987 0.250000
Si Si4 0.411020 0.636748 0.848097
Si Si5 0.181505 0.734198 0.328180
Si Si6 0.598923 0.425421 0.414732
Si Si7 0.647429 0.434309 0.948381
Si Si8 0.233214 0.887856 0.735965
O O1 0.308528 0.056480 0.277596
O O2 0.362842 0.941409 0.348921
O O3 0.387391 0.012515 0.122546
O O4 0.238947 0.959581 0.080607
O O5 0.482275 0.890200 0.610308
O O6 0.500000 0.000000 0.500000
O O7 0.591125 0.196915 0.309170
O O8 0.360610 0.701460 0.767609
O O9 0.371421 0.582878 0.718752
O O10 0.516402 0.622418 0.893615
O O11 0.393122 0.621556 0.988488
O O12 0.250000 0.750000 0.500000
O O13 0.229752 0.684937 0.256608
O O14 0.582947 0.502433 0.415482
O O15 0.676892 0.402051 0.563624
O O16 0.672361 0.406414 0.820672
#
# Coordination Sequence:
#
# PCOD9285152 Si02
#       8
#     8   8   4   8   8   8   8   8
#     4  11  22  38  63 101 138 166 215 272 341 404
#     4  12  21  39  64  99 134 167 210 273 336 401
#     4  12  26  42  72  98 134 180 226 276 336 394
#     4  11  24  42  66  98 128 175 232 277 332 401
#     4  12  26  45  70  93 134 185 237 275 321 412
#     4  10  21  41  67  98 132 169 224 283 344 403
#     4  11  24  38  67  98 140 168 219 286 349 398
#     4  11  22  41  65  97 136 182 217 272 344 403
#
# _framework density 19.589473999999999
#
# number of rings (size 3 to 8) (size 9 to 14) (size 15 to 20)
#    0.000    0.800    5.333    2.800    3.733    2.133 
#    0.000    0.000    0.000    0.000    0.000    0.000 
#    0.000    0.000    0.000    0.000    0.000    0.000 
#
# Total GULP energy -167159.563869 kJ/mol
# GULP energy per Si atom -5571.985462 kJ/mol
# Density = 1.954489 g / cm^3
# Si number density = 19.589474 Si / 1000 Ang^3
#
#
#
# Elastic Constant Matrix: (Units=GPa)
#
#
# Indices 1 2 3 4 5 6 
#
# 1 66.6904 8.2757 4.0502 0.0000 -5.0489 0.0000
# 2 8.2757 83.6081 -3.2979 0.0000 7.7926 0.0000
# 3 4.0502 -3.2979 56.6307 0.0000 4.7852 0.0000
# 4 0.0000 0.0000 0.0000 6.8015 0.0000 13.2184
# 5 -5.0489 7.7926 4.7852 0.0000 43.2490 0.0000
# 6 0.0000 0.0000 0.0000 13.2184 0.0000 19.5613
#
#
#
# Elastic Compliance Matrix: (Units=1/GPa)
#
#
# Indices 1 2 3 4 5 6 
#
# 1 0.015477 -0.001800 -0.001405 0.000000 0.002287 0.000000
# 2 -0.001800 0.012420 0.001069 0.000000 -0.002566 0.000000
# 3 -0.001405 0.001069 0.018020 0.000000 -0.002350 0.000000
# 4 0.000000 0.000000 0.000000 -0.469310 0.000000 0.317133
# 5 0.002287 -0.002566 -0.002350 0.000000 0.024111 0.000000
# 6 0.000000 0.000000 0.000000 0.317133 0.000000 -0.163179
#
#
# Mechanical properties :
#
#
# Convention : Reuss Voigt Hill
#
# Bulk Modulus (GPa) = 24.01346 24.99835 24.50591
# Shear Modulus (GPa) = -9.18598 27.11579 8.96490
#
# Velocity S-wave (km/s) = -2.16782 3.72452 2.14157
# Velocity P-wave (km/s) = 2.45338 5.59329 4.31879
#
# Compressibility (1/GPa) = 0.04164331
#
# Stress axis : x y z
#
# Youngs Moduli (GPa) = 64.61406 80.51455 55.49517
#
# Poissons Ratio (x) = 0.14496 0.07797
# Poissons Ratio (y) = 0.11633 -0.05932
# Poissons Ratio (z) = 0.09078 -0.08606
#
# Static dielectric constant tensor:
#      x y z
#    x 1.804890 0.000000 0.105610 
#    y 0.000000 1.719140 0.000000 
#    z 0.105610 0.000000 1.790510 
# 
# From -- ./inp_files/50300.got.cif
#   From: 2010.05.17/outbox.cif.g08.bks.cpg/sg15_26_cif.got.tgz:50300.got - 2010.06.03 18:47:42.
