data_PCOD9285237
_publ_section_title
;
Structure prediction by ZEFSAII (Michael W. Deem and Ramdas Pophale) SiO2 
 PCOD9285237
Probable space group: C 2/C
;
_chemical_formula_sum "Si O2"
_cell_formula_units_Z 60
_cell_length_a 20.539997
_cell_length_b 17.881606
_cell_length_c 8.976583
_cell_angle_alpha 90.000000
_cell_angle_beta 56.765449
_cell_angle_gamma 90.000000
_cell_volume 2757.716439
_symmetry_space_group_name_H-M "C 2/C"
_symmetry_group_IT_number 15
_symmetry_cell_setting 'monoclinic'
loop_
_space_group_symop_operation_xyz
x,y,z
-x,y,1/2-z
-x,-y,-z
x,-y,1/2+z
1/2+x,1/2+y,z
1/2-x,1/2+y,1/2-z
1/2-x,1/2-y,-z
1/2+x,1/2-y,1/2+z
loop_
_atom_site_type_symbol
_atom_site_label
_atom_site_fract_x
_atom_site_fract_y
_atom_site_fract_z
Si Si1 0.598683 0.646249 0.894562
Si Si2 0.144950 0.317083 0.872650
Si Si3 0.924544 0.688332 0.734567
Si Si4 0.000000 0.070828 0.250000
Si Si5 0.352518 0.498338 0.308876
Si Si6 0.803090 0.101990 0.122485
Si Si7 0.548639 0.699299 0.562481
Si Si8 0.501805 0.917706 0.927721
O O1 0.631618 0.729982 0.847567
O O2 0.652124 0.577807 0.781558
O O3 0.520130 0.643383 0.894729
O O4 0.563614 0.625078 0.097413
O O5 0.224731 0.351298 0.713747
O O6 0.076348 0.368806 0.889291
O O7 0.141914 0.318850 0.057897
O O8 0.928985 0.757905 0.616705
O O9 0.000000 0.689970 0.750000
O O10 0.931012 0.622403 0.605132
O O11 0.943390 0.018667 0.222751
O O12 0.316716 0.568769 0.269624
O O13 0.309588 0.471185 0.510973
O O14 0.874365 0.156096 0.986717
O O15 0.500000 0.745885 0.750000
O O16 0.500000 0.920829 0.750000
O O17 0.500000 0.000000 0.000000
#
# Coordination Sequence:
#
# PCOD9285237 Si02
#       8
#     8   8   8   4   8   8   8   8
#     4  12  22  41  74  99 143 184 240 296 352 428
#     4  11  27  47  67 105 149 187 239 305 368 429
#     4  10  21  41  68  98 133 180 236 289 346 421
#     4  12  22  42  76 112 132 188 248 300 348 438
#     4  12  25  43  69 102 142 193 234 292 363 431
#     4  12  28  45  67 105 151 187 237 298 374 436
#     4  12  22  40  71 105 138 182 238 295 353 435
#     4  11  23  43  75 101 126 186 250 301 352 427
#
# _framework density 21.757131000000001
#
# number of rings (size 3 to 8) (size 9 to 14) (size 15 to 20)
#    0.000    0.533    6.667    3.600    0.000    3.200 
#    0.000    1.333    0.000    0.000    0.000    0.000 
#    0.000    0.000    0.000    0.000    0.000    0.000 
#
# Total GULP energy -167302.927689 kJ/mol
# GULP energy per Si atom -5576.764256 kJ/mol
# Density = 2.170761 g / cm^3
# Si number density = 21.757131 Si / 1000 Ang^3
#
#
#
# Elastic Constant Matrix: (Units=GPa)
#
#
# Indices 1 2 3 4 5 6 
#
# 1 61.6311 53.1958 49.2745 0.0000 -4.2696 0.0000
# 2 53.1958 140.5801 38.8782 0.0000 -0.7019 0.0000
# 3 49.2745 38.8782 122.2538 0.0000 10.4968 0.0000
# 4 0.0000 0.0000 0.0000 43.7498 0.0000 2.2100
# 5 -4.2696 -0.7019 10.4968 0.0000 33.1977 0.0000
# 6 0.0000 0.0000 0.0000 2.2100 0.0000 24.3951
#
#
#
# Elastic Compliance Matrix: (Units=1/GPa)
#
#
# Indices 1 2 3 4 5 6 
#
# 1 0.034337 -0.009803 -0.011393 0.000000 0.007811 0.000000
# 2 -0.009803 0.010629 0.000678 0.000000 -0.001251 0.000000
# 3 -0.011393 0.000678 0.013034 0.000000 -0.005572 0.000000
# 4 0.000000 0.000000 0.000000 0.022962 0.000000 -0.002080
# 5 0.007811 -0.001251 -0.005572 0.000000 0.032863 0.000000
# 6 0.000000 0.000000 0.000000 -0.002080 0.000000 0.041180
#
#
# Mechanical properties :
#
#
# Convention : Reuss Voigt Hill
#
# Bulk Modulus (GPa) = 58.94463 67.46243 63.20353
# Shear Modulus (GPa) = 24.78988 32.47629 28.63309
#
# Velocity S-wave (km/s) = 3.37915 3.86770 3.63165
# Velocity P-wave (km/s) = 6.50967 7.14282 6.83358
#
# Compressibility (1/GPa) = 0.01696507
#
# Stress axis : x y z
#
# Youngs Moduli (GPa) = 29.12330 94.08092 76.72162
#
# Poissons Ratio (x) = 0.92232 0.87405
# Poissons Ratio (y) = 0.28551 -0.05205
# Poissons Ratio (z) = 0.33179 -0.06383
#
# Static dielectric constant tensor:
#      x y z
#    x 1.802420 0.000000 0.061270 
#    y 0.000000 1.824570 0.000000 
#    z 0.061270 0.000000 2.006310 
# 
# From -- ./inp_files/57010.got.cif
#   From: 2010.05.17/outbox.cif.g08.bks.cpg/sg15_29_cif.got.tgz:57010.got - 2010.06.03 18:47:42.
