data_PCOD9285454
_publ_section_title
;
Structure prediction by ZEFSAII (Michael W. Deem and Ramdas Pophale) SiO2 
 PCOD9285454
Probable space group: C 2/C
;
_chemical_formula_sum "Si O2"
_cell_formula_units_Z 56
_cell_length_a 12.175488
_cell_length_b 11.317871
_cell_length_c 18.459466
_cell_angle_alpha 90.000000
_cell_angle_beta 60.153582
_cell_angle_gamma 90.000000
_cell_volume 2206.332260
_symmetry_space_group_name_H-M "C 2/C"
_symmetry_group_IT_number 15
_symmetry_cell_setting 'monoclinic'
loop_
_space_group_symop_operation_xyz
x,y,z
-x,y,1/2-z
-x,-y,-z
x,-y,1/2+z
1/2+x,1/2+y,z
1/2-x,1/2+y,1/2-z
1/2-x,1/2-y,-z
1/2+x,1/2-y,1/2+z
loop_
_atom_site_type_symbol
_atom_site_label
_atom_site_fract_x
_atom_site_fract_y
_atom_site_fract_z
Si Si1 0.711051 0.566792 0.048065
Si Si2 0.992125 0.622533 0.960933
Si Si3 0.784071 0.049017 0.616441
Si Si4 0.505731 0.730543 0.913525
Si Si5 0.441161 0.771613 0.343585
Si Si6 0.366951 0.856760 0.749388
Si Si7 0.865930 0.871749 0.328101
O O1 0.596504 0.656506 0.098264
O O2 0.714751 0.478145 0.114797
O O3 0.839831 0.641670 0.007161
O O4 0.702486 0.505674 0.971821
O O5 0.026391 0.641913 0.866041
O O6 0.049933 0.719884 0.994296
O O7 0.000000 0.500000 0.000000
O O8 0.910681 0.114687 0.599777
O O9 0.678488 0.150890 0.642419
O O10 0.731722 0.953459 0.690524
O O11 0.591548 0.833897 0.847136
O O12 0.402543 0.700458 0.888104
O O13 0.500000 0.729894 0.250000
O O14 0.500000 0.878335 0.750000
O O15 0.316916 0.726790 0.789420
O O16 0.000000 0.913893 0.250000
#
# Coordination Sequence:
#
# PCOD9285454 Si02
#       7
#     8   8   8   8   8   8   8
#     4  11  22  43  65  89 132 166 207 267 328 380
#     4  11  24  42  65  96 126 167 216 268 308 385
#     4  11  21  40  64  93 125 166 214 269 319 372
#     4  10  21  42  61  90 132 158 218 259 314 371
#     4  11  23  42  65  94 128 171 212 258 328 380
#     4   9  22  40  64  88 126 173 211 260 319 383
#     4   9  22  42  62  90 129 173 206 259 324 381
#
# _framework density 25.381491
#
# number of rings (size 3 to 8) (size 9 to 14) (size 15 to 20)
#    0.000    2.000    2.857    1.714   10.000    3.429 
#    2.571    0.000    0.000    0.000    0.000    0.000 
#    0.000    0.000    0.000    0.000    0.000    0.000 
#
# Total GULP energy -156546.049171 kJ/mol
# GULP energy per Si atom -5590.930328 kJ/mol
# Density = 2.532372 g / cm^3
# Si number density = 25.381491 Si / 1000 Ang^3
#
#
#
# Elastic Constant Matrix: (Units=GPa)
#
#
# Indices 1 2 3 4 5 6 
#
# 1 35.3202 -5.4526 4.3837 0.0000 5.9638 0.0000
# 2 -5.4526 69.9640 17.0406 0.0000 -11.5294 0.0000
# 3 4.3837 17.0406 97.0045 0.0000 8.9419 0.0000
# 4 0.0000 0.0000 0.0000 41.9882 0.0000 -1.3329
# 5 5.9638 -11.5294 8.9419 0.0000 32.9262 0.0000
# 6 0.0000 0.0000 0.0000 -1.3329 0.0000 24.6219
#
#
#
# Elastic Compliance Matrix: (Units=1/GPa)
#
#
# Indices 1 2 3 4 5 6 
#
# 1 0.029494 0.001892 -0.001266 0.000000 -0.004336 0.000000
# 2 0.001892 0.016349 -0.003542 0.000000 0.006344 0.000000
# 3 -0.001266 -0.003542 0.011366 0.000000 -0.004098 0.000000
# 4 0.000000 0.000000 0.000000 0.023857 0.000000 0.001292
# 5 -0.004336 0.006344 -0.004098 0.000000 0.034490 0.000000
# 6 0.000000 0.000000 0.000000 0.001292 0.000000 0.040684
#
#
# Mechanical properties :
#
#
# Convention : Reuss Voigt Hill
#
# Bulk Modulus (GPa) = 19.46381 26.02579 22.74480
# Shear Modulus (GPa) = 27.90225 32.32840 30.11532
#
# Velocity S-wave (km/s) = 3.31919 3.57277 3.44831
# Velocity P-wave (km/s) = 4.73017 5.22452 4.98348
#
# Compressibility (1/GPa) = 0.05137740
#
# Stress axis : x y z
#
# Youngs Moduli (GPa) = 33.90554 61.16696 87.98174
#
# Poissons Ratio (x) = -0.11575 0.11135
# Poissons Ratio (y) = -0.06416 0.31165
# Poissons Ratio (z) = 0.04291 0.21667
#
# Static dielectric constant tensor:
#      x y z
#    x 2.043140 0.000000 -0.058480 
#    y 0.000000 2.014610 0.000000 
#    z -0.058480 0.000000 2.075370 
# 
# From -- ./inp_files/204374.got.cif
#   From: 2010.05.17/outbox.cif.g08.bks.cpg/sg15_103_cif.got.tgz:204374.got - 2010.06.03 18:47:42.
