data_PCOD9285907
_publ_section_title
;
Structure prediction by ZEFSAII (Michael W. Deem and Ramdas Pophale) SiO2 
 PCOD9285907
Probable space group: C 2/C
;
_chemical_formula_sum "Si O2"
_cell_formula_units_Z 36
_cell_length_a 23.633271
_cell_length_b 14.438338
_cell_length_c 13.187364
_cell_angle_alpha 90.000000
_cell_angle_beta 156.546691
_cell_angle_gamma 90.000000
_cell_volume 1790.951669
_symmetry_space_group_name_H-M "C 2/C"
_symmetry_group_IT_number 15
_symmetry_cell_setting 'monoclinic'
loop_
_space_group_symop_operation_xyz
x,y,z
-x,y,1/2-z
-x,-y,-z
x,-y,1/2+z
1/2+x,1/2+y,z
1/2-x,1/2+y,1/2-z
1/2-x,1/2-y,-z
1/2+x,1/2-y,1/2+z
loop_
_atom_site_type_symbol
_atom_site_label
_atom_site_fract_x
_atom_site_fract_y
_atom_site_fract_z
Si Si1 0.220187 0.370302 0.266523
Si Si2 0.500000 0.089569 0.250000
Si Si3 0.338117 0.562952 0.488368
Si Si4 0.831190 0.667816 0.456358
Si Si5 0.315350 0.968960 0.095421
O O1 0.321021 0.459304 0.411200
O O2 0.297987 0.275269 0.416516
O O3 0.136150 0.407000 0.228381
O O4 0.119929 0.354845 0.005709
O O5 0.568988 0.025324 0.277061
O O6 0.228844 0.628603 0.248618
O O7 0.289842 0.541942 0.524204
O O8 0.500000 0.594888 0.750000
O O9 0.754306 0.604454 0.414933
O O10 0.000000 0.655687 0.750000
#
# Coordination Sequence:
#
# PCOD9285907 Si02
#       5
#     8   4   8   8   8
#     4  10  24  39  66  96 128 169 215 264 321 380
#     4  12  20  44  68  96 132 170 214 268 324 376
#     4  10  24  42  64  96 133 165 215 267 323 381
#     4  12  23  42  69  94 129 174 218 265 319 387
#     4  10  21  42  68  93 125 179 209 267 320 387
#
# _framework density 20.101044000000002
#
# number of rings (size 3 to 8) (size 9 to 14) (size 15 to 20)
#    1.333    0.000    3.333    2.000    4.667    0.889 
#    0.000    1.111    0.000    0.000    0.000    0.000 
#    0.000    0.000    0.000    0.000    0.000    0.000 
#
# Total GULP energy -100227.512983 kJ/mol
# GULP energy per Si atom -5568.195166 kJ/mol
# Density = 2.005529 g / cm^3
# Si number density = 20.101044 Si / 1000 Ang^3
#
#
#
# Elastic Constant Matrix: (Units=GPa)
#
#
# Indices 1 2 3 4 5 6 
#
# 1 94.3201 29.9187 36.1917 0.0000 7.7234 0.0000
# 2 29.9187 61.6701 14.4274 0.0000 9.5567 0.0000
# 3 36.1917 14.4274 97.3762 0.0000 6.0502 0.0000
# 4 0.0000 0.0000 0.0000 67.1976 0.0000 -18.6339
# 5 7.7234 9.5567 6.0502 0.0000 21.7650 0.0000
# 6 0.0000 0.0000 0.0000 -18.6339 0.0000 5.6641
#
#
#
# Elastic Compliance Matrix: (Units=1/GPa)
#
#
# Indices 1 2 3 4 5 6 
#
# 1 0.014172 -0.005651 -0.004347 0.000000 -0.001339 0.000000
# 2 -0.005651 0.020102 -0.000462 0.000000 -0.006693 0.000000
# 3 -0.004347 -0.000462 0.012053 0.000000 -0.001605 0.000000
# 4 0.000000 0.000000 0.000000 0.169642 0.000000 0.558096
# 5 -0.001339 -0.006693 -0.001605 0.000000 0.049805 0.000000
# 6 0.000000 0.000000 0.000000 0.558096 0.000000 2.012608
#
#
# Mechanical properties :
#
#
# Convention : Reuss Voigt Hill
#
# Bulk Modulus (GPa) = 39.35866 46.04912 42.70389
# Shear Modulus (GPa) = 2.16659 30.44725 16.30692
#
# Velocity S-wave (km/s) = 1.03932 3.89615 2.85133
# Velocity P-wave (km/s) = 4.58946 6.57256 5.66841
#
# Compressibility (1/GPa) = 0.02540737
#
# Stress axis : x y z
#
# Youngs Moduli (GPa) = 70.55974 49.74591 82.96498
#
# Poissons Ratio (x) = 0.28112 0.36064
# Poissons Ratio (y) = 0.39874 0.03835
# Poissons Ratio (z) = 0.30672 0.02299
#
# Static dielectric constant tensor:
#      x y z
#    x 1.737270 0.000000 -0.001600 
#    y 0.000000 1.698640 0.000000 
#    z -0.001600 0.000000 1.762980 
# 
# From -- ./inp_files/178259.got.cif
#   From: 2010.05.17/outbox.cif.g08.bks.cpg/sg15_90_cif.got.tgz:178259.got - 2010.06.03 18:47:42.
