data_PCOD9285115
_publ_section_title
;
Structure prediction by ZEFSAII (Michael W. Deem and Ramdas Pophale) SiO2 
 PCOD9285115
Probable space group: C 2/C
;
_chemical_formula_sum "Si O2"
_cell_formula_units_Z 64
_cell_length_a 15.141658
_cell_length_b 21.758035
_cell_length_c 8.457115
_cell_angle_alpha 90.000000
_cell_angle_beta 86.172733
_cell_angle_gamma 90.000000
_cell_volume 2780.005797
_symmetry_space_group_name_H-M "C 2/C"
_symmetry_group_IT_number 15
_symmetry_cell_setting 'monoclinic'
loop_
_space_group_symop_operation_xyz
x,y,z
-x,y,1/2-z
-x,-y,-z
x,-y,1/2+z
1/2+x,1/2+y,z
1/2-x,1/2+y,1/2-z
1/2-x,1/2-y,-z
1/2+x,1/2-y,1/2+z
loop_
_atom_site_type_symbol
_atom_site_label
_atom_site_fract_x
_atom_site_fract_y
_atom_site_fract_z
Si Si1 0.686323 0.605962 0.006826
Si Si2 0.138279 0.591720 0.053078
Si Si3 0.099335 0.978831 0.289515
Si Si4 0.195248 0.705053 0.618774
Si Si5 0.357986 0.966646 0.605664
Si Si6 0.972104 0.631933 0.934770
Si Si7 0.162379 0.093482 0.475591
Si Si8 0.399320 0.693850 0.215022
O O1 0.608627 0.567104 0.936643
O O2 0.739108 0.647492 0.871029
O O3 0.763285 0.560205 0.059521
O O4 0.646143 0.650119 0.145596
O O5 0.125368 0.555942 0.219136
O O6 0.137936 0.539271 0.917671
O O7 0.237162 0.616771 0.045422
O O8 0.059773 0.638877 0.029258
O O9 0.142825 0.942075 0.139581
O O10 0.000000 0.992547 0.250000
O O11 0.145255 0.040970 0.344432
O O12 0.250000 0.750000 0.500000
O O13 0.108150 0.679836 0.538065
O O14 0.158242 0.743830 0.770328
O O15 0.430911 0.933355 0.489298
O O16 0.000000 0.632996 0.750000
O O17 0.103368 0.152601 0.441721
O O18 0.500000 0.707588 0.250000
#
# Coordination Sequence:
#
# PCOD9285115 Si02
#       8
#     8   8   8   8   8   8   8   8
#     4  10  21  41  67  93 133 180 219 272 345 398
#     4  12  23  39  64  99 141 178 221 267 334 407
#     4  12  24  41  64 100 139 176 226 275 338 405
#     4   9  22  43  72  91 124 175 223 275 337 400
#     4  11  22  40  61  97 142 182 219 266 331 404
#     4  11  24  40  68  99 129 175 222 273 331 400
#     4  12  24  38  65 100 135 179 216 277 332 404
#     4  11  21  42  68  94 124 172 231 276 334 395
#
# _framework density 23.021532000000001
#
# number of rings (size 3 to 8) (size 9 to 14) (size 15 to 20)
#    0.000    1.000    2.500    4.875    3.500    0.000 
#    0.000    0.625    5.500    1.500    0.000    0.000 
#    0.000    0.000    0.000    0.000    0.000    0.000 
#
# Total GULP energy -178987.544014 kJ/mol
# GULP energy per Si atom -5593.360750 kJ/mol
# Density = 2.296913 g / cm^3
# Si number density = 23.021532 Si / 1000 Ang^3
#
#
#
# Elastic Constant Matrix: (Units=GPa)
#
#
# Indices 1 2 3 4 5 6 
#
# 1 118.8718 9.4309 12.9589 0.0000 5.2497 0.0000
# 2 9.4309 61.0584 4.7517 0.0000 3.7758 0.0000
# 3 12.9589 4.7517 65.3680 0.0000 6.5594 0.0000
# 4 0.0000 0.0000 0.0000 15.7597 0.0000 -5.4776
# 5 5.2497 3.7758 6.5594 0.0000 31.4687 0.0000
# 6 0.0000 0.0000 0.0000 -5.4776 0.0000 39.5742
#
#
#
# Elastic Compliance Matrix: (Units=1/GPa)
#
#
# Indices 1 2 3 4 5 6 
#
# 1 0.008717 -0.001165 -0.001544 0.000000 -0.000993 0.000000
# 2 -0.001165 0.016723 -0.000820 0.000000 -0.001641 0.000000
# 3 -0.001544 -0.000820 0.015962 0.000000 -0.002971 0.000000
# 4 0.000000 0.000000 0.000000 0.066660 0.000000 0.009227
# 5 -0.000993 -0.001641 -0.002971 0.000000 0.032759 0.000000
# 6 0.000000 0.000000 0.000000 0.009227 0.000000 0.026546
#
#
# Mechanical properties :
#
#
# Convention : Reuss Voigt Hill
#
# Bulk Modulus (GPa) = 29.11681 33.28679 31.20180
# Shear Modulus (GPa) = 26.90014 31.90429 29.40222
#
# Velocity S-wave (km/s) = 3.42201 3.72673 3.57762
# Velocity P-wave (km/s) = 5.31870 5.74530 5.53611
#
# Compressibility (1/GPa) = 0.03434442
#
# Stress axis : x y z
#
# Youngs Moduli (GPa) = 114.71862 59.79788 62.64949
#
# Poissons Ratio (x) = 0.06966 0.09672
# Poissons Ratio (y) = 0.13363 0.05137
# Poissons Ratio (z) = 0.17710 0.04903
#
# Static dielectric constant tensor:
#      x y z
#    x 1.872280 0.000000 -0.013570 
#    y 0.000000 1.862310 0.000000 
#    z -0.013570 0.000000 1.892810 
# 
# From -- ./inp_files/42660.got.cif
#   From: 2010.05.17/outbox.cif.g08.bks.cpg/sg15_22_cif.got.tgz:42660.got - 2010.06.03 18:47:42.
