data_PCOD9285758
_publ_section_title
;
Structure prediction by ZEFSAII (Michael W. Deem and Ramdas Pophale) SiO2 
 PCOD9285758
Probable space group: C 2/C
;
_chemical_formula_sum "Si O2"
_cell_formula_units_Z 32
_cell_length_a 11.480565
_cell_length_b 8.134716
_cell_length_c 14.918844
_cell_angle_alpha 90.000000
_cell_angle_beta 84.226843
_cell_angle_gamma 90.000000
_cell_volume 1386.220953
_symmetry_space_group_name_H-M "C 2/C"
_symmetry_group_IT_number 15
_symmetry_cell_setting 'monoclinic'
loop_
_space_group_symop_operation_xyz
x,y,z
-x,y,1/2-z
-x,-y,-z
x,-y,1/2+z
1/2+x,1/2+y,z
1/2-x,1/2+y,1/2-z
1/2-x,1/2-y,-z
1/2+x,1/2-y,1/2+z
loop_
_atom_site_type_symbol
_atom_site_label
_atom_site_fract_x
_atom_site_fract_y
_atom_site_fract_z
Si Si1 0.152324 0.393678 0.019290
Si Si2 0.010823 0.850990 0.428328
Si Si3 0.255363 0.635700 0.870253
Si Si4 0.234745 0.998422 0.321268
O O1 0.039550 0.312859 0.982698
O O2 0.198194 0.548228 0.959594
O O3 0.250000 0.250000 0.000000
O O4 0.158700 0.437932 0.123432
O O5 0.892230 0.843328 0.382012
O O6 0.121013 0.890952 0.355964
O O7 0.000000 0.000000 0.500000
O O8 0.207198 0.814646 0.850005
O O9 0.239259 0.521249 0.784836
#
# Coordination Sequence:
#
# PCOD9285758 Si02
#       4
#     8   8   8   8
#     4  10  21  42  66  95 128 169 215 263 323 385
#     4  11  23  42  69  91 130 172 211 264 330 381
#     4  12  24  44  66  95 134 169 217 272 319 385
#     4  11  24  42  67  96 131 171 218 267 324 384
#
# _framework density 23.084344000000002
#
# number of rings (size 3 to 8) (size 9 to 14) (size 15 to 20)
#    0.000    1.000    5.000    4.500    0.000    1.000 
#    0.000    0.000    0.000    0.000    0.000    0.000 
#    0.000    0.000    0.000    0.000    0.000    0.000 
#
# Total GULP energy -89623.519039 kJ/mol
# GULP energy per Si atom -5601.469940 kJ/mol
# Density = 2.303180 g / cm^3
# Si number density = 23.084344 Si / 1000 Ang^3
#
#
#
# Elastic Constant Matrix: (Units=GPa)
#
#
# Indices 1 2 3 4 5 6 
#
# 1 85.8027 25.6563 39.9815 0.0000 21.5590 0.0000
# 2 25.6563 104.4568 5.6219 0.0000 20.5549 0.0000
# 3 39.9815 5.6219 111.3744 0.0000 35.5975 0.0000
# 4 0.0000 0.0000 0.0000 44.4335 0.0000 3.5555
# 5 21.5590 20.5549 35.5975 0.0000 31.3354 0.0000
# 6 0.0000 0.0000 0.0000 3.5555 0.0000 34.6707
#
#
#
# Elastic Compliance Matrix: (Units=1/GPa)
#
#
# Indices 1 2 3 4 5 6 
#
# 1 0.015420 -0.002741 -0.004052 0.000000 -0.004207 0.000000
# 2 -0.002741 0.012042 0.003608 0.000000 -0.010112 0.000000
# 3 -0.004052 0.003608 0.015884 0.000000 -0.017624 0.000000
# 4 0.000000 0.000000 0.000000 0.022692 0.000000 -0.002327
# 5 -0.004207 -0.010112 -0.017624 0.000000 0.061461 0.000000
# 6 0.000000 0.000000 0.000000 -0.002327 0.000000 0.029081
#
#
# Mechanical properties :
#
#
# Convention : Reuss Voigt Hill
#
# Bulk Modulus (GPa) = 27.04488 49.35037 38.19763
# Shear Modulus (GPa) = 28.52631 37.44619 32.98625
#
# Velocity S-wave (km/s) = 3.51913 4.03196 3.78424
# Velocity P-wave (km/s) = 5.31540 6.56508 5.97301
#
# Compressibility (1/GPa) = 0.03697557
#
# Stress axis : x y z
#
# Youngs Moduli (GPa) = 64.85195 83.04006 62.95577
#
# Poissons Ratio (x) = 0.22764 0.25512
# Poissons Ratio (y) = 0.17778 -0.22717
# Poissons Ratio (z) = 0.26280 -0.29964
#
# Static dielectric constant tensor:
#      x y z
#    x 1.897140 0.000000 0.027000 
#    y 0.000000 1.878340 0.000000 
#    z 0.027000 0.000000 1.831990 
# 
# From -- ./inp_files/140523.got.cif
#   From: 2010.05.17/outbox.cif.g08.bks.cpg/sg15_71_cif.got.tgz:140523.got - 2010.06.03 18:47:42.
