data_PCOD9285354
_publ_section_title
;
Structure prediction by ZEFSAII (Michael W. Deem and Ramdas Pophale) SiO2 
 PCOD9285354
Probable space group: C 2/C
;
_chemical_formula_sum "Si O2"
_cell_formula_units_Z 52
_cell_length_a 12.869633
_cell_length_b 7.442248
_cell_length_c 22.320628
_cell_angle_alpha 90.000000
_cell_angle_beta 59.608061
_cell_angle_gamma 90.000000
_cell_volume 1844.074824
_symmetry_space_group_name_H-M "C 2/C"
_symmetry_group_IT_number 15
_symmetry_cell_setting 'monoclinic'
loop_
_space_group_symop_operation_xyz
x,y,z
-x,y,1/2-z
-x,-y,-z
x,-y,1/2+z
1/2+x,1/2+y,z
1/2-x,1/2+y,1/2-z
1/2-x,1/2-y,-z
1/2+x,1/2-y,1/2+z
loop_
_atom_site_type_symbol
_atom_site_label
_atom_site_fract_x
_atom_site_fract_y
_atom_site_fract_z
Si Si1 0.578472 0.085908 0.085280
Si Si2 0.028862 0.020472 0.904208
Si Si3 0.849971 0.785727 0.331850
Si Si4 0.840578 0.526216 0.099148
Si Si5 0.500000 0.625646 0.250000
Si Si6 0.673834 0.617902 0.974213
Si Si7 0.211276 0.858985 0.759660
O O1 0.543064 0.290619 0.076155
O O2 0.578317 0.127382 0.157034
O O3 0.478126 0.986138 0.075188
O O4 0.704863 0.984178 0.043022
O O5 0.109331 0.007970 0.940071
O O6 0.128739 0.995106 0.823362
O O7 0.920669 0.879622 0.943424
O O8 0.799079 0.728278 0.282394
O O9 0.730436 0.850981 0.401795
O O10 0.923259 0.974336 0.308988
O O11 0.813839 0.692534 0.063808
O O12 0.790479 0.576472 0.180610
O O13 0.402418 0.738025 0.240775
#
# Coordination Sequence:
#
# PCOD9285354 Si02
#       7
#     8   8   8   8   4   8   8
#     4  11  21  43  72  98 130 185 231 281 354 410
#     4  10  21  41  71 101 135 190 231 286 347 421
#     4  11  22  39  66  97 132 180 223 283 344 407
#     4  10  26  40  64 106 141 173 236 291 336 422
#     4  10  22  40  60  94 138 174 226 288 344 412
#     4  10  22  43  68 101 143 178 236 288 349 414
#     4  11  22  40  68  98 139 182 231 285 349 403
#
# _framework density 28.198422000000001
#
# number of rings (size 3 to 8) (size 9 to 14) (size 15 to 20)
#    0.000    1.538    3.077    1.385    6.462    2.462 
#    0.000    1.538    0.000    0.000    0.000    0.000 
#    0.000    0.000    0.000    0.000    0.000    0.000 
#
# Total GULP energy -145152.955847 kJ/mol
# GULP energy per Si atom -5582.805994 kJ/mol
# Density = 2.813424 g / cm^3
# Si number density = 28.198422 Si / 1000 Ang^3
#
#
#
# Elastic Constant Matrix: (Units=GPa)
#
#
# Indices 1 2 3 4 5 6 
#
# 1 210.1017 38.8135 58.9998 0.0000 -6.9984 0.0000
# 2 38.8135 99.7884 61.9633 0.0000 -20.2819 0.0000
# 3 58.9998 61.9633 140.2618 0.0000 0.3669 0.0000
# 4 0.0000 0.0000 0.0000 29.7940 0.0000 8.8433
# 5 -6.9984 -20.2819 0.3669 0.0000 40.2757 0.0000
# 6 0.0000 0.0000 0.0000 8.8433 0.0000 43.4615
#
#
#
# Elastic Compliance Matrix: (Units=1/GPa)
#
#
# Indices 1 2 3 4 5 6 
#
# 1 0.005474 -0.000805 -0.001949 0.000000 0.000564 0.000000
# 2 -0.000805 0.016238 -0.006856 0.000000 0.008100 0.000000
# 3 -0.001949 -0.006856 0.010988 0.000000 -0.003891 0.000000
# 4 0.000000 0.000000 0.000000 0.035721 0.000000 -0.007268
# 5 0.000564 0.008100 -0.003891 0.000000 0.029041 0.000000
# 6 0.000000 0.000000 0.000000 -0.007268 0.000000 0.024488
#
#
# Mechanical properties :
#
#
# Convention : Reuss Voigt Hill
#
# Bulk Modulus (GPa) = 74.17646 85.52280 79.84963
# Shear Modulus (GPa) = 34.32594 42.06458 38.19526
#
# Velocity S-wave (km/s) = 3.49277 3.86649 3.68437
# Velocity P-wave (km/s) = 6.52903 7.09421 6.81748
#
# Compressibility (1/GPa) = 0.01348137
#
# Stress axis : x y z
#
# Youngs Moduli (GPa) = 182.67349 61.58550 91.00693
#
# Poissons Ratio (x) = 0.04955 0.17735
# Poissons Ratio (y) = 0.14698 0.62394
# Poissons Ratio (z) = 0.35598 0.42223
#
# Static dielectric constant tensor:
#      x y z
#    x 2.282890 0.000000 -0.026740 
#    y 0.000000 2.272240 0.000000 
#    z -0.026740 0.000000 2.289910 
# 
# From -- ./inp_files/294752.got.cif
#   From: 2010.05.17/outbox.cif.g08.bks.cpg/sg15_148_cif.got.tgz:294752.got - 2010.06.03 18:47:42.
