data_PCOD9285808
_publ_section_title
;
Structure prediction by ZEFSAII (Michael W. Deem and Ramdas Pophale) SiO2 
 PCOD9285808
Probable space group: C 2/C
;
_chemical_formula_sum "Si O2"
_cell_formula_units_Z 48
_cell_length_a 8.321108
_cell_length_b 26.058139
_cell_length_c 13.020698
_cell_angle_alpha 90.000000
_cell_angle_beta 129.690686
_cell_angle_gamma 90.000000
_cell_volume 2172.547871
_symmetry_space_group_name_H-M "C 2/C"
_symmetry_group_IT_number 15
_symmetry_cell_setting 'monoclinic'
loop_
_space_group_symop_operation_xyz
x,y,z
-x,y,1/2-z
-x,-y,-z
x,-y,1/2+z
1/2+x,1/2+y,z
1/2-x,1/2+y,1/2-z
1/2-x,1/2-y,-z
1/2+x,1/2-y,1/2+z
loop_
_atom_site_type_symbol
_atom_site_label
_atom_site_fract_x
_atom_site_fract_y
_atom_site_fract_z
Si Si1 0.000000 0.583457 0.250000
Si Si2 0.224201 0.586591 0.785067
Si Si3 0.313129 0.986581 0.851190
Si Si4 0.920576 0.868418 0.936582
Si Si5 0.633148 0.201613 0.699052
Si Si6 0.021441 0.243891 0.955920
Si Si7 0.500000 0.594438 0.250000
O O1 0.108702 0.546753 0.212701
O O2 0.185246 0.617475 0.373032
O O3 0.274755 0.539496 0.730485
O O4 0.202847 0.641989 0.720366
O O5 0.000000 0.577325 0.750000
O O6 0.411565 0.593788 0.942626
O O7 0.171956 0.946661 0.855665
O O8 0.500000 0.000000 0.000000
O O9 0.983414 0.812189 0.995692
O O10 0.931200 0.872760 0.818297
O O11 0.500000 0.205666 0.750000
O O12 0.507217 0.216626 0.545109
O O13 0.831479 0.239900 0.796876
O O14 0.250000 0.250000 0.000000
#
# Coordination Sequence:
#
# PCOD9285808 Si02
#       7
#     4   8   8   8   8   8   4
#     4  10  24  40  62  94 130 176 210 274 332 380
#     4  10  21  42  67  91 132 174 221 274 325 394
#     4  11  23  39  63  95 128 172 219 267 327 388
#     4  10  24  43  66  95 134 175 218 277 333 395
#     4  10  23  43  68  99 128 180 223 279 339 402
#     4  11  24  43  68  98 137 172 224 279 345 402
#     4  10  24  40  62  96 126 172 222 262 324 394
#
# _framework density 22.093876000000002
#
# number of rings (size 3 to 8) (size 9 to 14) (size 15 to 20)
#    0.000    1.667    0.833    2.000    5.833    2.667 
#    6.000    0.000    0.000    0.000    0.000    0.000 
#    0.000    0.000    0.000    0.000    0.000    0.000 
#
# Total GULP energy -134085.959599 kJ/mol
# GULP energy per Si atom -5586.914983 kJ/mol
# Density = 2.204359 g / cm^3
# Si number density = 22.093876 Si / 1000 Ang^3
#
#
#
# Elastic Constant Matrix: (Units=GPa)
#
#
# Indices 1 2 3 4 5 6 
#
# 1 40.4387 5.3095 -13.0504 0.0000 4.5452 0.0000
# 2 5.3095 47.8009 -0.3358 0.0000 -15.6463 0.0000
# 3 -13.0504 -0.3358 62.4963 0.0000 5.2349 0.0000
# 4 0.0000 0.0000 0.0000 23.9995 0.0000 7.6946
# 5 4.5452 -15.6463 5.2349 0.0000 35.5534 0.0000
# 6 0.0000 0.0000 0.0000 7.6946 0.0000 15.0593
#
#
#
# Elastic Compliance Matrix: (Units=1/GPa)
#
#
# Indices 1 2 3 4 5 6 
#
# 1 0.028297 -0.005366 0.006461 0.000000 -0.006930 0.000000
# 2 -0.005366 0.025496 -0.002006 0.000000 0.012202 0.000000
# 3 0.006461 -0.002006 0.017701 0.000000 -0.004315 0.000000
# 4 0.000000 0.000000 0.000000 0.049831 0.000000 -0.025461
# 5 -0.006930 0.012202 -0.004315 0.000000 0.035018 0.000000
# 6 0.000000 0.000000 0.000000 -0.025461 0.000000 0.079414
#
#
# Mechanical properties :
#
#
# Convention : Reuss Voigt Hill
#
# Bulk Modulus (GPa) = 14.35305 14.95363 14.65334
# Shear Modulus (GPa) = 19.17158 25.50994 22.34076
#
# Velocity S-wave (km/s) = 2.94893 3.40165 3.18335
# Velocity P-wave (km/s) = 4.25504 4.71288 4.48980
#
# Compressibility (1/GPa) = 0.06967159
#
# Stress axis : x y z
#
# Youngs Moduli (GPa) = 35.33899 39.22195 56.49488
#
# Poissons Ratio (x) = 0.21048 -0.36500
# Poissons Ratio (y) = 0.18964 0.11331
# Poissons Ratio (z) = -0.22831 0.07867
#
# Static dielectric constant tensor:
#      x y z
#    x 1.858400 0.000000 0.051540 
#    y 0.000000 1.888710 0.000000 
#    z 0.051540 0.000000 1.847730 
# 
# From -- ./inp_files/139068.got.cif
#   From: 2010.05.17/outbox.cif.g08.bks.cpg/sg15_70_cif.got.tgz:139068.got - 2010.06.03 18:47:42.
