data_PCOD9285969
_publ_section_title
;
Structure prediction by ZEFSAII (Michael W. Deem and Ramdas Pophale) SiO2 
 PCOD9285969
Probable space group: C 2/C
;
_chemical_formula_sum "Si O2"
_cell_formula_units_Z 48
_cell_length_a 12.362632
_cell_length_b 11.762200
_cell_length_c 19.272620
_cell_angle_alpha 90.000000
_cell_angle_beta 51.599143
_cell_angle_gamma 90.000000
_cell_volume 2196.247764
_symmetry_space_group_name_H-M "C 2/C"
_symmetry_group_IT_number 15
_symmetry_cell_setting 'monoclinic'
loop_
_space_group_symop_operation_xyz
x,y,z
-x,y,1/2-z
-x,-y,-z
x,-y,1/2+z
1/2+x,1/2+y,z
1/2-x,1/2+y,1/2-z
1/2-x,1/2-y,-z
1/2+x,1/2-y,1/2+z
loop_
_atom_site_type_symbol
_atom_site_label
_atom_site_fract_x
_atom_site_fract_y
_atom_site_fract_z
Si Si1 0.306679 0.042118 0.306079
Si Si2 0.262184 0.128024 0.532842
Si Si3 0.303047 0.300738 0.288151
Si Si4 0.040761 0.467277 0.118141
Si Si5 0.966434 0.242751 0.184627
Si Si6 0.020741 0.013662 0.861103
O O1 0.344617 0.174765 0.295919
O O2 0.386173 0.998871 0.205344
O O3 0.367747 0.986120 0.349759
O O4 0.144980 0.013724 0.364903
O O5 0.250000 0.250000 0.500000
O O6 0.255188 0.142778 0.618568
O O7 0.397802 0.055588 0.460450
O O8 0.128911 0.058407 0.558600
O O9 0.416710 0.385513 0.211868
O O10 0.192116 0.266114 0.273064
O O11 0.044105 0.332295 0.103152
O O12 0.000000 0.274512 0.250000
O O13 0.000055 0.110517 0.163972
#
# Coordination Sequence:
#
# PCOD9285969 Si02
#       6
#     8   8   8   8   8   8
#     4  10  21  42  69  92 126 181 221 263 319 403
#     4  12  25  40  65 100 135 167 219 280 326 377
#     4  11  22  42  67  97 127 173 225 265 324 393
#     4  11  21  41  67  94 131 171 223 266 329 386
#     4  11  22  42  68  93 128 174 219 266 329 390
#     4  11  24  42  68  99 130 169 225 269 324 390
#
# _framework density 21.855457999999999
#
# number of rings (size 3 to 8) (size 9 to 14) (size 15 to 20)
#    0.000    1.000    5.000    2.500    2.333    2.000 
#    0.000    0.000    3.667    0.000    0.000    0.000 
#    0.000    0.000    0.000    0.000    0.000    0.000 
#
# Total GULP energy -133924.559466 kJ/mol
# GULP energy per Si atom -5580.189978 kJ/mol
# Density = 2.180571 g / cm^3
# Si number density = 21.855458 Si / 1000 Ang^3
#
#
#
# Elastic Constant Matrix: (Units=GPa)
#
#
# Indices 1 2 3 4 5 6 
#
# 1 79.2134 -5.8651 0.6356 0.0000 -9.4459 0.0000
# 2 -5.8651 152.6504 6.8755 0.0000 -15.4825 0.0000
# 3 0.6356 6.8755 45.2151 0.0000 -9.7781 0.0000
# 4 0.0000 0.0000 0.0000 32.6687 0.0000 -21.3801
# 5 -9.4459 -15.4825 -9.7781 0.0000 22.3690 0.0000
# 6 0.0000 0.0000 0.0000 -21.3801 0.0000 5.8257
#
#
#
# Elastic Compliance Matrix: (Units=1/GPa)
#
#
# Indices 1 2 3 4 5 6 
#
# 1 0.013542 0.001183 0.001152 0.000000 0.007041 0.000000
# 2 0.001183 0.007149 0.000082 0.000000 0.005483 0.000000
# 3 0.001152 0.000082 0.024524 0.000000 0.011263 0.000000
# 4 0.000000 0.000000 0.000000 -0.021836 0.000000 -0.080139
# 5 0.007041 0.005483 0.011263 0.000000 0.056397 0.000000
# 6 0.000000 0.000000 0.000000 -0.080139 0.000000 -0.122452
#
#
# Mechanical properties :
#
#
# Convention : Reuss Voigt Hill
#
# Bulk Modulus (GPa) = 19.98060 31.15232 25.56646
# Shear Modulus (GPa) = -162.18744 30.53488 -65.82628
#
# Velocity S-wave (km/s) = -8.62382 3.74187 -5.49402
# Velocity P-wave (km/s) = 9.48674 5.74052 5.34063
#
# Compressibility (1/GPa) = 0.05004854
#
# Stress axis : x y z
#
# Youngs Moduli (GPa) = 73.84426 139.88387 40.77697
#
# Poissons Ratio (x) = -0.16541 -0.04699
# Poissons Ratio (y) = -0.08732 -0.00335
# Poissons Ratio (z) = -0.08510 -0.01148
#
# Static dielectric constant tensor:
#      x y z
#    x 1.826430 0.000000 -0.007330 
#    y 0.000000 1.841120 0.000000 
#    z -0.007330 0.000000 1.814280 
# 
# From -- ./inp_files/237424.got.cif
#   From: 2010.05.17/outbox.cif.g08.bks.cpg/sg15_119_cif.got.tgz:237424.got - 2010.06.03 18:47:42.
