data_PCOD9285955
_publ_section_title
;
Structure prediction by ZEFSAII (Michael W. Deem and Ramdas Pophale) SiO2 
 PCOD9285955
Probable space group: C 2/C
;
_chemical_formula_sum "Si O2"
_cell_formula_units_Z 64
_cell_length_a 8.759581
_cell_length_b 25.372866
_cell_length_c 13.910291
_cell_angle_alpha 90.000000
_cell_angle_beta 72.101589
_cell_angle_gamma 90.000000
_cell_volume 2942.014736
_symmetry_space_group_name_H-M "C 2/C"
_symmetry_group_IT_number 15
_symmetry_cell_setting 'monoclinic'
loop_
_space_group_symop_operation_xyz
x,y,z
-x,y,1/2-z
-x,-y,-z
x,-y,1/2+z
1/2+x,1/2+y,z
1/2-x,1/2+y,1/2-z
1/2-x,1/2-y,-z
1/2+x,1/2-y,1/2+z
loop_
_atom_site_type_symbol
_atom_site_label
_atom_site_fract_x
_atom_site_fract_y
_atom_site_fract_z
Si Si1 0.740776 0.345413 0.972576
Si Si2 0.165711 0.821702 0.775821
Si Si3 0.658159 0.465151 0.467070
Si Si4 0.929770 0.450600 0.871525
Si Si5 0.060720 0.880504 0.342403
Si Si6 0.539520 0.204457 0.521033
Si Si7 0.254664 0.277903 0.148729
Si Si8 0.288112 0.897955 0.599543
O O1 0.666012 0.320972 0.890079
O O2 0.839357 0.395205 0.910673
O O3 0.596347 0.365046 0.066160
O O4 0.864303 0.309425 0.011476
O O5 0.251457 0.768511 0.726358
O O6 0.247006 0.873102 0.711240
O O7 0.000000 0.821031 0.750000
O O8 0.500000 0.500000 0.500000
O O9 0.810790 0.502954 0.424739
O O10 0.650297 0.427746 0.376735
O O11 0.655954 0.426055 0.559805
O O12 0.000000 0.455948 0.750000
O O13 0.083378 0.443737 0.909566
O O14 0.179390 0.830892 0.318719
O O15 0.000000 0.895439 0.250000
O O16 0.616411 0.254949 0.453053
O O17 0.586629 0.213646 0.623616
O O18 0.643412 0.152397 0.471707
#
# Coordination Sequence:
#
# PCOD9285955 Si02
#       8
#     8   8   8   8   8   8   8   8
#     4  11  24  46  73 103 138 188 242 298 358 423
#     4  11  24  40  74 111 142 182 244 296 367 433
#     4  12  25  46  72  99 143 193 241 295 366 438
#     4  11  23  44  73 108 137 179 245 303 360 422
#     4  12  28  49  68 101 147 193 241 295 364 442
#     4   9  21  40  72  95 137 180 232 283 351 424
#     4  10  23  44  67 103 144 186 230 291 359 426
#     4  10  21  42  69 101 138 179 226 306 355 423
#
# _framework density 21.753799999999998
#
# number of rings (size 3 to 8) (size 9 to 14) (size 15 to 20)
#    0.000    1.250    3.750    1.125    5.250    2.500 
#    4.500    0.625    0.000    0.000    0.000    0.000 
#    0.000    0.000    0.000    0.000    0.000    0.000 
#
# Total GULP energy -178780.982294 kJ/mol
# GULP energy per Si atom -5586.905697 kJ/mol
# Density = 2.170429 g / cm^3
# Si number density = 21.753800 Si / 1000 Ang^3
#
#
#
# Elastic Constant Matrix: (Units=GPa)
#
#
# Indices 1 2 3 4 5 6 
#
# 1 78.2748 37.0637 17.6748 0.0000 12.6379 0.0000
# 2 37.0637 101.1603 17.5395 0.0000 10.2104 0.0000
# 3 17.6748 17.5395 93.7314 0.0000 10.3202 0.0000
# 4 0.0000 0.0000 0.0000 9.2809 0.0000 -2.5993
# 5 12.6379 10.2104 10.3202 0.0000 32.8797 0.0000
# 6 0.0000 0.0000 0.0000 -2.5993 0.0000 46.6053
#
#
#
# Elastic Compliance Matrix: (Units=1/GPa)
#
#
# Indices 1 2 3 4 5 6 
#
# 1 0.016307 -0.005276 -0.001635 0.000000 -0.004117 0.000000
# 2 -0.005276 0.012154 -0.001126 0.000000 -0.001393 0.000000
# 3 -0.001635 -0.001126 0.011477 0.000000 -0.002624 0.000000
# 4 0.000000 0.000000 0.000000 0.109458 0.000000 0.006105
# 5 -0.004117 -0.001393 -0.002624 0.000000 0.033253 0.000000
# 6 0.000000 0.000000 0.000000 0.006105 0.000000 0.021797
#
#
# Mechanical properties :
#
#
# Convention : Reuss Voigt Hill
#
# Bulk Modulus (GPa) = 41.90214 46.41363 44.15789
# Shear Modulus (GPa) = 21.88430 31.14574 26.51502
#
# Velocity S-wave (km/s) = 3.17519 3.78794 3.49502
# Velocity P-wave (km/s) = 5.72243 6.36502 6.05226
#
# Compressibility (1/GPa) = 0.02386513
#
# Stress axis : x y z
#
# Youngs Moduli (GPa) = 61.32169 82.27627 87.13322
#
# Poissons Ratio (x) = 0.43408 0.14242
# Poissons Ratio (y) = 0.32353 0.09812
# Poissons Ratio (z) = 0.10023 0.09265
#
# Static dielectric constant tensor:
#      x y z
#    x 1.877950 0.000000 -0.034640 
#    y 0.000000 1.788540 0.000000 
#    z -0.034640 0.000000 1.813570 
# 
# From -- ./inp_files/138600.got.cif
#   From: 2010.05.17/outbox.cif.g08.bks.cpg/sg15_70_cif.got.tgz:138600.got - 2010.06.03 18:47:42.
