data_PCOD9285225
_publ_section_title
;
Structure prediction by ZEFSAII (Michael W. Deem and Ramdas Pophale) SiO2 
 PCOD9285225
Probable space group: C 2/C
;
_chemical_formula_sum "Si O2"
_cell_formula_units_Z 64
_cell_length_a 25.244313
_cell_length_b 5.998815
_cell_length_c 16.691049
_cell_angle_alpha 90.000000
_cell_angle_beta 96.974547
_cell_angle_gamma 90.000000
_cell_volume 2508.921149
_symmetry_space_group_name_H-M "C 2/C"
_symmetry_group_IT_number 15
_symmetry_cell_setting 'monoclinic'
loop_
_space_group_symop_operation_xyz
x,y,z
-x,y,1/2-z
-x,-y,-z
x,-y,1/2+z
1/2+x,1/2+y,z
1/2-x,1/2+y,1/2-z
1/2-x,1/2-y,-z
1/2+x,1/2-y,1/2+z
loop_
_atom_site_type_symbol
_atom_site_label
_atom_site_fract_x
_atom_site_fract_y
_atom_site_fract_z
Si Si1 0.342425 0.537525 0.992394
Si Si2 0.824023 0.447165 0.518721
Si Si3 0.670367 0.816347 0.698112
Si Si4 0.082061 0.537933 0.567540
Si Si5 0.357033 0.534352 0.178937
Si Si6 0.271492 0.898244 0.168142
Si Si7 0.047000 0.820793 0.704785
Si Si8 0.956696 0.085117 0.929545
O O1 0.314650 0.787429 0.991076
O O2 0.367442 0.510701 0.086994
O O3 0.309627 0.300614 0.978760
O O4 0.393774 0.541880 0.943347
O O5 0.887574 0.430779 0.510983
O O6 0.797484 0.458954 0.601022
O O7 0.630082 0.950293 0.635008
O O8 0.643428 0.684219 0.766250
O O9 0.708014 0.635641 0.659776
O O10 0.709950 0.990673 0.746384
O O11 0.055352 0.724199 0.617277
O O12 0.039777 0.347655 0.553076
O O13 0.300435 0.659465 0.169145
O O14 0.400536 0.685696 0.231920
O O15 0.000000 0.730312 0.750000
O O16 0.033293 0.062364 0.664796
O O17 0.000000 0.000000 0.000000
#
# Coordination Sequence:
#
# PCOD9285225 Si02
#       8
#     8   8   8   8   8   8   8   8
#     4  10  21  41  68  96 133 185 230 285 354 418
#     4  10  22  42  69  96 140 185 232 284 353 425
#     4  12  22  40  70 100 140 183 233 293 366 424
#     4  11  25  45  68  98 143 185 233 304 360 424
#     4  11  22  41  66  97 140 180 232 296 352 426
#     4  11  23  39  70 103 134 184 237 285 355 440
#     4  12  25  43  68 103 136 181 240 299 365 424
#     4  11  24  45  66  93 134 187 240 296 353 428
#
# _framework density 25.508972
#
# number of rings (size 3 to 8) (size 9 to 14) (size 15 to 20)
#    0.000    1.000    6.250    0.750    0.000    1.500 
#    6.750    0.000    0.000    4.500    0.000    0.000 
#    0.000    0.000    0.000    0.000    0.000    0.000 
#
# Total GULP energy -178283.840238 kJ/mol
# GULP energy per Si atom -5571.370007 kJ/mol
# Density = 2.545091 g / cm^3
# Si number density = 25.508972 Si / 1000 Ang^3
#
#
#
# Elastic Constant Matrix: (Units=GPa)
#
#
# Indices 1 2 3 4 5 6 
#
# 1 67.6011 -3.2412 19.2334 0.0000 7.0602 0.0000
# 2 -3.2412 81.5178 10.4400 0.0000 2.5472 0.0000
# 3 19.2334 10.4400 88.2309 0.0000 -13.5273 0.0000
# 4 0.0000 0.0000 0.0000 40.2270 0.0000 1.7119
# 5 7.0602 2.5472 -13.5273 0.0000 38.0516 0.0000
# 6 0.0000 0.0000 0.0000 1.7119 0.0000 30.1755
#
#
#
# Elastic Compliance Matrix: (Units=1/GPa)
#
#
# Indices 1 2 3 4 5 6 
#
# 1 0.016648 0.001392 -0.004529 0.000000 -0.004792 0.000000
# 2 0.001392 0.012647 -0.002083 0.000000 -0.001845 0.000000
# 3 -0.004529 -0.002083 0.013451 0.000000 0.005761 0.000000
# 4 0.000000 0.000000 0.000000 0.024919 0.000000 -0.001414
# 5 -0.004792 -0.001845 0.005761 0.000000 0.029341 0.000000
# 6 0.000000 0.000000 0.000000 -0.001414 0.000000 0.033220
#
#
# Mechanical properties :
#
#
# Convention : Reuss Voigt Hill
#
# Bulk Modulus (GPa) = 30.95314 32.24603 31.59958
# Shear Modulus (GPa) = 33.01770 35.75200 34.38485
#
# Velocity S-wave (km/s) = 3.60162 3.74778 3.67543
# Velocity P-wave (km/s) = 5.42735 5.60324 5.51600
#
# Compressibility (1/GPa) = 0.03230690
#
# Stress axis : x y z
#
# Youngs Moduli (GPa) = 60.06629 79.07017 74.34487
#
# Poissons Ratio (x) = -0.11004 0.33667
# Poissons Ratio (y) = -0.08359 0.15484
# Poissons Ratio (z) = 0.27201 0.16468
#
# Static dielectric constant tensor:
#      x y z
#    x 2.001300 0.000000 -0.017860 
#    y 0.000000 2.423150 0.000000 
#    z -0.017860 0.000000 2.075860 
# 
# From -- ./inp_files/223906.got.cif
#   From: 2010.05.17/outbox.cif.g08.bks.cpg/sg15_112_cif.got.tgz:223906.got - 2010.06.03 18:47:42.
