data_PCOD9285286
_publ_section_title
;
Structure prediction by ZEFSAII (Michael W. Deem and Ramdas Pophale) SiO2 
 PCOD9285286
Probable space group: C 2/C
;
_chemical_formula_sum "Si O2"
_cell_formula_units_Z 52
_cell_length_a 24.608728
_cell_length_b 9.538161
_cell_length_c 12.818613
_cell_angle_alpha 90.000000
_cell_angle_beta 128.262328
_cell_angle_gamma 90.000000
_cell_volume 2362.469061
_symmetry_space_group_name_H-M "C 2/C"
_symmetry_group_IT_number 15
_symmetry_cell_setting 'monoclinic'
loop_
_space_group_symop_operation_xyz
x,y,z
-x,y,1/2-z
-x,-y,-z
x,-y,1/2+z
1/2+x,1/2+y,z
1/2-x,1/2+y,1/2-z
1/2-x,1/2-y,-z
1/2+x,1/2-y,1/2+z
loop_
_atom_site_type_symbol
_atom_site_label
_atom_site_fract_x
_atom_site_fract_y
_atom_site_fract_z
Si Si1 0.197934 0.978994 0.084548
Si Si2 0.000000 0.500000 0.000000
Si Si3 0.181875 0.434291 0.439132
Si Si4 0.573123 0.537112 0.787971
Si Si5 0.601168 0.161569 0.246693
Si Si6 0.949595 0.261906 0.291273
Si Si7 0.208372 0.314868 0.696888
O O1 0.223835 0.123867 0.166497
O O2 0.252029 0.941494 0.056792
O O3 0.203967 0.851252 0.173427
O O4 0.124205 0.991669 0.942180
O O5 0.029789 0.582107 0.141274
O O6 0.017608 0.348543 0.076033
O O7 0.143901 0.584509 0.388480
O O8 0.124697 0.328102 0.325589
O O9 0.201764 0.386157 0.576902
O O10 0.500000 0.576037 0.750000
O O11 0.600407 0.674441 0.764003
O O12 0.562394 0.402315 0.702208
O O13 0.644124 0.133153 0.191023
O O14 0.000000 0.269484 0.250000
#
# Coordination Sequence:
#
# PCOD9285286 Si02
#       7
#     8   4   8   8   8   8   8
#     4  11  26  43  70 104 136 181 236 282 350 415
#     4  10  22  42  64  96 126 180 228 272 326 418
#     4  10  22  44  70  96 138 183 229 290 347 402
#     4  11  26  46  66 102 145 186 222 294 355 404
#     4  10  25  42  69 101 135 182 233 283 344 419
#     4  10  21  41  69  95 139 180 226 283 346 407
#     4  11  24  43  70 102 132 181 228 293 341 419
#
# _framework density 22.010869
#
# number of rings (size 3 to 8) (size 9 to 14) (size 15 to 20)
#    0.000    1.538    1.538    1.385    6.462    5.538 
#    5.538    0.000    0.000    0.000    0.000    0.000 
#    0.000    0.000    0.000    0.000    0.000    0.000 
#
# Total GULP energy -144896.867732 kJ/mol
# GULP energy per Si atom -5572.956451 kJ/mol
# Density = 2.196077 g / cm^3
# Si number density = 22.010869 Si / 1000 Ang^3
#
#
#
# Elastic Constant Matrix: (Units=GPa)
#
#
# Indices 1 2 3 4 5 6 
#
# 1 46.7162 -4.7796 7.3880 0.0000 13.3616 0.0000
# 2 -4.7796 124.5695 14.9096 0.0000 -4.4281 0.0000
# 3 7.3880 14.9096 57.3577 0.0000 14.0890 0.0000
# 4 0.0000 0.0000 0.0000 15.4102 0.0000 0.4734
# 5 13.3616 -4.4281 14.0890 0.0000 18.5272 0.0000
# 6 0.0000 0.0000 0.0000 0.4734 0.0000 19.9036
#
#
#
# Elastic Compliance Matrix: (Units=1/GPa)
#
#
# Indices 1 2 3 4 5 6 
#
# 1 0.027091 0.000116 0.001565 0.000000 -0.020700 0.000000
# 2 0.000116 0.008595 -0.003361 0.000000 0.004526 0.000000
# 3 0.001565 -0.003361 0.022849 0.000000 -0.019308 0.000000
# 4 0.000000 0.000000 0.000000 0.064939 0.000000 -0.001544
# 5 -0.020700 0.004526 -0.019308 0.000000 0.084668 0.000000
# 6 0.000000 0.000000 0.000000 -0.001544 0.000000 0.050279
#
#
# Mechanical properties :
#
#
# Convention : Reuss Voigt Hill
#
# Bulk Modulus (GPa) = 18.12392 29.29770 23.71081
# Shear Modulus (GPa) = 17.84612 24.84323 21.34468
#
# Velocity S-wave (km/s) = 2.85052 3.36323 3.11743
# Velocity P-wave (km/s) = 4.36874 5.33115 4.87376
#
# Compressibility (1/GPa) = 0.05517569
#
# Stress axis : x y z
#
# Youngs Moduli (GPa) = 36.91286 116.34273 43.76517
#
# Poissons Ratio (x) = -0.01353 -0.06849
# Poissons Ratio (y) = -0.00429 0.14710
# Poissons Ratio (z) = -0.05777 0.39104
#
# Static dielectric constant tensor:
#      x y z
#    x 1.827190 0.000000 0.024230 
#    y 0.000000 1.827720 0.000000 
#    z 0.024230 0.000000 1.764870 
# 
# From -- ./inp_files/122043.got.cif
#   From: 2010.05.17/outbox.cif.g08.bks.cpg/sg15_62_cif.got.tgz:122043.got - 2010.06.03 18:47:42.
