data_PCOD9285371
_publ_section_title
;
Structure prediction by ZEFSAII (Michael W. Deem and Ramdas Pophale) SiO2 
 PCOD9285371
Probable space group: C 2/C
;
_chemical_formula_sum "Si O2"
_cell_formula_units_Z 56
_cell_length_a 10.286732
_cell_length_b 9.304467
_cell_length_c 26.388397
_cell_angle_alpha 90.000000
_cell_angle_beta 66.533681
_cell_angle_gamma 90.000000
_cell_volume 2316.811168
_symmetry_space_group_name_H-M "C 2/C"
_symmetry_group_IT_number 15
_symmetry_cell_setting 'monoclinic'
loop_
_space_group_symop_operation_xyz
x,y,z
-x,y,1/2-z
-x,-y,-z
x,-y,1/2+z
1/2+x,1/2+y,z
1/2-x,1/2+y,1/2-z
1/2-x,1/2-y,-z
1/2+x,1/2-y,1/2+z
loop_
_atom_site_type_symbol
_atom_site_label
_atom_site_fract_x
_atom_site_fract_y
_atom_site_fract_z
Si Si1 0.500000 0.428137 0.750000
Si Si2 0.500000 0.999607 0.250000
Si Si3 0.516994 0.626977 0.134556
Si Si4 0.680365 0.086487 0.312310
Si Si5 0.843229 0.867201 0.434398
Si Si6 0.286925 0.040442 0.448006
Si Si7 0.438394 0.118346 0.584041
Si Si8 0.224057 0.342119 0.142518
O O1 0.540012 0.362022 0.799194
O O2 0.659512 0.480767 0.712598
O O3 0.605050 0.086007 0.269958
O O4 0.601545 0.907511 0.197507
O O5 0.548536 0.465736 0.113253
O O6 0.433925 0.720579 0.106765
O O7 0.664175 0.713956 0.116384
O O8 0.683551 0.248266 0.333276
O O9 0.595670 0.983549 0.363003
O O10 0.836926 0.922345 0.493159
O O11 0.861401 0.696052 0.428076
O O12 0.685294 0.895256 0.437154
O O13 0.404100 0.933362 0.454734
O O14 0.236872 0.964397 0.403872
#
# Coordination Sequence:
#
# PCOD9285371 Si02
#       8
#     4   4   8   8   8   8   8   8
#     4  10  21  44  67 102 141 190 233 300 353 438
#     4  12  23  46  71 104 147 188 241 308 357 436
#     4  10  21  41  71  96 139 188 239 291 363 428
#     4  11  23  42  75 104 146 195 243 291 368 436
#     4  11  23  47  68 103 142 184 240 306 364 436
#     4  10  24  45  71 101 144 183 244 301 366 434
#     4  11  22  44  69 101 137 188 235 296 354 441
#     4  10  21  44  68 102 141 189 237 295 355 434
#
# _framework density 24.171151999999999
#
# number of rings (size 3 to 8) (size 9 to 14) (size 15 to 20)
#    0.000    1.429    5.714    2.143    0.000    3.429 
#    7.714    2.857    0.000    0.000    0.000    0.000 
#    0.000    0.000    0.000    0.000    0.000    0.000 
#
# Total GULP energy -156198.154887 kJ/mol
# GULP energy per Si atom -5578.505532 kJ/mol
# Density = 2.411614 g / cm^3
# Si number density = 24.171152 Si / 1000 Ang^3
#
#
#
# Elastic Constant Matrix: (Units=GPa)
#
#
# Indices 1 2 3 4 5 6 
#
# 1 83.6856 14.1844 7.1277 0.0000 16.9372 0.0000
# 2 14.1844 100.8927 36.6872 0.0000 9.8211 0.0000
# 3 7.1277 36.6872 83.4334 0.0000 20.1710 0.0000
# 4 0.0000 0.0000 0.0000 80.2839 0.0000 130.8349
# 5 16.9372 9.8211 20.1710 0.0000 23.1783 0.0000
# 6 0.0000 0.0000 0.0000 130.8349 0.0000 319.6097
#
#
#
# Elastic Compliance Matrix: (Units=1/GPa)
#
#
# Indices 1 2 3 4 5 6 
#
# 1 0.014454 -0.001750 0.002418 0.000000 -0.011924 0.000000
# 2 -0.001750 0.012017 -0.005335 0.000000 0.000830 0.000000
# 3 0.002418 -0.005335 0.017738 0.000000 -0.014942 0.000000
# 4 0.000000 0.000000 0.000000 0.037417 0.000000 -0.015317
# 5 -0.011924 0.000830 -0.014942 0.000000 0.064509 0.000000
# 6 0.000000 0.000000 0.000000 -0.015317 0.000000 0.009399
#
#
# Mechanical properties :
#
#
# Convention : Reuss Voigt Hill
#
# Bulk Modulus (GPa) = 28.67625 42.66779 35.67202
# Shear Modulus (GPa) = 28.32973 98.61522 63.47247
#
# Velocity S-wave (km/s) = 3.42723 6.39432 5.12997
# Velocity P-wave (km/s) = 5.24889 8.49747 7.06250
#
# Compressibility (1/GPa) = 0.03487206
#
# Stress axis : x y z
#
# Youngs Moduli (GPa) = 69.18699 83.21676 56.37771
#
# Poissons Ratio (x) = 0.14567 -0.13631
# Poissons Ratio (y) = 0.12111 0.30079
# Poissons Ratio (z) = -0.16728 0.44398
#
# Static dielectric constant tensor:
#      x y z
#    x 1.983720 0.000000 -0.018200 
#    y 0.000000 1.955750 0.000000 
#    z -0.018200 0.000000 1.908580 
# 
# From -- ./inp_files/291558.got.cif
#   From: 2010.05.17/outbox.cif.g08.bks.cpg/sg15_146_cif.got.tgz:291558.got - 2010.06.03 18:47:42.
