data_PCOD9285626
_publ_section_title
;
Structure prediction by ZEFSAII (Michael W. Deem and Ramdas Pophale) SiO2 
 PCOD9285626
Probable space group: C 2/C
;
_chemical_formula_sum "Si O2"
_cell_formula_units_Z 40
_cell_length_a 19.525973
_cell_length_b 5.469715
_cell_length_c 19.587102
_cell_angle_alpha 90.000000
_cell_angle_beta 135.870595
_cell_angle_gamma 90.000000
_cell_volume 1456.573057
_symmetry_space_group_name_H-M "C 2/C"
_symmetry_group_IT_number 15
_symmetry_cell_setting 'monoclinic'
loop_
_space_group_symop_operation_xyz
x,y,z
-x,y,1/2-z
-x,-y,-z
x,-y,1/2+z
1/2+x,1/2+y,z
1/2-x,1/2+y,1/2-z
1/2-x,1/2-y,-z
1/2+x,1/2-y,1/2+z
loop_
_atom_site_type_symbol
_atom_site_label
_atom_site_fract_x
_atom_site_fract_y
_atom_site_fract_z
Si Si1 0.156285 0.833638 0.390298
Si Si2 0.266635 0.474735 0.722612
Si Si3 0.586567 0.894821 0.490975
Si Si4 0.611947 0.844716 0.347623
Si Si5 0.504839 0.390837 0.106342
O O1 0.250000 0.750000 0.500000
O O2 0.142537 0.596288 0.333597
O O3 0.060916 0.864538 0.371120
O O4 0.168816 0.102128 0.369883
O O5 0.266313 0.201254 0.752951
O O6 0.178209 0.465365 0.603592
O O7 0.383257 0.540240 0.797699
O O8 0.618919 0.878688 0.433991
O O9 0.543679 0.620269 0.469087
O O10 0.510294 0.123504 0.438278
O O11 0.500000 0.807595 0.250000
#
# Coordination Sequence:
#
# PCOD9285626 Si02
#       5
#     8   8   8   8   8
#     4  10  21  42  65  99 139 186 228 281 345 419
#     4  12  26  44  74 105 132 188 246 293 369 426
#     4  10  23  45  67 101 144 181 229 302 351 419
#     4  10  21  42  65 100 140 185 227 279 345 421
#     4  10  23  45  67 101 144 181 230 301 350 419
#
# _framework density 27.461718000000001
#
# number of rings (size 3 to 8) (size 9 to 14) (size 15 to 20)
#    0.000    1.600    0.000    3.600    0.000    4.800 
#   43.200    0.000    0.000    0.000    0.000    0.000 
#    0.000    0.000    0.000    0.000    0.000    0.000 
#
# Total GULP energy -111954.365127 kJ/mol
# GULP energy per Si atom -5597.718256 kJ/mol
# Density = 2.739921 g / cm^3
# Si number density = 27.461718 Si / 1000 Ang^3
#
#
#
# Elastic Constant Matrix: (Units=GPa)
#
#
# Indices 1 2 3 4 5 6 
#
# 1 83.4482 28.5886 43.1646 0.0001 32.4188 0.0000
# 2 28.5886 262.6509 64.0312 0.0003 13.0974 -0.0002
# 3 43.1646 64.0312 236.9161 0.0000 24.7148 0.0000
# 4 0.0001 0.0003 0.0000 63.8040 0.0000 5.8653
# 5 32.4188 13.0974 24.7148 0.0000 48.2884 0.0000
# 6 0.0000 -0.0002 0.0000 5.8653 0.0000 12.0361
#
#
#
# Elastic Compliance Matrix: (Units=1/GPa)
#
#
# Indices 1 2 3 4 5 6 
#
# 1 0.017288 -0.000920 -0.001813 0.000000 -0.010429 0.000000
# 2 -0.000920 0.004140 -0.000949 0.000000 -0.000020 0.000000
# 3 -0.001813 -0.000949 0.004916 0.000000 -0.001041 0.000000
# 4 0.000000 0.000000 0.000000 0.016408 0.000000 -0.007996
# 5 -0.010429 -0.000020 -0.001041 0.000000 0.028249 0.000000
# 6 0.000000 0.000000 0.000000 -0.007996 0.000000 0.086980
#
#
# Mechanical properties :
#
#
# Convention : Reuss Voigt Hill
#
# Bulk Modulus (GPa) = 52.68715 94.95376 73.82045
# Shear Modulus (GPa) = 29.12529 54.64109 41.88319
#
# Velocity S-wave (km/s) = 3.26018 4.46547 3.90955
# Velocity P-wave (km/s) = 5.77919 7.82554 6.87888
#
# Compressibility (1/GPa) = 0.01897996
#
# Stress axis : x y z
#
# Youngs Moduli (GPa) = 57.84352 241.55562 203.39758
#
# Poissons Ratio (x) = 0.22214 0.36882
# Poissons Ratio (y) = 0.05319 0.19308
# Poissons Ratio (z) = 0.10489 0.22930
#
# Static dielectric constant tensor:
#      x y z
#    x 2.154240 0.000000 -0.033390 
#    y 0.000000 2.332240 0.000000 
#    z -0.033390 0.000000 2.048270 
# 
# From -- ./inp_files/283104.got.cif
#   From: 2010.05.17/outbox.cif.g08.bks.cpg/sg15_142_cif.got.tgz:283104.got - 2010.06.03 18:47:42.
