data_PCOD9285010
_publ_section_title
;
Structure prediction by ZEFSAII (Michael W. Deem and Ramdas Pophale) SiO2 
 PCOD9285010
Probable space group: C 2/C
;
_chemical_formula_sum "Si O2"
_cell_formula_units_Z 64
_cell_length_a 13.873887
_cell_length_b 8.283181
_cell_length_c 24.964294
_cell_angle_alpha 90.000000
_cell_angle_beta 98.542776
_cell_angle_gamma 90.000000
_cell_volume 2837.064890
_symmetry_space_group_name_H-M "C 2/C"
_symmetry_group_IT_number 15
_symmetry_cell_setting 'monoclinic'
loop_
_space_group_symop_operation_xyz
x,y,z
-x,y,1/2-z
-x,-y,-z
x,-y,1/2+z
1/2+x,1/2+y,z
1/2-x,1/2+y,1/2-z
1/2-x,1/2-y,-z
1/2+x,1/2-y,1/2+z
loop_
_atom_site_type_symbol
_atom_site_label
_atom_site_fract_x
_atom_site_fract_y
_atom_site_fract_z
Si Si1 0.549691 0.848902 0.378087
Si Si2 0.538265 0.345650 0.135829
Si Si3 0.455252 0.569020 0.051091
Si Si4 0.342924 0.831695 0.648503
Si Si5 0.322951 0.654204 0.188715
Si Si6 0.630702 0.049710 0.105327
Si Si7 0.315227 0.671003 0.753556
Si Si8 0.257410 0.364364 0.050759
O O1 0.559496 0.757303 0.436011
O O2 0.584844 0.717071 0.336956
O O3 0.442164 0.930680 0.367878
O O4 0.625087 0.995547 0.372097
O O5 0.529938 0.511889 0.104162
O O6 0.434663 0.285701 0.147342
O O7 0.607289 0.327336 0.192235
O O8 0.572409 0.214863 0.094976
O O9 0.352863 0.476096 0.051953
O O10 0.500000 0.500000 0.000000
O O11 0.321305 0.812977 0.709525
O O12 0.262952 0.748723 0.604214
O O13 0.232340 0.600256 0.142775
O O14 0.334986 0.495149 0.224961
O O15 0.286082 0.797532 0.224371
O O16 0.662551 0.971434 0.052611
O O17 0.250000 0.250000 0.000000
#
# Coordination Sequence:
#
# PCOD9285010 Si02
#       8
#     8   8   8   8   8   8   8   8
#     4  11  23  42  67  97 132 178 226 280 347 414
#     4   9  22  40  67  90 132 182 219 274 345 406
#     4  11  23  44  65  99 138 174 237 293 338 425
#     4  10  21  41  66  93 133 173 223 278 337 418
#     4  11  22  41  64  98 140 173 230 285 336 420
#     4  10  21  43  65  93 132 171 222 278 342 415
#     4  11  21  40  67  95 134 180 223 275 348 410
#     4  11  22  43  68  94 131 174 216 284 350 403
#
# _framework density 22.558523999999998
#
# number of rings (size 3 to 8) (size 9 to 14) (size 15 to 20)
#    0.000    1.500    2.500    2.625    0.000    2.000 
#   11.250   13.125    0.000    0.000    0.000    0.000 
#    0.000    0.000    0.000    0.000    0.000    0.000 
#
# Total GULP energy -178530.680129 kJ/mol
# GULP energy per Si atom -5579.083754 kJ/mol
# Density = 2.250718 g / cm^3
# Si number density = 22.558524 Si / 1000 Ang^3
#
#
#
# Elastic Constant Matrix: (Units=GPa)
#
#
# Indices 1 2 3 4 5 6 
#
# 1 73.1027 23.2501 18.9954 0.0000 -31.2442 0.0000
# 2 23.2501 92.6608 24.1454 0.0000 -15.6131 0.0000
# 3 18.9954 24.1454 56.9771 0.0000 -13.1950 0.0000
# 4 0.0000 0.0000 0.0000 23.6386 0.0000 -5.7926
# 5 -31.2442 -15.6131 -13.1950 0.0000 34.4284 0.0000
# 6 0.0000 0.0000 0.0000 -5.7926 0.0000 26.3643
#
#
#
# Elastic Compliance Matrix: (Units=1/GPa)
#
#
# Indices 1 2 3 4 5 6 
#
# 1 0.023124 -0.001934 -0.002451 0.000000 0.019169 0.000000
# 2 -0.001934 0.012784 -0.004210 0.000000 0.002429 0.000000
# 3 -0.002451 -0.004210 0.021064 0.000000 0.003940 0.000000
# 4 0.000000 0.000000 0.000000 0.044711 0.000000 0.009824
# 5 0.019169 0.002429 0.003940 0.000000 0.049054 0.000000
# 6 0.000000 0.000000 0.000000 0.009824 0.000000 0.040088
#
#
# Mechanical properties :
#
#
# Convention : Reuss Voigt Hill
#
# Bulk Modulus (GPa) = 25.13617 39.50250 32.31933
# Shear Modulus (GPa) = 22.59630 27.30957 24.95293
#
# Velocity S-wave (km/s) = 3.16836 3.48316 3.32948
# Velocity P-wave (km/s) = 4.95495 5.80738 5.39801
#
# Compressibility (1/GPa) = 0.03978331
#
# Stress axis : x y z
#
# Youngs Moduli (GPa) = 43.24494 78.22532 47.47329
#
# Poissons Ratio (x) = 0.15126 0.11634
# Poissons Ratio (y) = 0.08362 0.19987
# Poissons Ratio (z) = 0.10597 0.32934
#
# Static dielectric constant tensor:
#      x y z
#    x 1.828330 0.000000 0.014260 
#    y 0.000000 1.920070 0.000000 
#    z 0.014260 0.000000 1.927000 
# 
# From -- ./inp_files/273177.got.cif
#   From: 2010.05.17/outbox.cif.g08.bks.cpg/sg15_137_cif.got.tgz:273177.got - 2010.06.03 18:47:42.
