data_PCOD9285173
_publ_section_title
;
Structure prediction by ZEFSAII (Michael W. Deem and Ramdas Pophale) SiO2 
 PCOD9285173
Probable space group: C 2/C
;
_chemical_formula_sum "Si O2"
_cell_formula_units_Z 40
_cell_length_a 10.840261
_cell_length_b 10.669289
_cell_length_c 17.751788
_cell_angle_alpha 90.000000
_cell_angle_beta 47.975103
_cell_angle_gamma 90.000000
_cell_volume 1525.178884
_symmetry_space_group_name_H-M "C 2/C"
_symmetry_group_IT_number 15
_symmetry_cell_setting 'monoclinic'
loop_
_space_group_symop_operation_xyz
x,y,z
-x,y,1/2-z
-x,-y,-z
x,-y,1/2+z
1/2+x,1/2+y,z
1/2-x,1/2+y,1/2-z
1/2-x,1/2-y,-z
1/2+x,1/2-y,1/2+z
loop_
_atom_site_type_symbol
_atom_site_label
_atom_site_fract_x
_atom_site_fract_y
_atom_site_fract_z
Si Si1 0.837022 0.259399 0.686677
Si Si2 0.818659 0.686804 0.396045
Si Si3 0.289191 0.959275 0.508069
Si Si4 0.326940 0.951821 0.151548
Si Si5 0.481624 0.358046 0.976804
O O1 0.732459 0.142915 0.760253
O O2 0.791330 0.405900 0.694949
O O3 0.993944 0.266862 0.678860
O O4 0.893448 0.217678 0.579845
O O5 0.750000 0.750000 0.500000
O O6 0.754529 0.959665 0.399162
O O7 0.822115 0.541930 0.420019
O O8 0.479118 0.917521 0.443580
O O9 0.136847 0.868901 0.547899
O O10 0.327749 0.691943 0.105707
O O11 0.500000 0.500000 0.000000
#
# Coordination Sequence:
#
# PCOD9285173 Si02
#       5
#     8   8   8   8   8
#     4  10  21  41  68 104 146 190 248 305 377 440
#     4   8  16  36  67  97 128 182 240 297 364 442
#     4   9  19  39  69  97 142 192 245 295 373 446
#     4  10  22  42  67 105 148 192 246 308 373 445
#     4   9  18  38  71 100 137 184 246 305 371 445
#
# _framework density 26.226431000000002
#
# number of rings (size 3 to 8) (size 9 to 14) (size 15 to 20)
#    0.000    2.800    0.000    0.000    0.000    1.600 
#   18.000    9.000   26.400    4.800    0.000    0.000 
#    0.000    0.000    0.000    0.000    0.000    0.000 
#
# Total GULP energy -111594.973962 kJ/mol
# GULP energy per Si atom -5579.748698 kJ/mol
# Density = 2.616674 g / cm^3
# Si number density = 26.226431 Si / 1000 Ang^3
#
#
#
# Elastic Constant Matrix: (Units=GPa)
#
#
# Indices 1 2 3 4 5 6 
#
# 1 183.5238 27.2826 19.3197 0.0000 0.2061 0.0000
# 2 27.2826 140.5407 51.0068 0.0000 7.0406 0.0000
# 3 19.3197 51.0068 73.1343 0.0000 7.4367 0.0000
# 4 0.0000 0.0000 0.0000 50.8303 0.0000 5.7646
# 5 0.2061 7.0406 7.4367 0.0000 43.1502 0.0000
# 6 0.0000 0.0000 0.0000 5.7646 0.0000 59.9814
#
#
#
# Elastic Compliance Matrix: (Units=1/GPa)
#
#
# Indices 1 2 3 4 5 6 
#
# 1 0.005665 -0.000750 -0.001001 0.000000 0.000268 0.000000
# 2 -0.000750 0.009634 -0.006475 0.000000 -0.000452 0.000000
# 3 -0.001001 -0.006475 0.018673 0.000000 -0.002157 0.000000
# 4 0.000000 0.000000 0.000000 0.019890 0.000000 -0.001912
# 5 0.000268 -0.000452 -0.002157 0.000000 0.023619 0.000000
# 6 0.000000 0.000000 0.000000 -0.001912 0.000000 0.016856
#
#
# Mechanical properties :
#
#
# Convention : Reuss Voigt Hill
#
# Bulk Modulus (GPa) = 57.07460 65.82410 61.44935
# Shear Modulus (GPa) = 42.87142 50.76501 46.81822
#
# Velocity S-wave (km/s) = 4.04748 4.40437 4.22969
# Velocity P-wave (km/s) = 6.60699 7.14265 6.88004
#
# Compressibility (1/GPa) = 0.01752093
#
# Stress axis : x y z
#
# Youngs Moduli (GPa) = 176.50905 103.80438 53.55362
#
# Poissons Ratio (x) = 0.07785 0.05359
# Poissons Ratio (y) = 0.13238 0.34674
# Poissons Ratio (z) = 0.17664 0.67210
#
# Static dielectric constant tensor:
#      x y z
#    x 2.128450 0.000000 -0.037850 
#    y 0.000000 2.229540 0.000000 
#    z -0.037850 0.000000 2.103080 
# 
# From -- ./inp_files/272515.got.cif
#   From: 2010.05.17/outbox.cif.g08.bks.cpg/sg15_137_cif.got.tgz:272515.got - 2010.06.03 18:47:42.
