data_PCOD9285948
_publ_section_title
;
Structure prediction by ZEFSAII (Michael W. Deem and Ramdas Pophale) SiO2 
 PCOD9285948
Probable space group: C 2/C
;
_chemical_formula_sum "Si O2"
_cell_formula_units_Z 56
_cell_length_a 13.743445
_cell_length_b 9.596745
_cell_length_c 18.630046
_cell_angle_alpha 90.000000
_cell_angle_beta 59.749414
_cell_angle_gamma 90.000000
_cell_volume 2122.569655
_symmetry_space_group_name_H-M "C 2/C"
_symmetry_group_IT_number 15
_symmetry_cell_setting 'monoclinic'
loop_
_space_group_symop_operation_xyz
x,y,z
-x,y,1/2-z
-x,-y,-z
x,-y,1/2+z
1/2+x,1/2+y,z
1/2-x,1/2+y,1/2-z
1/2-x,1/2-y,-z
1/2+x,1/2-y,1/2+z
loop_
_atom_site_type_symbol
_atom_site_label
_atom_site_fract_x
_atom_site_fract_y
_atom_site_fract_z
Si Si1 0.741282 0.996618 0.120966
Si Si2 0.465650 0.805408 0.979936
Si Si3 0.715319 0.274579 0.192212
Si Si4 0.550915 0.293690 0.849450
Si Si5 0.750000 0.750000 0.000000
Si Si6 0.188219 0.537207 0.412120
Si Si7 0.947819 0.901478 0.148894
Si Si8 0.000000 0.413832 0.250000
O O1 0.844709 0.944182 0.133136
O O2 0.620802 0.985865 0.206285
O O3 0.740234 0.166922 0.117787
O O4 0.749444 0.898706 0.048914
O O5 0.479617 0.747112 0.056679
O O6 0.373262 0.924802 0.013000
O O7 0.456112 0.674997 0.931800
O O8 0.581777 0.883999 0.916432
O O9 0.814588 0.224498 0.209062
O O10 0.743654 0.434496 0.163250
O O11 0.597012 0.294640 0.274947
O O12 0.513573 0.446858 0.841204
O O13 0.492653 0.180551 0.822927
O O14 0.755190 0.842380 0.925470
#
# Coordination Sequence:
#
# PCOD9285948 Si02
#       8
#     8   8   8   8   4   8   8   4
#     4  11  26  42  69 100 141 182 225 287 350 415
#     4  10  21  42  69 100 133 189 232 276 335 423
#     4  10  24  44  70 101 134 186 235 273 345 424
#     4  10  23  41  67 106 139 176 233 283 344 409
#     4  12  24  44  68 102 136 180 228 286 356 396
#     4  10  23  41  71  99 137 179 230 286 338 407
#     4  11  22  42  72 102 137 185 230 285 332 433
#     4  12  24  44  66 100 140 178 224 296 348 396
#
# _framework density 26.383115
#
# number of rings (size 3 to 8) (size 9 to 14) (size 15 to 20)
#    0.000    1.429    2.857    1.286    6.000    2.857 
#    0.000    2.143    0.000    0.000    0.000    0.000 
#    0.000    0.000    0.000    0.000    0.000    0.000 
#
# Total GULP energy -156102.960004 kJ/mol
# GULP energy per Si atom -5575.105714 kJ/mol
# Density = 2.632307 g / cm^3
# Si number density = 26.383115 Si / 1000 Ang^3
#
#
#
# Elastic Constant Matrix: (Units=GPa)
#
#
# Indices 1 2 3 4 5 6 
#
# 1 39.0516 -2.9716 5.5472 0.0000 -9.3311 0.0000
# 2 -2.9716 155.1964 23.7997 0.0000 12.9164 0.0000
# 3 5.5472 23.7997 65.5580 0.0000 -0.8801 0.0000
# 4 0.0000 0.0000 0.0000 38.9086 0.0000 1.4861
# 5 -9.3311 12.9164 -0.8801 0.0000 22.5167 0.0000
# 6 0.0000 0.0000 0.0000 1.4861 0.0000 15.9453
#
#
#
# Elastic Compliance Matrix: (Units=1/GPa)
#
#
# Indices 1 2 3 4 5 6 
#
# 1 0.028758 -0.000095 -0.002239 0.000000 0.011885 0.000000
# 2 -0.000095 0.007206 -0.002666 0.000000 -0.004277 0.000000
# 3 -0.002239 -0.002666 0.016428 0.000000 0.001243 0.000000
# 4 0.000000 0.000000 0.000000 0.025793 0.000000 -0.002404
# 5 0.011885 -0.004277 0.001243 0.000000 0.051839 0.000000
# 6 0.000000 0.000000 0.000000 -0.002404 0.000000 0.062938
#
#
# Mechanical properties :
#
#
# Convention : Reuss Voigt Hill
#
# Bulk Modulus (GPa) = 23.58942 34.72851 29.15897
# Shear Modulus (GPa) = 23.03166 31.03615 27.03391
#
# Velocity S-wave (km/s) = 2.95781 3.43354 3.20451
# Velocity P-wave (km/s) = 4.54152 5.37686 4.97675
#
# Compressibility (1/GPa) = 0.04239189
#
# Stress axis : x y z
#
# Youngs Moduli (GPa) = 34.77322 138.76569 60.87345
#
# Poissons Ratio (x) = 0.01319 0.13631
# Poissons Ratio (y) = 0.00331 0.16226
# Poissons Ratio (z) = 0.07787 0.36989
#
# Static dielectric constant tensor:
#      x y z
#    x 2.176960 0.000000 -0.046270 
#    y 0.000000 2.023540 0.000000 
#    z -0.046270 0.000000 2.087380 
# 
# From -- ./inp_files/247390.got.cif
#   From: 2010.05.17/outbox.cif.g08.bks.cpg/sg15_124_cif.got.tgz:247390.got - 2010.06.03 18:47:42.
