data_PCOD9285240
_publ_section_title
;
Structure prediction by ZEFSAII (Michael W. Deem and Ramdas Pophale) SiO2 
 PCOD9285240
Probable space group: C 2/C
;
_chemical_formula_sum "Si O2"
_cell_formula_units_Z 40
_cell_length_a 14.478655
_cell_length_b 4.852937
_cell_length_c 26.026230
_cell_angle_alpha 90.000000
_cell_angle_beta 128.455417
_cell_angle_gamma 90.000000
_cell_volume 1432.046422
_symmetry_space_group_name_H-M "C 2/C"
_symmetry_group_IT_number 15
_symmetry_cell_setting 'monoclinic'
loop_
_space_group_symop_operation_xyz
x,y,z
-x,y,1/2-z
-x,-y,-z
x,-y,1/2+z
1/2+x,1/2+y,z
1/2-x,1/2+y,1/2-z
1/2-x,1/2-y,-z
1/2+x,1/2-y,1/2+z
loop_
_atom_site_type_symbol
_atom_site_label
_atom_site_fract_x
_atom_site_fract_y
_atom_site_fract_z
Si Si1 0.617398 0.855422 0.605768
Si Si2 0.250000 0.250000 0.500000
Si Si3 0.000000 0.278832 0.750000
Si Si4 0.671569 0.377451 0.227198
Si Si5 0.829094 0.377385 0.119056
Si Si6 0.874997 0.261810 0.478861
O O1 0.744007 0.734611 0.633480
O O2 0.625583 0.151541 0.581095
O O3 0.603466 0.791569 0.660000
O O4 0.507769 0.707685 0.540715
O O5 0.139032 0.175319 0.415967
O O6 0.273317 0.532560 0.453688
O O7 0.907892 0.099995 0.750159
O O8 0.927533 0.455899 0.682839
O O9 0.781054 0.170061 0.275086
O O10 0.838061 0.469624 0.998315
#
# Coordination Sequence:
#
# PCOD9285240 Si02
#       6
#     8   4   4   8   8   8
#     4  10  22  42  67 100 139 194 249 317 384 461
#     4  10  22  38  64 102 138 182 254 304 374 472
#     4  12  26  48  76 110 154 206 262 330 398 478
#     4  12  27  51  75 111 157 207 261 326 396 478
#     4  11  22  44  65 104 143 196 253 316 388 465
#     4  10  21  41  68  98 142 190 248 311 389 457
#
# _framework density 27.932055999999999
#
# number of rings (size 3 to 8) (size 9 to 14) (size 15 to 20)
#    0.000    1.200    2.000    3.600    0.000    0.800 
#   14.400    0.000    0.000    0.000    0.000    0.000 
#    0.000    0.000    0.000    0.000    0.000    0.000 
#
# Total GULP energy -111622.949922 kJ/mol
# GULP energy per Si atom -5581.147496 kJ/mol
# Density = 2.786848 g / cm^3
# Si number density = 27.932056 Si / 1000 Ang^3
#
#
#
# Elastic Constant Matrix: (Units=GPa)
#
#
# Indices 1 2 3 4 5 6 
#
# 1 150.7733 46.1682 35.6668 -0.0001 -19.1027 0.0001
# 2 46.1682 111.4559 22.9503 -0.0006 14.9861 0.0002
# 3 35.6668 22.9503 173.3499 0.0001 -0.5352 -0.0001
# 4 -0.0001 -0.0006 0.0001 45.5653 0.0000 5.3668
# 5 -19.1027 14.9861 -0.5352 0.0000 50.0008 0.0000
# 6 0.0001 0.0002 -0.0001 5.3668 0.0000 13.5148
#
#
#
# Elastic Compliance Matrix: (Units=1/GPa)
#
#
# Indices 1 2 3 4 5 6 
#
# 1 0.008710 -0.003955 -0.001255 0.000000 0.004500 0.000000
# 2 -0.003955 0.011422 -0.000714 0.000000 -0.004942 0.000000
# 3 -0.001255 -0.000714 0.006121 0.000000 -0.000200 0.000000
# 4 0.000000 0.000000 0.000000 0.023023 0.000000 -0.009143
# 5 0.004500 -0.004942 -0.000200 0.000000 0.023198 0.000000
# 6 0.000000 0.000000 0.000000 -0.009143 0.000000 0.077623
#
#
# Mechanical properties :
#
#
# Convention : Reuss Voigt Hill
#
# Bulk Modulus (GPa) = 69.41301 71.68330 70.54815
# Shear Modulus (GPa) = 29.98576 43.86909 36.92743
#
# Velocity S-wave (km/s) = 3.28002 3.96733 3.63994
# Velocity P-wave (km/s) = 6.26493 6.83414 6.55572
#
# Compressibility (1/GPa) = 0.01440652
#
# Stress axis : x y z
#
# Youngs Moduli (GPa) = 114.80593 87.55220 163.37977
#
# Poissons Ratio (x) = 0.34625 0.20499
# Poissons Ratio (y) = 0.45403 0.11661
# Poissons Ratio (z) = 0.14405 0.06249
#
# Static dielectric constant tensor:
#      x y z
#    x 2.551950 0.000000 -0.211200 
#    y 0.000000 2.610240 0.000000 
#    z -0.211200 0.000000 2.423580 
# 
# From -- ./inp_files/294334.got.cif
#   From: 2010.05.17/outbox.cif.g08.bks.cpg/sg15_148_cif.got.tgz:294334.got - 2010.06.03 18:47:42.
