data_PCOD9285019
_publ_section_title
;
Structure prediction by ZEFSAII (Michael W. Deem and Ramdas Pophale) SiO2 
 PCOD9285019
Probable space group: C 2/C
;
_chemical_formula_sum "Si O2"
_cell_formula_units_Z 64
_cell_length_a 26.270835
_cell_length_b 11.074094
_cell_length_c 14.849352
_cell_angle_alpha 90.000000
_cell_angle_beta 35.821337
_cell_angle_gamma 90.000000
_cell_volume 2528.355783
_symmetry_space_group_name_H-M "C 2/C"
_symmetry_group_IT_number 15
_symmetry_cell_setting 'monoclinic'
loop_
_space_group_symop_operation_xyz
x,y,z
-x,y,1/2-z
-x,-y,-z
x,-y,1/2+z
1/2+x,1/2+y,z
1/2-x,1/2+y,1/2-z
1/2-x,1/2-y,-z
1/2+x,1/2-y,1/2+z
loop_
_atom_site_type_symbol
_atom_site_label
_atom_site_fract_x
_atom_site_fract_y
_atom_site_fract_z
Si Si1 0.348172 0.004238 0.552380
Si Si2 0.314845 0.300985 0.793406
Si Si3 0.903745 0.750994 0.406787
Si Si4 0.440416 0.455648 0.487045
Si Si5 0.326617 0.926142 0.388344
Si Si6 0.080074 0.588365 0.380996
Si Si7 0.804011 0.857082 0.176475
Si Si8 0.888254 0.176701 0.737431
O O1 0.367818 0.147921 0.523549
O O2 0.252007 0.019192 0.732538
O O3 0.369616 0.966117 0.420257
O O4 0.391036 0.910107 0.557602
O O5 0.384886 0.378638 0.639807
O O6 0.355653 0.192835 0.793339
O O7 0.241394 0.232488 0.832457
O O8 0.266868 0.388694 0.935162
O O9 0.918479 0.878856 0.430559
O O10 0.856941 0.782504 0.380422
O O11 0.000000 0.702112 0.250000
O O12 0.402040 0.589373 0.523117
O O13 0.544027 0.435115 0.355577
O O14 0.344760 0.031783 0.290787
O O15 0.051236 0.713182 0.381482
O O16 0.000000 0.500000 0.500000
O O17 0.813873 0.818319 0.267864
#
# Coordination Sequence:
#
# PCOD9285019 Si02
#       8
#     8   8   8   8   8   8   8   8
#     4  12  23  41  67 104 131 179 228 287 347 411
#     4  11  23  43  67  98 139 183 227 287 354 410
#     4  10  21  41  66  94 135 179 227 285 347 409
#     4  11  23  46  67  93 142 186 225 293 353 405
#     4  11  23  41  67 102 137 177 224 286 348 410
#     4  12  24  43  72 101 137 177 225 287 347 405
#     4  12  25  42  69  99 137 182 234 282 346 419
#     4  11  25  42  68 101 133 180 234 284 343 418
#
# _framework density 25.312892999999999
#
# number of rings (size 3 to 8) (size 9 to 14) (size 15 to 20)
#    0.000    0.750    5.000    3.375    0.000    1.500 
#    0.000    1.250    5.500    0.000    0.000    0.000 
#    0.000    0.000    0.000    0.000    0.000    0.000 
#
# Total GULP energy -178370.826457 kJ/mol
# GULP energy per Si atom -5574.088327 kJ/mol
# Density = 2.525528 g / cm^3
# Si number density = 25.312893 Si / 1000 Ang^3
#
#
#
# Elastic Constant Matrix: (Units=GPa)
#
#
# Indices 1 2 3 4 5 6 
#
# 1 122.9001 36.2252 13.2255 0.0000 28.8593 0.0000
# 2 36.2252 75.8768 17.5088 0.0001 2.2554 -0.0001
# 3 13.2255 17.5088 74.9328 0.0000 11.7419 0.0000
# 4 0.0000 0.0001 0.0000 35.1296 0.0000 -3.3574
# 5 28.8593 2.2554 11.7419 0.0000 32.5438 0.0000
# 6 0.0000 -0.0001 0.0000 -3.3574 0.0000 46.3569
#
#
#
# Elastic Compliance Matrix: (Units=1/GPa)
#
#
# Indices 1 2 3 4 5 6 
#
# 1 0.012269 -0.005737 0.000867 0.000000 -0.010795 0.000000
# 2 -0.005737 0.016614 -0.003695 0.000000 0.005269 0.000000
# 3 0.000867 -0.003695 0.014983 0.000000 -0.005918 0.000000
# 4 0.000000 0.000000 0.000000 0.028664 0.000000 0.002076
# 5 -0.010795 0.005269 -0.005918 0.000000 0.042071 0.000000
# 6 0.000000 0.000000 0.000000 0.002076 0.000000 0.021722
#
#
# Mechanical properties :
#
#
# Convention : Reuss Voigt Hill
#
# Bulk Modulus (GPa) = 37.40288 45.29205 41.34747
# Shear Modulus (GPa) = 30.79446 36.58941 33.69194
#
# Velocity S-wave (km/s) = 3.49170 3.80608 3.65227
# Velocity P-wave (km/s) = 5.57353 6.10301 5.84427
#
# Compressibility (1/GPa) = 0.02673591
#
# Stress axis : x y z
#
# Youngs Moduli (GPa) = 81.50442 60.18977 66.74154
#
# Poissons Ratio (x) = 0.34529 -0.05783
# Poissons Ratio (y) = 0.46756 0.24662
# Poissons Ratio (z) = -0.07063 0.22241
#
# Static dielectric constant tensor:
#      x y z
#    x 2.159390 0.000000 -0.031010 
#    y 0.000000 2.343130 0.000000 
#    z -0.031010 0.000000 2.118010 
# 
# From -- ./inp_files/177823.got.cif
#   From: 2010.05.17/outbox.cif.g08.bks.cpg/sg15_89_cif.got.tgz:177823.got - 2010.06.03 18:47:42.
