data_PCOD9285965
_publ_section_title
;
Structure prediction by ZEFSAII (Michael W. Deem and Ramdas Pophale) SiO2 
 PCOD9285965
Probable space group: C 2/C
;
_chemical_formula_sum "Si O2"
_cell_formula_units_Z 60
_cell_length_a 29.262405
_cell_length_b 21.030667
_cell_length_c 15.684158
_cell_angle_alpha 90.000000
_cell_angle_beta 162.673437
_cell_angle_gamma 90.000000
_cell_volume 2874.580383
_symmetry_space_group_name_H-M "C 2/C"
_symmetry_group_IT_number 15
_symmetry_cell_setting 'monoclinic'
loop_
_space_group_symop_operation_xyz
x,y,z
-x,y,1/2-z
-x,-y,-z
x,-y,1/2+z
1/2+x,1/2+y,z
1/2-x,1/2+y,1/2-z
1/2-x,1/2-y,-z
1/2+x,1/2-y,1/2+z
loop_
_atom_site_type_symbol
_atom_site_label
_atom_site_fract_x
_atom_site_fract_y
_atom_site_fract_z
Si Si1 0.516108 0.337722 0.031764
Si Si2 0.150914 0.386672 0.844670
Si Si3 0.392513 0.279841 0.640456
Si Si4 0.000000 0.180637 0.750000
Si Si5 0.446550 0.222030 0.015545
Si Si6 0.494113 0.990573 0.338234
Si Si7 0.310550 0.136450 0.475395
Si Si8 0.203267 0.390499 0.748800
O O1 0.464592 0.319896 0.845003
O O2 0.368336 0.366961 0.817138
O O3 0.670316 0.378247 0.314012
O O4 0.537763 0.268665 0.114113
O O5 0.083686 0.455811 0.744247
O O6 0.125704 0.370299 0.699691
O O7 0.054415 0.336479 0.727778
O O8 0.500000 0.286951 0.750000
O O9 0.373002 0.203699 0.621966
O O10 0.216517 0.300143 0.310741
O O11 0.914646 0.230090 0.536252
O O12 0.875620 0.134390 0.569692
O O13 0.500000 0.011663 0.250000
O O14 0.661126 0.965196 0.665236
O O15 0.394931 0.925376 0.162073
O O16 0.332002 0.134627 0.410360
#
# Coordination Sequence:
#
# PCOD9285965 Si02
#       8
#     8   8   8   4   8   8   8   8
#     4  11  24  41  65 100 130 173 215 276 333 389
#     4  12  26  40  66  99 138 168 217 273 337 399
#     4  11  24  40  66  95 132 176 218 270 332 392
#     4  12  22  40  68 102 128 170 224 282 332 384
#     4  11  25  38  66  99 136 168 212 273 335 402
#     4  10  25  42  66  91 127 181 221 272 328 393
#     4  10  21  42  69  91 127 175 226 274 314 397
#     4  11  21  42  66  97 129 171 235 269 330 381
#
# _framework density 20.872612
#
# number of rings (size 3 to 8) (size 9 to 14) (size 15 to 20)
#    0.000    1.067    4.000    3.600    8.400    0.533 
#    0.000    0.000    1.467    0.000    0.000    0.000 
#    0.000    0.000    0.000    0.000    0.000    0.000 
#
# Total GULP energy -167369.653029 kJ/mol
# GULP energy per Si atom -5578.988434 kJ/mol
# Density = 2.082510 g / cm^3
# Si number density = 20.872612 Si / 1000 Ang^3
#
#
#
# Elastic Constant Matrix: (Units=GPa)
#
#
# Indices 1 2 3 4 5 6 
#
# 1 78.4556 43.6757 40.6449 0.0000 7.2181 0.0000
# 2 43.6757 71.8110 54.3217 0.0000 16.7565 0.0000
# 3 40.6449 54.3217 87.9631 0.0000 5.2979 0.0000
# 4 0.0000 0.0000 0.0000 23.8321 0.0000 3.5656
# 5 7.2181 16.7565 5.2979 0.0000 30.8893 0.0000
# 6 0.0000 0.0000 0.0000 3.5656 0.0000 21.5175
#
#
#
# Elastic Compliance Matrix: (Units=1/GPa)
#
#
# Indices 1 2 3 4 5 6 
#
# 1 0.019788 -0.010086 -0.002997 0.000000 0.001361 0.000000
# 2 -0.010086 0.036085 -0.016760 0.000000 -0.014344 0.000000
# 3 -0.002997 -0.016760 0.022749 0.000000 0.005890 0.000000
# 4 0.000000 0.000000 0.000000 0.043027 0.000000 -0.007130
# 5 0.001361 -0.014344 0.005890 0.000000 0.038826 0.000000
# 6 0.000000 0.000000 0.000000 -0.007130 0.000000 0.047655
#
#
# Mechanical properties :
#
#
# Convention : Reuss Voigt Hill
#
# Bulk Modulus (GPa) = 52.80940 57.27937 55.04438
# Shear Modulus (GPa) = 18.23972 21.88696 20.06334
#
# Velocity S-wave (km/s) = 2.95932 3.24172 3.10373
# Velocity P-wave (km/s) = 6.08543 6.44310 6.26682
#
# Compressibility (1/GPa) = 0.01893602
#
# Stress axis : x y z
#
# Youngs Moduli (GPa) = 50.53536 27.71256 43.95876
#
# Poissons Ratio (x) = 0.27950 0.13174
# Poissons Ratio (y) = 0.50969 0.73675
# Poissons Ratio (z) = 0.15145 0.46446
#
# Static dielectric constant tensor:
#      x y z
#    x 1.819510 0.000000 -0.057890 
#    y 0.000000 1.700650 0.000000 
#    z -0.057890 0.000000 1.817990 
# 
# From -- ./inp_files/179123.got.cif
#   From: 2010.05.17/outbox.cif.g08.bks.cpg/sg15_90_cif.got.tgz:179123.got - 2010.06.03 18:47:42.
