data_PCOD9285435
_publ_section_title
;
Structure prediction by ZEFSAII (Michael W. Deem and Ramdas Pophale) SiO2 
 PCOD9285435
Probable space group: C 2/C
;
_chemical_formula_sum "Si O2"
_cell_formula_units_Z 64
_cell_length_a 27.744184
_cell_length_b 6.592432
_cell_length_c 27.017193
_cell_angle_alpha 90.000000
_cell_angle_beta 138.610649
_cell_angle_gamma 90.000000
_cell_volume 3267.176384
_symmetry_space_group_name_H-M "C 2/C"
_symmetry_group_IT_number 15
_symmetry_cell_setting 'monoclinic'
loop_
_space_group_symop_operation_xyz
x,y,z
-x,y,1/2-z
-x,-y,-z
x,-y,1/2+z
1/2+x,1/2+y,z
1/2-x,1/2+y,1/2-z
1/2-x,1/2-y,-z
1/2+x,1/2-y,1/2+z
loop_
_atom_site_type_symbol
_atom_site_label
_atom_site_fract_x
_atom_site_fract_y
_atom_site_fract_z
Si Si1 0.345509 0.183367 0.788357
Si Si2 0.096678 0.324340 0.933872
Si Si3 0.993518 0.020756 0.802184
Si Si4 0.012480 0.710015 0.907658
Si Si5 0.745456 0.659234 0.188996
Si Si6 0.724445 0.128230 0.027502
Si Si7 0.173274 0.010515 0.811013
Si Si8 0.142268 0.054732 0.535748
O O1 0.430894 0.198402 0.864613
O O2 0.296214 0.264995 0.794868
O O3 0.331091 0.314198 0.727817
O O4 0.319415 0.955717 0.759732
O O5 0.166390 0.452909 0.969565
O O6 0.049566 0.202876 0.857051
O O7 0.044988 0.489554 0.920660
O O8 0.124872 0.153264 0.993465
O O9 0.909833 0.086125 0.747926
O O10 0.000000 0.955771 0.750000
O O11 0.011185 0.841201 0.855215
O O12 0.065917 0.831176 0.985628
O O13 0.770438 0.837361 0.171836
O O14 0.691636 0.503292 0.120029
O O15 0.750000 0.250000 0.000000
O O16 0.685186 0.288148 0.033788
O O17 0.793198 0.040360 0.110021
#
# Coordination Sequence:
#
# PCOD9285435 Si02
#       8
#     8   8   8   8   8   8   8   8
#     4  11  23  41  65  92 126 165 210 259 324 371
#     4  10  21  42  60  87 127 164 205 257 312 364
#     4  10  23  39  61  89 125 166 213 258 314 375
#     4   9  22  42  61  86 126 165 206 263 306 378
#     4  12  22  40  67  94 124 168 206 265 320 371
#     4  11  24  39  66  92 129 170 207 258 314 370
#     4  11  23  41  63  96 127 163 214 264 308 377
#     4  10  22  40  63  91 128 159 213 257 307 376
#
# _framework density 19.588781000000001
#
# number of rings (size 3 to 8) (size 9 to 14) (size 15 to 20)
#    0.000    1.500    3.750    0.750    5.250    2.500 
#    2.250    0.625    0.000    0.000    0.000    0.000 
#    0.000    0.000    0.000    0.000    0.000    0.000 
#
# Total GULP energy -178719.685040 kJ/mol
# GULP energy per Si atom -5584.990157 kJ/mol
# Density = 1.954420 g / cm^3
# Si number density = 19.588781 Si / 1000 Ang^3
#
#
#
# Elastic Constant Matrix: (Units=GPa)
#
#
# Indices 1 2 3 4 5 6 
#
# 1 23.1254 -14.8075 11.1005 -0.0003 1.4276 0.0026
# 2 -14.8075 57.0927 6.8555 -0.0029 8.3872 -0.0030
# 3 11.1005 6.8555 65.4475 -0.0023 21.4471 0.0034
# 4 -0.0003 -0.0029 -0.0023 28.5492 -0.0002 2.8029
# 5 1.4276 8.3872 21.4471 -0.0002 27.6285 0.0010
# 6 0.0026 -0.0030 0.0034 2.8029 0.0010 14.9074
#
#
#
# Elastic Compliance Matrix: (Units=1/GPa)
#
#
# Indices 1 2 3 4 5 6 
#
# 1 0.059854 0.016802 -0.012375 0.000002 0.001413 -0.000005
# 2 0.016802 0.023050 -0.003603 0.000002 -0.005068 0.000003
# 3 -0.012375 -0.003603 0.023052 0.000001 -0.016161 -0.000003
# 4 0.000002 0.000002 0.000001 0.035686 -0.000001 -0.006710
# 5 0.001413 -0.005068 -0.016161 -0.000001 0.050205 -0.000001
# 6 -0.000005 0.000003 -0.000003 -0.006710 -0.000001 0.068342
#
#
# Mechanical properties :
#
#
# Convention : Reuss Voigt Hill
#
# Bulk Modulus (GPa) = 9.29334 16.88472 13.08903
# Shear Modulus (GPa) = 16.98316 23.71817 20.35066
#
# Velocity S-wave (km/s) = 2.94765 3.48344 3.22668
# Velocity P-wave (km/s) = 4.04220 4.98171 4.53634
#
# Compressibility (1/GPa) = 0.10760398
#
# Stress axis : x y z
#
# Youngs Moduli (GPa) = 16.70738 43.38320 43.38094
#
# Poissons Ratio (x) = -0.72893 0.53682
# Poissons Ratio (y) = -0.28072 0.15632
# Poissons Ratio (z) = 0.20675 0.15632
#
# Static dielectric constant tensor:
#      x y z
#    x 1.659210 0.000000 0.019970 
#    y 0.000000 1.676740 0.000000 
#    z 0.019970 0.000000 1.690150 
# 
# From -- ./inp_files/304095.got.cif
#   From: 2010.05.17/outbox.cif.g08.bks.cpg/sg15_153_cif.got.tgz:304095.got - 2010.06.03 18:47:42.
