data_PCOD9285825
_publ_section_title
;
Structure prediction by ZEFSAII (Michael W. Deem and Ramdas Pophale) SiO2 
 PCOD9285825
Probable space group: C 2/C
;
_chemical_formula_sum "Si O2"
_cell_formula_units_Z 40
_cell_length_a 10.746273
_cell_length_b 7.257337
_cell_length_c 22.648174
_cell_angle_alpha 90.000000
_cell_angle_beta 108.798984
_cell_angle_gamma 90.000000
_cell_volume 1672.091634
_symmetry_space_group_name_H-M "C 2/C"
_symmetry_group_IT_number 15
_symmetry_cell_setting 'monoclinic'
loop_
_space_group_symop_operation_xyz
x,y,z
-x,y,1/2-z
-x,-y,-z
x,-y,1/2+z
1/2+x,1/2+y,z
1/2-x,1/2+y,1/2-z
1/2-x,1/2-y,-z
1/2+x,1/2-y,1/2+z
loop_
_atom_site_type_symbol
_atom_site_label
_atom_site_fract_x
_atom_site_fract_y
_atom_site_fract_z
Si Si1 0.982446 0.045768 0.358434
Si Si2 0.144722 0.055241 0.544858
Si Si3 0.276383 0.018463 0.452613
Si Si4 0.150083 0.384946 0.156307
Si Si5 0.884542 0.718970 0.267009
O O1 0.973155 0.261551 0.343206
O O2 0.127650 0.012360 0.405027
O O3 0.868648 0.003748 0.389680
O O4 0.948480 0.904939 0.302155
O O5 0.256661 0.969317 0.518827
O O6 0.166325 0.274641 0.542112
O O7 0.000000 0.000000 0.500000
O O8 0.353078 0.900757 0.415474
O O9 0.156662 0.587493 0.185524
O O10 0.270188 0.275904 0.205013
O O11 0.000000 0.616046 0.250000
#
# Coordination Sequence:
#
# PCOD9285825 Si02
#       5
#     8   8   8   8   8
#     4  11  23  41  66  94 129 167 211 263 316 381
#     4   9  20  41  68  94 131 166 208 270 320 374
#     4  10  21  42  67  94 129 166 212 267 316 379
#     4  12  25  40  67  95 125 171 215 254 323 384
#     4  12  25  41  62  93 129 166 212 266 315 374
#
# _framework density 23.922132999999999
#
# number of rings (size 3 to 8) (size 9 to 14) (size 15 to 20)
#    0.000    1.200    6.000    0.000    0.000    4.800 
#    0.000    9.000    0.000    0.000    0.000    0.000 
#    0.000    0.000    0.000    0.000    0.000    0.000 
#
# Total GULP energy -111691.600562 kJ/mol
# GULP energy per Si atom -5584.580028 kJ/mol
# Density = 2.386768 g / cm^3
# Si number density = 23.922133 Si / 1000 Ang^3
#
#
#
# Elastic Constant Matrix: (Units=GPa)
#
#
# Indices 1 2 3 4 5 6 
#
# 1 34.1423 13.4667 15.1510 0.0000 -15.0968 0.0000
# 2 13.4667 80.6848 15.4153 0.0000 -17.2929 0.0000
# 3 15.1510 15.4153 84.4939 0.0000 -23.1142 0.0000
# 4 0.0000 0.0000 0.0000 25.9333 0.0000 3.4891
# 5 -15.0968 -17.2929 -23.1142 0.0000 34.3618 0.0000
# 6 0.0000 0.0000 0.0000 3.4891 0.0000 32.7796
#
#
#
# Elastic Compliance Matrix: (Units=1/GPa)
#
#
# Indices 1 2 3 4 5 6 
#
# 1 0.037437 -0.002918 -0.002553 0.000000 0.013262 0.000000
# 2 -0.002918 0.014160 -0.000565 0.000000 0.005464 0.000000
# 3 -0.002553 -0.000565 0.014720 0.000000 0.008496 0.000000
# 4 0.000000 0.000000 0.000000 0.039121 0.000000 -0.004164
# 5 0.013262 0.005464 0.008496 0.000000 0.043393 0.000000
# 6 0.000000 0.000000 0.000000 -0.004164 0.000000 0.030950
#
#
# Mechanical properties :
#
#
# Convention : Reuss Voigt Hill
#
# Bulk Modulus (GPa) = 18.43500 31.93190 25.18345
# Shear Modulus (GPa) = 23.81682 28.96748 26.39215
#
# Velocity S-wave (km/s) = 3.15873 3.48358 3.32513
# Velocity P-wave (km/s) = 4.58546 5.43670 5.02912
#
# Compressibility (1/GPa) = 0.05424463
#
# Stress axis : x y z
#
# Youngs Moduli (GPa) = 26.71141 70.62134 67.93403
#
# Poissons Ratio (x) = 0.20610 0.17341
# Poissons Ratio (y) = 0.07795 0.03841
# Poissons Ratio (z) = 0.06818 0.03993
#
# Static dielectric constant tensor:
#      x y z
#    x 1.930890 0.000000 -0.086010 
#    y 0.000000 1.924350 0.000000 
#    z -0.086010 0.000000 1.997970 
# 
# From -- ./inp_files/290534.got.cif
#   From: 2010.05.17/outbox.cif.g08.bks.cpg/sg15_146_cif.got.tgz:290534.got - 2010.06.03 18:47:42.
