data_PCOD9285654
_publ_section_title
;
Structure prediction by ZEFSAII (Michael W. Deem and Ramdas Pophale) SiO2 
 PCOD9285654
Probable space group: C 2/C
;
_chemical_formula_sum "Si O2"
_cell_formula_units_Z 52
_cell_length_a 20.903437
_cell_length_b 17.216928
_cell_length_c 8.501363
_cell_angle_alpha 90.000000
_cell_angle_beta 50.929580
_cell_angle_gamma 90.000000
_cell_volume 2375.372546
_symmetry_space_group_name_H-M "C 2/C"
_symmetry_group_IT_number 15
_symmetry_cell_setting 'monoclinic'
loop_
_space_group_symop_operation_xyz
x,y,z
-x,y,1/2-z
-x,-y,-z
x,-y,1/2+z
1/2+x,1/2+y,z
1/2-x,1/2+y,1/2-z
1/2-x,1/2-y,-z
1/2+x,1/2-y,1/2+z
loop_
_atom_site_type_symbol
_atom_site_label
_atom_site_fract_x
_atom_site_fract_y
_atom_site_fract_z
Si Si1 0.588328 0.527700 0.427485
Si Si2 0.000000 0.149464 0.750000
Si Si3 0.781138 0.333540 0.135734
Si Si4 0.379553 0.256851 0.256313
Si Si5 0.581810 0.892397 0.019321
Si Si6 0.802945 0.930529 0.026555
Si Si7 0.654576 0.016065 0.137571
O O1 0.500000 0.500000 0.500000
O O2 0.572200 0.591320 0.585967
O O3 0.638155 0.455592 0.421458
O O4 0.640779 0.568671 0.212178
O O5 0.964387 0.199162 0.660376
O O6 0.697837 0.308534 0.175637
O O7 0.747838 0.352356 0.360098
O O8 0.850962 0.274181 0.973267
O O9 0.820187 0.414157 0.015779
O O10 0.389031 0.187142 0.113259
O O11 0.500000 0.877970 0.250000
O O12 0.635337 0.939558 0.065876
O O13 0.584163 0.952492 0.865805
O O14 0.735987 0.998159 0.110645
#
# Coordination Sequence:
#
# PCOD9285654 Si02
#       7
#     8   4   8   8   8   8   8
#     4  12  23  38  66 104 137 168 216 275 335 392
#     4  12  24  44  64  96 142 178 212 258 350 406
#     4  10  21  42  65  91 131 172 220 264 327 385
#     4  10  25  43  65  91 138 182 209 268 336 411
#     4  11  24  43  67  98 132 171 224 281 337 387
#     4  12  21  38  67 101 131 164 225 275 322 388
#     4  11  21  41  69  99 125 172 225 281 325 385
#
# _framework density 21.891302
#
# number of rings (size 3 to 8) (size 9 to 14) (size 15 to 20)
#    0.000    0.923    4.615    2.308    0.000    4.923 
#    5.538    1.538    0.000    0.000    0.000    0.000 
#    0.000    0.000    0.000    0.000    0.000    0.000 
#
# Total GULP energy -144893.120161 kJ/mol
# GULP energy per Si atom -5572.812314 kJ/mol
# Density = 2.184148 g / cm^3
# Si number density = 21.891302 Si / 1000 Ang^3
#
#
#
# Elastic Constant Matrix: (Units=GPa)
#
#
# Indices 1 2 3 4 5 6 
#
# 1 35.7691 16.1469 -1.2334 0.0000 -3.5724 0.0000
# 2 16.1469 66.1756 27.5147 0.0000 -1.7807 0.0000
# 3 -1.2334 27.5147 166.9263 0.0000 4.5532 0.0000
# 4 0.0000 0.0000 0.0000 18.8118 0.0000 2.6559
# 5 -3.5724 -1.7807 4.5532 0.0000 28.0168 0.0000
# 6 0.0000 0.0000 0.0000 2.6559 0.0000 28.9037
#
#
#
# Elastic Compliance Matrix: (Units=1/GPa)
#
#
# Indices 1 2 3 4 5 6 
#
# 1 0.032126 -0.008385 0.001529 0.000000 0.003315 0.000000
# 2 -0.008385 0.018473 -0.003124 0.000000 0.000612 0.000000
# 3 0.001529 -0.003124 0.006546 0.000000 -0.001067 0.000000
# 4 0.000000 0.000000 0.000000 0.053857 0.000000 -0.004949
# 5 0.003315 0.000612 -0.001067 0.000000 0.036328 0.000000
# 6 0.000000 0.000000 0.000000 -0.004949 0.000000 0.035052
#
#
# Mechanical properties :
#
#
# Convention : Reuss Voigt Hill
#
# Bulk Modulus (GPa) = 26.89248 39.30305 33.09777
# Shear Modulus (GPa) = 23.28435 30.24265 26.76350
#
# Velocity S-wave (km/s) = 3.26488 3.72087 3.50031
# Velocity P-wave (km/s) = 5.15013 6.03760 5.61143
#
# Compressibility (1/GPa) = 0.03718511
#
# Stress axis : x y z
#
# Youngs Moduli (GPa) = 31.12723 54.13442 152.76657
#
# Poissons Ratio (x) = 0.45394 -0.23360
# Poissons Ratio (y) = 0.26101 0.47717
# Poissons Ratio (z) = -0.04760 0.16909
#
# Static dielectric constant tensor:
#      x y z
#    x 1.788750 0.000000 0.022140 
#    y 0.000000 1.829960 0.000000 
#    z 0.022140 0.000000 1.839800 
# 
# From -- ./inp_files/56956.got.cif
#   From: 2010.05.17/outbox.cif.g08.bks.cpg/sg15_29_cif.got.tgz:56956.got - 2010.06.03 18:47:42.
