data_PCOD9285580
_publ_section_title
;
Structure prediction by ZEFSAII (Michael W. Deem and Ramdas Pophale) SiO2 
 PCOD9285580
Probable space group: C 2/C
;
_chemical_formula_sum "Si O2"
_cell_formula_units_Z 44
_cell_length_a 24.428034
_cell_length_b 11.899451
_cell_length_c 10.323171
_cell_angle_alpha 90.000000
_cell_angle_beta 42.786185
_cell_angle_gamma 90.000000
_cell_volume 2038.296678
_symmetry_space_group_name_H-M "C 2/C"
_symmetry_group_IT_number 15
_symmetry_cell_setting 'monoclinic'
loop_
_space_group_symop_operation_xyz
x,y,z
-x,y,1/2-z
-x,-y,-z
x,-y,1/2+z
1/2+x,1/2+y,z
1/2-x,1/2+y,1/2-z
1/2-x,1/2-y,-z
1/2+x,1/2-y,1/2+z
loop_
_atom_site_type_symbol
_atom_site_label
_atom_site_fract_x
_atom_site_fract_y
_atom_site_fract_z
Si Si1 0.276851 0.912886 0.390215
Si Si2 0.382979 0.697893 0.440480
Si Si3 0.341693 0.949412 0.550777
Si Si4 0.555418 0.513824 0.529361
Si Si5 0.073000 0.246831 0.404432
Si Si6 0.500000 0.892315 0.750000
O O1 0.195919 0.847013 0.498560
O O2 0.286077 0.955131 0.520010
O O3 0.352339 0.830443 0.237144
O O4 0.292146 0.010155 0.260277
O O5 0.368269 0.820576 0.522808
O O6 0.397769 0.599538 0.517886
O O7 0.447447 0.716670 0.210448
O O8 0.420787 0.027688 0.388181
O O9 0.500000 0.532278 0.750000
O O10 0.500000 0.500000 0.500000
O O11 0.599241 0.631712 0.428456
O O12 0.008686 0.312253 0.607244
#
# Coordination Sequence:
#
# PCOD9285580 Si02
#       6
#     8   8   8   8   8   4
#     4  10  24  42  67  92 128 174 211 267 320 376
#     4  11  25  40  68  90 135 170 211 267 322 382
#     4  10  23  43  65  98 127 166 219 260 320 384
#     4  12  25  41  63  94 127 171 214 260 324 380
#     4  10  21  42  64  92 129 168 208 262 319 381
#     4  10  22  38  70  96 130 162 212 272 314 374
#
# _framework density 21.586652999999998
#
# number of rings (size 3 to 8) (size 9 to 14) (size 15 to 20)
#    0.000    1.455    2.727    2.182    6.364    8.000 
#    0.000    0.909    0.000    0.000    0.000    0.000 
#    0.000    0.000    0.000    0.000    0.000    0.000 
#
# Total GULP energy -122868.782787 kJ/mol
# GULP energy per Si atom -5584.944672 kJ/mol
# Density = 2.153752 g / cm^3
# Si number density = 21.586653 Si / 1000 Ang^3
#
#
#
# Elastic Constant Matrix: (Units=GPa)
#
#
# Indices 1 2 3 4 5 6 
#
# 1 79.4328 32.9430 3.5306 0.0000 22.7986 0.0000
# 2 32.9430 156.7357 28.9595 0.0000 29.9808 0.0000
# 3 3.5306 28.9595 38.9895 0.0000 21.7791 0.0000
# 4 0.0000 0.0000 0.0000 32.1539 0.0000 11.2196
# 5 22.7986 29.9808 21.7791 0.0000 36.0031 0.0000
# 6 0.0000 0.0000 0.0000 11.2196 0.0000 36.4403
#
#
#
# Elastic Compliance Matrix: (Units=1/GPa)
#
#
# Indices 1 2 3 4 5 6 
#
# 1 0.017154 -0.002462 0.007850 0.000000 -0.013561 0.000000
# 2 -0.002462 0.008213 -0.004422 0.000000 -0.002605 0.000000
# 3 0.007850 -0.004422 0.043712 0.000000 -0.027731 0.000000
# 4 0.000000 0.000000 0.000000 0.034844 0.000000 -0.010728
# 5 -0.013561 -0.002605 -0.027731 0.000000 0.055307 0.000000
# 6 0.000000 0.000000 0.000000 -0.010728 0.000000 0.030745
#
#
# Mechanical properties :
#
#
# Convention : Reuss Voigt Hill
#
# Bulk Modulus (GPa) = 14.08229 45.11382 29.59806
# Shear Modulus (GPa) = 23.61698 34.90112 29.25905
#
# Velocity S-wave (km/s) = 3.31124 4.02530 3.68560
# Velocity P-wave (km/s) = 4.59966 6.52291 5.64381
#
# Compressibility (1/GPa) = 0.07101117
#
# Stress axis : x y z
#
# Youngs Moduli (GPa) = 58.29683 121.75846 22.87716
#
# Poissons Ratio (x) = 0.29975 -0.17959
# Poissons Ratio (y) = 0.14352 0.10116
# Poissons Ratio (z) = -0.45765 0.53842
#
# Static dielectric constant tensor:
#      x y z
#    x 1.830320 0.000000 -0.012480 
#    y 0.000000 1.807040 0.000000 
#    z -0.012480 0.000000 1.799360 
# 
# From -- ./inp_files/103289.got.cif
#   From: 2010.05.17/outbox.cif.g08.bks.cpg/sg15_52_cif.got.tgz:103289.got - 2010.06.03 18:47:42.
