data_PCOD9285411
_publ_section_title
;
Structure prediction by ZEFSAII (Michael W. Deem and Ramdas Pophale) SiO2 
 PCOD9285411
Probable space group: C 2/C
;
_chemical_formula_sum "Si O2"
_cell_formula_units_Z 36
_cell_length_a 8.567868
_cell_length_b 17.121141
_cell_length_c 14.097053
_cell_angle_alpha 90.000000
_cell_angle_beta 136.044368
_cell_angle_gamma 90.000000
_cell_volume 1435.345837
_symmetry_space_group_name_H-M "C 2/C"
_symmetry_group_IT_number 15
_symmetry_cell_setting 'monoclinic'
loop_
_space_group_symop_operation_xyz
x,y,z
-x,y,1/2-z
-x,-y,-z
x,-y,1/2+z
1/2+x,1/2+y,z
1/2-x,1/2+y,1/2-z
1/2-x,1/2-y,-z
1/2+x,1/2-y,1/2+z
loop_
_atom_site_type_symbol
_atom_site_label
_atom_site_fract_x
_atom_site_fract_y
_atom_site_fract_z
Si Si1 0.000000 0.422161 0.750000
Si Si2 0.937555 0.696403 0.873741
Si Si3 0.001514 0.226527 0.582933
Si Si4 0.361608 0.964996 0.029319
Si Si5 0.457062 0.635299 0.380950
O O1 0.865489 0.472588 0.614621
O O2 0.809862 0.377831 0.727718
O O3 0.670964 0.706489 0.740921
O O4 0.011983 0.779276 0.861160
O O5 0.013997 0.612297 0.875402
O O6 0.037215 0.703243 0.023234
O O7 0.750000 0.250000 0.500000
O O8 0.016476 0.152529 0.517852
O O9 0.107714 0.932782 0.903079
O O10 0.500000 0.000000 0.000000
#
# Coordination Sequence:
#
# PCOD9285411 Si02
#       5
#     4   8   8   8   8
#     4  12  26  50  70 106 156 194 246 328 394 456
#     4  10  24  44  76 104 146 196 258 305 372 466
#     4  10  21  41  76 109 143 192 264 309 372 444
#     4  12  28  47  71 113 154 199 251 322 400 456
#     4  10  25  47  74 102 148 203 253 311 374 469
#
# _framework density 25.081063
#
# number of rings (size 3 to 8) (size 9 to 14) (size 15 to 20)
#    1.333    0.000    0.000    4.667    6.222    0.889 
#    4.000    0.000    0.000    0.000    0.000    0.000 
#    0.000    0.000    0.000    0.000    0.000    0.000 
#
# Total GULP energy -100237.936761 kJ/mol
# GULP energy per Si atom -5568.774264 kJ/mol
# Density = 2.502398 g / cm^3
# Si number density = 25.081063 Si / 1000 Ang^3
#
#
#
# Elastic Constant Matrix: (Units=GPa)
#
#
# Indices 1 2 3 4 5 6 
#
# 1 140.7147 48.0533 54.3917 0.0000 23.2138 0.0000
# 2 48.0533 119.7714 34.8265 0.0000 7.4377 0.0000
# 3 54.3917 34.8265 123.6405 -0.0001 18.2786 0.0000
# 4 0.0000 0.0000 -0.0001 -209.9719 -0.0001 118.8767
# 5 23.2138 7.4377 18.2786 -0.0001 52.6969 0.0000
# 6 0.0000 0.0000 0.0000 118.8767 0.0000 -9.4099
#
#
#
# Elastic Compliance Matrix: (Units=1/GPa)
#
#
# Indices 1 2 3 4 5 6 
#
# 1 0.009724 -0.002836 -0.003062 0.000000 -0.002821 0.000000
# 2 -0.002836 0.009930 -0.001609 0.000000 0.000406 0.000000
# 3 -0.003062 -0.001609 0.010177 0.000000 -0.001954 0.000000
# 4 0.000000 0.000000 0.000000 0.000774 0.000000 0.009779
# 5 -0.002821 0.000406 -0.001954 0.000000 0.020840 0.000000
# 6 0.000000 0.000000 0.000000 0.009779 0.000000 0.017273
#
#
# Mechanical properties :
#
#
# Convention : Reuss Voigt Hill
#
# Bulk Modulus (GPa) = 67.49195 73.18552 70.33873
# Shear Modulus (GPa) = 56.38807 -16.87995 19.75406
#
# Velocity S-wave (km/s) = 4.74670 -2.59707 2.80948
# Velocity P-wave (km/s) = 7.55046 4.49999 6.21528
#
# Compressibility (1/GPa) = 0.01481658
#
# Stress axis : x y z
#
# Youngs Moduli (GPa) = 102.83886 100.70729 98.25911
#
# Poissons Ratio (x) = 0.28559 0.30086
# Poissons Ratio (y) = 0.29163 0.15814
# Poissons Ratio (z) = 0.31488 0.16208
#
# Static dielectric constant tensor:
#      x y z
#    x 2.056370 0.000000 0.019070 
#    y 0.000000 1.973230 0.000000 
#    z 0.019070 0.000000 2.058240 
# 
# From -- ./inp_files/190747.got.cif
#   From: 2010.05.17/outbox.cif.g08.bks.cpg/sg15_96_cif.got.tgz:190747.got - 2010.06.03 18:47:42.
