data_PCOD9285627
_publ_section_title
;
Structure prediction by ZEFSAII (Michael W. Deem and Ramdas Pophale) SiO2 
 PCOD9285627
Probable space group: C 2/C
;
_chemical_formula_sum "Si O2"
_cell_formula_units_Z 52
_cell_length_a 26.982345
_cell_length_b 9.662376
_cell_length_c 9.431248
_cell_angle_alpha 90.000000
_cell_angle_beta 58.268315
_cell_angle_gamma 90.000000
_cell_volume 2091.305689
_symmetry_space_group_name_H-M "C 2/C"
_symmetry_group_IT_number 15
_symmetry_cell_setting 'monoclinic'
loop_
_space_group_symop_operation_xyz
x,y,z
-x,y,1/2-z
-x,-y,-z
x,-y,1/2+z
1/2+x,1/2+y,z
1/2-x,1/2+y,1/2-z
1/2-x,1/2-y,-z
1/2+x,1/2-y,1/2+z
loop_
_atom_site_type_symbol
_atom_site_label
_atom_site_fract_x
_atom_site_fract_y
_atom_site_fract_z
Si Si1 0.233561 0.886496 0.936656
Si Si2 0.591340 0.066853 0.022367
Si Si3 0.110621 0.757557 0.734541
Si Si4 0.063638 0.990193 0.471547
Si Si5 0.597601 0.346054 0.176926
Si Si6 0.203675 0.602173 0.457045
Si Si7 0.500000 0.142040 0.750000
O O1 0.257636 0.877165 0.740651
O O2 0.250000 0.750000 0.000000
O O3 0.164201 0.880744 0.044118
O O4 0.261432 0.017916 0.975558
O O5 0.578707 0.198525 0.142523
O O6 0.537164 0.962786 0.096020
O O7 0.608443 0.129320 0.846365
O O8 0.647819 0.990457 0.997676
O O9 0.104696 0.894711 0.835156
O O10 0.170854 0.740969 0.559888
O O11 0.050390 0.736193 0.740494
O O12 0.065370 0.035389 0.631517
O O13 0.087323 0.850967 0.361981
O O14 0.000000 0.000000 0.500000
#
# Coordination Sequence:
#
# PCOD9285627 Si02
#       7
#     8   8   8   8   8   8   4
#     4  12  25  46  73 106 140 191 231 297 359 420
#     4  10  21  42  65 101 134 176 222 289 346 413
#     4  10  23  42  66 104 133 180 230 288 354 412
#     4  11  26  46  69  97 143 187 230 289 352 426
#     4  11  25  45  67 102 136 183 239 277 350 426
#     4  11  23  45  73 102 144 172 236 292 350 423
#     4  10  22  36  68  98 136 170 228 286 354 410
#
# _framework density 24.864847000000001
#
# number of rings (size 3 to 8) (size 9 to 14) (size 15 to 20)
#    0.000    1.231    3.077    1.846    6.462    2.462 
#    2.769    3.077    0.000    0.000    0.000    0.000 
#    0.000    0.000    0.000    0.000    0.000    0.000 
#
# Total GULP energy -145552.355367 kJ/mol
# GULP energy per Si atom -5598.167514 kJ/mol
# Density = 2.480825 g / cm^3
# Si number density = 24.864847 Si / 1000 Ang^3
#
#
#
# Elastic Constant Matrix: (Units=GPa)
#
#
# Indices 1 2 3 4 5 6 
#
# 1 115.1856 20.9476 11.0002 0.0000 -12.4772 0.0000
# 2 20.9476 77.3078 23.6473 0.0000 -3.2822 0.0000
# 3 11.0002 23.6473 115.2812 0.0000 -10.2746 0.0000
# 4 0.0000 0.0000 0.0000 43.5428 0.0000 3.8559
# 5 -12.4772 -3.2822 -10.2746 0.0000 35.5054 0.0000
# 6 0.0000 0.0000 0.0000 3.8559 0.0000 25.9033
#
#
#
# Elastic Compliance Matrix: (Units=1/GPa)
#
#
# Indices 1 2 3 4 5 6 
#
# 1 0.009462 -0.002391 -0.000139 0.000000 0.003064 0.000000
# 2 -0.002391 0.014413 -0.002756 0.000000 -0.000305 0.000000
# 3 -0.000139 -0.002756 0.009470 0.000000 0.002437 0.000000
# 4 0.000000 0.000000 0.000000 0.023273 0.000000 -0.003464
# 5 0.003064 -0.000305 0.002437 0.000000 0.029918 0.000000
# 6 0.000000 0.000000 0.000000 -0.003464 0.000000 0.039121
#
#
# Mechanical properties :
#
#
# Convention : Reuss Voigt Hill
#
# Bulk Modulus (GPa) = 43.91166 46.55166 45.23166
# Shear Modulus (GPa) = 34.76578 37.80228 36.28403
#
# Velocity S-wave (km/s) = 3.74329 3.90335 3.82416
# Velocity P-wave (km/s) = 6.03171 6.25119 6.14243
#
# Compressibility (1/GPa) = 0.02277300
#
# Stress axis : x y z
#
# Youngs Moduli (GPa) = 105.68989 69.38118 105.59487
#
# Poissons Ratio (x) = 0.16590 0.01471
# Poissons Ratio (y) = 0.25271 0.29097
# Poissons Ratio (z) = 0.01472 0.19118
#
# Static dielectric constant tensor:
#      x y z
#    x 2.057090 0.000000 0.078600 
#    y 0.000000 2.008590 0.000000 
#    z 0.078600 0.000000 2.026900 
# 
# From -- ./inp_files/65355.got.cif
#   From: 2010.05.17/outbox.cif.g08.bks.cpg/sg15_33_cif.got.tgz:65355.got - 2010.06.03 18:47:42.
