data_PCOD9285809
_publ_section_title
;
Structure prediction by ZEFSAII (Michael W. Deem and Ramdas Pophale) SiO2 
 PCOD9285809
Probable space group: C 2/C
;
_chemical_formula_sum "Si O2"
_cell_formula_units_Z 48
_cell_length_a 10.186434
_cell_length_b 11.336484
_cell_length_c 17.506347
_cell_angle_alpha 90.000000
_cell_angle_beta 83.740418
_cell_angle_gamma 90.000000
_cell_volume 2009.551432
_symmetry_space_group_name_H-M "C 2/C"
_symmetry_group_IT_number 15
_symmetry_cell_setting 'monoclinic'
loop_
_space_group_symop_operation_xyz
x,y,z
-x,y,1/2-z
-x,-y,-z
x,-y,1/2+z
1/2+x,1/2+y,z
1/2-x,1/2+y,1/2-z
1/2-x,1/2-y,-z
1/2+x,1/2-y,1/2+z
loop_
_atom_site_type_symbol
_atom_site_label
_atom_site_fract_x
_atom_site_fract_y
_atom_site_fract_z
Si Si1 0.000000 0.856502 0.250000
Si Si2 0.960978 0.780558 0.987830
Si Si3 0.599402 0.744737 0.333795
Si Si4 0.663754 0.364438 0.099055
Si Si5 0.000000 0.539411 0.750000
Si Si6 0.791136 0.412425 0.534321
Si Si7 0.700740 0.845282 0.787986
O O1 0.920552 0.918400 0.324198
O O2 0.891260 0.770056 0.218069
O O3 0.826862 0.853554 0.006673
O O4 0.013596 0.819916 0.902152
O O5 0.922990 0.642377 0.990795
O O6 0.062639 0.806292 0.047610
O O7 0.735644 0.774257 0.369031
O O8 0.527306 0.867178 0.315995
O O9 0.654668 0.679046 0.255886
O O10 0.754358 0.452573 0.044921
O O11 0.125933 0.451845 0.747782
O O12 0.793322 0.370661 0.622708
#
# Coordination Sequence:
#
# PCOD9285809 Si02
#       7
#     4   8   8   8   4   8   8
#     4   9  20  38  65  88 130 167 222 282 323 390
#     4  11  25  42  62  95 141 170 218 286 326 405
#     4  11  24  40  68 100 130 171 227 277 338 404
#     4  11  22  41  65  96 126 181 222 268 345 398
#     4  11  22  44  67 100 134 177 228 278 339 398
#     4  11  23  43  64  91 133 181 218 271 343 392
#     4  10  21  42  67  91 134 175 217 286 335 383
#
# _framework density 23.885928
#
# number of rings (size 3 to 8) (size 9 to 14) (size 15 to 20)
#    0.000    1.333    3.333    2.000    0.000    3.333 
#    0.000    0.000    0.000    0.000    0.000    0.000 
#    0.000    0.000    0.000    0.000    0.000    0.000 
#
# Total GULP energy -134064.312849 kJ/mol
# GULP energy per Si atom -5586.013035 kJ/mol
# Density = 2.383156 g / cm^3
# Si number density = 23.885928 Si / 1000 Ang^3
#
#
#
# Elastic Constant Matrix: (Units=GPa)
#
#
# Indices 1 2 3 4 5 6 
#
# 1 89.6688 19.3318 41.7073 0.0000 18.8577 0.0000
# 2 19.3318 45.3322 15.1844 0.0000 4.9265 0.0000
# 3 41.7073 15.1844 83.1920 0.0000 0.4824 0.0000
# 4 0.0000 0.0000 0.0000 28.9226 0.0000 -1.4645
# 5 18.8577 4.9265 0.4824 0.0000 39.9589 0.0000
# 6 0.0000 0.0000 0.0000 -1.4645 0.0000 -14.2085
#
#
#
# Elastic Compliance Matrix: (Units=1/GPa)
#
#
# Indices 1 2 3 4 5 6 
#
# 1 0.017256 -0.003891 -0.007897 0.000000 -0.007568 0.000000
# 2 -0.003891 0.024701 -0.002551 0.000000 -0.001178 0.000000
# 3 -0.007897 -0.002551 0.016423 0.000000 0.003843 0.000000
# 4 0.000000 0.000000 0.000000 0.034396 0.000000 -0.003545
# 5 -0.007568 -0.001178 0.003843 0.000000 0.028696 0.000000
# 6 0.000000 0.000000 0.000000 -0.003545 0.000000 -0.070015
#
#
# Mechanical properties :
#
#
# Convention : Reuss Voigt Hill
#
# Bulk Modulus (GPa) = 33.66786 41.18222 37.42504
# Shear Modulus (GPa) = 55.53391 20.39922 37.96657
#
# Velocity S-wave (km/s) = 4.82702 2.92554 3.99117
# Velocity P-wave (km/s) = 6.72255 5.35634 6.07795
#
# Compressibility (1/GPa) = 0.02970191
#
# Stress axis : x y z
#
# Youngs Moduli (GPa) = 57.95173 40.48386 60.89136
#
# Poissons Ratio (x) = 0.15752 0.48085
# Poissons Ratio (y) = 0.22549 0.15533
# Poissons Ratio (z) = 0.45764 0.10327
#
# Static dielectric constant tensor:
#      x y z
#    x 1.911590 0.000000 -0.049710 
#    y 0.000000 1.954090 0.000000 
#    z -0.049710 0.000000 1.933580 
# 
# From -- ./inp_files/196070.got.cif
#   From: 2010.05.17/outbox.cif.g08.bks.cpg/sg15_99_cif.got.tgz:196070.got - 2010.06.03 18:47:42.
