data_PCOD9285960
_publ_section_title
;
Structure prediction by ZEFSAII (Michael W. Deem and Ramdas Pophale) SiO2 
 PCOD9285960
Probable space group: C 2/C
;
_chemical_formula_sum "Si O2"
_cell_formula_units_Z 32
_cell_length_a 4.887678
_cell_length_b 24.137553
_cell_length_c 11.085036
_cell_angle_alpha 90.000000
_cell_angle_beta 116.570231
_cell_angle_gamma 90.000000
_cell_volume 1169.656383
_symmetry_space_group_name_H-M "C 2/C"
_symmetry_group_IT_number 15
_symmetry_cell_setting 'monoclinic'
loop_
_space_group_symop_operation_xyz
x,y,z
-x,y,1/2-z
-x,-y,-z
x,-y,1/2+z
1/2+x,1/2+y,z
1/2-x,1/2+y,1/2-z
1/2-x,1/2-y,-z
1/2+x,1/2-y,1/2+z
loop_
_atom_site_type_symbol
_atom_site_label
_atom_site_fract_x
_atom_site_fract_y
_atom_site_fract_z
Si Si1 0.276732 0.106834 0.565859
Si Si2 0.093539 0.220673 0.584737
Si Si3 0.795106 0.966648 0.106339
Si Si4 0.556283 0.829421 0.634628
O O1 0.236120 0.161445 0.635147
O O2 0.012677 0.062139 0.548555
O O3 0.269349 0.131717 0.426085
O O4 0.612727 0.081252 0.641221
O O5 0.250000 0.250000 0.500000
O O6 0.749259 0.196530 0.488843
O O7 0.185622 0.268870 0.695767
O O8 0.000000 0.995562 0.250000
O O9 0.500000 0.000000 0.000000
O O10 0.500000 0.859610 0.750000
#
# Coordination Sequence:
#
# PCOD9285960 Si02
#       4
#     8   8   8   8
#     4  11  23  48  76 116 158 204 274 329 409 500
#     4   9  20  40  64 106 163 203 273 315 383 470
#     4  12  28  55  84 116 154 203 270 353 433 501
#     4  10  21  42  69 111 165 214 264 324 395 480
#
# _framework density 27.358460000000001
#
# number of rings (size 3 to 8) (size 9 to 14) (size 15 to 20)
#    0.000    1.500    2.500    1.500    0.000    5.000 
#   18.000    0.000    0.000    0.000    0.000    0.000 
#    0.000    0.000    0.000    0.000    0.000    0.000 
#
# Total GULP energy -89148.273591 kJ/mol
# GULP energy per Si atom -5571.767099 kJ/mol
# Density = 2.729619 g / cm^3
# Si number density = 27.358460 Si / 1000 Ang^3
#
#
#
# Elastic Constant Matrix: (Units=GPa)
#
#
# Indices 1 2 3 4 5 6 
#
# 1 221.7674 41.5464 73.9703 0.0000 7.6467 0.0000
# 2 41.5464 99.8648 51.5125 0.0000 3.0214 0.0000
# 3 73.9703 51.5125 126.3979 0.0000 8.3131 0.0000
# 4 0.0000 0.0000 0.0000 3.2617 0.0000 -13.9698
# 5 7.6467 3.0214 8.3131 0.0000 52.5274 0.0000
# 6 0.0000 0.0000 0.0000 -13.9698 0.0000 25.1996
#
#
#
# Elastic Compliance Matrix: (Units=1/GPa)
#
#
# Indices 1 2 3 4 5 6 
#
# 1 0.005660 -0.000820 -0.002958 0.000000 -0.000309 0.000000
# 2 -0.000820 0.012798 -0.004745 0.000000 0.000134 0.000000
# 3 -0.002958 -0.004745 0.011651 0.000000 -0.001140 0.000000
# 4 0.000000 0.000000 0.000000 -0.223085 0.000000 -0.123670
# 5 -0.000309 0.000134 -0.001140 0.000000 0.019255 0.000000
# 6 0.000000 0.000000 0.000000 -0.123670 0.000000 -0.028875
#
#
# Mechanical properties :
#
#
# Convention : Reuss Voigt Hill
#
# Bulk Modulus (GPa) = 76.54415 86.89871 81.72143
# Shear Modulus (GPa) = -27.59459 34.93115 3.66828
#
# Velocity S-wave (km/s) = -3.17934 3.57710 1.15919
# Velocity P-wave (km/s) = 3.81594 6.99234 5.63268
#
# Compressibility (1/GPa) = 0.01306436
#
# Stress axis : x y z
#
# Youngs Moduli (GPa) = 176.67621 78.13740 85.82664
#
# Poissons Ratio (x) = 0.06404 0.25388
# Poissons Ratio (y) = 0.14480 0.40724
# Poissons Ratio (z) = 0.52262 0.37075
#
# Static dielectric constant tensor:
#      x y z
#    x 2.630470 0.000000 0.038430 
#    y 0.000000 2.329400 0.000000 
#    z 0.038430 0.000000 2.505870 
# 
# From -- ./inp_files/72111.got.cif
#   From: 2010.05.17/outbox.cif.g08.bks.cpg/sg15_37_cif.got.tgz:72111.got - 2010.06.03 18:47:42.
