data_PCOD9285203
_publ_section_title
;
Structure prediction by ZEFSAII (Michael W. Deem and Ramdas Pophale) SiO2 
 PCOD9285203
Probable space group: C 2/C
;
_chemical_formula_sum "Si O2"
_cell_formula_units_Z 40
_cell_length_a 25.281600
_cell_length_b 8.815521
_cell_length_c 16.406170
_cell_angle_alpha 90.000000
_cell_angle_beta 148.696181
_cell_angle_gamma 90.000000
_cell_volume 1899.804373
_symmetry_space_group_name_H-M "C 2/C"
_symmetry_group_IT_number 15
_symmetry_cell_setting 'monoclinic'
loop_
_space_group_symop_operation_xyz
x,y,z
-x,y,1/2-z
-x,-y,-z
x,-y,1/2+z
1/2+x,1/2+y,z
1/2-x,1/2+y,1/2-z
1/2-x,1/2-y,-z
1/2+x,1/2-y,1/2+z
loop_
_atom_site_type_symbol
_atom_site_label
_atom_site_fract_x
_atom_site_fract_y
_atom_site_fract_z
Si Si1 0.494700 0.743360 0.049272
Si Si2 0.239105 0.358356 0.063610
Si Si3 0.167814 0.380012 0.371363
Si Si4 0.636969 0.528172 0.155882
Si Si5 0.795578 0.587781 0.236059
O O1 0.558306 0.810385 0.207090
O O2 0.578970 0.684502 0.095308
O O3 0.432732 0.588969 0.985585
O O4 0.410861 0.857231 0.903207
O O5 0.339598 0.449797 0.225806
O O6 0.227678 0.233269 0.118933
O O7 0.250000 0.250000 0.000000
O O8 0.164831 0.492424 0.937909
O O9 0.250000 0.250000 0.500000
O O10 0.203452 0.465911 0.335152
O O11 0.743819 0.537921 0.251280
#
# Coordination Sequence:
#
# PCOD9285203 Si02
#       5
#     8   8   8   8   8
#     4  10  22  39  68  91 127 167 212 263 328 369
#     4   9  20  39  65  92 131 168 200 271 330 367
#     4  11  21  39  67  93 134 169 205 268 332 376
#     4  10  21  41  68  94 124 168 226 260 313 392
#     4  10  23  41  69  92 126 172 222 262 311 392
#
# _framework density 21.054798999999999
#
# number of rings (size 3 to 8) (size 9 to 14) (size 15 to 20)
#    0.000    2.000    2.000    0.600    5.600    0.000 
#    0.000    4.000   13.200    0.000    0.000    0.000 
#    0.000    0.000    0.000    0.000    0.000    0.000 
#
# Total GULP energy -111416.179815 kJ/mol
# GULP energy per Si atom -5570.808991 kJ/mol
# Density = 2.100688 g / cm^3
# Si number density = 21.054799 Si / 1000 Ang^3
#
#
#
# Elastic Constant Matrix: (Units=GPa)
#
#
# Indices 1 2 3 4 5 6 
#
# 1 39.8436 19.3105 34.9679 0.0000 5.3177 0.0000
# 2 19.3105 115.2643 77.8910 0.0000 -10.2243 0.0000
# 3 34.9679 77.8910 143.0770 0.0000 -16.4388 0.0000
# 4 0.0000 0.0000 0.0000 62.2328 0.0000 -15.4294
# 5 5.3177 -10.2243 -16.4388 0.0000 18.5639 0.0000
# 6 0.0000 0.0000 0.0000 -15.4294 0.0000 15.8753
#
#
#
# Elastic Compliance Matrix: (Units=1/GPa)
#
#
# Indices 1 2 3 4 5 6 
#
# 1 0.038376 -0.000521 -0.011568 0.000000 -0.021524 0.000000
# 2 -0.000521 0.013750 -0.007204 0.000000 0.001343 0.000000
# 3 -0.011568 -0.007204 0.015211 0.000000 0.012816 0.000000
# 4 0.000000 0.000000 0.000000 0.021170 0.000000 0.020575
# 5 -0.021524 0.001343 0.012816 0.000000 0.072122 0.000000
# 6 0.000000 0.000000 0.000000 0.020575 0.000000 0.082988
#
#
# Mechanical properties :
#
#
# Convention : Reuss Voigt Hill
#
# Bulk Modulus (GPa) = 34.78213 62.50262 48.64238
# Shear Modulus (GPa) = 17.13577 30.40211 23.76894
#
# Velocity S-wave (km/s) = 2.85593 3.80406 3.36357
# Velocity P-wave (km/s) = 5.23744 7.00319 6.18366
#
# Compressibility (1/GPa) = 0.02875039
#
# Stress axis : x y z
#
# Youngs Moduli (GPa) = 26.05785 72.72556 65.74237
#
# Poissons Ratio (x) = 0.03789 0.76054
# Poissons Ratio (y) = 0.01358 0.47361
# Poissons Ratio (z) = 0.30145 0.52392
#
# Static dielectric constant tensor:
#      x y z
#    x 1.779090 0.000000 -0.019360 
#    y 0.000000 1.836650 0.000000 
#    z -0.019360 0.000000 1.765530 
# 
# From -- ./inp_files/221782.got.cif
#   From: 2010.05.17/outbox.cif.g08.bks.cpg/sg15_111_cif.got.tgz:221782.got - 2010.06.03 18:47:42.
