data_PCOD9285869
_publ_section_title
;
Structure prediction by ZEFSAII (Michael W. Deem and Ramdas Pophale) SiO2 
 PCOD9285869
Probable space group: C 2/C
;
_chemical_formula_sum "Si O2"
_cell_formula_units_Z 56
_cell_length_a 7.098398
_cell_length_b 16.716453
_cell_length_c 19.172989
_cell_angle_alpha 90.000000
_cell_angle_beta 81.952995
_cell_angle_gamma 90.000000
_cell_volume 2252.666257
_symmetry_space_group_name_H-M "C 2/C"
_symmetry_group_IT_number 15
_symmetry_cell_setting 'monoclinic'
loop_
_space_group_symop_operation_xyz
x,y,z
-x,y,1/2-z
-x,-y,-z
x,-y,1/2+z
1/2+x,1/2+y,z
1/2-x,1/2+y,1/2-z
1/2-x,1/2-y,-z
1/2+x,1/2-y,1/2+z
loop_
_atom_site_type_symbol
_atom_site_label
_atom_site_fract_x
_atom_site_fract_y
_atom_site_fract_z
Si Si1 0.509620 0.347141 0.833083
Si Si2 0.239132 0.223035 0.921068
Si Si3 0.142147 0.976521 0.182264
Si Si4 0.876292 0.689156 0.412266
Si Si5 0.020971 0.443896 0.677550
Si Si6 0.750612 0.952134 0.064185
Si Si7 0.309081 0.410108 0.462998
O O1 0.500000 0.339689 0.750000
O O2 0.365555 0.283322 0.870939
O O3 0.444058 0.440386 0.846300
O O4 0.708934 0.324909 0.862617
O O5 0.332195 0.135069 0.916662
O O6 0.250000 0.250000 0.000000
O O7 0.018110 0.235541 0.908169
O O8 0.343981 0.999411 0.203481
O O9 0.000000 0.949010 0.250000
O O10 0.196281 0.915048 0.119319
O O11 0.017615 0.616913 0.383210
O O12 0.781411 0.663432 0.490444
O O13 0.191743 0.496743 0.635931
O O14 0.000000 0.392965 0.750000
O O15 0.966841 0.924623 0.035744
O O16 0.708562 0.011412 0.002399
#
# Coordination Sequence:
#
# PCOD9285869 Si02
#       7
#     8   8   8   8   8   8   8
#     4  11  24  45  70 101 140 182 239 300 354 429
#     4  12  26  43  68 104 144 191 238 290 360 442
#     4  11  21  38  68 101 135 179 237 301 355 416
#     4  11  25  43  73 103 137 190 237 299 357 429
#     4  11  22  40  70 100 134 182 245 296 361 422
#     4  10  23  40  65  97 139 176 232 295 355 418
#     4  10  21  42  67  99 137 180 240 294 351 424
#
# _framework density 24.85943
#
# number of rings (size 3 to 8) (size 9 to 14) (size 15 to 20)
#    0.000    1.143    1.429    6.857    2.000    4.000 
#    0.000    0.000    3.143    0.000    0.000    0.000 
#    0.000    0.000    0.000    0.000    0.000    0.000 
#
# Total GULP energy -156106.803479 kJ/mol
# GULP energy per Si atom -5575.242981 kJ/mol
# Density = 2.480285 g / cm^3
# Si number density = 24.859430 Si / 1000 Ang^3
#
#
#
# Elastic Constant Matrix: (Units=GPa)
#
#
# Indices 1 2 3 4 5 6 
#
# 1 110.2008 13.2255 23.2866 0.0000 -15.4617 0.0000
# 2 13.2255 123.4603 48.0053 0.0000 -12.0724 0.0000
# 3 23.2866 48.0053 170.4337 0.0000 -31.0653 0.0000
# 4 0.0000 0.0000 0.0000 -68.5363 0.0000 -61.6741
# 5 -15.4617 -12.0724 -31.0653 0.0000 34.2608 0.0000
# 6 0.0000 0.0000 0.0000 -61.6741 0.0000 -12.5353
#
#
#
# Elastic Compliance Matrix: (Units=1/GPa)
#
#
# Indices 1 2 3 4 5 6 
#
# 1 0.009770 -0.000478 -0.000512 0.000000 0.003776 0.000000
# 2 -0.000478 0.009151 -0.002353 0.000000 0.000876 0.000000
# 3 -0.000512 -0.002353 0.007675 0.000000 0.005899 0.000000
# 4 0.000000 0.000000 0.000000 0.004257 0.000000 -0.020945
# 5 0.003776 0.000876 0.005899 0.000000 0.036550 0.000000
# 6 0.000000 0.000000 0.000000 -0.020945 0.000000 0.023275
#
#
# Mechanical properties :
#
#
# Convention : Reuss Voigt Hill
#
# Bulk Modulus (GPa) = 50.22386 63.68106 56.95246
# Shear Modulus (GPa) = 48.07630 11.94301 30.00965
#
# Velocity S-wave (km/s) = 4.40241 2.19423 3.47821
# Velocity P-wave (km/s) = 6.78886 5.66494 6.25221
#
# Compressibility (1/GPa) = 0.01991085
#
# Stress axis : x y z
#
# Youngs Moduli (GPa) = 102.35686 109.27261 130.28825
#
# Poissons Ratio (x) = 0.05226 0.06668
# Poissons Ratio (y) = 0.04896 0.30653
# Poissons Ratio (z) = 0.05239 0.25709
#
# Static dielectric constant tensor:
#      x y z
#    x 2.328950 0.000000 0.186010 
#    y 0.000000 2.096070 0.000000 
#    z 0.186010 0.000000 2.087190 
# 
# From -- ./inp_files/232601.got.cif
#   From: 2010.05.17/outbox.cif.g08.bks.cpg/sg15_117_cif.got.tgz:232601.got - 2010.06.03 18:47:42.
