data_PCOD9285375
_publ_section_title
;
Structure prediction by ZEFSAII (Michael W. Deem and Ramdas Pophale) SiO2 
 PCOD9285375
Probable space group: C 2/C
;
_chemical_formula_sum "Si O2"
_cell_formula_units_Z 48
_cell_length_a 31.044425
_cell_length_b 15.711426
_cell_length_c 13.740609
_cell_angle_alpha 90.000000
_cell_angle_beta 23.040874
_cell_angle_gamma 90.000000
_cell_volume 2623.085121
_symmetry_space_group_name_H-M "C 2/C"
_symmetry_group_IT_number 15
_symmetry_cell_setting 'monoclinic'
loop_
_space_group_symop_operation_xyz
x,y,z
-x,y,1/2-z
-x,-y,-z
x,-y,1/2+z
1/2+x,1/2+y,z
1/2-x,1/2+y,1/2-z
1/2-x,1/2-y,-z
1/2+x,1/2-y,1/2+z
loop_
_atom_site_type_symbol
_atom_site_label
_atom_site_fract_x
_atom_site_fract_y
_atom_site_fract_z
Si Si1 0.327041 0.320379 0.071508
Si Si2 0.000000 0.330104 0.250000
Si Si3 0.276016 0.844738 0.414345
Si Si4 0.262046 0.159667 0.527913
Si Si5 0.613658 0.494671 0.822224
Si Si6 0.994214 0.403572 0.476619
Si Si7 0.000000 0.040635 0.250000
O O1 0.239096 0.336862 0.170144
O O2 0.269051 0.330112 0.295258
O O3 0.397874 0.232814 0.933414
O O4 0.417472 0.394606 0.867445
O O5 0.982586 0.385513 0.384430
O O6 0.250000 0.750000 0.500000
O O7 0.190155 0.915282 0.633434
O O8 0.394791 0.864037 0.211302
O O9 0.250000 0.250000 0.500000
O O10 0.386681 0.134194 0.250225
O O11 0.182621 0.081762 0.659791
O O12 0.573713 0.491112 0.018217
O O13 0.500000 0.500000 0.000000
O O14 0.000000 0.500000 0.500000
#
# Coordination Sequence:
#
# PCOD9285375 Si02
#       7
#     8   4   8   8   8   8   4
#     4  10  21  41  71  98 127 183 228 277 337 414
#     4  11  22  44  72  93 138 188 226 273 364 413
#     4  12  25  43  67 100 141 174 225 287 346 396
#     4  11  24  44  70  99 134 180 233 275 339 417
#     4  11  23  44  68  99 132 175 227 284 330 408
#     4  12  26  46  67 103 142 182 224 291 349 413
#     4   9  20  40  70  91 128 176 228 267 334 399
#
# _framework density 18.299063
#
# number of rings (size 3 to 8) (size 9 to 14) (size 15 to 20)
#    0.000    1.000    6.667    0.000    2.333    2.000 
#    6.000    0.000    0.000    0.000    0.000    0.000 
#    0.000    0.000    0.000    0.000    0.000    0.000 
#
# Total GULP energy -133798.372993 kJ/mol
# GULP energy per Si atom -5574.932208 kJ/mol
# Density = 1.825741 g / cm^3
# Si number density = 18.299063 Si / 1000 Ang^3
#
#
#
# Elastic Constant Matrix: (Units=GPa)
#
#
# Indices 1 2 3 4 5 6 
#
# 1 101.1857 55.5810 46.7939 0.0000 -1.3510 0.0000
# 2 55.5810 154.5669 74.5648 0.0000 6.8160 0.0000
# 3 46.7939 74.5648 144.0865 0.0000 -5.5483 0.0000
# 4 0.0000 0.0000 0.0000 32.1946 0.0000 3.7837
# 5 -1.3510 6.8160 -5.5483 0.0000 36.8833 0.0000
# 6 0.0000 0.0000 0.0000 3.7837 0.0000 25.6255
#
#
#
# Elastic Compliance Matrix: (Units=1/GPa)
#
#
# Indices 1 2 3 4 5 6 
#
# 1 0.012924 -0.003560 -0.002325 0.000000 0.000782 0.000000
# 2 -0.003560 0.009798 -0.004012 0.000000 -0.002545 0.000000
# 3 -0.002325 -0.004012 0.009854 0.000000 0.002139 0.000000
# 4 0.000000 0.000000 0.000000 0.031610 0.000000 -0.004667
# 5 0.000782 -0.002545 0.002139 0.000000 0.027933 0.000000
# 6 0.000000 0.000000 0.000000 -0.004667 0.000000 0.039713
#
#
# Mechanical properties :
#
#
# Convention : Reuss Voigt Hill
#
# Bulk Modulus (GPa) = 78.23869 83.74650 80.99259
# Shear Modulus (GPa) = 32.07485 33.80063 32.93774
#
# Velocity S-wave (km/s) = 4.19120 4.30248 4.24721
# Velocity P-wave (km/s) = 8.14064 8.39920 8.27093
#
# Compressibility (1/GPa) = 0.01278140
#
# Stress axis : x y z
#
# Youngs Moduli (GPa) = 77.37529 102.06568 101.48402
#
# Poissons Ratio (x) = 0.36340 0.23591
# Poissons Ratio (y) = 0.27549 0.40715
# Poissons Ratio (z) = 0.17987 0.40948
#
# Static dielectric constant tensor:
#      x y z
#    x 1.592200 0.000000 0.034740 
#    y 0.000000 1.619310 0.000000 
#    z 0.034740 0.000000 1.575850 
# 
# From -- ./inp_files/182461.got.cif
#   From: 2010.05.17/outbox.cif.g08.bks.cpg/sg15_92_cif.got.tgz:182461.got - 2010.06.03 18:47:42.
