data_PCOD9285653
_publ_section_title
;
Structure prediction by ZEFSAII (Michael W. Deem and Ramdas Pophale) SiO2 
 PCOD9285653
Probable space group: C 2/C
;
_chemical_formula_sum "Si O2"
_cell_formula_units_Z 64
_cell_length_a 14.817100
_cell_length_b 17.040827
_cell_length_c 14.996122
_cell_angle_alpha 90.000000
_cell_angle_beta 55.161642
_cell_angle_gamma 90.000000
_cell_volume 3107.797431
_symmetry_space_group_name_H-M "C 2/C"
_symmetry_group_IT_number 15
_symmetry_cell_setting 'monoclinic'
loop_
_space_group_symop_operation_xyz
x,y,z
-x,y,1/2-z
-x,-y,-z
x,-y,1/2+z
1/2+x,1/2+y,z
1/2-x,1/2+y,1/2-z
1/2-x,1/2-y,-z
1/2+x,1/2-y,1/2+z
loop_
_atom_site_type_symbol
_atom_site_label
_atom_site_fract_x
_atom_site_fract_y
_atom_site_fract_z
Si Si1 0.400995 0.374176 0.247900
Si Si2 0.811674 0.863110 0.012362
Si Si3 0.114920 0.427946 0.704105
Si Si4 0.827055 0.005555 0.641467
Si Si5 0.039098 0.289684 0.874386
Si Si6 0.753869 0.208896 0.365545
Si Si7 0.543906 0.372284 0.826888
Si Si8 0.202667 0.668586 0.989294
O O1 0.500000 0.410704 0.250000
O O2 0.358288 0.426444 0.191844
O O3 0.452383 0.295241 0.176509
O O4 0.294958 0.359224 0.368870
O O5 0.825662 0.949300 0.046580
O O6 0.741596 0.799887 0.107263
O O7 0.762851 0.853037 0.941520
O O8 0.937216 0.833577 0.931157
O O9 0.203725 0.472161 0.714402
O O10 0.072015 0.352288 0.780882
O O11 0.178602 0.395228 0.580781
O O12 0.000000 0.473212 0.750000
O O13 0.909760 0.937221 0.629116
O O14 0.135665 0.298327 0.889611
O O15 0.918449 0.309706 0.978361
O O16 0.855019 0.186296 0.245613
O O17 0.500000 0.396809 0.750000
O O18 0.250000 0.750000 0.000000
#
# Coordination Sequence:
#
# PCOD9285653 Si02
#       8
#     8   8   8   8   8   8   8   8
#     4  12  24  41  65 102 132 159 222 274 323 388
#     4  10  23  41  63  99 126 174 222 261 317 390
#     4  10  23  44  64  90 131 173 211 262 326 393
#     4  12  24  41  64  93 138 174 210 264 334 391
#     4  11  20  42  69  91 128 163 215 273 324 375
#     4  10  21  42  65  91 131 166 219 268 311 383
#     4  10  22  41  66  95 132 168 212 274 333 375
#     4  11  22  40  69  96 121 166 213 275 323 375
#
# _framework density 20.593361999999999
#
# number of rings (size 3 to 8) (size 9 to 14) (size 15 to 20)
#    0.000    1.250    5.000    1.125    0.000    6.000 
#    2.250    3.125    0.000    0.000    0.000    0.000 
#    0.000    0.000    0.000    0.000    0.000    0.000 
#
# Total GULP energy -178372.476881 kJ/mol
# GULP energy per Si atom -5574.139903 kJ/mol
# Density = 2.054649 g / cm^3
# Si number density = 20.593362 Si / 1000 Ang^3
#
#
#
# Elastic Constant Matrix: (Units=GPa)
#
#
# Indices 1 2 3 4 5 6 
#
# 1 118.5938 9.2573 -1.0461 0.0000 -14.6047 0.0000
# 2 9.2573 40.3805 13.3550 0.0000 -6.7283 0.0000
# 3 -1.0461 13.3550 59.0024 0.0000 -20.2412 0.0000
# 4 0.0000 0.0000 0.0000 7.3803 0.0000 10.8362
# 5 -14.6047 -6.7283 -20.2412 0.0000 27.0073 0.0000
# 6 0.0000 0.0000 0.0000 10.8362 0.0000 24.9853
#
#
#
# Elastic Compliance Matrix: (Units=1/GPa)
#
#
# Indices 1 2 3 4 5 6 
#
# 1 0.009457 -0.002011 0.002969 0.000000 0.006838 0.000000
# 2 -0.002011 0.027361 -0.005739 0.000000 0.001428 0.000000
# 3 0.002969 -0.005739 0.024715 0.000000 0.018699 0.000000
# 4 0.000000 0.000000 0.000000 0.373040 0.000000 -0.161788
# 5 0.006838 0.001428 0.018699 0.000000 0.055095 0.000000
# 6 0.000000 0.000000 0.000000 -0.161788 0.000000 0.110191
#
#
# Mechanical properties :
#
#
# Convention : Reuss Voigt Hill
#
# Bulk Modulus (GPa) = 19.24110 29.01214 24.12662
# Shear Modulus (GPa) = 7.97773 24.96864 16.47318
#
# Velocity S-wave (km/s) = 1.97037 3.48582 2.83137
# Velocity P-wave (km/s) = 3.81315 5.50635 4.73603
#
# Compressibility (1/GPa) = 0.05197208
#
# Stress axis : x y z
#
# Youngs Moduli (GPa) = 105.73723 36.54797 40.46162
#
# Poissons Ratio (x) = 0.07348 -0.12012
# Poissons Ratio (y) = 0.21259 0.23220
# Poissons Ratio (z) = -0.31390 0.20974
#
# Static dielectric constant tensor:
#      x y z
#    x 1.806130 0.000000 0.020190 
#    y 0.000000 1.754580 0.000000 
#    z 0.020190 0.000000 1.793250 
# 
# From -- ./inp_files/155503.got.cif
#   From: 2010.05.17/outbox.cif.g08.bks.cpg/sg15_78_cif.got.tgz:155503.got - 2010.06.03 18:47:42.
