data_PCOD9285641
_publ_section_title
;
Structure prediction by ZEFSAII (Michael W. Deem and Ramdas Pophale) SiO2 
 PCOD9285641
Probable space group: C 2/C
;
_chemical_formula_sum "Si O2"
_cell_formula_units_Z 48
_cell_length_a 27.134012
_cell_length_b 8.571002
_cell_length_c 9.699810
_cell_angle_alpha 90.000000
_cell_angle_beta 89.086802
_cell_angle_gamma 90.000000
_cell_volume 2255.556303
_symmetry_space_group_name_H-M "C 2/C"
_symmetry_group_IT_number 15
_symmetry_cell_setting 'monoclinic'
loop_
_space_group_symop_operation_xyz
x,y,z
-x,y,1/2-z
-x,-y,-z
x,-y,1/2+z
1/2+x,1/2+y,z
1/2-x,1/2+y,1/2-z
1/2-x,1/2-y,-z
1/2+x,1/2-y,1/2+z
loop_
_atom_site_type_symbol
_atom_site_label
_atom_site_fract_x
_atom_site_fract_y
_atom_site_fract_z
Si Si1 0.760426 0.824161 0.352042
Si Si2 0.868238 0.193884 0.801335
Si Si3 0.112350 0.928820 0.492255
Si Si4 0.043042 0.607262 0.135295
Si Si5 0.481046 0.754730 0.404492
Si Si6 0.211018 0.184489 0.110557
O O1 0.750000 0.750000 0.500000
O O2 0.811899 0.753793 0.293534
O O3 0.717191 0.782789 0.249116
O O4 0.772178 0.007073 0.359937
O O5 0.881350 0.082085 0.672108
O O6 0.906459 0.333966 0.802887
O O7 0.875991 0.095376 0.940828
O O8 0.058552 0.868671 0.538734
O O9 0.155912 0.820510 0.553487
O O10 0.044738 0.425570 0.096565
O O11 0.000000 0.623749 0.250000
O O12 0.026203 0.713524 0.006911
O O13 0.500000 0.717170 0.250000
O O14 0.250000 0.250000 0.000000
#
# Coordination Sequence:
#
# PCOD9285641 Si02
#       6
#     8   8   8   8   8   8
#     4  11  25  42  68  97 129 171 216 268 323 382
#     4  11  25  43  65  93 129 168 211 263 317 380
#     4  11  25  43  64  93 130 167 212 263 317 383
#     4  10  21  42  65  89 129 165 211 266 316 375
#     4  10  23  40  64  94 125 167 212 265 319 374
#     4  11  23  44  67  94 132 170 215 268 321 383
#
# _framework density 21.280781999999999
#
# number of rings (size 3 to 8) (size 9 to 14) (size 15 to 20)
#    0.000    1.333    3.333    1.000    9.333    4.000 
#    0.000    0.000    0.000    0.000    0.000    0.000 
#    0.000    0.000    0.000    0.000    0.000    0.000 
#
# Total GULP energy -134193.314234 kJ/mol
# GULP energy per Si atom -5591.388093 kJ/mol
# Density = 2.123235 g / cm^3
# Si number density = 21.280782 Si / 1000 Ang^3
#
#
#
# Elastic Constant Matrix: (Units=GPa)
#
#
# Indices 1 2 3 4 5 6 
#
# 1 59.2712 10.3069 -19.5283 0.0000 -3.0361 0.0000
# 2 10.3069 24.2610 -7.7584 0.0000 7.1302 0.0000
# 3 -19.5283 -7.7584 78.0477 0.0000 -2.3841 0.0000
# 4 0.0000 0.0000 0.0000 26.0861 0.0000 13.6770
# 5 -3.0361 7.1302 -2.3841 0.0000 30.1294 0.0000
# 6 0.0000 0.0000 0.0000 13.6770 0.0000 27.0904
#
#
#
# Elastic Compliance Matrix: (Units=1/GPa)
#
#
# Indices 1 2 3 4 5 6 
#
# 1 0.019967 -0.008383 0.004295 0.000000 0.004336 0.000000
# 2 -0.008383 0.049163 0.002414 0.000000 -0.012288 0.000000
# 3 0.004295 0.002414 0.014157 0.000000 0.000982 0.000000
# 4 0.000000 0.000000 0.000000 0.052135 0.000000 -0.026321
# 5 0.004336 -0.012288 0.000982 0.000000 0.036613 0.000000
# 6 0.000000 0.000000 0.000000 -0.026321 0.000000 0.050202
#
#
# Mechanical properties :
#
#
# Convention : Reuss Voigt Hill
#
# Bulk Modulus (GPa) = 12.50952 14.18001 13.34477
# Shear Modulus (GPa) = 19.82307 28.56517 24.19412
#
# Velocity S-wave (km/s) = 3.05536 3.66771 3.37545
# Velocity P-wave (km/s) = 4.28230 4.96124 4.63422
#
# Compressibility (1/GPa) = 0.07993909
#
# Stress axis : x y z
#
# Youngs Moduli (GPa) = 50.08371 20.34032 70.63499
#
# Poissons Ratio (x) = 0.17052 -0.30337
# Poissons Ratio (y) = 0.41986 -0.17053
# Poissons Ratio (z) = -0.21511 -0.04911
#
# Static dielectric constant tensor:
#      x y z
#    x 1.742940 0.000000 0.010110 
#    y 0.000000 1.732500 0.000000 
#    z 0.010110 0.000000 1.764130 
# 
# From -- ./inp_files/68559.got.cif
#   From: 2010.05.17/outbox.cif.g08.bks.cpg/sg15_35_cif.got.tgz:68559.got - 2010.06.03 18:47:42.
