data_PCOD9285379
_publ_section_title
;
Structure prediction by ZEFSAII (Michael W. Deem and Ramdas Pophale) SiO2 
 PCOD9285379
Probable space group: C 2/C
;
_chemical_formula_sum "Si O2"
_cell_formula_units_Z 24
_cell_length_a 5.267174
_cell_length_b 24.524662
_cell_length_c 8.445226
_cell_angle_alpha 90.000000
_cell_angle_beta 119.682645
_cell_angle_gamma 90.000000
_cell_volume 947.769135
_symmetry_space_group_name_H-M "C 2/C"
_symmetry_group_IT_number 15
_symmetry_cell_setting 'monoclinic'
loop_
_space_group_symop_operation_xyz
x,y,z
-x,y,1/2-z
-x,-y,-z
x,-y,1/2+z
1/2+x,1/2+y,z
1/2-x,1/2+y,1/2-z
1/2-x,1/2-y,-z
1/2+x,1/2-y,1/2+z
loop_
_atom_site_type_symbol
_atom_site_label
_atom_site_fract_x
_atom_site_fract_y
_atom_site_fract_z
Si Si1 0.358449 0.192605 0.464567
Si Si2 0.213839 0.035210 0.958670
Si Si3 0.654752 0.347684 0.553390
O O1 0.250000 0.250000 0.500000
O O2 0.704758 0.187100 0.546224
O O3 0.251267 0.178400 0.252414
O O4 0.195002 0.150958 0.532341
O O5 0.000000 0.050612 0.750000
O O6 0.277651 0.092157 0.063396
O O7 0.500000 0.000000 0.000000
O O8 0.000000 0.000000 0.000000
#
# Coordination Sequence:
#
# PCOD9285379 Si02
#       3
#     8   8   8
#     4  10  21  41  72 100 140 197 246 307 373 448
#     4  12  28  48  78 111 152 203 259 317 389 457
#     4  10  23  43  68 105 146 188 249 311 375 447
#
# _framework density 25.322624000000001
#
# number of rings (size 3 to 8) (size 9 to 14) (size 15 to 20)
#    0.000    1.333    0.000    4.000   14.000    0.000 
#   18.000    0.000    0.000    0.000    0.000    0.000 
#    0.000    0.000    0.000    0.000    0.000    0.000 
#
# Total GULP energy -67010.046125 kJ/mol
# GULP energy per Si atom -5584.170510 kJ/mol
# Density = 2.526499 g / cm^3
# Si number density = 25.322624 Si / 1000 Ang^3
#
#
#
# Elastic Constant Matrix: (Units=GPa)
#
#
# Indices 1 2 3 4 5 6 
#
# 1 288.0642 76.6863 37.5500 0.0000 -44.2304 0.0000
# 2 76.6863 185.9648 44.4486 0.0000 -28.8040 0.0000
# 3 37.5500 44.4486 129.0640 0.0000 5.4947 0.0000
# 4 0.0000 0.0000 0.0000 36.2786 0.0000 -12.6112
# 5 -44.2304 -28.8040 5.4947 0.0000 41.0233 0.0000
# 6 0.0000 0.0000 0.0000 -12.6112 0.0000 55.2404
#
#
#
# Elastic Compliance Matrix: (Units=1/GPa)
#
#
# Indices 1 2 3 4 5 6 
#
# 1 0.004549 -0.000902 -0.001201 0.000000 0.004432 0.000000
# 2 -0.000902 0.006956 -0.002313 0.000000 0.004221 0.000000
# 3 -0.001201 -0.002313 0.009070 0.000000 -0.004134 0.000000
# 4 0.000000 0.000000 0.000000 0.029941 0.000000 0.006835
# 5 0.004432 0.004221 -0.004134 0.000000 0.032672 0.000000
# 6 0.000000 0.000000 0.000000 0.006835 0.000000 0.019663
#
#
# Mechanical properties :
#
#
# Convention : Reuss Voigt Hill
#
# Bulk Modulus (GPa) = 85.16355 102.27364 93.71860
# Shear Modulus (GPa) = 43.25353 56.13566 49.69459
#
# Velocity S-wave (km/s) = 4.13740 4.71342 4.43477
# Velocity P-wave (km/s) = 7.51854 8.37244 7.95695
#
# Compressibility (1/GPa) = 0.01174211
#
# Stress axis : x y z
#
# Youngs Moduli (GPa) = 219.84369 143.76072 110.25185
#
# Poissons Ratio (x) = 0.12970 0.13245
# Poissons Ratio (y) = 0.19833 0.25499
# Poissons Ratio (z) = 0.26411 0.33249
#
# Static dielectric constant tensor:
#      x y z
#    x 2.293930 0.000000 0.666040 
#    y 0.000000 2.041510 0.000000 
#    z 0.666040 0.000000 8.252490 
# 
# From -- ./inp_files/19636.got.cif
#   From: 2010.05.17/outbox.cif.g08.bks.cpg/sg15_10_cif.got.tgz:19636.got - 2010.06.03 18:47:42.
