data_PCOD9285050
_publ_section_title
;
Structure prediction by ZEFSAII (Michael W. Deem and Ramdas Pophale) SiO2 
 PCOD9285050
Probable space group: C 2/C
;
_chemical_formula_sum "Si O2"
_cell_formula_units_Z 44
_cell_length_a 15.093611
_cell_length_b 25.136673
_cell_length_c 5.382264
_cell_angle_alpha 90.000000
_cell_angle_beta 115.056800
_cell_angle_gamma 90.000000
_cell_volume 1849.867548
_symmetry_space_group_name_H-M "C 2/C"
_symmetry_group_IT_number 15
_symmetry_cell_setting 'monoclinic'
loop_
_space_group_symop_operation_xyz
x,y,z
-x,y,1/2-z
-x,-y,-z
x,-y,1/2+z
1/2+x,1/2+y,z
1/2-x,1/2+y,1/2-z
1/2-x,1/2-y,-z
1/2+x,1/2-y,1/2+z
loop_
_atom_site_type_symbol
_atom_site_label
_atom_site_fract_x
_atom_site_fract_y
_atom_site_fract_z
Si Si1 0.673304 0.681314 0.392742
Si Si2 0.722614 0.530470 0.895608
Si Si3 0.326005 0.872098 0.738909
Si Si4 0.645104 0.783645 0.099444
Si Si5 0.500000 0.616149 0.250000
Si Si6 0.000000 0.943618 0.250000
Si Si7 0.000000 0.357139 0.250000
O O1 0.741388 0.638915 0.336172
O O2 0.626533 0.721930 0.135536
O O3 0.744485 0.710042 0.669322
O O4 0.589070 0.652386 0.439765
O O5 0.751209 0.496462 0.171555
O O6 0.777948 0.587106 0.988592
O O7 0.603356 0.532396 0.774481
O O8 0.353238 0.813753 0.659871
O O9 0.426247 0.890146 0.988405
O O10 0.570421 0.818933 0.172308
O O11 0.467283 0.585485 0.457069
#
# Coordination Sequence:
#
# PCOD9285050 Si02
#       7
#     8   8   8   8   4   4   4
#     4  10  22  38  65 100 143 180 233 270 342 414
#     4  12  27  46  73 103 135 181 233 294 358 423
#     4  11  23  44  68  97 138 184 230 294 347 409
#     4  10  21  41  66  97 136 185 229 284 340 413
#     4  12  23  41  68 108 146 188 218 281 339 424
#     4  12  24  45  72 101 144 183 228 283 356 428
#     4  10  23  40  68  95 134 181 232 284 345 414
#
# _framework density 23.785485000000001
#
# number of rings (size 3 to 8) (size 9 to 14) (size 15 to 20)
#    0.000    1.091    1.818    4.364    5.091    0.000 
#    3.273    0.909    0.000    0.000    0.000    0.000 
#    0.000    0.000    0.000    0.000    0.000    0.000 
#
# Total GULP energy -122908.792072 kJ/mol
# GULP energy per Si atom -5586.763276 kJ/mol
# Density = 2.373135 g / cm^3
# Si number density = 23.785485 Si / 1000 Ang^3
#
#
#
# Elastic Constant Matrix: (Units=GPa)
#
#
# Indices 1 2 3 4 5 6 
#
# 1 71.8791 2.1581 10.8219 0.0000 10.4856 0.0000
# 2 2.1581 52.3253 18.1546 0.0000 12.9843 0.0000
# 3 10.8219 18.1546 86.1168 0.0000 11.0275 0.0000
# 4 0.0000 0.0000 0.0000 25.0907 0.0000 6.0623
# 5 10.4856 12.9843 11.0275 0.0000 30.9100 0.0000
# 6 0.0000 0.0000 0.0000 6.0623 0.0000 11.3327
#
#
#
# Elastic Compliance Matrix: (Units=1/GPa)
#
#
# Indices 1 2 3 4 5 6 
#
# 1 0.014826 0.001133 -0.001464 0.000000 -0.004983 0.000000
# 2 0.001133 0.022485 -0.003797 0.000000 -0.008475 0.000000
# 3 -0.001464 -0.003797 0.012919 0.000000 -0.002517 0.000000
# 4 0.000000 0.000000 0.000000 0.045771 0.000000 -0.024485
# 5 -0.004983 -0.008475 -0.002517 0.000000 0.038500 0.000000
# 6 0.000000 0.000000 0.000000 -0.024485 0.000000 0.101338
#
#
# Mechanical properties :
#
#
# Convention : Reuss Voigt Hill
#
# Bulk Modulus (GPa) = 23.82480 30.28782 27.05631
# Shear Modulus (GPa) = 19.37334 25.41245 22.39290
#
# Velocity S-wave (km/s) = 2.85705 3.27219 3.07164
# Velocity P-wave (km/s) = 4.57404 5.19978 4.89691
#
# Compressibility (1/GPa) = 0.04197307
#
# Stress axis : x y z
#
# Youngs Moduli (GPa) = 67.45123 44.47413 77.40563
#
# Poissons Ratio (x) = -0.05038 0.11331
# Poissons Ratio (y) = -0.07642 0.29393
# Poissons Ratio (z) = 0.09874 0.16888
#
# Static dielectric constant tensor:
#      x y z
#    x 1.870570 0.000000 -0.031660 
#    y 0.000000 1.977970 0.000000 
#    z -0.031660 0.000000 2.361410 
# 
# From -- ./inp_files/7591.got.cif
#   From: 2010.05.17/outbox.cif.g08.bks.cpg/sg15_4_cif.got.tgz:7591.got - 2010.06.03 18:47:42.
