data_PCOD9285022
_publ_section_title
;
Structure prediction by ZEFSAII (Michael W. Deem and Ramdas Pophale) SiO2 
 PCOD9285022
Probable space group: C 2/C
;
_chemical_formula_sum "Si O2"
_cell_formula_units_Z 32
_cell_length_a 13.827755
_cell_length_b 11.086953
_cell_length_c 13.659741
_cell_angle_alpha 90.000000
_cell_angle_beta 143.157885
_cell_angle_gamma 90.000000
_cell_volume 1255.673332
_symmetry_space_group_name_H-M "C 2/C"
_symmetry_group_IT_number 15
_symmetry_cell_setting 'monoclinic'
loop_
_space_group_symop_operation_xyz
x,y,z
-x,y,1/2-z
-x,-y,-z
x,-y,1/2+z
1/2+x,1/2+y,z
1/2-x,1/2+y,1/2-z
1/2-x,1/2-y,-z
1/2+x,1/2-y,1/2+z
loop_
_atom_site_type_symbol
_atom_site_label
_atom_site_fract_x
_atom_site_fract_y
_atom_site_fract_z
Si Si1 0.592652 0.094977 0.510982
Si Si2 0.201373 0.734646 0.186361
Si Si3 0.980795 0.890128 0.616382
Si Si4 0.333494 0.382497 0.058879
O O1 0.714639 0.163718 0.680960
O O2 0.447622 0.186493 0.369855
O O3 0.692377 0.044602 0.501381
O O4 0.500000 0.000000 0.500000
O O5 0.338484 0.635212 0.276549
O O6 0.128566 0.791041 0.028003
O O7 0.000000 0.874772 0.750000
O O8 0.897087 0.021372 0.529059
O O9 0.500000 0.368205 0.250000
O O10 0.250000 0.250000 0.000000
#
# Coordination Sequence:
#
# PCOD9285022 Si02
#       4
#     8   8   8   8
#     4  11  23  42  63  92 126 164 209 260 314 376
#     4  10  23  41  67  93 124 165 212 263 318 374
#     4  10  21  41  66  95 124 161 212 265 314 376
#     4  11  24  42  62  90 127 166 207 256 313 378
#
# _framework density 25.484335999999999
#
# number of rings (size 3 to 8) (size 9 to 14) (size 15 to 20)
#    0.000    1.500    0.000    5.250    0.000    6.000 
#    0.000   12.500    0.000    0.000    0.000    0.000 
#    0.000    0.000    0.000    0.000    0.000    0.000 
#
# Total GULP energy -89330.583307 kJ/mol
# GULP energy per Si atom -5583.161457 kJ/mol
# Density = 2.542633 g / cm^3
# Si number density = 25.484336 Si / 1000 Ang^3
#
#
#
# Elastic Constant Matrix: (Units=GPa)
#
#
# Indices 1 2 3 4 5 6 
#
# 1 95.7848 36.2269 70.5150 0.0000 12.7174 0.0000
# 2 36.2269 115.3941 50.9953 0.0000 20.7486 0.0000
# 3 70.5150 50.9953 145.5070 0.0000 44.2082 0.0000
# 4 0.0000 0.0000 0.0000 58.2328 0.0000 9.7202
# 5 12.7174 20.7486 44.2082 0.0000 38.3436 0.0000
# 6 0.0000 0.0000 0.0000 9.7202 0.0000 40.3540
#
#
#
# Elastic Compliance Matrix: (Units=1/GPa)
#
#
# Indices 1 2 3 4 5 6 
#
# 1 0.017630 -0.002441 -0.009717 0.000000 0.006677 0.000000
# 2 -0.002441 0.010710 -0.001625 0.000000 -0.003112 0.000000
# 3 -0.009717 -0.001625 0.016784 0.000000 -0.015249 0.000000
# 4 0.000000 0.000000 0.000000 0.017892 0.000000 -0.004310
# 5 0.006677 -0.003112 -0.015249 0.000000 0.043131 0.000000
# 6 0.000000 0.000000 0.000000 -0.004310 0.000000 0.025819
#
#
# Mechanical properties :
#
#
# Convention : Reuss Voigt Hill
#
# Bulk Modulus (GPa) = 56.95293 74.68446 65.81870
# Shear Modulus (GPa) = 30.23263 40.64934 35.44098
#
# Velocity S-wave (km/s) = 3.44804 3.99817 3.73325
# Velocity P-wave (km/s) = 6.18455 7.11923 6.66829
#
# Compressibility (1/GPa) = 0.01755836
#
# Stress axis : x y z
#
# Youngs Moduli (GPa) = 56.72064 93.37035 59.58110
#
# Poissons Ratio (x) = 0.22794 0.57894
# Poissons Ratio (y) = 0.13847 0.09681
# Poissons Ratio (z) = 0.55114 0.15171
#
# Static dielectric constant tensor:
#      x y z
#    x 2.228110 0.000000 -0.062950 
#    y 0.000000 2.271500 0.000000 
#    z -0.062950 0.000000 1.958650 
# 
# From -- ./inp_files/204308.got.cif
#   From: 2010.05.17/outbox.cif.g08.bks.cpg/sg15_103_cif.got.tgz:204308.got - 2010.06.03 18:47:42.
