data_PCOD9285345
_publ_section_title
;
Structure prediction by ZEFSAII (Michael W. Deem and Ramdas Pophale) SiO2 
 PCOD9285345
Probable space group: C 2/C
;
_chemical_formula_sum "Si O2"
_cell_formula_units_Z 40
_cell_length_a 13.636161
_cell_length_b 11.063508
_cell_length_c 12.609793
_cell_angle_alpha 90.000000
_cell_angle_beta 76.815711
_cell_angle_gamma 90.000000
_cell_volume 1852.217574
_symmetry_space_group_name_H-M "C 2/C"
_symmetry_group_IT_number 15
_symmetry_cell_setting 'monoclinic'
loop_
_space_group_symop_operation_xyz
x,y,z
-x,y,1/2-z
-x,-y,-z
x,-y,1/2+z
1/2+x,1/2+y,z
1/2-x,1/2+y,1/2-z
1/2-x,1/2-y,-z
1/2+x,1/2-y,1/2+z
loop_
_atom_site_type_symbol
_atom_site_label
_atom_site_fract_x
_atom_site_fract_y
_atom_site_fract_z
Si Si1 0.387214 0.201438 0.759975
Si Si2 0.354211 0.193028 0.518926
Si Si3 0.375467 0.525947 0.217391
Si Si4 0.579203 0.565962 0.583172
Si Si5 0.774050 0.517823 0.917825
O O1 0.500000 0.153965 0.750000
O O2 0.356376 0.176162 0.644947
O O3 0.389081 0.345573 0.768854
O O4 0.317808 0.143738 0.867598
O O5 0.250000 0.250000 0.500000
O O6 0.429305 0.301798 0.468063
O O7 0.356140 0.066226 0.455933
O O8 0.384244 0.422199 0.303114
O O9 0.471489 0.500167 0.117833
O O10 0.271266 0.534927 0.180824
O O11 0.672596 0.489165 0.512669
#
# Coordination Sequence:
#
# PCOD9285345 Si02
#       5
#     8   8   8   8   8
#     4  12  25  44  64  98 142 167 218 284 323 394
#     4  10  21  43  69  93 130 174 217 275 329 392
#     4  11  22  40  69 103 127 169 229 279 315 397
#     4  10  21  41  70  99 129 170 223 280 332 387
#     4  11  23  40  69  94 134 179 216 268 341 391
#
# _framework density 21.595735000000001
#
# number of rings (size 3 to 8) (size 9 to 14) (size 15 to 20)
#    0.000    1.200    6.000    3.000    0.000    1.600 
#    3.600    0.000    0.000    0.000    0.000    0.000 
#    0.000    0.000    0.000    0.000    0.000    0.000 
#
# Total GULP energy -111435.270030 kJ/mol
# GULP energy per Si atom -5571.763501 kJ/mol
# Density = 2.154658 g / cm^3
# Si number density = 21.595735 Si / 1000 Ang^3
#
#
#
# Elastic Constant Matrix: (Units=GPa)
#
#
# Indices 1 2 3 4 5 6 
#
# 1 63.9059 15.9832 16.2336 0.0000 3.9590 0.0000
# 2 15.9832 93.9322 39.7198 0.0000 -22.4948 0.0000
# 3 16.2336 39.7198 98.2857 0.0000 -5.7142 0.0000
# 4 0.0000 0.0000 0.0000 48.8908 0.0000 -0.9318
# 5 3.9590 -22.4948 -5.7142 0.0000 45.1917 0.0000
# 6 0.0000 0.0000 0.0000 -0.9318 0.0000 26.5641
#
#
#
# Elastic Compliance Matrix: (Units=1/GPa)
#
#
# Indices 1 2 3 4 5 6 
#
# 1 0.017029 -0.002878 -0.001833 0.000000 -0.003156 0.000000
# 2 -0.002878 0.015022 -0.005184 0.000000 0.007074 0.000000
# 3 -0.001833 -0.005184 0.012524 0.000000 -0.000836 0.000000
# 4 0.000000 0.000000 0.000000 0.020467 0.000000 0.000718
# 5 -0.003156 0.007074 -0.000836 0.000000 0.025820 0.000000
# 6 0.000000 0.000000 0.000000 0.000718 0.000000 0.037670
#
#
# Mechanical properties :
#
#
# Convention : Reuss Voigt Hill
#
# Bulk Modulus (GPa) = 40.34897 44.44409 42.39653
# Shear Modulus (GPa) = 31.93173 36.40845 34.17009
#
# Velocity S-wave (km/s) = 3.84945 4.11044 3.98208
# Velocity P-wave (km/s) = 6.20338 6.56904 6.38883
#
# Compressibility (1/GPa) = 0.02478378
#
# Stress axis : x y z
#
# Youngs Moduli (GPa) = 58.72316 66.56912 79.84952
#
# Poissons Ratio (x) = 0.19161 0.14636
# Poissons Ratio (y) = 0.16903 0.41395
# Poissons Ratio (z) = 0.10763 0.34510
#
# Static dielectric constant tensor:
#      x y z
#    x 1.842440 0.000000 0.029130 
#    y 0.000000 1.843170 0.000000 
#    z 0.029130 0.000000 1.903010 
# 
# From -- ./inp_files/141695.got.cif
#   From: 2010.05.17/outbox.cif.g08.bks.cpg/sg15_71_cif.got.tgz:141695.got - 2010.06.03 18:47:42.
