data_PCOD9285039
_publ_section_title
;
Structure prediction by ZEFSAII (Michael W. Deem and Ramdas Pophale) SiO2 
 PCOD9285039
Probable space group: C 2/C
;
_chemical_formula_sum "Si O2"
_cell_formula_units_Z 48
_cell_length_a 12.868635
_cell_length_b 16.281652
_cell_length_c 14.606843
_cell_angle_alpha 90.000000
_cell_angle_beta 44.314788
_cell_angle_gamma 90.000000
_cell_volume 2138.040277
_symmetry_space_group_name_H-M "C 2/C"
_symmetry_group_IT_number 15
_symmetry_cell_setting 'monoclinic'
loop_
_space_group_symop_operation_xyz
x,y,z
-x,y,1/2-z
-x,-y,-z
x,-y,1/2+z
1/2+x,1/2+y,z
1/2-x,1/2+y,1/2-z
1/2-x,1/2-y,-z
1/2+x,1/2-y,1/2+z
loop_
_atom_site_type_symbol
_atom_site_label
_atom_site_fract_x
_atom_site_fract_y
_atom_site_fract_z
Si Si1 0.410335 0.309338 0.638097
Si Si2 0.536358 0.173395 0.126179
Si Si3 0.458700 0.488742 0.631963
Si Si4 0.858824 0.445909 0.607052
Si Si5 0.868493 0.851030 0.456067
Si Si6 0.198261 0.292289 0.939632
O O1 0.485481 0.391918 0.633446
O O2 0.341111 0.338799 0.583917
O O3 0.304548 0.274453 0.784961
O O4 0.533049 0.243628 0.533499
O O5 0.500000 0.143280 0.250000
O O6 0.424654 0.124111 0.132615
O O7 0.528099 0.272415 0.130323
O O8 0.712305 0.155533 0.001064
O O9 0.500000 0.500000 0.500000
O O10 0.282399 0.494157 0.764204
O O11 0.552673 0.562785 0.615658
O O12 0.807724 0.391352 0.552850
O O13 0.000000 0.500000 0.500000
O O14 0.250000 0.250000 0.000000
#
# Coordination Sequence:
#
# PCOD9285039 Si02
#       6
#     8   8   8   8   8   8
#     4  10  21  41  66  96 138 176 228 288 345 420
#     4  11  22  41  67 101 138 175 225 288 348 422
#     4   9  20  40  64  97 131 180 222 277 345 419
#     4  11  25  45  68 100 144 179 233 295 350 418
#     4  10  22  38  69 104 134 180 228 285 359 419
#     4  11  23  41  64  96 135 183 234 283 343 413
#
# _framework density 22.450465999999999
#
# number of rings (size 3 to 8) (size 9 to 14) (size 15 to 20)
#    0.000    1.667    1.667    3.500    0.000    6.667 
#    0.000    5.000    0.000    0.000    0.000    0.000 
#    0.000    0.000    0.000    0.000    0.000    0.000 
#
# Total GULP energy -133863.876512 kJ/mol
# GULP energy per Si atom -5577.661521 kJ/mol
# Density = 2.239937 g / cm^3
# Si number density = 22.450466 Si / 1000 Ang^3
#
#
#
# Elastic Constant Matrix: (Units=GPa)
#
#
# Indices 1 2 3 4 5 6 
#
# 1 64.0442 2.4941 18.6081 -0.0001 6.8104 0.0001
# 2 2.4941 76.7596 53.6468 -0.0001 -3.2260 0.0001
# 3 18.6081 53.6468 166.2656 -0.0002 0.4560 0.0002
# 4 -0.0001 -0.0001 -0.0002 40.4767 0.0001 -13.5949
# 5 6.8104 -3.2260 0.4560 0.0001 33.1967 -0.0001
# 6 0.0001 0.0001 0.0002 -13.5949 -0.0001 35.4299
#
#
#
# Elastic Compliance Matrix: (Units=1/GPa)
#
#
# Indices 1 2 3 4 5 6 
#
# 1 0.016542 0.000790 -0.002097 0.000000 -0.003288 0.000000
# 2 0.000790 0.016956 -0.005564 0.000000 0.001562 0.000000
# 3 -0.002097 -0.005564 0.008045 0.000000 -0.000221 0.000000
# 4 0.000000 0.000000 0.000000 0.028361 0.000000 0.010882
# 5 -0.003288 0.001562 -0.000221 0.000000 0.030953 0.000000
# 6 0.000000 0.000000 0.000000 0.010882 0.000000 0.032400
#
#
# Mechanical properties :
#
#
# Convention : Reuss Voigt Hill
#
# Bulk Modulus (GPa) = 35.96903 50.72971 43.34937
# Shear Modulus (GPa) = 31.99660 37.30869 34.65264
#
# Velocity S-wave (km/s) = 3.77929 4.08097 3.93302
# Velocity P-wave (km/s) = 5.92455 6.69709 6.32263
#
# Compressibility (1/GPa) = 0.02780169
#
# Stress axis : x y z
#
# Youngs Moduli (GPa) = 60.45046 58.97574 124.30107
#
# Poissons Ratio (x) = -0.04660 0.26070
# Poissons Ratio (y) = -0.04776 0.69158
# Poissons Ratio (z) = 0.12678 0.32812
#
# Static dielectric constant tensor:
#      x y z
#    x 1.965070 0.000000 0.002550 
#    y 0.000000 1.923170 0.000000 
#    z 0.002550 0.000000 1.846540 
# 
# From -- ./inp_files/205273.got.cif
#   From: 2010.05.17/outbox.cif.g08.bks.cpg/sg15_103_cif.got.tgz:205273.got - 2010.06.03 18:47:42.
