data_PCOD9285793
_publ_section_title
;
Structure prediction by ZEFSAII (Michael W. Deem and Ramdas Pophale) SiO2 
 PCOD9285793
Probable space group: C 2/C
;
_chemical_formula_sum "Si O2"
_cell_formula_units_Z 40
_cell_length_a 13.573584
_cell_length_b 17.588028
_cell_length_c 15.201718
_cell_angle_alpha 90.000000
_cell_angle_beta 151.847249
_cell_angle_gamma 90.000000
_cell_volume 1712.317255
_symmetry_space_group_name_H-M "C 2/C"
_symmetry_group_IT_number 15
_symmetry_cell_setting 'monoclinic'
loop_
_space_group_symop_operation_xyz
x,y,z
-x,y,1/2-z
-x,-y,-z
x,-y,1/2+z
1/2+x,1/2+y,z
1/2-x,1/2+y,1/2-z
1/2-x,1/2-y,-z
1/2+x,1/2-y,1/2+z
loop_
_atom_site_type_symbol
_atom_site_label
_atom_site_fract_x
_atom_site_fract_y
_atom_site_fract_z
Si Si1 0.785471 0.312728 0.323275
Si Si2 0.015724 0.156943 0.067225
Si Si3 0.167698 0.499599 0.943080
Si Si4 0.396132 0.070047 0.367905
Si Si5 0.000000 0.882533 0.250000
Si Si6 0.500000 0.378523 0.750000
O O1 0.841383 0.224736 0.358293
O O2 0.001491 0.356327 0.508260
O O3 0.637501 0.333631 0.289824
O O4 0.681056 0.343341 0.151604
O O5 0.150198 0.079552 0.168029
O O6 0.977635 0.167100 0.141317
O O7 0.998724 0.443335 0.854634
O O8 0.000000 0.542506 0.750000
O O9 0.356170 0.439023 0.077104
O O10 0.296660 0.566073 0.094025
O O11 0.500000 0.000000 0.500000
#
# Coordination Sequence:
#
# PCOD9285793 Si02
#       6
#     8   8   8   8   4   4
#     4  11  25  45  69  98 141 179 225 285 348 399
#     4  12  25  45  66 102 140 185 223 281 339 410
#     4  10  21  42  67 101 131 174 225 290 340 392
#     4  11  23  44  69 100 132 174 237 280 335 408
#     4   9  22  44  68 102 131 166 232 286 343 414
#     4  11  26  40  66 100 141 178 238 270 331 410
#
# _framework density 23.360157999999998
#
# number of rings (size 3 to 8) (size 9 to 14) (size 15 to 20)
#    0.000    1.200    4.000    1.200    2.800    2.400 
#    1.800    0.000    0.000    0.000    0.000    0.000 
#    0.000    0.000    0.000    0.000    0.000    0.000 
#
# Total GULP energy -111458.587392 kJ/mol
# GULP energy per Si atom -5572.929370 kJ/mol
# Density = 2.330699 g / cm^3
# Si number density = 23.360158 Si / 1000 Ang^3
#
#
#
# Elastic Constant Matrix: (Units=GPa)
#
#
# Indices 1 2 3 4 5 6 
#
# 1 66.0478 1.7333 -7.0406 -0.0455 -13.3949 -0.0391
# 2 1.7333 53.0075 -2.8848 -0.0189 -5.6483 -0.0175
# 3 -7.0406 -2.8848 118.3194 0.0048 -14.7322 0.0074
# 4 -0.0455 -0.0189 0.0048 -136.5028 0.0014 -147.0086
# 5 -13.3949 -5.6483 -14.7322 0.0014 23.1722 -0.0001
# 6 -0.0391 -0.0175 0.0074 -147.0086 -0.0001 -107.9136
#
#
#
# Elastic Compliance Matrix: (Units=1/GPa)
#
#
# Indices 1 2 3 4 5 6 
#
# 1 0.017868 0.000856 0.002602 -0.000002 0.012192 -0.000003
# 2 0.000856 0.019555 0.001285 -0.000002 0.006078 -0.000001
# 3 0.002602 0.001285 0.009626 0.000000 0.007937 -0.000001
# 4 -0.000002 -0.000002 0.000000 0.015683 -0.000003 -0.021364
# 5 0.012192 0.006078 0.007937 -0.000003 0.056731 -0.000001
# 6 -0.000003 -0.000001 -0.000001 -0.021364 -0.000001 0.019838
#
#
# Mechanical properties :
#
#
# Convention : Reuss Voigt Hill
#
# Bulk Modulus (GPa) = 17.68803 24.55452 21.12128
# Shear Modulus (GPa) = 33.63401 -27.87774 2.87813
#
# Velocity S-wave (km/s) = 3.79859 -3.45829 1.11119
# Velocity P-wave (km/s) = 5.17951 2.32643 3.27224
#
# Compressibility (1/GPa) = 0.05653540
#
# Stress axis : x y z
#
# Youngs Moduli (GPa) = 55.96580 51.13822 103.88366
#
# Poissons Ratio (x) = -0.04380 -0.27032
# Poissons Ratio (y) = -0.04793 -0.13344
# Poissons Ratio (z) = -0.14563 -0.06569
#
# Static dielectric constant tensor:
#      x y z
#    x 2.825900 0.000000 -0.247550 
#    y 0.000000 1.828460 -0.000010 
#    z -0.247550 -0.000010 1.997060 
# 
# From -- ./inp_files/155384.got.cif
#   From: 2010.05.17/outbox.cif.g08.bks.cpg/sg15_78_cif.got.tgz:155384.got - 2010.06.03 18:47:42.
