data_PCOD9285113
_publ_section_title
;
Structure prediction by ZEFSAII (Michael W. Deem and Ramdas Pophale) SiO2 
 PCOD9285113
Probable space group: C 2/C
;
_chemical_formula_sum "Si O2"
_cell_formula_units_Z 64
_cell_length_a 9.156726
_cell_length_b 31.970904
_cell_length_c 14.503911
_cell_angle_alpha 90.000000
_cell_angle_beta 133.190179
_cell_angle_gamma 90.000000
_cell_volume 3095.700897
_symmetry_space_group_name_H-M "C 2/C"
_symmetry_group_IT_number 15
_symmetry_cell_setting 'monoclinic'
loop_
_space_group_symop_operation_xyz
x,y,z
-x,y,1/2-z
-x,-y,-z
x,-y,1/2+z
1/2+x,1/2+y,z
1/2-x,1/2+y,1/2-z
1/2-x,1/2-y,-z
1/2+x,1/2-y,1/2+z
loop_
_atom_site_type_symbol
_atom_site_label
_atom_site_fract_x
_atom_site_fract_y
_atom_site_fract_z
Si Si1 0.064155 0.155223 0.035320
Si Si2 0.027334 0.523769 0.153200
Si Si3 0.070510 0.671608 0.045016
Si Si4 0.653827 0.628491 0.882090
Si Si5 0.329180 0.211236 0.597629
Si Si6 0.278001 0.465088 0.135565
Si Si7 0.171448 0.100266 0.259291
Si Si8 0.900079 0.278681 0.620410
O O1 0.090651 0.124480 0.133923
O O2 0.263396 0.184432 0.108499
O O3 0.059813 0.126194 0.942559
O O4 0.868267 0.185234 0.954487
O O5 0.140381 0.485082 0.154375
O O6 0.159889 0.565736 0.191890
O O7 0.000000 0.519219 0.250000
O O8 0.820324 0.526003 0.006471
O O9 0.234708 0.637323 0.138853
O O10 0.073915 0.708392 0.122558
O O11 0.070633 0.683480 0.939160
O O12 0.857746 0.652621 0.977443
O O13 0.500000 0.651807 0.750000
O O14 0.706284 0.584847 0.856613
O O15 0.500000 0.220187 0.750000
O O16 0.250000 0.250000 0.500000
O O17 0.500000 0.481425 0.250000
O O18 0.000000 0.080955 0.250000
O O19 0.750000 0.250000 0.500000
O O20 0.000000 0.256300 0.750000
#
# Coordination Sequence:
#
# PCOD9285113 Si02
#       8
#     8   8   8   8   8   8   8   8
#     4  11  24  41  68  96 125 177 234 280 339 405
#     4  11  24  42  71 104 136 180 230 278 340 423
#     4  11  23  41  66  92 128 174 226 279 337 403
#     4  10  21  41  67  93 132 176 221 278 336 403
#     4  12  28  45  67  98 141 182 230 286 350 412
#     4  10  22  43  66 100 145 180 217 282 350 402
#     4  12  23  41  70  97 129 174 231 286 341 402
#     4  11  24  39  62  92 128 167 218 276 337 405
#
# _framework density 20.673832000000001
#
# number of rings (size 3 to 8) (size 9 to 14) (size 15 to 20)
#    0.000    1.000    3.750    2.625    3.500    5.500 
#    0.000    8.125    0.000    0.000    0.000    0.000 
#    0.000    0.000    0.000    0.000    0.000    0.000 
#
# Total GULP energy -178504.234060 kJ/mol
# GULP energy per Si atom -5578.257314 kJ/mol
# Density = 2.062678 g / cm^3
# Si number density = 20.673832 Si / 1000 Ang^3
#
#
#
# Elastic Constant Matrix: (Units=GPa)
#
#
# Indices 1 2 3 4 5 6 
#
# 1 96.1020 21.5348 54.5144 0.0000 -16.0537 0.0000
# 2 21.5348 73.1962 29.9969 0.0000 -12.6638 0.0000
# 3 54.5144 29.9969 169.5811 0.0000 -17.2005 0.0000
# 4 0.0000 0.0000 0.0000 3.9812 0.0000 -9.6203
# 5 -16.0537 -12.6638 -17.2005 0.0000 36.7083 0.0000
# 6 0.0000 0.0000 0.0000 -9.6203 0.0000 17.7002
#
#
#
# Elastic Compliance Matrix: (Units=1/GPa)
#
#
# Indices 1 2 3 4 5 6 
#
# 1 0.013483 -0.001859 -0.003646 0.000000 0.003547 0.000000
# 2 -0.001859 0.015584 -0.001781 0.000000 0.003729 0.000000
# 3 -0.003646 -0.001781 0.007517 0.000000 0.001314 0.000000
# 4 0.000000 0.000000 0.000000 -0.801559 0.000000 -0.435659
# 5 0.003547 0.003729 0.001314 0.000000 0.030695 0.000000
# 6 0.000000 0.000000 0.000000 -0.435659 0.000000 -0.180290
#
#
# Mechanical properties :
#
#
# Convention : Reuss Voigt Hill
#
# Bulk Modulus (GPa) = 45.42837 61.21904 53.32370
# Shear Modulus (GPa) = -5.60122 27.20017 10.79948
#
# Velocity S-wave (km/s) = -1.64779 3.63117 2.28803
# Velocity P-wave (km/s) = 4.28967 6.87435 5.72966
#
# Compressibility (1/GPa) = 0.02201268
#
# Stress axis : x y z
#
# Youngs Moduli (GPa) = 74.16922 64.16946 133.03081
#
# Poissons Ratio (x) = 0.11929 0.48498
# Poissons Ratio (y) = 0.13788 0.23690
# Poissons Ratio (z) = 0.27039 0.11427
#
# Static dielectric constant tensor:
#      x y z
#    x 1.747000 0.000000 0.022100 
#    y 0.000000 1.794650 0.000000 
#    z 0.022100 0.000000 1.800390 
# 
# From -- ./inp_files/139864.got.cif
#   From: 2010.05.17/outbox.cif.g08.bks.cpg/sg15_70_cif.got.tgz:139864.got - 2010.06.03 18:47:42.
