data_PCOD9285014
_publ_section_title
;
Structure prediction by ZEFSAII (Michael W. Deem and Ramdas Pophale) SiO2 
 PCOD9285014
Probable space group: C 2/C
;
_chemical_formula_sum "Si O2"
_cell_formula_units_Z 56
_cell_length_a 8.431772
_cell_length_b 11.311124
_cell_length_c 26.853302
_cell_angle_alpha 90.000000
_cell_angle_beta 64.551926
_cell_angle_gamma 90.000000
_cell_volume 2312.586987
_symmetry_space_group_name_H-M "C 2/C"
_symmetry_group_IT_number 15
_symmetry_cell_setting 'monoclinic'
loop_
_space_group_symop_operation_xyz
x,y,z
-x,y,1/2-z
-x,-y,-z
x,-y,1/2+z
1/2+x,1/2+y,z
1/2-x,1/2+y,1/2-z
1/2-x,1/2-y,-z
1/2+x,1/2-y,1/2+z
loop_
_atom_site_type_symbol
_atom_site_label
_atom_site_fract_x
_atom_site_fract_y
_atom_site_fract_z
Si Si1 0.789053 0.113727 0.780455
Si Si2 0.312226 0.633058 0.889528
Si Si3 0.881051 0.859218 0.995726
Si Si4 0.177911 0.861645 0.757738
Si Si5 0.858429 0.578216 0.490883
Si Si6 0.595076 0.250000 0.403888
Si Si7 0.950331 0.872086 0.879322
O O1 0.734240 0.146465 0.844895
O O2 0.747663 0.227665 0.752212
O O3 0.000000 0.101621 0.750000
O O4 0.722485 0.980521 0.775105
O O5 0.504378 0.691795 0.868706
O O6 0.343596 0.493751 0.890858
O O7 0.209657 0.662962 0.954862
O O8 0.000020 0.856156 0.930298
O O9 0.750000 0.750000 0.000000
O O10 0.939983 0.832527 0.043269
O O11 0.784225 0.985442 0.009408
O O12 0.000000 0.854297 0.750000
O O13 0.116047 0.887659 0.822179
O O14 0.000000 0.500000 0.500000
O O15 0.971041 0.638713 0.432691
O O16 0.802652 0.220072 0.378162
#
# Coordination Sequence:
#
# PCOD9285014 Si02
#       7
#     8   8   8   8   8   8   8
#     4  11  26  48  73  98 138 174 231 293 353 406
#     4  11  23  41  65  96 131 176 217 282 335 401
#     4   9  19  36  61  90 129 175 209 262 317 395
#     4  11  25  47  73 100 131 178 230 290 348 410
#     4  11  20  37  60  91 134 174 215 260 327 396
#     4  11  23  40  64  94 139 171 220 266 333 409
#     4  10  21  41  66  94 130 174 219 274 334 398
#
# _framework density 24.215306000000002
#
# number of rings (size 3 to 8) (size 9 to 14) (size 15 to 20)
#    0.000    1.429    7.143    0.429    4.000    2.857 
#    2.571    0.000    0.000    0.000    0.000    0.000 
#    0.000    0.000    0.000    0.000    0.000    0.000 
#
# Total GULP energy -156199.928825 kJ/mol
# GULP energy per Si atom -5578.568887 kJ/mol
# Density = 2.416019 g / cm^3
# Si number density = 24.215306 Si / 1000 Ang^3
#
#
#
# Elastic Constant Matrix: (Units=GPa)
#
#
# Indices 1 2 3 4 5 6 
#
# 1 45.0249 41.6732 4.1589 0.0000 15.7715 0.0000
# 2 41.6732 123.4027 9.9091 0.0000 20.7579 0.0000
# 3 4.1589 9.9091 112.8482 0.0000 11.4970 0.0000
# 4 0.0000 0.0000 0.0000 18.3538 0.0000 1.3049
# 5 15.7715 20.7579 11.4970 0.0000 23.6667 0.0000
# 6 0.0000 0.0000 0.0000 1.3049 0.0000 42.3305
#
#
#
# Elastic Compliance Matrix: (Units=1/GPa)
#
#
# Indices 1 2 3 4 5 6 
#
# 1 0.036988 -0.009787 0.001192 0.000000 -0.016644 0.000000
# 2 -0.009787 0.012096 -0.000300 0.000000 -0.003941 0.000000
# 3 0.001192 -0.000300 0.009361 0.000000 -0.005079 0.000000
# 4 0.000000 0.000000 0.000000 0.054604 0.000000 -0.001683
# 5 -0.016644 -0.003941 -0.005079 0.000000 0.059269 0.000000
# 6 0.000000 0.000000 0.000000 -0.001683 0.000000 0.023676
#
#
# Mechanical properties :
#
#
# Convention : Reuss Voigt Hill
#
# Bulk Modulus (GPa) = 24.59696 43.63981 34.11839
# Shear Modulus (GPa) = 21.99388 31.90585 26.94986
#
# Velocity S-wave (km/s) = 3.01701 3.63380 3.33968
# Velocity P-wave (km/s) = 4.72400 5.97216 5.38437
#
# Compressibility (1/GPa) = 0.04065542
#
# Stress axis : x y z
#
# Youngs Moduli (GPa) = 27.03559 82.67422 106.82272
#
# Poissons Ratio (x) = 0.80913 -0.12732
# Poissons Ratio (y) = 0.26460 0.03203
# Poissons Ratio (z) = -0.03222 0.02479
#
# Static dielectric constant tensor:
#      x y z
#    x 2.031250 0.000000 -0.032000 
#    y 0.000000 2.047610 0.000000 
#    z -0.032000 0.000000 2.051240 
# 
# From -- ./inp_files/287960.got.cif
#   From: 2010.05.17/outbox.cif.g08.bks.cpg/sg15_144_cif.got.tgz:287960.got - 2010.06.03 18:47:42.
