data_PCOD9285455
_publ_section_title
;
Structure prediction by ZEFSAII (Michael W. Deem and Ramdas Pophale) SiO2 
 PCOD9285455
Probable space group: C 2/C
;
_chemical_formula_sum "Si O2"
_cell_formula_units_Z 40
_cell_length_a 11.774100
_cell_length_b 10.811999
_cell_length_c 16.578384
_cell_angle_alpha 90.000000
_cell_angle_beta 119.847206
_cell_angle_gamma 90.000000
_cell_volume 1830.514400
_symmetry_space_group_name_H-M "C 2/C"
_symmetry_group_IT_number 15
_symmetry_cell_setting 'monoclinic'
loop_
_space_group_symop_operation_xyz
x,y,z
-x,y,1/2-z
-x,-y,-z
x,-y,1/2+z
1/2+x,1/2+y,z
1/2-x,1/2+y,1/2-z
1/2-x,1/2-y,-z
1/2+x,1/2-y,1/2+z
loop_
_atom_site_type_symbol
_atom_site_label
_atom_site_fract_x
_atom_site_fract_y
_atom_site_fract_z
Si Si1 0.885363 0.862756 0.940008
Si Si2 0.000000 0.552099 0.750000
Si Si3 0.134878 0.685999 0.258308
Si Si4 0.613839 0.740797 0.404603
Si Si5 0.081913 0.111547 0.632915
Si Si6 0.000000 0.950342 0.750000
O O1 0.752209 0.802757 0.862608
O O2 0.999787 0.800252 0.926660
O O3 0.871454 0.010396 0.916185
O O4 0.938389 0.850365 0.049086
O O5 0.099517 0.459362 0.738394
O O6 0.072977 0.636078 0.841529
O O7 0.157888 0.764868 0.185476
O O8 0.000000 0.734695 0.250000
O O9 0.750000 0.750000 0.500000
O O10 0.604294 0.634161 0.333783
O O11 0.073362 0.029999 0.709663
#
# Coordination Sequence:
#
# PCOD9285455 Si02
#       6
#     8   4   8   8   8   4
#     4  10  24  37  67  90 121 167 207 255 304 381
#     4   9  23  40  60  94 123 161 208 258 312 359
#     4  10  23  39  63  88 126 162 195 268 306 363
#     4  10  22  40  65  91 125 165 211 254 310 367
#     4  10  21  42  61  91 122 161 211 248 314 373
#     4   9  19  38  64  90 115 171 198 254 308 371
#
# _framework density 21.851782
#
# number of rings (size 3 to 8) (size 9 to 14) (size 15 to 20)
#    0.600    1.600    1.000    0.000   11.200    4.000 
#    3.600    1.000    0.000    0.000    0.000    0.000 
#    0.000    0.000    0.000    0.000    0.000    0.000 
#
# Total GULP energy -111512.850482 kJ/mol
# GULP energy per Si atom -5575.642524 kJ/mol
# Density = 2.180205 g / cm^3
# Si number density = 21.851782 Si / 1000 Ang^3
#
#
#
# Elastic Constant Matrix: (Units=GPa)
#
#
# Indices 1 2 3 4 5 6 
#
# 1 70.2879 20.2772 39.0781 0.0000 23.5238 0.0000
# 2 20.2772 114.5082 54.4815 0.0000 -0.4807 0.0000
# 3 39.0781 54.4815 179.5839 0.0000 29.2056 0.0000
# 4 0.0000 0.0000 0.0000 38.0110 0.0000 -6.1275
# 5 23.5238 -0.4807 29.2056 0.0000 40.8014 0.0000
# 6 0.0000 0.0000 0.0000 -6.1275 0.0000 14.7676
#
#
#
# Elastic Compliance Matrix: (Units=1/GPa)
#
#
# Indices 1 2 3 4 5 6 
#
# 1 0.019277 -0.002596 -0.001805 0.000000 -0.009853 0.000000
# 2 -0.002596 0.010814 -0.003373 0.000000 0.004038 0.000000
# 3 -0.001805 -0.003373 0.007720 0.000000 -0.004525 0.000000
# 4 0.000000 0.000000 0.000000 0.028194 0.000000 0.011698
# 5 -0.009853 0.004038 -0.004525 0.000000 0.033476 0.000000
# 6 0.000000 0.000000 0.000000 0.011698 0.000000 0.072570
#
#
# Mechanical properties :
#
#
# Convention : Reuss Voigt Hill
#
# Bulk Modulus (GPa) = 44.91467 65.78373 55.34920
# Shear Modulus (GPa) = 25.63828 35.41888 30.52858
#
# Velocity S-wave (km/s) = 3.42904 4.03037 3.74180
# Velocity P-wave (km/s) = 6.02300 7.19919 6.63720
#
# Compressibility (1/GPa) = 0.02226444
#
# Stress axis : x y z
#
# Youngs Moduli (GPa) = 51.87498 92.46972 129.52898
#
# Poissons Ratio (x) = 0.24008 0.23377
# Poissons Ratio (y) = 0.13468 0.43685
# Poissons Ratio (z) = 0.09362 0.31187
#
# Static dielectric constant tensor:
#      x y z
#    x 1.880230 0.000000 -0.023990 
#    y 0.000000 1.845340 0.000000 
#    z -0.023990 0.000000 1.808170 
# 
# From -- ./inp_files/151016.got.cif
#   From: 2010.05.17/outbox.cif.g08.bks.cpg/sg15_76_cif.got.tgz:151016.got - 2010.06.03 18:47:42.
