data_PCOD9285346
_publ_section_title
;
Structure prediction by ZEFSAII (Michael W. Deem and Ramdas Pophale) SiO2 
 PCOD9285346
Probable space group: C 2/C
;
_chemical_formula_sum "Si O2"
_cell_formula_units_Z 52
_cell_length_a 15.977828
_cell_length_b 5.694743
_cell_length_c 27.706191
_cell_angle_alpha 90.000000
_cell_angle_beta 118.560034
_cell_angle_gamma 90.000000
_cell_volume 2214.215157
_symmetry_space_group_name_H-M "C 2/C"
_symmetry_group_IT_number 15
_symmetry_cell_setting 'monoclinic'
loop_
_space_group_symop_operation_xyz
x,y,z
-x,y,1/2-z
-x,-y,-z
x,-y,1/2+z
1/2+x,1/2+y,z
1/2-x,1/2+y,1/2-z
1/2-x,1/2-y,-z
1/2+x,1/2-y,1/2+z
loop_
_atom_site_type_symbol
_atom_site_label
_atom_site_fract_x
_atom_site_fract_y
_atom_site_fract_z
Si Si1 0.288550 0.108706 0.740590
Si Si2 0.980201 0.899569 0.417520
Si Si3 0.535805 0.637648 0.185522
Si Si4 0.855079 0.574285 0.655093
Si Si5 0.500000 0.732426 0.750000
Si Si6 0.922443 0.298400 0.990695
Si Si7 0.668068 0.088179 0.456569
O O1 0.245736 0.353039 0.750505
O O2 0.399315 0.137339 0.786844
O O3 0.287793 0.123494 0.682148
O O4 0.064227 0.717439 0.426275
O O5 0.901002 0.789847 0.430949
O O6 0.029740 0.095153 0.464552
O O7 0.943595 0.026672 0.360241
O O8 0.425572 0.710187 0.160925
O O9 0.557952 0.442637 0.231326
O O10 0.811411 0.493900 0.592180
O O11 0.926986 0.378666 0.697178
O O12 0.843411 0.395124 0.004636
O O13 0.000000 0.500000 0.000000
O O14 0.750000 0.250000 0.500000
#
# Coordination Sequence:
#
# PCOD9285346 Si02
#       7
#     8   8   8   8   4   8   8
#     4  12  28  49  71 117 162 189 240 320 402 446
#     4  10  21  41  70  99 131 186 246 295 359 438
#     4  12  23  43  78 103 135 201 251 302 361 470
#     4  12  24  45  75 105 139 201 250 298 366 465
#     4  12  20  42  76 106 136 176 270 300 356 436
#     4   9  20  42  64  94 139 173 241 293 354 435
#     4  11  24  43  68 104 143 188 247 312 369 431
#
# _framework density 23.48462
#
# number of rings (size 3 to 8) (size 9 to 14) (size 15 to 20)
#    0.000    0.923    6.154    0.923    0.000    0.615 
#    8.308    1.538    0.000    0.000    0.000    0.000 
#    0.000    0.000    0.000    0.000    0.000    0.000 
#
# Total GULP energy -145322.675917 kJ/mol
# GULP energy per Si atom -5589.333689 kJ/mol
# Density = 2.343117 g / cm^3
# Si number density = 23.484620 Si / 1000 Ang^3
#
#
#
# Elastic Constant Matrix: (Units=GPa)
#
#
# Indices 1 2 3 4 5 6 
#
# 1 109.4942 52.4552 77.0745 0.0000 -41.5060 0.0000
# 2 52.4552 89.5517 43.2321 -0.0001 -27.2172 0.0002
# 3 77.0745 43.2321 172.9392 0.0000 -53.2992 0.0000
# 4 0.0000 -0.0001 0.0000 42.1426 0.0000 -2.7060
# 5 -41.5060 -27.2172 -53.2992 0.0000 51.7210 0.0000
# 6 0.0000 0.0002 0.0000 -2.7060 0.0000 54.2821
#
#
#
# Elastic Compliance Matrix: (Units=1/GPa)
#
#
# Indices 1 2 3 4 5 6 
#
# 1 0.017591 -0.006290 -0.004304 0.000000 0.006372 0.000000
# 2 -0.006290 0.015896 -0.000217 0.000000 0.003094 0.000000
# 3 -0.004304 -0.000217 0.009752 0.000000 0.006482 0.000000
# 4 0.000000 0.000000 0.000000 0.023805 0.000000 0.001187
# 5 0.006372 0.003094 0.006482 0.000000 0.032756 0.000000
# 6 0.000000 0.000000 0.000000 0.001187 0.000000 0.018481
#
#
# Mechanical properties :
#
#
# Convention : Reuss Voigt Hill
#
# Bulk Modulus (GPa) = 46.25706 79.72320 62.99013
# Shear Modulus (GPa) = 33.98841 42.91068 38.44954
#
# Velocity S-wave (km/s) = 3.80842 4.27919 4.05065
# Velocity P-wave (km/s) = 6.25126 7.64434 6.98263
#
# Compressibility (1/GPa) = 0.02161832
#
# Stress axis : x y z
#
# Youngs Moduli (GPa) = 56.84752 62.90870 102.53828
#
# Poissons Ratio (x) = 0.39568 0.44130
# Poissons Ratio (y) = 0.35755 0.02226
# Poissons Ratio (z) = 0.24466 0.01366
#
# Static dielectric constant tensor:
#      x y z
#    x 1.988660 0.000000 -0.012930 
#    y 0.000000 1.946050 0.000000 
#    z -0.012930 0.000000 1.865050 
# 
# From -- ./inp_files/297828.got.cif
#   From: 2010.05.17/outbox.cif.g08.bks.cpg/sg15_149_cif.got.tgz:297828.got - 2010.06.03 18:47:42.
