data_PCOD9285007
_publ_section_title
;
Structure prediction by ZEFSAII (Michael W. Deem and Ramdas Pophale) SiO2 
 PCOD9285007
Probable space group: C 2/C
;
_chemical_formula_sum "Si O2"
_cell_formula_units_Z 60
_cell_length_a 21.244880
_cell_length_b 14.206807
_cell_length_c 26.653275
_cell_angle_alpha 90.000000
_cell_angle_beta 18.308153
_cell_angle_gamma 90.000000
_cell_volume 2527.012407
_symmetry_space_group_name_H-M "C 2/C"
_symmetry_group_IT_number 15
_symmetry_cell_setting 'monoclinic'
loop_
_space_group_symop_operation_xyz
x,y,z
-x,y,1/2-z
-x,-y,-z
x,-y,1/2+z
1/2+x,1/2+y,z
1/2-x,1/2+y,1/2-z
1/2-x,1/2-y,-z
1/2+x,1/2-y,1/2+z
loop_
_atom_site_type_symbol
_atom_site_label
_atom_site_fract_x
_atom_site_fract_y
_atom_site_fract_z
Si Si1 0.616950 0.915399 0.763993
Si Si2 0.730914 0.311884 0.065080
Si Si3 0.000000 0.511169 0.250000
Si Si4 0.436861 0.822986 0.462109
Si Si5 0.617225 0.839167 0.111342
Si Si6 0.933893 0.207232 0.002553
Si Si7 0.788794 0.839953 0.774817
Si Si8 0.230986 0.961435 0.264216
O O1 0.612916 0.933267 0.707620
O O2 0.745573 0.821993 0.679817
O O3 0.726682 0.993437 0.713447
O O4 0.382637 0.899895 0.951791
O O5 0.500000 0.334652 0.250000
O O6 0.750000 0.250000 0.000000
O O7 0.823774 0.250101 0.038713
O O8 0.161626 0.443338 0.099696
O O9 0.454460 0.858910 0.391375
O O10 0.231009 0.828755 0.649533
O O11 0.521541 0.716453 0.391975
O O12 0.581036 0.891598 0.385478
O O13 0.500000 0.806201 0.250000
O O14 0.750000 0.750000 0.000000
O O15 0.096813 0.278585 0.901463
O O16 0.045377 0.109324 0.905932
O O17 0.784582 0.948264 0.760390
#
# Coordination Sequence:
#
# PCOD9285007 Si02
#       8
#     8   8   4   8   8   8   8   8
#     4  12  22  46  71 104 148 192 251 307 377 453
#     4  12  25  46  74 106 148 198 252 309 370 452
#     4  10  24  42  70  98 140 192 238 304 370 440
#     4  11  23  42  66  98 138 184 234 298 370 434
#     4  10  21  41  66  93 129 181 237 292 357 428
#     4  11  25  42  74 107 145 197 249 300 386 444
#     4  11  24  42  68 104 144 187 237 301 371 446
#     4  11  23  42  68 107 145 188 243 311 372 444
#
# _framework density 23.743452999999999
#
# number of rings (size 3 to 8) (size 9 to 14) (size 15 to 20)
#    0.400    0.533    4.000    3.200    1.867    2.133 
#    2.400    0.667    0.000    0.000    0.000    0.000 
#    0.000    0.000    0.000    0.000    0.000    0.000 
#
# Total GULP energy -167251.249427 kJ/mol
# GULP energy per Si atom -5575.041648 kJ/mol
# Density = 2.368941 g / cm^3
# Si number density = 23.743453 Si / 1000 Ang^3
#
#
#
# Elastic Constant Matrix: (Units=GPa)
#
#
# Indices 1 2 3 4 5 6 
#
# 1 120.9123 37.0416 27.5565 -0.0523 9.1361 0.0326
# 2 37.0416 119.2555 41.2861 -0.0880 6.7215 0.0549
# 3 27.5565 41.2861 88.2712 -0.2125 4.6201 0.1148
# 4 -0.0523 -0.0880 -0.2125 31.3052 0.0266 15.9563
# 5 9.1361 6.7215 4.6201 0.0266 38.6557 -0.0063
# 6 0.0326 0.0549 0.1148 15.9563 -0.0063 43.4334
#
#
#
# Elastic Compliance Matrix: (Units=1/GPa)
#
#
# Indices 1 2 3 4 5 6 
#
# 1 0.009493 -0.002219 -0.001840 -0.000002 -0.001638 0.000001
# 2 -0.002219 0.010579 -0.004213 -0.000002 -0.000811 0.000000
# 3 -0.001840 -0.004213 0.013900 0.000117 -0.000494 -0.000073
# 4 -0.000002 -0.000002 0.000117 0.039304 -0.000043 -0.014440
# 5 -0.001638 -0.000811 -0.000494 -0.000043 0.026457 0.000023
# 6 0.000001 0.000000 -0.000073 -0.014440 0.000023 0.028329
#
#
# Mechanical properties :
#
#
# Convention : Reuss Voigt Hill
#
# Bulk Modulus (GPa) = 57.37858 60.02307 58.70082
# Shear Modulus (GPa) = 33.24138 37.51584 35.37861
#
# Velocity S-wave (km/s) = 3.74575 3.97930 3.86429
# Velocity P-wave (km/s) = 6.55180 6.81526 6.68483
#
# Compressibility (1/GPa) = 0.01742811
#
# Stress axis : x y z
#
# Youngs Moduli (GPa) = 105.33562 94.52804 71.94434
#
# Poissons Ratio (x) = 0.20980 0.13237
# Poissons Ratio (y) = 0.23379 0.30307
# Poissons Ratio (z) = 0.19380 0.39821
#
# Static dielectric constant tensor:
#      x y z
#    x 1.942950 0.000500 0.039500 
#    y 0.000500 1.411290 0.000090 
#    z 0.039500 0.000090 2.014920 
# 
# From -- ./inp_files/301188.got.cif
#   From: 2010.05.17/outbox.cif.g08.bks.cpg/sg15_151_cif.got.tgz:301188.got - 2010.06.03 18:47:42.
