data_PCOD9285693
_publ_section_title
;
Structure prediction by ZEFSAII (Michael W. Deem and Ramdas Pophale) SiO2 
 PCOD9285693
Probable space group: C 2/C
;
_chemical_formula_sum "Si O2"
_cell_formula_units_Z 48
_cell_length_a 11.509781
_cell_length_b 13.969260
_cell_length_c 24.632123
_cell_angle_alpha 90.000000
_cell_angle_beta 28.454996
_cell_angle_gamma 90.000000
_cell_volume 1887.019313
_symmetry_space_group_name_H-M "C 2/C"
_symmetry_group_IT_number 15
_symmetry_cell_setting 'monoclinic'
loop_
_space_group_symop_operation_xyz
x,y,z
-x,y,1/2-z
-x,-y,-z
x,-y,1/2+z
1/2+x,1/2+y,z
1/2-x,1/2+y,1/2-z
1/2-x,1/2-y,-z
1/2+x,1/2-y,1/2+z
loop_
_atom_site_type_symbol
_atom_site_label
_atom_site_fract_x
_atom_site_fract_y
_atom_site_fract_z
Si Si1 0.471964 0.896654 0.891927
Si Si2 0.419333 0.406129 0.106629
Si Si3 0.746928 0.626716 0.323568
Si Si4 0.169815 0.614230 0.815322
Si Si5 0.977510 0.614040 0.511349
Si Si6 0.242221 0.213749 0.926078
O O1 0.295599 0.600405 0.024579
O O2 0.675908 0.850054 0.770124
O O3 0.439452 0.853321 0.965176
O O4 0.561515 0.006329 0.859780
O O5 0.318363 0.513953 0.143046
O O6 0.270813 0.338116 0.127104
O O7 0.389546 0.382285 0.182667
O O8 0.509062 0.679334 0.442577
O O9 0.000000 0.645956 0.250000
O O10 0.960481 0.676493 0.872700
O O11 0.208186 0.635493 0.863069
O O12 0.220535 0.671867 0.428996
O O13 0.000000 0.500000 0.500000
#
# Coordination Sequence:
#
# PCOD9285693 Si02
#       6
#     8   8   8   8   8   8
#     4  10  21  42  65  97 137 170 213 269 337 386
#     4  11  21  38  69 101 131 161 213 280 327 390
#     4  11  21  38  65 102 131 165 213 275 340 393
#     4  10  22  42  67  96 130 175 222 262 332 393
#     4  10  25  46  65  89 134 180 222 270 324 397
#     4  12  22  40  70  98 129 167 221 279 325 392
#
# _framework density 25.436942999999999
#
# number of rings (size 3 to 8) (size 9 to 14) (size 15 to 20)
#    0.000    1.333    3.333    3.500    0.000    2.667 
#    3.000    2.500    3.667    0.000    0.000    0.000 
#    0.000    0.000    0.000    0.000    0.000    0.000 
#
# Total GULP energy -134287.533847 kJ/mol
# GULP energy per Si atom -5595.313910 kJ/mol
# Density = 2.537905 g / cm^3
# Si number density = 25.436943 Si / 1000 Ang^3
#
#
#
# Elastic Constant Matrix: (Units=GPa)
#
#
# Indices 1 2 3 4 5 6 
#
# 1 73.9995 -0.6788 55.5633 0.0166 29.3521 -0.0080
# 2 -0.6788 99.6131 15.8268 0.0090 8.3501 -0.0044
# 3 55.5633 15.8268 169.5270 0.0155 17.7701 -0.0128
# 4 0.0166 0.0090 0.0155 10.1051 -0.0118 -0.0142
# 5 29.3521 8.3501 17.7701 -0.0118 59.5166 0.0058
# 6 -0.0080 -0.0044 -0.0128 -0.0142 0.0058 32.5181
#
#
#
# Elastic Compliance Matrix: (Units=1/GPa)
#
#
# Indices 1 2 3 4 5 6 
#
# 1 0.022013 0.001944 -0.006431 -0.000039 -0.009209 0.000005
# 2 0.001944 0.010443 -0.001402 -0.000013 -0.002005 0.000002
# 3 -0.006431 -0.001402 0.008036 0.000001 0.000969 0.000001
# 4 -0.000039 -0.000013 0.000001 0.098960 0.000040 0.000043
# 5 -0.009209 -0.002005 0.000969 0.000040 0.021336 -0.000006
# 6 0.000005 0.000002 0.000001 0.000043 -0.000006 0.030752
#
#
# Mechanical properties :
#
#
# Convention : Reuss Voigt Hill
#
# Bulk Modulus (GPa) = 34.82687 53.84026 44.33356
# Shear Modulus (GPa) = 23.48641 38.58984 31.03813
#
# Velocity S-wave (km/s) = 3.04191 3.89919 3.49692
# Velocity P-wave (km/s) = 5.10478 6.44079 5.81131
#
# Compressibility (1/GPa) = 0.02871346
#
# Stress axis : x y z
#
# Youngs Moduli (GPa) = 45.42783 95.75892 124.44209
#
# Poissons Ratio (x) = -0.18613 0.80029
# Poissons Ratio (y) = -0.08830 0.17444
# Poissons Ratio (z) = 0.29215 0.13424
#
# Static dielectric constant tensor:
#      x y z
#    x 2.006100 0.000000 0.081500 
#    y 0.000000 2.020410 0.000000 
#    z 0.081500 0.000000 2.014860 
# 
# From -- ./inp_files/296027.got.cif
#   From: 2010.05.17/outbox.cif.g08.bks.cpg/sg15_149_cif.got.tgz:296027.got - 2010.06.03 18:47:42.
