data_PCOD9285771
_publ_section_title
;
Structure prediction by ZEFSAII (Michael W. Deem and Ramdas Pophale) SiO2 
 PCOD9285771
Probable space group: C 2/C
;
_chemical_formula_sum "Si O2"
_cell_formula_units_Z 40
_cell_length_a 10.776615
_cell_length_b 14.712113
_cell_length_c 11.578058
_cell_angle_alpha 90.000000
_cell_angle_beta 103.410844
_cell_angle_gamma 90.000000
_cell_volume 1785.608906
_symmetry_space_group_name_H-M "C 2/C"
_symmetry_group_IT_number 15
_symmetry_cell_setting 'monoclinic'
loop_
_space_group_symop_operation_xyz
x,y,z
-x,y,1/2-z
-x,-y,-z
x,-y,1/2+z
1/2+x,1/2+y,z
1/2-x,1/2+y,1/2-z
1/2-x,1/2-y,-z
1/2+x,1/2-y,1/2+z
loop_
_atom_site_type_symbol
_atom_site_label
_atom_site_fract_x
_atom_site_fract_y
_atom_site_fract_z
Si Si1 0.397952 0.709481 0.454430
Si Si2 0.863665 0.774531 0.194834
Si Si3 0.281014 0.084988 0.689773
Si Si4 0.998742 0.594083 0.931111
Si Si5 0.050374 0.963813 0.634335
O O1 0.257102 0.715538 0.368770
O O2 0.386504 0.669256 0.580876
O O3 0.456114 0.810386 0.478574
O O4 0.473412 0.643774 0.386110
O O5 0.817054 0.837016 0.290021
O O6 0.000000 0.730108 0.250000
O O7 0.389962 0.080710 0.810467
O O8 0.360624 0.106137 0.592478
O O9 0.198375 0.994040 0.664778
O O10 0.000000 0.500000 0.000000
O O11 0.000000 0.992884 0.750000
O O12 0.000000 0.000000 0.500000
#
# Coordination Sequence:
#
# PCOD9285771 Si02
#       5
#     8   8   8   8   8
#     4  10  24  42  70  99 138 181 235 288 354 428
#     4  10  21  42  66  96 137 172 228 288 356 413
#     4  10  23  42  69  95 140 180 233 289 354 424
#     4  10  24  44  69 100 142 181 231 295 358 428
#     4  12  27  45  73 104 143 191 241 297 361 423
#
# _framework density 22.401322
#
# number of rings (size 3 to 8) (size 9 to 14) (size 15 to 20)
#    0.000    1.600    0.000    3.000   16.800    1.600 
#    0.000    2.000    0.000    0.000    0.000    0.000 
#    0.000    0.000    0.000    0.000    0.000    0.000 
#
# Total GULP energy -111495.317555 kJ/mol
# GULP energy per Si atom -5574.765878 kJ/mol
# Density = 2.235034 g / cm^3
# Si number density = 22.401322 Si / 1000 Ang^3
#
#
#
# Elastic Constant Matrix: (Units=GPa)
#
#
# Indices 1 2 3 4 5 6 
#
# 1 120.6374 49.0698 41.7135 0.0000 -17.9517 0.0000
# 2 49.0698 84.8840 44.4415 0.0000 -13.9731 0.0000
# 3 41.7135 44.4415 94.5141 0.0000 -19.1181 0.0000
# 4 0.0000 0.0000 0.0000 28.2980 0.0000 -1.2582
# 5 -17.9517 -13.9731 -19.1181 0.0000 31.8785 0.0000
# 6 0.0000 0.0000 0.0000 -1.2582 0.0000 18.4222
#
#
#
# Elastic Compliance Matrix: (Units=1/GPa)
#
#
# Indices 1 2 3 4 5 6 
#
# 1 0.011523 -0.005070 -0.002093 0.000000 0.003012 0.000000
# 2 -0.005070 0.018078 -0.005961 0.000000 0.001494 0.000000
# 3 -0.002093 -0.005961 0.015409 0.000000 0.005450 0.000000
# 4 0.000000 0.000000 0.000000 0.035446 0.000000 0.002421
# 5 0.003012 0.001494 0.005450 0.000000 0.036989 0.000000
# 6 0.000000 0.000000 0.000000 0.002421 0.000000 0.054448
#
#
# Mechanical properties :
#
#
# Convention : Reuss Voigt Hill
#
# Bulk Modulus (GPa) = 53.29281 63.38724 58.34003
# Shear Modulus (GPa) = 24.46249 26.70712 25.58481
#
# Velocity S-wave (km/s) = 3.30814 3.45659 3.38318
# Velocity P-wave (km/s) = 6.19947 6.65495 6.43124
#
# Compressibility (1/GPa) = 0.01876426
#
# Stress axis : x y z
#
# Youngs Moduli (GPa) = 86.78068 55.31447 64.89630
#
# Poissons Ratio (x) = 0.28045 0.13580
# Poissons Ratio (y) = 0.43998 0.38683
# Poissons Ratio (z) = 0.18159 0.32972
#
# Static dielectric constant tensor:
#      x y z
#    x 1.842130 0.000000 -0.023300 
#    y 0.000000 1.914660 0.000000 
#    z -0.023300 0.000000 1.851090 
# 
# From -- ./inp_files/85718.got.cif
#   From: 2010.05.17/outbox.cif.g08.bks.cpg/sg15_43_cif.got.tgz:85718.got - 2010.06.03 18:47:42.
