data_PCOD9285200
_publ_section_title
;
Structure prediction by ZEFSAII (Michael W. Deem and Ramdas Pophale) SiO2 
 PCOD9285200
Probable space group: C 2/C
;
_chemical_formula_sum "Si O2"
_cell_formula_units_Z 40
_cell_length_a 7.087803
_cell_length_b 12.507772
_cell_length_c 23.769650
_cell_angle_alpha 90.000000
_cell_angle_beta 129.370804
_cell_angle_gamma 90.000000
_cell_volume 1629.017868
_symmetry_space_group_name_H-M "C 2/C"
_symmetry_group_IT_number 15
_symmetry_cell_setting 'monoclinic'
loop_
_space_group_symop_operation_xyz
x,y,z
-x,y,1/2-z
-x,-y,-z
x,-y,1/2+z
1/2+x,1/2+y,z
1/2-x,1/2+y,1/2-z
1/2-x,1/2-y,-z
1/2+x,1/2-y,1/2+z
loop_
_atom_site_type_symbol
_atom_site_label
_atom_site_fract_x
_atom_site_fract_y
_atom_site_fract_z
Si Si1 0.683818 0.920256 0.328107
Si Si2 0.427739 0.719496 0.123341
Si Si3 0.482590 0.683475 0.478369
Si Si4 0.839566 0.508738 0.056294
Si Si5 0.413860 0.487262 0.169045
O O1 0.500000 0.972869 0.250000
O O2 0.555890 0.813711 0.327953
O O3 0.707306 0.994286 0.386146
O O4 0.937739 0.908297 0.343818
O O5 0.583424 0.730870 0.095081
O O6 0.481654 0.607856 0.162793
O O7 0.151702 0.739199 0.047471
O O8 0.272349 0.625754 0.474524
O O9 0.672262 0.584816 0.499228
O O10 0.123909 0.486929 0.102638
O O11 0.500000 0.470382 0.250000
#
# Coordination Sequence:
#
# PCOD9285200 Si02
#       5
#     8   8   8   8   8
#     4  11  22  44  65  91 135 174 217 279 330 398
#     4  10  22  41  66  94 130 167 224 268 335 398
#     4   9  20  43  65  94 134 171 211 280 333 401
#     4  10  21  41  68  93 131 172 214 272 341 391
#     4  12  24  41  66  98 126 176 225 273 337 402
#
# _framework density 24.554673000000001
#
# number of rings (size 3 to 8) (size 9 to 14) (size 15 to 20)
#    0.000    1.600    4.000    0.600    0.000    1.600 
#   10.800    0.000    0.000    0.000    0.000    0.000 
#    0.000    0.000    0.000    0.000    0.000    0.000 
#
# Total GULP energy -111691.148297 kJ/mol
# GULP energy per Si atom -5584.557415 kJ/mol
# Density = 2.449879 g / cm^3
# Si number density = 24.554673 Si / 1000 Ang^3
#
#
#
# Elastic Constant Matrix: (Units=GPa)
#
#
# Indices 1 2 3 4 5 6 
#
# 1 101.5030 5.6953 1.9253 0.0000 29.3328 0.0000
# 2 5.6953 68.5381 4.2048 0.0000 -2.2210 0.0000
# 3 1.9253 4.2048 61.6550 0.0000 -4.8785 0.0000
# 4 0.0000 0.0000 0.0000 -2.2645 0.0000 -13.9531
# 5 29.3328 -2.2210 -4.8785 0.0000 35.3569 0.0000
# 6 0.0000 0.0000 0.0000 -13.9531 0.0000 31.1084
#
#
#
# Elastic Compliance Matrix: (Units=1/GPa)
#
#
# Indices 1 2 3 4 5 6 
#
# 1 0.013187 -0.001385 -0.001203 0.000000 -0.011193 0.000000
# 2 -0.001385 0.014819 -0.000812 0.000000 0.001968 0.000000
# 3 -0.001203 -0.000812 0.016568 0.000000 0.003233 0.000000
# 4 0.000000 0.000000 0.000000 -0.117331 0.000000 -0.052627
# 5 -0.011193 0.001968 0.003233 0.000000 0.038139 0.000000
# 6 0.000000 0.000000 0.000000 -0.052627 0.000000 0.008541
#
#
# Mechanical properties :
#
#
# Convention : Reuss Voigt Hill
#
# Bulk Modulus (GPa) = 26.47233 28.37187 27.42210
# Shear Modulus (GPa) = -747.75799 27.49820 -360.12989
#
# Velocity S-wave (km/s) = -17.46966 3.35009 -12.12365
# Velocity P-wave (km/s) = 19.90262 5.15206 13.59357
#
# Compressibility (1/GPa) = 0.03777529
#
# Stress axis : x y z
#
# Youngs Moduli (GPa) = 75.83161 67.48071 60.35716
#
# Poissons Ratio (x) = 0.09344 0.07261
# Poissons Ratio (y) = 0.10501 0.04899
# Poissons Ratio (z) = 0.09123 0.05477
#
# Static dielectric constant tensor:
#      x y z
#    x 2.020190 0.000000 -0.022310 
#    y 0.000000 2.019270 0.000000 
#    z -0.022310 0.000000 2.180030 
# 
# From -- ./inp_files/260466.got.cif
#   From: 2010.05.17/outbox.cif.g08.bks.cpg/sg15_131_cif.got.tgz:260466.got - 2010.06.03 18:47:42.
