data_PCOD9285285
_publ_section_title
;
Structure prediction by ZEFSAII (Michael W. Deem and Ramdas Pophale) SiO2 
 PCOD9285285
Probable space group: C 2/C
;
_chemical_formula_sum "Si O2"
_cell_formula_units_Z 56
_cell_length_a 16.545134
_cell_length_b 19.885019
_cell_length_c 13.144294
_cell_angle_alpha 90.000000
_cell_angle_beta 35.931377
_cell_angle_gamma 90.000000
_cell_volume 2537.671584
_symmetry_space_group_name_H-M "C 2/C"
_symmetry_group_IT_number 15
_symmetry_cell_setting 'monoclinic'
loop_
_space_group_symop_operation_xyz
x,y,z
-x,y,1/2-z
-x,-y,-z
x,-y,1/2+z
1/2+x,1/2+y,z
1/2-x,1/2+y,1/2-z
1/2-x,1/2-y,-z
1/2+x,1/2-y,1/2+z
loop_
_atom_site_type_symbol
_atom_site_label
_atom_site_fract_x
_atom_site_fract_y
_atom_site_fract_z
Si Si1 0.479727 0.608317 0.012440
Si Si2 0.003607 0.307818 0.364810
Si Si3 0.773956 0.770541 0.741954
Si Si4 0.514638 0.921014 0.491465
Si Si5 0.645830 0.932045 0.655494
Si Si6 0.746947 0.653413 0.632335
Si Si7 0.101152 0.986115 0.550486
O O1 0.357733 0.660078 0.158593
O O2 0.558782 0.581468 0.033058
O O3 0.591578 0.642225 0.825200
O O4 0.423792 0.544647 0.006997
O O5 0.878709 0.276550 0.557451
O O6 0.996425 0.385947 0.402461
O O7 0.000000 0.295576 0.250000
O O8 0.143260 0.277690 0.266033
O O9 0.780964 0.730218 0.627618
O O10 0.398188 0.900482 0.691858
O O11 0.656989 0.895163 0.395210
O O12 0.500000 0.000000 0.500000
O O13 0.500000 0.948630 0.750000
O O14 0.722373 0.875534 0.510236
O O15 0.744465 0.996714 0.568761
O O16 0.000000 0.992831 0.750000
#
# Coordination Sequence:
#
# PCOD9285285 Si02
#       7
#     8   8   8   8   8   8   8
#     4  11  23  43  70 101 142 184 236 287 350 424
#     4  11  24  43  69  97 133 182 232 282 344 411
#     4  11  23  45  69  99 138 181 236 290 343 416
#     4  10  22  41  65  99 139 173 223 282 348 417
#     4  10  21  42  71 100 141 176 226 285 355 422
#     4  10  21  41  69  95 136 177 225 289 342 410
#     4  11  23  42  69 102 140 181 229 291 354 414
#
# _framework density 22.067473
#
# number of rings (size 3 to 8) (size 9 to 14) (size 15 to 20)
#    0.000    1.429    2.857    2.143    0.000    3.429 
#    7.714    6.429    0.000    0.000    0.000    0.000 
#    0.000    0.000    0.000    0.000    0.000    0.000 
#
# Total GULP energy -156432.571894 kJ/mol
# GULP energy per Si atom -5586.877568 kJ/mol
# Density = 2.201725 g / cm^3
# Si number density = 22.067473 Si / 1000 Ang^3
#
#
#
# Elastic Constant Matrix: (Units=GPa)
#
#
# Indices 1 2 3 4 5 6 
#
# 1 52.4635 14.1001 10.0578 -0.0003 5.6201 0.0001
# 2 14.1001 87.9523 -7.1608 -0.0006 2.5904 0.0003
# 3 10.0578 -7.1608 52.4271 -0.0014 -5.7087 0.0007
# 4 -0.0003 -0.0006 -0.0014 22.6170 0.0002 -4.5399
# 5 5.6201 2.5904 -5.7087 0.0002 38.3201 -0.0001
# 6 0.0001 0.0003 0.0007 -4.5399 -0.0001 25.9170
#
#
#
# Elastic Compliance Matrix: (Units=1/GPa)
#
#
# Indices 1 2 3 4 5 6 
#
# 1 0.021415 -0.003734 -0.005014 0.000000 -0.003635 0.000000
# 2 -0.003734 0.012160 0.002386 0.000000 0.000081 0.000000
# 3 -0.005014 0.002386 0.020761 0.000001 0.003667 0.000000
# 4 0.000000 0.000000 0.000001 0.045826 0.000000 0.008027
# 5 -0.003635 0.000081 0.003667 0.000000 0.027170 0.000000
# 6 0.000000 0.000000 0.000000 0.008027 0.000000 0.039991
#
#
# Mechanical properties :
#
#
# Convention : Reuss Voigt Hill
#
# Bulk Modulus (GPa) = 24.03156 25.20412 24.61784
# Shear Modulus (GPa) = 25.78395 29.09388 27.43892
#
# Velocity S-wave (km/s) = 3.42192 3.63492 3.53003
# Velocity P-wave (km/s) = 5.15037 5.39102 5.27207
#
# Compressibility (1/GPa) = 0.04161194
#
# Stress axis : x y z
#
# Youngs Moduli (GPa) = 46.69569 82.23436 48.16659
#
# Poissons Ratio (x) = 0.30709 0.24152
# Poissons Ratio (y) = 0.17438 -0.11493
# Poissons Ratio (z) = 0.23415 -0.19623
#
# Static dielectric constant tensor:
#      x y z
#    x 1.837310 0.000000 -0.008580 
#    y 0.000000 1.838460 0.000000 
#    z -0.008580 0.000000 1.800370 
# 
# From -- ./inp_files/163756.got.cif
#   From: 2010.05.17/outbox.cif.g08.bks.cpg/sg15_82_cif.got.tgz:163756.got - 2010.06.03 18:47:42.
