data_PCOD9285279
_publ_section_title
;
Structure prediction by ZEFSAII (Michael W. Deem and Ramdas Pophale) SiO2 
 PCOD9285279
Probable space group: C 2/C
;
_chemical_formula_sum "Si O2"
_cell_formula_units_Z 40
_cell_length_a 11.308662
_cell_length_b 21.379866
_cell_length_c 10.983597
_cell_angle_alpha 90.000000
_cell_angle_beta 45.143656
_cell_angle_gamma 90.000000
_cell_volume 1882.486900
_symmetry_space_group_name_H-M "C 2/C"
_symmetry_group_IT_number 15
_symmetry_cell_setting 'monoclinic'
loop_
_space_group_symop_operation_xyz
x,y,z
-x,y,1/2-z
-x,-y,-z
x,-y,1/2+z
1/2+x,1/2+y,z
1/2-x,1/2+y,1/2-z
1/2-x,1/2-y,-z
1/2+x,1/2-y,1/2+z
loop_
_atom_site_type_symbol
_atom_site_label
_atom_site_fract_x
_atom_site_fract_y
_atom_site_fract_z
Si Si1 0.886092 0.565021 0.953614
Si Si2 0.399963 0.924125 0.950004
Si Si3 0.821472 0.192264 0.822632
Si Si4 0.756319 0.191518 0.403481
Si Si5 0.977471 0.229105 0.026735
O O1 0.821662 0.493763 0.997937
O O2 0.000000 0.571892 0.750000
O O3 0.755118 0.621474 0.041601
O O4 0.985342 0.572623 0.010741
O O5 0.500000 0.913797 0.750000
O O6 0.265643 0.869206 0.063627
O O7 0.692762 0.249841 0.916360
O O8 0.000000 0.207126 0.750000
O O9 0.886570 0.184983 0.635790
O O10 0.750000 0.250000 0.500000
O O11 0.907254 0.200687 0.201273
O O12 0.577838 0.205995 0.468027
#
# Coordination Sequence:
#
# PCOD9285279 Si02
#       5
#     8   8   8   8   8
#     4  10  21  41  69  94 127 173 221 266 332 399
#     4  10  23  42  68  94 127 175 226 268 325 405
#     4  11  23  39  61  89 129 168 215 270 326 393
#     4  11  21  38  64  94 129 169 215 270 329 399
#     4  10  23  38  58  94 126 166 213 265 335 391
#
# _framework density 21.248488999999999
#
# number of rings (size 3 to 8) (size 9 to 14) (size 15 to 20)
#    0.000    1.600    2.000    2.400    5.600    0.800 
#    0.000    3.000    0.000    0.000    0.000    0.000 
#    0.000    0.000    0.000    0.000    0.000    0.000 
#
# Total GULP energy -111454.757835 kJ/mol
# GULP energy per Si atom -5572.737892 kJ/mol
# Density = 2.120013 g / cm^3
# Si number density = 21.248489 Si / 1000 Ang^3
#
#
#
# Elastic Constant Matrix: (Units=GPa)
#
#
# Indices 1 2 3 4 5 6 
#
# 1 72.5360 4.1480 20.5851 0.0000 5.1364 0.0000
# 2 4.1480 154.9930 93.8519 0.0000 1.3650 0.0000
# 3 20.5851 93.8519 176.0394 0.0000 17.9579 0.0000
# 4 0.0000 0.0000 0.0000 40.1209 0.0000 -4.4021
# 5 5.1364 1.3650 17.9579 0.0000 35.5936 0.0000
# 6 0.0000 0.0000 0.0000 -4.4021 0.0000 18.9471
#
#
#
# Elastic Compliance Matrix: (Units=1/GPa)
#
#
# Indices 1 2 3 4 5 6 
#
# 1 0.014389 0.000851 -0.002025 0.000000 -0.001087 0.000000
# 2 0.000851 0.009763 -0.005539 0.000000 0.002297 0.000000
# 3 -0.002025 -0.005539 0.009297 0.000000 -0.004186 0.000000
# 4 0.000000 0.000000 0.000000 0.025577 0.000000 0.005942
# 5 -0.001087 0.002297 -0.004186 0.000000 0.030276 0.000000
# 6 0.000000 0.000000 0.000000 0.005942 0.000000 0.054159
#
#
# Mechanical properties :
#
#
# Convention : Reuss Voigt Hill
#
# Bulk Modulus (GPa) = 49.94235 71.19316 60.56776
# Shear Modulus (GPa) = 30.56958 37.93121 34.25039
#
# Velocity S-wave (km/s) = 3.79710 4.22966 4.01920
# Velocity P-wave (km/s) = 6.54056 7.57833 7.07849
#
# Compressibility (1/GPa) = 0.02002309
#
# Stress axis : x y z
#
# Youngs Moduli (GPa) = 69.49582 102.43112 107.55941
#
# Poissons Ratio (x) = -0.08715 0.21784
# Poissons Ratio (y) = -0.05913 0.59573
# Poissons Ratio (z) = 0.14075 0.56732
#
# Static dielectric constant tensor:
#      x y z
#    x 2.103140 0.000000 0.148250 
#    y 0.000000 1.740670 0.000000 
#    z 0.148250 0.000000 1.822510 
# 
# From -- ./inp_files/32275.got.cif
#   From: 2010.05.17/outbox.cif.g08.bks.cpg/sg15_17_cif.got.tgz:32275.got - 2010.06.03 18:47:42.
