data_PCOD9285071
_publ_section_title
;
Structure prediction by ZEFSAII (Michael W. Deem and Ramdas Pophale) SiO2 
 PCOD9285071
Probable space group: C 2/C
;
_chemical_formula_sum "Si O2"
_cell_formula_units_Z 40
_cell_length_a 11.894612
_cell_length_b 8.490921
_cell_length_c 17.343598
_cell_angle_alpha 90.000000
_cell_angle_beta 87.408787
_cell_angle_gamma 90.000000
_cell_volume 1749.846657
_symmetry_space_group_name_H-M "C 2/C"
_symmetry_group_IT_number 15
_symmetry_cell_setting 'monoclinic'
loop_
_space_group_symop_operation_xyz
x,y,z
-x,y,1/2-z
-x,-y,-z
x,-y,1/2+z
1/2+x,1/2+y,z
1/2-x,1/2+y,1/2-z
1/2-x,1/2-y,-z
1/2+x,1/2-y,1/2+z
loop_
_atom_site_type_symbol
_atom_site_label
_atom_site_fract_x
_atom_site_fract_y
_atom_site_fract_z
Si Si1 0.191270 0.971021 0.798397
Si Si2 0.095006 0.621059 0.528479
Si Si3 0.968061 0.118513 0.571679
Si Si4 0.891418 0.723472 0.804463
Si Si5 0.193929 0.685652 0.077538
O O1 0.151896 0.895984 0.719295
O O2 0.236112 0.820994 0.846668
O O3 0.089941 0.040810 0.852817
O O4 0.292459 0.096640 0.791285
O O5 0.115191 0.749028 0.462422
O O6 0.068372 0.712866 0.608195
O O7 0.186406 0.498180 0.554019
O O8 0.000000 0.500000 0.500000
O O9 0.078235 0.219852 0.591233
O O10 0.000000 0.000000 0.500000
O O11 0.000000 0.684744 0.750000
O O12 0.250000 0.750000 0.000000
#
# Coordination Sequence:
#
# PCOD9285071 Si02
#       5
#     8   8   8   8   8
#     4  11  26  45  65 102 137 188 228 288 356 415
#     4   9  22  42  70 102 132 184 232 290 353 412
#     4  11  21  41  70 103 136 172 240 289 344 425
#     4  11  26  46  68 100 146 185 235 290 358 425
#     4  10  21  41  67 101 134 172 228 291 343 414
#
# _framework density 22.859145999999999
#
# number of rings (size 3 to 8) (size 9 to 14) (size 15 to 20)
#    0.000    1.600    2.000    1.200    2.800   11.200 
#    3.600    0.000    0.000    0.000    0.000    0.000 
#    0.000    0.000    0.000    0.000    0.000    0.000 
#
# Total GULP energy -111666.636852 kJ/mol
# GULP energy per Si atom -5583.331843 kJ/mol
# Density = 2.280712 g / cm^3
# Si number density = 22.859146 Si / 1000 Ang^3
#
#
#
# Elastic Constant Matrix: (Units=GPa)
#
#
# Indices 1 2 3 4 5 6 
#
# 1 94.9988 40.1767 25.8942 0.0000 -11.0139 0.0000
# 2 40.1767 109.7483 44.4918 0.0000 2.1173 0.0000
# 3 25.8942 44.4918 86.2026 0.0000 14.6674 0.0000
# 4 0.0000 0.0000 0.0000 53.4091 0.0000 5.6574
# 5 -11.0139 2.1173 14.6674 0.0000 34.1461 0.0000
# 6 0.0000 0.0000 0.0000 5.6574 0.0000 47.7108
#
#
#
# Elastic Compliance Matrix: (Units=1/GPa)
#
#
# Indices 1 2 3 4 5 6 
#
# 1 0.013715 -0.003859 -0.003152 0.000000 0.006017 0.000000
# 2 -0.003859 0.012735 -0.005467 0.000000 0.000314 0.000000
# 3 -0.003152 -0.005467 0.016705 0.000000 -0.007853 0.000000
# 4 0.000000 0.000000 0.000000 0.018962 0.000000 -0.002248
# 5 0.006017 0.000314 -0.007853 0.000000 0.034581 0.000000
# 6 0.000000 0.000000 0.000000 -0.002248 0.000000 0.021226
#
#
# Mechanical properties :
#
#
# Convention : Reuss Voigt Hill
#
# Bulk Modulus (GPa) = 54.94719 56.89724 55.92221
# Shear Modulus (GPa) = 33.56914 39.07900 36.32407
#
# Velocity S-wave (km/s) = 3.83629 4.13916 3.99060
# Velocity P-wave (km/s) = 6.61152 6.91288 6.76388
#
# Compressibility (1/GPa) = 0.01819929
#
# Stress axis : x y z
#
# Youngs Moduli (GPa) = 72.91126 78.52506 59.86134
#
# Poissons Ratio (x) = 0.30305 0.18867
# Poissons Ratio (y) = 0.28138 0.32726
# Poissons Ratio (z) = 0.22981 0.42929
#
# Static dielectric constant tensor:
#      x y z
#    x 1.916530 0.000000 0.075710 
#    y 0.000000 1.983770 0.000000 
#    z 0.075710 0.000000 1.951090 
# 
# From -- ./inp_files/202211.got.cif
#   From: 2010.05.17/outbox.cif.g08.bks.cpg/sg15_102_cif.got.tgz:202211.got - 2010.06.03 18:47:42.
