data_PCOD9285288
_publ_section_title
;
Structure prediction by ZEFSAII (Michael W. Deem and Ramdas Pophale) SiO2 
 PCOD9285288
Probable space group: C 2/C
;
_chemical_formula_sum "Si O2"
_cell_formula_units_Z 64
_cell_length_a 15.119129
_cell_length_b 14.487150
_cell_length_c 18.297498
_cell_angle_alpha 90.000000
_cell_angle_beta 45.752531
_cell_angle_gamma 90.000000
_cell_volume 2870.888035
_symmetry_space_group_name_H-M "C 2/C"
_symmetry_group_IT_number 15
_symmetry_cell_setting 'monoclinic'
loop_
_space_group_symop_operation_xyz
x,y,z
-x,y,1/2-z
-x,-y,-z
x,-y,1/2+z
1/2+x,1/2+y,z
1/2-x,1/2+y,1/2-z
1/2-x,1/2-y,-z
1/2+x,1/2-y,1/2+z
loop_
_atom_site_type_symbol
_atom_site_label
_atom_site_fract_x
_atom_site_fract_y
_atom_site_fract_z
Si Si1 0.463653 0.045014 0.441978
Si Si2 0.864569 0.269541 0.835345
Si Si3 0.001852 0.013092 0.412029
Si Si4 0.529788 0.859508 0.364179
Si Si5 0.368306 0.192478 0.097137
Si Si6 0.919629 0.168485 0.230305
Si Si7 0.314077 0.645362 0.725983
Si Si8 0.211255 0.894734 0.022907
O O1 0.556718 0.131189 0.386661
O O2 0.324069 0.079716 0.511985
O O3 0.500000 0.000000 0.500000
O O4 0.479294 0.961362 0.375546
O O5 0.826833 0.218192 0.783785
O O6 0.770783 0.346068 0.917813
O O7 0.000000 0.310411 0.750000
O O8 0.867381 0.186560 0.893508
O O9 0.872151 0.980079 0.452579
O O10 0.102785 0.944673 0.317633
O O11 0.000000 0.000000 0.500000
O O12 0.041100 0.114612 0.365054
O O13 0.443335 0.820985 0.479206
O O14 0.544041 0.775670 0.300133
O O15 0.670600 0.878637 0.306196
O O16 0.226614 0.159540 0.172462
O O17 0.358487 0.297590 0.129262
O O18 0.000000 0.128398 0.250000
#
# Coordination Sequence:
#
# PCOD9285288 Si02
#       8
#     8   8   8   8   8   8   8   8
#     4  10  21  41  69  96 132 180 229 279 346 408
#     4  11  22  41  69 102 143 170 223 288 357 423
#     4  12  28  47  71 102 146 184 236 292 355 415
#     4  10  23  45  68  95 140 186 235 283 340 407
#     4  10  22  42  73  99 139 178 231 286 356 415
#     4  11  27  45  71 102 137 187 244 287 342 419
#     4  11  23  41  72 100 136 184 227 287 358 415
#     4  11  26  42  68 107 136 183 227 289 352 417
#
# _framework density 22.292753999999999
#
# number of rings (size 3 to 8) (size 9 to 14) (size 15 to 20)
#    0.000    1.250    1.250    3.750   12.250    0.500 
#    6.750    0.000    0.000    0.000    0.000    0.000 
#    0.000    0.000    0.000    0.000    0.000    0.000 
#
# Total GULP energy -178839.485621 kJ/mol
# GULP energy per Si atom -5588.733926 kJ/mol
# Density = 2.224202 g / cm^3
# Si number density = 22.292754 Si / 1000 Ang^3
#
#
#
# Elastic Constant Matrix: (Units=GPa)
#
#
# Indices 1 2 3 4 5 6 
#
# 1 87.1367 21.3282 36.2264 0.0000 -12.3337 0.0000
# 2 21.3282 64.8673 14.1689 0.0000 -20.0669 0.0000
# 3 36.2264 14.1689 92.7631 0.0000 -19.7992 0.0000
# 4 0.0000 0.0000 0.0000 20.9520 0.0000 -1.8775
# 5 -12.3337 -20.0669 -19.7992 0.0000 26.4530 0.0000
# 6 0.0000 0.0000 0.0000 -1.8775 0.0000 25.3548
#
#
#
# Elastic Compliance Matrix: (Units=1/GPa)
#
#
# Indices 1 2 3 4 5 6 
#
# 1 0.014492 -0.003581 -0.005058 0.000000 0.000254 0.000000
# 2 -0.003581 0.021032 0.001470 0.000000 0.015385 0.000000
# 3 -0.005058 0.001470 0.014598 0.000000 0.009683 0.000000
# 4 0.000000 0.000000 0.000000 0.048047 0.000000 0.003558
# 5 0.000254 0.015385 0.009683 0.000000 0.056839 0.000000
# 6 0.000000 0.000000 0.000000 0.003558 0.000000 0.039704
#
#
# Mechanical properties :
#
#
# Convention : Reuss Voigt Hill
#
# Bulk Modulus (GPa) = 27.94702 43.13490 35.54096
# Shear Modulus (GPa) = 22.62672 26.08819 24.35745
#
# Velocity S-wave (km/s) = 3.18933 3.42461 3.30906
# Velocity P-wave (km/s) = 5.11136 5.91849 5.52967
#
# Compressibility (1/GPa) = 0.03578199
#
# Stress axis : x y z
#
# Youngs Moduli (GPa) = 69.00519 47.54673 68.50446
#
# Poissons Ratio (x) = 0.17028 0.34650
# Poissons Ratio (y) = 0.24713 -0.10069
# Poissons Ratio (z) = 0.34904 -0.06989
#
# Static dielectric constant tensor:
#      x y z
#    x 1.830430 0.000000 0.054060 
#    y 0.000000 1.826320 0.000000 
#    z 0.054060 0.000000 1.836660 
# 
# From -- ./inp_files/205685.got.cif
#   From: 2010.05.17/outbox.cif.g08.bks.cpg/sg15_103_cif.got.tgz:205685.got - 2010.06.03 18:47:42.
