data_PCOD9285154
_publ_section_title
;
Structure prediction by ZEFSAII (Michael W. Deem and Ramdas Pophale) SiO2 
 PCOD9285154
Probable space group: C 2/C
;
_chemical_formula_sum "Si O2"
_cell_formula_units_Z 48
_cell_length_a 17.086115
_cell_length_b 15.527272
_cell_length_c 14.805242
_cell_angle_alpha 90.000000
_cell_angle_beta 151.242017
_cell_angle_gamma 90.000000
_cell_volume 1889.727614
_symmetry_space_group_name_H-M "C 2/C"
_symmetry_group_IT_number 15
_symmetry_cell_setting 'monoclinic'
loop_
_space_group_symop_operation_xyz
x,y,z
-x,y,1/2-z
-x,-y,-z
x,-y,1/2+z
1/2+x,1/2+y,z
1/2-x,1/2+y,1/2-z
1/2-x,1/2-y,-z
1/2+x,1/2-y,1/2+z
loop_
_atom_site_type_symbol
_atom_site_label
_atom_site_fract_x
_atom_site_fract_y
_atom_site_fract_z
Si Si1 0.327997 0.537163 0.618192
Si Si2 0.194599 0.490258 0.674303
Si Si3 0.803040 0.372564 0.670044
Si Si4 0.104498 0.733118 0.784123
Si Si5 0.970843 0.787205 0.343555
Si Si6 0.863947 0.845453 0.428258
O O1 0.500000 0.502894 0.750000
O O2 0.245509 0.491734 0.620770
O O3 0.211875 0.549170 0.414453
O O4 0.371710 0.633662 0.698308
O O5 0.225321 0.401653 0.756365
O O6 0.318667 0.557935 0.849458
O O7 0.000000 0.500000 0.500000
O O8 0.954478 0.313136 0.805722
O O9 0.653988 0.308717 0.505122
O O10 0.189415 0.687165 0.786973
O O11 0.000000 0.677490 0.750000
O O12 0.999085 0.814456 0.639397
O O13 0.250000 0.750000 0.000000
O O14 0.922017 0.796358 0.398125
#
# Coordination Sequence:
#
# PCOD9285154 Si02
#       6
#     8   8   8   8   8   8
#     4   9  22  46  73 107 144 192 250 307 379 450
#     4  11  27  47  68 107 156 200 247 308 390 461
#     4  11  24  45  75 106 148 190 248 309 377 444
#     4   9  19  39  67  99 133 187 249 305 365 445
#     4  10  22  40  73 107 136 188 241 310 369 446
#     4  10  21  41  67  98 146 189 246 309 380 459
#
# _framework density 25.400486000000001
#
# number of rings (size 3 to 8) (size 9 to 14) (size 15 to 20)
#    0.000    2.000    0.000    1.500    7.000    6.667 
#    3.000   12.500    0.000    0.000    0.000    0.000 
#    0.000    0.000    0.000    0.000    0.000    0.000 
#
# Total GULP energy -133830.187212 kJ/mol
# GULP energy per Si atom -5576.257801 kJ/mol
# Density = 2.534267 g / cm^3
# Si number density = 25.400486 Si / 1000 Ang^3
#
#
#
# Elastic Constant Matrix: (Units=GPa)
#
#
# Indices 1 2 3 4 5 6 
#
# 1 215.9063 35.4263 48.2174 0.0001 -14.3562 0.0002
# 2 35.4263 61.9711 22.7837 0.0001 -3.0267 0.0000
# 3 48.2174 22.7837 64.7451 -0.0001 -2.3107 0.0000
# 4 0.0001 0.0001 -0.0001 5.9872 0.0000 16.8743
# 5 -14.3562 -3.0267 -2.3107 0.0000 35.1153 0.0001
# 6 0.0002 0.0000 0.0000 16.8743 0.0001 34.8259
#
#
#
# Elastic Compliance Matrix: (Units=1/GPa)
#
#
# Indices 1 2 3 4 5 6 
#
# 1 0.005895 -0.001934 -0.003638 0.000000 0.002004 0.000000
# 2 -0.001934 0.019217 -0.005303 0.000001 0.000517 0.000000
# 3 -0.003638 -0.005303 0.019998 -0.000001 -0.000628 0.000001
# 4 0.000000 0.000001 -0.000001 -0.456837 -0.000001 0.221353
# 5 0.002004 0.000517 -0.000628 -0.000001 0.029300 0.000000
# 6 0.000000 0.000000 0.000001 0.221353 0.000000 -0.078539
#
#
# Mechanical properties :
#
#
# Convention : Reuss Voigt Hill
#
# Bulk Modulus (GPa) = 42.81011 61.71970 52.26491
# Shear Modulus (GPa) = -11.58942 30.93202 9.67130
#
# Velocity S-wave (km/s) = -2.13836 3.49345 1.95341
# Velocity P-wave (km/s) = 3.28540 6.37366 5.07038
#
# Compressibility (1/GPa) = 0.02335897
#
# Stress axis : x y z
#
# Youngs Moduli (GPa) = 169.64465 52.03600 50.00470
#
# Poissons Ratio (x) = 0.10066 0.18190
# Poissons Ratio (y) = 0.32817 0.26520
# Poissons Ratio (z) = 0.61711 0.27597
#
# Static dielectric constant tensor:
#      x y z
#    x 1.975520 0.000000 -0.035600 
#    y 0.000000 2.174250 0.000000 
#    z -0.035600 0.000000 2.229300 
# 
# From -- ./inp_files/163326.got.cif
#   From: 2010.05.17/outbox.cif.g08.bks.cpg/sg15_82_cif.got.tgz:163326.got - 2010.06.03 18:47:42.
