data_PCOD9285087
_publ_section_title
;
Structure prediction by ZEFSAII (Michael W. Deem and Ramdas Pophale) SiO2 
 PCOD9285087
Probable space group: C 2/C
;
_chemical_formula_sum "Si O2"
_cell_formula_units_Z 56
_cell_length_a 15.701276
_cell_length_b 12.714683
_cell_length_c 20.476882
_cell_angle_alpha 90.000000
_cell_angle_beta 34.314201
_cell_angle_gamma 90.000000
_cell_volume 2304.496555
_symmetry_space_group_name_H-M "C 2/C"
_symmetry_group_IT_number 15
_symmetry_cell_setting 'monoclinic'
loop_
_space_group_symop_operation_xyz
x,y,z
-x,y,1/2-z
-x,-y,-z
x,-y,1/2+z
1/2+x,1/2+y,z
1/2-x,1/2+y,1/2-z
1/2-x,1/2-y,-z
1/2+x,1/2-y,1/2+z
loop_
_atom_site_type_symbol
_atom_site_label
_atom_site_fract_x
_atom_site_fract_y
_atom_site_fract_z
Si Si1 0.172746 0.045118 0.323042
Si Si2 0.983474 0.533286 0.623665
Si Si3 0.862671 0.784134 0.370387
Si Si4 0.596158 0.141426 0.957371
Si Si5 0.491392 0.489819 0.826624
Si Si6 0.726226 0.143378 0.555083
Si Si7 0.082081 0.832616 0.446419
O O1 0.343927 0.036709 0.236731
O O2 0.099179 0.933242 0.390019
O O3 0.149115 0.038918 0.260652
O O4 0.070156 0.137847 0.416199
O O5 0.083869 0.457979 0.513952
O O6 0.074425 0.589834 0.623714
O O7 0.918530 0.613359 0.609789
O O8 0.750000 0.750000 0.500000
O O9 0.751815 0.807564 0.380373
O O10 0.944250 0.889115 0.346909
O O11 0.000000 0.718787 0.250000
O O12 0.458640 0.221947 0.059533
O O13 0.500000 0.440775 0.750000
O O14 0.358433 0.437828 0.952110
O O15 0.750000 0.250000 0.500000
O O16 0.768462 0.170067 0.603088
#
# Coordination Sequence:
#
# PCOD9285087 Si02
#       7
#     8   8   8   8   8   8   8
#     4  10  23  41  65  92 128 182 221 279 349 417
#     4  11  23  40  67  98 129 171 236 281 334 416
#     4  11  23  40  66  98 134 179 230 291 354 421
#     4  11  23  41  66  97 132 174 229 291 339 421
#     4  10  21  41  67  90 129 179 226 283 351 415
#     4  11  22  43  63  95 133 173 222 286 343 416
#     4  10  23  43  65  91 140 176 219 276 363 415
#
# _framework density 24.300317
#
# number of rings (size 3 to 8) (size 9 to 14) (size 15 to 20)
#    0.000    1.429    2.857    2.571    2.000    2.857 
#    2.571    0.000    0.000    0.000    0.000    0.000 
#    0.000    0.000    0.000    0.000    0.000    0.000 
#
# Total GULP energy -156370.161883 kJ/mol
# GULP energy per Si atom -5584.648639 kJ/mol
# Density = 2.424501 g / cm^3
# Si number density = 24.300317 Si / 1000 Ang^3
#
#
#
# Elastic Constant Matrix: (Units=GPa)
#
#
# Indices 1 2 3 4 5 6 
#
# 1 146.8899 32.3428 22.1097 0.0001 -35.7847 0.0000
# 2 32.3428 62.5569 3.7746 0.0000 -2.1229 0.0000
# 3 22.1097 3.7746 90.7215 0.0000 -22.5805 0.0000
# 4 0.0001 0.0000 0.0000 5.4354 0.0000 1.3780
# 5 -35.7847 -2.1229 -22.5805 0.0000 34.5384 0.0000
# 6 0.0000 0.0000 0.0000 1.3780 0.0000 27.7075
#
#
#
# Elastic Compliance Matrix: (Units=1/GPa)
#
#
# Indices 1 2 3 4 5 6 
#
# 1 0.010506 -0.005086 0.000338 0.000000 0.010794 0.000000
# 2 -0.005086 0.018500 -0.000667 0.000000 -0.004569 0.000000
# 3 0.000338 -0.000667 0.013192 0.000000 0.008933 0.000000
# 4 0.000000 0.000000 0.000000 0.186330 0.000000 -0.009267
# 5 0.010794 -0.004569 0.008933 0.000000 0.045696 0.000000
# 6 0.000000 0.000000 0.000000 -0.009267 0.000000 0.036552
#
#
# Mechanical properties :
#
#
# Convention : Reuss Voigt Hill
#
# Bulk Modulus (GPa) = 31.88087 46.29140 39.08613
# Shear Modulus (GPa) = 15.05736 29.66567 22.36152
#
# Velocity S-wave (km/s) = 2.49195 3.49778 3.03680
# Velocity P-wave (km/s) = 4.62901 5.95010 5.33064
#
# Compressibility (1/GPa) = 0.03136677
#
# Stress axis : x y z
#
# Youngs Moduli (GPa) = 95.18058 54.05349 75.80517
#
# Poissons Ratio (x) = 0.27492 -0.02559
# Poissons Ratio (y) = 0.48409 0.05059
# Poissons Ratio (z) = -0.03214 0.03607
#
# Static dielectric constant tensor:
#      x y z
#    x 1.961100 0.000000 0.016640 
#    y 0.000000 1.959990 0.000000 
#    z 0.016640 0.000000 2.025090 
# 
# From -- ./inp_files/244505.got.cif
#   From: 2010.05.17/outbox.cif.g08.bks.cpg/sg15_123_cif.got.tgz:244505.got - 2010.06.03 18:47:42.
