data_PCOD9285994
_publ_section_title
;
Structure prediction by ZEFSAII (Michael W. Deem and Ramdas Pophale) SiO2 
 PCOD9285994
Probable space group: C 2/C
;
_chemical_formula_sum "Si O2"
_cell_formula_units_Z 56
_cell_length_a 8.134454
_cell_length_b 32.821078
_cell_length_c 11.455207
_cell_angle_alpha 90.000000
_cell_angle_beta 121.445603
_cell_angle_gamma 90.000000
_cell_volume 2609.170016
_symmetry_space_group_name_H-M "C 2/C"
_symmetry_group_IT_number 15
_symmetry_cell_setting 'monoclinic'
loop_
_space_group_symop_operation_xyz
x,y,z
-x,y,1/2-z
-x,-y,-z
x,-y,1/2+z
1/2+x,1/2+y,z
1/2-x,1/2+y,1/2-z
1/2-x,1/2-y,-z
1/2+x,1/2-y,1/2+z
loop_
_atom_site_type_symbol
_atom_site_label
_atom_site_fract_x
_atom_site_fract_y
_atom_site_fract_z
Si Si1 0.275490 0.377101 0.943934
Si Si2 0.500000 0.495716 0.750000
Si Si3 0.283041 0.068764 0.299628
Si Si4 0.092450 0.781397 0.899198
Si Si5 0.000000 0.587799 0.750000
Si Si6 0.832569 0.444452 0.424272
Si Si7 0.697359 0.213713 0.392896
Si Si8 0.187556 0.128991 0.475759
O O1 0.192456 0.402714 0.803274
O O2 0.177741 0.333121 0.927751
O O3 0.496215 0.373739 0.983579
O O4 0.249050 0.402600 0.051803
O O5 0.373565 0.466020 0.784799
O O6 0.338681 0.523080 0.628103
O O7 0.476547 0.048528 0.425504
O O8 0.203259 0.097366 0.374730
O O9 0.190443 0.825711 0.922897
O O10 0.000000 0.763355 0.750000
O O11 0.898292 0.788659 0.898716
O O12 0.250000 0.750000 0.000000
O O13 0.893466 0.561283 0.811259
O O14 0.858219 0.616647 0.624794
O O15 0.500000 0.223491 0.250000
O O16 0.750000 0.250000 0.500000
#
# Coordination Sequence:
#
# PCOD9285994 Si02
#       8
#     8   4   8   8   4   8   8   8
#     4  11  22  45  73  96 134 180 231 278 345 414
#     4  12  24  44  66  99 140 170 227 286 350 406
#     4  11  22  44  70  99 127 179 228 283 340 411
#     4  11  24  41  68 101 136 178 233 283 345 416
#     4  10  24  44  64  93 138 180 225 276 342 408
#     4  11  25  43  65 100 133 180 226 283 344 407
#     4  11  24  44  67 102 138 179 226 287 343 410
#     4  10  21  42  69  96 132 178 228 278 342 414
#
# _framework density 21.462762999999999
#
# number of rings (size 3 to 8) (size 9 to 14) (size 15 to 20)
#    0.000    1.143    1.429    5.143    1.000    4.000 
#   14.143    0.000    0.000    0.000    0.000    0.000 
#    0.000    0.000    0.000    0.000    0.000    0.000 
#
# Total GULP energy -156260.198499 kJ/mol
# GULP energy per Si atom -5580.721375 kJ/mol
# Density = 2.141391 g / cm^3
# Si number density = 21.462763 Si / 1000 Ang^3
#
#
#
# Elastic Constant Matrix: (Units=GPa)
#
#
# Indices 1 2 3 4 5 6 
#
# 1 87.0503 51.4046 35.8524 0.0000 18.3805 0.0000
# 2 51.4046 137.3254 69.6644 0.0000 23.0982 0.0000
# 3 35.8524 69.6644 113.5614 0.0000 20.7547 0.0000
# 4 0.0000 0.0000 0.0000 4.1443 0.0000 55.6095
# 5 18.3805 23.0982 20.7547 0.0000 50.0677 0.0000
# 6 0.0000 0.0000 0.0000 55.6095 0.0000 -43.6972
#
#
#
# Elastic Compliance Matrix: (Units=1/GPa)
#
#
# Indices 1 2 3 4 5 6 
#
# 1 0.015397 -0.004466 -0.001585 0.000000 -0.002935 0.000000
# 2 -0.004466 0.012133 -0.005745 0.000000 -0.001577 0.000000
# 3 -0.001585 -0.005745 0.013243 0.000000 -0.002257 0.000000
# 4 0.000000 0.000000 0.000000 0.013349 0.000000 0.016988
# 5 -0.002935 -0.001577 -0.002257 0.000000 0.022714 0.000000
# 6 0.000000 0.000000 0.000000 0.016988 0.000000 -0.001266
#
#
# Mechanical properties :
#
#
# Convention : Reuss Voigt Hill
#
# Bulk Modulus (GPa) = 58.20140 72.41997 65.31068
# Shear Modulus (GPa) = 47.66920 14.17068 30.91994
#
# Velocity S-wave (km/s) = 4.71788 2.57231 3.79968
# Velocity P-wave (km/s) = 7.54017 6.52976 7.05308
#
# Compressibility (1/GPa) = 0.01718172
#
# Stress axis : x y z
#
# Youngs Moduli (GPa) = 64.94618 82.41763 75.51072
#
# Poissons Ratio (x) = 0.36807 0.11969
# Poissons Ratio (y) = 0.29004 0.43382
# Poissons Ratio (z) = 0.10294 0.47350
#
# Static dielectric constant tensor:
#      x y z
#    x 1.819600 0.000000 0.025220 
#    y 0.000000 2.227310 0.000000 
#    z 0.025220 0.000000 1.786240 
# 
# From -- ./inp_files/82727.got.cif
#   From: 2010.05.17/outbox.cif.g08.bks.cpg/sg15_42_cif.got.tgz:82727.got - 2010.06.03 18:47:42.
