data_PCOD9285733
_publ_section_title
;
Structure prediction by ZEFSAII (Michael W. Deem and Ramdas Pophale) SiO2 
 PCOD9285733
Probable space group: C 2/C
;
_chemical_formula_sum "Si O2"
_cell_formula_units_Z 48
_cell_length_a 13.906072
_cell_length_b 13.446595
_cell_length_c 12.507083
_cell_angle_alpha 90.000000
_cell_angle_beta 65.041552
_cell_angle_gamma 90.000000
_cell_volume 2120.290025
_symmetry_space_group_name_H-M "C 2/C"
_symmetry_group_IT_number 15
_symmetry_cell_setting 'monoclinic'
loop_
_space_group_symop_operation_xyz
x,y,z
-x,y,1/2-z
-x,-y,-z
x,-y,1/2+z
1/2+x,1/2+y,z
1/2-x,1/2+y,1/2-z
1/2-x,1/2-y,-z
1/2+x,1/2-y,1/2+z
loop_
_atom_site_type_symbol
_atom_site_label
_atom_site_fract_x
_atom_site_fract_y
_atom_site_fract_z
Si Si1 0.931822 0.822716 0.060626
Si Si2 0.232836 0.835786 0.166121
Si Si3 0.169369 0.481234 0.219880
Si Si4 0.076573 0.589618 0.425867
Si Si5 0.329511 0.626834 0.044812
Si Si6 0.253084 0.131604 0.998947
O O1 0.863687 0.827233 0.202999
O O2 0.954793 0.703521 0.034186
O O3 0.863123 0.878123 0.000022
O O4 0.044937 0.873025 0.012437
O O5 0.314775 0.905165 0.190672
O O6 0.283607 0.729516 0.114759
O O7 0.203763 0.880349 0.064237
O O8 0.087444 0.564330 0.295388
O O9 0.274286 0.541872 0.139314
O O10 0.156521 0.411620 0.123189
O O11 0.199515 0.591032 0.412857
O O12 0.000000 0.500000 0.500000
O O13 0.250000 0.250000 0.000000
#
# Coordination Sequence:
#
# PCOD9285733 Si02
#       6
#     8   8   8   8   8   8
#     4  10  21  42  66  91 135 182 214 283 345 398
#     4  10  22  40  62  95 136 168 221 288 330 399
#     4  11  22  40  68  94 129 174 219 274 331 404
#     4  11  22  41  65  98 130 168 229 276 338 401
#     4  11  22  40  65  96 131 177 226 271 342 401
#     4   9  22  42  62  89 135 170 212 278 334 400
#
# _framework density 22.638413
#
# number of rings (size 3 to 8) (size 9 to 14) (size 15 to 20)
#    0.000    1.667    1.667    2.500    0.000    4.667 
#    3.000    5.833    0.000    0.000    0.000    0.000 
#    0.000    0.000    0.000    0.000    0.000    0.000 
#
# Total GULP energy -133677.126234 kJ/mol
# GULP energy per Si atom -5569.880260 kJ/mol
# Density = 2.258689 g / cm^3
# Si number density = 22.638413 Si / 1000 Ang^3
#
#
#
# Elastic Constant Matrix: (Units=GPa)
#
#
# Indices 1 2 3 4 5 6 
#
# 1 69.0172 10.4236 30.5906 0.0000 7.6906 0.0000
# 2 10.4236 86.6175 2.2173 0.0000 2.9266 0.0000
# 3 30.5906 2.2173 73.1355 0.0000 -7.1551 0.0000
# 4 0.0000 0.0000 0.0000 48.5892 0.0000 4.4708
# 5 7.6906 2.9266 -7.1551 0.0000 38.4550 0.0000
# 6 0.0000 0.0000 0.0000 4.4708 0.0000 27.1798
#
#
#
# Elastic Compliance Matrix: (Units=1/GPa)
#
#
# Indices 1 2 3 4 5 6 
#
# 1 0.019106 -0.001906 -0.008447 0.000000 -0.005248 0.000000
# 2 -0.001906 0.011779 0.000397 0.000000 -0.000442 0.000000
# 3 -0.008447 0.000397 0.017678 0.000000 0.004948 0.000000
# 4 0.000000 0.000000 0.000000 0.020897 0.000000 -0.003437
# 5 -0.005248 -0.000442 0.004948 0.000000 0.028008 0.000000
# 6 0.000000 0.000000 0.000000 -0.003437 0.000000 0.037357
#
#
# Mechanical properties :
#
#
# Convention : Reuss Voigt Hill
#
# Bulk Modulus (GPa) = 34.90217 35.02590 34.96403
# Shear Modulus (GPa) = 30.43436 35.21406 32.82421
#
# Velocity S-wave (km/s) = 3.67054 3.94826 3.81193
# Velocity P-wave (km/s) = 5.78053 6.02416 5.90360
#
# Compressibility (1/GPa) = 0.02865152
#
# Stress axis : x y z
#
# Youngs Moduli (GPa) = 52.34059 84.89616 56.56593
#
# Poissons Ratio (x) = 0.16178 0.47781
# Poissons Ratio (y) = 0.09974 -0.02244
# Poissons Ratio (z) = 0.44212 -0.03368
#
# Static dielectric constant tensor:
#      x y z
#    x 1.910970 0.000000 0.026070 
#    y 0.000000 1.866670 0.000000 
#    z 0.026070 0.000000 1.896150 
# 
# From -- ./inp_files/96852.got.cif
#   From: 2010.05.17/outbox.cif.g08.bks.cpg/sg15_49_cif.got.tgz:96852.got - 2010.06.03 18:47:42.
