data_PCOD9285561
_publ_section_title
;
Structure prediction by ZEFSAII (Michael W. Deem and Ramdas Pophale) SiO2 
 PCOD9285561
Probable space group: C 2/C
;
_chemical_formula_sum "Si O2"
_cell_formula_units_Z 48
_cell_length_a 28.615143
_cell_length_b 9.341676
_cell_length_c 15.710844
_cell_angle_alpha 90.000000
_cell_angle_beta 38.464902
_cell_angle_gamma 90.000000
_cell_volume 2612.372709
_symmetry_space_group_name_H-M "C 2/C"
_symmetry_group_IT_number 15
_symmetry_cell_setting 'monoclinic'
loop_
_space_group_symop_operation_xyz
x,y,z
-x,y,1/2-z
-x,-y,-z
x,-y,1/2+z
1/2+x,1/2+y,z
1/2-x,1/2+y,1/2-z
1/2-x,1/2-y,-z
1/2+x,1/2-y,1/2+z
loop_
_atom_site_type_symbol
_atom_site_label
_atom_site_fract_x
_atom_site_fract_y
_atom_site_fract_z
Si Si1 0.086844 0.685923 0.633256
Si Si2 0.413262 0.516054 0.898197
Si Si3 0.224682 0.086948 0.526060
Si Si4 0.716147 0.017442 0.880372
Si Si5 0.684546 0.173936 0.650219
Si Si6 0.675820 0.308851 0.849040
O O1 0.142495 0.570803 0.512512
O O2 0.111115 0.690604 0.697295
O O3 0.000000 0.647833 0.750000
O O4 0.099233 0.844462 0.576393
O O5 0.500000 0.536893 0.750000
O O6 0.354255 0.567777 0.909695
O O7 0.393259 0.605212 0.011345
O O8 0.250000 0.250000 0.500000
O O9 0.228556 0.028319 0.617138
O O10 0.285807 0.989243 0.388971
O O11 0.758217 0.926023 0.749120
O O12 0.695567 0.175205 0.880172
O O13 0.750000 0.250000 0.500000
O O14 0.671890 0.242496 0.760037
#
# Coordination Sequence:
#
# PCOD9285561 Si02
#       6
#     8   8   8   8   8   8
#     4  10  21  42  64  88 125 165 195 246 315 358
#     4  11  23  40  63  90 126 158 201 252 307 357
#     4  11  20  40  61  90 119 163 203 244 299 364
#     4  11  22  36  64  92 121 158 209 250 291 368
#     4  11  20  40  64  84 123 159 200 250 303 354
#     4  12  22  37  62  94 121 157 208 253 294 359
#
# _framework density 18.374101
#
# number of rings (size 3 to 8) (size 9 to 14) (size 15 to 20)
#    0.000    1.000    6.667    2.000    0.000    0.667 
#    0.000   10.000    0.000    0.000    0.000    0.000 
#    0.000    0.000    0.000    0.000    0.000    0.000 
#
# Total GULP energy -133899.414977 kJ/mol
# GULP energy per Si atom -5579.142291 kJ/mol
# Density = 1.833228 g / cm^3
# Si number density = 18.374101 Si / 1000 Ang^3
#
#
#
# Elastic Constant Matrix: (Units=GPa)
#
#
# Indices 1 2 3 4 5 6 
#
# 1 108.7097 20.4126 47.0661 0.0000 -6.4790 0.0000
# 2 20.4126 125.8115 48.1883 -0.0002 3.2080 0.0001
# 3 47.0661 48.1883 86.0846 0.0000 4.4170 0.0001
# 4 0.0000 -0.0002 0.0000 26.0978 0.0000 2.9522
# 5 -6.4790 3.2080 4.4170 0.0000 34.2368 0.0000
# 6 0.0000 0.0001 0.0001 2.9522 0.0000 26.7344
#
#
#
# Elastic Compliance Matrix: (Units=1/GPa)
#
#
# Indices 1 2 3 4 5 6 
#
# 1 0.012451 0.000723 -0.007378 0.000000 0.003240 0.000000
# 2 0.000723 0.010161 -0.006082 0.000000 -0.000031 0.000000
# 3 -0.007378 -0.006082 0.019225 0.000000 -0.003307 0.000000
# 4 0.000000 0.000000 0.000000 0.038802 0.000000 -0.004285
# 5 0.003240 -0.000031 -0.003307 0.000000 0.030251 0.000000
# 6 0.000000 0.000000 0.000000 -0.004285 0.000000 0.037878
#
#
# Mechanical properties :
#
#
# Convention : Reuss Voigt Hill
#
# Bulk Modulus (GPa) = 61.11503 61.32662 61.22083
# Shear Modulus (GPa) = 27.82469 31.07639 29.45054
#
# Velocity S-wave (km/s) = 3.89568 4.11702 4.00788
# Velocity P-wave (km/s) = 7.31907 7.48658 7.40330
#
# Compressibility (1/GPa) = 0.01636259
#
# Stress axis : x y z
#
# Youngs Moduli (GPa) = 80.31721 98.41207 52.01593
#
# Poissons Ratio (x) = -0.07119 0.38380
# Poissons Ratio (y) = -0.05810 0.31636
# Poissons Ratio (z) = 0.59262 0.59855
#
# Static dielectric constant tensor:
#      x y z
#    x 1.661250 0.000000 0.031440 
#    y 0.000000 1.669790 0.000000 
#    z 0.031440 0.000000 1.614970 
# 
# From -- ./inp_files/176896.got.cif
#   From: 2010.05.17/outbox.cif.g08.bks.cpg/sg15_89_cif.got.tgz:176896.got - 2010.06.03 18:47:42.
