data_PCOD9285059
_publ_section_title
;
Structure prediction by ZEFSAII (Michael W. Deem and Ramdas Pophale) SiO2 
 PCOD9285059
Probable space group: C 2/C
;
_chemical_formula_sum "Si O2"
_cell_formula_units_Z 60
_cell_length_a 8.851303
_cell_length_b 15.014799
_cell_length_c 21.469665
_cell_angle_alpha 90.000000
_cell_angle_beta 70.247678
_cell_angle_gamma 90.000000
_cell_volume 2685.446658
_symmetry_space_group_name_H-M "C 2/C"
_symmetry_group_IT_number 15
_symmetry_cell_setting 'monoclinic'
loop_
_space_group_symop_operation_xyz
x,y,z
-x,y,1/2-z
-x,-y,-z
x,-y,1/2+z
1/2+x,1/2+y,z
1/2-x,1/2+y,1/2-z
1/2-x,1/2-y,-z
1/2+x,1/2-y,1/2+z
loop_
_atom_site_type_symbol
_atom_site_label
_atom_site_fract_x
_atom_site_fract_y
_atom_site_fract_z
Si Si1 0.857872 0.932117 0.500289
Si Si2 0.000000 0.161157 0.750000
Si Si3 0.487358 0.254683 0.015702
Si Si4 0.376357 0.818340 0.411042
Si Si5 0.313108 0.463673 0.365701
Si Si6 0.551704 0.005736 0.116146
Si Si7 0.036085 0.688334 0.347721
Si Si8 0.093742 0.153809 0.173549
O O1 0.849003 0.920106 0.427076
O O2 0.690837 0.972304 0.547272
O O3 0.899500 0.834886 0.521082
O O4 0.000000 0.000000 0.500000
O O5 0.134401 0.096799 0.700428
O O6 0.036150 0.229616 0.800855
O O7 0.311518 0.299683 0.050893
O O8 0.536344 0.214786 0.075074
O O9 0.460652 0.179793 0.967006
O O10 0.449324 0.731913 0.367712
O O11 0.400721 0.907139 0.367588
O O12 0.417763 0.554333 0.350818
O O13 0.126816 0.491218 0.386215
O O14 0.542243 0.093654 0.160844
O O15 0.220798 0.668528 0.336111
O O16 0.000000 0.161597 0.250000
#
# Coordination Sequence:
#
# PCOD9285059 Si02
#       8
#     8   4   8   8   8   8   8   8
#     4  12  23  42  70 107 138 174 229 289 350 416
#     4  12  24  50  68  94 142 184 232 284 350 424
#     4  10  21  41  66  99 136 177 228 282 344 407
#     4  10  22  40  67 100 139 179 224 283 344 412
#     4  11  25  44  73 100 135 184 229 284 357 413
#     4  11  26  43  67 106 137 178 229 290 348 409
#     4  10  25  44  64  97 137 175 232 282 336 419
#     4  10  22  44  65  96 131 181 231 276 337 426
#
# _framework density 22.342651
#
# number of rings (size 3 to 8) (size 9 to 14) (size 15 to 20)
#    0.000    1.333    3.333    1.200    9.333    1.600 
#    3.600    1.333    0.000    0.000    0.000    0.000 
#    0.000    0.000    0.000    0.000    0.000    0.000 
#
# Total GULP energy -167528.871053 kJ/mol
# GULP energy per Si atom -5584.295702 kJ/mol
# Density = 2.229180 g / cm^3
# Si number density = 22.342651 Si / 1000 Ang^3
#
#
#
# Elastic Constant Matrix: (Units=GPa)
#
#
# Indices 1 2 3 4 5 6 
#
# 1 58.1583 25.9470 33.1015 0.0000 -12.5151 0.0000
# 2 25.9470 146.5011 30.7652 0.0000 -9.6092 0.0000
# 3 33.1015 30.7652 72.7283 0.0000 -12.2043 0.0000
# 4 0.0000 0.0000 0.0000 11.6404 0.0000 -13.9259
# 5 -12.5151 -9.6092 -12.2043 0.0000 16.6700 0.0000
# 6 0.0000 0.0000 0.0000 -13.9259 0.0000 24.9920
#
#
#
# Elastic Compliance Matrix: (Units=1/GPa)
#
#
# Indices 1 2 3 4 5 6 
#
# 1 0.025609 -0.001905 -0.008902 0.000000 0.011611 0.000000
# 2 -0.001905 0.007710 -0.002153 0.000000 0.001438 0.000000
# 3 -0.008902 -0.002153 0.019817 0.000000 0.006584 0.000000
# 4 0.000000 0.000000 0.000000 0.257692 0.000000 0.143590
# 5 0.011611 0.001438 0.006584 0.000000 0.074355 0.000000
# 6 0.000000 0.000000 0.000000 0.143590 0.000000 0.120023
#
#
# Mechanical properties :
#
#
# Convention : Reuss Voigt Hill
#
# Bulk Modulus (GPa) = 36.74165 50.77944 43.76055
# Shear Modulus (GPa) = 9.25588 23.16541 16.21064
#
# Velocity S-wave (km/s) = 2.03757 3.22347 2.69652
# Velocity P-wave (km/s) = 4.69211 6.05238 5.41513
#
# Compressibility (1/GPa) = 0.02721707
#
# Stress axis : x y z
#
# Youngs Moduli (GPa) = 39.04823 129.70667 50.46184
#
# Poissons Ratio (x) = 0.24706 0.44919
# Poissons Ratio (y) = 0.07438 0.10865
# Poissons Ratio (z) = 0.34759 0.27927
#
# Static dielectric constant tensor:
#      x y z
#    x 1.854680 0.000000 -0.059880 
#    y 0.000000 1.927560 0.000000 
#    z -0.059880 0.000000 1.903880 
# 
# From -- ./inp_files/264670.got.cif
#   From: 2010.05.17/outbox.cif.g08.bks.cpg/sg15_133_cif.got.tgz:264670.got - 2010.06.03 18:47:42.
