data_PCOD9285223
_publ_section_title
;
Structure prediction by ZEFSAII (Michael W. Deem and Ramdas Pophale) SiO2 
 PCOD9285223
Probable space group: C 2/C
;
_chemical_formula_sum "Si O2"
_cell_formula_units_Z 56
_cell_length_a 17.429627
_cell_length_b 14.402787
_cell_length_c 12.588381
_cell_angle_alpha 90.000000
_cell_angle_beta 50.296700
_cell_angle_gamma 90.000000
_cell_volume 2431.283893
_symmetry_space_group_name_H-M "C 2/C"
_symmetry_group_IT_number 15
_symmetry_cell_setting 'monoclinic'
loop_
_space_group_symop_operation_xyz
x,y,z
-x,y,1/2-z
-x,-y,-z
x,-y,1/2+z
1/2+x,1/2+y,z
1/2-x,1/2+y,1/2-z
1/2-x,1/2-y,-z
1/2+x,1/2-y,1/2+z
loop_
_atom_site_type_symbol
_atom_site_label
_atom_site_fract_x
_atom_site_fract_y
_atom_site_fract_z
Si Si1 0.935571 0.834909 0.915501
Si Si2 0.276540 0.830391 0.894100
Si Si3 0.000000 0.540746 0.750000
Si Si4 0.180428 0.010679 0.075402
Si Si5 0.915857 0.787700 0.527852
Si Si6 0.341590 0.140795 0.012827
Si Si7 0.500000 0.605750 0.750000
Si Si8 0.464482 0.117527 0.115382
O O1 0.876237 0.931497 0.966114
O O2 0.854859 0.751578 0.997787
O O3 0.000000 0.827633 0.750000
O O4 0.014852 0.823096 0.939165
O O5 0.389992 0.824852 0.757748
O O6 0.250000 0.750000 0.000000
O O7 0.200419 0.812605 0.863926
O O8 0.253470 0.931338 0.964835
O O9 0.905349 0.604678 0.855475
O O10 0.986324 0.474821 0.660527
O O11 0.237627 0.087849 0.093072
O O12 0.090902 0.957053 0.212997
O O13 0.953075 0.836254 0.386861
O O14 0.938386 0.678094 0.496278
O O15 0.399839 0.106957 0.066381
#
# Coordination Sequence:
#
# PCOD9285223 Si02
#       8
#     8   8   4   8   8   8   4   8
#     4  11  24  45  65  91 136 181 216 266 325 395
#     4  11  23  42  69 101 131 169 220 278 339 386
#     4  12  21  45  64  94 136 166 224 276 338 400
#     4  11  23  42  68  96 131 176 212 275 326 400
#     4  10  24  42  67  97 131 173 219 276 332 394
#     4  11  25  42  66  97 128 177 226 268 327 399
#     4  10  21  41  68  96 130 160 220 274 336 382
#     4  11  23  41  67  96 130 176 216 276 334 393
#
# _framework density 23.033097999999999
#
# number of rings (size 3 to 8) (size 9 to 14) (size 15 to 20)
#    0.000    1.143    2.857    3.857    2.000    3.429 
#    0.000    0.000    0.000    0.000    0.000    0.000 
#    0.000    0.000    0.000    0.000    0.000    0.000 
#
# Total GULP energy -156620.777373 kJ/mol
# GULP energy per Si atom -5593.599192 kJ/mol
# Density = 2.298067 g / cm^3
# Si number density = 23.033098 Si / 1000 Ang^3
#
#
#
# Elastic Constant Matrix: (Units=GPa)
#
#
# Indices 1 2 3 4 5 6 
#
# 1 66.5910 24.0244 -0.4794 0.0000 0.6084 0.0000
# 2 24.0244 86.5331 8.1259 0.0000 6.6852 0.0000
# 3 -0.4794 8.1259 45.1974 0.0000 4.2468 0.0000
# 4 0.0000 0.0000 0.0000 -15.5394 0.0000 -16.7171
# 5 0.6084 6.6852 4.2468 0.0000 37.9473 0.0000
# 6 0.0000 0.0000 0.0000 -16.7171 0.0000 42.2376
#
#
#
# Elastic Compliance Matrix: (Units=1/GPa)
#
#
# Indices 1 2 3 4 5 6 
#
# 1 0.016744 -0.004778 0.000993 0.000000 0.000462 0.000000
# 2 -0.004778 0.013248 -0.002244 0.000000 -0.002006 0.000000
# 3 0.000993 -0.002244 0.022743 0.000000 -0.002166 0.000000
# 4 0.000000 0.000000 0.000000 -0.045135 0.000000 -0.017864
# 5 0.000462 -0.002006 -0.002166 0.000000 0.026941 0.000000
# 6 0.000000 0.000000 0.000000 -0.017864 0.000000 0.016605
#
#
# Mechanical properties :
#
#
# Convention : Reuss Voigt Hill
#
# Bulk Modulus (GPa) = 24.58348 29.07370 26.82859
# Shear Modulus (GPa) = 65.13640 24.03914 44.58777
#
# Velocity S-wave (km/s) = 5.32361 3.23411 4.40456
# Velocity P-wave (km/s) = 6.96305 5.15712 6.12699
#
# Compressibility (1/GPa) = 0.04067772
#
# Stress axis : x y z
#
# Youngs Moduli (GPa) = 59.72431 75.48079 43.97020
#
# Poissons Ratio (x) = 0.36061 -0.04367
# Poissons Ratio (y) = 0.28533 0.09867
# Poissons Ratio (z) = -0.05931 0.16938
#
# Static dielectric constant tensor:
#      x y z
#    x 1.884800 0.000000 -0.005510 
#    y 0.000000 1.864380 0.000000 
#    z -0.005510 0.000000 1.865070 
# 
# From -- ./inp_files/105672.got.cif
#   From: 2010.05.17/outbox.cif.g08.bks.cpg/sg15_53_cif.got.tgz:105672.got - 2010.06.03 18:47:42.
