data_PCOD9285589
_publ_section_title
;
Structure prediction by ZEFSAII (Michael W. Deem and Ramdas Pophale) SiO2 
 PCOD9285589
Probable space group: C 2/C
;
_chemical_formula_sum "Si O2"
_cell_formula_units_Z 52
_cell_length_a 22.719658
_cell_length_b 11.049678
_cell_length_c 14.177081
_cell_angle_alpha 90.000000
_cell_angle_beta 36.393075
_cell_angle_gamma 90.000000
_cell_volume 2111.681385
_symmetry_space_group_name_H-M "C 2/C"
_symmetry_group_IT_number 15
_symmetry_cell_setting 'monoclinic'
loop_
_space_group_symop_operation_xyz
x,y,z
-x,y,1/2-z
-x,-y,-z
x,-y,1/2+z
1/2+x,1/2+y,z
1/2-x,1/2+y,1/2-z
1/2-x,1/2-y,-z
1/2+x,1/2-y,1/2+z
loop_
_atom_site_type_symbol
_atom_site_label
_atom_site_fract_x
_atom_site_fract_y
_atom_site_fract_z
Si Si1 0.939245 0.450726 0.986433
Si Si2 0.095878 0.878276 0.688615
Si Si3 0.139490 0.959012 0.809634
Si Si4 0.727503 0.693050 0.735345
Si Si5 0.655817 0.829041 0.997187
Si Si6 0.500000 0.223055 0.250000
Si Si7 0.331219 0.595200 0.013225
O O1 0.001504 0.359857 0.841024
O O2 0.831954 0.375333 0.133235
O O3 0.913463 0.566175 0.954001
O O4 0.000000 0.500000 0.000000
O O5 0.060708 0.906733 0.840124
O O6 0.127168 0.739743 0.629196
O O7 0.000000 0.900725 0.750000
O O8 0.174397 0.977273 0.545053
O O9 0.234364 0.883515 0.648672
O O10 0.167128 0.096157 0.754527
O O11 0.129887 0.938439 0.932134
O O12 0.664378 0.724288 0.908385
O O13 0.740488 0.817515 0.660467
O O14 0.593645 0.310285 0.128782
#
# Coordination Sequence:
#
# PCOD9285589 Si02
#       7
#     8   8   8   8   8   4   8
#     4  10  23  43  69  96 130 176 219 277 329 386
#     4  12  25  39  64  97 131 170 214 272 329 390
#     4  10  22  43  66  91 127 174 212 268 328 383
#     4   9  20  43  67  90 131 172 219 265 321 394
#     4  10  22  43  63  95 129 167 223 268 324 404
#     4  10  22  44  60  94 130 166 212 270 324 394
#     4  10  21  42  64  93 130 163 219 264 318 398
#
# _framework density 24.624927
#
# number of rings (size 3 to 8) (size 9 to 14) (size 15 to 20)
#    0.000    1.846    2.308    0.462    1.077    6.154 
#    8.308    0.000    0.000    0.000    0.000    0.000 
#    0.000    0.000    0.000    0.000    0.000    0.000 
#
# Total GULP energy -145151.352352 kJ/mol
# GULP energy per Si atom -5582.744321 kJ/mol
# Density = 2.456888 g / cm^3
# Si number density = 24.624927 Si / 1000 Ang^3
#
#
#
# Elastic Constant Matrix: (Units=GPa)
#
#
# Indices 1 2 3 4 5 6 
#
# 1 63.2685 17.7477 13.6047 0.0000 13.2368 0.0000
# 2 17.7477 130.9817 25.0734 0.0000 7.4020 0.0000
# 3 13.6047 25.0734 64.0213 0.0000 12.1059 0.0000
# 4 0.0000 0.0000 0.0000 36.1125 0.0000 2.1225
# 5 13.2368 7.4020 12.1059 0.0000 27.0574 0.0000
# 6 0.0000 0.0000 0.0000 2.1225 0.0000 23.7833
#
#
#
# Elastic Compliance Matrix: (Units=1/GPa)
#
#
# Indices 1 2 3 4 5 6 
#
# 1 0.018270 -0.001704 -0.001762 0.000000 -0.007683 0.000000
# 2 -0.001704 0.008432 -0.002908 0.000000 -0.000172 0.000000
# 3 -0.001762 -0.002908 0.018374 0.000000 -0.006563 0.000000
# 4 0.000000 0.000000 0.000000 0.027837 0.000000 -0.002484
# 5 -0.007683 -0.000172 -0.006563 0.000000 0.043701 0.000000
# 6 0.000000 0.000000 0.000000 -0.002484 0.000000 0.042268
#
#
# Mechanical properties :
#
#
# Convention : Reuss Voigt Hill
#
# Bulk Modulus (GPa) = 30.93263 41.23590 36.08426
# Shear Modulus (GPa) = 27.41138 30.84701 29.12920
#
# Velocity S-wave (km/s) = 3.34002 3.54315 3.44308
# Velocity P-wave (km/s) = 5.24052 5.78969 5.52194
#
# Compressibility (1/GPa) = 0.03232832
#
# Stress axis : x y z
#
# Youngs Moduli (GPa) = 54.73439 118.59767 54.42446
#
# Poissons Ratio (x) = 0.20209 0.09591
# Poissons Ratio (y) = 0.09327 0.15825
# Poissons Ratio (z) = 0.09645 0.34484
#
# Static dielectric constant tensor:
#      x y z
#    x 4.555650 0.000000 -2.765820 
#    y 0.000000 1.983110 0.000000 
#    z -2.765820 0.000000 5.187160 
# 
# From -- ./inp_files/117952.got.cif
#   From: 2010.05.17/outbox.cif.g08.bks.cpg/sg15_59_cif.got.tgz:117952.got - 2010.06.03 18:47:42.
