data_PCOD9285774
_publ_section_title
;
Structure prediction by ZEFSAII (Michael W. Deem and Ramdas Pophale) SiO2 
 PCOD9285774
Probable space group: C 2/C
;
_chemical_formula_sum "Si O2"
_cell_formula_units_Z 44
_cell_length_a 12.250644
_cell_length_b 21.948710
_cell_length_c 11.500139
_cell_angle_alpha 90.000000
_cell_angle_beta 39.838984
_cell_angle_gamma 90.000000
_cell_volume 1980.978832
_symmetry_space_group_name_H-M "C 2/C"
_symmetry_group_IT_number 15
_symmetry_cell_setting 'monoclinic'
loop_
_space_group_symop_operation_xyz
x,y,z
-x,y,1/2-z
-x,-y,-z
x,-y,1/2+z
1/2+x,1/2+y,z
1/2-x,1/2+y,1/2-z
1/2-x,1/2-y,-z
1/2+x,1/2-y,1/2+z
loop_
_atom_site_type_symbol
_atom_site_label
_atom_site_fract_x
_atom_site_fract_y
_atom_site_fract_z
Si Si1 0.301224 0.180331 0.444933
Si Si2 0.794578 0.562194 0.097004
Si Si3 0.407921 0.066675 0.452917
Si Si4 0.500000 0.862028 0.250000
Si Si5 0.246174 0.226401 0.870169
Si Si6 0.608509 0.339707 0.876564
O O1 0.500000 0.183415 0.250000
O O2 0.250000 0.250000 0.500000
O O3 0.305891 0.130284 0.542553
O O4 0.178212 0.151623 0.448582
O O5 0.636237 0.599640 0.278126
O O6 0.942804 0.567460 0.073697
O O7 0.786392 0.490936 0.075043
O O8 0.862111 0.596948 0.927773
O O9 0.500000 0.059663 0.250000
O O10 0.592782 0.818596 0.267045
O O11 0.270066 0.285880 0.772947
O O12 0.250000 0.250000 0.000000
O O13 0.077957 0.188619 0.980143
#
# Coordination Sequence:
#
# PCOD9285774 Si02
#       6
#     8   8   8   4   8   8
#     4  11  23  41  67  97 129 173 219 273 337 396
#     4  11  22  39  69  94 129 177 224 268 336 409
#     4  10  21  42  66  97 130 174 227 269 331 407
#     4  12  24  38  64  94 130 176 218 278 334 400
#     4  12  23  37  60  97 133 168 224 273 339 393
#     4  12  22  39  64  96 133 175 219 282 329 402
#
# _framework density 22.211241000000001
#
# number of rings (size 3 to 8) (size 9 to 14) (size 15 to 20)
#    0.000    0.727    8.182    1.091    2.545    0.000 
#    0.000    0.000    4.000    5.455    0.000    0.000 
#    0.000    0.000    0.000    0.000    0.000    0.000 
#
# Total GULP energy -122969.753915 kJ/mol
# GULP energy per Si atom -5589.534269 kJ/mol
# Density = 2.216069 g / cm^3
# Si number density = 22.211241 Si / 1000 Ang^3
#
#
#
# Elastic Constant Matrix: (Units=GPa)
#
#
# Indices 1 2 3 4 5 6 
#
# 1 75.3842 10.2418 11.2106 0.0000 -7.8436 0.0000
# 2 10.2418 173.0710 23.6220 0.0000 -12.5829 0.0000
# 3 11.2106 23.6220 32.2595 0.0000 -17.6661 0.0000
# 4 0.0000 0.0000 0.0000 6.9488 0.0000 1.7231
# 5 -7.8436 -12.5829 -17.6661 0.0000 37.3343 0.0000
# 6 0.0000 0.0000 0.0000 1.7231 0.0000 34.2003
#
#
#
# Elastic Compliance Matrix: (Units=1/GPa)
#
#
# Indices 1 2 3 4 5 6 
#
# 1 0.014014 -0.000185 -0.004261 0.000000 0.000866 0.000000
# 2 -0.000185 0.006422 -0.004690 0.000000 -0.000093 0.000000
# 3 -0.004261 -0.004690 0.046644 0.000000 0.019596 0.000000
# 4 0.000000 0.000000 0.000000 0.145730 0.000000 -0.007342
# 5 0.000866 -0.000093 0.019596 0.000000 0.036208 0.000000
# 6 0.000000 0.000000 0.000000 -0.007342 0.000000 0.029609
#
#
# Mechanical properties :
#
#
# Convention : Reuss Voigt Hill
#
# Bulk Modulus (GPa) = 20.48727 41.20706 30.84717
# Shear Modulus (GPa) = 15.96587 31.40604 23.68595
#
# Velocity S-wave (km/s) = 2.68399 3.76436 3.26911
# Velocity P-wave (km/s) = 4.34153 6.12262 5.30733
#
# Compressibility (1/GPa) = 0.04881080
#
# Stress axis : x y z
#
# Youngs Moduli (GPa) = 71.35621 155.71019 21.43881
#
# Poissons Ratio (x) = 0.02878 0.09134
# Poissons Ratio (y) = 0.01319 0.10054
# Poissons Ratio (z) = 0.30402 0.73021
#
# Static dielectric constant tensor:
#      x y z
#    x 1.834230 0.000000 0.031670 
#    y 0.000000 1.871820 0.000000 
#    z 0.031670 0.000000 1.855770 
# 
# From -- ./inp_files/31006.got.cif
#   From: 2010.05.17/outbox.cif.g08.bks.cpg/sg15_16_cif.got.tgz:31006.got - 2010.06.03 18:47:42.
