data_PCOD9285331
_publ_section_title
;
Structure prediction by ZEFSAII (Michael W. Deem and Ramdas Pophale) SiO2 
 PCOD9285331
Probable space group: C 2/C
;
_chemical_formula_sum "Si O2"
_cell_formula_units_Z 56
_cell_length_a 8.893766
_cell_length_b 14.406494
_cell_length_c 25.590421
_cell_angle_alpha 90.000000
_cell_angle_beta 130.748370
_cell_angle_gamma 90.000000
_cell_volume 2484.002168
_symmetry_space_group_name_H-M "C 2/C"
_symmetry_group_IT_number 15
_symmetry_cell_setting 'monoclinic'
loop_
_space_group_symop_operation_xyz
x,y,z
-x,y,1/2-z
-x,-y,-z
x,-y,1/2+z
1/2+x,1/2+y,z
1/2-x,1/2+y,1/2-z
1/2-x,1/2-y,-z
1/2+x,1/2-y,1/2+z
loop_
_atom_site_type_symbol
_atom_site_label
_atom_site_fract_x
_atom_site_fract_y
_atom_site_fract_z
Si Si1 0.577368 0.476676 0.959707
Si Si2 0.709156 0.786543 0.267562
Si Si3 0.661068 0.131201 0.140596
Si Si4 0.804924 0.651344 0.988306
Si Si5 0.034093 0.647707 0.932997
Si Si6 0.493182 0.670671 0.362932
Si Si7 0.227419 0.952093 0.284997
O O1 0.441820 0.411631 0.891632
O O2 0.500000 0.500000 0.000000
O O3 0.633507 0.574371 0.945677
O O4 0.775465 0.414593 0.011625
O O5 0.500000 0.783683 0.250000
O O6 0.859285 0.733167 0.339161
O O7 0.678390 0.722911 0.208802
O O8 0.753029 0.891417 0.262455
O O9 0.466053 0.107086 0.064582
O O10 0.845016 0.131919 0.141593
O O11 0.713900 0.059416 0.198333
O O12 0.750000 0.750000 0.000000
O O13 0.914966 0.666883 0.958842
O O14 0.089096 0.743656 0.916811
O O15 0.880639 0.594273 0.860453
O O16 0.000000 0.943315 0.250000
#
# Coordination Sequence:
#
# PCOD9285331 Si02
#       7
#     8   8   8   8   8   8   8
#     4  12  24  41  66 100 136 183 223 273 346 407
#     4   9  22  44  66  96 128 175 228 277 336 401
#     4  11  22  44  68  94 137 175 222 275 338 404
#     4  12  26  41  67 101 138 174 223 283 339 406
#     4  11  23  44  66 101 137 172 224 282 333 404
#     4  10  21  41  70  94 131 179 221 275 339 404
#     4  11  23  42  70  96 129 179 223 276 339 403
#
# _framework density 22.544264999999999
#
# number of rings (size 3 to 8) (size 9 to 14) (size 15 to 20)
#    0.000    1.143    2.857    3.857    4.000    0.000 
#    0.000    0.714    0.000    0.000    0.000    0.000 
#    0.000    0.000    0.000    0.000    0.000    0.000 
#
# Total GULP energy -156537.041510 kJ/mol
# GULP energy per Si atom -5590.608625 kJ/mol
# Density = 2.249295 g / cm^3
# Si number density = 22.544265 Si / 1000 Ang^3
#
#
#
# Elastic Constant Matrix: (Units=GPa)
#
#
# Indices 1 2 3 4 5 6 
#
# 1 46.7788 25.2457 -2.7109 0.0000 -21.0329 0.0000
# 2 25.2457 131.9804 11.3292 0.0000 -22.1630 0.0000
# 3 -2.7109 11.3292 41.7689 0.0000 -10.5105 0.0000
# 4 0.0000 0.0000 0.0000 48.9521 0.0000 -9.7232
# 5 -21.0329 -22.1630 -10.5105 0.0000 33.8036 0.0000
# 6 0.0000 0.0000 0.0000 -9.7232 0.0000 26.6513
#
#
#
# Elastic Compliance Matrix: (Units=1/GPa)
#
#
# Indices 1 2 3 4 5 6 
#
# 1 0.033191 -0.003554 0.008385 0.000000 0.020929 0.000000
# 2 -0.003554 0.008932 -0.001884 0.000000 0.003059 0.000000
# 3 0.008385 -0.001884 0.028205 0.000000 0.012752 0.000000
# 4 0.000000 0.000000 0.000000 0.022024 0.000000 0.008035
# 5 0.020929 0.003059 0.012752 0.000000 0.048575 0.000000
# 6 0.000000 0.000000 0.000000 0.008035 0.000000 0.040453
#
#
# Mechanical properties :
#
#
# Convention : Reuss Voigt Hill
#
# Bulk Modulus (GPa) = 13.11958 32.02845 22.57402
# Shear Modulus (GPa) = 24.88867 34.32568 29.60718
#
# Velocity S-wave (km/s) = 3.32624 3.90627 3.62787
# Velocity P-wave (km/s) = 4.53695 5.88073 5.25200
#
# Compressibility (1/GPa) = 0.07622197
#
# Stress axis : x y z
#
# Youngs Moduli (GPa) = 30.12845 111.95516 35.45455
#
# Poissons Ratio (x) = 0.39791 -0.29727
# Poissons Ratio (y) = 0.10708 0.06678
# Poissons Ratio (z) = -0.25261 0.21088
#
# Static dielectric constant tensor:
#      x y z
#    x 1.795310 0.000000 0.033960 
#    y 0.000000 1.853450 0.000000 
#    z 0.033960 0.000000 1.921080 
# 
# From -- ./inp_files/264814.got.cif
#   From: 2010.05.17/outbox.cif.g08.bks.cpg/sg15_133_cif.got.tgz:264814.got - 2010.06.03 18:47:42.
