data_PCOD9285241
_publ_section_title
;
Structure prediction by ZEFSAII (Michael W. Deem and Ramdas Pophale) SiO2 
 PCOD9285241
Probable space group: C 2/C
;
_chemical_formula_sum "Si O2"
_cell_formula_units_Z 56
_cell_length_a 26.863449
_cell_length_b 18.044549
_cell_length_c 8.832477
_cell_angle_alpha 90.000000
_cell_angle_beta 140.794165
_cell_angle_gamma 90.000000
_cell_volume 2706.336257
_symmetry_space_group_name_H-M "C 2/C"
_symmetry_group_IT_number 15
_symmetry_cell_setting 'monoclinic'
loop_
_space_group_symop_operation_xyz
x,y,z
-x,y,1/2-z
-x,-y,-z
x,-y,1/2+z
1/2+x,1/2+y,z
1/2-x,1/2+y,1/2-z
1/2-x,1/2-y,-z
1/2+x,1/2-y,1/2+z
loop_
_atom_site_type_symbol
_atom_site_label
_atom_site_fract_x
_atom_site_fract_y
_atom_site_fract_z
Si Si1 0.307595 0.539880 0.588975
Si Si2 0.000000 0.715197 0.250000
Si Si3 0.697295 0.391437 0.085278
Si Si4 0.000000 0.339649 0.250000
Si Si5 0.939469 0.788025 0.826245
Si Si6 0.377432 0.098667 0.026252
Si Si7 0.031099 0.075605 0.650184
Si Si8 0.126259 0.541342 0.157213
O O1 0.318580 0.451961 0.584331
O O2 0.317009 0.568549 0.784466
O O3 0.374555 0.576540 0.643266
O O4 0.217525 0.553706 0.325568
O O5 0.940740 0.661933 0.199322
O O6 0.056627 0.762221 0.490696
O O7 0.789408 0.371277 0.295144
O O8 0.641059 0.321841 0.926703
O O9 0.031828 0.282739 0.199063
O O10 0.070153 0.394777 0.462899
O O11 0.999332 0.857191 0.972322
O O12 0.374195 0.047037 0.164385
O O13 0.399419 0.041526 0.946251
O O14 0.000000 0.078693 0.750000
O O15 0.000000 0.000000 0.500000
#
# Coordination Sequence:
#
# PCOD9285241 Si02
#       8
#     8   4   8   4   8   8   8   8
#     4  10  21  41  68  99 127 167 221 281 322 384
#     4  12  25  44  61  92 142 174 216 272 331 400
#     4  10  22  42  67  98 130 169 224 272 331 388
#     4  12  25  44  65 100 134 178 226 262 339 394
#     4  12  26  42  62  94 134 180 215 273 328 402
#     4  10  23  44  69  98 129 172 222 276 330 392
#     4  12  24  40  66  93 128 172 220 270 322 391
#     4  10  23  43  71  98 130 171 223 277 324 396
#
# _framework density 20.692181000000001
#
# number of rings (size 3 to 8) (size 9 to 14) (size 15 to 20)
#    0.000    1.143    3.571    2.143    3.000    1.714 
#    2.571    2.143    0.000    0.000    0.000    0.000 
#    0.000    0.000    0.000    0.000    0.000    0.000 
#
# Total GULP energy -156324.341359 kJ/mol
# GULP energy per Si atom -5583.012191 kJ/mol
# Density = 2.064509 g / cm^3
# Si number density = 20.692181 Si / 1000 Ang^3
#
#
#
# Elastic Constant Matrix: (Units=GPa)
#
#
# Indices 1 2 3 4 5 6 
#
# 1 55.2368 13.6841 25.1655 0.0000 6.8807 0.0000
# 2 13.6841 72.6062 43.2681 0.0000 8.4925 0.0000
# 3 25.1655 43.2681 100.4905 0.0000 4.2996 0.0000
# 4 0.0000 0.0000 0.0000 40.7655 0.0000 1.1650
# 5 6.8807 8.4925 4.2996 0.0000 27.5472 0.0000
# 6 0.0000 0.0000 0.0000 1.1650 0.0000 26.5879
#
#
#
# Elastic Compliance Matrix: (Units=1/GPa)
#
#
# Indices 1 2 3 4 5 6 
#
# 1 0.020980 -0.000577 -0.004821 0.000000 -0.004310 0.000000
# 2 -0.000577 0.019113 -0.007892 0.000000 -0.004516 0.000000
# 3 -0.004821 -0.007892 0.014498 0.000000 0.001374 0.000000
# 4 0.000000 0.000000 0.000000 0.024561 0.000000 -0.001076
# 5 -0.004310 -0.004516 0.001374 0.000000 0.038556 0.000000
# 6 0.000000 0.000000 0.000000 -0.001076 0.000000 0.037658
#
#
# Mechanical properties :
#
#
# Convention : Reuss Voigt Hill
#
# Bulk Modulus (GPa) = 35.70014 43.61876 39.65945
# Shear Modulus (GPa) = 26.13935 28.72784 27.43360
#
# Velocity S-wave (km/s) = 3.55808 3.73009 3.64510
# Velocity P-wave (km/s) = 5.84554 6.29897 6.07648
#
# Compressibility (1/GPa) = 0.02801109
#
# Stress axis : x y z
#
# Youngs Moduli (GPa) = 47.66408 52.32092 68.97678
#
# Poissons Ratio (x) = 0.03019 0.33255
# Poissons Ratio (y) = 0.02750 0.54434
# Poissons Ratio (z) = 0.22980 0.41290
#
# Static dielectric constant tensor:
#      x y z
#    x 1.782650 0.000000 -0.016100 
#    y 0.000000 1.728810 0.000000 
#    z -0.016100 0.000000 1.773490 
# 
# From -- ./inp_files/67233.got.cif
#   From: 2010.05.17/outbox.cif.g08.bks.cpg/sg15_34_cif.got.tgz:67233.got - 2010.06.03 18:47:42.
