data_PCOD9285669
_publ_section_title
;
Structure prediction by ZEFSAII (Michael W. Deem and Ramdas Pophale) SiO2 
 PCOD9285669
Probable space group: C 2/C
;
_chemical_formula_sum "Si O2"
_cell_formula_units_Z 56
_cell_length_a 19.434411
_cell_length_b 22.900853
_cell_length_c 5.544815
_cell_angle_alpha 90.000000
_cell_angle_beta 109.886146
_cell_angle_gamma 90.000000
_cell_volume 2320.646843
_symmetry_space_group_name_H-M "C 2/C"
_symmetry_group_IT_number 15
_symmetry_cell_setting 'monoclinic'
loop_
_space_group_symop_operation_xyz
x,y,z
-x,y,1/2-z
-x,-y,-z
x,-y,1/2+z
1/2+x,1/2+y,z
1/2-x,1/2+y,1/2-z
1/2-x,1/2-y,-z
1/2+x,1/2-y,1/2+z
loop_
_atom_site_type_symbol
_atom_site_label
_atom_site_fract_x
_atom_site_fract_y
_atom_site_fract_z
Si Si1 0.664341 0.859675 0.896927
Si Si2 0.339818 0.005792 0.069746
Si Si3 0.256400 0.178872 0.511782
Si Si4 0.000000 0.811141 0.750000
Si Si5 0.911721 0.031563 0.663879
Si Si6 0.122015 0.851451 0.585582
Si Si7 0.421958 0.749711 0.773512
Si Si8 0.000000 0.531058 0.750000
O O1 0.703825 0.844326 0.687725
O O2 0.596994 0.815636 0.797986
O O3 0.637922 0.925958 0.891857
O O4 0.708247 0.841584 0.193271
O O5 0.297789 0.001607 0.769011
O O6 0.408342 0.959040 0.146040
O O7 0.250000 0.250000 0.500000
O O8 0.177168 0.151032 0.372885
O O9 0.959117 0.850573 0.895226
O O10 0.937078 0.769356 0.564716
O O11 0.872026 0.092918 0.574357
O O12 0.000000 0.038495 0.750000
O O13 0.893343 0.993477 0.404460
O O14 0.131789 0.793887 0.430927
O O15 0.500000 0.739184 0.750000
O O16 0.000000 0.500000 0.500000
#
# Coordination Sequence:
#
# PCOD9285669 Si02
#       8
#     8   8   8   4   8   8   8   4
#     4  12  26  44  69 100 134 185 227 274 342 401
#     4  10  21  42  65  94 132 175 223 278 330 395
#     4  12  26  46  69 100 135 183 228 276 334 420
#     4  10  22  40  67 100 128 171 210 284 354 390
#     4  10  23  40  63  97 132 171 217 271 336 403
#     4  11  24  42  69  94 135 173 224 276 343 398
#     4  10  23  40  65 102 132 169 219 281 346 394
#     4   8  16  32  59  90 120 163 214 262 328 380
#
# _framework density 24.131201999999998
#
# number of rings (size 3 to 8) (size 9 to 14) (size 15 to 20)
#    0.000    1.429    1.429    3.429   10.000    0.000 
#    0.000    5.000    0.000    0.000    0.000    0.000 
#    0.000    0.000    0.000    0.000    0.000    0.000 
#
# Total GULP energy -155949.824455 kJ/mol
# GULP energy per Si atom -5569.636588 kJ/mol
# Density = 2.407628 g / cm^3
# Si number density = 24.131202 Si / 1000 Ang^3
#
#
#
# Elastic Constant Matrix: (Units=GPa)
#
#
# Indices 1 2 3 4 5 6 
#
# 1 47.3504 -6.8725 27.5176 0.0000 -0.3534 0.0000
# 2 -6.8725 93.3633 31.2684 0.0000 3.5670 0.0000
# 3 27.5176 31.2684 187.1098 0.0000 -22.3995 0.0000
# 4 0.0000 0.0000 0.0000 35.8408 0.0000 -2.3143
# 5 -0.3534 3.5670 -22.3995 0.0000 31.3338 0.0000
# 6 0.0000 0.0000 0.0000 -2.3143 0.0000 15.5722
#
#
#
# Elastic Compliance Matrix: (Units=1/GPa)
#
#
# Indices 1 2 3 4 5 6 
#
# 1 0.024230 0.003432 -0.004540 0.000000 -0.003363 0.000000
# 2 0.003432 0.012077 -0.002934 0.000000 -0.003434 0.000000
# 3 -0.004540 -0.002934 0.007148 0.000000 0.005393 0.000000
# 4 0.000000 0.000000 0.000000 0.028172 0.000000 0.004187
# 5 -0.003363 -0.003434 0.005393 0.000000 0.036122 0.000000
# 6 0.000000 0.000000 0.000000 0.004187 0.000000 0.064839
#
#
# Mechanical properties :
#
#
# Convention : Reuss Voigt Hill
#
# Bulk Modulus (GPa) = 28.27002 47.96117 38.11559
# Shear Modulus (GPa) = 25.97904 34.94335 30.46119
#
# Velocity S-wave (km/s) = 3.28468 3.80946 3.55676
# Velocity P-wave (km/s) = 5.11136 6.26639 5.71812
#
# Compressibility (1/GPa) = 0.03537317
#
# Stress axis : x y z
#
# Youngs Moduli (GPa) = 41.27034 82.79945 139.89929
#
# Poissons Ratio (x) = -0.28421 0.63510
# Poissons Ratio (y) = -0.14166 0.41048
# Poissons Ratio (z) = 0.18735 0.24295
#
# Static dielectric constant tensor:
#      x y z
#    x 2.136080 0.000000 0.056310 
#    y 0.000000 2.689540 0.000000 
#    z 0.056310 0.000000 2.112920 
# 
# From -- ./inp_files/16194.got.cif
#   From: 2010.05.17/outbox.cif.g08.bks.cpg/sg15_9_cif.got.tgz:16194.got - 2010.06.03 18:47:42.
