data_PCOD9285541
_publ_section_title
;
Structure prediction by ZEFSAII (Michael W. Deem and Ramdas Pophale) SiO2 
 PCOD9285541
Probable space group: C 2/C
;
_chemical_formula_sum "Si O2"
_cell_formula_units_Z 44
_cell_length_a 26.223434
_cell_length_b 13.181764
_cell_length_c 13.092092
_cell_angle_alpha 90.000000
_cell_angle_beta 24.499433
_cell_angle_gamma 90.000000
_cell_volume 1876.677603
_symmetry_space_group_name_H-M "C 2/C"
_symmetry_group_IT_number 15
_symmetry_cell_setting 'monoclinic'
loop_
_space_group_symop_operation_xyz
x,y,z
-x,y,1/2-z
-x,-y,-z
x,-y,1/2+z
1/2+x,1/2+y,z
1/2-x,1/2+y,1/2-z
1/2-x,1/2-y,-z
1/2+x,1/2-y,1/2+z
loop_
_atom_site_type_symbol
_atom_site_label
_atom_site_fract_x
_atom_site_fract_y
_atom_site_fract_z
Si Si1 0.826918 0.183482 0.009097
Si Si2 0.000000 0.461538 0.250000
Si Si3 0.197877 0.706093 0.752495
Si Si4 0.086793 0.692581 0.750323
Si Si5 0.772424 0.023040 0.728807
Si Si6 0.110305 0.839607 0.333983
O O1 0.873265 0.249249 0.021149
O O2 0.709859 0.252289 0.185706
O O3 0.800894 0.076977 0.112844
O O4 0.895813 0.160983 0.777653
O O5 0.993452 0.387804 0.164207
O O6 0.872960 0.521143 0.480761
O O7 0.113681 0.661246 0.817228
O O8 0.284629 0.792011 0.543360
O O9 0.288700 0.619736 0.626558
O O10 0.015987 0.798664 0.889196
O O11 0.846847 0.053987 0.694911
#
# Coordination Sequence:
#
# PCOD9285541 Si02
#       6
#     8   4   8   8   8   8
#     4  10  21  42  63  96 138 173 220 285 327 403
#     4  12  22  40  70  94 130 168 232 278 334 388
#     4  10  24  41  68  94 137 175 229 273 339 400
#     4  11  22  45  68  93 130 187 221 274 332 409
#     4  11  23  39  66 102 128 174 228 283 331 406
#     4  10  23  41  68  95 139 176 219 278 347 381
#
# _framework density 23.445688000000001
#
# number of rings (size 3 to 8) (size 9 to 14) (size 15 to 20)
#    0.000    1.455    3.636    1.091    2.545    5.818 
#    0.000    5.455    0.000    0.000    0.000    0.000 
#    0.000    0.000    0.000    0.000    0.000    0.000 
#
# Total GULP energy -122843.201160 kJ/mol
# GULP energy per Si atom -5583.781871 kJ/mol
# Density = 2.339232 g / cm^3
# Si number density = 23.445688 Si / 1000 Ang^3
#
#
#
# Elastic Constant Matrix: (Units=GPa)
#
#
# Indices 1 2 3 4 5 6 
#
# 1 144.8242 22.4241 42.7101 0.0000 43.8501 0.0000
# 2 22.4241 77.7635 15.7119 0.0000 28.3898 0.0000
# 3 42.7101 15.7119 104.0336 0.0000 22.4553 0.0000
# 4 0.0000 0.0000 0.0000 24.9771 0.0000 -8.5695
# 5 43.8501 28.3898 22.4553 0.0000 30.5065 0.0000
# 6 0.0000 0.0000 0.0000 -8.5695 0.0000 20.0127
#
#
#
# Elastic Compliance Matrix: (Units=1/GPa)
#
#
# Indices 1 2 3 4 5 6 
#
# 1 0.013447 0.004681 -0.001326 0.000000 -0.022709 0.000000
# 2 0.004681 0.021223 0.000700 0.000000 -0.026994 0.000000
# 3 -0.001326 0.000700 0.011627 0.000000 -0.007304 0.000000
# 4 0.000000 0.000000 0.000000 0.046931 0.000000 0.020096
# 5 -0.022709 -0.026994 -0.007304 0.000000 0.095919 0.000000
# 6 0.000000 0.000000 0.000000 0.020096 0.000000 0.058573
#
#
# Mechanical properties :
#
#
# Convention : Reuss Voigt Hill
#
# Bulk Modulus (GPa) = 18.38005 54.25705 36.31855
# Shear Modulus (GPa) = 19.39878 31.48428 25.44153
#
# Velocity S-wave (km/s) = 2.87956 3.66848 3.29770
# Velocity P-wave (km/s) = 4.34882 6.41370 5.47941
#
# Compressibility (1/GPa) = 0.05440683
#
# Stress axis : x y z
#
# Youngs Moduli (GPa) = 74.36621 47.11804 86.00302
#
# Poissons Ratio (x) = -0.22055 0.11403
# Poissons Ratio (y) = -0.34809 -0.06017
# Poissons Ratio (z) = 0.09860 -0.03296
#
# Static dielectric constant tensor:
#      x y z
#    x 1.914650 0.000000 -0.000090 
#    y 0.000000 1.890310 0.000000 
#    z -0.000090 0.000000 1.871060 
# 
# From -- ./inp_files/123256.got.cif
#   From: 2010.05.17/outbox.cif.g08.bks.cpg/sg15_62_cif.got.tgz:123256.got - 2010.06.03 18:47:42.
