data_PCOD9285705
_publ_section_title
;
Structure prediction by ZEFSAII (Michael W. Deem and Ramdas Pophale) SiO2 
 PCOD9285705
Probable space group: C 2/C
;
_chemical_formula_sum "Si O2"
_cell_formula_units_Z 36
_cell_length_a 4.997915
_cell_length_b 30.431501
_cell_length_c 10.566947
_cell_angle_alpha 90.000000
_cell_angle_beta 71.095280
_cell_angle_gamma 90.000000
_cell_volume 1520.476946
_symmetry_space_group_name_H-M "C 2/C"
_symmetry_group_IT_number 15
_symmetry_cell_setting 'monoclinic'
loop_
_space_group_symop_operation_xyz
x,y,z
-x,y,1/2-z
-x,-y,-z
x,-y,1/2+z
1/2+x,1/2+y,z
1/2-x,1/2+y,1/2-z
1/2-x,1/2-y,-z
1/2+x,1/2-y,1/2+z
loop_
_atom_site_type_symbol
_atom_site_label
_atom_site_fract_x
_atom_site_fract_y
_atom_site_fract_z
Si Si1 0.069393 0.278868 0.389964
Si Si2 0.449973 0.402657 0.463917
Si Si3 0.510364 0.315472 0.897978
Si Si4 0.000000 0.846573 0.250000
Si Si5 0.537736 0.040876 0.589969
O O1 0.795503 0.298314 0.503219
O O2 0.182391 0.229571 0.399505
O O3 0.308279 0.315229 0.361715
O O4 0.000000 0.278043 0.250000
O O5 0.391168 0.363235 0.569531
O O6 0.644572 0.377809 0.329349
O O7 0.646248 0.441255 0.482593
O O8 0.182946 0.422760 0.431128
O O9 0.500000 0.319736 0.750000
O O10 0.500000 0.032490 0.750000
O O11 0.500000 0.000000 0.500000
#
# Coordination Sequence:
#
# PCOD9285705 Si02
#       5
#     8   8   8   4   8
#     4  10  21  42  66 100 148 206 258 305 360 430
#     4  12  25  45  76 108 148 195 250 300 371 462
#     4  10  23  43  66 106 156 199 252 316 370 425
#     4  12  22  40  76 102 142 198 270 286 356 438
#     4  12  27  50  79 112 143 187 243 316 393 465
#
# _framework density 23.676783
#
# number of rings (size 3 to 8) (size 9 to 14) (size 15 to 20)
#    0.000    0.889    4.444    2.000    0.000    2.667 
#    8.000    0.000    0.000    0.000    0.000    0.000 
#    0.000    0.000    0.000    0.000    0.000    0.000 
#
# Total GULP energy -100453.221483 kJ/mol
# GULP energy per Si atom -5580.734527 kJ/mol
# Density = 2.362289 g / cm^3
# Si number density = 23.676783 Si / 1000 Ang^3
#
#
#
# Elastic Constant Matrix: (Units=GPa)
#
#
# Indices 1 2 3 4 5 6 
#
# 1 55.0939 5.9572 9.3684 0.0000 13.7516 0.0000
# 2 5.9572 129.5260 75.7309 0.0000 21.1239 0.0000
# 3 9.3684 75.7309 159.2421 0.0000 9.9051 0.0000
# 4 0.0000 0.0000 0.0000 61.2786 0.0000 19.4145
# 5 13.7516 21.1239 9.9051 0.0000 33.9933 0.0000
# 6 0.0000 0.0000 0.0000 19.4145 0.0000 46.7853
#
#
#
# Elastic Compliance Matrix: (Units=1/GPa)
#
#
# Indices 1 2 3 4 5 6 
#
# 1 0.020384 0.001187 -0.001227 0.000000 -0.008626 0.000000
# 2 0.001187 0.011773 -0.005280 0.000000 -0.006258 0.000000
# 3 -0.001227 -0.005280 0.008787 0.000000 0.001217 0.000000
# 4 0.000000 0.000000 0.000000 0.018789 0.000000 -0.007797
# 5 -0.008626 -0.006258 0.001217 0.000000 0.036441 0.000000
# 6 0.000000 0.000000 0.000000 -0.007797 0.000000 0.024610
#
#
# Mechanical properties :
#
#
# Convention : Reuss Voigt Hill
#
# Bulk Modulus (GPa) = 32.99813 58.44167 45.71990
# Shear Modulus (GPa) = 35.32913 45.26514 40.29713
#
# Velocity S-wave (km/s) = 3.86702 4.37715 4.12997
# Velocity P-wave (km/s) = 5.82285 7.09102 6.48800
#
# Compressibility (1/GPa) = 0.03030475
#
# Stress axis : x y z
#
# Youngs Moduli (GPa) = 49.05740 84.93800 113.80344
#
# Poissons Ratio (x) = -0.10079 0.13964
# Poissons Ratio (y) = -0.05822 0.60084
# Poissons Ratio (z) = 0.06019 0.44844
#
# Static dielectric constant tensor:
#      x y z
#    x 2.491320 0.000000 0.842570 
#    y 0.000000 1.933720 0.000000 
#    z 0.842570 0.000000 3.197380 
# 
# From -- ./inp_files/72930.got.cif
#   From: 2010.05.17/outbox.cif.g08.bks.cpg/sg15_37_cif.got.tgz:72930.got - 2010.06.03 18:47:42.
