data_PCOD9285466
_publ_section_title
;
Structure prediction by ZEFSAII (Michael W. Deem and Ramdas Pophale) SiO2 
 PCOD9285466
Probable space group: C 2/C
;
_chemical_formula_sum "Si O2"
_cell_formula_units_Z 32
_cell_length_a 21.683498
_cell_length_b 7.337456
_cell_length_c 14.677210
_cell_angle_alpha 90.000000
_cell_angle_beta 41.327668
_cell_angle_gamma 90.000000
_cell_volume 1542.062579
_symmetry_space_group_name_H-M "C 2/C"
_symmetry_group_IT_number 15
_symmetry_cell_setting 'monoclinic'
loop_
_space_group_symop_operation_xyz
x,y,z
-x,y,1/2-z
-x,-y,-z
x,-y,1/2+z
1/2+x,1/2+y,z
1/2-x,1/2+y,1/2-z
1/2-x,1/2-y,-z
1/2+x,1/2-y,1/2+z
loop_
_atom_site_type_symbol
_atom_site_label
_atom_site_fract_x
_atom_site_fract_y
_atom_site_fract_z
Si Si1 0.810834 0.862738 0.504791
Si Si2 0.876600 0.510611 0.707967
Si Si3 0.432304 0.963278 0.939344
Si Si4 0.638034 0.269996 0.625601
O O1 0.750000 0.750000 0.500000
O O2 0.874405 0.715486 0.481965
O O3 0.729365 0.949439 0.658088
O O4 0.873583 0.022455 0.391514
O O5 0.902534 0.483789 0.574801
O O6 0.888221 0.710968 0.742219
O O7 0.957832 0.412411 0.676944
O O8 0.405557 0.126757 0.898980
O O9 0.750000 0.250000 0.500000
#
# Coordination Sequence:
#
# PCOD9285466 Si02
#       4
#     8   8   8   8
#     4  11  23  40  69  93 127 171 213 259 324 375
#     4  10  24  43  66  94 135 168 209 271 315 379
#     4  11  23  45  64  97 132 168 214 264 320 379
#     4  10  21  42  61  95 124 169 211 257 317 373
#
# _framework density 20.751428000000001
#
# number of rings (size 3 to 8) (size 9 to 14) (size 15 to 20)
#    0.000    1.500    5.000    0.750    7.000    0.000 
#    9.000    2.500    0.000    0.000    0.000    0.000 
#    0.000    0.000    0.000    0.000    0.000    0.000 
#
# Total GULP energy -89157.048165 kJ/mol
# GULP energy per Si atom -5572.315510 kJ/mol
# Density = 2.070420 g / cm^3
# Si number density = 20.751428 Si / 1000 Ang^3
#
#
#
# Elastic Constant Matrix: (Units=GPa)
#
#
# Indices 1 2 3 4 5 6 
#
# 1 103.4866 48.3905 18.8157 0.0012 -2.6416 -0.0006
# 2 48.3905 112.2432 13.3866 0.0042 -2.4400 -0.0042
# 3 18.8157 13.3866 68.5035 0.0013 7.5369 -0.0016
# 4 0.0012 0.0042 0.0013 24.4144 -0.0009 -3.3167
# 5 -2.6416 -2.4400 7.5369 -0.0009 41.7545 0.0009
# 6 -0.0006 -0.0042 -0.0016 -3.3167 0.0009 27.2201
#
#
#
# Elastic Compliance Matrix: (Units=1/GPa)
#
#
# Indices 1 2 3 4 5 6 
#
# 1 0.012525 -0.005074 -0.002554 0.000000 0.000957 -0.000001
# 2 -0.005074 0.011209 -0.000850 -0.000001 0.000487 0.000001
# 3 -0.002554 -0.000850 0.015802 -0.000001 -0.003064 0.000001
# 4 0.000000 -0.000001 -0.000001 0.041649 0.000001 0.005075
# 5 0.000957 0.000487 -0.003064 0.000001 0.024592 -0.000001
# 6 -0.000001 0.000001 0.000001 0.005075 -0.000001 0.037356
#
#
# Mechanical properties :
#
#
# Convention : Reuss Voigt Hill
#
# Bulk Modulus (GPa) = 44.28841 49.49100 46.88971
# Shear Modulus (GPa) = 29.83021 32.25382 31.04201
#
# Velocity S-wave (km/s) = 3.79555 3.94673 3.87188
# Velocity P-wave (km/s) = 6.37158 6.68357 6.52944
#
# Compressibility (1/GPa) = 0.02257927
#
# Stress axis : x y z
#
# Youngs Moduli (GPa) = 79.84321 89.21527 63.28122
#
# Poissons Ratio (x) = 0.45270 0.16161
# Poissons Ratio (y) = 0.40514 0.05381
# Poissons Ratio (z) = 0.20390 0.07586
#
# Static dielectric constant tensor:
#      x y z
#    x 1.808690 0.000000 -0.068330 
#    y 0.000000 1.783810 0.000000 
#    z -0.068330 0.000000 1.879540 
# 
# From -- ./inp_files/158600.got.cif
#   From: 2010.05.17/outbox.cif.g08.bks.cpg/sg15_80_cif.got.tgz:158600.got - 2010.06.03 18:47:42.
