data_PCOD9285601
_publ_section_title
;
Structure prediction by ZEFSAII (Michael W. Deem and Ramdas Pophale) SiO2 
 PCOD9285601
Probable space group: C 2/C
;
_chemical_formula_sum "Si O2"
_cell_formula_units_Z 44
_cell_length_a 10.929253
_cell_length_b 15.485106
_cell_length_c 19.698098
_cell_angle_alpha 90.000000
_cell_angle_beta 37.207521
_cell_angle_gamma 90.000000
_cell_volume 2015.911945
_symmetry_space_group_name_H-M "C 2/C"
_symmetry_group_IT_number 15
_symmetry_cell_setting 'monoclinic'
loop_
_space_group_symop_operation_xyz
x,y,z
-x,y,1/2-z
-x,-y,-z
x,-y,1/2+z
1/2+x,1/2+y,z
1/2-x,1/2+y,1/2-z
1/2-x,1/2-y,-z
1/2+x,1/2-y,1/2+z
loop_
_atom_site_type_symbol
_atom_site_label
_atom_site_fract_x
_atom_site_fract_y
_atom_site_fract_z
Si Si1 0.809255 0.862640 0.545050
Si Si2 0.084203 0.180400 0.352804
Si Si3 0.036843 0.296854 0.899549
Si Si4 0.584859 0.132825 0.901921
Si Si5 0.500000 0.566838 0.750000
Si Si6 0.779649 0.972119 0.970246
O O1 0.803208 0.851452 0.628235
O O2 0.614699 0.820311 0.594678
O O3 0.996843 0.803045 0.436812
O O4 0.819339 0.959643 0.512695
O O5 0.239118 0.179013 0.221929
O O6 0.025481 0.279659 0.389953
O O7 0.896654 0.117304 0.428229
O O8 0.968690 0.350300 0.995644
O O9 0.825834 0.121734 0.790273
O O10 0.456115 0.051731 0.933151
O O11 0.375630 0.512471 0.859901
#
# Coordination Sequence:
#
# PCOD9285601 Si02
#       6
#     8   8   8   8   4   8
#     4  10  22  39  65  92 131 161 217 264 305 377
#     4  11  24  40  67  92 131 173 205 257 332 377
#     4  10  21  42  64  95 122 170 222 254 306 385
#     4  11  25  43  67  94 129 170 213 265 312 383
#     4  12  24  42  70  94 124 172 220 260 312 374
#     4  12  24  41  64 100 133 159 212 271 320 371
#
# _framework density 21.826350000000001
#
# number of rings (size 3 to 8) (size 9 to 14) (size 15 to 20)
#    0.000    1.091    1.818    4.364    7.636    0.000 
#    0.000    0.000    0.000    0.000    0.000    0.000 
#    0.000    0.000    0.000    0.000    0.000    0.000 
#
# Total GULP energy -123077.786820 kJ/mol
# GULP energy per Si atom -5594.444855 kJ/mol
# Density = 2.177667 g / cm^3
# Si number density = 21.826350 Si / 1000 Ang^3
#
#
#
# Elastic Constant Matrix: (Units=GPa)
#
#
# Indices 1 2 3 4 5 6 
#
# 1 17.4613 12.6972 6.3806 0.0005 -12.6110 -0.0002
# 2 12.6972 122.9534 26.1110 0.0002 -21.2164 -0.0003
# 3 6.3806 26.1110 79.1833 0.0012 -13.9377 -0.0009
# 4 0.0005 0.0002 0.0012 14.5582 -0.0003 -6.6315
# 5 -12.6110 -21.2164 -13.9377 -0.0003 30.3821 0.0006
# 6 -0.0002 -0.0003 -0.0009 -6.6315 0.0006 33.6689
#
#
#
# Elastic Compliance Matrix: (Units=1/GPa)
#
#
# Indices 1 2 3 4 5 6 
#
# 1 0.082735 -0.002976 -0.000007 -0.000002 0.032260 -0.000001
# 2 -0.002976 0.009681 -0.002154 0.000000 0.004537 0.000000
# 3 -0.000007 -0.002154 0.014223 -0.000001 0.005018 0.000000
# 4 -0.000002 0.000000 -0.000001 0.075460 -0.000001 0.014863
# 5 0.032260 0.004537 0.005018 -0.000001 0.051775 -0.000001
# 6 -0.000001 0.000000 0.000000 0.014863 -0.000001 0.032628
#
#
# Mechanical properties :
#
#
# Convention : Reuss Voigt Hill
#
# Bulk Modulus (GPa) = 10.37714 34.44173 22.40943
# Shear Modulus (GPa) = 16.18658 27.34911 21.76785
#
# Velocity S-wave (km/s) = 2.72620 3.54366 3.16146
# Velocity P-wave (km/s) = 3.83070 5.70592 4.85962
#
# Compressibility (1/GPa) = 0.09636566
#
# Stress axis : x y z
#
# Youngs Moduli (GPa) = 12.08674 103.29763 70.30881
#
# Poissons Ratio (x) = 0.30738 0.00050
# Poissons Ratio (y) = 0.03597 0.15144
# Poissons Ratio (z) = 0.00009 0.22249
#
# Static dielectric constant tensor:
#      x y z
#    x 1.815730 0.000000 -0.019590 
#    y 0.000000 1.810820 0.000000 
#    z -0.019590 0.000000 1.767200 
# 
# From -- ./inp_files/87707.got.cif
#   From: 2010.05.17/outbox.cif.g08.bks.cpg/sg15_44_cif.got.tgz:87707.got - 2010.06.03 18:47:42.
