data_PCOD9285957
_publ_section_title
;
Structure prediction by ZEFSAII (Michael W. Deem and Ramdas Pophale) SiO2 
 PCOD9285957
Probable space group: C 2/C
;
_chemical_formula_sum "Si O2"
_cell_formula_units_Z 52
_cell_length_a 16.312302
_cell_length_b 11.171008
_cell_length_c 13.331716
_cell_angle_alpha 90.000000
_cell_angle_beta 118.169912
_cell_angle_gamma 90.000000
_cell_volume 2141.614754
_symmetry_space_group_name_H-M "C 2/C"
_symmetry_group_IT_number 15
_symmetry_cell_setting 'monoclinic'
loop_
_space_group_symop_operation_xyz
x,y,z
-x,y,1/2-z
-x,-y,-z
x,-y,1/2+z
1/2+x,1/2+y,z
1/2-x,1/2+y,1/2-z
1/2-x,1/2-y,-z
1/2+x,1/2-y,1/2+z
loop_
_atom_site_type_symbol
_atom_site_label
_atom_site_fract_x
_atom_site_fract_y
_atom_site_fract_z
Si Si1 0.051669 0.514479 0.375452
Si Si2 0.879354 0.175435 0.865046
Si Si3 0.187102 0.105123 0.931699
Si Si4 0.266354 0.278388 0.836589
Si Si5 0.250819 0.614686 0.961337
Si Si6 0.500000 0.636962 0.750000
Si Si7 0.541821 0.810498 0.061549
O O1 0.150691 0.449758 0.412279
O O2 0.057168 0.608312 0.470076
O O3 0.000000 0.573532 0.250000
O O4 0.984711 0.406098 0.369976
O O5 0.823346 0.289827 0.785017
O O6 0.797511 0.110651 0.878403
O O7 0.934462 0.102566 0.810172
O O8 0.955375 0.225022 0.985690
O O9 0.247872 0.147400 0.874425
O O10 0.089865 0.174536 0.866979
O O11 0.231980 0.141289 0.063503
O O12 0.179116 0.963719 0.929679
O O13 0.369490 0.268350 0.854795
O O14 0.250000 0.750000 0.000000
#
# Coordination Sequence:
#
# PCOD9285957 Si02
#       7
#     8   8   8   8   8   4   8
#     4  11  25  41  70  97 137 183 230 279 339 409
#     4  11  24  41  71  98 138 175 222 287 345 401
#     4  10  22  41  69  95 133 172 224 281 333 406
#     4  10  21  42  69 102 128 173 229 284 333 390
#     4  12  25  47  61  97 145 179 214 278 349 408
#     4  10  22  44  68  96 124 172 228 280 334 400
#     4  11  22  43  68 104 133 177 235 283 333 412
#
# _framework density 24.280746000000001
#
# number of rings (size 3 to 8) (size 9 to 14) (size 15 to 20)
#    0.000    1.231    4.615    0.923    3.231    0.615 
#    6.923    0.000    0.000    0.000    0.000    0.000 
#    0.000    0.000    0.000    0.000    0.000    0.000 
#
# Total GULP energy -144826.012496 kJ/mol
# GULP energy per Si atom -5570.231250 kJ/mol
# Density = 2.422548 g / cm^3
# Si number density = 24.280746 Si / 1000 Ang^3
#
#
#
# Elastic Constant Matrix: (Units=GPa)
#
#
# Indices 1 2 3 4 5 6 
#
# 1 128.0256 9.0875 26.9220 0.0000 0.5820 0.0000
# 2 9.0875 59.5983 3.2866 0.0000 -3.5582 0.0000
# 3 26.9220 3.2866 60.9584 0.0000 19.0068 0.0000
# 4 0.0000 0.0000 0.0000 18.0283 0.0000 0.6973
# 5 0.5820 -3.5582 19.0068 0.0000 45.3385 0.0000
# 6 0.0000 0.0000 0.0000 0.6973 0.0000 31.6881
#
#
#
# Elastic Compliance Matrix: (Units=1/GPa)
#
#
# Indices 1 2 3 4 5 6 
#
# 1 0.008786 -0.001004 -0.004333 0.000000 0.001625 0.000000
# 2 -0.001004 0.017096 -0.001036 0.000000 0.001789 0.000000
# 3 -0.004333 -0.001036 0.021146 0.000000 -0.008891 0.000000
# 4 0.000000 0.000000 0.000000 0.055516 0.000000 -0.001222
# 5 0.001625 0.001789 -0.008891 0.000000 0.025903 0.000000
# 6 0.000000 0.000000 0.000000 -0.001222 0.000000 0.031584
#
#
# Mechanical properties :
#
#
# Convention : Reuss Voigt Hill
#
# Bulk Modulus (GPa) = 29.16939 36.35275 32.76107
# Shear Modulus (GPa) = 27.14378 32.96339 30.05359
#
# Velocity S-wave (km/s) = 3.34715 3.68855 3.52199
# Velocity P-wave (km/s) = 5.19397 5.75716 5.48280
#
# Compressibility (1/GPa) = 0.03428251
#
# Stress axis : x y z
#
# Youngs Moduli (GPa) = 113.81848 58.49315 47.28999
#
# Poissons Ratio (x) = 0.05871 0.20490
# Poissons Ratio (y) = 0.11424 0.04901
# Poissons Ratio (z) = 0.49315 0.06061
#
# Static dielectric constant tensor:
#      x y z
#    x 1.963320 0.000000 0.009250 
#    y 0.000000 1.981090 0.000000 
#    z 0.009250 0.000000 2.009250 
# 
# From -- ./inp_files/161067.got.cif
#   From: 2010.05.17/outbox.cif.g08.bks.cpg/sg15_81_cif.got.tgz:161067.got - 2010.06.03 18:47:42.
