data_PCOD9285908
_publ_section_title
;
Structure prediction by ZEFSAII (Michael W. Deem and Ramdas Pophale) SiO2 
 PCOD9285908
Probable space group: C 2/C
;
_chemical_formula_sum "Si O2"
_cell_formula_units_Z 52
_cell_length_a 14.567527
_cell_length_b 23.501083
_cell_length_c 8.988661
_cell_angle_alpha 90.000000
_cell_angle_beta 124.812119
_cell_angle_gamma 90.000000
_cell_volume 2526.544370
_symmetry_space_group_name_H-M "C 2/C"
_symmetry_group_IT_number 15
_symmetry_cell_setting 'monoclinic'
loop_
_space_group_symop_operation_xyz
x,y,z
-x,y,1/2-z
-x,-y,-z
x,-y,1/2+z
1/2+x,1/2+y,z
1/2-x,1/2+y,1/2-z
1/2-x,1/2-y,-z
1/2+x,1/2-y,1/2+z
loop_
_atom_site_type_symbol
_atom_site_label
_atom_site_fract_x
_atom_site_fract_y
_atom_site_fract_z
Si Si1 0.000000 0.508417 0.750000
Si Si2 0.148857 0.466365 0.634814
Si Si3 0.322204 0.610845 0.455790
Si Si4 0.872901 0.678725 0.683997
Si Si5 0.672703 0.693408 0.263941
Si Si6 0.755704 0.091750 0.733902
Si Si7 0.997499 0.093775 0.093728
O O1 0.947075 0.470166 0.829474
O O2 0.904554 0.543151 0.576199
O O3 0.233407 0.419639 0.766774
O O4 0.209288 0.527544 0.692879
O O5 0.314927 0.676671 0.398219
O O6 0.288755 0.603961 0.594102
O O7 0.437214 0.581387 0.502073
O O8 0.782210 0.680127 0.464754
O O9 0.863660 0.742467 0.742144
O O10 0.833374 0.633799 0.772344
O O11 0.000000 0.668968 0.750000
O O12 0.573372 0.648767 0.208475
O O13 0.869300 0.099244 0.932010
O O14 0.000000 0.057589 0.250000
#
# Coordination Sequence:
#
# PCOD9285908 Si02
#       7
#     4   8   8   8   8   8   8
#     4  10  24  42  64  84 140 180 214 268 334 380
#     4  11  24  43  65  96 131 181 222 274 330 400
#     4  10  24  43  65  99 132 168 226 272 342 392
#     4  11  24  41  69 101 130 177 232 265 330 405
#     4   9  23  43  67  92 135 168 226 276 329 388
#     4  12  24  41  70  99 135 173 223 279 340 390
#     4  10  21  42  68  93 128 173 215 283 329 387
#
# _framework density 20.581472000000002
#
# number of rings (size 3 to 8) (size 9 to 14) (size 15 to 20)
#    0.923    0.615    3.077    0.923    7.538    2.462 
#    0.000    0.000    0.000    0.000    0.000    0.000 
#    0.000    0.000    0.000    0.000    0.000    0.000 
#
# Total GULP energy -144849.117494 kJ/mol
# GULP energy per Si atom -5571.119904 kJ/mol
# Density = 2.053463 g / cm^3
# Si number density = 20.581472 Si / 1000 Ang^3
#
#
#
# Elastic Constant Matrix: (Units=GPa)
#
#
# Indices 1 2 3 4 5 6 
#
# 1 137.4407 38.1689 48.2983 0.0000 -5.6945 0.0000
# 2 38.1689 57.5521 41.3463 0.0000 0.4704 0.0000
# 3 48.2983 41.3463 115.3963 0.0000 5.7578 0.0000
# 4 0.0000 0.0000 0.0000 13.7447 0.0000 -4.5183
# 5 -5.6945 0.4704 5.7578 0.0000 48.3013 0.0000
# 6 0.0000 0.0000 0.0000 -4.5183 0.0000 12.8063
#
#
#
# Elastic Compliance Matrix: (Units=1/GPa)
#
#
# Indices 1 2 3 4 5 6 
#
# 1 0.009441 -0.004555 -0.002391 0.000000 0.001442 0.000000
# 2 -0.004555 0.025625 -0.007279 0.000000 0.000081 0.000000
# 3 -0.002391 -0.007279 0.012359 0.000000 -0.001684 0.000000
# 4 0.000000 0.000000 0.000000 0.082301 0.000000 0.029037
# 5 0.001442 0.000081 -0.001684 0.000000 0.021073 0.000000
# 6 0.000000 0.000000 0.000000 0.029037 0.000000 0.088332
#
#
# Mechanical properties :
#
#
# Convention : Reuss Voigt Hill
#
# Bulk Modulus (GPa) = 52.70364 62.89070 57.79717
# Shear Modulus (GPa) = 18.25441 27.14218 22.69829
#
# Velocity S-wave (km/s) = 2.98137 3.63542 3.32452
# Velocity P-wave (km/s) = 6.12490 6.94586 6.54826
#
# Compressibility (1/GPa) = 0.01897402
#
# Stress axis : x y z
#
# Youngs Moduli (GPa) = 105.92114 39.02403 80.91427
#
# Poissons Ratio (x) = 0.17776 0.19349
# Poissons Ratio (y) = 0.48249 0.58898
# Poissons Ratio (z) = 0.25329 0.28406
#
# Static dielectric constant tensor:
#      x y z
#    x 1.828180 0.000000 -0.024360 
#    y 0.000000 1.736210 0.000000 
#    z -0.024360 0.000000 1.786660 
# 
# From -- ./inp_files/42319.got.cif
#   From: 2010.05.17/outbox.cif.g08.bks.cpg/sg15_22_cif.got.tgz:42319.got - 2010.06.03 18:47:42.
