data_PCOD9285741
_publ_section_title
;
Structure prediction by ZEFSAII (Michael W. Deem and Ramdas Pophale) SiO2 
 PCOD9285741
Probable space group: C 2/C
;
_chemical_formula_sum "Si O2"
_cell_formula_units_Z 56
_cell_length_a 18.545726
_cell_length_b 9.586386
_cell_length_c 23.316867
_cell_angle_alpha 90.000000
_cell_angle_beta 41.541902
_cell_angle_gamma 90.000000
_cell_volume 2749.110830
_symmetry_space_group_name_H-M "C 2/C"
_symmetry_group_IT_number 15
_symmetry_cell_setting 'monoclinic'
loop_
_space_group_symop_operation_xyz
x,y,z
-x,y,1/2-z
-x,-y,-z
x,-y,1/2+z
1/2+x,1/2+y,z
1/2-x,1/2+y,1/2-z
1/2-x,1/2-y,-z
1/2+x,1/2-y,1/2+z
loop_
_atom_site_type_symbol
_atom_site_label
_atom_site_fract_x
_atom_site_fract_y
_atom_site_fract_z
Si Si1 0.241408 0.152314 0.081162
Si Si2 0.541656 0.994982 0.040020
Si Si3 0.454550 0.516834 0.841961
Si Si4 0.128419 0.305244 0.570904
Si Si5 0.123770 0.439692 0.162985
Si Si6 0.824259 0.553211 0.739285
Si Si7 0.165508 0.880049 0.756306
O O1 0.196159 0.308622 0.099554
O O2 0.215166 0.109149 0.162696
O O3 0.164740 0.052515 0.088741
O O4 0.369689 0.125449 0.999376
O O5 0.437630 0.986500 0.142559
O O6 0.602183 0.135427 0.023731
O O7 0.500000 0.000000 0.000000
O O8 0.500000 0.517383 0.750000
O O9 0.447348 0.674979 0.867914
O O10 0.539950 0.424787 0.826652
O O11 0.250000 0.250000 0.500000
O O12 0.117789 0.432691 0.622428
O O13 0.171683 0.484692 0.196007
O O14 0.000000 0.388670 0.250000
O O15 0.817577 0.719650 0.737823
O O16 0.728702 0.478047 0.762372
#
# Coordination Sequence:
#
# PCOD9285741 Si02
#       7
#     8   8   8   8   8   8   8
#     4  10  21  42  66  92 133 172 218 276 332 401
#     4  12  25  42  65  97 136 174 217 274 344 399
#     4  10  22  40  66  95 131 172 225 273 322 398
#     4  12  26  42  66 101 135 175 221 276 335 393
#     4  11  23  42  67 100 129 173 229 272 327 400
#     4  11  24  41  69  95 132 177 222 275 335 402
#     4  10  23  40  64  98 127 174 224 269 335 397
#
# _framework density 20.370221999999998
#
# number of rings (size 3 to 8) (size 9 to 14) (size 15 to 20)
#    0.000    1.143    4.286    2.571    2.000    4.000 
#    0.000    0.000    0.000    4.286    0.000    0.000 
#    0.000    0.000    0.000    0.000    0.000    0.000 
#
# Total GULP energy -156547.527856 kJ/mol
# GULP energy per Si atom -5590.983138 kJ/mol
# Density = 2.032386 g / cm^3
# Si number density = 20.370222 Si / 1000 Ang^3
#
#
#
# Elastic Constant Matrix: (Units=GPa)
#
#
# Indices 1 2 3 4 5 6 
#
# 1 151.7983 68.9016 19.2904 0.0000 -10.3141 0.0000
# 2 68.9016 77.4781 5.6715 0.0000 11.1264 0.0000
# 3 19.2904 5.6715 42.1240 0.0000 -11.5275 0.0000
# 4 0.0000 0.0000 0.0000 38.1498 0.0000 -6.4904
# 5 -10.3141 11.1264 -11.5275 0.0000 29.3237 0.0000
# 6 0.0000 0.0000 0.0000 -6.4904 0.0000 41.4299
#
#
#
# Elastic Compliance Matrix: (Units=1/GPa)
#
#
# Indices 1 2 3 4 5 6 
#
# 1 0.013328 -0.012982 -0.001932 0.000000 0.008854 0.000000
# 2 -0.012982 0.026816 -0.001904 0.000000 -0.015490 0.000000
# 3 -0.001932 -0.001904 0.027893 0.000000 0.011008 0.000000
# 4 0.000000 0.000000 0.000000 0.026930 0.000000 0.004219
# 5 0.008854 -0.015490 0.011008 0.000000 0.047421 0.000000
# 6 0.000000 0.000000 0.000000 0.004219 0.000000 0.024798
#
#
# Mechanical properties :
#
#
# Convention : Reuss Voigt Hill
#
# Bulk Modulus (GPa) = 29.07065 51.01413 40.04239
# Shear Modulus (GPa) = 23.55270 33.61647 28.58458
#
# Velocity S-wave (km/s) = 3.40403 4.06676 3.75007
# Velocity P-wave (km/s) = 5.45454 6.86653 6.20086
#
# Compressibility (1/GPa) = 0.03439895
#
# Stress axis : x y z
#
# Youngs Moduli (GPa) = 75.03260 37.29132 35.85109
#
# Poissons Ratio (x) = 0.48413 0.06928
# Poissons Ratio (y) = 0.97409 0.06827
# Poissons Ratio (z) = 0.14499 0.07101
#
# Static dielectric constant tensor:
#      x y z
#    x 1.720050 0.000000 0.010600 
#    y 0.000000 1.721380 0.000000 
#    z 0.010600 0.000000 1.761120 
# 
# From -- ./inp_files/298516.got.cif
#   From: 2010.05.17/outbox.cif.g08.bks.cpg/sg15_150_cif.got.tgz:298516.got - 2010.06.03 18:47:42.
