data_PCOD9285971
_publ_section_title
;
Structure prediction by ZEFSAII (Michael W. Deem and Ramdas Pophale) SiO2 
 PCOD9285971
Probable space group: C 2/C
;
_chemical_formula_sum "Si O2"
_cell_formula_units_Z 48
_cell_length_a 11.857971
_cell_length_b 13.117048
_cell_length_c 20.987020
_cell_angle_alpha 90.000000
_cell_angle_beta 40.834172
_cell_angle_gamma 90.000000
_cell_volume 2134.469673
_symmetry_space_group_name_H-M "C 2/C"
_symmetry_group_IT_number 15
_symmetry_cell_setting 'monoclinic'
loop_
_space_group_symop_operation_xyz
x,y,z
-x,y,1/2-z
-x,-y,-z
x,-y,1/2+z
1/2+x,1/2+y,z
1/2-x,1/2+y,1/2-z
1/2-x,1/2-y,-z
1/2+x,1/2-y,1/2+z
loop_
_atom_site_type_symbol
_atom_site_label
_atom_site_fract_x
_atom_site_fract_y
_atom_site_fract_z
Si Si1 0.654677 0.607844 0.635366
Si Si2 0.194733 0.900421 0.545863
Si Si3 0.491490 0.188439 0.005406
Si Si4 0.000937 0.315948 0.847899
Si Si5 0.163516 0.479499 0.141603
Si Si6 0.356285 0.635581 0.131952
O O1 0.500000 0.586206 0.750000
O O2 0.674800 0.515509 0.578573
O O3 0.605174 0.713699 0.621801
O O4 0.843501 0.620119 0.585949
O O5 0.325348 0.841255 0.535626
O O6 0.001050 0.859190 0.624251
O O7 0.269256 0.907100 0.442406
O O8 0.559177 0.301456 0.961556
O O9 0.465662 0.173993 0.091462
O O10 0.180577 0.314030 0.732414
O O11 0.904501 0.416092 0.862935
O O12 0.307156 0.522090 0.129314
O O13 0.000000 0.436749 0.250000
#
# Coordination Sequence:
#
# PCOD9285971 Si02
#       6
#     8   8   8   8   8   8
#     4  12  23  42  71  97 124 172 228 265 316 387
#     4  12  27  40  65 104 137 163 212 280 330 376
#     4  12  24  44  67  95 136 172 210 269 328 389
#     4  11  22  43  72  92 124 178 225 261 311 396
#     4  10  21  42  69  93 129 174 222 265 313 380
#     4  11  24  45  66  94 136 177 214 257 330 394
#
# _framework density 22.488022000000001
#
# number of rings (size 3 to 8) (size 9 to 14) (size 15 to 20)
#    0.000    0.667    5.000    3.500    2.333    1.333 
#    3.000    0.000    0.000    0.000    0.000    0.000 
#    0.000    0.000    0.000    0.000    0.000    0.000 
#
# Total GULP energy -134294.131341 kJ/mol
# GULP energy per Si atom -5595.588806 kJ/mol
# Density = 2.243684 g / cm^3
# Si number density = 22.488022 Si / 1000 Ang^3
#
#
#
# Elastic Constant Matrix: (Units=GPa)
#
#
# Indices 1 2 3 4 5 6 
#
# 1 134.4468 7.0777 41.4385 0.0000 -24.5718 0.0000
# 2 7.0777 36.5035 16.8434 0.0000 -9.3748 0.0000
# 3 41.4385 16.8434 93.2226 0.0000 9.0416 0.0000
# 4 0.0000 0.0000 0.0000 21.0439 0.0000 -1.5028
# 5 -24.5718 -9.3748 9.0416 0.0000 29.6520 0.0000
# 6 0.0000 0.0000 0.0000 -1.5028 0.0000 23.9426
#
#
#
# Elastic Compliance Matrix: (Units=1/GPa)
#
#
# Indices 1 2 3 4 5 6 
#
# 1 0.012017 0.004662 -0.007515 0.000000 0.013723 0.000000
# 2 0.004662 0.035998 -0.010361 0.000000 0.018404 0.000000
# 3 -0.007515 -0.010361 0.017375 0.000000 -0.014801 0.000000
# 4 0.000000 0.000000 0.000000 0.047734 0.000000 0.002996
# 5 0.013723 0.018404 -0.014801 0.000000 0.055429 0.000000
# 6 0.000000 0.000000 0.000000 0.002996 0.000000 0.041955
#
#
# Mechanical properties :
#
#
# Convention : Reuss Voigt Hill
#
# Bulk Modulus (GPa) = 25.66644 43.87689 34.77166
# Shear Modulus (GPa) = 20.00617 28.18191 24.09404
#
# Velocity S-wave (km/s) = 2.98591 3.54389 3.27680
# Velocity P-wave (km/s) = 4.82967 6.02488 5.46008
#
# Compressibility (1/GPa) = 0.03896139
#
# Stress axis : x y z
#
# Youngs Moduli (GPa) = 83.21692 27.77921 57.55343
#
# Poissons Ratio (x) = -0.12951 0.43251
# Poissons Ratio (y) = -0.38796 0.59634
# Poissons Ratio (z) = 0.62537 0.28783
#
# Static dielectric constant tensor:
#      x y z
#    x 1.844210 0.000000 -0.016610 
#    y 0.000000 1.832720 0.000000 
#    z -0.016610 0.000000 1.810970 
# 
# From -- ./inp_files/143833.got.cif
#   From: 2010.05.17/outbox.cif.g08.bks.cpg/sg15_72_cif.got.tgz:143833.got - 2010.06.03 18:47:42.
