data_PCOD9285853
_publ_section_title
;
Structure prediction by ZEFSAII (Michael W. Deem and Ramdas Pophale) SiO2 
 PCOD9285853
Probable space group: C 2/C
;
_chemical_formula_sum "Si O2"
_cell_formula_units_Z 56
_cell_length_a 11.087097
_cell_length_b 28.642106
_cell_length_c 9.255120
_cell_angle_alpha 90.000000
_cell_angle_beta 114.271328
_cell_angle_gamma 90.000000
_cell_volume 2679.251591
_symmetry_space_group_name_H-M "C 2/C"
_symmetry_group_IT_number 15
_symmetry_cell_setting 'monoclinic'
loop_
_space_group_symop_operation_xyz
x,y,z
-x,y,1/2-z
-x,-y,-z
x,-y,1/2+z
1/2+x,1/2+y,z
1/2-x,1/2+y,1/2-z
1/2-x,1/2-y,-z
1/2+x,1/2-y,1/2+z
loop_
_atom_site_type_symbol
_atom_site_label
_atom_site_fract_x
_atom_site_fract_y
_atom_site_fract_z
Si Si1 0.663666 0.795640 0.983148
Si Si2 0.608594 0.825613 0.635819
Si Si3 0.233272 0.042769 0.453127
Si Si4 0.129866 0.149465 0.733398
Si Si5 0.725692 0.453529 0.292227
Si Si6 0.134604 0.851483 0.897533
Si Si7 0.503737 0.069264 0.081037
O O1 0.656315 0.821010 0.824149
O O2 0.509622 0.788910 0.949558
O O3 0.750000 0.750000 0.000000
O O4 0.740995 0.826398 0.137214
O O5 0.737068 0.824781 0.599813
O O6 0.538447 0.875871 0.584898
O O7 0.244355 0.036551 0.630892
O O8 0.164666 0.092866 0.391888
O O9 0.376743 0.045183 0.446630
O O10 0.166579 0.998184 0.345351
O O11 0.143118 0.093942 0.763775
O O12 0.120132 0.157624 0.559179
O O13 0.000000 0.167480 0.750000
O O14 0.865503 0.441910 0.437581
O O15 0.000000 0.839420 0.750000
O O16 0.500000 0.057189 0.250000
#
# Coordination Sequence:
#
# PCOD9285853 Si02
#       7
#     8   8   8   8   8   8   8
#     4  11  23  42  70 101 131 162 213 270 328 410
#     4  10  21  42  67  98 130 173 211 265 335 389
#     4  10  23  34  58  88 129 172 222 272 320 377
#     4  11  24  41  67  93 127 178 220 274 333 394
#     4  11  21  38  53  90 127 170 222 271 325 383
#     4  10  23  43  67  94 134 180 225 268 325 394
#     4  11  18  34  59  86 124 167 217 263 319 385
#
# _framework density 20.901358999999999
#
# number of rings (size 3 to 8) (size 9 to 14) (size 15 to 20)
#    0.000    1.429    2.857    2.571    2.000    4.571 
#    0.000    3.571    3.143    0.000    0.000    0.000 
#    0.000    0.000    0.000    0.000    0.000    0.000 
#
# Total GULP energy -156520.699439 kJ/mol
# GULP energy per Si atom -5590.024980 kJ/mol
# Density = 2.085379 g / cm^3
# Si number density = 20.901359 Si / 1000 Ang^3
#
#
#
# Elastic Constant Matrix: (Units=GPa)
#
#
# Indices 1 2 3 4 5 6 
#
# 1 144.2133 30.0736 82.7418 0.0000 5.2179 0.0000
# 2 30.0736 57.0498 26.8807 0.0000 -1.0471 0.0000
# 3 82.7418 26.8807 123.8089 0.0000 5.5629 0.0000
# 4 0.0000 0.0000 0.0000 7.0457 0.0000 -1.2752
# 5 5.2179 -1.0471 5.5629 0.0000 22.8901 0.0000
# 6 0.0000 0.0000 0.0000 -1.2752 0.0000 17.9498
#
#
#
# Elastic Compliance Matrix: (Units=1/GPa)
#
#
# Indices 1 2 3 4 5 6 
#
# 1 0.011645 -0.002800 -0.007128 0.000000 -0.001051 0.000000
# 2 -0.002800 0.020285 -0.002632 0.000000 0.002206 0.000000
# 3 -0.007128 -0.002632 0.013492 0.000000 -0.001774 0.000000
# 4 0.000000 0.000000 0.000000 0.143780 0.000000 0.010214
# 5 -0.001051 0.002206 -0.001774 0.000000 0.044459 0.000000
# 6 0.000000 0.000000 0.000000 0.010214 0.000000 0.056437
#
#
# Mechanical properties :
#
#
# Convention : Reuss Voigt Hill
#
# Bulk Modulus (GPa) = 49.25380 67.16269 58.20825
# Shear Modulus (GPa) = 15.52869 21.93549 18.73209
#
# Velocity S-wave (km/s) = 2.72867 3.24308 2.99693
# Velocity P-wave (km/s) = 5.79168 6.79899 6.31545
#
# Compressibility (1/GPa) = 0.02030300
#
# Stress axis : x y z
#
# Youngs Moduli (GPa) = 85.87014 49.29710 74.12015
#
# Poissons Ratio (x) = 0.13802 0.52830
# Poissons Ratio (y) = 0.24042 0.19510
# Poissons Ratio (z) = 0.61205 0.12976
#
# Static dielectric constant tensor:
#      x y z
#    x 1.751970 0.000000 0.009190 
#    y 0.000000 1.821380 0.000000 
#    z 0.009190 0.000000 1.691340 
# 
# From -- ./inp_files/35778.got.cif
#   From: 2010.05.17/outbox.cif.g08.bks.cpg/sg15_18_cif.got.tgz:35778.got - 2010.06.03 18:47:42.
