data_PCOD9285093
_publ_section_title
;
Structure prediction by ZEFSAII (Michael W. Deem and Ramdas Pophale) SiO2 
 PCOD9285093
Probable space group: C 2/C
;
_chemical_formula_sum "Si O2"
_cell_formula_units_Z 48
_cell_length_a 17.413131
_cell_length_b 28.451245
_cell_length_c 10.133757
_cell_angle_alpha 90.000000
_cell_angle_beta 30.560086
_cell_angle_gamma 90.000000
_cell_volume 2552.641160
_symmetry_space_group_name_H-M "C 2/C"
_symmetry_group_IT_number 15
_symmetry_cell_setting 'monoclinic'
loop_
_space_group_symop_operation_xyz
x,y,z
-x,y,1/2-z
-x,-y,-z
x,-y,1/2+z
1/2+x,1/2+y,z
1/2-x,1/2+y,1/2-z
1/2-x,1/2-y,-z
1/2+x,1/2-y,1/2+z
loop_
_atom_site_type_symbol
_atom_site_label
_atom_site_fract_x
_atom_site_fract_y
_atom_site_fract_z
Si Si1 0.559800 0.874251 0.446329
Si Si2 0.415976 0.030227 0.736447
Si Si3 0.900956 0.979855 0.265407
Si Si4 0.745517 0.119111 0.941742
Si Si5 0.825561 0.270283 0.256719
Si Si6 0.142155 0.221571 0.759454
O O1 0.578655 0.915563 0.313837
O O2 0.661694 0.885374 0.424491
O O3 0.612862 0.823486 0.317200
O O4 0.387803 0.874085 0.753673
O O5 0.500000 0.022526 0.750000
O O6 0.500000 0.000000 0.500000
O O7 0.246088 0.012059 0.998797
O O8 0.840831 0.927369 0.326930
O O9 0.000000 0.980089 0.250000
O O10 0.000000 0.000000 0.000000
O O11 0.843000 0.166459 0.793788
O O12 0.750000 0.250000 0.500000
O O13 0.708144 0.270660 0.309051
O O14 0.972221 0.239859 0.001571
O O15 0.250000 0.250000 0.500000
#
# Coordination Sequence:
#
# PCOD9285093 Si02
#       6
#     8   8   8   8   8   8
#     4  10  21  41  67  93 123 169 219 258 307 379
#     4  12  24  42  70  94 123 171 216 256 314 386
#     4  12  26  42  63  97 133 161 206 269 324 366
#     4  10  21  41  67  91 125 171 217 256 308 384
#     4  11  24  41  64  96 132 163 208 271 320 364
#     4  11  22  41  67  92 124 172 215 253 316 383
#
# _framework density 18.804053
#
# number of rings (size 3 to 8) (size 9 to 14) (size 15 to 20)
#    0.000    1.000    3.333    4.000    0.000    4.000 
#    0.000    1.667    0.000    0.000    0.000    0.000 
#    0.000    0.000    0.000    0.000    0.000    0.000 
#
# Total GULP energy -134256.862007 kJ/mol
# GULP energy per Si atom -5594.035917 kJ/mol
# Density = 1.876125 g / cm^3
# Si number density = 18.804053 Si / 1000 Ang^3
#
#
#
# Elastic Constant Matrix: (Units=GPa)
#
#
# Indices 1 2 3 4 5 6 
#
# 1 85.8270 69.5326 49.2845 0.0002 1.9290 -0.0010
# 2 69.5326 129.2375 59.3896 0.0000 5.9394 0.0001
# 3 49.2845 59.3896 134.0311 0.0004 5.9512 -0.0013
# 4 0.0002 0.0000 0.0004 39.1957 -0.0003 3.5299
# 5 1.9290 5.9394 5.9512 -0.0003 36.0093 0.0012
# 6 -0.0010 0.0001 -0.0013 3.5299 0.0012 26.6242
#
#
#
# Elastic Compliance Matrix: (Units=1/GPa)
#
#
# Indices 1 2 3 4 5 6 
#
# 1 0.021972 -0.010217 -0.003601 0.000000 0.001103 0.000001
# 2 -0.010217 0.014496 -0.002604 0.000000 -0.001413 -0.000001
# 3 -0.003601 -0.002604 0.009984 0.000000 -0.001028 0.000000
# 4 0.000000 0.000000 0.000000 0.025821 0.000000 -0.003423
# 5 0.001103 -0.001413 -0.001028 0.000000 0.028115 -0.000001
# 6 0.000001 -0.000001 0.000000 -0.003423 -0.000001 0.038014
#
#
# Mechanical properties :
#
#
# Convention : Reuss Voigt Hill
#
# Bulk Modulus (GPa) = 73.48176 78.38989 75.93582
# Shear Modulus (GPa) = 28.44437 31.75843 30.10140
#
# Velocity S-wave (km/s) = 3.89353 4.11410 4.00533
# Velocity P-wave (km/s) = 7.70553 8.02160 7.86515
#
# Compressibility (1/GPa) = 0.01360882
#
# Stress axis : x y z
#
# Youngs Moduli (GPa) = 45.51283 68.98354 100.15694
#
# Poissons Ratio (x) = 0.70482 0.36066
# Poissons Ratio (y) = 0.46502 0.26077
# Poissons Ratio (z) = 0.16389 0.17960
#
# Static dielectric constant tensor:
#      x y z
#    x 1.629940 0.000000 0.005070 
#    y 0.000000 1.634650 0.000000 
#    z 0.005070 0.000000 1.613350 
# 
# From -- ./inp_files/52743.got.cif
#   From: 2010.05.17/outbox.cif.g08.bks.cpg/sg15_27_cif.got.tgz:52743.got - 2010.06.03 18:47:42.
