data_PCOD9285191
_publ_section_title
;
Structure prediction by ZEFSAII (Michael W. Deem and Ramdas Pophale) SiO2 
 PCOD9285191
Probable space group: C 2/C
;
_chemical_formula_sum "Si O2"
_cell_formula_units_Z 64
_cell_length_a 8.707619
_cell_length_b 29.632608
_cell_length_c 22.867514
_cell_angle_alpha 90.000000
_cell_angle_beta 147.669742
_cell_angle_gamma 90.000000
_cell_volume 3155.575369
_symmetry_space_group_name_H-M "C 2/C"
_symmetry_group_IT_number 15
_symmetry_cell_setting 'monoclinic'
loop_
_space_group_symop_operation_xyz
x,y,z
-x,y,1/2-z
-x,-y,-z
x,-y,1/2+z
1/2+x,1/2+y,z
1/2-x,1/2+y,1/2-z
1/2-x,1/2-y,-z
1/2+x,1/2-y,1/2+z
loop_
_atom_site_type_symbol
_atom_site_label
_atom_site_fract_x
_atom_site_fract_y
_atom_site_fract_z
Si Si1 0.706459 0.793996 0.528816
Si Si2 0.693650 0.715327 0.682141
Si Si3 0.321080 0.070873 0.960168
Si Si4 0.122287 0.671178 0.470740
Si Si5 0.140330 0.440199 0.233484
Si Si6 0.643048 0.807798 0.732263
Si Si7 0.189902 0.644653 0.679017
Si Si8 0.343540 0.996901 0.362817
O O1 0.750000 0.750000 0.500000
O O2 0.542517 0.793030 0.539179
O O3 0.517892 0.828757 0.430853
O O4 0.019441 0.811881 0.646739
O O5 0.436267 0.693474 0.561651
O O6 0.595443 0.758106 0.688899
O O7 0.749627 0.677439 0.748101
O O8 0.000000 0.724904 0.750000
O O9 0.401827 0.046349 0.924447
O O10 0.980834 0.063428 0.852615
O O11 0.369443 0.123466 0.991540
O O12 0.493269 0.040066 0.060917
O O13 0.972607 0.663137 0.359734
O O14 0.053570 0.398857 0.164303
O O15 0.065615 0.484497 0.173195
O O16 0.000000 0.437197 0.250000
O O17 0.500000 0.812784 0.750000
O O18 0.500000 0.633510 0.750000
O O19 0.000000 0.003553 0.250000
#
# Coordination Sequence:
#
# PCOD9285191 Si02
#       8
#     8   8   8   8   8   8   8   8
#     4  12  24  41  64  88 126 167 215 271 320 380
#     4  12  24  41  66  95 126 167 215 273 324 376
#     4  10  21  41  68  92 125 163 211 262 317 385
#     4  12  25  44  66  94 130 172 217 270 324 387
#     4  11  22  38  63  98 130 161 204 260 325 382
#     4  12  28  44  60  89 130 179 223 267 324 380
#     4  12  22  41  68  95 127 163 221 267 319 379
#     4   9  20  40  66  96 123 161 209 256 316 390
#
# _framework density 20.281562000000001
#
# number of rings (size 3 to 8) (size 9 to 14) (size 15 to 20)
#    0.000    0.750    3.750    4.875    1.750    1.500 
#    0.000    1.875    0.000    0.000    0.000    0.000 
#    0.000    0.000    0.000    0.000    0.000    0.000 
#
# Total GULP energy -178587.737300 kJ/mol
# GULP energy per Si atom -5580.866791 kJ/mol
# Density = 2.023540 g / cm^3
# Si number density = 20.281562 Si / 1000 Ang^3
#
#
#
# Elastic Constant Matrix: (Units=GPa)
#
#
# Indices 1 2 3 4 5 6 
#
# 1 126.4080 39.2588 45.5855 0.0001 -11.6170 0.0000
# 2 39.2588 90.9659 29.9636 0.0003 -6.4096 0.0001
# 3 45.5855 29.9636 134.1134 -0.0027 -14.8681 0.0015
# 4 0.0001 0.0003 -0.0027 16.8322 -0.0001 5.3622
# 5 -11.6170 -6.4096 -14.8681 -0.0001 26.1471 0.0001
# 6 0.0000 0.0001 0.0015 5.3622 0.0001 10.6832
#
#
#
# Elastic Compliance Matrix: (Units=1/GPa)
#
#
# Indices 1 2 3 4 5 6 
#
# 1 0.010036 -0.003380 -0.002405 -0.000001 0.002263 0.000001
# 2 -0.003380 0.013060 -0.001687 -0.000001 0.000741 0.000000
# 3 -0.002405 -0.001687 0.009058 0.000002 0.003668 -0.000002
# 4 -0.000001 -0.000001 0.000002 0.070717 0.000001 -0.035495
# 5 0.002263 0.000741 0.003668 0.000001 0.041518 -0.000001
# 6 0.000001 0.000000 -0.000002 -0.035495 -0.000001 0.111421
#
#
# Mechanical properties :
#
#
# Convention : Reuss Voigt Hill
#
# Bulk Modulus (GPa) = 58.10809 64.56702 61.33756
# Shear Modulus (GPa) = 18.08388 26.51112 22.29750
#
# Velocity S-wave (km/s) = 2.98928 3.61938 3.31931
# Velocity P-wave (km/s) = 6.37395 7.02645 6.70814
#
# Compressibility (1/GPa) = 0.01720931
#
# Stress axis : x y z
#
# Youngs Moduli (GPa) = 99.64304 76.57259 110.40560
#
# Poissons Ratio (x) = 0.25878 0.26556
# Poissons Ratio (y) = 0.33674 0.18625
# Poissons Ratio (z) = 0.23967 0.12917
#
# Static dielectric constant tensor:
#      x y z
#    x 1.759260 0.000000 -0.021620 
#    y 0.000000 1.762760 0.000000 
#    z -0.021620 0.000000 1.744980 
# 
# From -- ./inp_files/266764.got.cif
#   From: 2010.05.17/outbox.cif.g08.bks.cpg/sg15_134_cif.got.tgz:266764.got - 2010.06.03 18:47:42.
