data_PCOD9285841
_publ_section_title
;
Structure prediction by ZEFSAII (Michael W. Deem and Ramdas Pophale) SiO2 
 PCOD9285841
Probable space group: C 2/C
;
_chemical_formula_sum "Si O2"
_cell_formula_units_Z 40
_cell_length_a 11.265659
_cell_length_b 15.890302
_cell_length_c 18.586627
_cell_angle_alpha 90.000000
_cell_angle_beta 148.293192
_cell_angle_gamma 90.000000
_cell_volume 1748.727621
_symmetry_space_group_name_H-M "C 2/C"
_symmetry_group_IT_number 15
_symmetry_cell_setting 'monoclinic'
loop_
_space_group_symop_operation_xyz
x,y,z
-x,y,1/2-z
-x,-y,-z
x,-y,1/2+z
1/2+x,1/2+y,z
1/2-x,1/2+y,1/2-z
1/2-x,1/2-y,-z
1/2+x,1/2-y,1/2+z
loop_
_atom_site_type_symbol
_atom_site_label
_atom_site_fract_x
_atom_site_fract_y
_atom_site_fract_z
Si Si1 0.556562 0.770164 0.595698
Si Si2 0.972620 0.294079 0.148947
Si Si3 0.252780 0.929663 0.859103
Si Si4 0.693343 0.145022 0.404302
Si Si5 0.533966 0.989856 0.393844
O O1 0.609557 0.842435 0.565472
O O2 0.384184 0.817100 0.559542
O O3 0.433561 0.684679 0.508013
O O4 0.793535 0.749066 0.756323
O O5 0.979954 0.393551 0.136231
O O6 0.000000 0.286301 0.250000
O O7 0.750000 0.250000 0.000000
O O8 0.000000 0.908636 0.750000
O O9 0.300265 0.968643 0.804060
O O10 0.325674 0.992932 0.959356
O O11 0.500000 0.172968 0.250000
O O12 0.661527 0.045702 0.400464
#
# Coordination Sequence:
#
# PCOD9285841 Si02
#       5
#     8   8   8   8   8
#     4  10  23  42  66  99 131 185 224 277 345 406
#     4  12  26  44  70 102 140 181 234 283 349 414
#     4  10  21  42  67  96 137 175 229 284 333 419
#     4  10  23  43  66  95 138 172 228 286 338 407
#     4  10  23  41  65 102 131 179 228 278 351 400
#
# _framework density 22.873773
#
# number of rings (size 3 to 8) (size 9 to 14) (size 15 to 20)
#    0.000    1.600    0.000    3.600    8.400    0.000 
#    0.000    2.000    0.000    0.000    0.000    0.000 
#    0.000    0.000    0.000    0.000    0.000    0.000 
#
# Total GULP energy -111537.979258 kJ/mol
# GULP energy per Si atom -5576.898963 kJ/mol
# Density = 2.282171 g / cm^3
# Si number density = 22.873773 Si / 1000 Ang^3
#
#
#
# Elastic Constant Matrix: (Units=GPa)
#
#
# Indices 1 2 3 4 5 6 
#
# 1 64.7581 38.5978 29.0657 -0.0001 9.1307 0.0000
# 2 38.5978 154.8692 43.5325 0.0000 16.6025 0.0000
# 3 29.0657 43.5325 107.5421 0.0009 16.2344 0.0002
# 4 -0.0001 0.0000 0.0009 26.9409 0.0001 -5.4111
# 5 9.1307 16.6025 16.2344 0.0001 33.1972 0.0000
# 6 0.0000 0.0000 0.0002 -5.4111 0.0000 20.5618
#
#
#
# Elastic Compliance Matrix: (Units=1/GPa)
#
#
# Indices 1 2 3 4 5 6 
#
# 1 0.019456 -0.003672 -0.003500 0.000000 -0.001803 0.000000
# 2 -0.003672 0.008157 -0.001993 0.000000 -0.002095 0.000000
# 3 -0.003500 -0.001993 0.011613 0.000000 -0.003720 0.000000
# 4 0.000000 0.000000 0.000000 0.039190 0.000000 0.010313
# 5 -0.001803 -0.002095 -0.003720 0.000000 0.033486 0.000000
# 6 0.000000 0.000000 0.000000 0.010313 0.000000 0.051348
#
#
# Mechanical properties :
#
#
# Convention : Reuss Voigt Hill
#
# Bulk Modulus (GPa) = 47.85634 61.06237 54.45936
# Shear Modulus (GPa) = 26.51900 30.53821 28.52861
#
# Velocity S-wave (km/s) = 3.40864 3.65783 3.53543
# Velocity P-wave (km/s) = 6.03814 6.67780 6.36601
#
# Compressibility (1/GPa) = 0.02089587
#
# Stress axis : x y z
#
# Youngs Moduli (GPa) = 51.39886 122.59321 86.11065
#
# Poissons Ratio (x) = 0.45014 0.30137
# Poissons Ratio (y) = 0.18873 0.17165
# Poissons Ratio (z) = 0.17988 0.24437
#
# Static dielectric constant tensor:
#      x y z
#    x 1.965330 0.000000 0.062710 
#    y 0.000000 1.939700 0.000000 
#    z 0.062710 0.000000 1.895380 
# 
# From -- ./inp_files/239902.got.cif
#   From: 2010.05.17/outbox.cif.g08.bks.cpg/sg15_120_cif.got.tgz:239902.got - 2010.06.03 18:47:42.
