data_PCOD9285785
_publ_section_title
;
Structure prediction by ZEFSAII (Michael W. Deem and Ramdas Pophale) SiO2 
 PCOD9285785
Probable space group: C 2/C
;
_chemical_formula_sum "Si O2"
_cell_formula_units_Z 44
_cell_length_a 5.353251
_cell_length_b 18.824748
_cell_length_c 20.464060
_cell_angle_alpha 90.000000
_cell_angle_beta 78.274112
_cell_angle_gamma 90.000000
_cell_volume 2019.200370
_symmetry_space_group_name_H-M "C 2/C"
_symmetry_group_IT_number 15
_symmetry_cell_setting 'monoclinic'
loop_
_space_group_symop_operation_xyz
x,y,z
-x,y,1/2-z
-x,-y,-z
x,-y,1/2+z
1/2+x,1/2+y,z
1/2-x,1/2+y,1/2-z
1/2-x,1/2-y,-z
1/2+x,1/2-y,1/2+z
loop_
_atom_site_type_symbol
_atom_site_label
_atom_site_fract_x
_atom_site_fract_y
_atom_site_fract_z
Si Si1 0.956682 0.491519 0.424782
Si Si2 0.322929 0.594239 0.820348
Si Si3 0.734556 0.847736 0.026372
Si Si4 0.907690 0.229320 0.635252
Si Si5 0.000000 0.303887 0.250000
Si Si6 0.297600 0.853895 0.939489
O O1 0.778192 0.422444 0.433672
O O2 0.000000 0.500000 0.500000
O O3 0.203124 0.467791 0.370253
O O4 0.848349 0.567228 0.408801
O O5 0.500000 0.570627 0.750000
O O6 0.463391 0.653769 0.855836
O O7 0.103872 0.642250 0.798915
O O8 0.484490 0.845567 0.993411
O O9 0.002862 0.847975 0.974257
O O10 0.748563 0.784127 0.077464
O O11 0.721709 0.242058 0.705958
O O12 0.108779 0.291280 0.612611
#
# Coordination Sequence:
#
# PCOD9285785 Si02
#       6
#     8   8   8   8   4   8
#     4  10  21  42  66  99 132 171 215 272 330 393
#     4  10  22  42  67  91 125 181 228 266 324 405
#     4  11  22  40  66  96 135 169 210 259 326 407
#     4  11  22  39  66  91 129 166 225 263 325 383
#     4  10  22  40  66  86 122 178 228 268 316 400
#     4  11  25  38  65 103 130 166 205 278 335 375
#
# _framework density 21.790803
#
# number of rings (size 3 to 8) (size 9 to 14) (size 15 to 20)
#    0.000    1.455    1.818    3.818    2.545    1.455 
#    1.636    0.000    6.000    0.000    0.000    0.000 
#    0.000    0.000    0.000    0.000    0.000    0.000 
#
# Total GULP energy -122916.651060 kJ/mol
# GULP energy per Si atom -5587.120503 kJ/mol
# Density = 2.174121 g / cm^3
# Si number density = 21.790803 Si / 1000 Ang^3
#
#
#
# Elastic Constant Matrix: (Units=GPa)
#
#
# Indices 1 2 3 4 5 6 
#
# 1 84.9940 13.2426 30.9415 0.0000 -11.4907 0.0000
# 2 13.2426 103.6258 54.8351 0.0000 -25.4041 0.0000
# 3 30.9415 54.8351 116.8603 0.0000 -47.1145 0.0000
# 4 0.0000 0.0000 0.0000 25.6782 0.0000 -7.4446
# 5 -11.4907 -25.4041 -47.1145 0.0000 51.0760 0.0000
# 6 0.0000 0.0000 0.0000 -7.4446 0.0000 26.7870
#
#
#
# Elastic Compliance Matrix: (Units=1/GPa)
#
#
# Indices 1 2 3 4 5 6 
#
# 1 0.013029 0.000197 -0.003695 0.000000 -0.000379 0.000000
# 2 0.000197 0.012897 -0.005572 0.000000 0.001319 0.000000
# 3 -0.003695 -0.005572 0.017032 0.000000 0.012108 0.000000
# 4 0.000000 0.000000 0.000000 0.042356 0.000000 0.011772
# 5 -0.000379 0.001319 0.012108 0.000000 0.031318 0.000000
# 6 0.000000 0.000000 0.000000 0.011772 0.000000 0.040603
#
#
# Mechanical properties :
#
#
# Convention : Reuss Voigt Hill
#
# Bulk Modulus (GPa) = 40.29406 55.94649 48.12027
# Shear Modulus (GPa) = 27.22607 34.47231 30.84919
#
# Velocity S-wave (km/s) = 3.53856 3.98171 3.76666
# Velocity P-wave (km/s) = 5.93521 6.84608 6.40685
#
# Compressibility (1/GPa) = 0.02481756
#
# Stress axis : x y z
#
# Youngs Moduli (GPa) = 76.75353 77.53851 58.71349
#
# Poissons Ratio (x) = -0.01531 0.21696
# Poissons Ratio (y) = -0.01515 0.32716
# Poissons Ratio (z) = 0.28362 0.43205
#
# Static dielectric constant tensor:
#      x y z
#    x 1.882070 0.000000 0.142300 
#    y 0.000000 1.810520 0.000000 
#    z 0.142300 0.000000 2.263820 
# 
# From -- ./inp_files/184838.got.cif
#   From: 2010.05.17/outbox.cif.g08.bks.cpg/sg15_93_cif.got.tgz:184838.got - 2010.06.03 18:47:42.
