data_PCOD9285810
_publ_section_title
;
Structure prediction by ZEFSAII (Michael W. Deem and Ramdas Pophale) SiO2 
 PCOD9285810
Probable space group: C 2/C
;
_chemical_formula_sum "Si O2"
_cell_formula_units_Z 64
_cell_length_a 5.029552
_cell_length_b 19.661783
_cell_length_c 27.815550
_cell_angle_alpha 90.000000
_cell_angle_beta 70.930263
_cell_angle_gamma 90.000000
_cell_volume 2599.725822
_symmetry_space_group_name_H-M "C 2/C"
_symmetry_group_IT_number 15
_symmetry_cell_setting 'monoclinic'
loop_
_space_group_symop_operation_xyz
x,y,z
-x,y,1/2-z
-x,-y,-z
x,-y,1/2+z
1/2+x,1/2+y,z
1/2-x,1/2+y,1/2-z
1/2-x,1/2-y,-z
1/2+x,1/2-y,1/2+z
loop_
_atom_site_type_symbol
_atom_site_label
_atom_site_fract_x
_atom_site_fract_y
_atom_site_fract_z
Si Si1 0.421544 0.921612 0.607757
Si Si2 0.440199 0.555090 0.462646
Si Si3 0.212447 0.381560 0.191508
Si Si4 0.573218 0.224981 0.083435
Si Si5 0.075176 0.189681 0.987585
Si Si6 0.206118 0.299641 0.339087
Si Si7 0.679435 0.334668 0.785513
Si Si8 0.861170 0.532907 0.311026
O O1 0.255929 0.954159 0.572615
O O2 0.385330 0.838715 0.611822
O O3 0.407855 0.956644 0.660800
O O4 0.753030 0.930244 0.576851
O O5 0.500000 0.500000 0.500000
O O6 0.312747 0.618576 0.500069
O O7 0.486617 0.335102 0.184928
O O8 0.289181 0.460236 0.176664
O O9 0.000000 0.378853 0.250000
O O10 0.024735 0.356591 0.157645
O O11 0.431020 0.290677 0.067611
O O12 0.763460 0.256346 0.113885
O O13 0.765170 0.194639 0.029382
O O14 0.250000 0.250000 0.000000
O O15 0.114067 0.240164 0.307960
O O16 0.500000 0.352251 0.750000
O O17 0.675117 0.398087 0.822455
O O18 0.000000 0.328145 0.750000
O O19 0.000000 0.532242 0.250000
#
# Coordination Sequence:
#
# PCOD9285810 Si02
#       8
#     8   8   8   8   8   8   8   8
#     4  11  23  45  70  98 141 176 232 287 344 409
#     4  11  25  43  70 103 137 179 226 288 350 418
#     4  11  26  44  66  95 140 178 218 280 351 397
#     4  10  23  40  67 101 128 178 226 282 340 409
#     4  10  21  42  67  91 136 172 217 275 346 407
#     4  12  24  43  69 100 133 173 232 283 334 406
#     4  11  23  41  67  98 130 175 227 280 331 401
#     4  10  25  47  70 101 139 190 235 284 351 428
#
# _framework density 24.617982000000001
#
# number of rings (size 3 to 8) (size 9 to 14) (size 15 to 20)
#    0.000    1.250    2.500    2.625    1.750    8.000 
#    0.000    0.000    0.000    0.000    0.000    0.000 
#    0.000    0.000    0.000    0.000    0.000    0.000 
#
# Total GULP energy -178872.031447 kJ/mol
# GULP energy per Si atom -5589.750983 kJ/mol
# Density = 2.456195 g / cm^3
# Si number density = 24.617982 Si / 1000 Ang^3
#
#
#
# Elastic Constant Matrix: (Units=GPa)
#
#
# Indices 1 2 3 4 5 6 
#
# 1 110.3982 22.7385 30.4701 0.0000 23.9394 0.0000
# 2 22.7385 144.9383 44.8228 0.0000 13.9762 0.0000
# 3 30.4701 44.8228 125.5868 0.0000 40.8146 0.0000
# 4 0.0000 0.0000 0.0000 26.6564 0.0000 9.6577
# 5 23.9394 13.9762 40.8146 0.0000 48.7719 0.0000
# 6 0.0000 0.0000 0.0000 9.6577 0.0000 33.8047
#
#
#
# Elastic Compliance Matrix: (Units=1/GPa)
#
#
# Indices 1 2 3 4 5 6 
#
# 1 0.010382 -0.000974 -0.000832 0.000000 -0.004120 0.000000
# 2 -0.000974 0.007847 -0.002732 0.000000 0.000516 0.000000
# 3 -0.000832 -0.002732 0.012022 0.000000 -0.008869 0.000000
# 4 0.000000 0.000000 0.000000 0.041846 0.000000 -0.011955
# 5 -0.004120 0.000516 -0.008869 0.000000 0.029801 0.000000
# 6 0.000000 0.000000 0.000000 -0.011955 0.000000 0.032997
#
#
# Mechanical properties :
#
#
# Convention : Reuss Voigt Hill
#
# Bulk Modulus (GPa) = 47.22582 64.10956 55.66769
# Shear Modulus (GPa) = 33.10609 40.70606 36.90607
#
# Velocity S-wave (km/s) = 3.67112 4.07075 3.87609
# Velocity P-wave (km/s) = 6.09874 6.94211 6.53405
#
# Compressibility (1/GPa) = 0.02117486
#
# Stress axis : x y z
#
# Youngs Moduli (GPa) = 96.32141 127.42929 83.18056
#
# Poissons Ratio (x) = 0.12413 0.06922
# Poissons Ratio (y) = 0.09383 0.22725
# Poissons Ratio (z) = 0.08015 0.34815
#
# Static dielectric constant tensor:
#      x y z
#    x 1.982370 0.000000 -0.042350 
#    y 0.000000 1.985250 0.000000 
#    z -0.042350 0.000000 2.037960 
# 
# From -- ./inp_files/286398.got.cif
#   From: 2010.05.17/outbox.cif.g08.bks.cpg/sg15_144_cif.got.tgz:286398.got - 2010.06.03 18:47:42.
