data_PCOD9285358
_publ_section_title
;
Structure prediction by ZEFSAII (Michael W. Deem and Ramdas Pophale) SiO2 
 PCOD9285358
Probable space group: C 2/C
;
_chemical_formula_sum "Si O2"
_cell_formula_units_Z 44
_cell_length_a 9.146538
_cell_length_b 13.309665
_cell_length_c 23.273339
_cell_angle_alpha 90.000000
_cell_angle_beta 39.080134
_cell_angle_gamma 90.000000
_cell_volume 1786.090163
_symmetry_space_group_name_H-M "C 2/C"
_symmetry_group_IT_number 15
_symmetry_cell_setting 'monoclinic'
loop_
_space_group_symop_operation_xyz
x,y,z
-x,y,1/2-z
-x,-y,-z
x,-y,1/2+z
1/2+x,1/2+y,z
1/2-x,1/2+y,1/2-z
1/2-x,1/2-y,-z
1/2+x,1/2-y,1/2+z
loop_
_atom_site_type_symbol
_atom_site_label
_atom_site_fract_x
_atom_site_fract_y
_atom_site_fract_z
Si Si1 0.525412 0.415656 0.427525
Si Si2 0.322847 0.089673 0.378422
Si Si3 0.858127 0.282579 0.121435
Si Si4 0.500000 0.615158 0.250000
Si Si5 0.726113 0.452451 0.250036
Si Si6 0.262599 0.226746 0.082611
O O1 0.614519 0.528017 0.411663
O O2 0.261819 0.403349 0.529258
O O3 0.606882 0.393558 0.338481
O O4 0.666602 0.341125 0.425963
O O5 0.317872 0.199980 0.351551
O O6 0.541212 0.015685 0.305599
O O7 0.763866 0.376798 0.185691
O O8 0.033005 0.228748 0.113443
O O9 0.025523 0.318033 0.018302
O O10 0.558975 0.541867 0.283443
O O11 0.707164 0.680494 0.161493
#
# Coordination Sequence:
#
# PCOD9285358 Si02
#       6
#     8   8   8   4   8   8
#     4  10  21  41  71 103 135 183 240 279 364 429
#     4  10  22  42  70 103 137 184 236 292 350 436
#     4  10  22  42  72 100 133 180 236 289 357 428
#     4  12  28  42  62  98 138 186 236 300 362 418
#     4  12  25  44  67 101 142 187 236 300 351 429
#     4  10  21  43  68  97 135 179 230 294 353 428
#
# _framework density 24.634813999999999
#
# number of rings (size 3 to 8) (size 9 to 14) (size 15 to 20)
#    0.000    1.455    1.818    2.727    5.091    0.727 
#    9.818    1.818    0.000    0.000    0.000    0.000 
#    0.000    0.000    0.000    0.000    0.000    0.000 
#
# Total GULP energy -122974.490372 kJ/mol
# GULP energy per Si atom -5589.749562 kJ/mol
# Density = 2.457874 g / cm^3
# Si number density = 24.634814 Si / 1000 Ang^3
#
#
#
# Elastic Constant Matrix: (Units=GPa)
#
#
# Indices 1 2 3 4 5 6 
#
# 1 34.5018 18.5476 27.1295 0.0001 6.0984 -0.0004
# 2 18.5476 114.3144 55.2808 0.0003 8.8590 -0.0004
# 3 27.1295 55.2808 177.7010 0.0010 23.4644 0.0004
# 4 0.0001 0.0003 0.0010 41.2702 -0.0001 14.5004
# 5 6.0984 8.8590 23.4644 -0.0001 25.8960 0.0000
# 6 -0.0004 -0.0004 0.0004 14.5004 0.0000 33.0834
#
#
#
# Elastic Compliance Matrix: (Units=1/GPa)
#
#
# Indices 1 2 3 4 5 6 
#
# 1 0.034406 -0.003524 -0.003687 0.000000 -0.003556 0.000001
# 2 -0.003524 0.010669 -0.002736 0.000000 -0.000341 0.000000
# 3 -0.003687 -0.002736 0.007728 0.000000 -0.005198 0.000000
# 4 0.000000 0.000000 0.000000 0.028641 0.000000 -0.012553
# 5 -0.003556 -0.000341 -0.005198 0.000000 0.044280 0.000000
# 6 0.000001 0.000000 0.000000 -0.012553 0.000000 0.035729
#
#
# Mechanical properties :
#
#
# Convention : Reuss Voigt Hill
#
# Bulk Modulus (GPa) = 30.38658 58.71478 44.55068
# Shear Modulus (GPa) = 25.99885 35.08721 30.54303
#
# Velocity S-wave (km/s) = 3.25217 3.77808 3.52494
# Velocity P-wave (km/s) = 5.14429 6.55115 5.88988
#
# Compressibility (1/GPa) = 0.03290926
#
# Stress axis : x y z
#
# Youngs Moduli (GPa) = 29.06467 93.72879 129.40260
#
# Poissons Ratio (x) = 0.33029 0.47710
# Poissons Ratio (y) = 0.10242 0.35405
# Poissons Ratio (z) = 0.10716 0.25645
#
# Static dielectric constant tensor:
#      x y z
#    x 2.017770 0.000000 -0.013050 
#    y 0.000000 1.869330 0.000000 
#    z -0.013050 0.000000 2.043110 
# 
# From -- ./inp_files/292179.got.cif
#   From: 2010.05.17/outbox.cif.g08.bks.cpg/sg15_147_cif.got.tgz:292179.got - 2010.06.03 18:47:42.
