data_PCOD9285420
_publ_section_title
;
Structure prediction by ZEFSAII (Michael W. Deem and Ramdas Pophale) SiO2 
 PCOD9285420
Probable space group: C 2/C
;
_chemical_formula_sum "Si O2"
_cell_formula_units_Z 60
_cell_length_a 6.707934
_cell_length_b 27.204068
_cell_length_c 17.097974
_cell_angle_alpha 90.000000
_cell_angle_beta 111.292915
_cell_angle_gamma 90.000000
_cell_volume 2907.101703
_symmetry_space_group_name_H-M "C 2/C"
_symmetry_group_IT_number 15
_symmetry_cell_setting 'monoclinic'
loop_
_space_group_symop_operation_xyz
x,y,z
-x,y,1/2-z
-x,-y,-z
x,-y,1/2+z
1/2+x,1/2+y,z
1/2-x,1/2+y,1/2-z
1/2-x,1/2-y,-z
1/2+x,1/2-y,1/2+z
loop_
_atom_site_type_symbol
_atom_site_label
_atom_site_fract_x
_atom_site_fract_y
_atom_site_fract_z
Si Si1 0.815031 0.538231 0.888543
Si Si2 0.368362 0.650059 0.151718
Si Si3 0.732104 0.441070 0.973376
Si Si4 0.413081 0.408082 0.385247
Si Si5 0.718225 0.297266 0.105301
Si Si6 0.049838 0.240426 0.077470
Si Si7 0.000000 0.545108 0.750000
Si Si8 0.471111 0.781005 0.835031
O O1 0.728019 0.491418 0.924116
O O2 0.622115 0.577417 0.865488
O O3 0.900175 0.520947 0.814873
O O4 0.022131 0.561345 0.961133
O O5 0.500000 0.639833 0.250000
O O6 0.337206 0.603073 0.092891
O O7 0.487861 0.693807 0.122779
O O8 0.136137 0.673050 0.137577
O O9 0.589960 0.436585 0.031631
O O10 0.375681 0.350969 0.398700
O O11 0.200269 0.424167 0.309587
O O12 0.691477 0.264796 0.179126
O O13 0.956099 0.289588 0.104864
O O14 0.575487 0.268605 0.020705
O O15 0.300850 0.237662 0.103232
O O16 0.500000 0.794928 0.750000
#
# Coordination Sequence:
#
# PCOD9285420 Si02
#       8
#     8   8   8   8   8   8   4   8
#     4  10  23  44  67  94 130 168 215 271 329 391
#     4  11  22  39  62  91 130 167 214 269 326 382
#     4  10  23  42  66  96 126 168 217 272 330 389
#     4  11  22  41  67  95 125 170 213 269 318 391
#     4  10  23  37  64  88 120 168 211 258 315 382
#     4  10  21  42  57  88 125 162 208 262 314 379
#     4  10  24  42  62  94 132 160 212 266 318 378
#     4  11  23  37  59  89 128 169 208 262 316 383
#
# _framework density 20.639112000000001
#
# number of rings (size 3 to 8) (size 9 to 14) (size 15 to 20)
#    0.000    1.600    2.667    1.200    1.867    5.333 
#    1.200    0.000    0.000    0.000    0.000    0.000 
#    0.000    0.000    0.000    0.000    0.000    0.000 
#
# Total GULP energy -167362.535337 kJ/mol
# GULP energy per Si atom -5578.751178 kJ/mol
# Density = 2.059214 g / cm^3
# Si number density = 20.639112 Si / 1000 Ang^3
#
#
#
# Elastic Constant Matrix: (Units=GPa)
#
#
# Indices 1 2 3 4 5 6 
#
# 1 112.3017 30.1275 29.5473 0.0000 -7.5423 0.0000
# 2 30.1275 66.2475 18.9105 0.0000 -9.1311 0.0000
# 3 29.5473 18.9105 70.7283 0.0000 -16.0175 0.0000
# 4 0.0000 0.0000 0.0000 17.4707 0.0000 -3.8674
# 5 -7.5423 -9.1311 -16.0175 0.0000 29.0991 0.0000
# 6 0.0000 0.0000 0.0000 -3.8674 0.0000 13.5950
#
#
#
# Elastic Compliance Matrix: (Units=1/GPa)
#
#
# Indices 1 2 3 4 5 6 
#
# 1 0.010887 -0.003986 -0.003572 0.000000 -0.000395 0.000000
# 2 -0.003986 0.018052 -0.002413 0.000000 0.003303 0.000000
# 3 -0.003572 -0.002413 0.018158 0.000000 0.008312 0.000000
# 4 0.000000 0.000000 0.000000 0.061085 0.000000 0.017377
# 5 -0.000395 0.003303 0.008312 0.000000 0.039875 0.000000
# 6 0.000000 0.000000 0.000000 0.017377 0.000000 0.078500
#
#
# Mechanical properties :
#
#
# Convention : Reuss Voigt Hill
#
# Bulk Modulus (GPa) = 36.82570 45.16092 40.99331
# Shear Modulus (GPa) = 19.56552 23.41244 21.48898
#
# Velocity S-wave (km/s) = 3.08227 3.37170 3.23023
# Velocity P-wave (km/s) = 5.52708 6.08987 5.81529
#
# Compressibility (1/GPa) = 0.02715495
#
# Stress axis : x y z
#
# Youngs Moduli (GPa) = 91.85095 55.39624 55.07066
#
# Poissons Ratio (x) = 0.22081 0.19671
# Poissons Ratio (y) = 0.36612 0.13290
# Poissons Ratio (z) = 0.32809 0.13369
#
# Static dielectric constant tensor:
#      x y z
#    x 1.757320 0.000000 -0.013470 
#    y 0.000000 1.701210 0.000000 
#    z -0.013470 0.000000 1.791430 
# 
# From -- ./inp_files/186759.got.cif
#   From: 2010.05.17/outbox.cif.g08.bks.cpg/sg15_94_cif.got.tgz:186759.got - 2010.06.03 18:47:42.
