data_PCOD9285089
_publ_section_title
;
Structure prediction by ZEFSAII (Michael W. Deem and Ramdas Pophale) SiO2 
 PCOD9285089
Probable space group: C 2/C
;
_chemical_formula_sum "Si O2"
_cell_formula_units_Z 44
_cell_length_a 15.244489
_cell_length_b 19.463549
_cell_length_c 9.761847
_cell_angle_alpha 90.000000
_cell_angle_beta 130.293203
_cell_angle_gamma 90.000000
_cell_volume 2209.257308
_symmetry_space_group_name_H-M "C 2/C"
_symmetry_group_IT_number 15
_symmetry_cell_setting 'monoclinic'
loop_
_space_group_symop_operation_xyz
x,y,z
-x,y,1/2-z
-x,-y,-z
x,-y,1/2+z
1/2+x,1/2+y,z
1/2-x,1/2+y,1/2-z
1/2-x,1/2-y,-z
1/2+x,1/2-y,1/2+z
loop_
_atom_site_type_symbol
_atom_site_label
_atom_site_fract_x
_atom_site_fract_y
_atom_site_fract_z
Si Si1 0.326496 0.357228 0.077239
Si Si2 0.410234 0.840757 0.546104
Si Si3 0.985375 0.804424 0.019438
Si Si4 0.500000 0.617889 0.250000
Si Si5 0.869858 0.475872 0.342433
Si Si6 0.781542 0.017254 0.072462
O O1 0.374858 0.340619 0.976711
O O2 0.410876 0.325241 0.275686
O O3 0.202378 0.325135 0.978694
O O4 0.325841 0.439182 0.098656
O O5 0.500000 0.867388 0.750000
O O6 0.461713 0.776254 0.517171
O O7 0.370181 0.899170 0.402363
O O8 0.007299 0.834050 0.891581
O O9 0.613629 0.569603 0.348701
O O10 0.778836 0.520045 0.340018
O O11 0.821925 0.474904 0.141037
O O12 0.000000 0.500000 0.500000
#
# Coordination Sequence:
#
# PCOD9285089 Si02
#       6
#     8   8   8   4   8   8
#     4  10  21  41  67  91 116 163 223 257 307 365
#     4  11  22  40  67  90 121 165 218 263 299 380
#     4  11  23  39  62  92 128 168 201 261 313 387
#     4  12  24  40  58 100 138 164 206 252 348 386
#     4  11  23  43  66  94 122 164 216 265 321 367
#     4  11  23  41  67  94 127 166 210 273 312 379
#
# _framework density 19.916194999999998
#
# number of rings (size 3 to 8) (size 9 to 14) (size 15 to 20)
#    0.000    1.091    1.818    7.636    0.000    2.182 
#    3.273    1.818    0.000    0.000    0.000    0.000 
#    0.000    0.000    0.000    0.000    0.000    0.000 
#
# Total GULP energy -122894.312915 kJ/mol
# GULP energy per Si atom -5586.105133 kJ/mol
# Density = 1.987087 g / cm^3
# Si number density = 19.916195 Si / 1000 Ang^3
#
#
#
# Elastic Constant Matrix: (Units=GPa)
#
#
# Indices 1 2 3 4 5 6 
#
# 1 68.0441 20.3807 19.5104 0.0000 3.2052 0.0000
# 2 20.3807 62.4661 21.7841 0.0000 -1.3900 0.0000
# 3 19.5104 21.7841 77.7257 0.0000 -1.7659 0.0000
# 4 0.0000 0.0000 0.0000 24.3440 0.0000 13.5671
# 5 3.2052 -1.3900 -1.7659 0.0000 40.4609 0.0000
# 6 0.0000 0.0000 0.0000 13.5671 0.0000 14.0127
#
#
#
# Elastic Compliance Matrix: (Units=1/GPa)
#
#
# Indices 1 2 3 4 5 6 
#
# 1 0.016999 -0.004524 -0.003036 0.000000 -0.001635 0.000000
# 2 -0.004524 0.018953 -0.004158 0.000000 0.000828 0.000000
# 3 -0.003036 -0.004158 0.014810 0.000000 0.000744 0.000000
# 4 0.000000 0.000000 0.000000 0.089219 0.000000 -0.086381
# 5 -0.001635 0.000828 0.000744 0.000000 0.024906 0.000000
# 6 0.000000 0.000000 0.000000 -0.086381 0.000000 0.154998
#
#
# Mechanical properties :
#
#
# Convention : Reuss Voigt Hill
#
# Bulk Modulus (GPa) = 36.59420 36.84294 36.71857
# Shear Modulus (GPa) = 14.18729 25.53424 19.86077
#
# Velocity S-wave (km/s) = 2.67188 3.58450 3.16130
# Velocity P-wave (km/s) = 5.28513 5.97250 5.63930
#
# Compressibility (1/GPa) = 0.02732674
#
# Stress axis : x y z
#
# Youngs Moduli (GPa) = 58.82738 52.76221 67.52165
#
# Poissons Ratio (x) = 0.23868 0.20501
# Poissons Ratio (y) = 0.26612 0.28073
# Poissons Ratio (z) = 0.17862 0.21936
#
# Static dielectric constant tensor:
#      x y z
#    x 1.030920 0.000000 -1.238530 
#    y 0.000000 1.719830 0.000000 
#    z -1.238530 0.000000 -0.408060 
# 
# From -- ./inp_files/41024.got.cif
#   From: 2010.05.17/outbox.cif.g08.bks.cpg/sg15_21_cif.got.tgz:41024.got - 2010.06.03 18:47:42.
