data_PCOD9285347
_publ_section_title
;
Structure prediction by ZEFSAII (Michael W. Deem and Ramdas Pophale) SiO2 
 PCOD9285347
Probable space group: C 2/C
;
_chemical_formula_sum "Si O2"
_cell_formula_units_Z 32
_cell_length_a 9.703127
_cell_length_b 10.484915
_cell_length_c 18.868027
_cell_angle_alpha 90.000000
_cell_angle_beta 140.578823
_cell_angle_gamma 90.000000
_cell_volume 1218.955470
_symmetry_space_group_name_H-M "C 2/C"
_symmetry_group_IT_number 15
_symmetry_cell_setting 'monoclinic'
loop_
_space_group_symop_operation_xyz
x,y,z
-x,y,1/2-z
-x,-y,-z
x,-y,1/2+z
1/2+x,1/2+y,z
1/2-x,1/2+y,1/2-z
1/2-x,1/2-y,-z
1/2+x,1/2-y,1/2+z
loop_
_atom_site_type_symbol
_atom_site_label
_atom_site_fract_x
_atom_site_fract_y
_atom_site_fract_z
Si Si1 0.272950 0.810288 0.787220
Si Si2 0.756861 0.407775 0.566510
Si Si3 0.553063 0.570302 0.689780
Si Si4 0.155851 0.801636 0.035846
O O1 0.503421 0.856065 0.847131
O O2 0.249756 0.665755 0.751062
O O3 0.283797 0.793577 0.876441
O O4 0.112809 0.923124 0.705522
O O5 0.636695 0.402214 0.442135
O O6 0.603262 0.324984 0.557113
O O7 0.747855 0.555468 0.585812
O O8 0.500000 0.593059 0.750000
O O9 0.250000 0.750000 0.000000
#
# Coordination Sequence:
#
# PCOD9285347 Si02
#       4
#     8   8   8   8
#     4  11  26  45  70 101 138 183 231 286 346 410
#     4  10  24  45  68  99 137 182 230 280 344 414
#     4  11  25  43  68 103 137 177 232 285 345 412
#     4  10  21  41  70  99 133 175 225 280 341 405
#
# _framework density 26.251985000000001
#
# number of rings (size 3 to 8) (size 9 to 14) (size 15 to 20)
#    0.000    1.500    0.000    4.500    0.000   18.000 
#    0.000    0.000    0.000   12.000    0.000    0.000 
#    0.000    0.000    0.000    0.000    0.000    0.000 
#
# Total GULP energy -89780.167516 kJ/mol
# GULP energy per Si atom -5611.260470 kJ/mol
# Density = 2.619223 g / cm^3
# Si number density = 26.251985 Si / 1000 Ang^3
#
#
#
# Elastic Constant Matrix: (Units=GPa)
#
#
# Indices 1 2 3 4 5 6 
#
# 1 207.0340 38.1574 49.0432 0.0000 -21.6772 0.0000
# 2 38.1574 114.0944 16.2830 0.0000 10.0987 0.0000
# 3 49.0432 16.2830 59.1559 0.0000 -2.3198 0.0000
# 4 0.0000 0.0000 0.0000 43.7514 0.0000 -9.8693
# 5 -21.6772 10.0987 -2.3198 0.0000 48.3196 0.0000
# 6 0.0000 0.0000 0.0000 -9.8693 0.0000 57.1365
#
#
#
# Elastic Compliance Matrix: (Units=1/GPa)
#
#
# Indices 1 2 3 4 5 6 
#
# 1 0.006648 -0.001802 -0.004894 0.000000 0.003124 0.000000
# 2 -0.001802 0.009815 -0.001323 0.000000 -0.002923 0.000000
# 3 -0.004894 -0.001323 0.021290 0.000000 -0.000897 0.000000
# 4 0.000000 0.000000 0.000000 0.023783 0.000000 0.004108
# 5 0.003124 -0.002923 -0.000897 0.000000 0.022665 0.000000
# 6 0.000000 0.000000 0.000000 0.004108 0.000000 0.018212
#
#
# Mechanical properties :
#
#
# Convention : Reuss Voigt Hill
#
# Bulk Modulus (GPa) = 46.04447 65.25019 55.64733
# Shear Modulus (GPa) = 39.78108 48.29488 44.03798
#
# Velocity S-wave (km/s) = 3.89698 4.29379 4.10019
# Velocity P-wave (km/s) = 6.15029 7.03501 6.60748
#
# Compressibility (1/GPa) = 0.02171814
#
# Stress axis : x y z
#
# Youngs Moduli (GPa) = 150.40991 101.88826 46.96969
#
# Poissons Ratio (x) = 0.18357 0.22985
# Poissons Ratio (y) = 0.27099 0.06212
# Poissons Ratio (z) = 0.73603 0.13475
#
# Static dielectric constant tensor:
#      x y z
#    x 2.021690 0.000000 -0.002450 
#    y 0.000000 2.040820 0.000000 
#    z -0.002450 0.000000 2.132580 
# 
# From -- ./inp_files/230083.got.cif
#   From: 2010.05.17/outbox.cif.g08.bks.cpg/sg15_116_cif.got.tgz:230083.got - 2010.06.03 18:47:42.
