data_PCOD9285246
_publ_section_title
;
Structure prediction by ZEFSAII (Michael W. Deem and Ramdas Pophale) SiO2 
 PCOD9285246
Probable space group: C 2/C
;
_chemical_formula_sum "Si O2"
_cell_formula_units_Z 60
_cell_length_a 16.116372
_cell_length_b 20.309040
_cell_length_c 12.998864
_cell_angle_alpha 90.000000
_cell_angle_beta 38.949916
_cell_angle_gamma 90.000000
_cell_volume 2674.635833
_symmetry_space_group_name_H-M "C 2/C"
_symmetry_group_IT_number 15
_symmetry_cell_setting 'monoclinic'
loop_
_space_group_symop_operation_xyz
x,y,z
-x,y,1/2-z
-x,-y,-z
x,-y,1/2+z
1/2+x,1/2+y,z
1/2-x,1/2+y,1/2-z
1/2-x,1/2-y,-z
1/2+x,1/2-y,1/2+z
loop_
_atom_site_type_symbol
_atom_site_label
_atom_site_fract_x
_atom_site_fract_y
_atom_site_fract_z
Si Si1 0.291905 0.486885 0.350672
Si Si2 0.010887 0.863867 0.352437
Si Si3 0.361236 0.182056 0.011380
Si Si4 0.891678 0.829904 0.031231
Si Si5 0.750276 0.910336 0.708999
Si Si6 0.500000 0.580687 0.250000
Si Si7 0.012515 0.517791 0.368445
Si Si8 0.864326 0.620583 0.786988
O O1 0.380697 0.421980 0.257677
O O2 0.286442 0.527677 0.248102
O O3 0.372579 0.534327 0.352049
O O4 0.137712 0.471806 0.523521
O O5 0.047860 0.819534 0.414851
O O6 0.000000 0.832778 0.250000
O O7 0.871549 0.895522 0.518522
O O8 0.351888 0.260138 0.021426
O O9 0.281708 0.148050 0.179723
O O10 0.325771 0.149172 0.936080
O O11 0.515421 0.163610 0.872275
O O12 0.759439 0.872918 0.167001
O O13 0.981486 0.872246 0.866847
O O14 0.618859 0.924195 0.769224
O O15 0.081109 0.452582 0.258056
O O16 0.000000 0.500000 0.500000
#
# Coordination Sequence:
#
# PCOD9285246 Si02
#       8
#     8   8   8   8   8   4   8   8
#     4  11  22  42  69 105 145 180 236 292 369 422
#     4  12  28  47  69 101 138 193 248 298 348 428
#     4  11  25  43  69 108 143 186 232 295 355 433
#     4  12  27  43  73 101 151 188 236 290 371 425
#     4  11  23  45  70  99 142 186 245 292 352 423
#     4  12  24  40  70 110 144 184 226 298 372 440
#     4  10  21  41  68  99 146 190 229 287 353 426
#     4  11  23  41  70 109 146 177 236 293 366 430
#
# _framework density 22.432960000000001
#
# number of rings (size 3 to 8) (size 9 to 14) (size 15 to 20)
#    0.000    0.800    4.667    4.000    5.600    1.067 
#    0.000    0.667    0.000    0.000    0.000    0.000 
#    0.000    0.000    0.000    0.000    0.000    0.000 
#
# Total GULP energy -167812.690366 kJ/mol
# GULP energy per Si atom -5593.756346 kJ/mol
# Density = 2.238190 g / cm^3
# Si number density = 22.432960 Si / 1000 Ang^3
#
#
#
# Elastic Constant Matrix: (Units=GPa)
#
#
# Indices 1 2 3 4 5 6 
#
# 1 133.9112 18.6222 69.5617 -0.0002 -6.2929 0.0001
# 2 18.6222 75.3518 24.1093 0.0000 -5.7675 0.0000
# 3 69.5617 24.1093 84.4174 -0.0001 -5.9831 0.0000
# 4 -0.0002 0.0000 -0.0001 6.4654 0.0002 11.9886
# 5 -6.2929 -5.7675 -5.9831 0.0002 56.7305 -0.0001
# 6 0.0001 0.0000 0.0000 11.9886 -0.0001 17.0348
#
#
#
# Elastic Compliance Matrix: (Units=1/GPa)
#
#
# Indices 1 2 3 4 5 6 
#
# 1 0.013067 0.000257 -0.010817 -0.000001 0.000335 0.000000
# 2 0.000257 0.014673 -0.004327 0.000000 0.001064 0.000000
# 3 -0.010817 -0.004327 0.022044 0.000000 0.000685 0.000000
# 4 -0.000001 0.000000 0.000000 -0.507124 0.000002 0.356901
# 5 0.000335 0.001064 0.000685 0.000002 0.017845 -0.000001
# 6 0.000000 0.000000 0.000000 0.356901 -0.000001 -0.192475
#
#
# Mechanical properties :
#
#
# Convention : Reuss Voigt Hill
#
# Bulk Modulus (GPa) = 49.97520 57.58522 53.78021
# Shear Modulus (GPa) = -8.39592 28.13862 9.87135
#
# Velocity S-wave (km/s) = -1.93670 3.54551 2.09998
# Velocity P-wave (km/s) = 4.16232 6.51817 5.46861
#
# Compressibility (1/GPa) = 0.02000992
#
# Stress axis : x y z
#
# Youngs Moduli (GPa) = 76.53148 68.15010 45.36455
#
# Poissons Ratio (x) = -0.01754 0.49070
# Poissons Ratio (y) = -0.01969 0.19631
# Poissons Ratio (z) = 0.82783 0.29491
#
# Static dielectric constant tensor:
#      x y z
#    x 1.997280 0.000000 0.048080 
#    y 0.000000 1.822030 0.000000 
#    z 0.048080 0.000000 1.867720 
# 
# From -- ./inp_files/107620.got.cif
#   From: 2010.05.17/outbox.cif.g08.bks.cpg/sg15_54_cif.got.tgz:107620.got - 2010.06.03 18:47:42.
