data_PCOD9285316
_publ_section_title
;
Structure prediction by ZEFSAII (Michael W. Deem and Ramdas Pophale) SiO2 
 PCOD9285316
Probable space group: C 2/C
;
_chemical_formula_sum "Si O2"
_cell_formula_units_Z 60
_cell_length_a 8.991670
_cell_length_b 17.230715
_cell_length_c 24.163190
_cell_angle_alpha 90.000000
_cell_angle_beta 141.175663
_cell_angle_gamma 90.000000
_cell_volume 2347.038945
_symmetry_space_group_name_H-M "C 2/C"
_symmetry_group_IT_number 15
_symmetry_cell_setting 'monoclinic'
loop_
_space_group_symop_operation_xyz
x,y,z
-x,y,1/2-z
-x,-y,-z
x,-y,1/2+z
1/2+x,1/2+y,z
1/2-x,1/2+y,1/2-z
1/2-x,1/2-y,-z
1/2+x,1/2-y,1/2+z
loop_
_atom_site_type_symbol
_atom_site_label
_atom_site_fract_x
_atom_site_fract_y
_atom_site_fract_z
Si Si1 0.267220 0.083119 0.326498
Si Si2 0.384556 0.567757 0.043519
Si Si3 0.808426 0.721259 0.778157
Si Si4 0.327586 0.030351 0.118578
Si Si5 0.749384 0.464919 0.405581
Si Si6 0.185828 0.695040 0.062580
Si Si7 0.500000 0.903874 0.250000
Si Si8 0.785920 0.215729 0.617971
O O1 0.380865 0.138556 0.405789
O O2 0.000000 0.111907 0.250000
O O3 0.426981 0.074560 0.319391
O O4 0.246384 0.994579 0.342349
O O5 0.629153 0.587433 0.084786
O O6 0.432213 0.517425 0.112506
O O7 0.239479 0.641455 0.023692
O O8 0.255077 0.509532 0.963045
O O9 0.855095 0.648951 0.751101
O O10 0.546713 0.751612 0.682922
O O11 0.764523 0.710907 0.830906
O O12 0.063669 0.764817 0.850793
O O13 0.348207 0.959938 0.167030
O O14 0.705102 0.374956 0.398018
O O15 0.000000 0.500000 0.500000
O O16 0.953629 0.745586 0.981585
#
# Coordination Sequence:
#
# PCOD9285316 Si02
#       8
#     8   8   8   8   8   8   4   8
#     4  11  24  38  68 102 137 181 227 294 353 430
#     4  10  21  41  70 102 140 169 228 293 362 427
#     4  11  27  43  70 101 139 197 243 277 342 431
#     4  11  23  40  64 106 137 177 219 294 376 415
#     4  11  18  38  70 105 134 176 230 287 369 429
#     4  11  23  48  71  98 141 188 244 293 343 417
#     4  12  26  42  60  98 150 174 228 296 346 424
#     4  11  22  45  73 104 135 191 242 293 347 429
#
# _framework density 25.564126000000002
#
# number of rings (size 3 to 8) (size 9 to 14) (size 15 to 20)
#    0.000    1.067    4.000    2.800    8.400    1.067 
#    4.800    0.667    0.000    0.000    0.000    0.000 
#    0.000    0.000    0.000    0.000    0.000    0.000 
#
# Total GULP energy -167582.348301 kJ/mol
# GULP energy per Si atom -5586.078277 kJ/mol
# Density = 2.550594 g / cm^3
# Si number density = 25.564126 Si / 1000 Ang^3
#
#
#
# Elastic Constant Matrix: (Units=GPa)
#
#
# Indices 1 2 3 4 5 6 
#
# 1 108.5099 15.6358 42.2643 0.0000 39.6375 0.0000
# 2 15.6358 80.2028 27.4664 0.0000 11.5325 0.0001
# 3 42.2643 27.4664 90.2767 0.0001 45.3086 0.0003
# 4 0.0000 0.0000 0.0001 30.9228 0.0000 -2.2654
# 5 39.6375 11.5325 45.3086 0.0000 44.0967 0.0001
# 6 0.0000 0.0001 0.0003 -2.2654 0.0001 18.4928
#
#
#
# Elastic Compliance Matrix: (Units=1/GPa)
#
#
# Indices 1 2 3 4 5 6 
#
# 1 0.013790 -0.000909 -0.000160 0.000000 -0.011993 0.000000
# 2 -0.000909 0.014025 -0.004977 0.000000 0.002263 0.000000
# 3 -0.000160 -0.004977 0.024655 0.000000 -0.023887 0.000000
# 4 0.000000 0.000000 0.000000 0.032631 0.000000 0.003997
# 5 -0.011993 0.002263 -0.023887 0.000000 0.057409 0.000000
# 6 0.000000 0.000000 0.000000 0.003997 0.000000 0.054565
#
#
# Mechanical properties :
#
#
# Convention : Reuss Voigt Hill
#
# Bulk Modulus (GPa) = 24.76694 49.96914 37.36804
# Shear Modulus (GPa) = 22.45909 31.61066 27.03487
#
# Velocity S-wave (km/s) = 2.96723 3.52024 3.25550
# Velocity P-wave (km/s) = 4.63125 6.00931 5.36471
#
# Compressibility (1/GPa) = 0.04037641
#
# Stress axis : x y z
#
# Youngs Moduli (GPa) = 72.51541 71.30266 40.56004
#
# Poissons Ratio (x) = 0.06482 0.00650
# Poissons Ratio (y) = 0.06592 0.20188
# Poissons Ratio (z) = 0.01162 0.35490
#
# Static dielectric constant tensor:
#      x y z
#    x 2.068240 0.000000 0.029510 
#    y 0.000000 2.001440 0.000000 
#    z 0.029510 0.000000 2.118780 
# 
# From -- ./inp_files/266247.got.cif
#   From: 2010.05.17/outbox.cif.g08.bks.cpg/sg15_134_cif.got.tgz:266247.got - 2010.06.03 18:47:42.
