data_PCOD9285065
_publ_section_title
;
Structure prediction by ZEFSAII (Michael W. Deem and Ramdas Pophale) SiO2 
 PCOD9285065
Probable space group: C 2/C
;
_chemical_formula_sum "Si O2"
_cell_formula_units_Z 48
_cell_length_a 9.413759
_cell_length_b 15.913370
_cell_length_c 22.464975
_cell_angle_alpha 90.000000
_cell_angle_beta 44.308277
_cell_angle_gamma 90.000000
_cell_volume 2350.764876
_symmetry_space_group_name_H-M "C 2/C"
_symmetry_group_IT_number 15
_symmetry_cell_setting 'monoclinic'
loop_
_space_group_symop_operation_xyz
x,y,z
-x,y,1/2-z
-x,-y,-z
x,-y,1/2+z
1/2+x,1/2+y,z
1/2-x,1/2+y,1/2-z
1/2-x,1/2-y,-z
1/2+x,1/2-y,1/2+z
loop_
_atom_site_type_symbol
_atom_site_label
_atom_site_fract_x
_atom_site_fract_y
_atom_site_fract_z
Si Si1 0.829993 0.213368 0.750049
Si Si2 0.626970 0.764828 0.976986
Si Si3 0.918914 0.176447 0.944701
Si Si4 0.197108 0.005001 0.056701
Si Si5 0.997207 0.141089 0.182320
Si Si6 0.904134 0.592097 0.598860
O O1 0.674801 0.290702 0.784014
O O2 0.706518 0.130395 0.810449
O O3 0.000000 0.231610 0.750000
O O4 0.945839 0.193564 0.654258
O O5 0.552070 0.684970 0.964367
O O6 0.784094 0.813712 0.888598
O O7 0.750000 0.750000 0.000000
O O8 0.437634 0.824125 0.049309
O O9 0.842622 0.081986 0.963507
O O10 0.750000 0.250000 0.000000
O O11 0.283541 0.975620 0.095781
O O12 0.011605 0.065719 0.130138
O O13 0.368277 0.054754 0.967873
O O14 0.000000 0.112429 0.250000
#
# Coordination Sequence:
#
# PCOD9285065 Si02
#       6
#     8   8   8   8   8   8
#     4  12  23  41  72  98 136 180 233 288 342 425
#     4  11  21  41  71  93 136 179 229 276 342 414
#     4  12  24  43  68 105 133 185 229 279 349 416
#     4  10  23  41  70 101 138 178 229 289 343 414
#     4  11  24  41  67 101 133 180 233 282 345 413
#     4  10  21  41  67 100 134 182 228 279 345 411
#
# _framework density 20.418887000000002
#
# number of rings (size 3 to 8) (size 9 to 14) (size 15 to 20)
#    0.000    1.000    6.667    0.000    2.333    0.000 
#    0.000    3.333    7.333    0.000    0.000    0.000 
#    0.000    0.000    0.000    0.000    0.000    0.000 
#
# Total GULP energy -133867.286870 kJ/mol
# GULP energy per Si atom -5577.803620 kJ/mol
# Density = 2.037241 g / cm^3
# Si number density = 20.418887 Si / 1000 Ang^3
#
#
#
# Elastic Constant Matrix: (Units=GPa)
#
#
# Indices 1 2 3 4 5 6 
#
# 1 68.1724 34.2900 35.4795 -0.0002 18.2118 0.0003
# 2 34.2900 121.5748 57.7036 -0.0001 0.3440 0.0001
# 3 35.4795 57.7036 143.7704 -0.0004 -2.8181 0.0003
# 4 -0.0002 -0.0001 -0.0004 35.7665 0.0000 1.6440
# 5 18.2118 0.3440 -2.8181 0.0000 20.2171 -0.0001
# 6 0.0003 0.0001 0.0003 1.6440 -0.0001 41.0117
#
#
#
# Elastic Compliance Matrix: (Units=1/GPa)
#
#
# Indices 1 2 3 4 5 6 
#
# 1 0.026218 -0.004978 -0.004947 0.000000 -0.024222 0.000000
# 2 -0.004978 0.011118 -0.003158 0.000000 0.003855 0.000000
# 3 -0.004947 -0.003158 0.009558 0.000000 0.005842 0.000000
# 4 0.000000 0.000000 0.000000 0.028011 0.000000 -0.001123
# 5 -0.024222 0.003855 0.005842 0.000000 0.072031 0.000000
# 6 0.000000 0.000000 0.000000 -0.001123 0.000000 0.024428
#
#
# Mechanical properties :
#
#
# Convention : Reuss Voigt Hill
#
# Bulk Modulus (GPa) = 48.24462 65.38485 56.81473
# Shear Modulus (GPa) = 24.45709 33.13537 28.79623
#
# Velocity S-wave (km/s) = 3.46463 4.03275 3.75944
# Velocity P-wave (km/s) = 6.29950 7.33317 6.83590
#
# Compressibility (1/GPa) = 0.02072770
#
# Stress axis : x y z
#
# Youngs Moduli (GPa) = 38.14169 89.94823 104.62126
#
# Poissons Ratio (x) = 0.44779 0.51753
# Poissons Ratio (y) = 0.18988 0.33039
# Poissons Ratio (z) = 0.18868 0.28406
#
# Static dielectric constant tensor:
#      x y z
#    x 1.791900 0.000000 -0.018820 
#    y 0.000000 1.733360 0.000000 
#    z -0.018820 0.000000 1.777050 
# 
# From -- ./inp_files/232489.got.cif
#   From: 2010.05.17/outbox.cif.g08.bks.cpg/sg15_117_cif.got.tgz:232489.got - 2010.06.03 18:47:42.
