data_PCOD9285906
_publ_section_title
;
Structure prediction by ZEFSAII (Michael W. Deem and Ramdas Pophale) SiO2 
 PCOD9285906
Probable space group: C 2/C
;
_chemical_formula_sum "Si O2"
_cell_formula_units_Z 52
_cell_length_a 25.711385
_cell_length_b 9.225416
_cell_length_c 13.309660
_cell_angle_alpha 90.000000
_cell_angle_beta 135.788902
_cell_angle_gamma 90.000000
_cell_volume 2201.407891
_symmetry_space_group_name_H-M "C 2/C"
_symmetry_group_IT_number 15
_symmetry_cell_setting 'monoclinic'
loop_
_space_group_symop_operation_xyz
x,y,z
-x,y,1/2-z
-x,-y,-z
x,-y,1/2+z
1/2+x,1/2+y,z
1/2-x,1/2+y,1/2-z
1/2-x,1/2-y,-z
1/2+x,1/2-y,1/2+z
loop_
_atom_site_type_symbol
_atom_site_label
_atom_site_fract_x
_atom_site_fract_y
_atom_site_fract_z
Si Si1 0.782414 0.246365 0.929443
Si Si2 0.099209 0.141167 0.093593
Si Si3 0.773689 0.950954 0.226771
Si Si4 0.045885 0.909044 0.210341
Si Si5 0.500000 0.008706 0.750000
Si Si6 0.858215 0.708112 0.049118
Si Si7 0.575237 0.249522 0.752930
O O1 0.768082 0.114776 0.831511
O O2 0.760183 0.389448 0.837668
O O3 0.750000 0.250000 0.000000
O O4 0.869953 0.256091 0.076760
O O5 0.116307 0.259095 0.202660
O O6 0.138744 0.987447 0.172033
O O7 0.133558 0.192506 0.037336
O O8 0.010876 0.139688 0.954133
O O9 0.723841 0.859362 0.078571
O O10 0.119593 0.812352 0.327828
O O11 0.000000 0.879611 0.250000
O O12 0.051631 0.082502 0.216399
O O13 0.516198 0.121916 0.682224
O O14 0.575086 0.912401 0.863045
#
# Coordination Sequence:
#
# PCOD9285906 Si02
#       7
#     8   8   8   8   4   8   8
#     4  12  25  46  70 101 141 187 236 295 358 432
#     4  11  23  44  70  96 139 182 231 291 361 426
#     4  12  24  43  72  99 141 191 235 295 369 422
#     4  10  21  42  68  92 137 177 223 282 357 414
#     4  12  24  38  68  96 130 178 232 282 350 418
#     4  11  22  44  65  95 135 185 223 291 357 420
#     4  12  24  41  69 101 131 177 239 290 349 428
#
# _framework density 23.621248000000001
#
# number of rings (size 3 to 8) (size 9 to 14) (size 15 to 20)
#    0.000    0.615    7.692    2.308    0.000    0.615 
#    0.000    3.077    0.000    0.000    0.000    0.000 
#    0.000    0.000    0.000    0.000    0.000    0.000 
#
# Total GULP energy -144910.427969 kJ/mol
# GULP energy per Si atom -5573.477999 kJ/mol
# Density = 2.356748 g / cm^3
# Si number density = 23.621248 Si / 1000 Ang^3
#
#
#
# Elastic Constant Matrix: (Units=GPa)
#
#
# Indices 1 2 3 4 5 6 
#
# 1 67.4997 36.1658 36.7569 0.0000 -6.2360 0.0000
# 2 36.1658 123.8549 50.9504 0.0000 -17.3416 0.0000
# 3 36.7569 50.9504 175.7377 0.0000 -6.0819 0.0000
# 4 0.0000 0.0000 0.0000 53.4849 0.0000 7.4248
# 5 -6.2360 -17.3416 -6.0819 0.0000 31.2346 0.0000
# 6 0.0000 0.0000 0.0000 7.4248 0.0000 30.9230
#
#
#
# Elastic Compliance Matrix: (Units=1/GPa)
#
#
# Indices 1 2 3 4 5 6 
#
# 1 0.018592 -0.004226 -0.002634 0.000000 0.000853 0.000000
# 2 -0.004226 0.010836 -0.002093 0.000000 0.004765 0.000000
# 3 -0.002634 -0.002093 0.006836 0.000000 -0.000357 0.000000
# 4 0.000000 0.000000 0.000000 0.019342 0.000000 -0.004644
# 5 0.000853 0.004765 -0.000357 0.000000 0.034762 0.000000
# 6 0.000000 0.000000 0.000000 -0.004644 0.000000 0.033453
#
#
# Mechanical properties :
#
#
# Convention : Reuss Voigt Hill
#
# Bulk Modulus (GPa) = 54.47122 68.31540 61.39331
# Shear Modulus (GPa) = 33.81893 39.34311 36.58102
#
# Velocity S-wave (km/s) = 3.78791 4.08558 3.93956
# Velocity P-wave (km/s) = 6.49933 7.15821 6.83671
#
# Compressibility (1/GPa) = 0.01835832
#
# Stress axis : x y z
#
# Youngs Moduli (GPa) = 53.78586 92.28450 146.29249
#
# Poissons Ratio (x) = 0.39000 0.38533
# Poissons Ratio (y) = 0.22730 0.30616
# Poissons Ratio (z) = 0.14167 0.19313
#
# Static dielectric constant tensor:
#      x y z
#    x 2.043130 0.000000 0.092600 
#    y 0.000000 1.906640 0.000000 
#    z 0.092600 0.000000 2.018750 
# 
# From -- ./inp_files/181223.got.cif
#   From: 2010.05.17/outbox.cif.g08.bks.cpg/sg15_91_cif.got.tgz:181223.got - 2010.06.03 18:47:42.
