data_PCOD9285900
_publ_section_title
;
Structure prediction by ZEFSAII (Michael W. Deem and Ramdas Pophale) SiO2 
 PCOD9285900
Probable space group: C 2/C
;
_chemical_formula_sum "Si O2"
_cell_formula_units_Z 48
_cell_length_a 15.124509
_cell_length_b 16.770077
_cell_length_c 9.512833
_cell_angle_alpha 90.000000
_cell_angle_beta 84.938739
_cell_angle_gamma 90.000000
_cell_volume 2403.419412
_symmetry_space_group_name_H-M "C 2/C"
_symmetry_group_IT_number 15
_symmetry_cell_setting 'monoclinic'
loop_
_space_group_symop_operation_xyz
x,y,z
-x,y,1/2-z
-x,-y,-z
x,-y,1/2+z
1/2+x,1/2+y,z
1/2-x,1/2+y,1/2-z
1/2-x,1/2-y,-z
1/2+x,1/2-y,1/2+z
loop_
_atom_site_type_symbol
_atom_site_label
_atom_site_fract_x
_atom_site_fract_y
_atom_site_fract_z
Si Si1 0.000000 0.671140 0.750000
Si Si2 0.158885 0.596655 0.222530
Si Si3 0.500000 0.217013 0.250000
Si Si4 0.012546 0.803215 0.532685
Si Si5 0.405819 0.463064 0.964930
Si Si6 0.909352 0.458614 0.069273
Si Si7 0.854544 0.912744 0.672278
O O1 0.041915 0.731068 0.629065
O O2 0.935781 0.613858 0.669346
O O3 0.084666 0.661793 0.269107
O O4 0.143546 0.522802 0.330397
O O5 0.259963 0.625340 0.220146
O O6 0.138730 0.571315 0.064476
O O7 0.481743 0.269476 0.388865
O O8 0.929510 0.849346 0.616954
O O9 0.087852 0.869867 0.498131
O O10 0.390440 0.461307 0.801468
O O11 0.500000 0.500000 0.000000
O O12 0.339183 0.521039 0.053836
O O13 0.000000 0.500000 0.000000
#
# Coordination Sequence:
#
# PCOD9285900 Si02
#       7
#     4   8   4   8   8   8   8
#     4  12  19  40  65  88 124 164 214 258 319 384
#     4  12  24  42  64  96 127 166 222 265 314 380
#     4  12  25  40  65  90 128 174 214 254 323 402
#     4  11  23  41  65  92 127 171 211 259 329 393
#     4  10  21  42  68  92 124 171 214 258 320 388
#     4  12  21  40  67  90 121 173 220 254 312 387
#     4  11  24  42  66  97 129 162 219 276 311 375
#
# _framework density 19.971546
#
# number of rings (size 3 to 8) (size 9 to 14) (size 15 to 20)
#    0.000    0.667    6.667    2.500    4.667    0.667 
#    0.000    0.833    0.000    0.000    0.000    0.000 
#    0.000    0.000    0.000    0.000    0.000    0.000 
#
# Total GULP energy -133992.101252 kJ/mol
# GULP energy per Si atom -5583.004219 kJ/mol
# Density = 1.992609 g / cm^3
# Si number density = 19.971546 Si / 1000 Ang^3
#
#
#
# Elastic Constant Matrix: (Units=GPa)
#
#
# Indices 1 2 3 4 5 6 
#
# 1 86.5629 8.2833 15.6182 0.0000 -7.7749 0.0000
# 2 8.2833 80.1312 32.5445 0.0000 -12.7473 0.0000
# 3 15.6182 32.5445 121.5282 0.0000 14.2271 0.0000
# 4 0.0000 0.0000 0.0000 50.4195 0.0000 -10.5292
# 5 -7.7749 -12.7473 14.2271 0.0000 16.5251 0.0000
# 6 0.0000 0.0000 0.0000 -10.5292 0.0000 1.6267
#
#
#
# Elastic Compliance Matrix: (Units=1/GPa)
#
#
# Indices 1 2 3 4 5 6 
#
# 1 0.012899 0.001607 -0.003274 0.000000 0.010127 0.000000
# 2 0.001607 0.019080 -0.007926 0.000000 0.022298 0.000000
# 3 -0.003274 -0.007926 0.012976 0.000000 -0.018826 0.000000
# 4 0.000000 0.000000 0.000000 -0.056397 0.000000 -0.365034
# 5 0.010127 0.022298 -0.018826 0.000000 0.098687 0.000000
# 6 0.000000 0.000000 0.000000 -0.365034 0.000000 -1.747977
#
#
# Mechanical properties :
#
#
# Convention : Reuss Voigt Hill
#
# Bulk Modulus (GPa) = 38.80688 44.56826 41.68757
# Shear Modulus (GPa) = -3.06193 29.16602 13.05204
#
# Velocity S-wave (km/s) = -1.23955 3.82564 2.55920
# Velocity P-wave (km/s) = 4.17428 6.47135 5.44532
#
# Compressibility (1/GPa) = 0.02576863
#
# Stress axis : x y z
#
# Youngs Moduli (GPa) = 77.52712 52.41135 77.06652
#
# Poissons Ratio (x) = -0.08423 0.25228
# Poissons Ratio (y) = -0.12460 0.61086
# Poissons Ratio (z) = 0.25379 0.41543
#
# Static dielectric constant tensor:
#      x y z
#    x 1.755860 0.000000 0.052730 
#    y 0.000000 1.718530 0.000000 
#    z 0.052730 0.000000 1.855880 
# 
# From -- ./inp_files/39673.got.cif
#   From: 2010.05.17/outbox.cif.g08.bks.cpg/sg15_20_cif.got.tgz:39673.got - 2010.06.03 18:47:42.
