data_PCOD9285832
_publ_section_title
;
Structure prediction by ZEFSAII (Michael W. Deem and Ramdas Pophale) SiO2 
 PCOD9285832
Probable space group: C 2/C
;
_chemical_formula_sum "Si O2"
_cell_formula_units_Z 60
_cell_length_a 12.721279
_cell_length_b 24.635183
_cell_length_c 9.094096
_cell_angle_alpha 90.000000
_cell_angle_beta 89.537239
_cell_angle_gamma 90.000000
_cell_volume 2849.915211
_symmetry_space_group_name_H-M "C 2/C"
_symmetry_group_IT_number 15
_symmetry_cell_setting 'monoclinic'
loop_
_space_group_symop_operation_xyz
x,y,z
-x,y,1/2-z
-x,-y,-z
x,-y,1/2+z
1/2+x,1/2+y,z
1/2-x,1/2+y,1/2-z
1/2-x,1/2-y,-z
1/2+x,1/2-y,1/2+z
loop_
_atom_site_type_symbol
_atom_site_label
_atom_site_fract_x
_atom_site_fract_y
_atom_site_fract_z
Si Si1 0.479956 0.203413 0.081534
Si Si2 0.000000 0.009967 0.750000
Si Si3 0.338508 0.734262 0.382279
Si Si4 0.113584 0.326967 0.330483
Si Si5 0.693621 0.040585 0.123001
Si Si6 0.886800 0.554550 0.676748
Si Si7 0.778546 0.372236 0.636554
Si Si8 0.645014 0.535940 0.000977
O O1 0.500000 0.218248 0.250000
O O2 0.385920 0.157954 0.082730
O O3 0.442888 0.252544 0.975264
O O4 0.583631 0.181103 0.000581
O O5 0.076102 0.973119 0.647924
O O6 0.931236 0.044803 0.636510
O O7 0.250000 0.750000 0.500000
O O8 0.331877 0.775950 0.246560
O O9 0.310903 0.673323 0.340138
O O10 0.164227 0.385766 0.306903
O O11 0.000000 0.329626 0.250000
O O12 0.700318 0.095297 0.214331
O O13 0.673305 0.993223 0.240674
O O14 0.797103 0.021064 0.035525
O O15 0.606431 0.043410 0.997158
O O16 0.000000 0.555943 0.750000
O O17 0.731160 0.417343 0.526512
#
# Coordination Sequence:
#
# PCOD9285832 Si02
#       8
#     8   4   8   8   8   8   8   8
#     4  10  21  42  67  95 139 178 219 280 344 408
#     4  10  22  44  64  84 126 172 220 292 334 378
#     4   9  21  41  66  89 122 176 227 285 338 388
#     4   9  20  39  62  91 127 178 222 269 334 394
#     4  12  23  40  61 101 132 178 229 271 334 398
#     4  11  24  36  61  93 142 184 222 263 319 413
#     4  11  23  41  69  96 135 175 227 279 340 401
#     4  11  22  42  65  90 125 170 224 279 335 393
#
# _framework density 21.053259000000001
#
# number of rings (size 3 to 8) (size 9 to 14) (size 15 to 20)
#    0.000    1.600    2.667    1.200    7.467    1.600 
#    4.800    6.000    0.000    0.000    0.000    0.000 
#    0.000    0.000    0.000    0.000    0.000    0.000 
#
# Total GULP energy -167420.488206 kJ/mol
# GULP energy per Si atom -5580.682940 kJ/mol
# Density = 2.100534 g / cm^3
# Si number density = 21.053259 Si / 1000 Ang^3
#
#
#
# Elastic Constant Matrix: (Units=GPa)
#
#
# Indices 1 2 3 4 5 6 
#
# 1 48.7637 23.3638 31.1917 0.0000 0.9559 0.0000
# 2 23.3638 112.6743 64.4329 0.0000 -7.0042 0.0000
# 3 31.1917 64.4329 159.2220 0.0000 11.4841 0.0000
# 4 0.0000 0.0000 0.0000 31.0111 0.0000 2.3852
# 5 0.9559 -7.0042 11.4841 0.0000 40.6295 0.0000
# 6 0.0000 0.0000 0.0000 2.3852 0.0000 33.3848
#
#
#
# Elastic Compliance Matrix: (Units=1/GPa)
#
#
# Indices 1 2 3 4 5 6 
#
# 1 0.024201 -0.003015 -0.003514 0.000000 -0.000096 0.000000
# 2 -0.003015 0.012396 -0.004681 0.000000 0.003531 0.000000
# 3 -0.003514 -0.004681 0.009101 0.000000 -0.003297 0.000000
# 4 0.000000 0.000000 0.000000 0.032425 0.000000 -0.002317
# 5 -0.000096 0.003531 -0.003297 0.000000 0.026155 0.000000
# 6 0.000000 0.000000 0.000000 -0.002317 0.000000 0.030119
#
#
# Mechanical properties :
#
#
# Convention : Reuss Voigt Hill
#
# Bulk Modulus (GPa) = 42.95612 62.07075 52.51344
# Shear Modulus (GPa) = 30.38104 34.44986 32.41545
#
# Velocity S-wave (km/s) = 3.80288 4.04953 3.92814
# Velocity P-wave (km/s) = 6.30320 7.17019 6.75063
#
# Compressibility (1/GPa) = 0.02327957
#
# Stress axis : x y z
#
# Youngs Moduli (GPa) = 41.32035 80.66904 109.87997
#
# Poissons Ratio (x) = 0.24319 0.38614
# Poissons Ratio (y) = 0.12457 0.51430
# Poissons Ratio (z) = 0.14521 0.37758
#
# Static dielectric constant tensor:
#      x y z
#    x 1.834650 0.000000 0.016010 
#    y 0.000000 1.789050 0.000000 
#    z 0.016010 0.000000 1.797920 
# 
# From -- ./inp_files/42229.got.cif
#   From: 2010.05.17/outbox.cif.g08.bks.cpg/sg15_22_cif.got.tgz:42229.got - 2010.06.03 18:47:42.
