data_PCOD9285919
_publ_section_title
;
Structure prediction by ZEFSAII (Michael W. Deem and Ramdas Pophale) SiO2 
 PCOD9285919
Probable space group: C 2/C
;
_chemical_formula_sum "Si O2"
_cell_formula_units_Z 56
_cell_length_a 9.196825
_cell_length_b 22.099571
_cell_length_c 13.939541
_cell_angle_alpha 90.000000
_cell_angle_beta 72.101540
_cell_angle_gamma 90.000000
_cell_volume 2696.037253
_symmetry_space_group_name_H-M "C 2/C"
_symmetry_group_IT_number 15
_symmetry_cell_setting 'monoclinic'
loop_
_space_group_symop_operation_xyz
x,y,z
-x,y,1/2-z
-x,-y,-z
x,-y,1/2+z
1/2+x,1/2+y,z
1/2-x,1/2+y,1/2-z
1/2-x,1/2-y,-z
1/2+x,1/2-y,1/2+z
loop_
_atom_site_type_symbol
_atom_site_label
_atom_site_fract_x
_atom_site_fract_y
_atom_site_fract_z
Si Si1 0.276283 0.145390 0.547129
Si Si2 0.820127 0.504217 0.530211
Si Si3 0.128056 0.026767 0.903229
Si Si4 0.333496 0.432623 0.768588
Si Si5 0.150860 0.719475 0.784939
Si Si6 0.333741 0.831602 0.818020
Si Si7 0.053257 0.156921 0.847361
O O1 0.262987 0.072678 0.562934
O O2 0.360973 0.173013 0.622531
O O3 0.346871 0.154953 0.428244
O O4 0.108510 0.177201 0.575873
O O5 0.780670 0.486654 0.429858
O O6 0.740222 0.457067 0.618696
O O7 0.000000 0.500000 0.500000
O O8 0.102207 0.096743 0.891682
O O9 0.129807 0.990698 0.804450
O O10 0.000000 0.000000 0.000000
O O11 0.500000 0.402266 0.750000
O O12 0.219216 0.390127 0.732022
O O13 0.204321 0.782243 0.821226
O O14 0.298875 0.698884 0.692153
O O15 0.000000 0.721902 0.750000
O O16 0.500000 0.809851 0.750000
O O17 0.000000 0.141511 0.750000
#
# Coordination Sequence:
#
# PCOD9285919 Si02
#       7
#     8   8   8   8   8   8   8
#     4  11  22  46  70  96 132 179 218 265 333 393
#     4  12  26  40  64 103 137 171 218 264 332 393
#     4  12  21  40  66  97 132 175 217 260 328 398
#     4  12  23  40  66  95 136 174 216 274 321 390
#     4  11  26  46  69  99 128 169 226 280 328 385
#     4  12  25  46  68  96 131 177 221 274 328 391
#     4  10  21  42  68  95 131 174 218 264 326 397
#
# _framework density 20.771225000000001
#
# number of rings (size 3 to 8) (size 9 to 14) (size 15 to 20)
#    0.000    0.571    4.286    5.143    2.000    0.000 
#    0.000    1.429    0.000    0.000    0.000    0.000 
#    0.000    0.000    0.000    0.000    0.000    0.000 
#
# Total GULP energy -156470.856091 kJ/mol
# GULP energy per Si atom -5588.244860 kJ/mol
# Density = 2.072395 g / cm^3
# Si number density = 20.771225 Si / 1000 Ang^3
#
#
#
# Elastic Constant Matrix: (Units=GPa)
#
#
# Indices 1 2 3 4 5 6 
#
# 1 148.7016 6.6652 19.8724 0.0000 8.8111 0.0000
# 2 6.6652 58.8482 8.9028 0.0000 9.9132 0.0000
# 3 19.8724 8.9028 71.3029 0.0000 0.7295 0.0000
# 4 0.0000 0.0000 0.0000 25.6683 0.0000 6.1897
# 5 8.8111 9.9132 0.7295 0.0000 30.7193 0.0000
# 6 0.0000 0.0000 0.0000 6.1897 0.0000 30.2691
#
#
#
# Elastic Compliance Matrix: (Units=1/GPa)
#
#
# Indices 1 2 3 4 5 6 
#
# 1 0.007107 -0.000186 -0.001938 0.000000 -0.001932 0.000000
# 2 -0.000186 0.018321 -0.002176 0.000000 -0.005807 0.000000
# 3 -0.001938 -0.002176 0.014827 0.000000 0.000906 0.000000
# 4 0.000000 0.000000 0.000000 0.040979 0.000000 -0.008380
# 5 -0.001932 -0.005807 0.000906 0.000000 0.034960 0.000000
# 6 0.000000 0.000000 0.000000 -0.008380 0.000000 0.034751
#
#
# Mechanical properties :
#
#
# Convention : Reuss Voigt Hill
#
# Bulk Modulus (GPa) = 31.59066 38.85930 35.22498
# Shear Modulus (GPa) = 29.39503 33.55880 31.47692
#
# Velocity S-wave (km/s) = 3.76597 4.02386 3.89705
# Velocity P-wave (km/s) = 5.84396 6.35118 6.10284
#
# Compressibility (1/GPa) = 0.03165492
#
# Stress axis : x y z
#
# Youngs Moduli (GPa) = 140.71301 54.58082 67.44378
#
# Poissons Ratio (x) = 0.01017 0.13068
# Poissons Ratio (y) = 0.02621 0.14678
# Poissons Ratio (z) = 0.27265 0.11878
#
# Static dielectric constant tensor:
#      x y z
#    x 1.805370 0.000000 -0.027870 
#    y 0.000000 1.756440 0.000000 
#    z -0.027870 0.000000 1.738930 
# 
# From -- ./inp_files/137273.got.cif
#   From: 2010.05.17/outbox.cif.g08.bks.cpg/sg15_69_cif.got.tgz:137273.got - 2010.06.03 18:47:42.
