data_PCOD9285295
_publ_section_title
;
Structure prediction by ZEFSAII (Michael W. Deem and Ramdas Pophale) SiO2 
 PCOD9285295
Probable space group: C 2/C
;
_chemical_formula_sum "Si O2"
_cell_formula_units_Z 40
_cell_length_a 28.713449
_cell_length_b 7.888491
_cell_length_c 13.898380
_cell_angle_alpha 90.000000
_cell_angle_beta 32.723175
_cell_angle_gamma 90.000000
_cell_volume 1701.782193
_symmetry_space_group_name_H-M "C 2/C"
_symmetry_group_IT_number 15
_symmetry_cell_setting 'monoclinic'
loop_
_space_group_symop_operation_xyz
x,y,z
-x,y,1/2-z
-x,-y,-z
x,-y,1/2+z
1/2+x,1/2+y,z
1/2-x,1/2+y,1/2-z
1/2-x,1/2-y,-z
1/2+x,1/2-y,1/2+z
loop_
_atom_site_type_symbol
_atom_site_label
_atom_site_fract_x
_atom_site_fract_y
_atom_site_fract_z
Si Si1 0.267121 0.142725 0.065955
Si Si2 0.107137 0.275979 0.446264
Si Si3 0.657204 0.835928 0.869786
Si Si4 0.452434 0.676079 0.593159
Si Si5 0.668612 0.233112 0.039195
O O1 0.173685 0.142706 0.281672
O O2 0.327736 0.218427 0.045771
O O3 0.312490 0.962803 0.965882
O O4 0.250000 0.250000 0.000000
O O5 0.149300 0.461939 0.375670
O O6 0.020704 0.287150 0.534826
O O7 0.100666 0.239203 0.570661
O O8 0.742534 0.791894 0.661982
O O9 0.576081 0.752521 0.958640
O O10 0.500000 0.500000 0.500000
O O11 0.367495 0.667720 0.807086
#
# Coordination Sequence:
#
# PCOD9285295 Si02
#       5
#     8   8   8   8   8
#     4  10  21  41  69  97 127 169 218 267 320 387
#     4  10  22  41  66  95 128 166 216 270 323 383
#     4  10  22  41  67  95 128 171 218 263 321 388
#     4  12  24  40  62  95 133 171 213 268 323 378
#     4  10  22  43  67  92 128 173 214 264 324 388
#
# _framework density 23.504769
#
# number of rings (size 3 to 8) (size 9 to 14) (size 15 to 20)
#    0.000    1.600    0.000    4.200    0.000    3.200 
#    0.000    7.000    0.000    0.000    0.000    0.000 
#    0.000    0.000    0.000    0.000    0.000    0.000 
#
# Total GULP energy -111828.779354 kJ/mol
# GULP energy per Si atom -5591.438968 kJ/mol
# Density = 2.345127 g / cm^3
# Si number density = 23.504769 Si / 1000 Ang^3
#
#
#
# Elastic Constant Matrix: (Units=GPa)
#
#
# Indices 1 2 3 4 5 6 
#
# 1 223.1066 37.1123 46.1079 0.0000 -1.8580 0.0000
# 2 37.1123 75.1062 28.9663 -0.0001 17.1850 0.0000
# 3 46.1079 28.9663 51.2837 -0.0001 13.3053 0.0000
# 4 0.0000 -0.0001 -0.0001 33.0565 0.0000 -7.1272
# 5 -1.8580 17.1850 13.3053 0.0000 42.8454 0.0000
# 6 0.0000 0.0000 0.0000 -7.1272 0.0000 33.5887
#
#
#
# Elastic Compliance Matrix: (Units=1/GPa)
#
#
# Indices 1 2 3 4 5 6 
#
# 1 0.005777 -0.001482 -0.004977 0.000000 0.002391 0.000000
# 2 -0.001482 0.018120 -0.007613 0.000000 -0.004968 0.000000
# 3 -0.004977 -0.007613 0.029951 0.000000 -0.006463 0.000000
# 4 0.000000 0.000000 0.000000 0.031702 0.000000 0.006727
# 5 0.002391 -0.004968 -0.006463 0.000000 0.027443 0.000000
# 6 0.000000 0.000000 0.000000 0.006727 0.000000 0.031199
#
#
# Mechanical properties :
#
#
# Convention : Reuss Voigt Hill
#
# Bulk Modulus (GPa) = 38.90554 63.76331 51.33442
# Shear Modulus (GPa) = 27.63886 37.71878 32.67882
#
# Velocity S-wave (km/s) = 3.43284 4.01025 3.73273
# Velocity P-wave (km/s) = 5.68336 6.97349 6.36122
#
# Compressibility (1/GPa) = 0.02570328
#
# Stress axis : x y z
#
# Youngs Moduli (GPa) = 173.09333 55.18872 33.38760
#
# Poissons Ratio (x) = 0.08180 0.16618
# Poissons Ratio (y) = 0.25655 0.25418
# Poissons Ratio (z) = 0.86153 0.42015
#
# Static dielectric constant tensor:
#      x y z
#    x 1.989490 0.000000 -0.009060 
#    y 0.000000 1.881330 0.000000 
#    z -0.009060 0.000000 1.872870 
# 
# From -- ./inp_files/176045.got.cif
#   From: 2010.05.17/outbox.cif.g08.bks.cpg/sg15_89_cif.got.tgz:176045.got - 2010.06.03 18:47:42.
