data_PCOD9285308
_publ_section_title
;
Structure prediction by ZEFSAII (Michael W. Deem and Ramdas Pophale) SiO2 
 PCOD9285308
Probable space group: C 2/C
;
_chemical_formula_sum "Si O2"
_cell_formula_units_Z 56
_cell_length_a 10.571117
_cell_length_b 18.290430
_cell_length_c 12.574358
_cell_angle_alpha 90.000000
_cell_angle_beta 67.662927
_cell_angle_gamma 90.000000
_cell_volume 2248.823888
_symmetry_space_group_name_H-M "C 2/C"
_symmetry_group_IT_number 15
_symmetry_cell_setting 'monoclinic'
loop_
_space_group_symop_operation_xyz
x,y,z
-x,y,1/2-z
-x,-y,-z
x,-y,1/2+z
1/2+x,1/2+y,z
1/2-x,1/2+y,1/2-z
1/2-x,1/2-y,-z
1/2+x,1/2-y,1/2+z
loop_
_atom_site_type_symbol
_atom_site_label
_atom_site_fract_x
_atom_site_fract_y
_atom_site_fract_z
Si Si1 0.816927 0.161812 0.194189
Si Si2 0.350245 0.619668 0.793589
Si Si3 0.809296 0.515459 0.496930
Si Si4 0.290953 0.207285 0.845153
Si Si5 0.887991 0.008932 0.123479
Si Si6 0.024405 0.736370 0.529929
Si Si7 0.081611 0.598887 0.377057
O O1 0.818905 0.209562 0.299331
O O2 0.904219 0.089294 0.164215
O O3 0.663959 0.127411 0.247075
O O4 0.886827 0.216442 0.087291
O O5 0.500000 0.660603 0.750000
O O6 0.275317 0.583575 0.920702
O O7 0.243684 0.663383 0.751849
O O8 0.391296 0.549893 0.712049
O O9 0.744920 0.495049 0.405276
O O10 0.815336 0.446668 0.576760
O O11 0.959298 0.541798 0.415386
O O12 0.418420 0.194428 0.882503
O O13 0.148661 0.209725 0.955941
O O14 0.000000 0.000000 0.000000
O O15 0.018185 0.672306 0.446896
#
# Coordination Sequence:
#
# PCOD9285308 Si02
#       7
#     8   8   8   8   8   8   8
#     4  11  23  42  68 104 137 184 233 294 358 430
#     4  12  24  44  70 105 141 191 242 301 363 424
#     4  11  24  44  68 101 147 185 240 296 360 434
#     4  10  23  41  65 103 140 182 237 297 362 423
#     4  12  25  43  70 106 141 186 241 299 358 424
#     4  10  21  41  69  99 138 181 239 292 357 433
#     4  10  23  45  67 102 144 185 233 298 358 432
#
# _framework density 24.901907000000001
#
# number of rings (size 3 to 8) (size 9 to 14) (size 15 to 20)
#    0.000    1.143    2.857    3.000    0.000    5.143 
#    5.143    2.857    0.000    0.000    0.000    0.000 
#    0.000    0.000    0.000    0.000    0.000    0.000 
#
# Total GULP energy -156232.751420 kJ/mol
# GULP energy per Si atom -5579.741122 kJ/mol
# Density = 2.484523 g / cm^3
# Si number density = 24.901907 Si / 1000 Ang^3
#
#
#
# Elastic Constant Matrix: (Units=GPa)
#
#
# Indices 1 2 3 4 5 6 
#
# 1 86.2067 20.7854 22.4777 0.0000 0.6115 0.0000
# 2 20.7854 96.2200 24.3373 0.0000 -12.9890 0.0000
# 3 22.4777 24.3373 93.3517 0.0000 -27.6905 0.0000
# 4 0.0000 0.0000 0.0000 53.2243 0.0000 -5.5572
# 5 0.6115 -12.9890 -27.6905 0.0000 41.7612 0.0000
# 6 0.0000 0.0000 0.0000 -5.5572 0.0000 31.5010
#
#
#
# Elastic Compliance Matrix: (Units=1/GPa)
#
#
# Indices 1 2 3 4 5 6 
#
# 1 0.013111 -0.002386 -0.003500 0.000000 -0.003255 0.000000
# 2 -0.002386 0.011685 -0.001722 0.000000 0.002528 0.000000
# 3 -0.003500 -0.001722 0.014764 0.000000 0.009305 0.000000
# 4 0.000000 0.000000 0.000000 0.019141 0.000000 0.003377
# 5 -0.003255 0.002528 0.009305 0.000000 0.030950 0.000000
# 6 0.000000 0.000000 0.000000 0.003377 0.000000 0.032341
#
#
# Mechanical properties :
#
#
# Convention : Reuss Voigt Hill
#
# Bulk Modulus (GPa) = 41.07987 45.66437 43.37212
# Shear Modulus (GPa) = 34.40598 39.17583 36.79091
#
# Velocity S-wave (km/s) = 3.72110 3.97067 3.84791
# Velocity P-wave (km/s) = 5.91563 6.27687 6.09892
#
# Compressibility (1/GPa) = 0.02434283
#
# Stress axis : x y z
#
# Youngs Moduli (GPa) = 76.27066 85.57905 67.73164
#
# Poissons Ratio (x) = 0.20422 0.23709
# Poissons Ratio (y) = 0.18201 0.11664
# Poissons Ratio (z) = 0.26698 0.14737
#
# Static dielectric constant tensor:
#      x y z
#    x 2.620970 0.000000 0.037920 
#    y 0.000000 1.919600 0.000000 
#    z 0.037920 0.000000 2.009110 
# 
# From -- ./inp_files/145987.got.cif
#   From: 2010.05.17/outbox.cif.g08.bks.cpg/sg15_73_cif.got.tgz:145987.got - 2010.06.03 18:47:42.
