data_PCOD9285978
_publ_section_title
;
Structure prediction by ZEFSAII (Michael W. Deem and Ramdas Pophale) SiO2 
 PCOD9285978
Probable space group: C 2/C
;
_chemical_formula_sum "Si O2"
_cell_formula_units_Z 40
_cell_length_a 15.760405
_cell_length_b 9.309445
_cell_length_c 13.902782
_cell_angle_alpha 90.000000
_cell_angle_beta 128.793971
_cell_angle_gamma 90.000000
_cell_volume 1589.847430
_symmetry_space_group_name_H-M "C 2/C"
_symmetry_group_IT_number 15
_symmetry_cell_setting 'monoclinic'
loop_
_space_group_symop_operation_xyz
x,y,z
-x,y,1/2-z
-x,-y,-z
x,-y,1/2+z
1/2+x,1/2+y,z
1/2-x,1/2+y,1/2-z
1/2-x,1/2-y,-z
1/2+x,1/2-y,1/2+z
loop_
_atom_site_type_symbol
_atom_site_label
_atom_site_fract_x
_atom_site_fract_y
_atom_site_fract_z
Si Si1 0.868827 0.020442 0.302985
Si Si2 0.872171 0.442595 0.862847
Si Si3 0.687767 0.554151 0.951335
Si Si4 0.918119 0.819046 0.515268
Si Si5 0.591313 0.161635 0.456683
O O1 0.850085 0.949028 0.186035
O O2 0.751704 0.078288 0.255719
O O3 0.962658 0.139514 0.361961
O O4 0.904570 0.900885 0.404102
O O5 0.813989 0.596732 0.043012
O O6 0.883595 0.601365 0.917351
O O7 0.891368 0.342889 0.970827
O O8 0.967245 0.393818 0.857508
O O9 0.666767 0.396484 0.976187
O O10 0.886128 0.830604 0.043275
#
# Coordination Sequence:
#
# PCOD9285978 Si02
#       5
#     8   8   8   8   8
#     4  10  23  40  64  96 133 176 218 261 326 396
#     4  10  22  40  66  98 134 167 213 279 328 371
#     4  10  21  42  69  94 130 177 221 261 318 396
#     4  11  23  41  67  96 130 173 220 267 321 393
#     4   9  20  39  66  98 131 164 214 272 321 380
#
# _framework density 25.159647
#
# number of rings (size 3 to 8) (size 9 to 14) (size 15 to 20)
#    0.000    2.000    0.000    3.000    0.000   12.800 
#    0.000    3.000    0.000   18.000    0.000    0.000 
#    0.000    0.000    0.000    0.000    0.000    0.000 
#
# Total GULP energy -111854.978726 kJ/mol
# GULP energy per Si atom -5592.748936 kJ/mol
# Density = 2.510238 g / cm^3
# Si number density = 25.159647 Si / 1000 Ang^3
#
#
#
# Elastic Constant Matrix: (Units=GPa)
#
#
# Indices 1 2 3 4 5 6 
#
# 1 175.4708 38.0618 33.4729 0.0000 34.0346 0.0000
# 2 38.0618 88.4629 24.3046 0.0000 6.0233 0.0000
# 3 33.4729 24.3046 86.2986 0.0000 13.7969 0.0000
# 4 0.0000 0.0000 0.0000 20.7598 0.0000 -5.8821
# 5 34.0346 6.0233 13.7969 0.0000 47.2577 0.0000
# 6 0.0000 0.0000 0.0000 -5.8821 0.0000 52.9497
#
#
#
# Elastic Compliance Matrix: (Units=1/GPa)
#
#
# Indices 1 2 3 4 5 6 
#
# 1 0.007402 -0.002477 -0.001439 0.000000 -0.004595 0.000000
# 2 -0.002477 0.013096 -0.002880 0.000000 0.000955 0.000000
# 3 -0.001439 -0.002880 0.013356 0.000000 -0.002496 0.000000
# 4 0.000000 0.000000 0.000000 0.049736 0.000000 0.005525
# 5 -0.004595 0.000955 -0.002496 0.000000 0.025077 0.000000
# 6 0.000000 0.000000 0.000000 0.005525 0.000000 0.019500
#
#
# Mechanical properties :
#
#
# Convention : Reuss Voigt Hill
#
# Bulk Modulus (GPa) = 49.35287 60.21232 54.78259
# Shear Modulus (GPa) = 33.66736 41.15296 37.41016
#
# Velocity S-wave (km/s) = 3.66204 4.04873 3.86023
# Velocity P-wave (km/s) = 6.12692 6.77055 6.45676
#
# Compressibility (1/GPa) = 0.02026225
#
# Stress axis : x y z
#
# Youngs Moduli (GPa) = 135.10074 76.35885 74.87250
#
# Poissons Ratio (x) = 0.18910 0.10773
# Poissons Ratio (y) = 0.33458 0.21567
# Poissons Ratio (z) = 0.19440 0.21995
#
# Static dielectric constant tensor:
#      x y z
#    x 2.042870 0.000000 0.028790 
#    y 0.000000 1.985990 0.000000 
#    z 0.028790 0.000000 1.975590 
# 
# From -- ./inp_files/160555.got.cif
#   From: 2010.05.17/outbox.cif.g08.bks.cpg/sg15_81_cif.got.tgz:160555.got - 2010.06.03 18:47:42.
