data_PCOD9285763
_publ_section_title
;
Structure prediction by ZEFSAII (Michael W. Deem and Ramdas Pophale) SiO2 
 PCOD9285763
Probable space group: C 2/C
;
_chemical_formula_sum "Si O2"
_cell_formula_units_Z 52
_cell_length_a 8.437618
_cell_length_b 18.646196
_cell_length_c 18.584268
_cell_angle_alpha 90.000000
_cell_angle_beta 123.498119
_cell_angle_gamma 90.000000
_cell_volume 2438.212710
_symmetry_space_group_name_H-M "C 2/C"
_symmetry_group_IT_number 15
_symmetry_cell_setting 'monoclinic'
loop_
_space_group_symop_operation_xyz
x,y,z
-x,y,1/2-z
-x,-y,-z
x,-y,1/2+z
1/2+x,1/2+y,z
1/2-x,1/2+y,1/2-z
1/2-x,1/2-y,-z
1/2+x,1/2-y,1/2+z
loop_
_atom_site_type_symbol
_atom_site_label
_atom_site_fract_x
_atom_site_fract_y
_atom_site_fract_z
Si Si1 0.617934 0.426680 0.345769
Si Si2 0.685211 0.830705 0.992115
Si Si3 0.557432 0.794516 0.440866
Si Si4 0.689266 0.342808 0.633041
Si Si5 0.000000 0.557974 0.250000
Si Si6 0.468420 0.050926 0.610509
Si Si7 0.582235 0.533562 0.447723
O O1 0.500000 0.396197 0.250000
O O2 0.662413 0.372206 0.421129
O O3 0.515037 0.491610 0.360328
O O4 0.818316 0.452914 0.364852
O O5 0.692849 0.855050 0.911867
O O6 0.750000 0.750000 0.000000
O O7 0.499147 0.828818 0.995410
O O8 0.750000 0.750000 0.500000
O O9 0.383879 0.739247 0.376538
O O10 0.569084 0.862787 0.390041
O O11 0.823980 0.386998 0.721113
O O12 0.494492 0.386643 0.576228
O O13 0.048756 0.502177 0.326415
O O14 0.308261 0.027913 0.513120
O O15 0.500000 0.500000 0.500000
#
# Coordination Sequence:
#
# PCOD9285763 Si02
#       7
#     8   8   8   8   4   8   8
#     4  11  23  39  62 102 133 166 224 293 345 394
#     4   9  20  40  63  90 126 178 224 263 337 423
#     4  10  21  42  66  96 124 172 228 286 335 407
#     4  11  22  41  67  96 129 178 229 273 338 420
#     4  12  24  42  66  98 138 182 226 282 348 410
#     4  11  24  41  67  94 137 176 230 279 345 410
#     4  12  21  39  70  93 129 179 226 276 338 421
#
# _framework density 21.327097999999999
#
# number of rings (size 3 to 8) (size 9 to 14) (size 15 to 20)
#    0.000    1.231    4.615    1.385    0.000    1.231 
#   12.462    0.000    1.692    0.000    0.000    0.000 
#    0.000    0.000    0.000    0.000    0.000    0.000 
#
# Total GULP energy -144893.793118 kJ/mol
# GULP energy per Si atom -5572.838197 kJ/mol
# Density = 2.127856 g / cm^3
# Si number density = 21.327098 Si / 1000 Ang^3
#
#
#
# Elastic Constant Matrix: (Units=GPa)
#
#
# Indices 1 2 3 4 5 6 
#
# 1 46.0237 9.8780 11.9410 0.0000 15.9160 0.0000
# 2 9.8780 122.9012 31.0427 0.0000 -4.8203 0.0000
# 3 11.9410 31.0427 77.0743 0.0000 10.5054 0.0000
# 4 0.0000 0.0000 0.0000 20.1272 0.0000 5.1096
# 5 15.9160 -4.8203 10.5054 0.0000 21.5206 0.0000
# 6 0.0000 0.0000 0.0000 5.1096 0.0000 42.1061
#
#
#
# Elastic Compliance Matrix: (Units=1/GPa)
#
#
# Indices 1 2 3 4 5 6 
#
# 1 0.030520 -0.003303 -0.000236 0.000000 -0.023196 0.000000
# 2 -0.003303 0.009763 -0.004340 0.000000 0.006748 0.000000
# 3 -0.000236 -0.004340 0.015928 0.000000 -0.008573 0.000000
# 4 0.000000 0.000000 0.000000 0.051263 0.000000 -0.006221
# 5 -0.023196 0.006748 -0.008573 0.000000 0.069318 0.000000
# 6 0.000000 0.000000 0.000000 -0.006221 0.000000 0.024504
#
#
# Mechanical properties :
#
#
# Convention : Reuss Voigt Hill
#
# Bulk Modulus (GPa) = 24.72115 39.08029 31.90072
# Shear Modulus (GPa) = 21.68823 29.62661 25.65742
#
# Velocity S-wave (km/s) = 3.19240 3.73118 3.47225
# Velocity P-wave (km/s) = 5.02047 6.07670 5.57366
#
# Compressibility (1/GPa) = 0.04045119
#
# Stress axis : x y z
#
# Youngs Moduli (GPa) = 32.76553 102.42700 62.78386
#
# Poissons Ratio (x) = 0.33832 0.01484
# Poissons Ratio (y) = 0.10823 0.27250
# Poissons Ratio (z) = 0.00774 0.44456
#
# Static dielectric constant tensor:
#      x y z
#    x 1.764780 0.000000 0.004520 
#    y 0.000000 1.625430 0.000000 
#    z 0.004520 0.000000 1.818790 
# 
# From -- ./inp_files/136009.got.cif
#   From: 2010.05.17/outbox.cif.g08.bks.cpg/sg15_69_cif.got.tgz:136009.got - 2010.06.03 18:47:42.
