data_PCOD9285572
_publ_section_title
;
Structure prediction by ZEFSAII (Michael W. Deem and Ramdas Pophale) SiO2 
 PCOD9285572
Probable space group: C 2/C
;
_chemical_formula_sum "Si O2"
_cell_formula_units_Z 52
_cell_length_a 5.670696
_cell_length_b 15.192913
_cell_length_c 26.662911
_cell_angle_alpha 90.000000
_cell_angle_beta 104.464536
_cell_angle_gamma 90.000000
_cell_volume 2224.313522
_symmetry_space_group_name_H-M "C 2/C"
_symmetry_group_IT_number 15
_symmetry_cell_setting 'monoclinic'
loop_
_space_group_symop_operation_xyz
x,y,z
-x,y,1/2-z
-x,-y,-z
x,-y,1/2+z
1/2+x,1/2+y,z
1/2-x,1/2+y,1/2-z
1/2-x,1/2-y,-z
1/2+x,1/2-y,1/2+z
loop_
_atom_site_type_symbol
_atom_site_label
_atom_site_fract_x
_atom_site_fract_y
_atom_site_fract_z
Si Si1 0.000000 0.369269 0.250000
Si Si2 0.500000 0.870891 0.750000
Si Si3 0.500000 0.537878 0.750000
Si Si4 0.686232 0.473428 0.945807
Si Si5 0.486832 0.814412 0.572924
Si Si6 0.535781 0.642916 0.985960
Si Si7 0.401572 0.571281 0.338225
Si Si8 0.776157 0.777906 0.679636
O O1 0.752636 0.413262 0.255557
O O2 0.894370 0.314561 0.197402
O O3 0.367410 0.925612 0.699335
O O4 0.700255 0.814886 0.730492
O O5 0.458943 0.482744 0.697280
O O6 0.888602 0.410100 0.930519
O O7 0.697886 0.577648 0.958904
O O8 0.455327 0.465569 0.895679
O O9 0.649453 0.422985 0.996611
O O10 0.578633 0.728415 0.546507
O O11 0.211591 0.822460 0.539478
O O12 0.537459 0.786151 0.632546
O O13 0.523858 0.666497 0.339929
#
# Coordination Sequence:
#
# PCOD9285572 Si02
#       8
#     4   4   4   8   8   8   8   8
#     4  12  26  44  65 101 148 178 228 290 346 412
#     4  12  18  40  68  84 136 174 242 270 342 418
#     4  12  26  44  65 101 148 178 228 290 346 412
#     4  10  22  40  64  93 127 167 227 274 355 403
#     4  10  22  40  64  93 127 167 227 274 355 403
#     4  10  21  42  64  91 126 170 220 294 332 422
#     4  11  23  41  64  94 126 183 224 277 341 422
#     4  11  23  41  64  94 126 183 224 277 341 422
#
# _framework density 23.378
#
# number of rings (size 3 to 8) (size 9 to 14) (size 15 to 20)
#    0.000    1.231    3.077    2.769    2.154    0.000 
#    0.000    1.538    0.000    0.000    0.000    0.000 
#    0.000    0.000    0.000    0.000    0.000    0.000 
#
# Total GULP energy -144970.638181 kJ/mol
# GULP energy per Si atom -5575.793776 kJ/mol
# Density = 2.332479 g / cm^3
# Si number density = 23.378000 Si / 1000 Ang^3
#
#
#
# Elastic Constant Matrix: (Units=GPa)
#
#
# Indices 1 2 3 4 5 6 
#
# 1 68.1831 22.3357 4.3504 0.0000 5.6403 0.0000
# 2 22.3357 77.2591 17.4571 0.0000 -3.2544 0.0000
# 3 4.3504 17.4571 120.6727 0.0000 14.0834 0.0000
# 4 0.0000 0.0000 0.0000 18.9043 0.0000 5.1649
# 5 5.6403 -3.2544 14.0834 0.0000 31.6827 0.0000
# 6 0.0000 0.0000 0.0000 5.1649 0.0000 38.6655
#
#
#
# Elastic Compliance Matrix: (Units=1/GPa)
#
#
# Indices 1 2 3 4 5 6 
#
# 1 0.016605 -0.005087 0.000573 0.000000 -0.003733 0.000000
# 2 -0.005087 0.015108 -0.002414 0.000000 0.003531 0.000000
# 3 0.000573 -0.002414 0.009130 0.000000 -0.004408 0.000000
# 4 0.000000 0.000000 0.000000 0.054902 0.000000 -0.007334
# 5 -0.003733 0.003531 -0.004408 0.000000 0.034550 0.000000
# 6 0.000000 0.000000 0.000000 -0.007334 0.000000 0.026843
#
#
# Mechanical properties :
#
#
# Convention : Reuss Voigt Hill
#
# Bulk Modulus (GPa) = 37.05570 39.37794 38.21682
# Shear Modulus (GPa) = 27.77923 32.64860 30.21391
#
# Velocity S-wave (km/s) = 3.45086 3.74110 3.59891
# Velocity P-wave (km/s) = 5.63587 5.96169 5.80106
#
# Compressibility (1/GPa) = 0.02698640
#
# Stress axis : x y z
#
# Youngs Moduli (GPa) = 60.22211 66.18804 109.52919
#
# Poissons Ratio (x) = 0.33672 -0.06276
# Poissons Ratio (y) = 0.30637 0.26444
# Poissons Ratio (z) = -0.03451 0.15980
#
# Static dielectric constant tensor:
#      x y z
#    x 2.070810 0.000000 -0.156710 
#    y 0.000000 1.989680 0.000000 
#    z -0.156710 0.000000 2.087220 
# 
# From -- ./inp_files/297512.got.cif
#   From: 2010.05.17/outbox.cif.g08.bks.cpg/sg15_149_cif.got.tgz:297512.got - 2010.06.03 18:47:42.
