data_PCOD9285549
_publ_section_title
;
Structure prediction by ZEFSAII (Michael W. Deem and Ramdas Pophale) SiO2 
 PCOD9285549
Probable space group: C 2/C
;
_chemical_formula_sum "Si O2"
_cell_formula_units_Z 52
_cell_length_a 28.592027
_cell_length_b 6.458079
_cell_length_c 14.396087
_cell_angle_alpha 90.000000
_cell_angle_beta 76.840715
_cell_angle_gamma 90.000000
_cell_volume 2588.428569
_symmetry_space_group_name_H-M "C 2/C"
_symmetry_group_IT_number 15
_symmetry_cell_setting 'monoclinic'
loop_
_space_group_symop_operation_xyz
x,y,z
-x,y,1/2-z
-x,-y,-z
x,-y,1/2+z
1/2+x,1/2+y,z
1/2-x,1/2+y,1/2-z
1/2-x,1/2-y,-z
1/2+x,1/2-y,1/2+z
loop_
_atom_site_type_symbol
_atom_site_label
_atom_site_fract_x
_atom_site_fract_y
_atom_site_fract_z
Si Si1 0.000000 0.117477 0.750000
Si Si2 0.801894 0.034003 0.034498
Si Si3 0.961773 0.738628 0.657334
Si Si4 0.385375 0.854740 0.042375
Si Si5 0.226596 0.142415 0.649887
Si Si6 0.057693 0.502427 0.152620
Si Si7 0.188483 0.652520 0.336431
O O1 0.040177 0.269668 0.690612
O O2 0.023006 0.966831 0.816561
O O3 0.848747 0.170839 0.035284
O O4 0.756590 0.163835 0.094977
O O5 0.805181 0.816267 0.083667
O O6 0.795322 0.021963 0.927200
O O7 0.931005 0.727667 0.578556
O O8 0.934033 0.631554 0.757635
O O9 0.011128 0.608204 0.627686
O O10 0.357263 0.013903 0.121172
O O11 0.401017 0.971392 0.941317
O O12 0.188031 0.224496 0.740363
O O13 0.264964 0.996338 0.684004
#
# Coordination Sequence:
#
# PCOD9285549 Si02
#       7
#     4   8   8   8   8   8   8
#     4   8  18  38  62  82 114 172 190 236 292 350
#     4  10  23  39  60  90 115 155 200 245 299 356
#     4   9  20  39  62  87 120 161 199 237 301 353
#     4  11  24  37  58  97 118 154 201 249 297 351
#     4  10  21  42  64  82 118 155 201 244 297 361
#     4   9  20  39  60  86 123 159 197 244 294 357
#     4  11  22  41  62  88 118 159 198 245 306 356
#
# _framework density 20.089410000000001
#
# number of rings (size 3 to 8) (size 9 to 14) (size 15 to 20)
#    0.000    2.462    1.538    0.923    2.154    5.538 
#    2.769    0.000    0.000    0.000    0.000    0.000 
#    0.000    0.000    0.000    0.000    0.000    0.000 
#
# Total GULP energy -145206.582679 kJ/mol
# GULP energy per Si atom -5584.868565 kJ/mol
# Density = 2.004369 g / cm^3
# Si number density = 20.089410 Si / 1000 Ang^3
#
#
#
# Elastic Constant Matrix: (Units=GPa)
#
#
# Indices 1 2 3 4 5 6 
#
# 1 13.8550 -0.0246 -6.2427 0.0000 -2.3635 0.0000
# 2 -0.0246 56.2286 4.3566 0.0000 -8.9558 0.0000
# 3 -6.2427 4.3566 73.1834 0.0000 -9.1139 0.0000
# 4 0.0000 0.0000 0.0000 19.0690 0.0000 6.2001
# 5 -2.3635 -8.9558 -9.1139 0.0000 28.4507 0.0000
# 6 0.0000 0.0000 0.0000 6.2001 0.0000 0.4624
#
#
#
# Elastic Compliance Matrix: (Units=1/GPa)
#
#
# Indices 1 2 3 4 5 6 
#
# 1 0.077196 0.000897 0.007671 0.000000 0.009153 0.000000
# 2 0.000897 0.018745 -0.000307 0.000000 0.005877 0.000000
# 3 0.007671 -0.000307 0.015003 0.000000 0.005347 0.000000
# 4 0.000000 0.000000 0.000000 -0.015608 0.000000 0.209292
# 5 0.009153 0.005877 0.005347 0.000000 0.039471 0.000000
# 6 0.000000 0.000000 0.000000 0.209292 0.000000 -0.643696
#
#
# Mechanical properties :
#
#
# Convention : Reuss Voigt Hill
#
# Bulk Modulus (GPa) = 7.84526 15.49394 11.66960
# Shear Modulus (GPa) = -10.35360 19.27494 4.46067
#
# Velocity S-wave (km/s) = -2.27265 3.10087 1.49172
# Velocity P-wave (km/s) = 1.72422 4.53319 2.96453
#
# Compressibility (1/GPa) = 0.12746558
#
# Stress axis : x y z
#
# Youngs Moduli (GPa) = 12.95409 53.34829 66.65418
#
# Poissons Ratio (x) = -0.04787 -0.51133
# Poissons Ratio (y) = -0.01162 0.02049
# Poissons Ratio (z) = -0.09938 0.01640
#
# Static dielectric constant tensor:
#      x y z
#    x 1.687660 0.000000 -0.006700 
#    y 0.000000 1.685000 0.000000 
#    z -0.006700 0.000000 1.718460 
# 
# From -- ./inp_files/180048.got.cif
#   From: 2010.05.17/outbox.cif.g08.bks.cpg/sg15_91_cif.got.tgz:180048.got - 2010.06.03 18:47:42.
