data_PCOD9285364
_publ_section_title
;
Structure prediction by ZEFSAII (Michael W. Deem and Ramdas Pophale) SiO2 
 PCOD9285364
Probable space group: C 2/C
;
_chemical_formula_sum "Si O2"
_cell_formula_units_Z 56
_cell_length_a 18.001416
_cell_length_b 8.770085
_cell_length_c 24.989870
_cell_angle_alpha 90.000000
_cell_angle_beta 139.196502
_cell_angle_gamma 90.000000
_cell_volume 2578.089605
_symmetry_space_group_name_H-M "C 2/C"
_symmetry_group_IT_number 15
_symmetry_cell_setting 'monoclinic'
loop_
_space_group_symop_operation_xyz
x,y,z
-x,y,1/2-z
-x,-y,-z
x,-y,1/2+z
1/2+x,1/2+y,z
1/2-x,1/2+y,1/2-z
1/2-x,1/2-y,-z
1/2+x,1/2-y,1/2+z
loop_
_atom_site_type_symbol
_atom_site_label
_atom_site_fract_x
_atom_site_fract_y
_atom_site_fract_z
Si Si1 0.789422 0.844802 0.239248
Si Si2 0.096385 0.830231 0.021276
Si Si3 0.878042 0.663108 0.037612
Si Si4 0.331955 0.357481 0.910070
Si Si5 0.374196 0.881438 0.873418
Si Si6 0.524360 0.603124 0.822462
Si Si7 0.308897 0.588801 0.038226
O O1 0.755895 0.713060 0.179018
O O2 0.818434 0.757725 0.309616
O O3 0.903620 0.930014 0.283447
O O4 0.689068 0.965882 0.178433
O O5 0.133646 0.668837 0.068143
O O6 0.175269 0.960889 0.090660
O O7 0.106855 0.893106 0.966688
O O8 0.963620 0.835922 0.964107
O O9 0.916710 0.772148 0.107210
O O10 0.994896 0.604389 0.074201
O O11 0.821297 0.767771 0.960434
O O12 0.793561 0.533524 0.013006
O O13 0.500000 0.660129 0.750000
O O14 0.608076 0.458263 0.868284
O O15 0.250000 0.750000 0.000000
#
# Coordination Sequence:
#
# PCOD9285364 Si02
#       7
#     8   8   8   8   8   8   8
#     4  11  24  40  70  94 136 171 219 285 337 405
#     4  10  23  40  66  98 130 170 230 272 335 401
#     4  10  23  45  66  95 126 183 228 270 334 424
#     4  10  21  41  71  93 128 176 224 278 328 405
#     4  10  24  41  65 100 131 173 230 278 346 395
#     4  11  25  44  67  95 132 179 225 273 343 414
#     4  12  27  42  68  98 138 177 226 285 346 406
#
# _framework density 21.721512000000001
#
# number of rings (size 3 to 8) (size 9 to 14) (size 15 to 20)
#    0.000    1.429    1.429    2.143   12.000    1.143 
#    0.000    0.714    0.000    0.000    0.000    0.000 
#    0.000    0.000    0.000    0.000    0.000    0.000 
#
# Total GULP energy -156165.689380 kJ/mol
# GULP energy per Si atom -5577.346049 kJ/mol
# Density = 2.167207 g / cm^3
# Si number density = 21.721512 Si / 1000 Ang^3
#
#
#
# Elastic Constant Matrix: (Units=GPa)
#
#
# Indices 1 2 3 4 5 6 
#
# 1 77.7504 26.7469 20.7490 0.0000 -0.9554 0.0000
# 2 26.7469 58.4918 17.4520 0.0000 6.8149 0.0000
# 3 20.7490 17.4520 82.5074 0.0000 -7.0557 0.0000
# 4 0.0000 0.0000 0.0000 40.0004 0.0000 5.2032
# 5 -0.9554 6.8149 -7.0557 0.0000 40.9266 0.0000
# 6 0.0000 0.0000 0.0000 5.2032 0.0000 28.8921
#
#
#
# Elastic Compliance Matrix: (Units=1/GPa)
#
#
# Indices 1 2 3 4 5 6 
#
# 1 0.015812 -0.006609 -0.002490 0.000000 0.001040 0.000000
# 2 -0.006609 0.021599 -0.003276 0.000000 -0.004316 0.000000
# 3 -0.002490 -0.003276 0.013682 0.000000 0.002846 0.000000
# 4 0.000000 0.000000 0.000000 0.025599 0.000000 -0.004610
# 5 0.001040 -0.004316 0.002846 0.000000 0.025668 0.000000
# 6 0.000000 0.000000 0.000000 -0.004610 0.000000 0.035442
#
#
# Mechanical properties :
#
#
# Convention : Reuss Voigt Hill
#
# Bulk Modulus (GPa) = 37.95766 38.73840 38.34803
# Shear Modulus (GPa) = 29.18302 32.21727 30.70015
#
# Velocity S-wave (km/s) = 3.66937 3.85541 3.76354
# Velocity P-wave (km/s) = 5.95525 6.13936 6.04800
#
# Compressibility (1/GPa) = 0.02634514
#
# Stress axis : x y z
#
# Youngs Moduli (GPa) = 63.24138 46.29904 73.08636
#
# Poissons Ratio (x) = 0.30599 0.18196
# Poissons Ratio (y) = 0.41797 0.23940
# Poissons Ratio (z) = 0.15745 0.15166
#
# Static dielectric constant tensor:
#      x y z
#    x 1.650110 0.000000 0.017780 
#    y 0.000000 1.781550 0.000000 
#    z 0.017780 0.000000 1.750770 
# 
# From -- ./inp_files/298562.got.cif
#   From: 2010.05.17/outbox.cif.g08.bks.cpg/sg15_150_cif.got.tgz:298562.got - 2010.06.03 18:47:42.
