data_PCOD9285823
_publ_section_title
;
Structure prediction by ZEFSAII (Michael W. Deem and Ramdas Pophale) SiO2 
 PCOD9285823
Probable space group: C 2/C
;
_chemical_formula_sum "Si O2"
_cell_formula_units_Z 48
_cell_length_a 17.952068
_cell_length_b 15.945993
_cell_length_c 9.190706
_cell_angle_alpha 90.000000
_cell_angle_beta 132.262366
_cell_angle_gamma 90.000000
_cell_volume 1947.105506
_symmetry_space_group_name_H-M "C 2/C"
_symmetry_group_IT_number 15
_symmetry_cell_setting 'monoclinic'
loop_
_space_group_symop_operation_xyz
x,y,z
-x,y,1/2-z
-x,-y,-z
x,-y,1/2+z
1/2+x,1/2+y,z
1/2-x,1/2+y,1/2-z
1/2-x,1/2-y,-z
1/2+x,1/2-y,1/2+z
loop_
_atom_site_type_symbol
_atom_site_label
_atom_site_fract_x
_atom_site_fract_y
_atom_site_fract_z
Si Si1 0.687007 0.188590 0.114011
Si Si2 0.703300 0.991307 0.491856
Si Si3 0.604396 0.307652 0.757339
Si Si4 0.532070 0.231012 0.125936
Si Si5 0.074021 0.000554 0.231750
Si Si6 0.085718 0.564946 0.568441
O O1 0.801965 0.209922 0.228194
O O2 0.644140 0.208470 0.217451
O O3 0.685672 0.089757 0.073373
O O4 0.620949 0.241749 0.910003
O O5 0.813386 0.032813 0.644351
O O6 0.676374 0.956134 0.297697
O O7 0.622483 0.055563 0.451282
O O8 0.506621 0.305046 0.527546
O O9 0.604139 0.403106 0.815054
O O10 0.500000 0.243036 0.250000
O O11 0.463408 0.154660 0.975860
O O12 0.000000 0.958976 0.250000
O O13 0.000000 0.000000 0.000000
O O14 0.000000 0.500000 0.500000
#
# Coordination Sequence:
#
# PCOD9285823 Si02
#       6
#     8   8   8   8   8   8
#     4  10  21  42  67  94 125 177 229 272 321 401
#     4  11  23  40  64  94 135 171 224 276 330 397
#     4  10  23  43  70  94 126 178 230 270 324 403
#     4  12  24  39  62  97 136 170 215 276 341 393
#     4  11  24  45  69  97 128 174 224 275 330 394
#     4  12  23  38  62  97 131 176 213 271 336 397
#
# _framework density 24.651976000000001
#
# number of rings (size 3 to 8) (size 9 to 14) (size 15 to 20)
#    0.000    1.000    3.333    4.000    0.000    1.333 
#    3.000    0.000    0.000    0.000    0.000    0.000 
#    0.000    0.000    0.000    0.000    0.000    0.000 
#
# Total GULP energy -134075.740731 kJ/mol
# GULP energy per Si atom -5586.489197 kJ/mol
# Density = 2.459587 g / cm^3
# Si number density = 24.651976 Si / 1000 Ang^3
#
#
#
# Elastic Constant Matrix: (Units=GPa)
#
#
# Indices 1 2 3 4 5 6 
#
# 1 193.0706 1.8054 34.1832 0.0000 -0.9241 0.0000
# 2 1.8054 50.2520 -17.0610 0.0000 5.0308 0.0000
# 3 34.1832 -17.0610 68.7443 0.0000 10.9484 0.0000
# 4 0.0000 0.0000 0.0000 24.5222 0.0000 -4.7772
# 5 -0.9241 5.0308 10.9484 0.0000 41.7774 0.0000
# 6 0.0000 0.0000 0.0000 -4.7772 0.0000 18.7629
#
#
#
# Elastic Compliance Matrix: (Units=1/GPa)
#
#
# Indices 1 2 3 4 5 6 
#
# 1 0.005811 -0.001504 -0.003457 0.000000 0.001215 0.000000
# 2 -0.001504 0.022852 0.007162 0.000000 -0.004662 0.000000
# 3 -0.003457 0.007162 0.018985 0.000000 -0.005914 0.000000
# 4 0.000000 0.000000 0.000000 0.042908 0.000000 0.010925
# 5 0.001215 -0.004662 -0.005914 0.000000 0.026075 0.000000
# 6 0.000000 0.000000 0.000000 0.010925 0.000000 0.056078
#
#
# Mechanical properties :
#
#
# Convention : Reuss Voigt Hill
#
# Bulk Modulus (GPa) = 19.21213 38.88023 29.04618
# Shear Modulus (GPa) = 26.93154 36.55512 31.74333
#
# Velocity S-wave (km/s) = 3.30884 3.85495 3.59229
# Velocity P-wave (km/s) = 4.73372 5.96826 5.38648
#
# Compressibility (1/GPa) = 0.05205046
#
# Stress axis : x y z
#
# Youngs Moduli (GPa) = 172.07811 43.75995 52.67389
#
# Poissons Ratio (x) = 0.06581 0.18207
# Poissons Ratio (y) = 0.25880 -0.37724
# Poissons Ratio (z) = 0.59479 -0.31340
#
# Static dielectric constant tensor:
#      x y z
#    x 1.950040 0.000000 0.054620 
#    y 0.000000 2.006670 0.000000 
#    z 0.054620 0.000000 1.954770 
# 
# From -- ./inp_files/50041.got.cif
#   From: 2010.05.17/outbox.cif.g08.bks.cpg/sg15_26_cif.got.tgz:50041.got - 2010.06.03 18:47:42.
