data_PCOD9285120
_publ_section_title
;
Structure prediction by ZEFSAII (Michael W. Deem and Ramdas Pophale) SiO2 
 PCOD9285120
Probable space group: C 2/C
;
_chemical_formula_sum "Si O2"
_cell_formula_units_Z 40
_cell_length_a 8.810102
_cell_length_b 15.691472
_cell_length_c 14.281430
_cell_angle_alpha 90.000000
_cell_angle_beta 82.504277
_cell_angle_gamma 90.000000
_cell_volume 1957.443121
_symmetry_space_group_name_H-M "C 2/C"
_symmetry_group_IT_number 15
_symmetry_cell_setting 'monoclinic'
loop_
_space_group_symop_operation_xyz
x,y,z
-x,y,1/2-z
-x,-y,-z
x,-y,1/2+z
1/2+x,1/2+y,z
1/2-x,1/2+y,1/2-z
1/2-x,1/2-y,-z
1/2+x,1/2-y,1/2+z
loop_
_atom_site_type_symbol
_atom_site_label
_atom_site_fract_x
_atom_site_fract_y
_atom_site_fract_z
Si Si1 0.780857 0.784079 0.847444
Si Si2 0.357727 0.506900 0.080170
Si Si3 0.500000 0.223518 0.250000
Si Si4 0.831897 0.665826 0.452013
Si Si5 0.884542 0.362239 0.455689
Si Si6 0.500000 0.430038 0.750000
O O1 0.654430 0.741949 0.788232
O O2 0.890634 0.709558 0.875035
O O3 0.870078 0.864537 0.797674
O O4 0.699021 0.820904 0.947097
O O5 0.296808 0.600504 0.065118
O O6 0.222346 0.439501 0.070554
O O7 0.423961 0.509394 0.178947
O O8 0.500000 0.500000 0.000000
O O9 0.425826 0.179443 0.347852
O O10 0.750000 0.750000 0.500000
O O11 0.944903 0.623176 0.519611
#
# Coordination Sequence:
#
# PCOD9285120 Si02
#       6
#     8   8   4   8   8   4
#     4  10  21  41  67  94 127 176 222 276 337 406
#     4  12  25  43  67 101 139 175 227 287 341 402
#     4  10  22  39  71  92 132 170 234 272 329 407
#     4  11  24  45  72  98 133 185 226 278 347 410
#     4  10  23  42  66  96 133 173 222 281 342 399
#     4  12  22  43  67  98 134 180 224 278 345 409
#
# _framework density 20.434820999999999
#
# number of rings (size 3 to 8) (size 9 to 14) (size 15 to 20)
#    0.000    1.200    4.000    1.800    5.600    0.800 
#    0.000    1.000    0.000    0.000    0.000    0.000 
#    0.000    0.000    0.000    0.000    0.000    0.000 
#
# Total GULP energy -111416.496923 kJ/mol
# GULP energy per Si atom -5570.824846 kJ/mol
# Density = 2.038831 g / cm^3
# Si number density = 20.434821 Si / 1000 Ang^3
#
#
#
# Elastic Constant Matrix: (Units=GPa)
#
#
# Indices 1 2 3 4 5 6 
#
# 1 89.7364 12.6988 51.7300 0.0000 21.8620 0.0000
# 2 12.6988 53.7220 38.2036 0.0000 11.1464 0.0000
# 3 51.7300 38.2036 115.5822 0.0000 31.7581 0.0000
# 4 0.0000 0.0000 0.0000 30.3797 0.0000 11.4269
# 5 21.8620 11.1464 31.7581 0.0000 50.9283 0.0000
# 6 0.0000 0.0000 0.0000 11.4269 0.0000 20.3908
#
#
#
# Elastic Compliance Matrix: (Units=1/GPa)
#
#
# Indices 1 2 3 4 5 6 
#
# 1 0.015456 0.001699 -0.006702 0.000000 -0.002827 0.000000
# 2 0.001699 0.024527 -0.008679 0.000000 -0.000685 0.000000
# 3 -0.006702 -0.008679 0.015939 0.000000 -0.005163 0.000000
# 4 0.000000 0.000000 0.000000 0.041708 0.000000 -0.023373
# 5 -0.002827 -0.000685 -0.005163 0.000000 0.024218 0.000000
# 6 0.000000 0.000000 0.000000 -0.023373 0.000000 0.062140
#
#
# Mechanical properties :
#
#
# Convention : Reuss Voigt Hill
#
# Bulk Modulus (GPa) = 35.01742 51.58950 43.30346
# Shear Modulus (GPa) = 22.63764 30.76696 26.70230
#
# Velocity S-wave (km/s) = 3.33197 3.88443 3.61876
# Velocity P-wave (km/s) = 5.65474 6.73937 6.22074
#
# Compressibility (1/GPa) = 0.02855722
#
# Stress axis : x y z
#
# Youngs Moduli (GPa) = 64.70132 40.77151 62.74018
#
# Poissons Ratio (x) = -0.06929 0.42050
# Poissons Ratio (y) = -0.10995 0.54453
# Poissons Ratio (z) = 0.43364 0.35386
#
# Static dielectric constant tensor:
#      x y z
#    x 1.900870 0.000000 -0.138480 
#    y 0.000000 1.688810 0.000000 
#    z -0.138480 0.000000 1.931040 
# 
# From -- ./inp_files/133218.got.cif
#   From: 2010.05.17/outbox.cif.g08.bks.cpg/sg15_67_cif.got.tgz:133218.got - 2010.06.03 18:47:42.
