data_PCOD9285850
_publ_section_title
;
Structure prediction by ZEFSAII (Michael W. Deem and Ramdas Pophale) SiO2 
 PCOD9285850
Probable space group: C 2/C
;
_chemical_formula_sum "Si O2"
_cell_formula_units_Z 52
_cell_length_a 13.122928
_cell_length_b 13.767201
_cell_length_c 14.668269
_cell_angle_alpha 90.000000
_cell_angle_beta 121.061266
_cell_angle_gamma 90.000000
_cell_volume 2270.081710
_symmetry_space_group_name_H-M "C 2/C"
_symmetry_group_IT_number 15
_symmetry_cell_setting 'monoclinic'
loop_
_space_group_symop_operation_xyz
x,y,z
-x,y,1/2-z
-x,-y,-z
x,-y,1/2+z
1/2+x,1/2+y,z
1/2-x,1/2+y,1/2-z
1/2-x,1/2-y,-z
1/2+x,1/2-y,1/2+z
loop_
_atom_site_type_symbol
_atom_site_label
_atom_site_fract_x
_atom_site_fract_y
_atom_site_fract_z
Si Si1 0.219267 0.671076 0.737384
Si Si2 0.934553 0.854684 0.557583
Si Si3 0.586174 0.800087 0.597286
Si Si4 0.166293 0.335220 0.000015
Si Si5 0.271504 0.943770 0.953181
Si Si6 0.593148 0.512254 0.721073
Si Si7 0.500000 0.790565 0.250000
O O1 0.294420 0.768215 0.795331
O O2 0.169328 0.675852 0.611622
O O3 0.316472 0.586040 0.782179
O O4 0.110965 0.654294 0.756633
O O5 0.954462 0.796563 0.475181
O O6 0.797172 0.885652 0.500651
O O7 0.019986 0.945685 0.617509
O O8 0.955788 0.778841 0.648768
O O9 0.468948 0.828365 0.598117
O O10 0.619604 0.884620 0.540148
O O11 0.206830 0.446503 0.004917
O O12 0.250000 0.250000 0.000000
O O13 0.174818 0.949099 0.826572
O O14 0.500000 0.560644 0.750000
#
# Coordination Sequence:
#
# PCOD9285850 Si02
#       7
#     8   8   8   8   8   8   4
#     4  11  25  41  70 103 140 179 233 280 358 401
#     4  11  20  39  69  99 133 177 232 273 348 411
#     4  12  24  40  72 101 135 184 227 288 349 415
#     4  11  27  47  67  98 141 186 235 286 341 422
#     4  10  21  42  67  97 139 184 221 285 355 399
#     4   9  20  40  67  95 139 185 225 283 343 413
#     4  12  20  44  66 102 136 176 222 292 330 416
#
# _framework density 22.906663999999999
#
# number of rings (size 3 to 8) (size 9 to 14) (size 15 to 20)
#    0.000    1.231    5.385    0.923    6.462    0.615 
#    0.000    0.000    0.000    1.846    0.000    0.000 
#    0.000    0.000    0.000    0.000    0.000    0.000 
#
# Total GULP energy -145304.014589 kJ/mol
# GULP energy per Si atom -5588.615946 kJ/mol
# Density = 2.285453 g / cm^3
# Si number density = 22.906664 Si / 1000 Ang^3
#
#
#
# Elastic Constant Matrix: (Units=GPa)
#
#
# Indices 1 2 3 4 5 6 
#
# 1 153.5256 48.6867 2.6287 0.0000 21.5621 0.0000
# 2 48.6867 80.8152 -3.5882 0.0000 9.8396 0.0000
# 3 2.6287 -3.5882 48.2076 0.0000 1.7619 0.0000
# 4 0.0000 0.0000 0.0000 21.7253 0.0000 -2.0261
# 5 21.5621 9.8396 1.7619 0.0000 15.7438 0.0000
# 6 0.0000 0.0000 0.0000 -2.0261 0.0000 27.7882
#
#
#
# Elastic Compliance Matrix: (Units=1/GPa)
#
#
# Indices 1 2 3 4 5 6 
#
# 1 0.009323 -0.004426 -0.000474 0.000000 -0.009949 0.000000
# 2 -0.004426 0.015577 0.001541 0.000000 -0.003846 0.000000
# 3 -0.000474 0.001541 0.020982 0.000000 -0.002662 0.000000
# 4 0.000000 0.000000 0.000000 0.046344 0.000000 0.003379
# 5 -0.009949 -0.003846 -0.002662 0.000000 0.079844 0.000000
# 6 0.000000 0.000000 0.000000 0.003379 0.000000 0.036233
#
#
# Mechanical properties :
#
#
# Convention : Reuss Voigt Hill
#
# Bulk Modulus (GPa) = 25.53410 42.00029 33.76719
# Shear Modulus (GPa) = 21.92264 28.70620 25.31442
#
# Velocity S-wave (km/s) = 3.09697 3.54387 3.32793
# Velocity P-wave (km/s) = 4.89484 5.92626 5.43507
#
# Compressibility (1/GPa) = 0.03916332
#
# Stress axis : x y z
#
# Youngs Moduli (GPa) = 107.26687 64.19678 47.66101
#
# Poissons Ratio (x) = 0.28414 0.02260
# Poissons Ratio (y) = 0.47477 -0.07346
# Poissons Ratio (z) = 0.05086 -0.09895
#
# Static dielectric constant tensor:
#      x y z
#    x 1.948250 0.000000 0.048930 
#    y 0.000000 1.852060 0.000000 
#    z 0.048930 0.000000 1.942640 
# 
# From -- ./inp_files/144320.got.cif
#   From: 2010.05.17/outbox.cif.g08.bks.cpg/sg15_73_cif.got.tgz:144320.got - 2010.06.03 18:47:42.
