data_PCOD9285299
_publ_section_title
;
Structure prediction by ZEFSAII (Michael W. Deem and Ramdas Pophale) SiO2 
 PCOD9285299
Probable space group: C 2/C
;
_chemical_formula_sum "Si O2"
_cell_formula_units_Z 28
_cell_length_a 7.912006
_cell_length_b 13.821868
_cell_length_c 9.891918
_cell_angle_alpha 90.000000
_cell_angle_beta 113.460242
_cell_angle_gamma 90.000000
_cell_volume 992.344698
_symmetry_space_group_name_H-M "C 2/C"
_symmetry_group_IT_number 15
_symmetry_cell_setting 'monoclinic'
loop_
_space_group_symop_operation_xyz
x,y,z
-x,y,1/2-z
-x,-y,-z
x,-y,1/2+z
1/2+x,1/2+y,z
1/2-x,1/2+y,1/2-z
1/2-x,1/2-y,-z
1/2+x,1/2-y,1/2+z
loop_
_atom_site_type_symbol
_atom_site_label
_atom_site_fract_x
_atom_site_fract_y
_atom_site_fract_z
Si Si1 0.000000 0.008002 0.750000
Si Si2 0.845122 0.616471 0.393819
Si Si3 0.254888 0.864065 0.463784
Si Si4 0.298819 0.820184 0.175393
O O1 0.933169 0.074140 0.599178
O O2 0.825049 0.938482 0.727756
O O3 0.840585 0.731575 0.366459
O O4 0.800450 0.617672 0.540531
O O5 0.054612 0.589407 0.421809
O O6 0.250000 0.750000 0.500000
O O7 0.285369 0.872061 0.312240
O O8 0.500000 0.770884 0.250000
#
# Coordination Sequence:
#
# PCOD9285299 Si02
#       4
#     4   8   8   8
#     4  12  24  42  68 104 134 180 236 290 324 398
#     4  10  21  41  69  98 132 180 232 274 333 408
#     4  11  24  43  66  99 141 180 220 283 353 401
#     4   9  19  41  69  95 132 179 220 271 348 412
#
# _framework density 28.216003000000001
#
# number of rings (size 3 to 8) (size 9 to 14) (size 15 to 20)
#    0.000    1.714    1.429    2.571    0.000    1.143 
#    5.143    0.000    3.143    0.000    0.000    0.000 
#    0.000    0.000    0.000    0.000    0.000    0.000 
#
# Total GULP energy -78201.922373 kJ/mol
# GULP energy per Si atom -5585.851598 kJ/mol
# Density = 2.815178 g / cm^3
# Si number density = 28.216003 Si / 1000 Ang^3
#
#
#
# Elastic Constant Matrix: (Units=GPa)
#
#
# Indices 1 2 3 4 5 6 
#
# 1 115.2930 44.0300 57.5157 0.0000 70.6252 0.0000
# 2 44.0300 157.6194 19.3379 0.0000 41.1180 0.0000
# 3 57.5157 19.3379 132.7447 0.0000 36.1119 0.0000
# 4 0.0000 0.0000 0.0000 46.2791 0.0000 27.2019
# 5 70.6252 41.1180 36.1119 0.0000 61.0687 0.0000
# 6 0.0000 0.0000 0.0000 27.2019 0.0000 39.2955
#
#
#
# Elastic Compliance Matrix: (Units=1/GPa)
#
#
# Indices 1 2 3 4 5 6 
#
# 1 0.031922 0.000694 -0.004483 0.000000 -0.034733 0.000000
# 2 0.000694 0.007724 0.000247 0.000000 -0.006149 0.000000
# 3 -0.004483 0.000247 0.009622 0.000000 -0.000671 0.000000
# 4 0.000000 0.000000 0.000000 0.036431 0.000000 -0.025219
# 5 -0.034733 -0.006149 -0.000671 0.000000 0.061080 0.000000
# 6 0.000000 0.000000 0.000000 -0.025219 0.000000 0.042906
#
#
# Mechanical properties :
#
#
# Convention : Reuss Voigt Hill
#
# Bulk Modulus (GPa) = 23.70616 71.93605 47.82110
# Shear Modulus (GPa) = 23.71548 48.31356 36.01452
#
# Velocity S-wave (km/s) = 2.90228 4.14245 3.57653
# Velocity P-wave (km/s) = 4.43293 6.95917 5.83442
#
# Compressibility (1/GPa) = 0.04218313
#
# Stress axis : x y z
#
# Youngs Moduli (GPa) = 31.32685 129.45901 103.92326
#
# Poissons Ratio (x) = -0.08980 0.46592
# Poissons Ratio (y) = -0.02173 -0.02567
# Poissons Ratio (z) = 0.14045 -0.03198
#
# Static dielectric constant tensor:
#      x y z
#    x 2.374520 0.000000 0.152870 
#    y 0.000000 2.294240 0.000000 
#    z 0.152870 0.000000 2.312990 
# 
# From -- ./inp_files/75215.got.cif
#   From: 2010.05.17/outbox.cif.g08.bks.cpg/sg15_38_cif.got.tgz:75215.got - 2010.06.03 18:47:42.
