data_PCOD9285004
_publ_section_title
;
Structure prediction by ZEFSAII (Michael W. Deem and Ramdas Pophale) SiO2 
 PCOD9285004
Probable space group: C 2/C
;
_chemical_formula_sum "Si O2"
_cell_formula_units_Z 64
_cell_length_a 15.303844
_cell_length_b 12.126083
_cell_length_c 27.012562
_cell_angle_alpha 90.000000
_cell_angle_beta 41.343217
_cell_angle_gamma 90.000000
_cell_volume 3311.345285
_symmetry_space_group_name_H-M "C 2/C"
_symmetry_group_IT_number 15
_symmetry_cell_setting 'monoclinic'
loop_
_space_group_symop_operation_xyz
x,y,z
-x,y,1/2-z
-x,-y,-z
x,-y,1/2+z
1/2+x,1/2+y,z
1/2-x,1/2+y,1/2-z
1/2-x,1/2-y,-z
1/2+x,1/2-y,1/2+z
loop_
_atom_site_type_symbol
_atom_site_label
_atom_site_fract_x
_atom_site_fract_y
_atom_site_fract_z
Si Si1 0.757173 0.774527 0.680979
Si Si2 0.881277 0.560094 0.335603
Si Si3 0.552623 0.183672 0.346733
Si Si4 0.850365 0.064564 0.825181
Si Si5 0.400769 0.913321 0.567579
Si Si6 0.843246 0.151926 0.939297
Si Si7 0.064928 0.725548 0.539856
Si Si8 0.240177 0.572998 0.531041
O O1 0.713214 0.862167 0.657361
O O2 0.694068 0.812635 0.759674
O O3 0.686490 0.659091 0.698255
O O4 0.912107 0.751140 0.614414
O O5 0.808694 0.460794 0.393788
O O6 0.000000 0.521522 0.250000
O O7 0.952793 0.631513 0.348459
O O8 0.555707 0.115123 0.395615
O O9 0.491244 0.303232 0.385205
O O10 0.834069 0.125271 0.885020
O O11 0.000000 0.029103 0.750000
O O12 0.744570 0.966585 0.869404
O O13 0.410112 0.808703 0.527556
O O14 0.500000 0.000000 0.500000
O O15 0.750000 0.250000 0.000000
O O16 0.800062 0.039065 0.983384
O O17 0.120918 0.624421 0.549234
O O18 0.149514 0.833214 0.515876
#
# Coordination Sequence:
#
# PCOD9285004 Si02
#       8
#     8   8   8   8   8   8   8   8
#     4  11  22  42  64  95 135 167 215 281 332 392
#     4  10  21  41  66  93 128 170 214 266 327 389
#     4  11  23  40  65 100 129 164 218 272 333 384
#     4  12  22  40  67  96 132 169 221 282 332 388
#     4  12  24  42  68  99 127 175 228 273 326 401
#     4  12  21  38  71  97 119 168 222 266 320 390
#     4  11  26  44  64  91 138 174 216 274 332 396
#     4  11  24  45  64  93 130 179 217 265 336 393
#
# _framework density 19.327491999999999
#
# number of rings (size 3 to 8) (size 9 to 14) (size 15 to 20)
#    0.000    0.750    6.250    1.875    1.750    1.500 
#    2.250    0.000    0.000    0.000    0.000    0.000 
#    0.000    0.000    0.000    0.000    0.000    0.000 
#
# Total GULP energy -178787.757820 kJ/mol
# GULP energy per Si atom -5587.117432 kJ/mol
# Density = 1.928350 g / cm^3
# Si number density = 19.327492 Si / 1000 Ang^3
#
#
#
# Elastic Constant Matrix: (Units=GPa)
#
#
# Indices 1 2 3 4 5 6 
#
# 1 97.1311 44.1600 69.0181 0.0000 -1.0354 0.0000
# 2 44.1600 102.2696 56.3505 0.0000 -0.1336 0.0000
# 3 69.0181 56.3505 137.7119 0.0000 3.1221 0.0000
# 4 0.0000 0.0000 0.0000 22.3710 0.0000 -1.4515
# 5 -1.0354 -0.1336 3.1221 0.0000 38.0719 0.0000
# 6 0.0000 0.0000 0.0000 -1.4515 0.0000 21.7264
#
#
#
# Elastic Compliance Matrix: (Units=1/GPa)
#
#
# Indices 1 2 3 4 5 6 
#
# 1 0.016892 -0.003376 -0.007108 0.000000 0.001030 0.000000
# 2 -0.003376 0.013308 -0.003759 0.000000 0.000263 0.000000
# 3 -0.007108 -0.003759 0.012390 0.000000 -0.001223 0.000000
# 4 0.000000 0.000000 0.000000 0.044895 0.000000 0.002999
# 5 0.001030 0.000263 -0.001223 0.000000 0.026395 0.000000
# 6 0.000000 0.000000 0.000000 0.002999 0.000000 0.046227
#
#
# Mechanical properties :
#
#
# Convention : Reuss Voigt Hill
#
# Bulk Modulus (GPa) = 70.90741 75.13000 73.01870
# Shear Modulus (GPa) = 25.86733 27.60613 26.73673
#
# Velocity S-wave (km/s) = 3.66234 3.78343 3.72338
# Velocity P-wave (km/s) = 7.39261 7.61855 7.50643
#
# Compressibility (1/GPa) = 0.01410290
#
# Stress axis : x y z
#
# Youngs Moduli (GPa) = 59.20051 75.14491 80.71243
#
# Poissons Ratio (x) = 0.25371 0.57367
# Poissons Ratio (y) = 0.19987 0.30342
# Poissons Ratio (z) = 0.42077 0.28249
#
# Static dielectric constant tensor:
#      x y z
#    x 1.690740 0.000000 -0.000160 
#    y 0.000000 1.673690 0.000000 
#    z -0.000160 0.000000 1.694150 
# 
# From -- ./inp_files/296135.got.cif
#   From: 2010.05.17/outbox.cif.g08.bks.cpg/sg15_149_cif.got.tgz:296135.got - 2010.06.03 18:47:42.
