data_PCOD9285806
_publ_section_title
;
Structure prediction by ZEFSAII (Michael W. Deem and Ramdas Pophale) SiO2 
 PCOD9285806
Probable space group: C 2/C
;
_chemical_formula_sum "Si O2"
_cell_formula_units_Z 48
_cell_length_a 12.632827
_cell_length_b 33.328121
_cell_length_c 12.611928
_cell_angle_alpha 90.000000
_cell_angle_beta 156.219060
_cell_angle_gamma 90.000000
_cell_volume 2141.201013
_symmetry_space_group_name_H-M "C 2/C"
_symmetry_group_IT_number 15
_symmetry_cell_setting 'monoclinic'
loop_
_space_group_symop_operation_xyz
x,y,z
-x,y,1/2-z
-x,-y,-z
x,-y,1/2+z
1/2+x,1/2+y,z
1/2-x,1/2+y,1/2-z
1/2-x,1/2-y,-z
1/2+x,1/2-y,1/2+z
loop_
_atom_site_type_symbol
_atom_site_label
_atom_site_fract_x
_atom_site_fract_y
_atom_site_fract_z
Si Si1 0.111291 0.275561 0.153216
Si Si2 0.429342 0.920547 0.564881
Si Si3 0.013923 0.047290 0.998737
Si Si4 0.659403 0.148512 0.028880
Si Si5 0.841288 0.884934 0.468330
Si Si6 0.795283 0.673665 0.974584
O O1 0.396568 0.259811 0.447943
O O2 0.156704 0.299335 0.085039
O O3 0.960388 0.307555 0.089305
O O4 0.500000 0.934202 0.750000
O O5 0.368668 0.872937 0.520461
O O6 0.177670 0.939661 0.274066
O O7 0.695417 0.934915 0.750891
O O8 0.917221 0.069711 0.017471
O O9 0.000000 0.000000 0.000000
O O10 0.911788 0.143336 0.334138
O O11 0.410072 0.122800 0.834100
O O12 0.753432 0.129103 0.004264
O O13 0.000000 0.688712 0.250000
O O14 0.500000 0.675915 0.750000
#
# Coordination Sequence:
#
# PCOD9285806 Si02
#       6
#     8   8   8   8   8   8
#     4  12  25  40  62  97 137 172 222 293 349 396
#     4  11  24  45  69  97 133 179 227 276 334 429
#     4  12  24  42  68 103 138 173 220 289 357 400
#     4  10  22  42  65  91 126 182 227 268 335 418
#     4  10  21  42  67  90 125 172 235 268 318 418
#     4  11  23  41  68  93 127 183 235 277 344 414
#
# _framework density 22.417325000000002
#
# number of rings (size 3 to 8) (size 9 to 14) (size 15 to 20)
#    0.000    1.000    0.000    8.000    0.000    2.000 
#    9.000   10.000    0.000    0.000    0.000    0.000 
#    0.000    0.000    0.000    0.000    0.000    0.000 
#
# Total GULP energy -133951.110070 kJ/mol
# GULP energy per Si atom -5581.296253 kJ/mol
# Density = 2.236630 g / cm^3
# Si number density = 22.417325 Si / 1000 Ang^3
#
#
#
# Elastic Constant Matrix: (Units=GPa)
#
#
# Indices 1 2 3 4 5 6 
#
# 1 90.6550 36.4250 23.5566 0.0000 1.1282 0.0000
# 2 36.4250 111.1912 12.8743 0.0000 14.7949 0.0000
# 3 23.5566 12.8743 155.1340 0.0000 37.5134 0.0000
# 4 0.0000 0.0000 0.0000 21.9134 0.0000 -5.0014
# 5 1.1282 14.7949 37.5134 0.0000 33.9861 0.0000
# 6 0.0000 0.0000 0.0000 -5.0014 0.0000 28.6909
#
#
#
# Elastic Compliance Matrix: (Units=1/GPa)
#
#
# Indices 1 2 3 4 5 6 
#
# 1 0.013618 -0.004765 -0.002816 0.000000 0.004731 0.000000
# 2 -0.004765 0.011223 0.001276 0.000000 -0.006136 0.000000
# 3 -0.002816 0.001276 0.009384 0.000000 -0.010820 0.000000
# 4 0.000000 0.000000 0.000000 0.047525 0.000000 0.008284
# 5 0.004731 -0.006136 -0.010820 0.000000 0.043881 0.000000
# 6 0.000000 0.000000 0.000000 0.008284 0.000000 0.036298
#
#
# Mechanical properties :
#
#
# Convention : Reuss Voigt Hill
#
# Bulk Modulus (GPa) = 46.26404 55.85469 51.05937
# Shear Modulus (GPa) = 27.51107 35.85971 31.68539
#
# Velocity S-wave (km/s) = 3.50698 4.00389 3.76364
# Velocity P-wave (km/s) = 6.08941 6.80770 6.45855
#
# Compressibility (1/GPa) = 0.02161506
#
# Stress axis : x y z
#
# Youngs Moduli (GPa) = 73.43122 89.10268 106.56122
#
# Poissons Ratio (x) = 0.42453 0.30012
# Poissons Ratio (y) = 0.34987 -0.13595
# Poissons Ratio (z) = 0.20681 -0.11368
#
# Static dielectric constant tensor:
#      x y z
#    x 2.365290 0.000000 -0.396850 
#    y 0.000000 1.812670 0.000000 
#    z -0.396850 0.000000 2.201240 
# 
# From -- ./inp_files/157714.got.cif
#   From: 2010.05.17/outbox.cif.g08.bks.cpg/sg15_79_cif.got.tgz:157714.got - 2010.06.03 18:47:42.
