data_PCOD9285568
_publ_section_title
;
Structure prediction by ZEFSAII (Michael W. Deem and Ramdas Pophale) SiO2 
 PCOD9285568
Probable space group: C 2/C
;
_chemical_formula_sum "Si O2"
_cell_formula_units_Z 36
_cell_length_a 15.196610
_cell_length_b 11.399472
_cell_length_c 15.500724
_cell_angle_alpha 90.000000
_cell_angle_beta 43.374127
_cell_angle_gamma 90.000000
_cell_volume 1844.115056
_symmetry_space_group_name_H-M "C 2/C"
_symmetry_group_IT_number 15
_symmetry_cell_setting 'monoclinic'
loop_
_space_group_symop_operation_xyz
x,y,z
-x,y,1/2-z
-x,-y,-z
x,-y,1/2+z
1/2+x,1/2+y,z
1/2-x,1/2+y,1/2-z
1/2-x,1/2-y,-z
1/2+x,1/2-y,1/2+z
loop_
_atom_site_type_symbol
_atom_site_label
_atom_site_fract_x
_atom_site_fract_y
_atom_site_fract_z
Si Si1 0.000000 0.426030 0.750000
Si Si2 0.038486 0.824129 0.935632
Si Si3 0.166649 0.944262 0.294522
Si Si4 0.720687 0.748518 0.621661
Si Si5 0.035325 0.434953 0.385943
O O1 0.108003 0.341962 0.711654
O O2 0.962787 0.506398 0.857456
O O3 0.152248 0.788971 0.919842
O O4 0.005483 0.703173 0.911979
O O5 0.098481 0.929345 0.836173
O O6 0.920563 0.872098 0.075771
O O7 0.177734 0.872763 0.197136
O O8 0.310434 0.950264 0.230083
O O9 0.750000 0.750000 0.500000
O O10 0.000000 0.500000 0.500000
#
# Coordination Sequence:
#
# PCOD9285568 Si02
#       5
#     4   8   8   8   8
#     4  12  22  40  60  96 124 162 216 258 314 394
#     4  10  22  40  66  89 126 174 209 264 322 380
#     4  10  21  42  64  90 127 169 219 257 319 386
#     4  11  21  37  63  95 124 166 217 267 315 381
#     4  11  23  40  66  94 129 169 206 264 327 382
#
# _framework density 19.521559
#
# number of rings (size 3 to 8) (size 9 to 14) (size 15 to 20)
#    0.000    1.333    2.222    5.333    3.111    0.000 
#    0.000    6.667    0.000    0.000    0.000    0.000 
#    0.000    0.000    0.000    0.000    0.000    0.000 
#
# Total GULP energy -100513.601789 kJ/mol
# GULP energy per Si atom -5584.088988 kJ/mol
# Density = 1.947713 g / cm^3
# Si number density = 19.521559 Si / 1000 Ang^3
#
#
#
# Elastic Constant Matrix: (Units=GPa)
#
#
# Indices 1 2 3 4 5 6 
#
# 1 48.0987 13.4941 7.5717 0.0000 13.6979 0.0000
# 2 13.4941 132.3554 40.6397 0.0000 17.6753 0.0000
# 3 7.5717 40.6397 86.8007 0.0000 1.0990 0.0000
# 4 0.0000 0.0000 0.0000 33.3035 0.0000 10.8000
# 5 13.6979 17.6753 1.0990 0.0000 40.3502 0.0000
# 6 0.0000 0.0000 0.0000 10.8000 0.0000 35.5407
#
#
#
# Elastic Compliance Matrix: (Units=1/GPa)
#
#
# Indices 1 2 3 4 5 6 
#
# 1 0.023426 -0.000920 -0.001518 0.000000 -0.007508 0.000000
# 2 -0.000920 0.009468 -0.004305 0.000000 -0.003718 0.000000
# 3 -0.001518 -0.004305 0.013643 0.000000 0.002030 0.000000
# 4 0.000000 0.000000 0.000000 0.033309 0.000000 -0.010122
# 5 -0.007508 -0.003718 0.002030 0.000000 0.028905 0.000000
# 6 0.000000 0.000000 0.000000 -0.010122 0.000000 0.031213
#
#
# Mechanical properties :
#
#
# Convention : Reuss Voigt Hill
#
# Bulk Modulus (GPa) = 30.25641 43.40731 36.83186
# Shear Modulus (GPa) = 30.40134 35.54216 32.97175
#
# Velocity S-wave (km/s) = 3.95057 4.27155 4.11419
# Velocity P-wave (km/s) = 6.02843 6.82730 6.44026
#
# Compressibility (1/GPa) = 0.03305085
#
# Stress axis : x y z
#
# Youngs Moduli (GPa) = 42.68796 105.62293 73.29693
#
# Poissons Ratio (x) = 0.09713 0.11125
# Poissons Ratio (y) = 0.03926 0.31557
# Poissons Ratio (z) = 0.06479 0.45475
#
# Static dielectric constant tensor:
#      x y z
#    x 1.654580 0.000000 -0.025210 
#    y 0.000000 1.722480 0.000000 
#    z -0.025210 0.000000 1.742410 
# 
# From -- ./inp_files/94325.got.cif
#   From: 2010.05.17/outbox.cif.g08.bks.cpg/sg15_48_cif.got.tgz:94325.got - 2010.06.03 18:47:42.
