data_PCOD9285043
_publ_section_title
;
Structure prediction by ZEFSAII (Michael W. Deem and Ramdas Pophale) SiO2 
 PCOD9285043
Probable space group: C 2/C
;
_chemical_formula_sum "Si O2"
_cell_formula_units_Z 56
_cell_length_a 8.938726
_cell_length_b 17.532533
_cell_length_c 28.009561
_cell_angle_alpha 90.000000
_cell_angle_beta 147.283631
_cell_angle_gamma 90.000000
_cell_volume 2372.503120
_symmetry_space_group_name_H-M "C 2/C"
_symmetry_group_IT_number 15
_symmetry_cell_setting 'monoclinic'
loop_
_space_group_symop_operation_xyz
x,y,z
-x,y,1/2-z
-x,-y,-z
x,-y,1/2+z
1/2+x,1/2+y,z
1/2-x,1/2+y,1/2-z
1/2-x,1/2-y,-z
1/2+x,1/2-y,1/2+z
loop_
_atom_site_type_symbol
_atom_site_label
_atom_site_fract_x
_atom_site_fract_y
_atom_site_fract_z
Si Si1 0.281493 0.628488 0.481766
Si Si2 0.441466 0.729559 0.874453
Si Si3 0.372425 0.013360 0.415268
Si Si4 0.661129 0.102368 0.669111
Si Si5 0.146086 0.923598 0.683421
Si Si6 0.308449 0.972448 0.627379
Si Si7 0.962869 0.756407 0.821112
O O1 0.465289 0.648474 0.577745
O O2 0.362745 0.570976 0.460603
O O3 0.196627 0.711696 0.439974
O O4 0.010992 0.584821 0.427078
O O5 0.287881 0.733612 0.782674
O O6 0.224891 0.758236 0.856270
O O7 0.051489 0.031684 0.333522
O O8 0.500000 0.000000 0.500000
O O9 0.439501 0.937747 0.405252
O O10 0.542700 0.185851 0.644803
O O11 0.000000 0.104406 0.750000
O O12 0.491231 0.047910 0.662366
O O13 0.143496 0.971241 0.633191
O O14 0.442086 0.917264 0.788512
O O15 0.052678 0.836151 0.655523
#
# Coordination Sequence:
#
# PCOD9285043 Si02
#       7
#     8   8   8   8   8   8   8
#     4  10  21  41  66  97 131 177 221 277 335 408
#     4  10  22  39  67  97 135 171 226 276 344 392
#     4  11  25  44  69  98 135 184 223 281 339 410
#     4  11  25  43  66  97 138 171 228 280 339 394
#     4  11  22  43  69 100 132 177 236 264 343 408
#     4  10  23  41  69  94 133 182 221 277 333 411
#     4  11  24  41  69 102 133 179 224 292 329 406
#
# _framework density 23.603763000000001
#
# number of rings (size 3 to 8) (size 9 to 14) (size 15 to 20)
#    0.000    1.429    4.286    0.000    4.000    4.571 
#    2.571    4.286    0.000    0.000    0.000    0.000 
#    0.000    0.000    0.000    0.000    0.000    0.000 
#
# Total GULP energy -156086.495799 kJ/mol
# GULP energy per Si atom -5574.517707 kJ/mol
# Density = 2.355004 g / cm^3
# Si number density = 23.603763 Si / 1000 Ang^3
#
#
#
# Elastic Constant Matrix: (Units=GPa)
#
#
# Indices 1 2 3 4 5 6 
#
# 1 84.9406 40.5682 1.6545 0.0000 -10.9681 0.0004
# 2 40.5682 139.0869 -3.0979 -0.0002 -8.4972 0.0005
# 3 1.6545 -3.0979 23.6177 -0.0008 4.7943 0.0015
# 4 0.0000 -0.0002 -0.0008 22.5876 -0.0004 14.1355
# 5 -10.9681 -8.4972 4.7943 -0.0004 22.8968 0.0002
# 6 0.0004 0.0005 0.0015 14.1355 0.0002 4.2330
#
#
#
# Elastic Compliance Matrix: (Units=1/GPa)
#
#
# Indices 1 2 3 4 5 6 
#
# 1 0.014479 -0.003914 -0.002758 0.000000 0.006061 0.000000
# 2 -0.003914 0.008419 0.001175 -0.000001 0.001003 0.000001
# 3 -0.002758 0.001175 0.044771 -0.000010 -0.010260 0.000018
# 4 0.000000 -0.000001 -0.000010 -0.040625 0.000000 0.135660
# 5 0.006061 0.001003 -0.010260 0.000000 0.049098 0.000001
# 6 0.000000 0.000001 0.000018 0.135660 0.000001 -0.216777
#
#
# Mechanical properties :
#
#
# Convention : Reuss Voigt Hill
#
# Bulk Modulus (GPa) = 17.64477 36.21053 26.92765
# Shear Modulus (GPa) = -45.14730 23.84485 -10.65123
#
# Velocity S-wave (km/s) = -4.37821 3.18183 -2.12657
# Velocity P-wave (km/s) = 4.25048 5.37337 2.32448
#
# Compressibility (1/GPa) = 0.05667401
#
# Stress axis : x y z
#
# Youngs Moduli (GPa) = 69.06696 118.78036 22.33580
#
# Poissons Ratio (x) = 0.46494 0.06160
# Poissons Ratio (y) = 0.27035 -0.02624
# Poissons Ratio (z) = 0.19048 -0.13955
#
# Static dielectric constant tensor:
#      x y z
#    x 1.910090 0.000000 0.068390 
#    y 0.000000 1.885240 0.000000 
#    z 0.068390 0.000000 1.933630 
# 
# From -- ./inp_files/232597.got.cif
#   From: 2010.05.17/outbox.cif.g08.bks.cpg/sg15_117_cif.got.tgz:232597.got - 2010.06.03 18:47:42.
