data_PCOD9285697
_publ_section_title
;
Structure prediction by ZEFSAII (Michael W. Deem and Ramdas Pophale) SiO2 
 PCOD9285697
Probable space group: C 2/C
;
_chemical_formula_sum "Si O2"
_cell_formula_units_Z 52
_cell_length_a 5.264653
_cell_length_b 24.967174
_cell_length_c 19.514671
_cell_angle_alpha 90.000000
_cell_angle_beta 62.907879
_cell_angle_gamma 90.000000
_cell_volume 2283.624881
_symmetry_space_group_name_H-M "C 2/C"
_symmetry_group_IT_number 15
_symmetry_cell_setting 'monoclinic'
loop_
_space_group_symop_operation_xyz
x,y,z
-x,y,1/2-z
-x,-y,-z
x,-y,1/2+z
1/2+x,1/2+y,z
1/2-x,1/2+y,1/2-z
1/2-x,1/2-y,-z
1/2+x,1/2-y,1/2+z
loop_
_atom_site_type_symbol
_atom_site_label
_atom_site_fract_x
_atom_site_fract_y
_atom_site_fract_z
Si Si1 0.065548 0.606807 0.056001
Si Si2 0.275458 0.376442 0.032096
Si Si3 0.482202 0.197517 0.334693
Si Si4 0.689587 0.805011 0.356247
Si Si5 0.500000 0.393008 0.250000
Si Si6 0.703086 0.006384 0.580088
Si Si7 0.000000 0.466196 0.250000
Si Si8 0.500000 0.246789 0.750000
O O1 0.074565 0.641539 0.123780
O O2 0.024534 0.543668 0.073414
O O3 0.391246 0.618079 0.990508
O O4 0.816921 0.626631 0.036255
O O5 0.127995 0.432287 0.073085
O O6 0.119100 0.325969 0.084379
O O7 0.500000 0.192463 0.250000
O O8 0.287541 0.249117 0.377919
O O9 0.795617 0.216269 0.319099
O O10 0.676216 0.789827 0.278066
O O11 0.894034 0.856569 0.327556
O O12 0.758409 0.429446 0.244790
O O13 0.664788 0.002691 0.667629
O O14 0.000000 0.000000 0.500000
#
# Coordination Sequence:
#
# PCOD9285697 Si02
#       8
#     8   8   8   8   4   8   4   4
#     4  11  27  46  67  97 139 190 225 281 351 421
#     4  11  26  43  72  98 136 182 227 294 353 406
#     4  10  24  42  67  95 137 181 232 283 345 417
#     4  11  23  39  70  99 138 173 231 294 352 409
#     4  12  24  40  70 108 134 170 240 286 354 414
#     4  10  25  48  73 102 147 179 238 291 357 408
#     4  12  27  42  75 108 133 188 235 290 350 432
#     4  10  21  42  65  98 135 182 217 306 332 410
#
# _framework density 22.770814000000001
#
# number of rings (size 3 to 8) (size 9 to 14) (size 15 to 20)
#    0.000    1.231    3.846    0.923   11.846    3.692 
#    0.000    0.769    0.000    0.000    0.000    0.000 
#    0.000    0.000    0.000    0.000    0.000    0.000 
#
# Total GULP energy -144870.307712 kJ/mol
# GULP energy per Si atom -5571.934912 kJ/mol
# Density = 2.271899 g / cm^3
# Si number density = 22.770814 Si / 1000 Ang^3
#
#
#
# Elastic Constant Matrix: (Units=GPa)
#
#
# Indices 1 2 3 4 5 6 
#
# 1 69.4731 -4.6468 1.8679 0.0000 -1.7085 0.0000
# 2 -4.6468 52.0333 15.3111 0.0000 -7.6017 0.0000
# 3 1.8679 15.3111 89.8712 0.0000 9.1270 0.0000
# 4 0.0000 0.0000 0.0000 32.6387 0.0000 2.6409
# 5 -1.7085 -7.6017 9.1270 0.0000 21.5620 0.0000
# 6 0.0000 0.0000 0.0000 2.6409 0.0000 18.3959
#
#
#
# Elastic Compliance Matrix: (Units=1/GPa)
#
#
# Indices 1 2 3 4 5 6 
#
# 1 0.014595 0.001869 -0.000842 0.000000 0.002172 0.000000
# 2 0.001869 0.022284 -0.004857 0.000000 0.010060 0.000000
# 3 -0.000842 -0.004857 0.012699 0.000000 -0.007154 0.000000
# 4 0.000000 0.000000 0.000000 0.030999 0.000000 -0.004450
# 5 0.002172 0.010060 -0.007154 0.000000 0.053125 0.000000
# 6 0.000000 0.000000 0.000000 -0.004450 0.000000 0.054999
#
#
# Mechanical properties :
#
#
# Convention : Reuss Voigt Hill
#
# Bulk Modulus (GPa) = 23.85698 26.27132 25.06415
# Shear Modulus (GPa) = 23.77173 27.77569 25.77371
#
# Velocity S-wave (km/s) = 3.23454 3.49634 3.36798
# Velocity P-wave (km/s) = 4.94463 5.27840 5.11424
#
# Compressibility (1/GPa) = 0.04191646
#
# Stress axis : x y z
#
# Youngs Moduli (GPa) = 68.51616 44.87465 78.74896
#
# Poissons Ratio (x) = -0.08385 0.06632
# Poissons Ratio (y) = -0.12802 0.38249
# Poissons Ratio (z) = 0.05771 0.21796
#
# Static dielectric constant tensor:
#      x y z
#    x 1.884430 0.000000 -0.028860 
#    y 0.000000 1.840790 0.000000 
#    z -0.028860 0.000000 1.954460 
# 
# From -- ./inp_files/228069.got.cif
#   From: 2010.05.17/outbox.cif.g08.bks.cpg/sg15_115_cif.got.tgz:228069.got - 2010.06.03 18:47:42.
