data_PCOD9285951
_publ_section_title
;
Structure prediction by ZEFSAII (Michael W. Deem and Ramdas Pophale) SiO2 
 PCOD9285951
Probable space group: C 2/C
;
_chemical_formula_sum "Si O2"
_cell_formula_units_Z 64
_cell_length_a 16.578390
_cell_length_b 7.490507
_cell_length_c 23.630602
_cell_angle_alpha 90.000000
_cell_angle_beta 99.127725
_cell_angle_gamma 90.000000
_cell_volume 2897.302455
_symmetry_space_group_name_H-M "C 2/C"
_symmetry_group_IT_number 15
_symmetry_cell_setting 'monoclinic'
loop_
_space_group_symop_operation_xyz
x,y,z
-x,y,1/2-z
-x,-y,-z
x,-y,1/2+z
1/2+x,1/2+y,z
1/2-x,1/2+y,1/2-z
1/2-x,1/2-y,-z
1/2+x,1/2-y,1/2+z
loop_
_atom_site_type_symbol
_atom_site_label
_atom_site_fract_x
_atom_site_fract_y
_atom_site_fract_z
Si Si1 0.232502 0.535466 0.939643
Si Si2 0.042296 0.545148 0.443183
Si Si3 0.190063 0.692551 0.226885
Si Si4 0.764627 0.911814 0.162808
Si Si5 0.323771 0.426691 0.564582
Si Si6 0.652005 0.462179 0.648985
Si Si7 0.090915 0.410563 0.158254
Si Si8 0.010234 0.039094 0.936361
O O1 0.138908 0.494722 0.946959
O O2 0.227666 0.749190 0.927422
O O3 0.274746 0.443760 0.889832
O O4 0.289799 0.504960 0.000843
O O5 0.036163 0.756867 0.433331
O O6 0.000000 0.500000 0.500000
O O7 0.987823 0.454145 0.387111
O O8 0.213165 0.750138 0.292725
O O9 0.262962 0.584773 0.204120
O O10 0.113927 0.554736 0.209631
O O11 0.173876 0.873384 0.191410
O O12 0.672078 0.927596 0.127913
O O13 0.818249 0.933125 0.114542
O O14 0.420429 0.397690 0.573239
O O15 0.611590 0.292735 0.677990
O O16 0.575006 0.518360 0.603203
O O17 0.000000 0.000000 0.000000
#
# Coordination Sequence:
#
# PCOD9285951 Si02
#       8
#     8   8   8   8   8   8   8   8
#     4  11  24  40  71 106 149 182 235 290 356 446
#     4  12  25  41  63 102 148 188 228 289 354 432
#     4  10  22  42  69 102 136 184 240 295 346 422
#     4  10  21  42  69 100 138 185 239 292 350 417
#     4  11  23  41  68 107 145 189 238 289 356 439
#     4  12  22  44  71 104 139 190 234 290 363 425
#     4  10  23  41  68  98 138 180 233 286 354 415
#     4  12  24  42  66  99 148 190 231 287 366 426
#
# _framework density 22.089511999999999
#
# number of rings (size 3 to 8) (size 9 to 14) (size 15 to 20)
#    0.750    0.250    3.750    3.750    3.500    0.500 
#    0.000    0.625    0.000    2.250    0.000    0.000 
#    0.000    0.000    0.000    0.000    0.000    0.000 
#
# Total GULP energy -178233.543793 kJ/mol
# GULP energy per Si atom -5569.798244 kJ/mol
# Density = 2.203924 g / cm^3
# Si number density = 22.089512 Si / 1000 Ang^3
#
#
#
# Elastic Constant Matrix: (Units=GPa)
#
#
# Indices 1 2 3 4 5 6 
#
# 1 108.4834 16.7856 44.7792 0.0000 16.5157 0.0000
# 2 16.7856 124.7023 44.9303 0.0000 6.2079 0.0000
# 3 44.7792 44.9303 119.9961 0.0000 19.4835 0.0000
# 4 0.0000 0.0000 0.0000 37.6477 0.0000 4.4829
# 5 16.5157 6.2079 19.4835 0.0000 20.1179 0.0000
# 6 0.0000 0.0000 0.0000 4.4829 0.0000 33.7099
#
#
#
# Elastic Compliance Matrix: (Units=1/GPa)
#
#
# Indices 1 2 3 4 5 6 
#
# 1 0.011530 -0.000065 -0.003257 0.000000 -0.006291 0.000000
# 2 -0.000065 0.009276 -0.003551 0.000000 0.000631 0.000000
# 3 -0.003257 -0.003551 0.012182 0.000000 -0.008029 0.000000
# 4 0.000000 0.000000 0.000000 0.026989 0.000000 -0.003589
# 5 -0.006291 0.000631 -0.008029 0.000000 0.062453 0.000000
# 6 0.000000 0.000000 0.000000 -0.003589 0.000000 0.030142
#
#
# Mechanical properties :
#
#
# Convention : Reuss Voigt Hill
#
# Bulk Modulus (GPa) = 51.97040 62.90801 57.43921
# Shear Modulus (GPa) = 28.94632 34.74087 31.84360
#
# Velocity S-wave (km/s) = 3.62389 3.97007 3.80092
# Velocity P-wave (km/s) = 6.41002 7.03959 6.73217
#
# Compressibility (1/GPa) = 0.01924172
#
# Stress axis : x y z
#
# Youngs Moduli (GPa) = 86.72844 107.80495 82.08709
#
# Poissons Ratio (x) = 0.00705 0.26734
# Poissons Ratio (y) = 0.00567 0.29151
# Poissons Ratio (z) = 0.28245 0.38284
#
# Static dielectric constant tensor:
#      x y z
#    x 1.975760 0.000000 0.109760 
#    y 0.000000 1.900590 0.000000 
#    z 0.109760 0.000000 1.807830 
# 
# From -- ./inp_files/295173.got.cif
#   From: 2010.05.17/outbox.cif.g08.bks.cpg/sg15_148_cif.got.tgz:295173.got - 2010.06.03 18:47:42.
