data_PCOD9285033
_publ_section_title
;
Structure prediction by ZEFSAII (Michael W. Deem and Ramdas Pophale) SiO2 
 PCOD9285033
Probable space group: C 2/C
;
_chemical_formula_sum "Si O2"
_cell_formula_units_Z 40
_cell_length_a 5.619312
_cell_length_b 17.297917
_cell_length_c 18.197346
_cell_angle_alpha 90.000000
_cell_angle_beta 97.495186
_cell_angle_gamma 90.000000
_cell_volume 1753.712414
_symmetry_space_group_name_H-M "C 2/C"
_symmetry_group_IT_number 15
_symmetry_cell_setting 'monoclinic'
loop_
_space_group_symop_operation_xyz
x,y,z
-x,y,1/2-z
-x,-y,-z
x,-y,1/2+z
1/2+x,1/2+y,z
1/2-x,1/2+y,1/2-z
1/2-x,1/2-y,-z
1/2+x,1/2-y,1/2+z
loop_
_atom_site_type_symbol
_atom_site_label
_atom_site_fract_x
_atom_site_fract_y
_atom_site_fract_z
Si Si1 0.231565 0.602749 0.204209
Si Si2 0.868730 0.789503 0.167714
Si Si3 0.953446 0.200351 0.092680
Si Si4 0.711119 0.354868 0.056904
Si Si5 0.054554 0.444077 0.165842
O O1 0.500000 0.592902 0.250000
O O2 0.272744 0.673993 0.149912
O O3 0.184687 0.524654 0.155136
O O4 0.000000 0.610093 0.250000
O O5 0.710217 0.715208 0.139739
O O6 0.701823 0.864877 0.171118
O O7 0.000000 0.778872 0.250000
O O8 0.036478 0.817536 0.109257
O O9 0.903935 0.285065 0.055213
O O10 0.924861 0.139217 0.025827
O O11 0.837045 0.427607 0.100687
O O12 0.000000 0.451839 0.250000
#
# Coordination Sequence:
#
# PCOD9285033 Si02
#       5
#     8   8   8   8   8
#     4  11  27  45  69 100 143 183 237 293 354 416
#     4  11  21  37  71  97 134 182 238 286 346 418
#     4  10  25  41  61 103 136 179 223 295 358 413
#     4  10  22  42  66  94 139 177 234 284 352 418
#     4  10  21  41  66  96 130 184 239 287 338 422
#
# _framework density 22.808754
#
# number of rings (size 3 to 8) (size 9 to 14) (size 15 to 20)
#    0.000    1.600    2.000    1.200    8.400    0.800 
#    0.000    1.000    0.000    0.000    0.000    0.000 
#    0.000    0.000    0.000    0.000    0.000    0.000 
#
# Total GULP energy -111516.364984 kJ/mol
# GULP energy per Si atom -5575.818249 kJ/mol
# Density = 2.275684 g / cm^3
# Si number density = 22.808754 Si / 1000 Ang^3
#
#
#
# Elastic Constant Matrix: (Units=GPa)
#
#
# Indices 1 2 3 4 5 6 
#
# 1 93.3903 20.3475 57.7142 0.0000 20.5066 0.0000
# 2 20.3475 85.9158 18.9213 0.0000 21.1601 0.0000
# 3 57.7142 18.9213 115.6576 0.0000 6.3025 0.0000
# 4 0.0000 0.0000 0.0000 5.6051 0.0000 -4.1397
# 5 20.5066 21.1601 6.3025 0.0000 23.4706 0.0000
# 6 0.0000 0.0000 0.0000 -4.1397 0.0000 35.0831
#
#
#
# Elastic Compliance Matrix: (Units=1/GPa)
#
#
# Indices 1 2 3 4 5 6 
#
# 1 0.019498 0.001256 -0.009078 0.000000 -0.015730 0.000000
# 2 0.001256 0.015395 -0.002364 0.000000 -0.014342 0.000000
# 3 -0.009078 -0.002364 0.013208 0.000000 0.006516 0.000000
# 4 0.000000 0.000000 0.000000 0.195441 0.000000 0.023062
# 5 -0.015730 -0.014342 0.006516 0.000000 0.067530 0.000000
# 6 0.000000 0.000000 0.000000 0.023062 0.000000 0.031225
#
#
# Mechanical properties :
#
#
# Convention : Reuss Voigt Hill
#
# Bulk Modulus (GPa) = 36.06356 54.32552 45.19454
# Shear Modulus (GPa) = 13.44403 26.03047 19.73725
#
# Velocity S-wave (km/s) = 2.43044 3.38190 2.94485
# Velocity P-wave (km/s) = 4.87049 6.25454 5.60539
#
# Compressibility (1/GPa) = 0.02772882
#
# Stress axis : x y z
#
# Youngs Moduli (GPa) = 51.28615 64.95782 75.71228
#
# Poissons Ratio (x) = -0.08157 0.68733
# Poissons Ratio (y) = -0.06440 0.17895
# Poissons Ratio (z) = 0.46558 0.15353
#
# Static dielectric constant tensor:
#      x y z
#    x 1.992500 0.000000 0.037500 
#    y 0.000000 1.892890 0.000000 
#    z 0.037500 0.000000 1.877610 
# 
# From -- ./inp_files/184227.got.cif
#   From: 2010.05.17/outbox.cif.g08.bks.cpg/sg15_93_cif.got.tgz:184227.got - 2010.06.03 18:47:42.
