data_PCOD9285099
_publ_section_title
;
Structure prediction by ZEFSAII (Michael W. Deem and Ramdas Pophale) SiO2 
 PCOD9285099
Probable space group: C 2/C
;
_chemical_formula_sum "Si O2"
_cell_formula_units_Z 48
_cell_length_a 25.204924
_cell_length_b 13.229644
_cell_length_c 8.600582
_cell_angle_alpha 90.000000
_cell_angle_beta 136.072291
_cell_angle_gamma 90.000000
_cell_volume 1989.594271
_symmetry_space_group_name_H-M "C 2/C"
_symmetry_group_IT_number 15
_symmetry_cell_setting 'monoclinic'
loop_
_space_group_symop_operation_xyz
x,y,z
-x,y,1/2-z
-x,-y,-z
x,-y,1/2+z
1/2+x,1/2+y,z
1/2-x,1/2+y,1/2-z
1/2-x,1/2-y,-z
1/2+x,1/2-y,1/2+z
loop_
_atom_site_type_symbol
_atom_site_label
_atom_site_fract_x
_atom_site_fract_y
_atom_site_fract_z
Si Si1 0.873630 0.785061 0.178491
Si Si2 0.914291 0.030967 0.581564
Si Si3 0.170583 0.882423 0.890460
Si Si4 0.293053 0.210525 0.312542
Si Si5 0.573223 0.915331 0.809295
Si Si6 0.824949 0.490159 0.233306
O O1 0.797227 0.777650 0.910178
O O2 0.911315 0.890480 0.218860
O O3 0.839673 0.769216 0.276773
O O4 0.934288 0.696476 0.273925
O O5 0.887589 0.093485 0.372791
O O6 0.000000 0.991633 0.750000
O O7 0.857271 0.943987 0.516120
O O8 0.183448 0.767372 0.977898
O O9 0.248497 0.940667 0.005046
O O10 0.309567 0.093660 0.298184
O O11 0.500000 0.951817 0.750000
O O12 0.608733 0.984862 0.750347
O O13 0.641062 0.910759 0.076178
#
# Coordination Sequence:
#
# PCOD9285099 Si02
#       6
#     8   8   8   8   8   8
#     4  10  21  41  67  91 134 173 221 277 335 390
#     4  12  26  43  66  99 137 177 224 278 341 400
#     4  12  24  43  70 100 135 180 228 279 333 403
#     4  10  22  41  68  99 129 171 227 281 325 397
#     4  11  23  41  64  95 135 177 217 276 338 395
#     4  11  23  41  67  99 133 176 226 276 330 400
#
# _framework density 24.125523000000001
#
# number of rings (size 3 to 8) (size 9 to 14) (size 15 to 20)
#    0.000    1.000    3.333    3.500    2.333    2.000 
#    0.000    4.167    0.000    0.000    0.000    0.000 
#    0.000    0.000    0.000    0.000    0.000    0.000 
#
# Total GULP energy -134113.945374 kJ/mol
# GULP energy per Si atom -5588.081057 kJ/mol
# Density = 2.407061 g / cm^3
# Si number density = 24.125523 Si / 1000 Ang^3
#
#
#
# Elastic Constant Matrix: (Units=GPa)
#
#
# Indices 1 2 3 4 5 6 
#
# 1 117.0381 40.5212 9.8946 0.0000 2.6811 0.0000
# 2 40.5212 78.2295 -5.4068 0.0000 -1.3357 0.0000
# 3 9.8946 -5.4068 57.4210 0.0000 -10.4471 0.0000
# 4 0.0000 0.0000 0.0000 17.8233 0.0000 -25.7447
# 5 2.6811 -1.3357 -10.4471 0.0000 17.3550 0.0000
# 6 0.0000 0.0000 0.0000 -25.7447 0.0000 -28.4414
#
#
#
# Elastic Compliance Matrix: (Units=1/GPa)
#
#
# Indices 1 2 3 4 5 6 
#
# 1 0.010977 -0.005977 -0.003197 0.000000 -0.004080 0.000000
# 2 -0.005977 0.016178 0.003310 0.000000 0.004161 0.000000
# 3 -0.003197 0.003310 0.020679 0.000000 0.013196 0.000000
# 4 0.000000 0.000000 0.000000 0.024315 0.000000 -0.022010
# 5 -0.004080 0.004161 0.013196 0.000000 0.066515 0.000000
# 6 0.000000 0.000000 0.000000 -0.022010 0.000000 -0.015237
#
#
# Mechanical properties :
#
#
# Convention : Reuss Voigt Hill
#
# Bulk Modulus (GPa) = 27.69427 38.07852 32.88639
# Shear Modulus (GPa) = 33.97010 15.19268 24.58139
#
# Velocity S-wave (km/s) = 3.75648 2.51217 3.19548
# Velocity P-wave (km/s) = 5.50627 4.92265 5.22262
#
# Compressibility (1/GPa) = 0.03610855
#
# Stress axis : x y z
#
# Youngs Moduli (GPa) = 91.09836 61.81063 48.35902
#
# Poissons Ratio (x) = 0.36941 0.15459
# Poissons Ratio (y) = 0.54445 -0.16008
# Poissons Ratio (z) = 0.29121 -0.20461
#
# Static dielectric constant tensor:
#      x y z
#    x 1.926180 0.000000 -0.056770 
#    y 0.000000 1.930200 0.000000 
#    z -0.056770 0.000000 1.923980 
# 
# From -- ./inp_files/66478.got.cif
#   From: 2010.05.17/outbox.cif.g08.bks.cpg/sg15_34_cif.got.tgz:66478.got - 2010.06.03 18:47:42.
