data_PCOD9285867
_publ_section_title
;
Structure prediction by ZEFSAII (Michael W. Deem and Ramdas Pophale) SiO2 
 PCOD9285867
Probable space group: C 2/C
;
_chemical_formula_sum "Si O2"
_cell_formula_units_Z 60
_cell_length_a 25.237891
_cell_length_b 12.106676
_cell_length_c 20.594507
_cell_angle_alpha 90.000000
_cell_angle_beta 153.903943
_cell_angle_gamma 90.000000
_cell_volume 2767.967574
_symmetry_space_group_name_H-M "C 2/C"
_symmetry_group_IT_number 15
_symmetry_cell_setting 'monoclinic'
loop_
_space_group_symop_operation_xyz
x,y,z
-x,y,1/2-z
-x,-y,-z
x,-y,1/2+z
1/2+x,1/2+y,z
1/2-x,1/2+y,1/2-z
1/2-x,1/2-y,-z
1/2+x,1/2-y,1/2+z
loop_
_atom_site_type_symbol
_atom_site_label
_atom_site_fract_x
_atom_site_fract_y
_atom_site_fract_z
Si Si1 0.761763 0.121414 0.496858
Si Si2 0.175005 0.663862 0.604997
Si Si3 0.341215 0.091993 0.770551
Si Si4 0.330360 0.275265 0.653822
Si Si5 0.992709 0.525757 0.333810
Si Si6 0.133089 0.021656 0.756589
Si Si7 0.500000 0.159707 0.750000
Si Si8 0.358372 0.587755 0.463414
O O1 0.750000 0.250000 0.500000
O O2 0.631321 0.068878 0.335114
O O3 0.821474 0.069384 0.625148
O O4 0.845204 0.098087 0.526690
O O5 0.129681 0.639228 0.627344
O O6 0.288376 0.586218 0.711209
O O7 0.189056 0.794563 0.614577
O O8 0.076034 0.627465 0.443026
O O9 0.298085 0.185324 0.672412
O O10 0.451597 0.033146 0.855085
O O11 0.234641 0.004873 0.661011
O O12 0.250000 0.250000 0.500000
O O13 0.343290 0.391162 0.705197
O O14 0.454535 0.240598 0.756174
O O15 0.059862 0.433739 0.363567
O O16 0.993467 0.053838 0.593340
#
# Coordination Sequence:
#
# PCOD9285867 Si02
#       8
#     8   8   8   8   8   8   4   8
#     4  11  21  41  67 103 135 176 222 284 347 417
#     4  12  25  45  70  96 139 188 235 287 347 428
#     4  10  26  47  67  98 136 186 233 290 349 421
#     4  11  24  44  70 102 136 173 230 287 353 414
#     4  10  21  42  67  99 134 180 233 284 347 418
#     4  12  26  43  70 107 139 185 230 287 363 415
#     4  10  22  38  64 100 132 168 222 286 344 406
#     4  11  26  45  67 101 143 178 230 295 350 420
#
# _framework density 21.676553999999999
#
# number of rings (size 3 to 8) (size 9 to 14) (size 15 to 20)
#    0.000    1.067    1.333    5.600    7.467    0.533 
#    0.000    0.000    0.000    0.000    0.000    0.000 
#    0.000    0.000    0.000    0.000    0.000    0.000 
#
# Total GULP energy -167351.178807 kJ/mol
# GULP energy per Si atom -5578.372627 kJ/mol
# Density = 2.162722 g / cm^3
# Si number density = 21.676554 Si / 1000 Ang^3
#
#
#
# Elastic Constant Matrix: (Units=GPa)
#
#
# Indices 1 2 3 4 5 6 
#
# 1 78.2022 27.2025 9.2906 0.0000 1.1387 0.0000
# 2 27.2025 163.2081 20.4433 0.0000 6.6093 0.0000
# 3 9.2906 20.4433 28.2585 0.0000 13.5154 0.0000
# 4 0.0000 0.0000 0.0000 9.9131 0.0000 1.8345
# 5 1.1387 6.6093 13.5154 0.0000 32.0654 0.0000
# 6 0.0000 0.0000 0.0000 1.8345 0.0000 24.6685
#
#
#
# Elastic Compliance Matrix: (Units=1/GPa)
#
#
# Indices 1 2 3 4 5 6 
#
# 1 0.013889 -0.001883 -0.003950 0.000000 0.001560 0.000000
# 2 -0.001883 0.007011 -0.004751 0.000000 0.000625 0.000000
# 3 -0.003950 -0.004751 0.049584 0.000000 -0.019780 0.000000
# 4 0.000000 0.000000 0.000000 0.102284 0.000000 -0.007607
# 5 0.001560 0.000625 -0.019780 0.000000 0.039339 0.000000
# 6 0.000000 0.000000 0.000000 -0.007607 0.000000 0.041103
#
#
# Mechanical properties :
#
#
# Convention : Reuss Voigt Hill
#
# Bulk Modulus (GPa) = 20.27814 42.61574 31.44694
# Shear Modulus (GPa) = 17.19290 27.51155 22.35223
#
# Velocity S-wave (km/s) = 2.81936 3.56643 3.21467
# Velocity P-wave (km/s) = 4.46918 6.05489 5.32143
#
# Compressibility (1/GPa) = 0.04931419
#
# Stress axis : x y z
#
# Youngs Moduli (GPa) = 71.99929 142.63452 20.16796
#
# Poissons Ratio (x) = 0.26863 0.07966
# Poissons Ratio (y) = 0.13560 0.09583
# Poissons Ratio (z) = 0.28439 0.67772
#
# Static dielectric constant tensor:
#      x y z
#    x 1.815940 0.000000 0.069350 
#    y 0.000000 2.049780 0.000000 
#    z 0.069350 0.000000 1.876120 
# 
# From -- ./inp_files/255580.got.cif
#   From: 2010.05.17/outbox.cif.g08.bks.cpg/sg15_128_cif.got.tgz:255580.got - 2010.06.03 18:47:42.
