data_PCOD9285628
_publ_section_title
;
Structure prediction by ZEFSAII (Michael W. Deem and Ramdas Pophale) SiO2 
 PCOD9285628
Probable space group: C 2/C
;
_chemical_formula_sum "Si O2"
_cell_formula_units_Z 60
_cell_length_a 26.593303
_cell_length_b 16.216863
_cell_length_c 12.848120
_cell_angle_alpha 90.000000
_cell_angle_beta 155.271123
_cell_angle_gamma 90.000000
_cell_volume 2317.887950
_symmetry_space_group_name_H-M "C 2/C"
_symmetry_group_IT_number 15
_symmetry_cell_setting 'monoclinic'
loop_
_space_group_symop_operation_xyz
x,y,z
-x,y,1/2-z
-x,-y,-z
x,-y,1/2+z
1/2+x,1/2+y,z
1/2-x,1/2+y,1/2-z
1/2-x,1/2-y,-z
1/2+x,1/2-y,1/2+z
loop_
_atom_site_type_symbol
_atom_site_label
_atom_site_fract_x
_atom_site_fract_y
_atom_site_fract_z
Si Si1 0.621247 0.971849 0.671678
Si Si2 0.500000 0.120264 0.750000
Si Si3 0.778797 0.378828 0.443556
Si Si4 0.544884 0.615159 0.091086
Si Si5 0.062467 0.239107 0.754195
Si Si6 0.428773 0.499389 0.011993
Si Si7 0.664212 0.251032 0.941663
Si Si8 0.142167 0.637757 0.619105
O O1 0.580341 0.928118 0.487301
O O2 0.500000 0.000000 0.500000
O O3 0.682821 0.059376 0.761398
O O4 0.692071 0.919542 0.890784
O O5 0.593895 0.175003 0.858315
O O6 0.807212 0.281184 0.505125
O O7 0.874992 0.395395 0.530376
O O8 0.663621 0.424980 0.177121
O O9 0.537381 0.534312 0.146775
O O10 0.568591 0.683896 0.220801
O O11 0.443187 0.659714 0.829569
O O12 0.627124 0.581459 0.149459
O O13 0.000000 0.221836 0.750000
O O14 0.968795 0.311308 0.539791
O O15 0.500000 0.480491 0.250000
O O16 0.750000 0.250000 0.000000
O O17 0.751392 0.295572 0.186718
#
# Coordination Sequence:
#
# PCOD9285628 Si02
#       8
#     8   4   8   8   8   8   8   8
#     4  12  23  46  73 113 158 204 263 342 408 485
#     4  12  30  46  82 126 164 210 286 336 402 506
#     4  11  24  43  71 102 146 197 256 322 400 469
#     4  11  24  46  70 100 150 194 259 312 396 471
#     4  10  21  42  65 101 138 192 246 312 378 476
#     4  11  26  47  71 103 143 204 256 328 381 482
#     4  12  25  48  77 113 156 212 262 337 412 479
#     4  11  23  43  69 102 147 204 250 316 405 479
#
# _framework density 25.885634
#
# number of rings (size 3 to 8) (size 9 to 14) (size 15 to 20)
#    0.000    0.800    2.667    4.400    3.733    2.667 
#    4.800    0.000    0.000    0.000    0.000    0.000 
#    0.000    0.000    0.000    0.000    0.000    0.000 
#
# Total GULP energy -167065.010974 kJ/mol
# GULP energy per Si atom -5568.833699 kJ/mol
# Density = 2.582672 g / cm^3
# Si number density = 25.885634 Si / 1000 Ang^3
#
#
#
# Elastic Constant Matrix: (Units=GPa)
#
#
# Indices 1 2 3 4 5 6 
#
# 1 77.9116 31.8221 29.6387 0.0000 -20.9163 0.0000
# 2 31.8221 92.1174 24.4860 0.0000 -10.6692 0.0000
# 3 29.6387 24.4860 97.8206 0.0000 -7.3424 0.0000
# 4 0.0000 0.0000 0.0000 33.1789 0.0000 -13.2055
# 5 -20.9163 -10.6692 -7.3424 0.0000 37.8413 0.0000
# 6 0.0000 0.0000 0.0000 -13.2055 0.0000 56.2750
#
#
#
# Elastic Compliance Matrix: (Units=1/GPa)
#
#
# Indices 1 2 3 4 5 6 
#
# 1 0.018246 -0.004345 -0.003832 0.000000 0.008117 0.000000
# 2 -0.004345 0.012954 -0.001859 0.000000 0.000890 0.000000
# 3 -0.003832 -0.001859 0.011823 0.000000 -0.000348 0.000000
# 4 0.000000 0.000000 0.000000 0.033245 0.000000 0.007801
# 5 0.008117 0.000890 -0.000348 0.000000 0.031096 0.000000
# 6 0.000000 0.000000 0.000000 0.007801 0.000000 0.019601
#
#
# Mechanical properties :
#
#
# Convention : Reuss Voigt Hill
#
# Bulk Modulus (GPa) = 43.56922 48.86034 46.21478
# Shear Modulus (GPa) = 32.32346 37.58589 34.95468
#
# Velocity S-wave (km/s) = 3.53753 3.81464 3.67870
# Velocity P-wave (km/s) = 5.79254 6.19019 5.99466
#
# Compressibility (1/GPa) = 0.02295198
#
# Stress axis : x y z
#
# Youngs Moduli (GPa) = 54.80569 77.19691 84.58049
#
# Poissons Ratio (x) = 0.33539 0.32408
# Poissons Ratio (y) = 0.23811 0.15727
# Poissons Ratio (z) = 0.21000 0.14354
#
# Static dielectric constant tensor:
#      x y z
#    x 2.210110 0.000000 0.038470 
#    y 0.000000 5.069760 0.000000 
#    z 0.038470 0.000000 2.026650 
# 
# From -- ./inp_files/123997.got.cif
#   From: 2010.05.17/outbox.cif.g08.bks.cpg/sg15_62_cif.got.tgz:123997.got - 2010.06.03 18:47:42.
