data_PCOD9285204
_publ_section_title
;
Structure prediction by ZEFSAII (Michael W. Deem and Ramdas Pophale) SiO2 
 PCOD9285204
Probable space group: C 2/C
;
_chemical_formula_sum "Si O2"
_cell_formula_units_Z 32
_cell_length_a 18.387210
_cell_length_b 4.975950
_cell_length_c 22.501277
_cell_angle_alpha 90.000000
_cell_angle_beta 141.765419
_cell_angle_gamma 90.000000
_cell_volume 1274.111027
_symmetry_space_group_name_H-M "C 2/C"
_symmetry_group_IT_number 15
_symmetry_cell_setting 'monoclinic'
loop_
_space_group_symop_operation_xyz
x,y,z
-x,y,1/2-z
-x,-y,-z
x,-y,1/2+z
1/2+x,1/2+y,z
1/2-x,1/2+y,1/2-z
1/2-x,1/2-y,-z
1/2+x,1/2-y,1/2+z
loop_
_atom_site_type_symbol
_atom_site_label
_atom_site_fract_x
_atom_site_fract_y
_atom_site_fract_z
Si Si1 0.444047 0.409195 0.105051
Si Si2 0.827382 0.032971 0.801893
Si Si3 0.415770 0.229651 0.473095
Si Si4 0.746064 0.530998 0.443263
O O1 0.580240 0.340904 0.186074
O O2 0.389253 0.450059 0.134786
O O3 0.443267 0.658114 0.056924
O O4 0.283163 0.874831 0.902358
O O5 0.716826 0.232062 0.733539
O O6 0.893418 0.053459 0.907873
O O7 0.345688 0.801846 0.518077
O O8 0.500000 0.000000 0.500000
O O9 0.750000 0.750000 0.500000
#
# Coordination Sequence:
#
# PCOD9285204 Si02
#       4
#     8   8   8   8
#     4  10  21  41  68  94 124 171 224 274 323 394
#     4  12  27  41  65  97 141 170 209 270 343 394
#     4  11  21  40  71  95 123 174 234 272 315 399
#     4   9  20  37  70  95 120 160 235 277 316 374
#
# _framework density 25.115549000000001
#
# number of rings (size 3 to 8) (size 9 to 14) (size 15 to 20)
#    0.000    1.500    2.500    2.250    7.000    0.000 
#    0.000    1.250    0.000    0.000    0.000    0.000 
#    0.000    0.000    0.000    0.000    0.000    0.000 
#
# Total GULP energy -89106.463103 kJ/mol
# GULP energy per Si atom -5569.153944 kJ/mol
# Density = 2.505838 g / cm^3
# Si number density = 25.115549 Si / 1000 Ang^3
#
#
#
# Elastic Constant Matrix: (Units=GPa)
#
#
# Indices 1 2 3 4 5 6 
#
# 1 236.2391 17.6457 3.2491 -0.0001 49.6614 0.0100
# 2 17.6457 101.8075 10.1013 -0.0027 4.7879 0.0128
# 3 3.2491 10.1013 70.2097 -0.0004 14.0503 -0.0021
# 4 -0.0001 -0.0027 -0.0004 33.7377 -0.0013 4.8071
# 5 49.6614 4.7879 14.0503 -0.0013 38.3145 -0.0002
# 6 0.0100 0.0128 -0.0021 4.8071 -0.0002 43.2011
#
#
#
# Elastic Compliance Matrix: (Units=1/GPa)
#
#
# Indices 1 2 3 4 5 6 
#
# 1 0.006001 -0.000801 0.001483 0.000000 -0.008222 -0.000001
# 2 -0.000801 0.010093 -0.001479 0.000001 0.000319 -0.000003
# 3 0.001483 -0.001479 0.015902 0.000000 -0.007568 0.000001
# 4 0.000000 0.000001 0.000000 0.030118 0.000001 -0.003351
# 5 -0.008222 0.000319 -0.007568 0.000001 0.039492 0.000002
# 6 -0.000001 -0.000003 0.000001 -0.003351 0.000002 0.023520
#
#
# Mechanical properties :
#
#
# Convention : Reuss Voigt Hill
#
# Bulk Modulus (GPa) = 32.89230 52.24983 42.57107
# Shear Modulus (GPa) = 36.53559 48.20134 42.36846
#
# Velocity S-wave (km/s) = 3.81819 4.38560 4.11170
# Velocity P-wave (km/s) = 5.70639 6.81862 6.28715
#
# Compressibility (1/GPa) = 0.03040225
#
# Stress axis : x y z
#
# Youngs Moduli (GPa) = 166.64716 99.07907 62.88604
#
# Poissons Ratio (x) = 0.07932 -0.09325
# Poissons Ratio (y) = 0.13341 0.09300
# Poissons Ratio (z) = -0.24710 0.14652
#
# Static dielectric constant tensor:
#      x y z
#    x 2.218400 -0.000010 0.212860 
#    y -0.000010 2.218930 -0.000010 
#    z 0.212860 -0.000010 2.183330 
# 
# From -- ./inp_files/275769.got.cif
#   From: 2010.05.17/outbox.cif.g08.bks.cpg/sg15_138_cif.got.tgz:275769.got - 2010.06.03 18:47:42.
