data_PCOD9285437
_publ_section_title
;
Structure prediction by ZEFSAII (Michael W. Deem and Ramdas Pophale) SiO2 
 PCOD9285437
Probable space group: C 2/C
;
_chemical_formula_sum "Si O2"
_cell_formula_units_Z 52
_cell_length_a 14.087507
_cell_length_b 11.187904
_cell_length_c 15.613124
_cell_angle_alpha 90.000000
_cell_angle_beta 79.715562
_cell_angle_gamma 90.000000
_cell_volume 2421.243463
_symmetry_space_group_name_H-M "C 2/C"
_symmetry_group_IT_number 15
_symmetry_cell_setting 'monoclinic'
loop_
_space_group_symop_operation_xyz
x,y,z
-x,y,1/2-z
-x,-y,-z
x,-y,1/2+z
1/2+x,1/2+y,z
1/2-x,1/2+y,1/2-z
1/2-x,1/2-y,-z
1/2+x,1/2-y,1/2+z
loop_
_atom_site_type_symbol
_atom_site_label
_atom_site_fract_x
_atom_site_fract_y
_atom_site_fract_z
Si Si1 0.000000 0.193430 0.750000
Si Si2 0.338679 0.371448 0.398293
Si Si3 0.360920 0.152882 0.673846
Si Si4 0.401330 0.115259 0.141529
Si Si5 0.359621 0.607378 0.503855
Si Si6 0.715049 0.757541 0.136020
Si Si7 0.033442 0.745363 0.000790
O O1 0.075694 0.115874 0.684826
O O2 0.059647 0.284296 0.800161
O O3 0.240331 0.354336 0.362173
O O4 0.337996 0.483170 0.462339
O O5 0.374865 0.260412 0.450864
O O6 0.341684 0.207655 0.769944
O O7 0.430458 0.227471 0.600735
O O8 0.403356 0.019196 0.673719
O O9 0.291101 0.151433 0.142055
O O10 0.466813 0.137986 0.047051
O O11 0.346472 0.710101 0.433517
O O12 0.282106 0.634595 0.590489
O O13 0.466454 0.636511 0.520537
#
# Coordination Sequence:
#
# PCOD9285437 Si02
#       7
#     4   8   8   8   8   8   8
#     4  10  22  40  62  90 126 160 204 256 310 368
#     4  11  22  41  66  92 126 163 206 258 314 363
#     4  12  23  40  67  96 120 165 214 255 301 377
#     4  10  21  42  60  90 129 165 193 259 322 357
#     4  10  22  44  62  88 128 171 197 260 316 361
#     4  10  22  40  65  90 126 163 212 252 310 372
#     4  10  24  40  63  94 130 158 210 256 312 371
#
# _framework density 21.476569999999999
#
# number of rings (size 3 to 8) (size 9 to 14) (size 15 to 20)
#    0.000    1.538    3.077    1.385    0.000    4.308 
#    5.538    0.000    0.000    0.000    0.000    0.000 
#    0.000    0.000    0.000    0.000    0.000    0.000 
#
# Total GULP energy -145240.364064 kJ/mol
# GULP energy per Si atom -5586.167849 kJ/mol
# Density = 2.142769 g / cm^3
# Si number density = 21.476570 Si / 1000 Ang^3
#
#
#
# Elastic Constant Matrix: (Units=GPa)
#
#
# Indices 1 2 3 4 5 6 
#
# 1 48.9405 -10.1184 -0.3017 0.0000 2.2269 0.0000
# 2 -10.1184 32.6031 9.3877 0.0000 -14.0122 0.0000
# 3 -0.3017 9.3877 141.1238 0.0000 -29.4751 0.0000
# 4 0.0000 0.0000 0.0000 27.2400 0.0000 8.2671
# 5 2.2269 -14.0122 -29.4751 0.0000 38.4304 0.0000
# 6 0.0000 0.0000 0.0000 8.2671 0.0000 11.6137
#
#
#
# Elastic Compliance Matrix: (Units=1/GPa)
#
#
# Indices 1 2 3 4 5 6 
#
# 1 0.021904 0.007406 -0.000175 0.000000 0.001297 0.000000
# 2 0.007406 0.038896 0.000358 0.000000 0.014027 0.000000
# 3 -0.000175 0.000358 0.008444 0.000000 0.006617 0.000000
# 4 0.000000 0.000000 0.000000 0.046827 0.000000 -0.033333
# 5 0.001297 0.014027 0.006617 0.000000 0.036135 0.000000
# 6 0.000000 0.000000 0.000000 -0.033333 0.000000 0.109834
#
#
# Mechanical properties :
#
#
# Convention : Reuss Voigt Hill
#
# Bulk Modulus (GPa) = 11.84536 24.51141 18.17838
# Shear Modulus (GPa) = 18.18165 30.37014 24.27590
#
# Velocity S-wave (km/s) = 2.91276 3.76454 3.36571
# Velocity P-wave (km/s) = 4.10362 5.50759 4.85661
#
# Compressibility (1/GPa) = 0.08442123
#
# Stress axis : x y z
#
# Youngs Moduli (GPa) = 45.65377 25.70973 118.43042
#
# Poissons Ratio (x) = -0.19040 0.02072
# Poissons Ratio (y) = -0.33809 -0.04242
# Poissons Ratio (z) = 0.00799 -0.00921
#
# Static dielectric constant tensor:
#      x y z
#    x 1.859370 0.000000 0.028310 
#    y 0.000000 1.756790 0.000000 
#    z 0.028310 0.000000 1.776250 
# 
# From -- ./inp_files/152545.got.cif
#   From: 2010.05.17/outbox.cif.g08.bks.cpg/sg15_77_cif.got.tgz:152545.got - 2010.06.03 18:47:42.
