data_PCOD9285602
_publ_section_title
;
Structure prediction by ZEFSAII (Michael W. Deem and Ramdas Pophale) SiO2 
 PCOD9285602
Probable space group: C 2/C
;
_chemical_formula_sum "Si O2"
_cell_formula_units_Z 60
_cell_length_a 24.947678
_cell_length_b 12.101070
_cell_length_c 16.412633
_cell_angle_alpha 90.000000
_cell_angle_beta 31.920027
_cell_angle_gamma 90.000000
_cell_volume 2619.812814
_symmetry_space_group_name_H-M "C 2/C"
_symmetry_group_IT_number 15
_symmetry_cell_setting 'monoclinic'
loop_
_space_group_symop_operation_xyz
x,y,z
-x,y,1/2-z
-x,-y,-z
x,-y,1/2+z
1/2+x,1/2+y,z
1/2-x,1/2+y,1/2-z
1/2-x,1/2-y,-z
1/2+x,1/2-y,1/2+z
loop_
_atom_site_type_symbol
_atom_site_label
_atom_site_fract_x
_atom_site_fract_y
_atom_site_fract_z
Si Si1 0.552945 0.228697 0.880744
Si Si2 0.664040 0.822808 0.815650
Si Si3 0.000000 0.589030 0.250000
Si Si4 0.113611 0.240887 0.121607
Si Si5 0.177712 0.004725 0.075894
Si Si6 0.282493 0.614924 0.309781
Si Si7 0.322654 0.733118 0.983519
Si Si8 0.904909 0.498090 0.718808
O O1 0.613654 0.240869 0.717799
O O2 0.617191 0.316782 0.848978
O O3 0.571315 0.099207 0.871667
O O4 0.432065 0.247063 0.026436
O O5 0.716443 0.905524 0.813187
O O6 0.755359 0.761259 0.652194
O O7 0.610095 0.887728 0.812376
O O8 0.904843 0.670967 0.379348
O O9 0.984995 0.516716 0.188139
O O10 0.127014 0.109463 0.097047
O O11 0.000000 0.276692 0.250000
O O12 0.199459 0.308353 0.964381
O O13 0.179160 0.024412 0.172988
O O14 0.137115 0.890694 0.089431
O O15 0.295842 0.012640 0.900923
O O16 0.250000 0.750000 0.000000
#
# Coordination Sequence:
#
# PCOD9285602 Si02
#       8
#     8   8   4   8   8   8   8   8
#     4  11  22  40  65 100 135 160 215 273 332 397
#     4  11  25  40  62  99 133 163 217 270 329 387
#     4  12  26  44  76  86 124 190 222 274 316 384
#     4  11  20  37  67  97 133 178 206 263 336 398
#     4  10  21  42  64  95 126 173 225 260 321 398
#     4  11  22  40  68  95 139 170 206 278 331 389
#     4  11  25  48  65  91 129 176 231 266 315 397
#     4  11  23  42  66  98 125 167 226 266 325 388
#
# _framework density 22.902398999999999
#
# number of rings (size 3 to 8) (size 9 to 14) (size 15 to 20)
#    0.000    1.067    6.667    1.200    5.600    0.000 
#    2.400    0.000    0.000    2.400    0.000    0.000 
#    0.000    0.000    0.000    0.000    0.000    0.000 
#
# Total GULP energy -167241.007755 kJ/mol
# GULP energy per Si atom -5574.700259 kJ/mol
# Density = 2.285027 g / cm^3
# Si number density = 22.902399 Si / 1000 Ang^3
#
#
#
# Elastic Constant Matrix: (Units=GPa)
#
#
# Indices 1 2 3 4 5 6 
#
# 1 77.8598 -16.9002 17.0758 0.0000 -13.7930 0.0000
# 2 -16.9002 58.6471 15.8174 0.0000 -5.4749 0.0000
# 3 17.0758 15.8174 89.9247 0.0000 -11.6189 0.0000
# 4 0.0000 0.0000 0.0000 16.6067 0.0000 -13.2038
# 5 -13.7930 -5.4749 -11.6189 0.0000 33.1959 0.0000
# 6 0.0000 0.0000 0.0000 -13.2038 0.0000 14.0524
#
#
#
# Elastic Compliance Matrix: (Units=1/GPa)
#
#
# Indices 1 2 3 4 5 6 
#
# 1 0.016048 0.006119 -0.003280 0.000000 0.006529 0.000000
# 2 0.006119 0.020353 -0.004168 0.000000 0.004440 0.000000
# 3 -0.003280 -0.004168 0.012790 0.000000 0.002426 0.000000
# 4 0.000000 0.000000 0.000000 0.238078 0.000000 0.223700
# 5 0.006529 0.004440 0.002426 0.000000 0.034418 0.000000
# 6 0.000000 0.000000 0.000000 0.223700 0.000000 0.281353
#
#
# Mechanical properties :
#
#
# Convention : Reuss Voigt Hill
#
# Bulk Modulus (GPa) = 21.49088 28.71306 25.10197
# Shear Modulus (GPa) = 8.04881 26.80026 17.42453
#
# Velocity S-wave (km/s) = 1.87671 3.42452 2.76128
# Velocity P-wave (km/s) = 3.75501 5.31044 4.59896
#
# Compressibility (1/GPa) = 0.04653137
#
# Stress axis : x y z
#
# Youngs Moduli (GPa) = 62.31458 49.13286 78.18668
#
# Poissons Ratio (x) = -0.30062 0.25645
# Poissons Ratio (y) = -0.38127 0.32589
# Poissons Ratio (z) = 0.20439 0.20479
#
# Static dielectric constant tensor:
#      x y z
#    x 1.962110 0.000000 0.027370 
#    y 0.000000 2.048090 0.000000 
#    z 0.027370 0.000000 1.914390 
# 
# From -- ./inp_files/222553.got.cif
#   From: 2010.05.17/outbox.cif.g08.bks.cpg/sg15_112_cif.got.tgz:222553.got - 2010.06.03 18:47:42.
