data_PCOD9285430
_publ_section_title
;
Structure prediction by ZEFSAII (Michael W. Deem and Ramdas Pophale) SiO2 
 PCOD9285430
Probable space group: C 2/C
;
_chemical_formula_sum "Si O2"
_cell_formula_units_Z 56
_cell_length_a 9.248854
_cell_length_b 10.675024
_cell_length_c 29.531448
_cell_angle_alpha 90.000000
_cell_angle_beta 122.545414
_cell_angle_gamma 90.000000
_cell_volume 2457.826519
_symmetry_space_group_name_H-M "C 2/C"
_symmetry_group_IT_number 15
_symmetry_cell_setting 'monoclinic'
loop_
_space_group_symop_operation_xyz
x,y,z
-x,y,1/2-z
-x,-y,-z
x,-y,1/2+z
1/2+x,1/2+y,z
1/2-x,1/2+y,1/2-z
1/2-x,1/2-y,-z
1/2+x,1/2-y,1/2+z
loop_
_atom_site_type_symbol
_atom_site_label
_atom_site_fract_x
_atom_site_fract_y
_atom_site_fract_z
Si Si1 0.579707 0.795921 0.947758
Si Si2 0.385234 0.621375 0.971730
Si Si3 0.133534 0.215866 0.734252
Si Si4 0.223550 0.552224 0.093345
Si Si5 0.553569 0.753590 0.423007
Si Si6 0.181324 0.793416 0.378783
Si Si7 0.295355 0.457097 0.713340
O O1 0.445878 0.682405 0.934733
O O2 0.471055 0.909185 0.948985
O O3 0.630248 0.815834 0.904319
O O4 0.750000 0.750000 0.000000
O O5 0.177966 0.625888 0.937528
O O6 0.500000 0.500000 0.000000
O O7 0.434321 0.712065 0.022323
O O8 0.226022 0.336601 0.728936
O O9 0.000000 0.261710 0.750000
O O10 0.993725 0.166937 0.674575
O O11 0.240653 0.095468 0.770542
O O12 0.354724 0.647423 0.091788
O O13 0.261218 0.413751 0.083049
O O14 0.242687 0.550980 0.151490
O O15 0.351391 0.763737 0.378637
O O16 0.500000 0.449813 0.750000
#
# Coordination Sequence:
#
# PCOD9285430 Si02
#       7
#     8   8   8   8   8   8   8
#     4  11  23  40  65  98 139 179 228 276 334 408
#     4  10  21  42  59  92 137 177 220 268 322 398
#     4  11  25  46  72 104 135 176 230 293 351 422
#     4  11  24  43  65  99 136 176 225 283 341 411
#     4  10  24  39  63  96 132 172 221 273 329 392
#     4  12  23  42  69  98 133 179 229 283 342 409
#     4  11  24  47  72 100 139 175 226 291 359 416
#
# _framework density 22.78436
#
# number of rings (size 3 to 8) (size 9 to 14) (size 15 to 20)
#    0.000    1.143    5.714    0.857    4.000    1.143 
#    0.000    0.000    0.000    0.000    0.000    0.000 
#    0.000    0.000    0.000    0.000    0.000    0.000 
#
# Total GULP energy -156160.836624 kJ/mol
# GULP energy per Si atom -5577.172737 kJ/mol
# Density = 2.273250 g / cm^3
# Si number density = 22.784360 Si / 1000 Ang^3
#
#
#
# Elastic Constant Matrix: (Units=GPa)
#
#
# Indices 1 2 3 4 5 6 
#
# 1 123.1126 67.6429 18.9623 0.0000 -2.1535 0.0000
# 2 67.6429 118.0457 14.0197 0.0000 -8.1686 0.0000
# 3 18.9623 14.0197 78.7546 0.0000 -4.6049 0.0000
# 4 0.0000 0.0000 0.0000 29.6981 0.0000 -6.8780
# 5 -2.1535 -8.1686 -4.6049 0.0000 28.6162 0.0000
# 6 0.0000 0.0000 0.0000 -6.8780 0.0000 43.5021
#
#
#
# Elastic Compliance Matrix: (Units=1/GPa)
#
#
# Indices 1 2 3 4 5 6 
#
# 1 0.012126 -0.006828 -0.001781 0.000000 -0.001323 0.000000
# 2 -0.006828 0.012645 -0.000430 0.000000 0.003026 0.000000
# 3 -0.001781 -0.000430 0.013313 0.000000 0.001886 0.000000
# 4 0.000000 0.000000 0.000000 0.034952 0.000000 0.005526
# 5 -0.001323 0.003026 0.001886 0.000000 0.036013 0.000000
# 6 0.000000 0.000000 0.000000 0.005526 0.000000 0.023861
#
#
# Mechanical properties :
#
#
# Convention : Reuss Voigt Hill
#
# Bulk Modulus (GPa) = 49.98901 57.90697 53.94799
# Shear Modulus (GPa) = 31.71444 34.98248 33.34846
#
# Velocity S-wave (km/s) = 3.73492 3.92263 3.82993
# Velocity P-wave (km/s) = 6.37081 6.78133 6.57927
#
# Compressibility (1/GPa) = 0.02000440
#
# Stress axis : x y z
#
# Youngs Moduli (GPa) = 82.47021 79.08565 75.11245
#
# Poissons Ratio (x) = 0.54002 0.13381
# Poissons Ratio (y) = 0.56313 0.03229
# Poissons Ratio (z) = 0.14691 0.03400
#
# Static dielectric constant tensor:
#      x y z
#    x 1.868680 0.000000 -0.017660 
#    y 0.000000 1.888720 0.000000 
#    z -0.017660 0.000000 1.961050 
# 
# From -- ./inp_files/288050.got.cif
#   From: 2010.05.17/outbox.cif.g08.bks.cpg/sg15_145_cif.got.tgz:288050.got - 2010.06.03 18:47:42.
