data_PCOD9285273
_publ_section_title
;
Structure prediction by ZEFSAII (Michael W. Deem and Ramdas Pophale) SiO2 
 PCOD9285273
Probable space group: C 2/C
;
_chemical_formula_sum "Si O2"
_cell_formula_units_Z 52
_cell_length_a 11.785096
_cell_length_b 25.916994
_cell_length_c 8.072793
_cell_angle_alpha 90.000000
_cell_angle_beta 69.189066
_cell_angle_gamma 90.000000
_cell_volume 2304.839617
_symmetry_space_group_name_H-M "C 2/C"
_symmetry_group_IT_number 15
_symmetry_cell_setting 'monoclinic'
loop_
_space_group_symop_operation_xyz
x,y,z
-x,y,1/2-z
-x,-y,-z
x,-y,1/2+z
1/2+x,1/2+y,z
1/2-x,1/2+y,1/2-z
1/2-x,1/2-y,-z
1/2+x,1/2-y,1/2+z
loop_
_atom_site_type_symbol
_atom_site_label
_atom_site_fract_x
_atom_site_fract_y
_atom_site_fract_z
Si Si1 0.092616 0.083997 0.560386
Si Si2 0.631183 0.782826 0.770335
Si Si3 0.265829 0.519227 0.487567
Si Si4 0.403346 0.961389 0.160702
Si Si5 0.000000 0.919920 0.750000
Si Si6 0.270097 0.316961 0.389489
Si Si7 0.989583 0.355930 0.061655
O O1 0.183955 0.036457 0.479018
O O2 0.160146 0.130392 0.617522
O O3 0.000000 0.064215 0.750000
O O4 0.033560 0.102894 0.416336
O O5 0.500000 0.785367 0.750000
O O6 0.658991 0.721902 0.769649
O O7 0.742897 0.797973 0.592765
O O8 0.604258 0.825067 0.926843
O O9 0.157833 0.505816 0.416100
O O10 0.211109 0.553887 0.663404
O O11 0.379955 0.547624 0.352313
O O12 0.500000 0.978382 0.250000
O O13 0.456419 0.914406 0.023552
O O14 0.133449 0.324141 0.398700
O O15 0.000000 0.363054 0.250000
#
# Coordination Sequence:
#
# PCOD9285273 Si02
#       7
#     8   8   8   8   4   8   8
#     4  12  24  41  67  99 137 184 233 297 352 417
#     4   9  20  42  68  93 129 172 226 279 348 420
#     4  12  22  44  63  95 139 190 239 286 354 415
#     4  11  24  41  63  98 142 189 239 287 342 423
#     4  12  26  42  70 102 140 186 244 298 350 416
#     4  10  21  41  69  93 126 182 221 282 356 413
#     4  10  22  40  65 102 136 176 227 290 343 414
#
# _framework density 22.561223999999999
#
# number of rings (size 3 to 8) (size 9 to 14) (size 15 to 20)
#    0.000    1.231    3.846    2.308    0.000    3.077 
#    2.769    0.000   16.923    0.000    0.000    0.000 
#    0.000    0.000    0.000    0.000    0.000    0.000 
#
# Total GULP energy -144738.522373 kJ/mol
# GULP energy per Si atom -5566.866245 kJ/mol
# Density = 2.250987 g / cm^3
# Si number density = 22.561224 Si / 1000 Ang^3
#
#
#
# Elastic Constant Matrix: (Units=GPa)
#
#
# Indices 1 2 3 4 5 6 
#
# 1 47.4708 11.0370 15.5182 0.0000 2.2097 0.0000
# 2 11.0370 74.7161 41.4373 0.0000 -21.2957 0.0000
# 3 15.5182 41.4373 100.7397 0.0000 -24.7361 0.0000
# 4 0.0000 0.0000 0.0000 34.6226 0.0000 -10.9206
# 5 2.2097 -21.2957 -24.7361 0.0000 26.2668 0.0000
# 6 0.0000 0.0000 0.0000 -10.9206 0.0000 16.9196
#
#
#
# Elastic Compliance Matrix: (Units=1/GPa)
#
#
# Indices 1 2 3 4 5 6 
#
# 1 0.023779 -0.003676 -0.004389 0.000000 -0.009114 0.000000
# 2 -0.003676 0.019968 -0.004678 0.000000 0.012093 0.000000
# 3 -0.004389 -0.004678 0.015201 0.000000 0.010892 0.000000
# 4 0.000000 0.000000 0.000000 0.036266 0.000000 0.023408
# 5 -0.009114 0.012093 0.010892 0.000000 0.058899 0.000000
# 6 0.000000 0.000000 0.000000 0.023408 0.000000 0.074211
#
#
# Mechanical properties :
#
#
# Convention : Reuss Voigt Hill
#
# Bulk Modulus (GPa) = 29.88381 39.87905 34.88143
# Shear Modulus (GPa) = 18.87039 25.89075 22.38057
#
# Velocity S-wave (km/s) = 2.89521 3.39127 3.15301
# Velocity P-wave (km/s) = 4.94477 5.74879 5.36187
#
# Compressibility (1/GPa) = 0.03346294
#
# Stress axis : x y z
#
# Youngs Moduli (GPa) = 42.05345 50.07971 65.78405
#
# Poissons Ratio (x) = 0.18411 0.28871
# Poissons Ratio (y) = 0.15460 0.30772
# Poissons Ratio (z) = 0.18456 0.23426
#
# Static dielectric constant tensor:
#      x y z
#    x 1.865170 0.000000 0.013100 
#    y 0.000000 2.001500 0.000000 
#    z 0.013100 0.000000 1.963740 
# 
# From -- ./inp_files/35108.got.cif
#   From: 2010.05.17/outbox.cif.g08.bks.cpg/sg15_18_cif.got.tgz:35108.got - 2010.06.03 18:47:42.
