data_PCOD9285692
_publ_section_title
;
Structure prediction by ZEFSAII (Michael W. Deem and Ramdas Pophale) SiO2 
 PCOD9285692
Probable space group: C 2/C
;
_chemical_formula_sum "Si O2"
_cell_formula_units_Z 56
_cell_length_a 27.974604
_cell_length_b 9.287531
_cell_length_c 9.926353
_cell_angle_alpha 90.000000
_cell_angle_beta 56.110433
_cell_angle_gamma 90.000000
_cell_volume 2140.876374
_symmetry_space_group_name_H-M "C 2/C"
_symmetry_group_IT_number 15
_symmetry_cell_setting 'monoclinic'
loop_
_space_group_symop_operation_xyz
x,y,z
-x,y,1/2-z
-x,-y,-z
x,-y,1/2+z
1/2+x,1/2+y,z
1/2-x,1/2+y,1/2-z
1/2-x,1/2-y,-z
1/2+x,1/2-y,1/2+z
loop_
_atom_site_type_symbol
_atom_site_label
_atom_site_fract_x
_atom_site_fract_y
_atom_site_fract_z
Si Si1 0.051848 0.375155 0.579960
Si Si2 0.766701 0.066249 0.774183
Si Si3 0.590400 0.059867 0.749272
Si Si4 0.637839 0.245564 0.279687
Si Si5 0.964204 0.920764 0.935396
Si Si6 0.789925 0.614560 0.912277
Si Si7 0.364568 0.632301 0.003627
O O1 0.064268 0.517089 0.648094
O O2 0.044092 0.390891 0.432741
O O3 0.110807 0.286132 0.492200
O O4 0.000000 0.306481 0.750000
O O5 0.812744 0.941521 0.663582
O O6 0.805079 0.212667 0.725843
O O7 0.721643 0.076948 0.724363
O O8 0.732613 0.016791 0.959741
O O9 0.621954 0.916321 0.761195
O O10 0.645352 0.160837 0.649805
O O11 0.578712 0.303612 0.435890
O O12 0.649029 0.345202 0.130755
O O13 0.000000 0.866850 0.750000
O O14 0.920305 0.035021 0.939708
O O15 0.000000 0.000000 0.000000
O O16 0.750000 0.750000 0.000000
#
# Coordination Sequence:
#
# PCOD9285692 Si02
#       7
#     8   8   8   8   8   8   8
#     4  11  24  45  70  93 136 182 224 279 337 402
#     4  11  24  44  69 101 138 175 228 279 353 409
#     4  11  26  46  66 100 135 174 235 274 337 415
#     4  10  23  41  65  95 137 178 219 285 338 409
#     4  11  21  37  65  98 132 175 232 280 334 396
#     4  12  27  45  74 103 138 184 227 287 355 415
#     4  10  21  42  65  97 135 177 224 278 340 408
#
# _framework density 26.157513000000002
#
# number of rings (size 3 to 8) (size 9 to 14) (size 15 to 20)
#    0.000    1.143    2.857    2.571    6.000    2.286 
#    2.571    0.000    0.000    0.000    0.000    0.000 
#    0.000    0.000    0.000    0.000    0.000    0.000 
#
# Total GULP energy -156808.029834 kJ/mol
# GULP energy per Si atom -5600.286780 kJ/mol
# Density = 2.609798 g / cm^3
# Si number density = 26.157513 Si / 1000 Ang^3
#
#
#
# Elastic Constant Matrix: (Units=GPa)
#
#
# Indices 1 2 3 4 5 6 
#
# 1 69.1908 -2.9475 -13.3131 0.0000 -12.0297 0.0000
# 2 -2.9475 42.6497 11.6654 0.0000 -5.9497 0.0000
# 3 -13.3131 11.6654 108.8079 0.0000 -18.8417 0.0000
# 4 0.0000 0.0000 0.0000 38.8440 0.0000 -7.0719
# 5 -12.0297 -5.9497 -18.8417 0.0000 47.8065 0.0000
# 6 0.0000 0.0000 0.0000 -7.0719 0.0000 34.0923
#
#
#
# Elastic Compliance Matrix: (Units=1/GPa)
#
#
# Indices 1 2 3 4 5 6 
#
# 1 0.015934 0.001081 0.002738 0.000000 0.005223 0.000000
# 2 0.001081 0.024432 -0.002054 0.000000 0.002503 0.000000
# 3 0.002738 -0.002054 0.010540 0.000000 0.004588 0.000000
# 4 0.000000 0.000000 0.000000 0.026754 0.000000 0.005550
# 5 0.005223 0.002503 0.004588 0.000000 0.024352 0.000000
# 6 0.000000 0.000000 0.000000 0.005550 0.000000 0.030483
#
#
# Mechanical properties :
#
#
# Convention : Reuss Voigt Hill
#
# Bulk Modulus (GPa) = 18.36985 23.49535 20.93260
# Shear Modulus (GPa) = 33.98798 39.16478 36.57638
#
# Velocity S-wave (km/s) = 3.60857 3.87365 3.74346
# Velocity P-wave (km/s) = 4.93968 5.38597 5.16764
#
# Compressibility (1/GPa) = 0.05443703
#
# Stress axis : x y z
#
# Youngs Moduli (GPa) = 62.75969 40.92912 94.87556
#
# Poissons Ratio (x) = -0.04424 -0.25978
# Poissons Ratio (y) = -0.06783 0.19485
# Poissons Ratio (z) = -0.17185 0.08406
#
# Static dielectric constant tensor:
#      x y z
#    x 2.038600 0.000000 0.021070 
#    y 0.000000 2.178080 0.000000 
#    z 0.021070 0.000000 2.078150 
# 
# From -- ./inp_files/69273.got.cif
#   From: 2010.05.17/outbox.cif.g08.bks.cpg/sg15_35_cif.got.tgz:69273.got - 2010.06.03 18:47:42.
