data_PCOD9285509
_publ_section_title
;
Structure prediction by ZEFSAII (Michael W. Deem and Ramdas Pophale) SiO2 
 PCOD9285509
Probable space group: C 2/C
;
_chemical_formula_sum "Si O2"
_cell_formula_units_Z 40
_cell_length_a 5.128902
_cell_length_b 27.835277
_cell_length_c 12.532230
_cell_angle_alpha 90.000000
_cell_angle_beta 92.904001
_cell_angle_gamma 90.000000
_cell_volume 1786.858800
_symmetry_space_group_name_H-M "C 2/C"
_symmetry_group_IT_number 15
_symmetry_cell_setting 'monoclinic'
loop_
_space_group_symop_operation_xyz
x,y,z
-x,y,1/2-z
-x,-y,-z
x,-y,1/2+z
1/2+x,1/2+y,z
1/2-x,1/2+y,1/2-z
1/2-x,1/2-y,-z
1/2+x,1/2-y,1/2+z
loop_
_atom_site_type_symbol
_atom_site_label
_atom_site_fract_x
_atom_site_fract_y
_atom_site_fract_z
Si Si1 0.317182 0.601078 0.913670
Si Si2 0.500000 0.522512 0.750000
Si Si3 0.000000 0.540099 0.250000
Si Si4 0.722708 0.797396 0.343880
Si Si5 0.329198 0.890219 0.557753
Si Si6 0.541404 0.216283 0.437116
O O1 0.389472 0.555884 0.842439
O O2 0.338507 0.649212 0.841708
O O3 0.537118 0.604257 0.008841
O O4 0.032647 0.600082 0.963967
O O5 0.247430 0.490847 0.714267
O O6 0.895763 0.573176 0.152351
O O7 0.500000 0.792921 0.250000
O O8 0.637071 0.797384 0.466003
O O9 0.900567 0.750186 0.349571
O O10 0.356590 0.835079 0.598826
O O11 0.750000 0.250000 0.500000
#
# Coordination Sequence:
#
# PCOD9285509 Si02
#       6
#     8   4   4   8   8   8
#     4  11  25  44  73 104 137 180 235 298 344 399
#     4  12  28  46  73 104 131 180 246 292 348 420
#     4  12  28  48  69 102 137 186 236 282 360 422
#     4  10  23  39  66 102 136 180 225 279 339 410
#     4  11  25  46  71 102 146 183 225 289 348 418
#     4  10  21  42  63 102 141 177 224 271 341 419
#
# _framework density 22.385653000000001
#
# number of rings (size 3 to 8) (size 9 to 14) (size 15 to 20)
#    0.000    1.200    2.000    2.400    7.000    7.200 
#    1.800    0.000    0.000    0.000    0.000    0.000 
#    0.000    0.000    0.000    0.000    0.000    0.000 
#
# Total GULP energy -111759.261631 kJ/mol
# GULP energy per Si atom -5587.963082 kJ/mol
# Density = 2.233470 g / cm^3
# Si number density = 22.385653 Si / 1000 Ang^3
#
#
#
# Elastic Constant Matrix: (Units=GPa)
#
#
# Indices 1 2 3 4 5 6 
#
# 1 64.2202 20.8070 5.1056 0.0000 15.6076 0.0000
# 2 20.8070 141.5116 31.1630 0.0000 25.8069 0.0000
# 3 5.1056 31.1630 81.6785 0.0000 23.1358 0.0000
# 4 0.0000 0.0000 0.0000 37.2413 0.0000 -9.5514
# 5 15.6076 25.8069 23.1358 0.0000 57.8418 0.0000
# 6 0.0000 0.0000 0.0000 -9.5514 0.0000 58.2653
#
#
#
# Elastic Compliance Matrix: (Units=1/GPa)
#
#
# Indices 1 2 3 4 5 6 
#
# 1 0.017132 -0.001958 0.000832 0.000000 -0.004082 0.000000
# 2 -0.001958 0.008288 -0.002416 0.000000 -0.002203 0.000000
# 3 0.000832 -0.002416 0.014516 0.000000 -0.004953 0.000000
# 4 0.000000 0.000000 0.000000 0.028030 0.000000 0.004595
# 5 -0.004082 -0.002203 -0.004953 0.000000 0.021354 0.000000
# 6 0.000000 0.000000 0.000000 0.004595 0.000000 0.017916
#
#
# Mechanical properties :
#
#
# Convention : Reuss Voigt Hill
#
# Bulk Modulus (GPa) = 30.43840 44.61796 37.52818
# Shear Modulus (GPa) = 39.91389 46.02532 42.96960
#
# Velocity S-wave (km/s) = 4.22715 4.53925 4.38598
# Velocity P-wave (km/s) = 6.11980 6.88824 6.51536
#
# Compressibility (1/GPa) = 0.03285324
#
# Stress axis : x y z
#
# Youngs Moduli (GPa) = 58.37148 120.65306 68.89100
#
# Poissons Ratio (x) = 0.23621 -0.05734
# Poissons Ratio (y) = 0.11428 0.16642
# Poissons Ratio (z) = -0.04859 0.29147
#
# Static dielectric constant tensor:
#      x y z
#    x 1.844800 0.000000 -0.021320 
#    y 0.000000 1.859490 0.000000 
#    z -0.021320 0.000000 1.749950 
# 
# From -- ./inp_files/73358.got.cif
#   From: 2010.05.17/outbox.cif.g08.bks.cpg/sg15_37_cif.got.tgz:73358.got - 2010.06.03 18:47:42.
