data_PCOD9285949
_publ_section_title
;
Structure prediction by ZEFSAII (Michael W. Deem and Ramdas Pophale) SiO2 
 PCOD9285949
Probable space group: C 2/C
;
_chemical_formula_sum "Si O2"
_cell_formula_units_Z 40
_cell_length_a 8.658526
_cell_length_b 20.547190
_cell_length_c 17.299326
_cell_angle_alpha 90.000000
_cell_angle_beta 32.823047
_cell_angle_gamma 90.000000
_cell_volume 1668.253153
_symmetry_space_group_name_H-M "C 2/C"
_symmetry_group_IT_number 15
_symmetry_cell_setting 'monoclinic'
loop_
_space_group_symop_operation_xyz
x,y,z
-x,y,1/2-z
-x,-y,-z
x,-y,1/2+z
1/2+x,1/2+y,z
1/2-x,1/2+y,1/2-z
1/2-x,1/2-y,-z
1/2+x,1/2-y,1/2+z
loop_
_atom_site_type_symbol
_atom_site_label
_atom_site_fract_x
_atom_site_fract_y
_atom_site_fract_z
Si Si1 0.031643 0.234250 0.974559
Si Si2 0.288010 0.405326 0.582264
Si Si3 0.241959 0.567127 0.805157
Si Si4 0.634350 0.203116 0.802741
Si Si5 0.354481 0.520851 0.445110
O O1 0.326016 0.216886 0.895581
O O2 0.142578 0.246986 0.840328
O O3 0.842635 0.170067 0.047360
O O4 0.881903 0.282946 0.098291
O O5 0.272084 0.450555 0.514186
O O6 0.542792 0.434049 0.527947
O O7 0.000000 0.414926 0.750000
O O8 0.500000 0.589780 0.750000
O O9 0.200674 0.626671 0.763182
O O10 0.369588 0.498859 0.720277
O O11 0.927440 0.553551 0.971449
#
# Coordination Sequence:
#
# PCOD9285949 Si02
#       5
#     8   8   8   8   8
#     4  10  21  42  69 100 134 178 232 288 341 412
#     4  11  21  37  69  96 127 167 226 293 332 410
#     4  12  24  43  65  97 142 184 222 287 350 417
#     4  10  22  42  69  99 136 181 230 285 346 407
#     4  11  23  40  65 101 130 172 227 283 352 405
#
# _framework density 23.977176
#
# number of rings (size 3 to 8) (size 9 to 14) (size 15 to 20)
#    0.000    1.200    6.000    0.600    0.000    0.800 
#    3.600    2.000    0.000    0.000    0.000    0.000 
#    0.000    0.000    0.000    0.000    0.000    0.000 
#
# Total GULP energy -111601.377982 kJ/mol
# GULP energy per Si atom -5580.068899 kJ/mol
# Density = 2.392260 g / cm^3
# Si number density = 23.977176 Si / 1000 Ang^3
#
#
#
# Elastic Constant Matrix: (Units=GPa)
#
#
# Indices 1 2 3 4 5 6 
#
# 1 68.2862 24.0227 35.1609 0.0028 -7.7310 -0.0004
# 2 24.0227 58.6717 26.5841 0.0019 -13.4218 0.0011
# 3 35.1609 26.5841 108.1053 0.0022 -5.4950 0.0059
# 4 0.0028 0.0019 0.0022 40.8308 0.0044 -0.6723
# 5 -7.7310 -13.4218 -5.4950 0.0044 28.5125 0.0009
# 6 -0.0004 0.0011 0.0059 -0.6723 0.0009 24.3164
#
#
#
# Elastic Compliance Matrix: (Units=1/GPa)
#
#
# Indices 1 2 3 4 5 6 
#
# 1 0.019197 -0.005245 -0.004862 -0.000001 0.001799 0.000002
# 2 -0.005245 0.022722 -0.003444 -0.000001 0.008610 -0.000001
# 3 -0.004862 -0.003444 0.011643 0.000000 -0.000696 -0.000003
# 4 -0.000001 -0.000001 0.000000 0.024502 -0.000005 0.000677
# 5 0.001799 0.008610 -0.000696 -0.000005 0.039479 -0.000002
# 6 0.000002 -0.000001 -0.000003 0.000677 -0.000002 0.041143
#
#
# Mechanical properties :
#
#
# Convention : Reuss Voigt Hill
#
# Bulk Modulus (GPa) = 37.79480 45.17761 41.48620
# Shear Modulus (GPa) = 25.69253 28.68497 27.18875
#
# Velocity S-wave (km/s) = 3.27699 3.46257 3.37106
# Velocity P-wave (km/s) = 5.48774 5.90497 5.70018
#
# Compressibility (1/GPa) = 0.02645867
#
# Stress axis : x y z
#
# Youngs Moduli (GPa) = 52.09181 44.01088 85.88689
#
# Poissons Ratio (x) = 0.23085 0.41762
# Poissons Ratio (y) = 0.27324 0.29578
# Poissons Ratio (z) = 0.25329 0.15156
#
# Static dielectric constant tensor:
#      x y z
#    x 1.978710 0.000000 0.076050 
#    y 0.000000 1.854650 0.000000 
#    z 0.076050 0.000000 1.985180 
# 
# From -- ./inp_files/193408.got.cif
#   From: 2010.05.17/outbox.cif.g08.bks.cpg/sg15_97_cif.got.tgz:193408.got - 2010.06.03 18:47:42.
