data_PCOD9285141
_publ_section_title
;
Structure prediction by ZEFSAII (Michael W. Deem and Ramdas Pophale) SiO2 
 PCOD9285141
Probable space group: C 2/C
;
_chemical_formula_sum "Si O2"
_cell_formula_units_Z 32
_cell_length_a 16.854029
_cell_length_b 5.049833
_cell_length_c 16.798303
_cell_angle_alpha 90.000000
_cell_angle_beta 113.180574
_cell_angle_gamma 90.000000
_cell_volume 1314.282449
_symmetry_space_group_name_H-M "C 2/C"
_symmetry_group_IT_number 15
_symmetry_cell_setting 'monoclinic'
loop_
_space_group_symop_operation_xyz
x,y,z
-x,y,1/2-z
-x,-y,-z
x,-y,1/2+z
1/2+x,1/2+y,z
1/2-x,1/2+y,1/2-z
1/2-x,1/2-y,-z
1/2+x,1/2-y,1/2+z
loop_
_atom_site_type_symbol
_atom_site_label
_atom_site_fract_x
_atom_site_fract_y
_atom_site_fract_z
Si Si1 0.649404 0.698839 0.671447
Si Si2 0.461106 0.231461 0.910284
Si Si3 0.619948 0.911974 0.968967
Si Si4 0.731888 0.190963 0.370370
O O1 0.576910 0.474046 0.652279
O O2 0.705303 0.708164 0.773539
O O3 0.711752 0.573724 0.627159
O O4 0.598317 0.973945 0.636970
O O5 0.561446 0.172360 0.939401
O O6 0.441624 0.261290 0.997168
O O7 0.647699 0.846779 0.890894
O O8 0.708638 0.887344 0.053768
#
# Coordination Sequence:
#
# PCOD9285141 Si02
#       4
#     8   8   8   8
#     4  11  23  42  65  92 132 171 211 261 319 379
#     4  10  23  44  66  94 131 169 210 264 321 378
#     4   9  21  41  68  97 128 168 215 263 318 380
#     4  10  21  41  67  96 129 170 216 263 316 379
#
# _framework density 24.347887
#
# number of rings (size 3 to 8) (size 9 to 14) (size 15 to 20)
#    0.000    2.000    0.000    3.000    0.000   11.000 
#    0.000   22.500    0.000    0.000    0.000    0.000 
#    0.000    0.000    0.000    0.000    0.000    0.000 
#
# Total GULP energy -89293.720805 kJ/mol
# GULP energy per Si atom -5580.857550 kJ/mol
# Density = 2.429247 g / cm^3
# Si number density = 24.347887 Si / 1000 Ang^3
#
#
#
# Elastic Constant Matrix: (Units=GPa)
#
#
# Indices 1 2 3 4 5 6 
#
# 1 134.9209 24.7650 32.8294 0.0000 -11.2198 0.0000
# 2 24.7650 132.0739 40.7795 0.0000 10.7760 0.0000
# 3 32.8294 40.7795 98.7808 0.0000 3.4249 0.0000
# 4 0.0000 0.0000 0.0000 33.6118 0.0000 13.7670
# 5 -11.2198 10.7760 3.4249 0.0000 38.5939 0.0000
# 6 0.0000 0.0000 0.0000 13.7670 0.0000 38.7154
#
#
#
# Elastic Compliance Matrix: (Units=1/GPa)
#
#
# Indices 1 2 3 4 5 6 
#
# 1 0.008457 -0.001064 -0.002474 0.000000 0.002975 0.000000
# 2 -0.001064 0.008987 -0.003268 0.000000 -0.002529 0.000000
# 3 -0.002474 -0.003268 0.012326 0.000000 -0.000901 0.000000
# 4 0.000000 0.000000 0.000000 0.034823 0.000000 -0.012383
# 5 0.002975 -0.002529 -0.000901 0.000000 0.027562 0.000000
# 6 0.000000 0.000000 0.000000 -0.012383 0.000000 0.030233
#
#
# Mechanical properties :
#
#
# Convention : Reuss Voigt Hill
#
# Bulk Modulus (GPa) = 61.89998 62.50261 62.20130
# Shear Modulus (GPa) = 35.36396 40.01101 37.68748
#
# Velocity S-wave (km/s) = 3.81523 4.05817 3.93857
# Velocity P-wave (km/s) = 6.69972 6.90541 6.80334
#
# Compressibility (1/GPa) = 0.01615509
#
# Stress axis : x y z
#
# Youngs Moduli (GPa) = 118.25097 111.27662 81.12762
#
# Poissons Ratio (x) = 0.11845 0.20073
# Poissons Ratio (y) = 0.12588 0.26516
# Poissons Ratio (z) = 0.29258 0.36371
#
# Static dielectric constant tensor:
#      x y z
#    x 1.977720 0.000000 0.034990 
#    y 0.000000 2.066510 0.000000 
#    z 0.034990 0.000000 1.931940 
# 
# From -- ./inp_files/207761.got.cif
#   From: 2010.05.17/outbox.cif.g08.bks.cpg/sg15_104_cif.got.tgz:207761.got - 2010.06.03 18:47:42.
