data_PCOD9285312
_publ_section_title
;
Structure prediction by ZEFSAII (Michael W. Deem and Ramdas Pophale) SiO2 
 PCOD9285312
Probable space group: C 2/C
;
_chemical_formula_sum "Si O2"
_cell_formula_units_Z 56
_cell_length_a 15.878450
_cell_length_b 10.049724
_cell_length_c 24.702515
_cell_angle_alpha 90.000000
_cell_angle_beta 145.768281
_cell_angle_gamma 90.000000
_cell_volume 2217.469831
_symmetry_space_group_name_H-M "C 2/C"
_symmetry_group_IT_number 15
_symmetry_cell_setting 'monoclinic'
loop_
_space_group_symop_operation_xyz
x,y,z
-x,y,1/2-z
-x,-y,-z
x,-y,1/2+z
1/2+x,1/2+y,z
1/2-x,1/2+y,1/2-z
1/2-x,1/2-y,-z
1/2+x,1/2-y,1/2+z
loop_
_atom_site_type_symbol
_atom_site_label
_atom_site_fract_x
_atom_site_fract_y
_atom_site_fract_z
Si Si1 0.107310 0.391906 0.082411
Si Si2 0.421018 0.647587 0.370180
Si Si3 0.377446 0.015261 0.136474
Si Si4 0.099977 0.607362 0.162793
Si Si5 0.142866 0.930447 0.365195
Si Si6 0.400357 0.717464 0.143174
Si Si7 0.432300 0.633333 0.551639
O O1 0.030823 0.257763 0.061396
O O2 0.164405 0.481174 0.163586
O O3 0.000000 0.500000 0.000000
O O4 0.233644 0.364129 0.105978
O O5 0.241932 0.659579 0.271395
O O6 0.492120 0.691407 0.350734
O O7 0.468767 0.497502 0.407541
O O8 0.500000 0.027132 0.250000
O O9 0.469256 0.054303 0.131829
O O10 0.227688 0.102101 0.061043
O O11 0.325861 0.861566 0.101287
O O12 0.027226 0.732664 0.092629
O O13 0.000000 0.934614 0.250000
O O14 0.104271 0.868323 0.402672
O O15 0.194966 0.083003 0.403586
O O16 0.500000 0.722923 0.250000
#
# Coordination Sequence:
#
# PCOD9285312 Si02
#       7
#     8   8   8   8   8   8   8
#     4  12  26  43  70 103 142 179 230 295 363 422
#     4  11  24  45  72 106 140 189 237 302 365 432
#     4  11  25  44  71 101 144 193 245 300 355 434
#     4  12  24  46  71 105 145 185 235 309 366 421
#     4  10  21  41  70 100 135 186 234 286 350 438
#     4   9  19  39  69  97 132 181 244 284 349 422
#     4  11  26  45  76 105 144 190 248 290 365 437
#
# _framework density 25.254009
#
# number of rings (size 3 to 8) (size 9 to 14) (size 15 to 20)
#    0.000    1.143    1.429    5.571    2.000    4.000 
#    0.000    1.429    0.000    0.000    0.000    0.000 
#    0.000    0.000    0.000    0.000    0.000    0.000 
#
# Total GULP energy -156880.995248 kJ/mol
# GULP energy per Si atom -5602.892687 kJ/mol
# Density = 2.519653 g / cm^3
# Si number density = 25.254009 Si / 1000 Ang^3
#
#
#
# Elastic Constant Matrix: (Units=GPa)
#
#
# Indices 1 2 3 4 5 6 
#
# 1 87.9007 65.8722 18.5670 0.0000 9.5424 0.0000
# 2 65.8722 190.4186 31.1195 0.0000 -12.1336 0.0000
# 3 18.5670 31.1195 94.7652 0.0000 13.1135 0.0000
# 4 0.0000 0.0000 0.0000 25.3065 0.0000 11.8513
# 5 9.5424 -12.1336 13.1135 0.0000 39.5000 0.0000
# 6 0.0000 0.0000 0.0000 11.8513 0.0000 18.0459
#
#
#
# Elastic Compliance Matrix: (Units=1/GPa)
#
#
# Indices 1 2 3 4 5 6 
#
# 1 0.016620 -0.006034 -0.000485 0.000000 -0.005708 0.000000
# 2 -0.006034 0.007970 -0.002071 0.000000 0.004593 0.000000
# 3 -0.000485 -0.002071 0.011948 0.000000 -0.004485 0.000000
# 4 0.000000 0.000000 0.000000 0.057067 0.000000 -0.037477
# 5 -0.005708 0.004593 -0.004485 0.000000 0.029595 0.000000
# 6 0.000000 0.000000 0.000000 -0.037477 0.000000 0.080027
#
#
# Mechanical properties :
#
#
# Convention : Reuss Voigt Hill
#
# Bulk Modulus (GPa) = 51.65531 67.13355 59.39443
# Shear Modulus (GPa) = 22.04004 33.73887 27.88946
#
# Velocity S-wave (km/s) = 2.95741 3.65907 3.32679
# Velocity P-wave (km/s) = 5.67102 6.67029 6.19085
#
# Compressibility (1/GPa) = 0.01935909
#
# Stress axis : x y z
#
# Youngs Moduli (GPa) = 60.16719 125.47009 83.69521
#
# Poissons Ratio (x) = 0.75708 0.04060
# Poissons Ratio (y) = 0.36305 0.17330
# Poissons Ratio (z) = 0.02919 0.25980
#
# Static dielectric constant tensor:
#      x y z
#    x 1.961990 0.000000 -0.036120 
#    y 0.000000 2.048710 0.000000 
#    z -0.036120 0.000000 1.908860 
# 
# From -- ./inp_files/281449.got.cif
#   From: 2010.05.17/outbox.cif.g08.bks.cpg/sg15_141_cif.got.tgz:281449.got - 2010.06.03 18:47:42.
