data_PCOD9285677
_publ_section_title
;
Structure prediction by ZEFSAII (Michael W. Deem and Ramdas Pophale) SiO2 
 PCOD9285677
Probable space group: C 2/C
;
_chemical_formula_sum "Si O2"
_cell_formula_units_Z 40
_cell_length_a 11.934032
_cell_length_b 7.753889
_cell_length_c 15.366198
_cell_angle_alpha 90.000000
_cell_angle_beta 97.408655
_cell_angle_gamma 90.000000
_cell_volume 1410.043014
_symmetry_space_group_name_H-M "C 2/C"
_symmetry_group_IT_number 15
_symmetry_cell_setting 'monoclinic'
loop_
_space_group_symop_operation_xyz
x,y,z
-x,y,1/2-z
-x,-y,-z
x,-y,1/2+z
1/2+x,1/2+y,z
1/2-x,1/2+y,1/2-z
1/2-x,1/2-y,-z
1/2+x,1/2-y,1/2+z
loop_
_atom_site_type_symbol
_atom_site_label
_atom_site_fract_x
_atom_site_fract_y
_atom_site_fract_z
Si Si1 0.513916 0.073761 0.131784
Si Si2 0.821453 0.577985 0.517402
Si Si3 0.556695 0.535502 0.850194
Si Si4 0.276416 0.059759 0.782209
Si Si5 0.840037 0.911726 0.883218
O O1 0.459353 0.262957 0.128674
O O2 0.415339 0.936786 0.103768
O O3 0.606355 0.043314 0.216546
O O4 0.599999 0.054372 0.058639
O O5 0.750000 0.750000 0.500000
O O6 0.728617 0.433971 0.535222
O O7 0.500000 0.506862 0.750000
O O8 0.685339 0.487864 0.843149
O O9 0.474157 0.430947 0.905524
O O10 0.310249 0.243963 0.824614
O O11 0.208309 0.064252 0.684680
#
# Coordination Sequence:
#
# PCOD9285677 Si02
#       5
#     8   8   8   8   8
#     4  11  24  43  69  93 129 177 213 267 325 383
#     4  11  24  43  67  95 133 172 218 263 328 389
#     4  10  21  42  65  95 131 165 210 273 320 375
#     4  11  24  43  68  98 128 169 221 265 321 382
#     4  11  23  43  67  97 133 170 212 273 319 382
#
# _framework density 28.367927999999999
#
# number of rings (size 3 to 8) (size 9 to 14) (size 15 to 20)
#    0.000    1.200    4.000    2.400    0.000    2.400 
#    7.200    2.000    0.000    0.000    0.000    0.000 
#    0.000    0.000    0.000    0.000    0.000    0.000 
#
# Total GULP energy -112097.095233 kJ/mol
# GULP energy per Si atom -5604.854762 kJ/mol
# Density = 2.830336 g / cm^3
# Si number density = 28.367928 Si / 1000 Ang^3
#
#
#
# Elastic Constant Matrix: (Units=GPa)
#
#
# Indices 1 2 3 4 5 6 
#
# 1 245.9614 35.4818 5.7738 0.0000 -13.2999 0.0000
# 2 35.4818 107.2014 -3.6612 0.0000 4.3209 0.0000
# 3 5.7738 -3.6612 94.6340 0.0000 -5.4048 0.0000
# 4 0.0000 0.0000 0.0000 36.4985 0.0000 3.3202
# 5 -13.2999 4.3209 -5.4048 0.0000 50.5261 0.0000
# 6 0.0000 0.0000 0.0000 3.3202 0.0000 54.3567
#
#
#
# Elastic Compliance Matrix: (Units=1/GPa)
#
#
# Indices 1 2 3 4 5 6 
#
# 1 0.004356 -0.001501 -0.000253 0.000000 0.001248 0.000000
# 2 -0.001501 0.009887 0.000406 0.000000 -0.001197 0.000000
# 3 -0.000253 0.000406 0.010657 0.000000 0.001039 0.000000
# 4 0.000000 0.000000 0.000000 0.027551 0.000000 -0.001683
# 5 0.001248 -0.001197 0.001039 0.000000 0.020334 0.000000
# 6 0.000000 0.000000 0.000000 -0.001683 0.000000 0.018500
#
#
# Mechanical properties :
#
#
# Convention : Reuss Voigt Hill
#
# Bulk Modulus (GPa) = 45.03436 58.10950 51.57193
# Shear Modulus (GPa) = 49.31865 55.62306 52.47086
#
# Velocity S-wave (km/s) = 4.17410 4.43287 4.30543
# Velocity P-wave (km/s) = 6.25623 6.83587 6.55246
#
# Compressibility (1/GPa) = 0.02220527
#
# Stress axis : x y z
#
# Youngs Moduli (GPa) = 229.59247 101.14296 93.83099
#
# Poissons Ratio (x) = 0.15177 0.02369
# Poissons Ratio (y) = 0.34451 -0.03807
# Poissons Ratio (z) = 0.05798 -0.04103
#
# Static dielectric constant tensor:
#      x y z
#    x 2.204880 0.000000 0.021530 
#    y 0.000000 2.172840 0.000000 
#    z 0.021530 0.000000 2.349640 
# 
# From -- ./inp_files/195166.got.cif
#   From: 2010.05.17/outbox.cif.g08.bks.cpg/sg15_98_cif.got.tgz:195166.got - 2010.06.03 18:47:42.
