data_PCOD9285301
_publ_section_title
;
Structure prediction by ZEFSAII (Michael W. Deem and Ramdas Pophale) SiO2 
 PCOD9285301
Probable space group: C 2/C
;
_chemical_formula_sum "Si O2"
_cell_formula_units_Z 44
_cell_length_a 12.207203
_cell_length_b 14.347632
_cell_length_c 11.944119
_cell_angle_alpha 90.000000
_cell_angle_beta 97.776731
_cell_angle_gamma 90.000000
_cell_volume 2072.706340
_symmetry_space_group_name_H-M "C 2/C"
_symmetry_group_IT_number 15
_symmetry_cell_setting 'monoclinic'
loop_
_space_group_symop_operation_xyz
x,y,z
-x,y,1/2-z
-x,-y,-z
x,-y,1/2+z
1/2+x,1/2+y,z
1/2-x,1/2+y,1/2-z
1/2-x,1/2-y,-z
1/2+x,1/2-y,1/2+z
loop_
_atom_site_type_symbol
_atom_site_label
_atom_site_fract_x
_atom_site_fract_y
_atom_site_fract_z
Si Si1 0.500000 0.578150 0.250000
Si Si2 0.411774 0.968454 0.149910
Si Si3 0.462604 0.870246 0.518137
Si Si4 0.723353 0.344991 0.428648
Si Si5 0.332533 0.424110 0.303073
Si Si6 0.004697 0.848081 0.505130
O O1 0.395126 0.510383 0.253237
O O2 0.512586 0.636861 0.365562
O O3 0.500000 0.929169 0.250000
O O4 0.438645 0.916515 0.037495
O O5 0.287759 0.953327 0.171376
O O6 0.443003 0.075978 0.130795
O O7 0.344193 0.890669 0.441845
O O8 0.484771 0.760805 0.524129
O O9 0.750000 0.250000 0.500000
O O10 0.680771 0.344750 0.295148
O O11 0.623882 0.391200 0.485419
O O12 0.409695 0.391342 0.415392
#
# Coordination Sequence:
#
# PCOD9285301 Si02
#       6
#     4   8   8   8   8   8
#     4  12  26  40  72 100 140 182 230 302 354 412
#     4  11  24  42  68  94 137 179 230 285 352 419
#     4  10  24  43  66  97 133 180 227 283 349 420
#     4  10  21  41  69  98 136 180 224 285 350 406
#     4  12  24  42  71 103 139 184 240 291 346 430
#     4  11  25  44  70 101 140 179 237 290 355 422
#
# _framework density 21.228283999999999
#
# number of rings (size 3 to 8) (size 9 to 14) (size 15 to 20)
#    0.000    1.091    3.636    1.636    3.818    3.636 
#    0.000    0.000    0.000    0.000    0.000    0.000 
#    0.000    0.000    0.000    0.000    0.000    0.000 
#
# Total GULP energy -122786.207401 kJ/mol
# GULP energy per Si atom -5581.191245 kJ/mol
# Density = 2.117997 g / cm^3
# Si number density = 21.228284 Si / 1000 Ang^3
#
#
#
# Elastic Constant Matrix: (Units=GPa)
#
#
# Indices 1 2 3 4 5 6 
#
# 1 184.2670 37.9878 53.6262 0.0000 -25.5310 0.0000
# 2 37.9878 91.4028 35.5396 0.0000 -10.8020 0.0000
# 3 53.6262 35.5396 138.8452 0.0000 -9.2653 0.0000
# 4 0.0000 0.0000 0.0000 26.4378 0.0000 -2.0196
# 5 -25.5310 -10.8020 -9.2653 0.0000 33.2800 0.0000
# 6 0.0000 0.0000 0.0000 -2.0196 0.0000 18.2315
#
#
#
# Elastic Compliance Matrix: (Units=1/GPa)
#
#
# Indices 1 2 3 4 5 6 
#
# 1 0.006921 -0.001606 -0.001979 0.000000 0.004237 0.000000
# 2 -0.001606 0.012852 -0.002520 0.000000 0.002238 0.000000
# 3 -0.001979 -0.002520 0.008616 0.000000 0.000062 0.000000
# 4 0.000000 0.000000 0.000000 0.038147 0.000000 0.004226
# 5 0.004237 0.002238 0.000062 0.000000 0.034042 0.000000
# 6 0.000000 0.000000 0.000000 0.004226 0.000000 0.055318
#
#
# Mechanical properties :
#
#
# Convention : Reuss Voigt Hill
#
# Bulk Modulus (GPa) = 61.81050 74.31358 68.06204
# Shear Modulus (GPa) = 28.81821 34.74731 31.78276
#
# Velocity S-wave (km/s) = 3.68848 4.05018 3.87355
# Velocity P-wave (km/s) = 6.87896 7.54684 7.22062
#
# Compressibility (1/GPa) = 0.01617848
#
# Stress axis : x y z
#
# Youngs Moduli (GPa) = 144.48512 77.80615 116.06389
#
# Poissons Ratio (x) = 0.12497 0.22972
# Poissons Ratio (y) = 0.23206 0.29249
# Poissons Ratio (z) = 0.28598 0.19608
#
# Static dielectric constant tensor:
#      x y z
#    x 1.762560 0.000000 0.012250 
#    y 0.000000 1.830310 0.000000 
#    z 0.012250 0.000000 1.810410 
# 
# From -- ./inp_files/86172.got.cif
#   From: 2010.05.17/outbox.cif.g08.bks.cpg/sg15_44_cif.got.tgz:86172.got - 2010.06.03 18:47:42.
