data_PCOD9285769
_publ_section_title
;
Structure prediction by ZEFSAII (Michael W. Deem and Ramdas Pophale) SiO2 
 PCOD9285769
Probable space group: C 2/C
;
_chemical_formula_sum "Si O2"
_cell_formula_units_Z 64
_cell_length_a 15.064936
_cell_length_b 16.538527
_cell_length_c 16.059052
_cell_angle_alpha 90.000000
_cell_angle_beta 132.219321
_cell_angle_gamma 90.000000
_cell_volume 2963.158290
_symmetry_space_group_name_H-M "C 2/C"
_symmetry_group_IT_number 15
_symmetry_cell_setting 'monoclinic'
loop_
_space_group_symop_operation_xyz
x,y,z
-x,y,1/2-z
-x,-y,-z
x,-y,1/2+z
1/2+x,1/2+y,z
1/2-x,1/2+y,1/2-z
1/2-x,1/2-y,-z
1/2+x,1/2-y,1/2+z
loop_
_atom_site_type_symbol
_atom_site_label
_atom_site_fract_x
_atom_site_fract_y
_atom_site_fract_z
Si Si1 0.242146 0.787293 0.295036
Si Si2 0.688382 0.633331 0.058850
Si Si3 0.978515 0.636988 0.868770
Si Si4 0.790209 0.533255 0.656225
Si Si5 0.143720 0.929316 0.344776
Si Si6 0.914654 0.155830 0.939558
Si Si7 0.214658 0.587538 0.040147
Si Si8 0.593040 0.708483 0.374729
O O1 0.253986 0.715488 0.369200
O O2 0.375308 0.808798 0.345854
O O3 0.188574 0.865818 0.305632
O O4 0.152168 0.776684 0.159586
O O5 0.762626 0.560654 0.147185
O O6 0.684437 0.610504 0.958597
O O7 0.548107 0.636263 0.994793
O O8 0.906667 0.568094 0.774817
O O9 0.057517 0.697838 0.861455
O O10 0.080977 0.597863 0.990763
O O11 0.674980 0.579914 0.620030
O O12 0.797224 0.556849 0.563205
O O13 0.000000 0.937342 0.250000
O O14 0.205496 0.016555 0.370199
O O15 0.919772 0.177271 0.039900
O O16 0.282173 0.674118 0.080900
O O17 0.500000 0.672932 0.250000
#
# Coordination Sequence:
#
# PCOD9285769 Si02
#       8
#     8   8   8   8   8   8   8   8
#     4  11  24  43  67 102 133 175 218 279 342 387
#     4  11  21  44  69  94 128 178 229 268 330 400
#     4  11  22  42  63  95 142 170 213 284 337 399
#     4   9  21  38  66  94 128 179 220 272 332 391
#     4  11  23  44  69  93 133 176 228 279 321 394
#     4  10  21  42  66  96 134 169 218 277 327 397
#     4  10  22  39  65  97 130 177 225 267 336 399
#     4  11  22  41  68  98 133 175 221 267 332 400
#
# _framework density 21.598576000000001
#
# number of rings (size 3 to 8) (size 9 to 14) (size 15 to 20)
#    0.000    1.500    2.500    2.625    0.000    2.500 
#    6.750    1.250    0.000    0.000    0.000    0.000 
#    0.000    0.000    0.000    0.000    0.000    0.000 
#
# Total GULP energy -178631.243164 kJ/mol
# GULP energy per Si atom -5582.226349 kJ/mol
# Density = 2.154942 g / cm^3
# Si number density = 21.598576 Si / 1000 Ang^3
#
#
#
# Elastic Constant Matrix: (Units=GPa)
#
#
# Indices 1 2 3 4 5 6 
#
# 1 47.1311 38.4047 41.9520 0.0000 22.8673 0.0000
# 2 38.4047 118.2366 51.2602 0.0000 20.8202 0.0000
# 3 41.9520 51.2602 119.2291 0.0000 12.2476 0.0000
# 4 0.0000 0.0000 0.0000 27.7416 0.0000 3.2424
# 5 22.8673 20.8202 12.2476 0.0000 41.4788 0.0000
# 6 0.0000 0.0000 0.0000 3.2424 0.0000 13.6013
#
#
#
# Elastic Compliance Matrix: (Units=1/GPa)
#
#
# Indices 1 2 3 4 5 6 
#
# 1 0.045709 -0.006686 -0.011308 0.000000 -0.018504 0.000000
# 2 -0.006686 0.012067 -0.002673 0.000000 -0.001582 0.000000
# 3 -0.011308 -0.002673 0.013135 0.000000 0.003697 0.000000
# 4 0.000000 0.000000 0.000000 0.037080 0.000000 -0.008839
# 5 -0.018504 -0.001582 0.003697 0.000000 0.034012 0.000000
# 6 0.000000 0.000000 0.000000 -0.008839 0.000000 0.075630
#
#
# Mechanical properties :
#
#
# Convention : Reuss Voigt Hill
#
# Bulk Modulus (GPa) = 33.80945 60.87006 47.33975
# Shear Modulus (GPa) = 18.59947 26.76301 22.68124
#
# Velocity S-wave (km/s) = 2.93771 3.52392 3.24408
# Velocity P-wave (km/s) = 5.21482 6.69335 5.99981
#
# Compressibility (1/GPa) = 0.02957753
#
# Stress axis : x y z
#
# Youngs Moduli (GPa) = 21.87772 82.87371 76.13080
#
# Poissons Ratio (x) = 0.55409 0.86087
# Poissons Ratio (y) = 0.14627 0.20348
# Poissons Ratio (z) = 0.24739 0.22150
#
# Static dielectric constant tensor:
#      x y z
#    x 1.770870 0.000000 -0.000450 
#    y 0.000000 1.808110 0.000000 
#    z -0.000450 0.000000 1.864700 
# 
# From -- ./inp_files/155505.got.cif
#   From: 2010.05.17/outbox.cif.g08.bks.cpg/sg15_78_cif.got.tgz:155505.got - 2010.06.03 18:47:42.
