data_PCOD9285596
_publ_section_title
;
Structure prediction by ZEFSAII (Michael W. Deem and Ramdas Pophale) SiO2 
 PCOD9285596
Probable space group: C 2/C
;
_chemical_formula_sum "Si O2"
_cell_formula_units_Z 56
_cell_length_a 13.698211
_cell_length_b 8.083244
_cell_length_c 22.994444
_cell_angle_alpha 90.000000
_cell_angle_beta 91.930698
_cell_angle_gamma 90.000000
_cell_volume 2544.637000
_symmetry_space_group_name_H-M "C 2/C"
_symmetry_group_IT_number 15
_symmetry_cell_setting 'monoclinic'
loop_
_space_group_symop_operation_xyz
x,y,z
-x,y,1/2-z
-x,-y,-z
x,-y,1/2+z
1/2+x,1/2+y,z
1/2-x,1/2+y,1/2-z
1/2-x,1/2-y,-z
1/2+x,1/2-y,1/2+z
loop_
_atom_site_type_symbol
_atom_site_label
_atom_site_fract_x
_atom_site_fract_y
_atom_site_fract_z
Si Si1 0.159652 0.293722 0.363817
Si Si2 0.678243 0.572819 0.711514
Si Si3 0.780733 0.092760 0.962523
Si Si4 0.333117 0.431038 0.077433
Si Si5 0.041925 0.191177 0.618216
Si Si6 0.232897 0.295288 0.180771
Si Si7 0.528208 0.974509 0.186504
O O1 0.245477 0.299953 0.317520
O O2 0.194494 0.425469 0.413776
O O3 0.160003 0.114700 0.393630
O O4 0.057404 0.350194 0.335228
O O5 0.575818 0.590669 0.676596
O O6 0.682390 0.619263 0.778912
O O7 0.722698 0.394457 0.698353
O O8 0.875394 0.144818 0.927158
O O9 0.750000 0.250000 0.000000
O O10 0.803542 0.951827 0.009672
O O11 0.438899 0.353913 0.089137
O O12 0.257009 0.327043 0.114200
O O13 0.039870 0.379458 0.640165
O O14 0.131011 0.382425 0.193449
O O15 0.500000 0.040507 0.250000
#
# Coordination Sequence:
#
# PCOD9285596 Si02
#       7
#     8   8   8   8   8   8   8
#     4  10  21  42  64  94 128 164 212 262 314 379
#     4  11  23  41  61  93 125 172 205 269 318 383
#     4   9  20  43  68  92 129 170 214 266 318 374
#     4  11  23  41  67  96 127 173 211 263 319 379
#     4  11  24  41  65  95 132 167 218 259 322 378
#     4  12  24  40  64  90 132 163 218 259 327 379
#     4  12  24  40  62  94 128 169 212 264 321 384
#
# _framework density 22.007069000000001
#
# number of rings (size 3 to 8) (size 9 to 14) (size 15 to 20)
#    0.000    1.143    1.429    6.429    2.000    0.000 
#    0.000   14.286    0.000    0.000    0.000    0.000 
#    0.000    0.000    0.000    0.000    0.000    0.000 
#
# Total GULP energy -156612.460187 kJ/mol
# GULP energy per Si atom -5593.302150 kJ/mol
# Density = 2.195698 g / cm^3
# Si number density = 22.007069 Si / 1000 Ang^3
#
#
#
# Elastic Constant Matrix: (Units=GPa)
#
#
# Indices 1 2 3 4 5 6 
#
# 1 64.8225 -17.0286 0.4973 0.0000 4.7550 0.0000
# 2 -17.0286 64.8212 -10.4193 0.0000 -0.6488 0.0000
# 3 0.4973 -10.4193 70.3373 0.0000 4.0420 0.0000
# 4 0.0000 0.0000 0.0000 28.0500 0.0000 1.4672
# 5 4.7550 -0.6488 4.0420 0.0000 35.5443 0.0000
# 6 0.0000 0.0000 0.0000 1.4672 0.0000 26.0671
#
#
#
# Elastic Compliance Matrix: (Units=1/GPa)
#
#
# Indices 1 2 3 4 5 6 
#
# 1 0.016765 0.004490 0.000675 0.000000 -0.002238 0.000000
# 2 0.004490 0.017006 0.002521 0.000000 -0.000577 0.000000
# 3 0.000675 0.002521 0.014684 0.000000 -0.001714 0.000000
# 4 0.000000 0.000000 0.000000 0.035756 0.000000 -0.002013
# 5 -0.002238 -0.000577 -0.001714 0.000000 0.028618 0.000000
# 6 0.000000 0.000000 0.000000 -0.002013 0.000000 0.038476
#
#
# Mechanical properties :
#
#
# Convention : Reuss Voigt Hill
#
# Bulk Modulus (GPa) = 15.66709 16.23110 15.94910
# Shear Modulus (GPa) = 31.80485 33.06104 32.43294
#
# Velocity S-wave (km/s) = 3.80572 3.88015 3.84311
# Velocity P-wave (km/s) = 5.14256 5.24075 5.19188
#
# Compressibility (1/GPa) = 0.06382806
#
# Stress axis : x y z
#
# Youngs Moduli (GPa) = 59.64695 58.80259 68.09989
#
# Poissons Ratio (x) = -0.26405 -0.04598
# Poissons Ratio (y) = -0.26784 -0.17165
# Poissons Ratio (z) = -0.04028 -0.14822
#
# Static dielectric constant tensor:
#      x y z
#    x 1.762670 0.000000 0.008670 
#    y 0.000000 1.809820 0.000000 
#    z 0.008670 0.000000 1.842430 
# 
# From -- ./inp_files/242805.got.cif
#   From: 2010.05.17/outbox.cif.g08.bks.cpg/sg15_122_cif.got.tgz:242805.got - 2010.06.03 18:47:42.
