data_PCOD9285659
_publ_section_title
;
Structure prediction by ZEFSAII (Michael W. Deem and Ramdas Pophale) SiO2 
 PCOD9285659
Probable space group: C 2/C
;
_chemical_formula_sum "Si O2"
_cell_formula_units_Z 52
_cell_length_a 6.054198
_cell_length_b 13.435918
_cell_length_c 29.222149
_cell_angle_alpha 90.000000
_cell_angle_beta 104.854632
_cell_angle_gamma 90.000000
_cell_volume 2297.595869
_symmetry_space_group_name_H-M "C 2/C"
_symmetry_group_IT_number 15
_symmetry_cell_setting 'monoclinic'
loop_
_space_group_symop_operation_xyz
x,y,z
-x,y,1/2-z
-x,-y,-z
x,-y,1/2+z
1/2+x,1/2+y,z
1/2-x,1/2+y,1/2-z
1/2-x,1/2-y,-z
1/2+x,1/2-y,1/2+z
loop_
_atom_site_type_symbol
_atom_site_label
_atom_site_fract_x
_atom_site_fract_y
_atom_site_fract_z
Si Si1 0.932536 0.508887 0.292978
Si Si2 0.000000 0.149673 0.250000
Si Si3 0.297316 0.224825 0.926820
Si Si4 0.656512 0.989220 0.963784
Si Si5 0.471238 0.327894 0.485225
Si Si6 0.872807 0.859510 0.842028
Si Si7 0.215918 0.513817 0.620309
O O1 0.721433 0.581026 0.270170
O O2 0.849345 0.449767 0.332530
O O3 0.000000 0.452828 0.250000
O O4 0.146500 0.576924 0.318702
O O5 0.049135 0.194346 0.201736
O O6 0.076603 0.233540 0.948572
O O7 0.323135 0.287902 0.882007
O O8 0.999842 0.457844 0.913171
O O9 0.517175 0.253330 0.970530
O O10 0.777380 0.094509 0.959976
O O11 0.265438 0.110275 0.910182
O O12 0.500000 0.000000 0.000000
O O13 0.843362 0.907831 0.985642
O O14 0.069371 0.939950 0.866060
#
# Coordination Sequence:
#
# PCOD9285659 Si02
#       7
#     8   4   8   8   8   8   8
#     4   9  19  40  69  89 122 162 201 256 323 383
#     4   8  18  40  70  92 116 166 208 248 324 400
#     4  11  23  41  58  93 128 165 214 269 316 384
#     4  11  21  41  64  85 122 172 218 261 319 383
#     4  10  24  41  58  86 130 170 213 270 320 377
#     4  10  21  42  65  92 130 165 210 266 330 394
#     4  11  23  38  63  95 120 167 217 261 320 390
#
# _framework density 22.632352999999998
#
# number of rings (size 3 to 8) (size 9 to 14) (size 15 to 20)
#    0.000    1.846    1.538    1.846    4.308    0.615 
#   12.462    0.000   27.077    0.000    0.000    0.000 
#    0.000    0.000    0.000    0.000    0.000    0.000 
#
# Total GULP energy -145006.695455 kJ/mol
# GULP energy per Si atom -5577.180594 kJ/mol
# Density = 2.258084 g / cm^3
# Si number density = 22.632353 Si / 1000 Ang^3
#
#
#
# Elastic Constant Matrix: (Units=GPa)
#
#
# Indices 1 2 3 4 5 6 
#
# 1 75.5620 29.6116 45.4031 0.0000 18.4903 0.0000
# 2 29.6116 92.5371 34.6538 0.0000 -7.6768 0.0000
# 3 45.4031 34.6538 153.9593 0.0000 -18.1048 0.0000
# 4 0.0000 0.0000 0.0000 30.8368 0.0000 -11.7538
# 5 18.4903 -7.6768 -18.1048 0.0000 58.7799 0.0000
# 6 0.0000 0.0000 0.0000 -11.7538 0.0000 35.2652
#
#
#
# Elastic Compliance Matrix: (Units=1/GPa)
#
#
# Indices 1 2 3 4 5 6 
#
# 1 0.021287 -0.005266 -0.006185 0.000000 -0.009289 0.000000
# 2 -0.005266 0.013136 -0.001045 0.000000 0.003050 0.000000
# 3 -0.006185 -0.001045 0.009097 0.000000 0.004611 0.000000
# 4 0.000000 0.000000 0.000000 0.037148 0.000000 0.012381
# 5 -0.009289 0.003050 0.004611 0.000000 0.021753 0.000000
# 6 0.000000 0.000000 0.000000 0.012381 0.000000 0.032483
#
#
# Mechanical properties :
#
#
# Convention : Reuss Voigt Hill
#
# Bulk Modulus (GPa) = 53.97273 60.15504 57.06389
# Shear Modulus (GPa) = 30.10739 39.13570 34.62155
#
# Velocity S-wave (km/s) = 3.65126 4.16287 3.91543
# Velocity P-wave (km/s) = 6.45561 7.05286 6.76084
#
# Compressibility (1/GPa) = 0.01852787
#
# Stress axis : x y z
#
# Youngs Moduli (GPa) = 46.97654 76.12624 109.93238
#
# Poissons Ratio (x) = 0.40091 0.67989
# Poissons Ratio (y) = 0.24740 0.11487
# Poissons Ratio (z) = 0.29053 0.07955
#
# Static dielectric constant tensor:
#      x y z
#    x 1.928380 0.000000 -0.040730 
#    y 0.000000 1.845620 0.000000 
#    z -0.040730 0.000000 1.904520 
# 
# From -- ./inp_files/305453.got.cif
#   From: 2010.05.17/outbox.cif.g08.bks.cpg/sg15_153_cif.got.tgz:305453.got - 2010.06.03 18:47:42.
