data_PCOD9285640
_publ_section_title
;
Structure prediction by ZEFSAII (Michael W. Deem and Ramdas Pophale) SiO2 
 PCOD9285640
Probable space group: C 2/C
;
_chemical_formula_sum "Si O2"
_cell_formula_units_Z 64
_cell_length_a 10.228136
_cell_length_b 30.837002
_cell_length_c 13.198810
_cell_angle_alpha 90.000000
_cell_angle_beta 41.735423
_cell_angle_gamma 90.000000
_cell_volume 2771.256025
_symmetry_space_group_name_H-M "C 2/C"
_symmetry_group_IT_number 15
_symmetry_cell_setting 'monoclinic'
loop_
_space_group_symop_operation_xyz
x,y,z
-x,y,1/2-z
-x,-y,-z
x,-y,1/2+z
1/2+x,1/2+y,z
1/2-x,1/2+y,1/2-z
1/2-x,1/2-y,-z
1/2+x,1/2-y,1/2+z
loop_
_atom_site_type_symbol
_atom_site_label
_atom_site_fract_x
_atom_site_fract_y
_atom_site_fract_z
Si Si1 0.394484 0.148348 0.556764
Si Si2 0.575779 0.451846 0.947609
Si Si3 0.395379 0.756720 0.109450
Si Si4 0.346489 0.937732 0.601276
Si Si5 0.122758 0.870925 0.402662
Si Si6 0.728100 0.823600 0.588882
Si Si7 0.769916 0.711208 0.881079
Si Si8 0.132959 0.507681 0.076724
O O1 0.480397 0.196277 0.529559
O O2 0.558401 0.110435 0.462969
O O3 0.231962 0.136597 0.733990
O O4 0.276336 0.159597 0.523126
O O5 0.672076 0.439466 0.784803
O O6 0.728210 0.454964 0.953195
O O7 0.500000 0.500000 0.000000
O O8 0.392769 0.421004 0.070231
O O9 0.293957 0.725033 0.085378
O O10 0.233518 0.769567 0.287524
O O11 0.584562 0.731394 0.044451
O O12 0.295960 0.965074 0.527851
O O13 0.511159 0.965522 0.564757
O O14 0.241789 0.840220 0.408782
O O15 0.898133 0.853505 0.538977
O O16 0.500000 0.829488 0.750000
O O17 0.000000 0.717719 0.750000
O O18 0.000000 0.493704 0.250000
#
# Coordination Sequence:
#
# PCOD9285640 Si02
#       8
#     8   8   8   8   8   8   8   8
#     4  11  22  38  63  94 136 173 217 282 344 418
#     4  11  24  43  65  95 135 172 226 294 355 410
#     4  10  22  38  61  98 129 174 227 272 335 417
#     4  10  22  42  67  96 127 178 234 269 354 419
#     4  10  24  40  61 100 129 171 229 285 340 416
#     4  11  21  38  65  95 138 175 214 274 344 419
#     4  10  21  42  65  89 128 177 229 280 341 401
#     4   9  21  41  67  92 125 175 226 280 345 414
#
# _framework density 23.094221000000001
#
# number of rings (size 3 to 8) (size 9 to 14) (size 15 to 20)
#    0.000    1.750    0.000    3.375    5.250    4.500 
#    4.500    0.000    0.000    0.000    0.000    0.000 
#    0.000    0.000    0.000    0.000    0.000    0.000 
#
# Total GULP energy -178157.325902 kJ/mol
# GULP energy per Si atom -5567.416434 kJ/mol
# Density = 2.304166 g / cm^3
# Si number density = 23.094221 Si / 1000 Ang^3
#
#
#
# Elastic Constant Matrix: (Units=GPa)
#
#
# Indices 1 2 3 4 5 6 
#
# 1 34.7111 8.5941 20.8115 0.0000 -2.0293 0.0000
# 2 8.5941 164.4165 61.2612 0.0000 5.6022 0.0000
# 3 20.8115 61.2612 75.7010 0.0000 -13.8873 0.0000
# 4 0.0000 0.0000 0.0000 -33.0518 0.0000 13.7804
# 5 -2.0293 5.6022 -13.8873 0.0000 22.5948 0.0000
# 6 0.0000 0.0000 0.0000 13.7804 0.0000 7.5699
#
#
#
# Elastic Compliance Matrix: (Units=1/GPa)
#
#
# Indices 1 2 3 4 5 6 
#
# 1 0.035860 0.003472 -0.013791 0.000000 -0.006116 0.000000
# 2 0.003472 0.010267 -0.010903 0.000000 -0.008935 0.000000
# 3 -0.013791 -0.010903 0.029409 0.000000 0.019540 0.000000
# 4 0.000000 0.000000 0.000000 -0.017200 0.000000 0.031312
# 5 -0.006116 -0.008935 0.019540 0.000000 0.057934 0.000000
# 6 0.000000 0.000000 0.000000 0.031312 0.000000 0.075101
#
#
# Mechanical properties :
#
#
# Convention : Reuss Voigt Hill
#
# Bulk Modulus (GPa) = 30.21642 50.68468 40.45055
# Shear Modulus (GPa) = 20.42122 11.70004 16.06063
#
# Velocity S-wave (km/s) = 2.97687 2.25327 2.63998
# Velocity P-wave (km/s) = 4.99280 5.36322 5.18132
#
# Compressibility (1/GPa) = 0.03309459
#
# Stress axis : x y z
#
# Youngs Moduli (GPa) = 27.88600 97.39643 34.00361
#
# Poissons Ratio (x) = -0.33819 0.46893
# Poissons Ratio (y) = -0.09683 0.37073
# Poissons Ratio (z) = 0.38457 1.06187
#
# Static dielectric constant tensor:
#      x y z
#    x 1.875690 0.000000 0.127680 
#    y 0.000000 1.916970 0.000000 
#    z 0.127680 0.000000 1.872210 
# 
# From -- ./inp_files/149156.got.cif
#   From: 2010.05.17/outbox.cif.g08.bks.cpg/sg15_75_cif.got.tgz:149156.got - 2010.06.03 18:47:42.
