data_PCOD9285278
_publ_section_title
;
Structure prediction by ZEFSAII (Michael W. Deem and Ramdas Pophale) SiO2 
 PCOD9285278
Probable space group: C 2/C
;
_chemical_formula_sum "Si O2"
_cell_formula_units_Z 52
_cell_length_a 10.834193
_cell_length_b 17.128570
_cell_length_c 20.198701
_cell_angle_alpha 90.000000
_cell_angle_beta 38.825345
_cell_angle_gamma 90.000000
_cell_volume 2350.027681
_symmetry_space_group_name_H-M "C 2/C"
_symmetry_group_IT_number 15
_symmetry_cell_setting 'monoclinic'
loop_
_space_group_symop_operation_xyz
x,y,z
-x,y,1/2-z
-x,-y,-z
x,-y,1/2+z
1/2+x,1/2+y,z
1/2-x,1/2+y,1/2-z
1/2-x,1/2-y,-z
1/2+x,1/2-y,1/2+z
loop_
_atom_site_type_symbol
_atom_site_label
_atom_site_fract_x
_atom_site_fract_y
_atom_site_fract_z
Si Si1 0.040409 0.678584 0.654594
Si Si2 0.639046 0.748370 0.820138
Si Si3 0.534654 0.917049 0.908259
Si Si4 0.152419 0.574403 0.869455
Si Si5 0.801973 0.458808 0.875919
Si Si6 0.000000 0.193455 0.750000
Si Si7 0.585487 0.372006 0.459201
O O1 0.276843 0.684131 0.552823
O O2 0.000000 0.666621 0.750000
O O3 0.872611 0.741162 0.705869
O O4 0.981026 0.605903 0.634213
O O5 0.608255 0.830463 0.867131
O O6 0.495290 0.745682 0.817109
O O7 0.582895 0.674847 0.890625
O O8 0.367886 0.939762 0.923907
O O9 0.699256 0.984791 0.833430
O O10 0.454995 0.921933 0.015640
O O11 0.326376 0.634729 0.805054
O O12 0.701778 0.544495 0.907847
O O13 0.000000 0.453304 0.750000
O O14 0.633228 0.395670 0.927637
#
# Coordination Sequence:
#
# PCOD9285278 Si02
#       7
#     8   8   8   8   8   4   8
#     4   9  18  41  72  93 128 180 224 265 338 411
#     4  10  22  41  68  98 133 171 228 282 336 401
#     4  11  24  42  64  99 135 173 225 283 332 407
#     4  10  22  42  66  92 141 179 215 275 348 409
#     4  11  23  39  69 101 130 175 244 274 321 410
#     4  10  22  40  64  94 126 182 222 272 348 390
#     4  10  21  41  69  93 134 182 215 284 342 392
#
# _framework density 22.127399
#
# number of rings (size 3 to 8) (size 9 to 14) (size 15 to 20)
#    0.000    1.846    1.538    2.308    3.231    2.462 
#    6.923    3.077    0.000    0.000    0.000    0.000 
#    0.000    0.000    0.000    0.000    0.000    0.000 
#
# Total GULP energy -144970.045047 kJ/mol
# GULP energy per Si atom -5575.770963 kJ/mol
# Density = 2.207704 g / cm^3
# Si number density = 22.127399 Si / 1000 Ang^3
#
#
#
# Elastic Constant Matrix: (Units=GPa)
#
#
# Indices 1 2 3 4 5 6 
#
# 1 124.8939 31.6165 31.4414 -0.0017 5.1450 -0.0007
# 2 31.6165 105.4317 33.4406 0.0052 0.6458 -0.0033
# 3 31.4414 33.4406 52.2632 0.0055 -15.5403 -0.0006
# 4 -0.0017 0.0052 0.0055 19.2913 0.0010 -0.0171
# 5 5.1450 0.6458 -15.5403 0.0010 34.6387 0.0001
# 6 -0.0007 -0.0033 -0.0006 -0.0171 0.0001 32.3842
#
#
#
# Elastic Compliance Matrix: (Units=1/GPa)
#
#
# Indices 1 2 3 4 5 6 
#
# 1 0.010155 -0.000808 -0.006966 0.000003 -0.004618 0.000000
# 2 -0.000808 0.012518 -0.008721 -0.000001 -0.004026 0.000001
# 3 -0.006966 -0.008721 0.033765 -0.000009 0.016345 0.000000
# 4 0.000003 -0.000001 -0.000009 0.051837 -0.000006 0.000027
# 5 -0.004618 -0.004026 0.016345 -0.000006 0.036964 0.000000
# 6 0.000000 0.000001 0.000000 0.000027 0.000000 0.030879
#
#
# Mechanical properties :
#
#
# Convention : Reuss Voigt Hill
#
# Bulk Modulus (GPa) = 42.64515 52.84289 47.74402
# Shear Modulus (GPa) = 23.04976 29.66886 26.35931
#
# Velocity S-wave (km/s) = 3.23101 3.66569 3.45520
# Velocity P-wave (km/s) = 5.76487 6.46912 6.12712
#
# Compressibility (1/GPa) = 0.02344933
#
# Stress axis : x y z
#
# Youngs Moduli (GPa) = 98.47257 79.88717 29.61668
#
# Poissons Ratio (x) = 0.06452 0.20631
# Poissons Ratio (y) = 0.07952 0.25828
# Poissons Ratio (z) = 0.68595 0.69667
#
# Static dielectric constant tensor:
#      x y z
#    x 1.840650 0.000000 -0.063300 
#    y 0.000000 1.894350 0.000010 
#    z -0.063300 0.000010 1.752590 
# 
# From -- ./inp_files/239747.got.cif
#   From: 2010.05.17/outbox.cif.g08.bks.cpg/sg15_120_cif.got.tgz:239747.got - 2010.06.03 18:47:42.
