data_PCOD9285893
_publ_section_title
;
Structure prediction by ZEFSAII (Michael W. Deem and Ramdas Pophale) SiO2 
 PCOD9285893
Probable space group: C 2/C
;
_chemical_formula_sum "Si O2"
_cell_formula_units_Z 48
_cell_length_a 14.229290
_cell_length_b 13.834159
_cell_length_c 29.223677
_cell_angle_alpha 90.000000
_cell_angle_beta 157.168226
_cell_angle_gamma 90.000000
_cell_volume 2232.197028
_symmetry_space_group_name_H-M "C 2/C"
_symmetry_group_IT_number 15
_symmetry_cell_setting 'monoclinic'
loop_
_space_group_symop_operation_xyz
x,y,z
-x,y,1/2-z
-x,-y,-z
x,-y,1/2+z
1/2+x,1/2+y,z
1/2-x,1/2+y,1/2-z
1/2-x,1/2-y,-z
1/2+x,1/2-y,1/2+z
loop_
_atom_site_type_symbol
_atom_site_label
_atom_site_fract_x
_atom_site_fract_y
_atom_site_fract_z
Si Si1 0.737662 0.388684 0.119084
Si Si2 0.959244 0.275181 0.786936
Si Si3 0.041778 0.533129 0.939819
Si Si4 0.497363 0.554507 0.694448
Si Si5 0.936247 0.244167 0.041934
Si Si6 0.782243 0.945932 0.960633
O O1 0.633286 0.313765 0.034890
O O2 0.764104 0.491598 0.105703
O O3 0.000000 0.352399 0.250000
O O4 0.559964 0.410772 0.081706
O O5 0.995844 0.165310 0.819576
O O6 0.681960 0.303203 0.670140
O O7 0.000000 0.279139 0.750000
O O8 0.128193 0.349136 0.888725
O O9 0.235784 0.486050 0.061733
O O10 0.012405 0.642962 0.944292
O O11 0.193452 0.514772 0.961294
O O12 0.760513 0.503911 0.802311
O O13 0.500000 0.555954 0.750000
O O14 0.750000 0.250000 0.000000
#
# Coordination Sequence:
#
# PCOD9285893 Si02
#       6
#     8   8   8   8   8   8
#     4  11  25  40  66 102 140 176 228 285 345 413
#     4  10  21  42  68  90 133 183 221 270 352 409
#     4  11  25  41  71  99 133 179 235 287 341 412
#     4  10  24  46  68  96 134 184 233 278 346 420
#     4  11  23  42  63  96 138 182 218 279 352 407
#     4  11  24  41  69 101 136 177 229 283 348 416
#
# _framework density 21.503478999999999
#
# number of rings (size 3 to 8) (size 9 to 14) (size 15 to 20)
#    0.000    1.333    3.333    1.000    7.000    1.333 
#    3.000    0.000    0.000    0.000    0.000    0.000 
#    0.000    0.000    0.000    0.000    0.000    0.000 
#
# Total GULP energy -133826.127585 kJ/mol
# GULP energy per Si atom -5576.088649 kJ/mol
# Density = 2.145454 g / cm^3
# Si number density = 21.503479 Si / 1000 Ang^3
#
#
#
# Elastic Constant Matrix: (Units=GPa)
#
#
# Indices 1 2 3 4 5 6 
#
# 1 72.7908 3.6203 10.8759 0.0007 29.2811 0.0005
# 2 3.6203 69.8276 47.0652 0.0006 3.2066 0.0003
# 3 10.8759 47.0652 107.1109 0.0010 21.9052 0.0004
# 4 0.0007 0.0006 0.0010 26.8800 0.0013 1.9695
# 5 29.2811 3.2066 21.9052 0.0013 32.2051 0.0005
# 6 0.0005 0.0003 0.0004 1.9695 0.0005 25.9427
#
#
#
# Elastic Compliance Matrix: (Units=1/GPa)
#
#
# Indices 1 2 3 4 5 6 
#
# 1 0.022354 -0.002394 0.003357 0.000000 -0.022369 0.000000
# 2 -0.002394 0.021238 -0.010572 0.000000 0.007254 0.000000
# 3 0.003357 -0.010572 0.016320 0.000000 -0.013100 0.000000
# 4 0.000000 0.000000 0.000000 0.037410 -0.000002 -0.002840
# 5 -0.022369 0.007254 -0.013100 -0.000002 0.059577 0.000000
# 6 0.000000 0.000000 0.000000 -0.002840 0.000000 0.038762
#
#
# Mechanical properties :
#
#
# Convention : Reuss Voigt Hill
#
# Bulk Modulus (GPa) = 24.57477 41.42802 33.00139
# Shear Modulus (GPa) = 21.88706 29.55008 25.71857
#
# Velocity S-wave (km/s) = 3.19382 3.71104 3.46210
# Velocity P-wave (km/s) = 5.00537 6.13759 5.60017
#
# Compressibility (1/GPa) = 0.04069215
#
# Stress axis : x y z
#
# Youngs Moduli (GPa) = 44.73509 47.08522 61.27473
#
# Poissons Ratio (x) = 0.11275 -0.20571
# Poissons Ratio (y) = 0.10712 0.64782
# Poissons Ratio (z) = -0.15018 0.49781
#
# Static dielectric constant tensor:
#      x y z
#    x 1.943640 0.000020 0.111280 
#    y 0.000020 1.805330 0.000010 
#    z 0.111280 0.000010 1.928790 
# 
# From -- ./inp_files/314133.got.cif
#   From: 2010.05.17/outbox.cif.g08.bks.cpg/sg15_158_cif.got.tgz:314133.got - 2010.06.03 18:47:42.
