data_PCOD9285315
_publ_section_title
;
Structure prediction by ZEFSAII (Michael W. Deem and Ramdas Pophale) SiO2 
 PCOD9285315
Probable space group: C 2/C
;
_chemical_formula_sum "Si O2"
_cell_formula_units_Z 52
_cell_length_a 11.600470
_cell_length_b 19.871258
_cell_length_c 10.765370
_cell_angle_alpha 90.000000
_cell_angle_beta 63.402587
_cell_angle_gamma 90.000000
_cell_volume 2218.973757
_symmetry_space_group_name_H-M "C 2/C"
_symmetry_group_IT_number 15
_symmetry_cell_setting 'monoclinic'
loop_
_space_group_symop_operation_xyz
x,y,z
-x,y,1/2-z
-x,-y,-z
x,-y,1/2+z
1/2+x,1/2+y,z
1/2-x,1/2+y,1/2-z
1/2-x,1/2-y,-z
1/2+x,1/2-y,1/2+z
loop_
_atom_site_type_symbol
_atom_site_label
_atom_site_fract_x
_atom_site_fract_y
_atom_site_fract_z
Si Si1 0.119030 0.544708 0.606580
Si Si2 0.000000 0.848178 0.750000
Si Si3 0.806773 0.609035 0.376271
Si Si4 0.478014 0.869004 0.014429
Si Si5 0.020069 0.920446 0.007926
Si Si6 0.228551 0.138971 0.807636
Si Si7 0.216359 0.296642 0.855411
O O1 0.155131 0.470099 0.631511
O O2 0.230782 0.596582 0.588738
O O3 0.000000 0.564369 0.750000
O O4 0.063795 0.563234 0.497211
O O5 0.988561 0.890119 0.627745
O O6 0.136679 0.809179 0.671601
O O7 0.915458 0.641504 0.410617
O O8 0.658490 0.604212 0.490947
O O9 0.801756 0.651441 0.251670
O O10 0.346739 0.871708 0.157094
O O11 0.584859 0.812942 0.995887
O O12 0.909212 0.893358 0.151945
O O13 0.000000 0.000000 0.000000
O O14 0.211628 0.218139 0.828672
#
# Coordination Sequence:
#
# PCOD9285315 Si02
#       7
#     8   4   8   8   8   8   8
#     4  10  21  41  70 101 135 173 236 299 349 422
#     4  10  26  44  78 102 140 190 234 294 364 410
#     4  11  24  45  70 104 140 186 241 293 363 428
#     4  11  25  43  72 101 141 191 235 300 357 414
#     4  11  24  47  71 106 146 181 237 297 355 431
#     4  11  26  45  70 106 140 189 243 289 356 430
#     4  11  26  45  72 100 146 189 238 296 356 427
#
# _framework density 23.434255
#
# number of rings (size 3 to 8) (size 9 to 14) (size 15 to 20)
#    0.000    1.231    1.538    2.769    7.538    4.923 
#    2.769    0.000    0.000    0.000    0.000    0.000 
#    0.000    0.000    0.000    0.000    0.000    0.000 
#
# Total GULP energy -144933.821971 kJ/mol
# GULP energy per Si atom -5574.377768 kJ/mol
# Density = 2.338092 g / cm^3
# Si number density = 23.434255 Si / 1000 Ang^3
#
#
#
# Elastic Constant Matrix: (Units=GPa)
#
#
# Indices 1 2 3 4 5 6 
#
# 1 160.1647 36.9167 41.0529 0.0000 -21.5235 0.0000
# 2 36.9167 120.2106 14.5754 0.0000 -9.0804 0.0000
# 3 41.0529 14.5754 73.1445 0.0000 -28.6574 0.0000
# 4 0.0000 0.0000 0.0000 -23.0527 0.0000 56.3417
# 5 -21.5235 -9.0804 -28.6574 0.0000 44.7563 0.0000
# 6 0.0000 0.0000 0.0000 56.3417 0.0000 -94.4871
#
#
#
# Elastic Compliance Matrix: (Units=1/GPa)
#
#
# Indices 1 2 3 4 5 6 
#
# 1 0.007725 -0.001862 -0.003547 0.000000 0.001066 0.000000
# 2 -0.001862 0.008998 -0.000512 0.000000 0.000602 0.000000
# 3 -0.003547 -0.000512 0.020097 0.000000 0.011058 0.000000
# 4 0.000000 0.000000 0.000000 0.094848 0.000000 0.056557
# 5 0.001066 0.000602 0.011058 0.000000 0.030059 0.000000
# 6 0.000000 0.000000 0.000000 0.056557 0.000000 0.023141
#
#
# Mechanical properties :
#
#
# Convention : Reuss Voigt Hill
#
# Bulk Modulus (GPa) = 40.03481 59.84554 49.94018
# Shear Modulus (GPa) = 24.38605 2.84164 13.61385
#
# Velocity S-wave (km/s) = 3.22936 1.10238 2.41288
# Velocity P-wave (km/s) = 5.57010 5.21664 5.39626
#
# Compressibility (1/GPa) = 0.02497826
#
# Stress axis : x y z
#
# Youngs Moduli (GPa) = 129.44734 111.13483 49.75869
#
# Poissons Ratio (x) = 0.20691 0.17650
# Poissons Ratio (y) = 0.24100 0.02548
# Poissons Ratio (z) = 0.45916 0.05691
#
# Static dielectric constant tensor:
#      x y z
#    x 1.929230 0.000000 0.066540 
#    y 0.000000 1.852940 0.000000 
#    z 0.066540 0.000000 2.003100 
# 
# From -- ./inp_files/89522.got.cif
#   From: 2010.05.17/outbox.cif.g08.bks.cpg/sg15_45_cif.got.tgz:89522.got - 2010.06.03 18:47:42.
