data_PCOD9285343
_publ_section_title
;
Structure prediction by ZEFSAII (Michael W. Deem and Ramdas Pophale) SiO2 
 PCOD9285343
Probable space group: C 2/C
;
_chemical_formula_sum "Si O2"
_cell_formula_units_Z 40
_cell_length_a 7.846237
_cell_length_b 15.383805
_cell_length_c 18.102088
_cell_angle_alpha 90.000000
_cell_angle_beta 48.602330
_cell_angle_gamma 90.000000
_cell_volume 1639.060576
_symmetry_space_group_name_H-M "C 2/C"
_symmetry_group_IT_number 15
_symmetry_cell_setting 'monoclinic'
loop_
_space_group_symop_operation_xyz
x,y,z
-x,y,1/2-z
-x,-y,-z
x,-y,1/2+z
1/2+x,1/2+y,z
1/2-x,1/2+y,1/2-z
1/2-x,1/2-y,-z
1/2+x,1/2-y,1/2+z
loop_
_atom_site_type_symbol
_atom_site_label
_atom_site_fract_x
_atom_site_fract_y
_atom_site_fract_z
Si Si1 0.246319 0.480060 0.712973
Si Si2 0.487962 0.171588 0.954697
Si Si3 0.982001 0.854313 0.362761
Si Si4 0.458325 0.368852 0.980842
Si Si5 0.738929 0.815232 0.819078
O O1 0.351863 0.569739 0.709532
O O2 0.412393 0.441448 0.601996
O O3 0.233949 0.405914 0.778091
O O4 0.000000 0.493825 0.750000
O O5 0.315425 0.124545 0.948294
O O6 0.362775 0.170240 0.070305
O O7 0.509675 0.274144 0.930501
O O8 0.737960 0.136578 0.895958
O O9 0.962670 0.863941 0.457483
O O10 0.089882 0.758896 0.322012
O O11 0.000000 0.785206 0.750000
#
# Coordination Sequence:
#
# PCOD9285343 Si02
#       5
#     8   8   8   8   8
#     4  12  24  42  66 100 134 175 221 279 330 388
#     4  10  21  43  70  96 130 179 221 267 334 401
#     4  11  24  43  68  99 132 178 223 271 330 400
#     4  10  21  41  70  98 129 175 223 271 330 401
#     4  11  22  44  66  94 139 171 216 278 336 389
#
# _framework density 24.404223000000002
#
# number of rings (size 3 to 8) (size 9 to 14) (size 15 to 20)
#    0.000    1.200    2.000    6.000    0.000    0.800 
#    3.600    1.000    0.000    0.000    0.000    0.000 
#    0.000    0.000    0.000    0.000    0.000    0.000 
#
# Total GULP energy -112210.490492 kJ/mol
# GULP energy per Si atom -5610.524525 kJ/mol
# Density = 2.434868 g / cm^3
# Si number density = 24.404223 Si / 1000 Ang^3
#
#
#
# Elastic Constant Matrix: (Units=GPa)
#
#
# Indices 1 2 3 4 5 6 
#
# 1 155.7409 23.0008 47.5913 -0.0007 -41.5898 0.0001
# 2 23.0008 78.3427 22.7221 -0.0011 0.4400 0.0004
# 3 47.5913 22.7221 65.3333 -0.0004 -13.5265 0.0004
# 4 -0.0007 -0.0011 -0.0004 37.5169 0.0006 0.0587
# 5 -41.5898 0.4400 -13.5265 0.0006 59.8621 -0.0002
# 6 0.0001 0.0004 0.0004 0.0587 -0.0002 29.9921
#
#
#
# Elastic Compliance Matrix: (Units=1/GPa)
#
#
# Indices 1 2 3 4 5 6 
#
# 1 0.009786 -0.001302 -0.005525 0.000000 0.005560 0.000000
# 2 -0.001302 0.014464 -0.004502 0.000000 -0.002028 0.000000
# 3 -0.005525 -0.004502 0.021095 0.000000 0.000961 0.000000
# 4 0.000000 0.000000 0.000000 0.026655 0.000000 -0.000052
# 5 0.005560 -0.002028 0.000961 0.000000 0.020800 0.000000
# 6 0.000000 0.000000 0.000000 -0.000052 0.000000 0.033342
#
#
# Mechanical properties :
#
#
# Convention : Reuss Voigt Hill
#
# Bulk Modulus (GPa) = 44.07553 54.00503 49.04028
# Shear Modulus (GPa) = 31.97701 39.21441 35.59571
#
# Velocity S-wave (km/s) = 3.62374 4.01293 3.82329
# Velocity P-wave (km/s) = 5.96729 6.60673 6.29513
#
# Compressibility (1/GPa) = 0.02268833
#
# Stress axis : x y z
#
# Youngs Moduli (GPa) = 102.18348 69.13838 47.40407
#
# Poissons Ratio (x) = 0.09002 0.26189
# Poissons Ratio (y) = 0.13305 0.21340
# Poissons Ratio (z) = 0.56453 0.31124
#
# Static dielectric constant tensor:
#      x y z
#    x 1.927490 0.000000 0.025970 
#    y 0.000000 1.911590 0.000000 
#    z 0.025970 0.000000 1.945020 
# 
# From -- ./inp_files/133163.got.cif
#   From: 2010.05.17/outbox.cif.g08.bks.cpg/sg15_67_cif.got.tgz:133163.got - 2010.06.03 18:47:42.
