data_PCOD9285608
_publ_section_title
;
Structure prediction by ZEFSAII (Michael W. Deem and Ramdas Pophale) SiO2 
 PCOD9285608
Probable space group: C 2/C
;
_chemical_formula_sum "Si O2"
_cell_formula_units_Z 52
_cell_length_a 23.245404
_cell_length_b 5.217477
_cell_length_c 19.712287
_cell_angle_alpha 90.000000
_cell_angle_beta 122.336071
_cell_angle_gamma 90.000000
_cell_volume 2020.007349
_symmetry_space_group_name_H-M "C 2/C"
_symmetry_group_IT_number 15
_symmetry_cell_setting 'monoclinic'
loop_
_space_group_symop_operation_xyz
x,y,z
-x,y,1/2-z
-x,-y,-z
x,-y,1/2+z
1/2+x,1/2+y,z
1/2-x,1/2+y,1/2-z
1/2-x,1/2-y,-z
1/2+x,1/2-y,1/2+z
loop_
_atom_site_type_symbol
_atom_site_label
_atom_site_fract_x
_atom_site_fract_y
_atom_site_fract_z
Si Si1 0.938326 0.214868 0.532712
Si Si2 0.384430 0.012400 0.784546
Si Si3 0.389217 0.408463 0.621356
Si Si4 0.000000 0.469284 0.250000
Si Si5 0.200269 0.259360 0.871245
Si Si6 0.408744 0.455567 0.382748
Si Si7 0.824217 0.528322 0.498675
O O1 0.895822 0.055667 0.450189
O O2 0.898982 0.482559 0.513424
O O3 0.931197 0.103139 0.603002
O O4 0.016308 0.177020 0.564282
O O5 0.451003 0.930395 0.780600
O O6 0.319287 0.983240 0.693013
O O7 0.368185 0.784515 0.827607
O O8 0.401409 0.284620 0.831713
O O9 0.357954 0.540822 0.667166
O O10 0.442162 0.194513 0.675752
O O11 0.328553 0.310674 0.533446
O O12 0.269480 0.096936 0.914143
O O13 0.187903 0.372698 0.938727
#
# Coordination Sequence:
#
# PCOD9285608 Si02
#       7
#     8   8   8   4   8   8   8
#     4  10  24  41  65  96 129 183 229 279 338 410
#     4  12  25  42  65  99 135 178 218 288 342 412
#     4  11  21  39  67 101 135 179 221 294 344 414
#     4  12  22  38  66 100 142 166 228 286 372 414
#     4  10  23  38  64  98 134 174 229 276 351 405
#     4  11  26  43  67  96 139 174 231 279 342 407
#     4  10  21  42  64  95 133 180 226 282 337 417
#
# _framework density 25.742481000000002
#
# number of rings (size 3 to 8) (size 9 to 14) (size 15 to 20)
#    0.000    1.231    3.077    2.308    4.308    1.846 
#    0.000    1.538    0.000    0.000    0.000    0.000 
#    0.000    0.000    0.000    0.000    0.000    0.000 
#
# Total GULP energy -144956.099532 kJ/mol
# GULP energy per Si atom -5575.234597 kJ/mol
# Density = 2.568389 g / cm^3
# Si number density = 25.742481 Si / 1000 Ang^3
#
#
#
# Elastic Constant Matrix: (Units=GPa)
#
#
# Indices 1 2 3 4 5 6 
#
# 1 31.6998 21.7545 21.3936 -0.0005 11.4325 -0.0004
# 2 21.7545 101.5548 29.1825 -0.0032 0.1150 -0.0003
# 3 21.3936 29.1825 101.3450 -0.0008 4.4723 0.0000
# 4 -0.0005 -0.0032 -0.0008 22.9562 -0.0002 -1.2940
# 5 11.4325 0.1150 4.4723 -0.0002 35.0621 -0.0001
# 6 -0.0004 -0.0003 0.0000 -1.2940 -0.0001 34.0209
#
#
#
# Elastic Compliance Matrix: (Units=1/GPa)
#
#
# Indices 1 2 3 4 5 6 
#
# 1 0.046954 -0.008042 -0.006961 -0.000001 -0.014396 0.000000
# 2 -0.008042 0.012117 -0.001916 0.000001 0.002827 0.000000
# 3 -0.006961 -0.001916 0.011855 0.000000 0.000764 0.000000
# 4 -0.000001 0.000001 0.000000 0.043655 0.000000 0.001660
# 5 -0.014396 0.002827 0.000764 0.000000 0.033108 0.000000
# 6 0.000000 0.000000 0.000000 0.001660 0.000000 0.029457
#
#
# Mechanical properties :
#
#
# Convention : Reuss Voigt Hill
#
# Bulk Modulus (GPa) = 26.96274 42.14010 34.55142
# Shear Modulus (GPa) = 22.38670 29.22577 25.80623
#
# Velocity S-wave (km/s) = 2.95217 3.37310 3.16963
# Velocity P-wave (km/s) = 4.70289 5.61923 5.18136
#
# Compressibility (1/GPa) = 0.03708822
#
# Stress axis : x y z
#
# Youngs Moduli (GPa) = 21.29725 82.52865 84.35393
#
# Poissons Ratio (x) = 0.66367 0.58719
# Poissons Ratio (y) = 0.17127 0.16165
# Poissons Ratio (z) = 0.14825 0.15815
#
# Static dielectric constant tensor:
#      x y z
#    x 2.008660 0.000000 0.022480 
#    y 0.000000 2.104960 0.000000 
#    z 0.022480 0.000000 2.134930 
# 
# From -- ./inp_files/256815.got.cif
#   From: 2010.05.17/outbox.cif.g08.bks.cpg/sg15_129_cif.got.tgz:256815.got - 2010.06.03 18:47:42.
