data_PCOD9285460
_publ_section_title
;
Structure prediction by ZEFSAII (Michael W. Deem and Ramdas Pophale) SiO2 
 PCOD9285460
Probable space group: C 2/C
;
_chemical_formula_sum "Si O2"
_cell_formula_units_Z 52
_cell_length_a 13.128249
_cell_length_b 11.993264
_cell_length_c 18.177523
_cell_angle_alpha 90.000000
_cell_angle_beta 124.568738
_cell_angle_gamma 90.000000
_cell_volume 2356.752985
_symmetry_space_group_name_H-M "C 2/C"
_symmetry_group_IT_number 15
_symmetry_cell_setting 'monoclinic'
loop_
_space_group_symop_operation_xyz
x,y,z
-x,y,1/2-z
-x,-y,-z
x,-y,1/2+z
1/2+x,1/2+y,z
1/2-x,1/2+y,1/2-z
1/2-x,1/2-y,-z
1/2+x,1/2-y,1/2+z
loop_
_atom_site_type_symbol
_atom_site_label
_atom_site_fract_x
_atom_site_fract_y
_atom_site_fract_z
Si Si1 0.500000 0.758244 0.750000
Si Si2 0.323633 0.252966 0.417452
Si Si3 0.408686 0.745811 0.412280
Si Si4 0.711606 0.627766 0.751691
Si Si5 0.207842 0.350748 0.930865
Si Si6 0.714990 0.566927 0.470352
Si Si7 0.541454 0.430684 0.683335
O O1 0.598423 0.681488 0.749847
O O2 0.577573 0.829291 0.839361
O O3 0.471822 0.235341 0.487837
O O4 0.283769 0.302519 0.322515
O O5 0.289222 0.347561 0.463317
O O6 0.257349 0.139637 0.417595
O O7 0.330253 0.851785 0.352124
O O8 0.314928 0.658165 0.412525
O O9 0.452258 0.686885 0.355069
O O10 0.665588 0.501557 0.722400
O O11 0.250000 0.250000 0.000000
O O12 0.201491 0.463752 0.973634
O O13 0.578710 0.513701 0.403973
O O14 0.500000 0.419443 0.750000
#
# Coordination Sequence:
#
# PCOD9285460 Si02
#       7
#     4   8   8   8   8   8   8
#     4  10  22  38  56  90 122 160 204 250 306 370
#     4  10  21  42  61  92 123 158 211 257 310 369
#     4  10  23  39  61  93 123 159 209 259 310 362
#     4  11  21  39  62  89 122 161 204 255 305 369
#     4  11  22  40  62  89 127 166 205 256 313 370
#     4  10  22  39  64  88 122 167 203 255 313 373
#     4  11  21  38  65  90 121 165 210 253 308 377
#
# _framework density 22.064256
#
# number of rings (size 3 to 8) (size 9 to 14) (size 15 to 20)
#    0.000    1.538    0.769    4.615    2.154    2.462 
#    8.308    1.538    0.000    0.000    0.000    0.000 
#    0.000    0.000    0.000    0.000    0.000    0.000 
#
# Total GULP energy -145266.870455 kJ/mol
# GULP energy per Si atom -5587.187325 kJ/mol
# Density = 2.201404 g / cm^3
# Si number density = 22.064256 Si / 1000 Ang^3
#
#
#
# Elastic Constant Matrix: (Units=GPa)
#
#
# Indices 1 2 3 4 5 6 
#
# 1 38.6684 2.3762 11.4757 0.0000 -1.2741 0.0000
# 2 2.3762 61.1252 20.4384 0.0000 1.7204 0.0000
# 3 11.4757 20.4384 94.0378 0.0000 4.1037 0.0000
# 4 0.0000 0.0000 0.0000 30.8949 0.0000 -0.1920
# 5 -1.2741 1.7204 4.1037 0.0000 48.2787 0.0000
# 6 0.0000 0.0000 0.0000 -0.1920 0.0000 16.9192
#
#
#
# Elastic Compliance Matrix: (Units=1/GPa)
#
#
# Indices 1 2 3 4 5 6 
#
# 1 0.026880 0.000041 -0.003333 0.000000 0.000991 0.000000
# 2 0.000041 0.017646 -0.003827 0.000000 -0.000302 0.000000
# 3 -0.003333 -0.003827 0.011915 0.000000 -0.000964 0.000000
# 4 0.000000 0.000000 0.000000 0.032370 0.000000 0.000367
# 5 0.000991 -0.000302 -0.000964 0.000000 0.020832 0.000000
# 6 0.000000 0.000000 0.000000 0.000367 0.000000 0.059109
#
#
# Mechanical properties :
#
#
# Convention : Reuss Voigt Hill
#
# Bulk Modulus (GPa) = 23.69412 29.15689 26.42550
# Shear Modulus (GPa) = 25.37341 29.85461 27.61401
#
# Velocity S-wave (km/s) = 3.39481 3.68241 3.54153
# Velocity P-wave (km/s) = 5.11159 5.59673 5.35965
#
# Compressibility (1/GPa) = 0.04220457
#
# Stress axis : x y z
#
# Youngs Moduli (GPa) = 37.20234 56.66855 83.93068
#
# Poissons Ratio (x) = -0.00235 0.27970
# Poissons Ratio (y) = -0.00154 0.32122
# Poissons Ratio (z) = 0.12398 0.21688
#
# Static dielectric constant tensor:
#      x y z
#    x 1.858650 0.000000 -0.009600 
#    y 0.000000 1.812570 0.000000 
#    z -0.009600 0.000000 1.837880 
# 
# From -- ./inp_files/204169.got.cif
#   From: 2010.05.17/outbox.cif.g08.bks.cpg/sg15_103_cif.got.tgz:204169.got - 2010.06.03 18:47:42.
