data_PCOD9285142
_publ_section_title
;
Structure prediction by ZEFSAII (Michael W. Deem and Ramdas Pophale) SiO2 
 PCOD9285142
Probable space group: C 2/C
;
_chemical_formula_sum "Si O2"
_cell_formula_units_Z 64
_cell_length_a 19.226499
_cell_length_b 9.064144
_cell_length_c 17.160591
_cell_angle_alpha 90.000000
_cell_angle_beta 91.905265
_cell_angle_gamma 90.000000
_cell_volume 2988.953008
_symmetry_space_group_name_H-M "C 2/C"
_symmetry_group_IT_number 15
_symmetry_cell_setting 'monoclinic'
loop_
_space_group_symop_operation_xyz
x,y,z
-x,y,1/2-z
-x,-y,-z
x,-y,1/2+z
1/2+x,1/2+y,z
1/2-x,1/2+y,1/2-z
1/2-x,1/2-y,-z
1/2+x,1/2-y,1/2+z
loop_
_atom_site_type_symbol
_atom_site_label
_atom_site_fract_x
_atom_site_fract_y
_atom_site_fract_z
Si Si1 0.664311 0.698802 0.955854
Si Si2 0.310137 0.805212 0.254608
Si Si3 0.185973 0.605796 0.304589
Si Si4 0.297305 0.071147 0.923908
Si Si5 0.930222 0.910985 0.797895
Si Si6 0.478531 0.657830 0.471314
Si Si7 0.568211 0.750815 0.700651
Si Si8 0.935726 0.604721 0.468821
O O1 0.677017 0.813631 0.886703
O O2 0.714029 0.556944 0.939022
O O3 0.689171 0.768905 0.037764
O O4 0.582032 0.692723 0.967934
O O5 0.248007 0.689673 0.262295
O O6 0.308661 0.906304 0.332950
O O7 0.377548 0.702457 0.255731
O O8 0.303748 0.930209 0.188642
O O9 0.118989 0.646023 0.251565
O O10 0.358737 0.968754 0.962229
O O11 0.946659 0.848776 0.884266
O O12 0.000000 0.915353 0.750000
O O13 0.904224 0.081241 0.806019
O O14 0.500000 0.500000 0.500000
O O15 0.547595 0.757583 0.475212
O O16 0.500000 0.738885 0.750000
O O17 0.554282 0.827720 0.617345
O O18 0.000000 0.500000 0.500000
#
# Coordination Sequence:
#
# PCOD9285142 Si02
#       8
#     8   8   8   8   8   8   8   8
#     4  10  22  42  71  96 131 181 230 269 356 406
#     4  11  22  45  67  99 135 175 221 277 346 402
#     4  11  24  40  71  98 132 178 221 280 339 414
#     4  10  21  41  67  96 129 173 224 281 329 413
#     4  11  25  44  67  99 138 177 226 282 337 407
#     4  12  24  44  69  97 135 186 226 282 340 412
#     4  11  24  42  64  99 139 179 226 276 343 404
#     4  12  22  40  68 100 135 174 234 285 336 404
#
# _framework density 21.412181
#
# number of rings (size 3 to 8) (size 9 to 14) (size 15 to 20)
#    0.000    1.000    5.000    1.500    1.750    1.500 
#    2.250    0.625    0.000    0.000    0.000    0.000 
#    0.000    0.000    0.000    0.000    0.000    0.000 
#
# Total GULP energy -178358.022004 kJ/mol
# GULP energy per Si atom -5573.688188 kJ/mol
# Density = 2.136345 g / cm^3
# Si number density = 21.412181 Si / 1000 Ang^3
#
#
#
# Elastic Constant Matrix: (Units=GPa)
#
#
# Indices 1 2 3 4 5 6 
#
# 1 97.9624 42.5625 12.7269 0.0000 -11.8397 0.0000
# 2 42.5625 106.9875 19.7892 0.0000 -4.5456 0.0000
# 3 12.7269 19.7892 56.9257 0.0000 -7.9377 0.0000
# 4 0.0000 0.0000 0.0000 29.3830 0.0000 8.6279
# 5 -11.8397 -4.5456 -7.9377 0.0000 26.8952 0.0000
# 6 0.0000 0.0000 0.0000 8.6279 0.0000 37.9755
#
#
#
# Elastic Compliance Matrix: (Units=1/GPa)
#
#
# Indices 1 2 3 4 5 6 
#
# 1 0.012959 -0.004853 -0.000552 0.000000 0.004722 0.000000
# 2 -0.004853 0.011819 -0.003174 0.000000 -0.001075 0.000000
# 3 -0.000552 -0.003174 0.019487 0.000000 0.004972 0.000000
# 4 0.000000 0.000000 0.000000 0.036466 0.000000 -0.008285
# 5 0.004722 -0.001075 0.004972 0.000000 0.040545 0.000000
# 6 0.000000 0.000000 0.000000 -0.008285 0.000000 0.028215
#
#
# Mechanical properties :
#
#
# Convention : Reuss Voigt Hill
#
# Bulk Modulus (GPa) = 36.88970 45.78143 41.33557
# Shear Modulus (GPa) = 28.46039 31.30388 29.88213
#
# Velocity S-wave (km/s) = 3.64973 3.82771 3.73978
# Velocity P-wave (km/s) = 5.91832 6.40021 6.16397
#
# Compressibility (1/GPa) = 0.02710784
#
# Stress axis : x y z
#
# Youngs Moduli (GPa) = 77.16812 84.61153 51.31721
#
# Poissons Ratio (x) = 0.41059 0.02832
# Poissons Ratio (y) = 0.37447 0.16286
# Poissons Ratio (z) = 0.04259 0.26852
#
# Static dielectric constant tensor:
#      x y z
#    x 1.773750 0.000000 -0.003330 
#    y 0.000000 1.818950 0.000000 
#    z -0.003330 0.000000 1.789390 
# 
# From -- ./inp_files/213909.got.cif
#   From: 2010.05.17/outbox.cif.g08.bks.cpg/sg15_107_cif.got.tgz:213909.got - 2010.06.03 18:47:42.
