data_PCOD9285084
_publ_section_title
;
Structure prediction by ZEFSAII (Michael W. Deem and Ramdas Pophale) SiO2 
 PCOD9285084
Probable space group: C 2/C
;
_chemical_formula_sum "Si O2"
_cell_formula_units_Z 48
_cell_length_a 11.831726
_cell_length_b 21.573949
_cell_length_c 14.124880
_cell_angle_alpha 90.000000
_cell_angle_beta 140.744871
_cell_angle_gamma 90.000000
_cell_volume 2281.453331
_symmetry_space_group_name_H-M "C 2/C"
_symmetry_group_IT_number 15
_symmetry_cell_setting 'monoclinic'
loop_
_space_group_symop_operation_xyz
x,y,z
-x,y,1/2-z
-x,-y,-z
x,-y,1/2+z
1/2+x,1/2+y,z
1/2-x,1/2+y,1/2-z
1/2-x,1/2-y,-z
1/2+x,1/2-y,1/2+z
loop_
_atom_site_type_symbol
_atom_site_label
_atom_site_fract_x
_atom_site_fract_y
_atom_site_fract_z
Si Si1 0.565434 0.945672 0.610019
Si Si2 0.000000 0.807333 0.750000
Si Si3 0.000000 0.480812 0.250000
Si Si4 0.879087 0.280059 0.322352
Si Si5 0.315691 0.884307 0.992124
Si Si6 0.632942 0.844661 0.920335
Si Si7 0.477254 0.289048 0.071778
O O1 0.701351 0.909592 0.627962
O O2 0.408904 0.895791 0.528615
O O3 0.500000 0.000000 0.500000
O O4 0.602698 0.978086 0.736153
O O5 0.871344 0.761108 0.723343
O O6 0.868197 0.849960 0.603577
O O7 0.869968 0.437088 0.102720
O O8 0.683029 0.305214 0.219488
O O9 0.935162 0.229917 0.437385
O O10 0.023548 0.334152 0.404766
O O11 0.500000 0.861480 0.750000
O O12 0.565707 0.776502 0.905827
O O13 0.836098 0.838220 0.019545
#
# Coordination Sequence:
#
# PCOD9285084 Si02
#       7
#     8   4   4   8   8   8   8
#     4  10  21  41  67  89 126 171 220 271 324 374
#     4  12  25  38  64  94 142 169 208 262 340 406
#     4  10  23  42  74  86 116 177 230 272 326 376
#     4  12  22  41  59  99 132 173 205 261 332 412
#     4  11  24  42  64  95 129 171 218 276 325 391
#     4  11  20  38  63  95 127 166 205 267 328 389
#     4  11  24  36  64  97 132 163 213 255 334 400
#
# _framework density 21.03922
#
# number of rings (size 3 to 8) (size 9 to 14) (size 15 to 20)
#    0.000    1.000    5.833    1.000    2.333    0.000 
#    0.000    0.833   22.000    0.000    0.000    0.000 
#    0.000    0.000    0.000    0.000    0.000    0.000 
#
# Total GULP energy -133871.281733 kJ/mol
# GULP energy per Si atom -5577.970072 kJ/mol
# Density = 2.099133 g / cm^3
# Si number density = 21.039220 Si / 1000 Ang^3
#
#
#
# Elastic Constant Matrix: (Units=GPa)
#
#
# Indices 1 2 3 4 5 6 
#
# 1 90.7840 39.1839 44.4938 0.0000 1.2551 0.0000
# 2 39.1839 81.5236 30.5661 0.0000 1.6491 0.0000
# 3 44.4938 30.5661 79.0600 0.0000 16.1035 0.0000
# 4 0.0000 0.0000 0.0000 -81.2581 0.0000 39.4923
# 5 1.2551 1.6491 16.1035 0.0000 49.7821 0.0000
# 6 0.0000 0.0000 0.0000 39.4923 0.0000 -4.3422
#
#
#
# Elastic Compliance Matrix: (Units=1/GPa)
#
#
# Indices 1 2 3 4 5 6 
#
# 1 0.017261 -0.005287 -0.008154 0.000000 0.002378 0.000000
# 2 -0.005287 0.016059 -0.003374 0.000000 0.000693 0.000000
# 3 -0.008154 -0.003374 0.019781 0.000000 -0.006081 0.000000
# 4 0.000000 0.000000 0.000000 0.003598 0.000000 0.032725
# 5 0.002378 0.000693 -0.006081 0.000000 0.021972 0.000000
# 6 0.000000 0.000000 0.000000 0.032725 0.000000 0.067333
#
#
# Mechanical properties :
#
#
# Convention : Reuss Voigt Hill
#
# Bulk Modulus (GPa) = 51.36317 53.31724 52.34020
# Shear Modulus (GPa) = 26.86374 1.97795 14.42084
#
# Velocity S-wave (km/s) = 3.57717 0.97065 2.62091
# Velocity P-wave (km/s) = 6.44419 5.16266 5.83869
#
# Compressibility (1/GPa) = 0.01946920
#
# Stress axis : x y z
#
# Youngs Moduli (GPa) = 57.93489 62.27155 50.55362
#
# Poissons Ratio (x) = 0.32923 0.41223
# Poissons Ratio (y) = 0.30631 0.17058
# Poissons Ratio (z) = 0.47242 0.21012
#
# Static dielectric constant tensor:
#      x y z
#    x 1.817170 0.000000 -0.049330 
#    y 0.000000 1.774660 0.000000 
#    z -0.049330 0.000000 1.729040 
# 
# From -- ./inp_files/31942.got.cif
#   From: 2010.05.17/outbox.cif.g08.bks.cpg/sg15_16_cif.got.tgz:31942.got - 2010.06.03 18:47:42.
