data_PCOD9285508
_publ_section_title
;
Structure prediction by ZEFSAII (Michael W. Deem and Ramdas Pophale) SiO2 
 PCOD9285508
Probable space group: C 2/C
;
_chemical_formula_sum "Si O2"
_cell_formula_units_Z 36
_cell_length_a 10.789892
_cell_length_b 8.382929
_cell_length_c 18.988232
_cell_angle_alpha 90.000000
_cell_angle_beta 109.014297
_cell_angle_gamma 90.000000
_cell_volume 1623.791077
_symmetry_space_group_name_H-M "C 2/C"
_symmetry_group_IT_number 15
_symmetry_cell_setting 'monoclinic'
loop_
_space_group_symop_operation_xyz
x,y,z
-x,y,1/2-z
-x,-y,-z
x,-y,1/2+z
1/2+x,1/2+y,z
1/2-x,1/2+y,1/2-z
1/2-x,1/2-y,-z
1/2+x,1/2-y,1/2+z
loop_
_atom_site_type_symbol
_atom_site_label
_atom_site_fract_x
_atom_site_fract_y
_atom_site_fract_z
Si Si1 0.089777 0.294356 0.645561
Si Si2 0.500000 0.001674 0.750000
Si Si3 0.054205 0.949312 0.587851
Si Si4 0.199802 0.392200 0.942341
Si Si5 0.339700 0.218105 0.610107
O O1 0.091605 0.385707 0.719887
O O2 0.219112 0.313138 0.622370
O O3 0.954961 0.363182 0.589260
O O4 0.067206 0.104033 0.639774
O O5 0.409763 0.112866 0.684370
O O6 0.198898 0.875976 0.604294
O O7 0.951117 0.827627 0.599474
O O8 0.000000 0.000000 0.500000
O O9 0.210402 0.584011 0.955059
O O10 0.250000 0.250000 0.000000
#
# Coordination Sequence:
#
# PCOD9285508 Si02
#       5
#     8   4   8   8   8
#     4  10  23  43  68  95 129 174 220 275 332 398
#     4  10  24  46  62  94 128 170 232 272 332 392
#     4  11  23  42  63 102 136 171 217 272 343 403
#     4  10  21  42  62  98 136 171 214 267 334 402
#     4  10  25  41  68  94 130 179 222 277 336 400
#
# _framework density 22.170341000000001
#
# number of rings (size 3 to 8) (size 9 to 14) (size 15 to 20)
#    0.000    1.778    2.222    0.000    0.000   16.000 
#    0.000    0.000    0.000    0.000    0.000    0.000 
#    0.000    0.000    0.000    0.000    0.000    0.000 
#
# Total GULP energy -100371.703000 kJ/mol
# GULP energy per Si atom -5576.205722 kJ/mol
# Density = 2.211988 g / cm^3
# Si number density = 22.170341 Si / 1000 Ang^3
#
#
#
# Elastic Constant Matrix: (Units=GPa)
#
#
# Indices 1 2 3 4 5 6 
#
# 1 203.8240 82.2470 44.3762 0.0000 -38.2087 0.0000
# 2 82.2470 87.7816 53.6102 0.0000 -37.5423 0.0000
# 3 44.3762 53.6102 89.1299 0.0000 -8.6080 0.0000
# 4 0.0000 0.0000 0.0000 56.8048 0.0000 -11.3614
# 5 -38.2087 -37.5423 -8.6080 0.0000 39.3786 0.0000
# 6 0.0000 0.0000 0.0000 -11.3614 0.0000 57.3487
#
#
#
# Elastic Compliance Matrix: (Units=1/GPa)
#
#
# Indices 1 2 3 4 5 6 
#
# 1 0.007934 -0.007574 0.000665 0.000000 0.000623 0.000000
# 2 -0.007574 0.042488 -0.018983 0.000000 0.029008 0.000000
# 3 0.000665 -0.018983 0.021066 0.000000 -0.012848 0.000000
# 4 0.000000 0.000000 0.000000 0.018330 0.000000 0.003631
# 5 0.000623 0.029008 -0.012848 0.000000 0.050846 0.000000
# 6 0.000000 0.000000 0.000000 0.003631 0.000000 0.018157
#
#
# Mechanical properties :
#
#
# Convention : Reuss Voigt Hill
#
# Bulk Modulus (GPa) = 50.75027 82.35581 66.55304
# Shear Modulus (GPa) = 23.02307 44.07324 33.54816
#
# Velocity S-wave (km/s) = 3.22601 4.46347 3.89421
# Velocity P-wave (km/s) = 6.06770 7.98692 7.09253
#
# Compressibility (1/GPa) = 0.01970433
#
# Stress axis : x y z
#
# Youngs Moduli (GPa) = 126.03341 23.53605 47.47054
#
# Poissons Ratio (x) = 0.17826 -0.03159
# Poissons Ratio (y) = 0.95456 0.90115
# Poissons Ratio (z) = -0.08386 0.44679
#
# Static dielectric constant tensor:
#      x y z
#    x 1.823220 0.000000 0.053420 
#    y 0.000000 1.830300 0.000000 
#    z 0.053420 0.000000 1.919050 
# 
# From -- ./inp_files/229340.got.cif
#   From: 2010.05.17/outbox.cif.g08.bks.cpg/sg15_115_cif.got.tgz:229340.got - 2010.06.03 18:47:42.
