data_PCOD9285138
_publ_section_title
;
Structure prediction by ZEFSAII (Michael W. Deem and Ramdas Pophale) SiO2 
 PCOD9285138
Probable space group: C 2/C
;
_chemical_formula_sum "Si O2"
_cell_formula_units_Z 44
_cell_length_a 9.721950
_cell_length_b 10.263335
_cell_length_c 17.895859
_cell_angle_alpha 90.000000
_cell_angle_beta 91.872584
_cell_angle_gamma 90.000000
_cell_volume 1784.688591
_symmetry_space_group_name_H-M "C 2/C"
_symmetry_group_IT_number 15
_symmetry_cell_setting 'monoclinic'
loop_
_space_group_symop_operation_xyz
x,y,z
-x,y,1/2-z
-x,-y,-z
x,-y,1/2+z
1/2+x,1/2+y,z
1/2-x,1/2+y,1/2-z
1/2-x,1/2-y,-z
1/2+x,1/2-y,1/2+z
loop_
_atom_site_type_symbol
_atom_site_label
_atom_site_fract_x
_atom_site_fract_y
_atom_site_fract_z
Si Si1 0.330686 0.918605 0.679955
Si Si2 0.021956 0.589248 0.573266
Si Si3 0.500000 0.690488 0.750000
Si Si4 0.051668 0.010601 0.128410
Si Si5 0.235076 0.442931 0.648166
Si Si6 0.394411 0.267230 0.462898
O O1 0.408339 0.781953 0.694992
O O2 0.416950 0.029084 0.634624
O O3 0.184654 0.898735 0.637148
O O4 0.304500 0.954797 0.766111
O O5 0.995995 0.724419 0.531351
O O6 0.000000 0.500000 0.500000
O O7 0.174375 0.569597 0.606430
O O8 0.422030 0.591422 0.802672
O O9 0.067324 0.911732 0.060169
O O10 0.898705 0.067217 0.138554
O O11 0.142274 0.328069 0.608559
O O12 0.250000 0.250000 0.500000
#
# Coordination Sequence:
#
# PCOD9285138 Si02
#       6
#     8   8   4   8   8   8
#     4  12  21  42  71  97 136 180 226 289 341 409
#     4  10  21  41  67  95 134 183 224 274 347 407
#     4  12  22  42  70  96 136 176 220 284 348 396
#     4  12  25  43  70 102 138 175 232 290 341 408
#     4  11  23  42  69 102 133 174 238 287 336 412
#     4  11  23  44  67  95 142 183 220 282 349 410
#
# _framework density 24.654161999999999
#
# number of rings (size 3 to 8) (size 9 to 14) (size 15 to 20)
#    0.000    0.727    7.273    1.091    0.000    1.455 
#    3.273    1.818    0.000    0.000    0.000    0.000 
#    0.000    0.000    0.000    0.000    0.000    0.000 
#
# Total GULP energy -122711.651283 kJ/mol
# GULP energy per Si atom -5577.802331 kJ/mol
# Density = 2.459805 g / cm^3
# Si number density = 24.654162 Si / 1000 Ang^3
#
#
#
# Elastic Constant Matrix: (Units=GPa)
#
#
# Indices 1 2 3 4 5 6 
#
# 1 124.8212 21.0814 43.2801 0.0000 24.0025 0.0000
# 2 21.0814 60.8109 47.3797 0.0000 15.5787 0.0000
# 3 43.2801 47.3797 139.6880 0.0000 -1.5775 0.0000
# 4 0.0000 0.0000 0.0000 50.5506 0.0000 2.4644
# 5 24.0025 15.5787 -1.5775 0.0000 49.3539 0.0000
# 6 0.0000 0.0000 0.0000 2.4644 0.0000 33.3577
#
#
#
# Elastic Compliance Matrix: (Units=1/GPa)
#
#
# Indices 1 2 3 4 5 6 
#
# 1 0.010082 0.000408 -0.003320 0.000000 -0.005138 0.000000
# 2 0.000408 0.025347 -0.008820 0.000000 -0.008481 0.000000
# 3 -0.003320 -0.008820 0.011233 0.000000 0.004758 0.000000
# 4 0.000000 0.000000 0.000000 0.019854 0.000000 -0.001467
# 5 -0.005138 -0.008481 0.004758 0.000000 0.025590 0.000000
# 6 0.000000 0.000000 0.000000 -0.001467 0.000000 0.030086
#
#
# Mechanical properties :
#
#
# Convention : Reuss Voigt Hill
#
# Bulk Modulus (GPa) = 43.10631 60.97806 52.04219
# Shear Modulus (GPa) = 32.59712 40.89105 36.74409
#
# Velocity S-wave (km/s) = 3.64012 4.07699 3.86473
# Velocity P-wave (km/s) = 5.93208 6.85197 6.40856
#
# Compressibility (1/GPa) = 0.02319846
#
# Stress axis : x y z
#
# Youngs Moduli (GPa) = 99.18905 39.45186 89.02611
#
# Poissons Ratio (x) = -0.01610 0.29557
# Poissons Ratio (y) = -0.04047 0.78517
# Poissons Ratio (z) = 0.32932 0.34795
#
# Static dielectric constant tensor:
#      x y z
#    x 1.979580 0.000000 -0.022220 
#    y 0.000000 2.238300 0.000000 
#    z -0.022220 0.000000 2.082410 
# 
# From -- ./inp_files/188942.got.cif
#   From: 2010.05.17/outbox.cif.g08.bks.cpg/sg15_95_cif.got.tgz:188942.got - 2010.06.03 18:47:42.
