data_PCOD9285881
_publ_section_title
;
Structure prediction by ZEFSAII (Michael W. Deem and Ramdas Pophale) SiO2 
 PCOD9285881
Probable space group: C 2/C
;
_chemical_formula_sum "Si O2"
_cell_formula_units_Z 44
_cell_length_a 28.343626
_cell_length_b 10.617329
_cell_length_c 9.153313
_cell_angle_alpha 90.000000
_cell_angle_beta 45.464423
_cell_angle_gamma 90.000000
_cell_volume 1963.477294
_symmetry_space_group_name_H-M "C 2/C"
_symmetry_group_IT_number 15
_symmetry_cell_setting 'monoclinic'
loop_
_space_group_symop_operation_xyz
x,y,z
-x,y,1/2-z
-x,-y,-z
x,-y,1/2+z
1/2+x,1/2+y,z
1/2-x,1/2+y,1/2-z
1/2-x,1/2-y,-z
1/2+x,1/2-y,1/2+z
loop_
_atom_site_type_symbol
_atom_site_label
_atom_site_fract_x
_atom_site_fract_y
_atom_site_fract_z
Si Si1 0.562177 0.570585 0.009242
Si Si2 0.750000 0.250000 0.000000
Si Si3 0.304374 0.613621 0.603125
Si Si4 0.314306 0.038253 0.213365
Si Si5 0.010775 0.795170 0.059669
Si Si6 0.133415 0.663399 0.688037
O O1 0.500000 0.599177 0.250000
O O2 0.554364 0.663246 0.888117
O O3 0.629043 0.580749 0.953932
O O4 0.551202 0.427473 0.981664
O O5 0.758493 0.184218 0.819343
O O6 0.812707 0.344086 0.824970
O O7 0.264379 0.491389 0.637208
O O8 0.324722 0.708684 0.430046
O O9 0.343651 0.914271 0.222038
O O10 0.350384 0.079485 0.988350
O O11 0.056956 0.699520 0.872489
O O12 0.000000 0.754985 0.250000
#
# Coordination Sequence:
#
# PCOD9285881 Si02
#       6
#     8   4   8   8   8   8
#     4  10  21  42  68 103 137 173 231 293 348 403
#     4  10  24  40  62 100 138 180 218 290 332 414
#     4  11  23  40  73 100 138 174 231 287 354 409
#     4  11  24  45  66 103 139 185 230 279 354 414
#     4  10  23  42  69 103 135 182 232 288 346 408
#     4  11  24  45  69  98 145 180 232 290 343 421
#
# _framework density 22.409220999999999
#
# number of rings (size 3 to 8) (size 9 to 14) (size 15 to 20)
#    0.000    1.455    3.636    0.545    2.545    4.364 
#    0.000    0.909    0.000    0.000    0.000    0.000 
#    0.000    0.000    0.000    0.000    0.000    0.000 
#
# Total GULP energy -122469.857995 kJ/mol
# GULP energy per Si atom -5566.811727 kJ/mol
# Density = 2.235822 g / cm^3
# Si number density = 22.409221 Si / 1000 Ang^3
#
#
#
# Elastic Constant Matrix: (Units=GPa)
#
#
# Indices 1 2 3 4 5 6 
#
# 1 90.7434 36.2071 23.5459 0.0000 -13.4222 0.0000
# 2 36.2071 40.9988 25.3003 0.0000 -9.3953 0.0000
# 3 23.5459 25.3003 106.3527 0.0000 14.5869 0.0000
# 4 0.0000 0.0000 0.0000 28.7338 0.0000 8.1130
# 5 -13.4222 -9.3953 14.5869 0.0000 16.2493 0.0000
# 6 0.0000 0.0000 0.0000 8.1130 0.0000 31.9294
#
#
#
# Elastic Compliance Matrix: (Units=1/GPa)
#
#
# Indices 1 2 3 4 5 6 
#
# 1 0.017955 -0.011966 -0.002525 0.000000 0.010179 0.000000
# 2 -0.011966 0.050776 -0.013800 0.000000 0.031863 0.000000
# 3 -0.002525 -0.013800 0.016678 0.000000 -0.025037 0.000000
# 4 0.000000 0.000000 0.000000 0.037492 0.000000 -0.009526
# 5 0.010179 0.031863 -0.025037 0.000000 0.110848 0.000000
# 6 0.000000 0.000000 0.000000 -0.009526 0.000000 0.033740
#
#
# Mechanical properties :
#
#
# Convention : Reuss Voigt Hill
#
# Bulk Modulus (GPa) = 34.68835 45.35571 40.02203
# Shear Modulus (GPa) = 14.98439 25.58529 20.28484
#
# Velocity S-wave (km/s) = 2.58867 3.38262 3.01192
# Velocity P-wave (km/s) = 4.94450 5.96153 5.47667
#
# Compressibility (1/GPa) = 0.02882813
#
# Stress axis : x y z
#
# Youngs Moduli (GPa) = 55.69354 19.69427 59.95758
#
# Poissons Ratio (x) = 0.23567 0.15137
# Poissons Ratio (y) = 0.66644 0.82742
# Poissons Ratio (z) = 0.14061 0.27178
#
# Static dielectric constant tensor:
#      x y z
#    x 1.878910 0.000000 0.044640 
#    y 0.000000 2.052170 0.000000 
#    z 0.044640 0.000000 1.814760 
# 
# From -- ./inp_files/54481.got.cif
#   From: 2010.05.17/outbox.cif.g08.bks.cpg/sg15_28_cif.got.tgz:54481.got - 2010.06.03 18:47:42.
