data_PCOD9285253
_publ_section_title
;
Structure prediction by ZEFSAII (Michael W. Deem and Ramdas Pophale) SiO2 
 PCOD9285253
Probable space group: C 2/C
;
_chemical_formula_sum "Si O2"
_cell_formula_units_Z 56
_cell_length_a 11.248792
_cell_length_b 8.213211
_cell_length_c 30.451323
_cell_angle_alpha 90.000000
_cell_angle_beta 60.978806
_cell_angle_gamma 90.000000
_cell_volume 2460.113838
_symmetry_space_group_name_H-M "C 2/C"
_symmetry_group_IT_number 15
_symmetry_cell_setting 'monoclinic'
loop_
_space_group_symop_operation_xyz
x,y,z
-x,y,1/2-z
-x,-y,-z
x,-y,1/2+z
1/2+x,1/2+y,z
1/2-x,1/2+y,1/2-z
1/2-x,1/2-y,-z
1/2+x,1/2-y,1/2+z
loop_
_atom_site_type_symbol
_atom_site_label
_atom_site_fract_x
_atom_site_fract_y
_atom_site_fract_z
Si Si1 0.024868 0.027140 0.796245
Si Si2 0.878613 0.626684 0.190739
Si Si3 0.368535 0.204863 0.745364
Si Si4 0.559433 0.615455 0.451050
Si Si5 0.634117 0.505439 0.589689
Si Si6 0.139183 0.378075 0.001121
Si Si7 0.633458 0.122562 0.081901
O O1 0.070539 0.216302 0.790305
O O2 0.000000 0.000080 0.750000
O O3 0.904841 0.016908 0.852766
O O4 0.109449 0.859699 0.791156
O O5 0.741440 0.720744 0.200318
O O6 0.840391 0.459310 0.222612
O O7 0.999671 0.589031 0.135224
O O8 0.500000 0.161069 0.750000
O O9 0.500000 0.500000 0.500000
O O10 0.482234 0.582547 0.418758
O O11 0.505401 0.791844 0.476177
O O12 0.721366 0.594219 0.419890
O O13 0.782820 0.431436 0.556474
O O14 0.632783 0.687361 0.571068
O O15 0.132341 0.517724 0.038379
O O16 0.250000 0.250000 0.000000
#
# Coordination Sequence:
#
# PCOD9285253 Si02
#       7
#     8   8   8   8   8   8   8
#     4  10  23  46  71 105 140 185 245 298 355 426
#     4  11  24  45  73 101 142 183 237 301 355 426
#     4  11  24  45  72  97 137 183 236 294 356 420
#     4  11  23  42  71 103 143 188 232 284 355 428
#     4  10  23  44  70 101 143 184 234 300 345 425
#     4  10  21  41  69 100 146 183 229 289 346 427
#     4  11  24  45  66 108 139 183 235 291 352 429
#
# _framework density 22.763172999999998
#
# number of rings (size 3 to 8) (size 9 to 14) (size 15 to 20)
#    0.000    1.429    4.286    0.857    4.000    2.857 
#   15.429    1.429    0.000    0.000    0.000    0.000 
#    0.000    0.000    0.000    0.000    0.000    0.000 
#
# Total GULP energy -156025.406177 kJ/mol
# GULP energy per Si atom -5572.335935 kJ/mol
# Density = 2.271136 g / cm^3
# Si number density = 22.763173 Si / 1000 Ang^3
#
#
#
# Elastic Constant Matrix: (Units=GPa)
#
#
# Indices 1 2 3 4 5 6 
#
# 1 80.2011 5.8774 49.8909 0.0000 -19.9788 0.0000
# 2 5.8774 129.7729 56.6685 0.0000 -12.1214 0.0000
# 3 49.8909 56.6685 109.9012 0.0000 -18.3623 0.0000
# 4 0.0000 0.0000 0.0000 17.5742 0.0000 -10.7242
# 5 -19.9788 -12.1214 -18.3623 0.0000 33.4724 0.0000
# 6 0.0000 0.0000 0.0000 -10.7242 0.0000 25.8961
#
#
#
# Elastic Compliance Matrix: (Units=1/GPa)
#
#
# Indices 1 2 3 4 5 6 
#
# 1 0.020511 0.004266 -0.010136 0.000000 0.008227 0.000000
# 2 0.004266 0.010855 -0.007102 0.000000 0.002581 0.000000
# 3 -0.010136 -0.007102 0.017529 0.000000 0.000994 0.000000
# 4 0.000000 0.000000 0.000000 0.076144 0.000000 0.031533
# 5 0.008227 0.002581 0.000994 0.000000 0.036265 0.000000
# 6 0.000000 0.000000 0.000000 0.031533 0.000000 0.051674
#
#
# Mechanical properties :
#
#
# Convention : Reuss Voigt Hill
#
# Bulk Modulus (GPa) = 43.57528 60.52767 52.05147
# Shear Modulus (GPa) = 20.27793 29.21778 24.74786
#
# Velocity S-wave (km/s) = 2.98790 3.58656 3.30083
# Velocity P-wave (km/s) = 5.57565 6.61809 6.11911
#
# Compressibility (1/GPa) = 0.02294879
#
# Stress axis : x y z
#
# Youngs Moduli (GPa) = 48.75497 92.12260 57.04902
#
# Poissons Ratio (x) = -0.39296 0.57825
# Poissons Ratio (y) = -0.20797 0.40519
# Poissons Ratio (z) = 0.49418 0.65430
#
# Static dielectric constant tensor:
#      x y z
#    x 2.078190 0.000000 0.048410 
#    y 0.000000 1.906720 0.000000 
#    z 0.048410 0.000000 1.998220 
# 
# From -- ./inp_files/310232.got.cif
#   From: 2010.05.17/outbox.cif.g08.bks.cpg/sg15_156_cif.got.tgz:310232.got - 2010.06.03 18:47:42.
