data_PCOD9285319
_publ_section_title
;
Structure prediction by ZEFSAII (Michael W. Deem and Ramdas Pophale) SiO2 
 PCOD9285319
Probable space group: C 2/C
;
_chemical_formula_sum "Si O2"
_cell_formula_units_Z 40
_cell_length_a 6.077028
_cell_length_b 15.581250
_cell_length_c 16.395855
_cell_angle_alpha 90.000000
_cell_angle_beta 92.897993
_cell_angle_gamma 90.000000
_cell_volume 1550.500248
_symmetry_space_group_name_H-M "C 2/C"
_symmetry_group_IT_number 15
_symmetry_cell_setting 'monoclinic'
loop_
_space_group_symop_operation_xyz
x,y,z
-x,y,1/2-z
-x,-y,-z
x,-y,1/2+z
1/2+x,1/2+y,z
1/2-x,1/2+y,1/2-z
1/2-x,1/2-y,-z
1/2+x,1/2-y,1/2+z
loop_
_atom_site_type_symbol
_atom_site_label
_atom_site_fract_x
_atom_site_fract_y
_atom_site_fract_z
Si Si1 0.000000 0.914439 0.750000
Si Si2 0.188238 0.229193 0.375123
Si Si3 0.858449 0.159655 0.480081
Si Si4 0.884273 0.442952 0.665814
Si Si5 0.150848 0.388917 0.133872
Si Si6 0.500000 0.692698 0.750000
O O1 0.891369 0.846507 0.686573
O O2 0.844899 0.973452 0.800366
O O3 0.409612 0.259475 0.331604
O O4 0.111701 0.179806 0.458217
O O5 0.031883 0.313147 0.376489
O O6 0.750000 0.250000 0.500000
O O7 0.702398 0.119507 0.406453
O O8 0.816013 0.105095 0.559986
O O9 0.000000 0.405717 0.750000
O O10 0.033060 0.520098 0.639298
O O11 0.291632 0.359267 0.213689
#
# Coordination Sequence:
#
# PCOD9285319 Si02
#       6
#     4   8   8   8   8   4
#     4  10  22  41  66 103 138 186 248 304 357 430
#     4  10  21  41  70 104 140 191 248 303 359 439
#     4   9  22  45  70 105 152 190 247 305 371 440
#     4  11  24  41  71 106 147 194 245 307 369 435
#     4  11  23  43  69 106 152 194 243 305 373 438
#     4  12  22  37  76 103 146 192 254 300 363 438
#
# _framework density 25.798127000000001
#
# number of rings (size 3 to 8) (size 9 to 14) (size 15 to 20)
#    0.000    1.600    2.000    1.800    1.400    4.000 
#    0.000    6.000    0.000   15.600    0.000    0.000 
#    0.000    0.000    0.000    0.000    0.000    0.000 
#
# Total GULP energy -111553.278145 kJ/mol
# GULP energy per Si atom -5577.663907 kJ/mol
# Density = 2.573941 g / cm^3
# Si number density = 25.798127 Si / 1000 Ang^3
#
#
#
# Elastic Constant Matrix: (Units=GPa)
#
#
# Indices 1 2 3 4 5 6 
#
# 1 99.3812 66.1887 60.0912 0.0000 -29.6234 0.0000
# 2 66.1887 98.3666 52.8359 0.0000 -14.6954 0.0000
# 3 60.0912 52.8359 136.9350 0.0000 -30.9559 0.0000
# 4 0.0000 0.0000 0.0000 49.1285 0.0000 -5.0360
# 5 -29.6234 -14.6954 -30.9559 0.0000 60.7272 0.0000
# 6 0.0000 0.0000 0.0000 -5.0360 0.0000 53.7872
#
#
#
# Elastic Compliance Matrix: (Units=1/GPa)
#
#
# Indices 1 2 3 4 5 6 
#
# 1 0.022043 -0.011945 -0.003715 0.000000 0.005969 0.000000
# 2 -0.011945 0.019320 -0.002795 0.000000 -0.002577 0.000000
# 3 -0.003715 -0.002795 0.010680 0.000000 0.002955 0.000000
# 4 0.000000 0.000000 0.000000 0.020552 0.000000 0.001924
# 5 0.005969 -0.002577 0.002955 0.000000 0.020262 0.000000
# 6 0.000000 0.000000 0.000000 0.001924 0.000000 0.018772
#
#
# Mechanical properties :
#
#
# Convention : Reuss Voigt Hill
#
# Bulk Modulus (GPa) = 66.08393 76.99049 71.53721
# Shear Modulus (GPa) = 32.55553 43.09972 37.82762
#
# Velocity S-wave (km/s) = 3.55622 4.09180 3.83338
# Velocity P-wave (km/s) = 6.52179 7.22717 6.88352
#
# Compressibility (1/GPa) = 0.01513227
#
# Stress axis : x y z
#
# Youngs Moduli (GPa) = 45.36513 51.75913 93.63698
#
# Poissons Ratio (x) = 0.61828 0.34785
# Poissons Ratio (y) = 0.54190 0.26173
# Poissons Ratio (z) = 0.16853 0.14467
#
# Static dielectric constant tensor:
#      x y z
#    x 2.171370 0.000000 0.015240 
#    y 0.000000 2.006160 0.000000 
#    z 0.015240 0.000000 2.179410 
# 
# From -- ./inp_files/184360.got.cif
#   From: 2010.05.17/outbox.cif.g08.bks.cpg/sg15_93_cif.got.tgz:184360.got - 2010.06.03 18:47:42.
