data_PCOD9285400
_publ_section_title
;
Structure prediction by ZEFSAII (Michael W. Deem and Ramdas Pophale) SiO2 
 PCOD9285400
Probable space group: C 2/C
;
_chemical_formula_sum "Si O2"
_cell_formula_units_Z 64
_cell_length_a 14.850639
_cell_length_b 28.721076
_cell_length_c 8.591044
_cell_angle_alpha 90.000000
_cell_angle_beta 130.169978
_cell_angle_gamma 90.000000
_cell_volume 2800.021653
_symmetry_space_group_name_H-M "C 2/C"
_symmetry_group_IT_number 15
_symmetry_cell_setting 'monoclinic'
loop_
_space_group_symop_operation_xyz
x,y,z
-x,y,1/2-z
-x,-y,-z
x,-y,1/2+z
1/2+x,1/2+y,z
1/2-x,1/2+y,1/2-z
1/2-x,1/2-y,-z
1/2+x,1/2-y,1/2+z
loop_
_atom_site_type_symbol
_atom_site_label
_atom_site_fract_x
_atom_site_fract_y
_atom_site_fract_z
Si Si1 0.120839 0.470212 0.478326
Si Si2 0.500680 0.617471 0.047150
Si Si3 0.376701 0.931296 0.660925
Si Si4 0.361895 0.172725 0.765046
Si Si5 0.854214 0.204992 0.796325
Si Si6 0.812786 0.858871 0.973671
Si Si7 0.120209 0.693023 0.066547
Si Si8 0.697713 0.587599 0.509988
O O1 0.120604 0.451936 0.657066
O O2 0.130468 0.525841 0.468826
O O3 0.232811 0.451064 0.507688
O O4 0.000000 0.457025 0.250000
O O5 0.575367 0.615748 0.973596
O O6 0.603535 0.610805 0.287495
O O7 0.394763 0.580282 0.951767
O O8 0.437758 0.668210 0.980418
O O9 0.500000 0.908002 0.750000
O O10 0.270192 0.895331 0.530175
O O11 0.279509 0.200671 0.790465
O O12 0.362892 0.198667 0.599340
O O13 0.297597 0.123737 0.670881
O O14 0.497547 0.166741 0.958548
O O15 0.852779 0.184274 0.622827
O O16 0.891142 0.257567 0.862214
O O17 0.728216 0.837040 0.748627
#
# Coordination Sequence:
#
# PCOD9285400 Si02
#       8
#     8   8   8   8   8   8   8   8
#     4  11  23  42  72 106 138 170 220 276 339 409
#     4  10  22  43  68  94 130 181 228 277 332 403
#     4  11  25  43  69 104 137 175 217 278 340 404
#     4  10  23  40  66  99 127 178 225 282 330 398
#     4  11  26  41  65  93 133 179 227 281 337 391
#     4  12  25  46  67  97 138 178 222 279 348 402
#     4  11  24  41  66  97 133 175 231 280 333 403
#     4  10  21  41  73  97 131 177 227 275 334 398
#
# _framework density 22.856964999999999
#
# number of rings (size 3 to 8) (size 9 to 14) (size 15 to 20)
#    0.000    1.250    2.500    2.625    7.000    7.000 
#    2.250    0.625    5.500    0.000    0.000    0.000 
#    0.000    0.000    0.000    0.000    0.000    0.000 
#
# Total GULP energy -178833.021428 kJ/mol
# GULP energy per Si atom -5588.531920 kJ/mol
# Density = 2.280494 g / cm^3
# Si number density = 22.856965 Si / 1000 Ang^3
#
#
#
# Elastic Constant Matrix: (Units=GPa)
#
#
# Indices 1 2 3 4 5 6 
#
# 1 163.9686 23.8116 12.7747 0.0000 19.6460 0.0000
# 2 23.8116 33.3709 -3.9109 0.0000 0.8687 0.0000
# 3 12.7747 -3.9109 51.7180 0.0000 -7.4957 0.0000
# 4 0.0000 0.0000 0.0000 9.6553 0.0000 -23.9555
# 5 19.6460 0.8687 -7.4957 0.0000 27.6323 0.0000
# 6 0.0000 0.0000 0.0000 -23.9555 0.0000 25.5203
#
#
#
# Elastic Compliance Matrix: (Units=1/GPa)
#
#
# Indices 1 2 3 4 5 6 
#
# 1 0.007987 -0.005925 -0.003349 0.000000 -0.006401 0.000000
# 2 -0.005925 0.034632 0.004721 0.000000 0.004404 0.000000
# 3 -0.003349 0.004721 0.021696 0.000000 0.008118 0.000000
# 4 0.000000 0.000000 0.000000 -0.077934 0.000000 -0.073156
# 5 -0.006401 0.004404 0.008118 0.000000 0.042804 0.000000
# 6 0.000000 0.000000 0.000000 -0.073156 0.000000 -0.029485
#
#
# Mechanical properties :
#
#
# Convention : Reuss Voigt Hill
#
# Bulk Modulus (GPa) = 18.11256 34.93425 26.52341
# Shear Modulus (GPa) = 183.76536 26.98705 105.37620
#
# Velocity S-wave (km/s) = 8.97622 3.43985 6.79724
# Velocity P-wave (km/s) = 10.74111 5.57618 8.55761
#
# Compressibility (1/GPa) = 0.05521031
#
# Stress axis : x y z
#
# Youngs Moduli (GPa) = 125.20492 28.87463 46.09090
#
# Poissons Ratio (x) = 0.17108 0.15434
# Poissons Ratio (y) = 0.74182 -0.21758
# Poissons Ratio (z) = 0.41925 -0.13631
#
# Static dielectric constant tensor:
#      x y z
#    x 1.925650 0.000000 -0.065450 
#    y 0.000000 1.819850 0.000000 
#    z -0.065450 0.000000 1.908470 
# 
# From -- ./inp_files/44878.got.cif
#   From: 2010.05.17/outbox.cif.g08.bks.cpg/sg15_23_cif.got.tgz:44878.got - 2010.06.03 18:47:42.
