data_PCOD9285719
_publ_section_title
;
Structure prediction by ZEFSAII (Michael W. Deem and Ramdas Pophale) SiO2 
 PCOD9285719
Probable space group: C 2/C
;
_chemical_formula_sum "Si O2"
_cell_formula_units_Z 56
_cell_length_a 13.801535
_cell_length_b 5.456535
_cell_length_c 30.803523
_cell_angle_alpha 90.000000
_cell_angle_beta 116.316590
_cell_angle_gamma 90.000000
_cell_volume 2079.343667
_symmetry_space_group_name_H-M "C 2/C"
_symmetry_group_IT_number 15
_symmetry_cell_setting 'monoclinic'
loop_
_space_group_symop_operation_xyz
x,y,z
-x,y,1/2-z
-x,-y,-z
x,-y,1/2+z
1/2+x,1/2+y,z
1/2-x,1/2+y,1/2-z
1/2-x,1/2-y,-z
1/2+x,1/2-y,1/2+z
loop_
_atom_site_type_symbol
_atom_site_label
_atom_site_fract_x
_atom_site_fract_y
_atom_site_fract_z
Si Si1 0.493516 0.920334 0.917748
Si Si2 0.738952 0.043062 0.668787
Si Si3 0.483036 0.510097 0.695677
Si Si4 0.326379 0.909161 0.481259
Si Si5 0.716476 0.957896 0.313798
Si Si6 0.658911 0.587292 0.570104
Si Si7 0.980898 0.498347 0.169550
O O1 0.455765 0.661864 0.930673
O O2 0.375947 0.026493 0.879014
O O3 0.562130 0.940310 0.887190
O O4 0.571977 0.011345 0.970789
O O5 0.851436 0.042073 0.662554
O O6 0.745992 0.288939 0.697207
O O7 0.756054 0.800568 0.700108
O O8 0.500000 0.487600 0.750000
O O9 0.521740 0.276735 0.676788
O O10 0.542670 0.752161 0.691211
O O11 0.250000 0.750000 0.500000
O O12 0.351030 0.677080 0.454687
O O13 0.300203 0.168415 0.449701
O O14 0.766415 0.944247 0.372726
O O15 0.592281 0.978240 0.301941
#
# Coordination Sequence:
#
# PCOD9285719 Si02
#       7
#     8   8   8   8   8   8   8
#     4  11  24  40  60  89 125 157 200 250 301 360
#     4   9  20  36  59  85 114 154 188 234 297 351
#     4  10  21  42  66  90 118 153 196 241 294 365
#     4  12  26  41  60  86 118 164 212 255 293 339
#     4   9  18  37  58  82 115 154 199 236 282 355
#     4  11  23  41  61  86 121 162 205 256 303 336
#     4  10  22  37  63  92 119 156 196 240 299 360
#
# _framework density 26.931573
#
# number of rings (size 3 to 8) (size 9 to 14) (size 15 to 20)
#    0.000    1.714    0.000    4.286    0.000   10.286 
#    0.000    1.429    0.000    0.000    0.000    0.000 
#    0.000    0.000    0.000    0.000    0.000    0.000 
#
# Total GULP energy -155873.417783 kJ/mol
# GULP energy per Si atom -5566.907778 kJ/mol
# Density = 2.687028 g / cm^3
# Si number density = 26.931573 Si / 1000 Ang^3
#
#
#
# Elastic Constant Matrix: (Units=GPa)
#
#
# Indices 1 2 3 4 5 6 
#
# 1 106.3326 6.9681 3.3347 0.0000 5.1338 0.0000
# 2 6.9681 265.2557 36.6242 0.0000 -12.2870 0.0000
# 3 3.3347 36.6242 142.2583 0.0000 5.7804 0.0000
# 4 0.0000 0.0000 0.0000 4.4122 0.0000 10.0573
# 5 5.1338 -12.2870 5.7804 0.0000 36.7696 0.0000
# 6 0.0000 0.0000 0.0000 10.0573 0.0000 -6.7122
#
#
#
# Elastic Compliance Matrix: (Units=1/GPa)
#
#
# Indices 1 2 3 4 5 6 
#
# 1 0.009495 -0.000303 -0.000087 0.000000 -0.001413 0.000000
# 2 -0.000303 0.004000 -0.001086 0.000000 0.001549 0.000000
# 3 -0.000087 -0.001086 0.007372 0.000000 -0.001510 0.000000
# 4 0.000000 0.000000 0.000000 0.051331 0.000000 0.076912
# 5 -0.001413 0.001549 -0.001510 0.000000 0.028149 0.000000
# 6 0.000000 0.000000 0.000000 0.076912 0.000000 -0.033742
#
#
# Mechanical properties :
#
#
# Convention : Reuss Voigt Hill
#
# Bulk Modulus (GPa) = 55.81611 67.52229 61.66920
# Shear Modulus (GPa) = 66.20031 38.02189 52.11110
#
# Velocity S-wave (km/s) = 4.96329 3.76146 4.40357
# Velocity P-wave (km/s) = 7.32229 6.63257 6.98595
#
# Compressibility (1/GPa) = 0.01791598
#
# Stress axis : x y z
#
# Youngs Moduli (GPa) = 105.31565 250.02774 135.64255
#
# Poissons Ratio (x) = 0.07572 0.01183
# Poissons Ratio (y) = 0.03190 0.14725
# Poissons Ratio (z) = 0.00918 0.27141
#
# Static dielectric constant tensor:
#      x y z
#    x 2.299850 0.000000 -0.012050 
#    y 0.000000 2.226260 0.000000 
#    z -0.012050 0.000000 2.109470 
# 
# From -- ./inp_files/314905.got.cif
#   From: 2010.05.17/outbox.cif.g08.bks.cpg/sg15_158_cif.got.tgz:314905.got - 2010.06.03 18:47:42.
