data_PCOD9285821
_publ_section_title
;
Structure prediction by ZEFSAII (Michael W. Deem and Ramdas Pophale) SiO2 
 PCOD9285821
Probable space group: C 2/C
;
_chemical_formula_sum "Si O2"
_cell_formula_units_Z 32
_cell_length_a 22.398131
_cell_length_b 6.718624
_cell_length_c 11.487165
_cell_angle_alpha 90.000000
_cell_angle_beta 133.891797
_cell_angle_gamma 90.000000
_cell_volume 1245.746270
_symmetry_space_group_name_H-M "C 2/C"
_symmetry_group_IT_number 15
_symmetry_cell_setting 'monoclinic'
loop_
_space_group_symop_operation_xyz
x,y,z
-x,y,1/2-z
-x,-y,-z
x,-y,1/2+z
1/2+x,1/2+y,z
1/2-x,1/2+y,1/2-z
1/2-x,1/2-y,-z
1/2+x,1/2-y,1/2+z
loop_
_atom_site_type_symbol
_atom_site_label
_atom_site_fract_x
_atom_site_fract_y
_atom_site_fract_z
Si Si1 0.171456 0.400114 0.899293
Si Si2 0.454388 0.432921 0.288364
Si Si3 0.372067 0.416165 0.873185
Si Si4 0.188827 0.643667 0.161308
O O1 0.034024 0.141979 0.968870
O O2 0.177677 0.548128 0.017764
O O3 0.164338 0.464459 0.751936
O O4 0.092423 0.261853 0.817896
O O5 0.500000 0.552450 0.250000
O O6 0.383015 0.563426 0.249906
O O7 0.288203 0.317265 0.802051
O O8 0.358101 0.646133 0.893927
O O9 0.250000 0.750000 0.500000
#
# Coordination Sequence:
#
# PCOD9285821 Si02
#       4
#     8   8   8   8
#     4  11  22  44  69 109 150 192 237 304 361 436
#     4  10  21  42  67  93 146 190 229 298 369 414
#     4  10  23  40  69 104 136 188 244 294 362 437
#     4  11  22  43  73 107 141 193 245 292 371 431
#
# _framework density 25.687414
#
# number of rings (size 3 to 8) (size 9 to 14) (size 15 to 20)
#    0.000    1.500    5.000    1.500    0.000    1.000 
#    0.000    6.250    0.000    0.000    0.000    0.000 
#    0.000    0.000    0.000    0.000    0.000    0.000 
#
# Total GULP energy -89142.697197 kJ/mol
# GULP energy per Si atom -5571.418575 kJ/mol
# Density = 2.562895 g / cm^3
# Si number density = 25.687414 Si / 1000 Ang^3
#
#
#
# Elastic Constant Matrix: (Units=GPa)
#
#
# Indices 1 2 3 4 5 6 
#
# 1 179.3668 30.7246 40.1588 0.0000 -14.6005 0.0000
# 2 30.7246 63.5880 35.5840 0.0000 -8.8470 0.0000
# 3 40.1588 35.5840 99.1505 0.0000 -3.9902 0.0000
# 4 0.0000 0.0000 0.0000 39.8361 0.0000 5.4801
# 5 -14.6005 -8.8470 -3.9902 0.0000 66.6323 0.0000
# 6 0.0000 0.0000 0.0000 5.4801 0.0000 35.0837
#
#
#
# Elastic Compliance Matrix: (Units=1/GPa)
#
#
# Indices 1 2 3 4 5 6 
#
# 1 0.006404 -0.001904 -0.001869 0.000000 0.001039 0.000000
# 2 -0.001904 0.020570 -0.006534 0.000000 0.001923 0.000000
# 3 -0.001869 -0.006534 0.013168 0.000000 -0.000488 0.000000
# 4 0.000000 0.000000 0.000000 0.025654 0.000000 -0.004007
# 5 0.001039 0.001923 -0.000488 0.000000 0.015461 0.000000
# 6 0.000000 0.000000 0.000000 -0.004007 0.000000 0.029129
#
#
# Mechanical properties :
#
#
# Convention : Reuss Voigt Hill
#
# Bulk Modulus (GPa) = 51.20634 61.67113 56.43874
# Shear Modulus (GPa) = 36.36106 44.01962 40.19034
#
# Velocity S-wave (km/s) = 3.76642 4.14413 3.95978
# Velocity P-wave (km/s) = 6.23637 6.85266 6.55176
#
# Compressibility (1/GPa) = 0.01952883
#
# Stress axis : x y z
#
# Youngs Moduli (GPa) = 156.14564 48.61425 75.94276
#
# Poissons Ratio (x) = 0.09257 0.14192
# Poissons Ratio (y) = 0.29733 0.49619
# Poissons Ratio (z) = 0.29179 0.31763
#
# Static dielectric constant tensor:
#      x y z
#    x 1.913680 0.000000 -0.106520 
#    y 0.000000 2.096450 0.000000 
#    z -0.106520 0.000000 2.365040 
# 
# From -- ./inp_files/59600.got.cif
#   From: 2010.05.17/outbox.cif.g08.bks.cpg/sg15_30_cif.got.tgz:59600.got - 2010.06.03 18:47:42.
