data_PCOD9285988
_publ_section_title
;
Structure prediction by ZEFSAII (Michael W. Deem and Ramdas Pophale) SiO2 
 PCOD9285988
Probable space group: C 2/C
;
_chemical_formula_sum "Si O2"
_cell_formula_units_Z 64
_cell_length_a 14.496127
_cell_length_b 14.493590
_cell_length_c 16.610512
_cell_angle_alpha 90.000000
_cell_angle_beta 49.323481
_cell_angle_gamma 90.000000
_cell_volume 2646.733221
_symmetry_space_group_name_H-M "C 2/C"
_symmetry_group_IT_number 15
_symmetry_cell_setting 'monoclinic'
loop_
_space_group_symop_operation_xyz
x,y,z
-x,y,1/2-z
-x,-y,-z
x,-y,1/2+z
1/2+x,1/2+y,z
1/2-x,1/2+y,1/2-z
1/2-x,1/2-y,-z
1/2+x,1/2-y,1/2+z
loop_
_atom_site_type_symbol
_atom_site_label
_atom_site_fract_x
_atom_site_fract_y
_atom_site_fract_z
Si Si1 0.751972 0.410882 0.728380
Si Si2 0.701200 0.804789 0.228063
Si Si3 0.774722 0.085856 0.845224
Si Si4 0.485068 0.134322 0.440140
Si Si5 0.385715 0.709768 0.909359
Si Si6 0.706879 0.377759 0.494574
Si Si7 0.942384 0.293264 0.428658
Si Si8 0.883606 0.050926 0.030209
O O1 0.724921 0.304360 0.724016
O O2 0.691522 0.482646 0.700602
O O3 0.897263 0.428309 0.640476
O O4 0.705393 0.429778 0.844814
O O5 0.755287 0.858383 0.273351
O O6 0.756904 0.843157 0.115181
O O7 0.557302 0.822790 0.311332
O O8 0.870714 0.145433 0.840784
O O9 0.644546 0.087722 0.966413
O O10 0.471216 0.201794 0.371222
O O11 0.515982 0.193812 0.502924
O O12 0.250000 0.750000 0.000000
O O13 0.416921 0.644014 0.966246
O O14 0.821895 0.353782 0.483809
O O15 0.594409 0.310229 0.576941
O O16 0.674534 0.483657 0.503500
O O17 0.000000 0.000000 0.000000
#
# Coordination Sequence:
#
# PCOD9285988 Si02
#       8
#     8   8   8   8   8   8   8   8
#     4  12  23  41  71  99 133 189 231 284 357 427
#     4  11  22  43  66  96 144 178 235 289 357 411
#     4  10  23  43  69 102 139 184 235 296 350 434
#     4  10  21  42  69  95 141 184 228 290 358 414
#     4  10  23  47  71 101 140 188 233 293 356 423
#     4  11  22  41  66  98 133 178 238 286 343 422
#     4  10  22  40  68  93 132 184 223 289 351 406
#     4  12  26  45  70  98 139 184 233 288 356 417
#
# _framework density 24.180752999999999
#
# number of rings (size 3 to 8) (size 9 to 14) (size 15 to 20)
#    0.000    1.250    2.500    4.500    1.750    0.000 
#    2.250   10.000    0.000    0.000    0.000    0.000 
#    0.000    0.000    0.000    0.000    0.000    0.000 
#
# Total GULP energy -179267.024507 kJ/mol
# GULP energy per Si atom -5602.094516 kJ/mol
# Density = 2.412572 g / cm^3
# Si number density = 24.180753 Si / 1000 Ang^3
#
#
#
# Elastic Constant Matrix: (Units=GPa)
#
#
# Indices 1 2 3 4 5 6 
#
# 1 80.9617 3.5053 13.9340 0.0000 4.8916 0.0000
# 2 3.5053 90.9767 -3.6110 0.0000 9.4070 0.0000
# 3 13.9340 -3.6110 39.2869 0.0000 -2.0995 0.0000
# 4 0.0000 0.0000 0.0000 22.7562 0.0000 6.3782
# 5 4.8916 9.4070 -2.0995 0.0000 30.0088 0.0000
# 6 0.0000 0.0000 0.0000 6.3782 0.0000 41.1127
#
#
#
# Elastic Compliance Matrix: (Units=1/GPa)
#
#
# Indices 1 2 3 4 5 6 
#
# 1 0.013360 -0.000464 -0.004908 0.000000 -0.002376 0.000000
# 2 -0.000464 0.011405 0.001030 0.000000 -0.003428 0.000000
# 3 -0.004908 0.001030 0.027417 0.000000 0.002395 0.000000
# 4 0.000000 0.000000 0.000000 0.045942 0.000000 -0.007127
# 5 -0.002376 -0.003428 0.002395 0.000000 0.034953 0.000000
# 6 0.000000 0.000000 0.000000 -0.007127 0.000000 0.025429
#
#
# Mechanical properties :
#
#
# Convention : Reuss Voigt Hill
#
# Bulk Modulus (GPa) = 22.98985 26.54246 24.76615
# Shear Modulus (GPa) = 27.51949 31.93533 29.72741
#
# Velocity S-wave (km/s) = 3.37720 3.63808 3.51006
# Velocity P-wave (km/s) = 4.97347 5.35238 5.16640
#
# Compressibility (1/GPa) = 0.04349746
#
# Stress axis : x y z
#
# Youngs Moduli (GPa) = 74.85128 87.68108 36.47347
#
# Poissons Ratio (x) = 0.04068 0.17901
# Poissons Ratio (y) = 0.03472 -0.03755
# Poissons Ratio (z) = 0.36737 -0.09028
#
# Static dielectric constant tensor:
#      x y z
#    x 1.909660 0.000000 0.006310 
#    y 0.000000 1.911740 0.000000 
#    z 0.006310 0.000000 1.918570 
# 
# From -- ./inp_files/205694.got.cif
#   From: 2010.05.17/outbox.cif.g08.bks.cpg/sg15_103_cif.got.tgz:205694.got - 2010.06.03 18:47:42.
