data_PCOD9285463
_publ_section_title
;
Structure prediction by ZEFSAII (Michael W. Deem and Ramdas Pophale) SiO2 
 PCOD9285463
Probable space group: C 2/C
;
_chemical_formula_sum "Si O2"
_cell_formula_units_Z 48
_cell_length_a 10.107833
_cell_length_b 29.562326
_cell_length_c 9.003657
_cell_angle_alpha 90.000000
_cell_angle_beta 112.677027
_cell_angle_gamma 90.000000
_cell_volume 2482.405405
_symmetry_space_group_name_H-M "C 2/C"
_symmetry_group_IT_number 15
_symmetry_cell_setting 'monoclinic'
loop_
_space_group_symop_operation_xyz
x,y,z
-x,y,1/2-z
-x,-y,-z
x,-y,1/2+z
1/2+x,1/2+y,z
1/2-x,1/2+y,1/2-z
1/2-x,1/2-y,-z
1/2+x,1/2-y,1/2+z
loop_
_atom_site_type_symbol
_atom_site_label
_atom_site_fract_x
_atom_site_fract_y
_atom_site_fract_z
Si Si1 0.774341 0.116287 0.464645
Si Si2 0.517999 0.451303 0.582342
Si Si3 0.000000 0.645753 0.750000
Si Si4 0.498760 0.307075 0.073921
Si Si5 0.000000 0.331120 0.750000
Si Si6 0.200581 0.887518 0.182257
Si Si7 0.886050 0.722116 0.482270
O O1 0.832951 0.075006 0.390858
O O2 0.871372 0.160137 0.474045
O O3 0.613471 0.135106 0.380112
O O4 0.819997 0.103710 0.652238
O O5 0.500000 0.454635 0.750000
O O6 0.500000 0.500000 0.500000
O O7 0.391664 0.420831 0.457114
O O8 0.131298 0.613916 0.766068
O O9 0.938958 0.680292 0.601630
O O10 0.500000 0.296248 0.250000
O O11 0.641034 0.337454 0.118774
O O12 0.498423 0.262365 0.977553
O O13 0.903623 0.300171 0.822369
O O14 0.750000 0.750000 0.500000
#
# Coordination Sequence:
#
# PCOD9285463 Si02
#       7
#     8   8   4   8   4   8   8
#     4  10  23  40  65  89 131 170 214 276 330 396
#     4  11  24  44  75 101 126 161 212 268 335 422
#     4  12  24  38  61  92 136 176 217 288 324 384
#     4   9  19  37  58  82 119 175 223 269 320 376
#     4  12  26  40  61  94 134 182 231 278 338 380
#     4  10  21  42  61  93 131 168 214 268 340 386
#     4  12  25  38  58  89 133 180 239 277 323 387
#
# _framework density 19.336082999999999
#
# number of rings (size 3 to 8) (size 9 to 14) (size 15 to 20)
#    0.000    1.333    4.167    2.500    4.667    0.667 
#    1.500    0.833    0.000    4.000    0.000    0.000 
#    0.000    0.000    0.000    0.000    0.000    0.000 
#
# Total GULP energy -133602.916975 kJ/mol
# GULP energy per Si atom -5566.788207 kJ/mol
# Density = 1.929207 g / cm^3
# Si number density = 19.336083 Si / 1000 Ang^3
#
#
#
# Elastic Constant Matrix: (Units=GPa)
#
#
# Indices 1 2 3 4 5 6 
#
# 1 102.9251 37.7643 34.7025 0.0000 6.0963 0.0000
# 2 37.7643 95.7509 36.9463 0.0000 -17.8819 0.0000
# 3 34.7025 36.9463 84.4661 0.0000 -12.4760 0.0000
# 4 0.0000 0.0000 0.0000 40.5227 0.0000 -0.4905
# 5 6.0963 -17.8819 -12.4760 0.0000 30.0053 0.0000
# 6 0.0000 0.0000 0.0000 -0.4905 0.0000 24.0134
#
#
#
# Elastic Compliance Matrix: (Units=1/GPa)
#
#
# Indices 1 2 3 4 5 6 
#
# 1 0.013520 -0.005024 -0.004480 0.000000 -0.007604 0.000000
# 2 -0.005024 0.015360 -0.003358 0.000000 0.008778 0.000000
# 3 -0.004480 -0.003358 0.015968 0.000000 0.005548 0.000000
# 4 0.000000 0.000000 0.000000 0.024684 0.000000 0.000504
# 5 -0.007604 0.008778 0.005548 0.000000 0.042411 0.000000
# 6 0.000000 0.000000 0.000000 0.000504 0.000000 0.041654
#
#
# Mechanical properties :
#
#
# Convention : Reuss Voigt Hill
#
# Bulk Modulus (GPa) = 52.28966 55.77427 54.03196
# Shear Modulus (GPa) = 26.92580 30.49023 28.70801
#
# Velocity S-wave (km/s) = 3.73569 3.97527 3.85734
# Velocity P-wave (km/s) = 6.76080 7.06949 6.91687
#
# Compressibility (1/GPa) = 0.01912424
#
# Stress axis : x y z
#
# Youngs Moduli (GPa) = 73.96476 65.10312 62.62424
#
# Poissons Ratio (x) = 0.32705 0.28058
# Poissons Ratio (y) = 0.37156 0.21031
# Poissons Ratio (z) = 0.33139 0.21863
#
# Static dielectric constant tensor:
#      x y z
#    x 1.761410 0.000000 -0.042650 
#    y 0.000000 1.654820 0.000000 
#    z -0.042650 0.000000 1.701690 
# 
# From -- ./inp_files/33833.got.cif
#   From: 2010.05.17/outbox.cif.g08.bks.cpg/sg15_17_cif.got.tgz:33833.got - 2010.06.03 18:47:42.
