data_PCOD9285812
_publ_section_title
;
Structure prediction by ZEFSAII (Michael W. Deem and Ramdas Pophale) SiO2 
 PCOD9285812
Probable space group: C 2/C
;
_chemical_formula_sum "Si O2"
_cell_formula_units_Z 52
_cell_length_a 17.194563
_cell_length_b 30.346374
_cell_length_c 5.466685
_cell_angle_alpha 90.000000
_cell_angle_beta 119.606359
_cell_angle_gamma 90.000000
_cell_volume 2480.057026
_symmetry_space_group_name_H-M "C 2/C"
_symmetry_group_IT_number 15
_symmetry_cell_setting 'monoclinic'
loop_
_space_group_symop_operation_xyz
x,y,z
-x,y,1/2-z
-x,-y,-z
x,-y,1/2+z
1/2+x,1/2+y,z
1/2-x,1/2+y,1/2-z
1/2-x,1/2-y,-z
1/2+x,1/2-y,1/2+z
loop_
_atom_site_type_symbol
_atom_site_label
_atom_site_fract_x
_atom_site_fract_y
_atom_site_fract_z
Si Si1 0.737124 0.352108 0.807787
Si Si2 0.103751 0.018790 0.649962
Si Si3 0.598357 0.027890 0.438568
Si Si4 0.168066 0.269020 0.717280
Si Si5 0.234963 0.906513 0.305997
Si Si6 0.080192 0.801662 0.740249
Si Si7 0.500000 0.768653 0.750000
O O1 0.799325 0.308708 0.903189
O O2 0.746242 0.377090 0.565921
O O3 0.637166 0.333342 0.664185
O O4 0.746791 0.380450 0.069377
O O5 0.137667 0.068749 0.661280
O O6 0.142447 0.994020 0.473786
O O7 0.000000 0.000000 0.500000
O O8 0.500000 0.050122 0.250000
O O9 0.684621 0.058528 0.555940
O O10 0.601224 0.005664 0.712124
O O11 0.137416 0.225439 0.525439
O O12 0.087001 0.289007 0.755460
O O13 0.250000 0.250000 0.000000
O O14 0.039835 0.762888 0.517316
O O15 0.000000 0.826187 0.750000
#
# Coordination Sequence:
#
# PCOD9285812 Si02
#       7
#     8   8   8   8   8   8   4
#     4  12  26  42  66  99 142 181 210 292 358 398
#     4  10  21  42  67  92 126 176 228 259 311 407
#     4  10  21  42  73  95 123 173 227 273 329 413
#     4  11  22  43  72  92 133 183 246 280 338 415
#     4  12  25  42  64 102 140 171 217 280 354 401
#     4  10  23  43  66  95 128 183 240 285 329 421
#     4  10  22  40  70  96 118 174 254 286 318 402
#
# _framework density 20.967258000000001
#
# number of rings (size 3 to 8) (size 9 to 14) (size 15 to 20)
#    0.000    1.231    1.538    4.154    4.308    0.000 
#    9.692    0.000    0.000    0.000    0.000    0.000 
#    0.000    0.000    0.000    0.000    0.000    0.000 
#
# Total GULP energy -144929.283411 kJ/mol
# GULP energy per Si atom -5574.203208 kJ/mol
# Density = 2.091954 g / cm^3
# Si number density = 20.967258 Si / 1000 Ang^3
#
#
#
# Elastic Constant Matrix: (Units=GPa)
#
#
# Indices 1 2 3 4 5 6 
#
# 1 114.5745 19.8072 21.0884 0.0000 -0.6352 0.0000
# 2 19.8072 33.6272 9.7598 0.0000 5.2264 0.0000
# 3 21.0884 9.7598 100.5223 0.0000 -12.5626 0.0000
# 4 0.0000 0.0000 0.0000 49.3141 0.0000 -2.1591
# 5 -0.6352 5.2264 -12.5626 0.0000 43.0997 0.0000
# 6 0.0000 0.0000 0.0000 -2.1591 0.0000 50.0800
#
#
#
# Elastic Compliance Matrix: (Units=1/GPa)
#
#
# Indices 1 2 3 4 5 6 
#
# 1 0.009956 -0.005484 -0.001510 0.000000 0.000372 0.000000
# 2 -0.005484 0.034587 -0.002846 0.000000 -0.005104 0.000000
# 3 -0.001510 -0.002846 0.010981 0.000000 0.003524 0.000000
# 4 0.000000 0.000000 0.000000 0.020317 0.000000 0.000876
# 5 0.000372 -0.005104 0.003524 0.000000 0.024854 0.000000
# 6 0.000000 0.000000 0.000000 0.000876 0.000000 0.020006
#
#
# Mechanical properties :
#
#
# Convention : Reuss Voigt Hill
#
# Bulk Modulus (GPa) = 27.89696 38.89275 33.39486
# Shear Modulus (GPa) = 32.82402 41.70334 37.26368
#
# Velocity S-wave (km/s) = 3.96092 4.46463 4.22030
# Velocity P-wave (km/s) = 5.85256 6.72062 6.30155
#
# Compressibility (1/GPa) = 0.03584620
#
# Stress axis : x y z
#
# Youngs Moduli (GPa) = 100.44283 28.91243 91.06297
#
# Poissons Ratio (x) = 0.15855 0.13748
# Poissons Ratio (y) = 0.55081 0.25913
# Poissons Ratio (z) = 0.15164 0.08227
#
# Static dielectric constant tensor:
#      x y z
#    x 1.766790 0.000000 0.040200 
#    y 0.000000 1.738510 0.000000 
#    z 0.040200 0.000000 1.718040 
# 
# From -- ./inp_files/11618.got.cif
#   From: 2010.05.17/outbox.cif.g08.bks.cpg/sg15_6_cif.got.tgz:11618.got - 2010.06.03 18:47:42.
