data_PCOD9285843
_publ_section_title
;
Structure prediction by ZEFSAII (Michael W. Deem and Ramdas Pophale) SiO2 
 PCOD9285843
Probable space group: C 2/C
;
_chemical_formula_sum "Si O2"
_cell_formula_units_Z 48
_cell_length_a 9.868253
_cell_length_b 14.134450
_cell_length_c 15.879139
_cell_angle_alpha 90.000000
_cell_angle_beta 65.428551
_cell_angle_gamma 90.000000
_cell_volume 2014.289230
_symmetry_space_group_name_H-M "C 2/C"
_symmetry_group_IT_number 15
_symmetry_cell_setting 'monoclinic'
loop_
_space_group_symop_operation_xyz
x,y,z
-x,y,1/2-z
-x,-y,-z
x,-y,1/2+z
1/2+x,1/2+y,z
1/2-x,1/2+y,1/2-z
1/2-x,1/2-y,-z
1/2+x,1/2-y,1/2+z
loop_
_atom_site_type_symbol
_atom_site_label
_atom_site_fract_x
_atom_site_fract_y
_atom_site_fract_z
Si Si1 0.157004 0.957654 0.784788
Si Si2 0.130900 0.044720 0.547286
Si Si3 0.675411 0.308990 0.624866
Si Si4 0.374742 0.311017 0.590353
Si Si5 0.184711 0.388854 0.068860
Si Si6 0.152900 0.405905 0.366923
O O1 0.159795 0.880335 0.706596
O O2 0.225657 0.890887 0.839315
O O3 0.997091 0.005710 0.640653
O O4 0.251919 0.046177 0.730652
O O5 0.102946 0.144948 0.508181
O O6 0.279095 0.050165 0.565715
O O7 0.179741 0.963315 0.467674
O O8 0.525906 0.314660 0.606844
O O9 0.803264 0.340425 0.527359
O O10 0.697525 0.196881 0.632985
O O11 0.323116 0.205257 0.620165
O O12 0.017457 0.426465 0.112794
#
# Coordination Sequence:
#
# PCOD9285843 Si02
#       6
#     8   8   8   8   8   8
#     4  12  24  44  70  95 130 176 224 273 321 391
#     4  12  23  43  70  94 132 177 220 262 334 401
#     4  10  21  42  67  97 125 169 224 266 325 386
#     4  11  24  42  65  99 130 171 224 267 327 398
#     4  10  22  40  69  95 128 167 218 268 328 387
#     4  11  24  44  64  97 132 174 214 274 333 383
#
# _framework density 23.829747000000001
#
# number of rings (size 3 to 8) (size 9 to 14) (size 15 to 20)
#    0.000    1.000    3.333    3.500    0.000    1.333 
#    6.000    5.833    0.000    0.000    0.000    0.000 
#    0.000    0.000    0.000    0.000    0.000    0.000 
#
# Total GULP energy -133821.183138 kJ/mol
# GULP energy per Si atom -5575.882631 kJ/mol
# Density = 2.377551 g / cm^3
# Si number density = 23.829747 Si / 1000 Ang^3
#
#
#
# Elastic Constant Matrix: (Units=GPa)
#
#
# Indices 1 2 3 4 5 6 
#
# 1 65.0374 38.9429 38.6197 0.0000 -26.8921 0.0000
# 2 38.9429 159.6895 76.4480 0.0000 -39.2283 0.0000
# 3 38.6197 76.4480 102.9247 0.0000 -23.7943 0.0000
# 4 0.0000 0.0000 0.0000 56.3432 0.0000 1.0101
# 5 -26.8921 -39.2283 -23.7943 0.0000 30.8179 0.0000
# 6 0.0000 0.0000 0.0000 1.0101 0.0000 37.8442
#
#
#
# Elastic Compliance Matrix: (Units=1/GPa)
#
#
# Indices 1 2 3 4 5 6 
#
# 1 0.026667 0.001588 -0.006499 0.000000 0.020274 0.000000
# 2 0.001588 0.011921 -0.006844 0.000000 0.011277 0.000000
# 3 -0.006499 -0.006844 0.016935 0.000000 -0.001306 0.000000
# 4 0.000000 0.000000 0.000000 0.017757 0.000000 -0.000474
# 5 0.020274 0.011277 -0.001306 0.000000 0.063485 0.000000
# 6 0.000000 0.000000 0.000000 -0.000474 0.000000 0.026437
#
#
# Mechanical properties :
#
#
# Convention : Reuss Voigt Hill
#
# Bulk Modulus (GPa) = 31.23507 70.63033 50.93270
# Shear Modulus (GPa) = 25.33162 36.57713 30.95437
#
# Velocity S-wave (km/s) = 3.26394 3.92208 3.60805
# Velocity P-wave (km/s) = 5.22881 7.08619 6.22714
#
# Compressibility (1/GPa) = 0.03201530
#
# Stress axis : x y z
#
# Youngs Moduli (GPa) = 37.50003 83.88450 59.04781
#
# Poissons Ratio (x) = -0.13324 0.38374
# Poissons Ratio (y) = -0.05956 0.40410
# Poissons Ratio (z) = 0.24370 0.57407
#
# Static dielectric constant tensor:
#      x y z
#    x 1.962540 0.000000 0.018630 
#    y 0.000000 2.057450 0.000000 
#    z 0.018630 0.000000 1.989340 
# 
# From -- ./inp_files/143552.got.cif
#   From: 2010.05.17/outbox.cif.g08.bks.cpg/sg15_72_cif.got.tgz:143552.got - 2010.06.03 18:47:42.
