data_PCOD9285656
_publ_section_title
;
Structure prediction by ZEFSAII (Michael W. Deem and Ramdas Pophale) SiO2 
 PCOD9285656
Probable space group: C 2/C
;
_chemical_formula_sum "Si O2"
_cell_formula_units_Z 48
_cell_length_a 11.340831
_cell_length_b 10.980565
_cell_length_c 23.030300
_cell_angle_alpha 90.000000
_cell_angle_beta 47.643153
_cell_angle_gamma 90.000000
_cell_volume 2119.297125
_symmetry_space_group_name_H-M "C 2/C"
_symmetry_group_IT_number 15
_symmetry_cell_setting 'monoclinic'
loop_
_space_group_symop_operation_xyz
x,y,z
-x,y,1/2-z
-x,-y,-z
x,-y,1/2+z
1/2+x,1/2+y,z
1/2-x,1/2+y,1/2-z
1/2-x,1/2-y,-z
1/2+x,1/2-y,1/2+z
loop_
_atom_site_type_symbol
_atom_site_label
_atom_site_fract_x
_atom_site_fract_y
_atom_site_fract_z
Si Si1 0.339441 0.798892 0.111022
Si Si2 0.904871 0.389573 0.837652
Si Si3 0.382544 0.345791 0.205863
Si Si4 0.181230 0.749418 0.667005
Si Si5 0.676375 0.490214 0.605181
Si Si6 0.344111 0.105450 0.941377
O O1 0.271188 0.663943 0.119613
O O2 0.239146 0.843557 0.200440
O O3 0.520666 0.821038 0.068343
O O4 0.290382 0.893052 0.076732
O O5 0.907647 0.482580 0.889489
O O6 0.000000 0.441472 0.750000
O O7 0.001258 0.268186 0.821558
O O8 0.291252 0.316693 0.177253
O O9 0.494452 0.463772 0.169069
O O10 0.213225 0.891064 0.642564
O O11 0.204249 0.683866 0.597975
O O12 0.000000 0.740567 0.750000
O O13 0.710883 0.432949 0.531304
#
# Coordination Sequence:
#
# PCOD9285656 Si02
#       6
#     8   8   8   8   8   8
#     4  10  21  42  65  92 125 168 224 263 319 391
#     4   9  21  39  64  92 121 166 221 272 316 384
#     4  10  22  43  66  92 123 170 225 264 317 390
#     4  12  24  42  64  92 128 173 219 264 320 391
#     4  11  25  41  65  95 132 170 211 271 332 383
#     4  12  24  39  63  99 132 166 211 268 335 390
#
# _framework density 22.649018000000002
#
# number of rings (size 3 to 8) (size 9 to 14) (size 15 to 20)
#    0.000    1.333    1.667    5.000    0.000    6.000 
#    0.000    0.000    0.000    0.000    0.000    0.000 
#    0.000    0.000    0.000    0.000    0.000    0.000 
#
# Total GULP energy -134284.658935 kJ/mol
# GULP energy per Si atom -5595.194122 kJ/mol
# Density = 2.259747 g / cm^3
# Si number density = 22.649018 Si / 1000 Ang^3
#
#
#
# Elastic Constant Matrix: (Units=GPa)
#
#
# Indices 1 2 3 4 5 6 
#
# 1 75.4434 0.3715 6.2966 0.0000 12.1664 0.0000
# 2 0.3715 69.8120 22.1260 0.0000 1.1780 0.0000
# 3 6.2966 22.1260 76.9417 0.0000 7.8990 0.0000
# 4 0.0000 0.0000 0.0000 22.2089 0.0000 10.7391
# 5 12.1664 1.1780 7.8990 0.0000 24.6232 0.0000
# 6 0.0000 0.0000 0.0000 10.7391 0.0000 8.7036
#
#
#
# Elastic Compliance Matrix: (Units=1/GPa)
#
#
# Indices 1 2 3 4 5 6 
#
# 1 0.014421 0.000207 -0.000524 0.000000 -0.006967 0.000000
# 2 0.000207 0.015776 -0.004618 0.000000 0.000624 0.000000
# 3 -0.000524 -0.004618 0.014806 0.000000 -0.004270 0.000000
# 4 0.000000 0.000000 0.000000 0.111631 0.000000 -0.137738
# 5 -0.006967 0.000624 -0.004270 0.000000 0.045394 0.000000
# 6 0.000000 0.000000 0.000000 -0.137738 0.000000 0.284847
#
#
# Mechanical properties :
#
#
# Convention : Reuss Voigt Hill
#
# Bulk Modulus (GPa) = 28.46319 31.08725 29.77522
# Shear Modulus (GPa) = 9.83368 24.00066 16.91717
#
# Velocity S-wave (km/s) = 2.08595 3.25880 2.73596
# Velocity P-wave (km/s) = 4.28905 5.28348 4.81202
#
# Compressibility (1/GPa) = 0.03513310
#
# Stress axis : x y z
#
# Youngs Moduli (GPa) = 69.34193 63.38708 67.54009
#
# Poissons Ratio (x) = -0.01312 0.03542
# Poissons Ratio (y) = -0.01436 0.31188
# Poissons Ratio (z) = 0.03637 0.29271
#
# Static dielectric constant tensor:
#      x y z
#    x 1.846130 0.000000 -0.015330 
#    y 0.000000 1.881190 0.000000 
#    z -0.015330 0.000000 1.816060 
# 
# From -- ./inp_files/196513.got.cif
#   From: 2010.05.17/outbox.cif.g08.bks.cpg/sg15_99_cif.got.tgz:196513.got - 2010.06.03 18:47:42.
