data_PCOD9285760
_publ_section_title
;
Structure prediction by ZEFSAII (Michael W. Deem and Ramdas Pophale) SiO2 
 PCOD9285760
Probable space group: C 2/C
;
_chemical_formula_sum "Si O2"
_cell_formula_units_Z 44
_cell_length_a 30.678467
_cell_length_b 11.108364
_cell_length_c 19.258241
_cell_angle_alpha 90.000000
_cell_angle_beta 15.129015
_cell_angle_gamma 90.000000
_cell_volume 1712.891660
_symmetry_space_group_name_H-M "C 2/C"
_symmetry_group_IT_number 15
_symmetry_cell_setting 'monoclinic'
loop_
_space_group_symop_operation_xyz
x,y,z
-x,y,1/2-z
-x,-y,-z
x,-y,1/2+z
1/2+x,1/2+y,z
1/2-x,1/2+y,1/2-z
1/2-x,1/2-y,-z
1/2+x,1/2-y,1/2+z
loop_
_atom_site_type_symbol
_atom_site_label
_atom_site_fract_x
_atom_site_fract_y
_atom_site_fract_z
Si Si1 0.673364 0.377874 0.091322
Si Si2 0.051844 0.366430 0.099554
Si Si3 0.951307 0.123218 0.201015
Si Si4 0.652841 0.905032 0.381475
Si Si5 0.086748 0.196191 0.399844
Si Si6 0.000000 0.739981 0.250000
O O1 0.687145 0.523651 0.065099
O O2 0.532698 0.382768 0.368156
O O3 0.633285 0.332107 0.076427
O O4 0.750000 0.250000 0.000000
O O5 0.075350 0.462909 0.004310
O O6 0.234040 0.321936 0.840450
O O7 0.935177 0.252829 0.263925
O O8 0.000000 0.432186 0.250000
O O9 0.937523 0.154979 0.140890
O O10 0.145028 0.088457 0.923237
O O11 0.568785 0.836964 0.445712
O O12 0.582768 0.833768 0.558713
#
# Coordination Sequence:
#
# PCOD9285760 Si02
#       6
#     8   8   8   8   8   4
#     4  11  23  39  68 101 127 175 223 277 330 394
#     4  11  24  42  67  94 134 181 215 276 337 394
#     4  11  24  42  66  96 137 172 223 278 333 394
#     4  10  21  42  66  95 131 178 225 267 335 394
#     4  10  23  41  67  96 130 176 222 276 327 395
#     4  10  22  38  64  98 132 170 228 280 312 398
#
# _framework density 25.687557000000002
#
# number of rings (size 3 to 8) (size 9 to 14) (size 15 to 20)
#    0.000    1.455    2.727    1.636    3.818    1.455 
#    0.000    0.000    0.000    0.000    0.000    0.000 
#    0.000    0.000    0.000    0.000    0.000    0.000 
#
# Total GULP energy -122547.620810 kJ/mol
# GULP energy per Si atom -5570.346400 kJ/mol
# Density = 2.562909 g / cm^3
# Si number density = 25.687557 Si / 1000 Ang^3
#
#
#
# Elastic Constant Matrix: (Units=GPa)
#
#
# Indices 1 2 3 4 5 6 
#
# 1 70.3666 47.0342 -7.2022 -0.0002 -12.3814 0.0002
# 2 47.0342 187.0954 9.5913 -0.0002 -8.6004 0.0003
# 3 -7.2022 9.5913 39.1773 -0.0006 -4.7277 0.0001
# 4 -0.0002 -0.0002 -0.0006 31.8645 0.0005 8.4947
# 5 -12.3814 -8.6004 -4.7277 0.0005 25.9127 -0.0003
# 6 0.0002 0.0003 0.0001 8.4947 -0.0003 28.9375
#
#
#
# Elastic Compliance Matrix: (Units=1/GPa)
#
#
# Indices 1 2 3 4 5 6 
#
# 1 0.019581 -0.004817 0.005844 0.000000 0.008824 0.000000
# 2 -0.004817 0.006662 -0.002584 0.000000 -0.000562 0.000000
# 3 0.005844 -0.002584 0.028084 0.000001 0.007058 0.000000
# 4 0.000000 0.000000 0.000001 0.034047 -0.000001 -0.009995
# 5 0.008824 -0.000562 0.007058 -0.000001 0.043909 0.000001
# 6 0.000000 0.000000 0.000000 -0.009995 0.000001 0.037491
#
#
# Mechanical properties :
#
#
# Convention : Reuss Voigt Hill
#
# Bulk Modulus (GPa) = 19.52617 43.94289 31.73453
# Shear Modulus (GPa) = 26.32131 33.82400 30.07266
#
# Velocity S-wave (km/s) = 3.20452 3.63264 3.42527
# Velocity P-wave (km/s) = 4.61626 5.89394 5.29379
#
# Compressibility (1/GPa) = 0.05121332
#
# Stress axis : x y z
#
# Youngs Moduli (GPa) = 51.06862 150.09646 35.60784
#
# Poissons Ratio (x) = 0.72295 -0.20808
# Poissons Ratio (y) = 0.24598 0.09202
# Poissons Ratio (z) = -0.29843 0.38790
#
# Static dielectric constant tensor:
#      x y z
#    x 1.937800 0.000000 0.009480 
#    y 0.000000 2.179660 0.000000 
#    z 0.009480 0.000000 2.326310 
# 
# From -- ./inp_files/225105.got.cif
#   From: 2010.05.17/outbox.cif.g08.bks.cpg/sg15_113_cif.got.tgz:225105.got - 2010.06.03 18:47:42.
