data_PCOD9285942
_publ_section_title
;
Structure prediction by ZEFSAII (Michael W. Deem and Ramdas Pophale) SiO2 
 PCOD9285942
Probable space group: C 2/C
;
_chemical_formula_sum "Si O2"
_cell_formula_units_Z 48
_cell_length_a 23.419694
_cell_length_b 5.329882
_cell_length_c 23.839674
_cell_angle_alpha 90.000000
_cell_angle_beta 133.058512
_cell_angle_gamma 90.000000
_cell_volume 2174.265527
_symmetry_space_group_name_H-M "C 2/C"
_symmetry_group_IT_number 15
_symmetry_cell_setting 'monoclinic'
loop_
_space_group_symop_operation_xyz
x,y,z
-x,y,1/2-z
-x,-y,-z
x,-y,1/2+z
1/2+x,1/2+y,z
1/2-x,1/2+y,1/2-z
1/2-x,1/2-y,-z
1/2+x,1/2-y,1/2+z
loop_
_atom_site_type_symbol
_atom_site_label
_atom_site_fract_x
_atom_site_fract_y
_atom_site_fract_z
Si Si1 0.345089 0.957011 0.451170
Si Si2 0.923590 0.204852 0.606941
Si Si3 0.445810 0.052708 0.756166
Si Si4 0.928207 0.058145 0.323374
Si Si5 0.093410 0.962669 0.067926
Si Si6 0.164380 0.152696 0.846411
O O1 0.383851 0.895863 0.537359
O O2 0.369624 0.718053 0.430389
O O3 0.252398 0.929938 0.396639
O O4 0.374545 0.215905 0.442655
O O5 0.863336 0.080745 0.609663
O O6 0.986728 0.350096 0.686645
O O7 0.980092 0.012771 0.613043
O O8 0.500000 0.223453 0.750000
O O9 0.427874 0.150525 0.806962
O O10 0.364231 0.945332 0.677484
O O11 0.890084 0.959118 0.354195
O O12 0.884507 0.961287 0.238105
O O13 0.000000 0.000000 0.000000
#
# Coordination Sequence:
#
# PCOD9285942 Si02
#       6
#     8   8   8   8   8   8
#     4  12  27  46  69 103 139 181 232 290 350 410
#     4  10  21  42  68  99 134 179 230 287 346 420
#     4   9  19  38  67 101 133 177 229 285 352 421
#     4  11  22  40  71  94 137 181 234 281 339 421
#     4  12  27  46  73  97 137 187 238 277 338 417
#     4  10  24  41  66 102 139 174 226 293 362 404
#
# _framework density 22.076421
#
# number of rings (size 3 to 8) (size 9 to 14) (size 15 to 20)
#    0.000    1.333    1.667    4.500    7.000    1.333 
#    0.000    1.667    0.000    0.000    0.000    0.000 
#    0.000    0.000    0.000    0.000    0.000    0.000 
#
# Total GULP energy -133687.227120 kJ/mol
# GULP energy per Si atom -5570.301130 kJ/mol
# Density = 2.202617 g / cm^3
# Si number density = 22.076421 Si / 1000 Ang^3
#
#
#
# Elastic Constant Matrix: (Units=GPa)
#
#
# Indices 1 2 3 4 5 6 
#
# 1 157.6843 57.4226 66.7672 -0.0059 0.1996 -0.0074
# 2 57.4226 87.5685 28.7342 -0.0225 3.2611 -0.0229
# 3 66.7672 28.7342 99.2928 0.0016 -1.0788 -0.0006
# 4 -0.0059 -0.0225 0.0016 19.7321 -0.0011 -8.2956
# 5 0.1996 3.2611 -1.0788 -0.0011 47.0090 -0.0023
# 6 -0.0074 -0.0229 -0.0006 -8.2956 -0.0023 34.3276
#
#
#
# Elastic Compliance Matrix: (Units=1/GPa)
#
#
# Indices 1 2 3 4 5 6 
#
# 1 0.010587 -0.005098 -0.005642 -0.000003 0.000179 -0.000002
# 2 -0.005098 0.015116 -0.000958 0.000022 -0.001049 0.000014
# 3 -0.005642 -0.000958 0.014147 -0.000005 0.000415 -0.000003
# 4 -0.000003 0.000022 -0.000005 0.056410 0.000000 0.013632
# 5 0.000179 -0.001049 0.000415 0.000000 0.021354 0.000001
# 6 -0.000002 0.000014 -0.000003 0.013632 0.000001 0.032425
#
#
# Mechanical properties :
#
#
# Convention : Reuss Voigt Hill
#
# Bulk Modulus (GPa) = 60.77332 72.26596 66.51964
# Shear Modulus (GPa) = 27.94580 32.98852 30.46716
#
# Velocity S-wave (km/s) = 3.56176 3.86980 3.71897
# Velocity P-wave (km/s) = 6.67107 7.26448 6.97409
#
# Compressibility (1/GPa) = 0.01645459
#
# Stress axis : x y z
#
# Youngs Moduli (GPa) = 94.45780 66.15590 70.68858
#
# Poissons Ratio (x) = 0.33724 0.39880
# Poissons Ratio (y) = 0.48151 0.06772
# Poissons Ratio (z) = 0.53290 0.06337
#
# Static dielectric constant tensor:
#      x y z
#    x 1.942170 0.000000 -0.087170 
#    y 0.000000 2.172580 0.000000 
#    z -0.087170 0.000000 1.833170 
# 
# From -- ./inp_files/279035.got.cif
#   From: 2010.05.17/outbox.cif.g08.bks.cpg/sg15_140_cif.got.tgz:279035.got - 2010.06.03 18:47:42.
