data_PCOD9285684
_publ_section_title
;
Structure prediction by ZEFSAII (Michael W. Deem and Ramdas Pophale) SiO2 
 PCOD9285684
Probable space group: C 2/C
;
_chemical_formula_sum "Si O2"
_cell_formula_units_Z 52
_cell_length_a 8.267386
_cell_length_b 24.128131
_cell_length_c 11.267606
_cell_angle_alpha 90.000000
_cell_angle_beta 107.509124
_cell_angle_gamma 90.000000
_cell_volume 2143.488903
_symmetry_space_group_name_H-M "C 2/C"
_symmetry_group_IT_number 15
_symmetry_cell_setting 'monoclinic'
loop_
_space_group_symop_operation_xyz
x,y,z
-x,y,1/2-z
-x,-y,-z
x,-y,1/2+z
1/2+x,1/2+y,z
1/2-x,1/2+y,1/2-z
1/2-x,1/2-y,-z
1/2+x,1/2-y,1/2+z
loop_
_atom_site_type_symbol
_atom_site_label
_atom_site_fract_x
_atom_site_fract_y
_atom_site_fract_z
Si Si1 0.395816 0.461966 0.884111
Si Si2 0.058070 0.760245 0.494083
Si Si3 0.809557 0.449144 0.261366
Si Si4 0.617032 0.371765 0.035375
Si Si5 0.339732 0.840004 0.884716
Si Si6 0.000000 0.211727 0.250000
Si Si7 0.570367 0.940395 0.968335
O O1 0.317186 0.497128 0.756377
O O2 0.500000 0.500000 0.000000
O O3 0.516240 0.408457 0.914514
O O4 0.220911 0.447493 0.910651
O O5 0.250000 0.750000 0.500000
O O6 0.010249 0.756605 0.625307
O O7 0.001109 0.822358 0.446511
O O8 0.957868 0.712895 0.401900
O O9 0.700548 0.410639 0.151371
O O10 0.844706 0.418480 0.391995
O O11 0.000000 0.461235 0.250000
O O12 0.774954 0.344076 0.005142
O O13 0.169222 0.825379 0.778766
O O14 0.433650 0.898097 0.886133
O O15 0.500000 0.000000 0.000000
#
# Coordination Sequence:
#
# PCOD9285684 Si02
#       7
#     8   8   8   8   8   4   8
#     4  10  22  40  61  94 135 169 222 280 333 407
#     4  11  25  47  71 103 138 178 233 288 342 419
#     4  11  21  41  66  95 129 178 218 277 339 392
#     4  10  21  42  65  96 135 174 227 279 342 411
#     4  11  24  44  68  98 135 179 226 283 342 412
#     4  10  24  46  72 100 140 186 220 284 356 402
#     4  12  23  39  66  97 130 176 231 277 337 408
#
# _framework density 24.259515
#
# number of rings (size 3 to 8) (size 9 to 14) (size 15 to 20)
#    0.000    1.231    3.077    3.692    0.000    8.000 
#    1.385    3.077    0.000    0.000    0.000    0.000 
#    0.000    0.000    0.000    0.000    0.000    0.000 
#
# Total GULP energy -145194.815423 kJ/mol
# GULP energy per Si atom -5584.415978 kJ/mol
# Density = 2.420430 g / cm^3
# Si number density = 24.259515 Si / 1000 Ang^3
#
#
#
# Elastic Constant Matrix: (Units=GPa)
#
#
# Indices 1 2 3 4 5 6 
#
# 1 123.7788 46.1463 24.0811 0.0000 40.8496 0.0000
# 2 46.1463 128.3111 31.8696 0.0000 47.0772 0.0000
# 3 24.0811 31.8696 81.5551 0.0000 19.3439 0.0000
# 4 0.0000 0.0000 0.0000 35.8284 0.0000 16.6780
# 5 40.8496 47.0772 19.3439 0.0000 40.8331 0.0000
# 6 0.0000 0.0000 0.0000 16.6780 0.0000 51.1087
#
#
#
# Elastic Compliance Matrix: (Units=1/GPa)
#
#
# Indices 1 2 3 4 5 6 
#
# 1 0.012111 0.000262 -0.000826 0.000000 -0.012027 0.000000
# 2 0.000262 0.013748 -0.001834 0.000000 -0.015243 0.000000
# 3 -0.000826 -0.001834 0.014110 0.000000 -0.003744 0.000000
# 4 0.000000 0.000000 0.000000 0.032910 0.000000 -0.010739
# 5 -0.012027 -0.015243 -0.003744 0.000000 0.055869 0.000000
# 6 0.000000 0.000000 0.000000 -0.010739 0.000000 0.023071
#
#
# Mechanical properties :
#
#
# Convention : Reuss Voigt Hill
#
# Bulk Modulus (GPa) = 28.43085 59.75991 44.09538
# Shear Modulus (GPa) = 29.70204 40.99056 35.34630
#
# Velocity S-wave (km/s) = 3.50286 4.11502 3.82122
# Velocity P-wave (km/s) = 5.30141 6.87495 6.13881
#
# Compressibility (1/GPa) = 0.03517306
#
# Stress axis : x y z
#
# Youngs Moduli (GPa) = 82.56955 72.74040 70.87082
#
# Poissons Ratio (x) = -0.01907 0.05853
# Poissons Ratio (y) = -0.02164 0.12998
# Poissons Ratio (z) = 0.06819 0.13341
#
# Static dielectric constant tensor:
#      x y z
#    x 1.816300 0.000000 0.085390 
#    y 0.000000 2.431740 0.000000 
#    z 0.085390 0.000000 1.887300 
# 
# From -- ./inp_files/137525.got.cif
#   From: 2010.05.17/outbox.cif.g08.bks.cpg/sg15_69_cif.got.tgz:137525.got - 2010.06.03 18:47:42.
