data_PCOD9285657
_publ_section_title
;
Structure prediction by ZEFSAII (Michael W. Deem and Ramdas Pophale) SiO2 
 PCOD9285657
Probable space group: C 2/C
;
_chemical_formula_sum "Si O2"
_cell_formula_units_Z 52
_cell_length_a 8.861836
_cell_length_b 17.539206
_cell_length_c 15.581553
_cell_angle_alpha 90.000000
_cell_angle_beta 108.293373
_cell_angle_gamma 90.000000
_cell_volume 2299.438878
_symmetry_space_group_name_H-M "C 2/C"
_symmetry_group_IT_number 15
_symmetry_cell_setting 'monoclinic'
loop_
_space_group_symop_operation_xyz
x,y,z
-x,y,1/2-z
-x,-y,-z
x,-y,1/2+z
1/2+x,1/2+y,z
1/2-x,1/2+y,1/2-z
1/2-x,1/2-y,-z
1/2+x,1/2-y,1/2+z
loop_
_atom_site_type_symbol
_atom_site_label
_atom_site_fract_x
_atom_site_fract_y
_atom_site_fract_z
Si Si1 0.061286 0.911594 0.391416
Si Si2 0.543974 0.427279 0.857279
Si Si3 0.880056 0.397366 0.876204
Si Si4 0.500000 0.988562 0.250000
Si Si5 0.191162 0.669385 0.456213
Si Si6 0.297699 0.299490 0.796444
Si Si7 0.737809 0.629663 0.746704
O O1 0.172582 0.887764 0.488921
O O2 0.169995 0.905264 0.324203
O O3 0.914205 0.856716 0.341901
O O4 0.988082 0.995320 0.391734
O O5 0.500000 0.443484 0.750000
O O6 0.733202 0.428579 0.905129
O O7 0.455344 0.346676 0.852760
O O8 0.783336 0.337231 0.800367
O O9 0.961951 0.458470 0.826132
O O10 0.020040 0.359377 0.955343
O O11 0.648718 0.931058 0.278463
O O12 0.250000 0.750000 0.500000
O O13 0.178707 0.682334 0.352651
O O14 0.318661 0.210103 0.784695
#
# Coordination Sequence:
#
# PCOD9285657 Si02
#       7
#     8   8   8   4   8   8   8
#     4  11  22  41  65  91 133 168 210 260 321 379
#     4  10  21  42  65  92 125 170 213 261 322 377
#     4  11  23  42  65  92 126 168 211 266 315 384
#     4  12  22  42  70 100 118 164 222 260 318 388
#     4  12  24  39  64  96 127 171 222 257 317 381
#     4  11  23  42  66  92 127 170 211 260 319 377
#     4  11  23  41  65  96 127 165 210 266 316 377
#
# _framework density 22.614212999999999
#
# number of rings (size 3 to 8) (size 9 to 14) (size 15 to 20)
#    0.000    0.923    6.154    1.846    5.385    1.231 
#    0.000    0.769    0.000    0.000    0.000    0.000 
#    0.000    0.000    0.000    0.000    0.000    0.000 
#
# Total GULP energy -145098.635110 kJ/mol
# GULP energy per Si atom -5580.716735 kJ/mol
# Density = 2.256274 g / cm^3
# Si number density = 22.614213 Si / 1000 Ang^3
#
#
#
# Elastic Constant Matrix: (Units=GPa)
#
#
# Indices 1 2 3 4 5 6 
#
# 1 101.1875 53.4572 12.7952 0.0000 27.7474 0.0000
# 2 53.4572 146.5239 4.3979 0.0000 21.2398 0.0000
# 3 12.7952 4.3979 38.5146 0.0000 20.5511 0.0000
# 4 0.0000 0.0000 0.0000 15.3026 0.0000 5.3494
# 5 27.7474 21.2398 20.5511 0.0000 31.9837 0.0000
# 6 0.0000 0.0000 0.0000 5.3494 0.0000 29.2222
#
#
#
# Elastic Compliance Matrix: (Units=1/GPa)
#
#
# Indices 1 2 3 4 5 6 
#
# 1 0.014798 -0.003806 0.001552 0.000000 -0.011308 0.000000
# 2 -0.003806 0.008729 0.002433 0.000000 -0.004058 0.000000
# 3 0.001552 0.002433 0.040709 0.000000 -0.029120 0.000000
# 4 0.000000 0.000000 0.000000 0.069816 0.000000 -0.012780
# 5 -0.011308 -0.004058 -0.029120 0.000000 0.062481 0.000000
# 6 0.000000 0.000000 0.000000 -0.012780 0.000000 0.036560
#
#
# Mechanical properties :
#
#
# Convention : Reuss Voigt Hill
#
# Bulk Modulus (GPa) = 15.48154 47.50294 31.49224
# Shear Modulus (GPa) = 19.66443 29.67341 24.66892
#
# Velocity S-wave (km/s) = 2.95203 3.62630 3.30640
# Velocity P-wave (km/s) = 4.29885 6.21167 5.34158
#
# Compressibility (1/GPa) = 0.06459306
#
# Stress axis : x y z
#
# Youngs Moduli (GPa) = 67.57688 114.56498 24.56474
#
# Poissons Ratio (x) = 0.43607 -0.03813
# Poissons Ratio (y) = 0.25722 -0.05977
# Poissons Ratio (z) = -0.10489 -0.27873
#
# Static dielectric constant tensor:
#      x y z
#    x 1.919960 0.000000 -0.034380 
#    y 0.000000 1.890720 0.000000 
#    z -0.034380 0.000000 1.849880 
# 
# From -- ./inp_files/190561.got.cif
#   From: 2010.05.17/outbox.cif.g08.bks.cpg/sg15_96_cif.got.tgz:190561.got - 2010.06.03 18:47:42.
