data_PCOD9285536
_publ_section_title
;
Structure prediction by ZEFSAII (Michael W. Deem and Ramdas Pophale) SiO2 
 PCOD9285536
Probable space group: C 2/C
;
_chemical_formula_sum "Si O2"
_cell_formula_units_Z 44
_cell_length_a 12.848961
_cell_length_b 18.397553
_cell_length_c 13.658092
_cell_angle_alpha 90.000000
_cell_angle_beta 44.199919
_cell_angle_gamma 90.000000
_cell_volume 2250.884010
_symmetry_space_group_name_H-M "C 2/C"
_symmetry_group_IT_number 15
_symmetry_cell_setting 'monoclinic'
loop_
_space_group_symop_operation_xyz
x,y,z
-x,y,1/2-z
-x,-y,-z
x,-y,1/2+z
1/2+x,1/2+y,z
1/2-x,1/2+y,1/2-z
1/2-x,1/2-y,-z
1/2+x,1/2-y,1/2+z
loop_
_atom_site_type_symbol
_atom_site_label
_atom_site_fract_x
_atom_site_fract_y
_atom_site_fract_z
Si Si1 0.731155 0.336738 0.014717
Si Si2 0.000000 0.425654 0.750000
Si Si3 0.247722 0.670991 0.783261
Si Si4 0.495471 0.562907 0.137195
Si Si5 0.530947 0.698084 0.476358
Si Si6 0.751916 0.520081 0.818315
O O1 0.886791 0.375636 0.887435
O O2 0.621168 0.349187 0.997682
O O3 0.750000 0.250000 0.000000
O O4 0.684868 0.353271 0.156841
O O5 0.896210 0.474601 0.750856
O O6 0.373383 0.711528 0.634817
O O7 0.116500 0.727982 0.893642
O O8 0.205107 0.598732 0.753549
O O9 0.500000 0.557433 0.250000
O O10 0.484882 0.645873 0.105930
O O11 0.353353 0.520352 0.189105
O O12 0.644745 0.531501 0.985061
#
# Coordination Sequence:
#
# PCOD9285536 Si02
#       6
#     8   4   8   8   8   8
#     4  10  23  36  65  95 128 166 207 274 332 375
#     4  12  24  44  60 100 136 164 212 286 316 392
#     4  10  23  39  66  96 128 176 214 270 328 389
#     4  10  22  43  65  89 126 182 213 266 324 391
#     4  10  21  42  63  95 133 165 226 268 321 393
#     4  10  24  43  64  95 133 165 227 261 328 401
#
# _framework density 19.547875999999999
#
# number of rings (size 3 to 8) (size 9 to 14) (size 15 to 20)
#    0.000    1.818    1.818    0.545   12.727    0.727 
#    4.909    1.818    0.000    0.000    0.000    0.000 
#    0.000    0.000    0.000    0.000    0.000    0.000 
#
# Total GULP energy -122867.346332 kJ/mol
# GULP energy per Si atom -5584.879379 kJ/mol
# Density = 1.950338 g / cm^3
# Si number density = 19.547876 Si / 1000 Ang^3
#
#
#
# Elastic Constant Matrix: (Units=GPa)
#
#
# Indices 1 2 3 4 5 6 
#
# 1 91.7693 46.8858 63.2556 0.0001 11.6047 -0.0001
# 2 46.8858 104.0477 71.9819 0.0001 -6.5256 -0.0001
# 3 63.2556 71.9819 121.4495 0.0002 15.3971 -0.0001
# 4 0.0001 0.0001 0.0002 32.1613 -0.0001 -9.8484
# 5 11.6047 -6.5256 15.3971 -0.0001 41.1949 0.0001
# 6 -0.0001 -0.0001 -0.0001 -9.8484 0.0001 34.8598
#
#
#
# Elastic Compliance Matrix: (Units=1/GPa)
#
#
# Indices 1 2 3 4 5 6 
#
# 1 0.017740 -0.003482 -0.006794 0.000000 -0.003010 0.000000
# 2 -0.003482 0.018818 -0.010332 0.000000 0.007824 0.000000
# 3 -0.006794 -0.010332 0.018749 0.000000 -0.006730 0.000000
# 4 0.000000 0.000000 0.000000 0.034038 0.000000 0.009616
# 5 -0.003010 0.007824 -0.006730 0.000000 0.028878 0.000000
# 6 0.000000 0.000000 0.000000 0.009616 0.000000 0.031403
#
#
# Mechanical properties :
#
#
# Convention : Reuss Voigt Hill
#
# Bulk Modulus (GPa) = 70.96554 75.72366 73.34460
# Shear Modulus (GPa) = 25.57036 30.65275 28.11155
#
# Velocity S-wave (km/s) = 3.62068 3.96420 3.79633
# Velocity P-wave (km/s) = 7.33903 7.73142 7.53778
#
# Compressibility (1/GPa) = 0.01409135
#
# Stress axis : x y z
#
# Youngs Moduli (GPa) = 56.37080 53.13938 53.33578
#
# Poissons Ratio (x) = 0.18505 0.36236
# Poissons Ratio (y) = 0.19630 0.55104
# Poissons Ratio (z) = 0.38298 0.54901
#
# Static dielectric constant tensor:
#      x y z
#    x 1.707540 0.000000 0.006530 
#    y 0.000000 1.690050 0.000000 
#    z 0.006530 0.000000 1.676550 
# 
# From -- ./inp_files/88721.got.cif
#   From: 2010.05.17/outbox.cif.g08.bks.cpg/sg15_45_cif.got.tgz:88721.got - 2010.06.03 18:47:42.
