data_PCOD9285133
_publ_section_title
;
Structure prediction by ZEFSAII (Michael W. Deem and Ramdas Pophale) SiO2 
 PCOD9285133
Probable space group: C 2/C
;
_chemical_formula_sum "Si O2"
_cell_formula_units_Z 60
_cell_length_a 9.830641
_cell_length_b 19.200012
_cell_length_c 24.955198
_cell_angle_alpha 90.000000
_cell_angle_beta 143.630912
_cell_angle_gamma 90.000000
_cell_volume 2793.108026
_symmetry_space_group_name_H-M "C 2/C"
_symmetry_group_IT_number 15
_symmetry_cell_setting 'monoclinic'
loop_
_space_group_symop_operation_xyz
x,y,z
-x,y,1/2-z
-x,-y,-z
x,-y,1/2+z
1/2+x,1/2+y,z
1/2-x,1/2+y,1/2-z
1/2-x,1/2-y,-z
1/2+x,1/2-y,1/2+z
loop_
_atom_site_type_symbol
_atom_site_label
_atom_site_fract_x
_atom_site_fract_y
_atom_site_fract_z
Si Si1 0.000000 0.374580 0.750000
Si Si2 0.855193 0.861489 0.086164
Si Si3 0.771310 0.007011 0.093142
Si Si4 0.104043 0.038357 0.103897
Si Si5 0.319539 0.851968 0.884393
Si Si6 0.882254 0.739698 0.598420
Si Si7 0.120897 0.727214 0.206918
Si Si8 0.855647 0.106411 0.927986
O O1 0.786090 0.421397 0.696798
O O2 0.039661 0.325998 0.812653
O O3 0.963986 0.793386 0.145934
O O4 0.003008 0.869121 0.078716
O O5 0.869828 0.928516 0.130690
O O6 0.591217 0.855894 0.984141
O O7 0.791044 0.071224 0.141027
O O8 0.885881 0.025298 0.072185
O O9 0.500000 0.000000 0.000000
O O10 0.226575 0.969816 0.118367
O O11 0.022810 0.085817 0.029350
O O12 0.213420 0.800479 0.894265
O O13 0.294675 0.813626 0.819447
O O14 0.750000 0.750000 0.500000
O O15 0.816300 0.665201 0.604747
O O16 0.157055 0.750412 0.687463
#
# Coordination Sequence:
#
# PCOD9285133 Si02
#       8
#     4   8   8   8   8   8   8   8
#     4  12  26  42  66  94 142 168 232 284 350 414
#     4  10  22  40  70  99 138 179 222 286 345 418
#     4   9  20  41  68  99 140 177 230 277 346 425
#     4  10  22  41  66  98 128 180 220 286 342 415
#     4  11  22  40  70 100 135 182 228 278 352 422
#     4  12  26  41  66  96 137 181 235 290 350 413
#     4  12  26  42  67 101 137 179 232 291 351 419
#     4  10  21  41  67  95 131 171 231 273 345 408
#
# _framework density 21.481445999999998
#
# number of rings (size 3 to 8) (size 9 to 14) (size 15 to 20)
#    0.000    1.333    1.333    4.000    3.733    3.200 
#    0.000    0.000    8.800    0.000    0.000    0.000 
#    0.000    0.000    0.000    0.000    0.000    0.000 
#
# Total GULP energy -167378.675994 kJ/mol
# GULP energy per Si atom -5579.289200 kJ/mol
# Density = 2.143255 g / cm^3
# Si number density = 21.481446 Si / 1000 Ang^3
#
#
#
# Elastic Constant Matrix: (Units=GPa)
#
#
# Indices 1 2 3 4 5 6 
#
# 1 73.5424 39.3315 24.6359 0.0007 0.7852 0.0001
# 2 39.3315 142.9146 49.3722 0.0001 -0.8642 0.0001
# 3 24.6359 49.3722 77.5900 0.0032 -5.7775 0.0005
# 4 0.0007 0.0001 0.0032 -10.4200 0.0018 2.1159
# 5 0.7852 -0.8642 -5.7775 0.0018 15.2282 0.0002
# 6 0.0001 0.0001 0.0005 2.1159 0.0002 39.1620
#
#
#
# Elastic Compliance Matrix: (Units=1/GPa)
#
#
# Indices 1 2 3 4 5 6 
#
# 1 0.016550 -0.003454 -0.003226 0.000000 -0.002273 0.000000
# 2 -0.003454 0.009733 -0.005189 -0.000002 -0.001238 0.000000
# 3 -0.003226 -0.005189 0.017705 0.000006 0.006589 -0.000001
# 4 0.000000 -0.000002 0.000006 -0.094928 0.000013 0.005129
# 5 -0.002273 -0.001238 0.006589 0.000013 0.068214 -0.000001
# 6 0.000000 0.000000 -0.000001 0.005129 -0.000001 0.025258
#
#
# Mechanical properties :
#
#
# Convention : Reuss Voigt Hill
#
# Bulk Modulus (GPa) = 49.38322 57.85846 53.62084
# Shear Modulus (GPa) = 68.47490 20.84121 44.65805
#
# Velocity S-wave (km/s) = 5.65203 3.11818 4.56446
# Velocity P-wave (km/s) = 8.10140 6.32113 7.26599
#
# Compressibility (1/GPa) = 0.02024979
#
# Stress axis : x y z
#
# Youngs Moduli (GPa) = 60.42364 102.74588 56.48127
#
# Poissons Ratio (x) = 0.35487 0.18223
# Poissons Ratio (y) = 0.20869 0.29307
# Poissons Ratio (z) = 0.19495 0.53312
#
# Static dielectric constant tensor:
#      x y z
#    x 1.737750 0.000000 0.002820 
#    y 0.000000 1.831140 0.000000 
#    z 0.002820 0.000000 1.770270 
# 
# From -- ./inp_files/266268.got.cif
#   From: 2010.05.17/outbox.cif.g08.bks.cpg/sg15_134_cif.got.tgz:266268.got - 2010.06.03 18:47:42.
