data_PCOD9285776
_publ_section_title
;
Structure prediction by ZEFSAII (Michael W. Deem and Ramdas Pophale) SiO2 
 PCOD9285776
Probable space group: C 2/C
;
_chemical_formula_sum "Si O2"
_cell_formula_units_Z 56
_cell_length_a 26.670551
_cell_length_b 11.585234
_cell_length_c 14.770985
_cell_angle_alpha 90.000000
_cell_angle_beta 34.681498
_cell_angle_gamma 90.000000
_cell_volume 2596.983630
_symmetry_space_group_name_H-M "C 2/C"
_symmetry_group_IT_number 15
_symmetry_cell_setting 'monoclinic'
loop_
_space_group_symop_operation_xyz
x,y,z
-x,y,1/2-z
-x,-y,-z
x,-y,1/2+z
1/2+x,1/2+y,z
1/2-x,1/2+y,1/2-z
1/2-x,1/2-y,-z
1/2+x,1/2-y,1/2+z
loop_
_atom_site_type_symbol
_atom_site_label
_atom_site_fract_x
_atom_site_fract_y
_atom_site_fract_z
Si Si1 0.276940 0.111943 0.056200
Si Si2 0.626315 0.918827 0.270962
Si Si3 0.817339 0.785389 0.153376
Si Si4 0.559655 0.833819 0.896635
Si Si5 0.978246 0.792477 0.376943
Si Si6 0.901008 0.983345 0.605794
Si Si7 0.653954 0.901456 0.436307
O O1 0.291126 0.227626 0.095970
O O2 0.177893 0.057762 0.209782
O O3 0.335403 0.012913 0.018726
O O4 0.312909 0.123253 0.900849
O O5 0.539484 0.841078 0.416437
O O6 0.669454 0.927854 0.306535
O O7 0.587530 0.046209 0.310224
O O8 0.877019 0.692890 0.115425
O O9 0.730297 0.809087 0.341953
O O10 0.870150 0.906657 0.090940
O O11 0.559690 0.732450 0.822473
O O12 0.909932 0.872906 0.528425
O O13 0.936431 0.666800 0.421580
O O14 0.000000 0.847864 0.250000
O O15 0.000000 0.000000 0.500000
#
# Coordination Sequence:
#
# PCOD9285776 Si02
#       7
#     8   8   8   8   8   8   8
#     4  11  23  44  70  96 130 172 228 274 343 395
#     4  10  22  41  68  99 126 175 214 283 336 394
#     4  11  22  42  66  90 134 175 209 280 330 395
#     4  10  21  42  66  97 134 160 224 278 331 395
#     4  11  22  43  67  93 130 176 221 273 335 396
#     4  11  24  47  63  94 138 178 223 277 330 409
#     4  10  22  42  65  94 130 165 225 278 326 398
#
# _framework density 21.563476999999999
#
# number of rings (size 3 to 8) (size 9 to 14) (size 15 to 20)
#    0.000    1.429    4.286    0.857    0.000    1.143 
#   10.286    2.143    0.000    0.000    0.000    0.000 
#    0.000    0.000    0.000    0.000    0.000    0.000 
#
# Total GULP energy -156101.959199 kJ/mol
# GULP energy per Si atom -5575.069971 kJ/mol
# Density = 2.151440 g / cm^3
# Si number density = 21.563477 Si / 1000 Ang^3
#
#
#
# Elastic Constant Matrix: (Units=GPa)
#
#
# Indices 1 2 3 4 5 6 
#
# 1 84.7984 17.5710 37.0487 0.0000 -4.5629 0.0000
# 2 17.5710 78.4170 19.2197 0.0000 -1.7834 0.0000
# 3 37.0487 19.2197 96.3868 0.0000 13.3530 0.0000
# 4 0.0000 0.0000 0.0000 17.6959 0.0000 -7.4967
# 5 -4.5629 -1.7834 13.3530 0.0000 30.9200 0.0000
# 6 0.0000 0.0000 0.0000 -7.4967 0.0000 24.1911
#
#
#
# Elastic Compliance Matrix: (Units=1/GPa)
#
#
# Indices 1 2 3 4 5 6 
#
# 1 0.015083 -0.001776 -0.006103 0.000000 0.004759 0.000000
# 2 -0.001776 0.013740 -0.002266 0.000000 0.001509 0.000000
# 3 -0.006103 -0.002266 0.014163 0.000000 -0.007148 0.000000
# 4 0.000000 0.000000 0.000000 0.065050 0.000000 0.020159
# 5 0.004759 0.001509 -0.007148 0.000000 0.036218 0.000000
# 6 0.000000 0.000000 0.000000 0.020159 0.000000 0.047585
#
#
# Mechanical properties :
#
#
# Convention : Reuss Voigt Hill
#
# Bulk Modulus (GPa) = 44.06022 45.25346 44.65684
# Shear Modulus (GPa) = 22.75900 26.94558 24.85229
#
# Velocity S-wave (km/s) = 3.25228 3.53879 3.39856
# Velocity P-wave (km/s) = 5.88050 6.14240 6.01288
#
# Compressibility (1/GPa) = 0.02269621
#
# Stress axis : x y z
#
# Youngs Moduli (GPa) = 66.29991 72.78012 70.60799
#
# Poissons Ratio (x) = 0.12923 0.43090
# Poissons Ratio (y) = 0.11773 0.16002
# Poissons Ratio (z) = 0.40461 0.16494
#
# Static dielectric constant tensor:
#      x y z
#    x 1.866430 0.000000 -0.011460 
#    y 0.000000 1.836440 0.000000 
#    z -0.011460 0.000000 1.758780 
# 
# From -- ./inp_files/177563.got.cif
#   From: 2010.05.17/outbox.cif.g08.bks.cpg/sg15_89_cif.got.tgz:177563.got - 2010.06.03 18:47:42.
