data_PCOD9285521
_publ_section_title
;
Structure prediction by ZEFSAII (Michael W. Deem and Ramdas Pophale) SiO2 
 PCOD9285521
Probable space group: C 2/C
;
_chemical_formula_sum "Si O2"
_cell_formula_units_Z 48
_cell_length_a 13.512699
_cell_length_b 21.027269
_cell_length_c 8.152253
_cell_angle_alpha 90.000000
_cell_angle_beta 107.158419
_cell_angle_gamma 90.000000
_cell_volume 2213.247601
_symmetry_space_group_name_H-M "C 2/C"
_symmetry_group_IT_number 15
_symmetry_cell_setting 'monoclinic'
loop_
_space_group_symop_operation_xyz
x,y,z
-x,y,1/2-z
-x,-y,-z
x,-y,1/2+z
1/2+x,1/2+y,z
1/2-x,1/2+y,1/2-z
1/2-x,1/2-y,-z
1/2+x,1/2-y,1/2+z
loop_
_atom_site_type_symbol
_atom_site_label
_atom_site_fract_x
_atom_site_fract_y
_atom_site_fract_z
Si Si1 0.122833 0.040291 0.288111
Si Si2 0.386701 0.280779 0.120153
Si Si3 0.796071 0.915908 0.024880
Si Si4 0.881945 0.737525 0.743551
Si Si5 0.878942 0.353919 0.734149
Si Si6 0.246725 0.149294 0.487254
O O1 0.145665 0.068675 0.119198
O O2 0.173840 0.087652 0.447520
O O3 0.000000 0.034285 0.250000
O O4 0.178338 0.972915 0.341565
O O5 0.500000 0.287831 0.250000
O O6 0.339786 0.218582 0.183960
O O7 0.334648 0.348623 0.110184
O O8 0.389866 0.260581 0.932859
O O9 0.678504 0.903341 0.912550
O O10 0.830166 0.794505 0.612721
O O11 0.808906 0.676814 0.672335
O O12 0.000000 0.724430 0.750000
O O13 0.837162 0.365288 0.896863
O O14 0.000000 0.354571 0.750000
#
# Coordination Sequence:
#
# PCOD9285521 Si02
#       6
#     8   8   8   8   8   8
#     4  11  23  44  63  91 129 167 210 259 307 376
#     4  11  22  38  64  93 128 162 206 258 319 374
#     4  11  24  41  60  92 125 167 216 254 312 371
#     4  11  21  39  63  96 128 160 202 258 320 370
#     4  10  21  42  63  91 126 163 210 265 312 370
#     4  10  23  40  64  91 129 164 208 256 313 374
#
# _framework density 21.687588000000002
#
# number of rings (size 3 to 8) (size 9 to 14) (size 15 to 20)
#    0.000    1.333    3.333    4.000    0.000    1.333 
#    3.000    4.167    0.000    0.000    0.000    0.000 
#    0.000    0.000    0.000    0.000    0.000    0.000 
#
# Total GULP energy -134174.089804 kJ/mol
# GULP energy per Si atom -5590.587075 kJ/mol
# Density = 2.163823 g / cm^3
# Si number density = 21.687588 Si / 1000 Ang^3
#
#
#
# Elastic Constant Matrix: (Units=GPa)
#
#
# Indices 1 2 3 4 5 6 
#
# 1 113.0367 52.8808 53.9147 0.0000 29.1130 0.0000
# 2 52.8808 109.4823 35.9386 0.0000 16.5217 0.0000
# 3 53.9147 35.9386 92.0701 0.0000 23.6046 0.0000
# 4 0.0000 0.0000 0.0000 15.3910 0.0000 29.5234
# 5 29.1130 16.5217 23.6046 0.0000 25.3144 0.0000
# 6 0.0000 0.0000 0.0000 29.5234 0.0000 -9.7699
#
#
#
# Elastic Compliance Matrix: (Units=1/GPa)
#
#
# Indices 1 2 3 4 5 6 
#
# 1 0.016125 -0.004530 -0.004834 0.000000 -0.011082 0.000000
# 2 -0.004530 0.012062 -0.001804 0.000000 -0.000980 0.000000
# 3 -0.004834 -0.001804 0.016649 0.000000 -0.008788 0.000000
# 4 0.000000 0.000000 0.000000 0.009560 0.000000 0.028888
# 5 -0.011082 -0.000980 -0.008788 0.000000 0.061082 0.000000
# 6 0.000000 0.000000 0.000000 0.028888 0.000000 -0.015060
#
#
# Mechanical properties :
#
#
# Convention : Reuss Voigt Hill
#
# Bulk Modulus (GPa) = 44.44211 66.67304 55.55758
# Shear Modulus (GPa) = 38.38647 17.64409 28.01528
#
# Velocity S-wave (km/s) = 4.21167 2.85539 3.59801
# Velocity P-wave (km/s) = 6.64736 6.45602 6.55239
#
# Compressibility (1/GPa) = 0.02250118
#
# Stress axis : x y z
#
# Youngs Moduli (GPa) = 62.01429 82.90468 60.06322
#
# Poissons Ratio (x) = 0.37553 0.29032
# Poissons Ratio (y) = 0.28091 0.10838
# Poissons Ratio (z) = 0.29975 0.14960
#
# Static dielectric constant tensor:
#      x y z
#    x 1.780030 0.000000 -0.019900 
#    y 0.000000 1.787470 0.000000 
#    z -0.019900 0.000000 1.836380 
# 
# From -- ./inp_files/40951.got.cif
#   From: 2010.05.17/outbox.cif.g08.bks.cpg/sg15_21_cif.got.tgz:40951.got - 2010.06.03 18:47:42.
