data_PCOD9285412
_publ_section_title
;
Structure prediction by ZEFSAII (Michael W. Deem and Ramdas Pophale) SiO2 
 PCOD9285412
Probable space group: C 2/C
;
_chemical_formula_sum "Si O2"
_cell_formula_units_Z 40
_cell_length_a 12.109589
_cell_length_b 6.433491
_cell_length_c 28.027269
_cell_angle_alpha 90.000000
_cell_angle_beta 140.312441
_cell_angle_gamma 90.000000
_cell_volume 1394.396548
_symmetry_space_group_name_H-M "C 2/C"
_symmetry_group_IT_number 15
_symmetry_cell_setting 'monoclinic'
loop_
_space_group_symop_operation_xyz
x,y,z
-x,y,1/2-z
-x,-y,-z
x,-y,1/2+z
1/2+x,1/2+y,z
1/2-x,1/2+y,1/2-z
1/2-x,1/2-y,-z
1/2+x,1/2-y,1/2+z
loop_
_atom_site_type_symbol
_atom_site_label
_atom_site_fract_x
_atom_site_fract_y
_atom_site_fract_z
Si Si1 0.507148 0.377539 0.197191
Si Si2 0.223326 0.232029 0.290868
Si Si3 0.021544 0.561691 0.452073
Si Si4 0.769374 0.925707 0.881132
Si Si5 0.141470 0.952937 0.989675
O O1 0.500000 0.316535 0.250000
O O2 0.549655 0.621626 0.213949
O O3 0.333834 0.258395 0.126198
O O4 0.659173 0.289824 0.215209
O O5 0.341089 0.071252 0.361361
O O6 0.194305 0.433679 0.313670
O O7 0.077739 0.805116 0.464639
O O8 0.190096 0.440458 0.487279
O O9 0.000000 0.500000 0.500000
O O10 0.952714 0.847202 0.921160
O O11 0.803162 0.077537 0.937174
#
# Coordination Sequence:
#
# PCOD9285412 Si02
#       5
#     8   8   8   8   8
#     4  12  27  48  75 106 162 217 268 334 395 492
#     4  11  26  47  74 118 155 213 274 324 414 487
#     4  10  21  41  76 118 157 200 263 330 413 487
#     4  10  22  47  78 112 157 204 261 332 406 476
#     4   9  20  43  76 111 157 201 250 345 405 474
#
# _framework density 28.686243999999999
#
# number of rings (size 3 to 8) (size 9 to 14) (size 15 to 20)
#    0.000    1.600    2.000    1.200    2.800    2.400 
#    0.000   13.000    0.000    0.000    0.000    0.000 
#    0.000    0.200    0.000    0.000    0.000    0.000 
#
# Total GULP energy -111940.801837 kJ/mol
# GULP energy per Si atom -5597.040092 kJ/mol
# Density = 2.862095 g / cm^3
# Si number density = 28.686244 Si / 1000 Ang^3
#
#
#
# Elastic Constant Matrix: (Units=GPa)
#
#
# Indices 1 2 3 4 5 6 
#
# 1 259.2458 87.8630 49.0068 0.0000 20.4564 0.0000
# 2 87.8630 99.5203 41.6993 0.0000 29.7860 0.0001
# 3 49.0068 41.6993 83.4911 0.0000 11.6406 0.0000
# 4 0.0000 0.0000 0.0000 68.8653 0.0000 11.8697
# 5 20.4564 29.7860 11.6406 0.0000 60.3412 0.0000
# 6 0.0000 0.0001 0.0000 11.8697 0.0000 71.1777
#
#
#
# Elastic Compliance Matrix: (Units=1/GPa)
#
#
# Indices 1 2 3 4 5 6 
#
# 1 0.005593 -0.004694 -0.001025 0.000000 0.000618 0.000000
# 2 -0.004694 0.018451 -0.005562 0.000000 -0.006444 0.000000
# 3 -0.001025 -0.005562 0.015338 0.000000 0.000134 0.000000
# 4 0.000000 0.000000 0.000000 0.014951 0.000000 -0.002493
# 5 0.000618 -0.006444 0.000134 0.000000 0.019518 0.000000
# 6 0.000000 0.000000 0.000000 -0.002493 0.000000 0.014465
#
#
# Mechanical properties :
#
#
# Convention : Reuss Voigt Hill
#
# Bulk Modulus (GPa) = 59.44843 88.82170 74.13506
# Shear Modulus (GPa) = 42.92442 57.65604 50.29023
#
# Velocity S-wave (km/s) = 3.87245 4.48804 4.19156
# Velocity P-wave (km/s) = 6.38461 7.60835 7.02318
#
# Compressibility (1/GPa) = 0.01682130
#
# Stress axis : x y z
#
# Youngs Moduli (GPa) = 178.79435 54.19764 65.19686
#
# Poissons Ratio (x) = 0.25438 0.06683
# Poissons Ratio (y) = 0.83917 0.36262
# Poissons Ratio (z) = 0.18327 0.30144
#
# Static dielectric constant tensor:
#      x y z
#    x 2.169000 0.000000 0.157130 
#    y 0.000000 2.482240 0.000000 
#    z 0.157130 0.000000 2.535110 
# 
# From -- ./inp_files/291343.got.cif
#   From: 2010.05.17/outbox.cif.g08.bks.cpg/sg15_146_cif.got.tgz:291343.got - 2010.06.03 18:47:42.
