data_PCOD9285076
_publ_section_title
;
Structure prediction by ZEFSAII (Michael W. Deem and Ramdas Pophale) SiO2 
 PCOD9285076
Probable space group: C 2/C
;
_chemical_formula_sum "Si O2"
_cell_formula_units_Z 56
_cell_length_a 6.625036
_cell_length_b 28.940498
_cell_length_c 13.319707
_cell_angle_alpha 90.000000
_cell_angle_beta 101.760775
_cell_angle_gamma 90.000000
_cell_volume 2500.200177
_symmetry_space_group_name_H-M "C 2/C"
_symmetry_group_IT_number 15
_symmetry_cell_setting 'monoclinic'
loop_
_space_group_symop_operation_xyz
x,y,z
-x,y,1/2-z
-x,-y,-z
x,-y,1/2+z
1/2+x,1/2+y,z
1/2-x,1/2+y,1/2-z
1/2-x,1/2-y,-z
1/2+x,1/2-y,1/2+z
loop_
_atom_site_type_symbol
_atom_site_label
_atom_site_fract_x
_atom_site_fract_y
_atom_site_fract_z
Si Si1 0.467042 0.726286 0.549433
Si Si2 0.831246 0.212144 0.146474
Si Si3 0.420669 0.449146 0.525298
Si Si4 0.035016 0.634791 0.136261
Si Si5 0.125587 0.465789 0.656027
Si Si6 0.490956 0.932375 0.369143
Si Si7 0.195385 0.868439 0.462322
O O1 0.250000 0.750000 0.500000
O O2 0.624605 0.756469 0.633202
O O3 0.572573 0.721368 0.451484
O O4 0.440427 0.674259 0.589810
O O5 0.749129 0.159487 0.136630
O O6 0.000000 0.219463 0.250000
O O7 0.500000 0.500000 0.500000
O O8 0.356879 0.453916 0.636990
O O9 0.218596 0.435250 0.439667
O O10 0.575916 0.408239 0.511854
O O11 0.000000 0.638473 0.250000
O O12 0.022493 0.580986 0.105639
O O13 0.851288 0.656271 0.055502
O O14 0.000000 0.469162 0.750000
O O15 0.098581 0.517087 0.612239
O O16 0.500000 0.928181 0.250000
O O17 0.338116 0.893116 0.394234
#
# Coordination Sequence:
#
# PCOD9285076 Si02
#       7
#     8   8   8   8   8   8   8
#     4  11  25  46  74 105 141 190 238 297 368 429
#     4  11  25  46  75 107 145 180 237 309 366 439
#     4  12  23  42  74 103 137 196 238 291 360 417
#     4  11  22  41  73 105 143 178 231 299 366 429
#     4  10  21  41  67 105 144 184 235 294 358 425
#     4  11  25  46  68  97 152 192 243 298 341 429
#     4  12  24  44  75 101 146 192 242 295 356 438
#
# _framework density 22.398205999999998
#
# number of rings (size 3 to 8) (size 9 to 14) (size 15 to 20)
#    0.000    0.857    4.286    3.000    0.000    0.571 
#    0.000   10.714    0.000    0.000    0.000    0.000 
#    0.000    0.000    0.000    0.000    0.000    0.000 
#
# Total GULP energy -156031.326125 kJ/mol
# GULP energy per Si atom -5572.547362 kJ/mol
# Density = 2.234723 g / cm^3
# Si number density = 22.398206 Si / 1000 Ang^3
#
#
#
# Elastic Constant Matrix: (Units=GPa)
#
#
# Indices 1 2 3 4 5 6 
#
# 1 136.6058 69.1674 52.6908 0.0000 -4.5738 0.0000
# 2 69.1674 154.8417 28.5215 0.0000 5.8917 0.0000
# 3 52.6908 28.5215 98.0014 0.0000 0.3233 0.0000
# 4 0.0000 0.0000 0.0000 -44.9147 0.0000 47.5175
# 5 -4.5738 5.8917 0.3233 0.0000 40.6365 0.0000
# 6 0.0000 0.0000 0.0000 47.5175 0.0000 5.6534
#
#
#
# Elastic Compliance Matrix: (Units=1/GPa)
#
#
# Indices 1 2 3 4 5 6 
#
# 1 0.011451 -0.004284 -0.004916 0.000000 0.001949 0.000000
# 2 -0.004284 0.008465 -0.000155 0.000000 -0.001708 0.000000
# 3 -0.004916 -0.000155 0.012894 0.000000 -0.000633 0.000000
# 4 0.000000 0.000000 0.000000 -0.002251 0.000000 0.018917
# 5 0.001949 -0.001708 -0.000633 0.000000 0.025080 0.000000
# 6 0.000000 0.000000 0.000000 0.018917 0.000000 0.017881
#
#
# Mechanical properties :
#
#
# Convention : Reuss Voigt Hill
#
# Bulk Modulus (GPa) = 70.91844 76.68981 73.80412
# Shear Modulus (GPa) = 51.58290 16.21300 33.89795
#
# Velocity S-wave (km/s) = 4.80416 2.69337 3.89449
# Velocity P-wave (km/s) = 7.90598 6.63219 7.29693
#
# Compressibility (1/GPa) = 0.01410071
#
# Stress axis : x y z
#
# Youngs Moduli (GPa) = 87.33006 118.13036 77.55312
#
# Poissons Ratio (x) = 0.50603 0.38128
# Poissons Ratio (y) = 0.37409 0.01201
# Poissons Ratio (z) = 0.42934 0.01830
#
# Static dielectric constant tensor:
#      x y z
#    x 1.921780 0.000000 -0.017610 
#    y 0.000000 1.849840 0.000000 
#    z -0.017610 0.000000 1.842120 
# 
# From -- ./inp_files/130788.got.cif
#   From: 2010.05.17/outbox.cif.g08.bks.cpg/sg15_66_cif.got.tgz:130788.got - 2010.06.03 18:47:42.
