data_PCOD9285706
_publ_section_title
;
Structure prediction by ZEFSAII (Michael W. Deem and Ramdas Pophale) SiO2 
 PCOD9285706
Probable space group: C 2/C
;
_chemical_formula_sum "Si O2"
_cell_formula_units_Z 56
_cell_length_a 21.239988
_cell_length_b 14.905350
_cell_length_c 10.077597
_cell_angle_alpha 90.000000
_cell_angle_beta 48.061937
_cell_angle_gamma 90.000000
_cell_volume 2373.280922
_symmetry_space_group_name_H-M "C 2/C"
_symmetry_group_IT_number 15
_symmetry_cell_setting 'monoclinic'
loop_
_space_group_symop_operation_xyz
x,y,z
-x,y,1/2-z
-x,-y,-z
x,-y,1/2+z
1/2+x,1/2+y,z
1/2-x,1/2+y,1/2-z
1/2-x,1/2-y,-z
1/2+x,1/2-y,1/2+z
loop_
_atom_site_type_symbol
_atom_site_label
_atom_site_fract_x
_atom_site_fract_y
_atom_site_fract_z
Si Si1 0.221862 0.213109 0.681675
Si Si2 0.632152 0.851044 0.981282
Si Si3 0.437913 0.658380 0.958086
Si Si4 0.661776 0.508127 0.530846
Si Si5 0.416038 0.571683 0.604519
Si Si6 0.674670 0.952880 0.344279
Si Si7 0.053318 0.669823 0.875728
O O1 0.250000 0.250000 0.500000
O O2 0.205705 0.290002 0.813840
O O3 0.130036 0.166696 0.804116
O O4 0.283848 0.131239 0.635990
O O5 0.658284 0.955484 0.945575
O O6 0.545916 0.840545 0.016045
O O7 0.604552 0.821106 0.166291
O O8 0.500000 0.682951 0.750000
O O9 0.490140 0.586079 0.972788
O O10 0.360458 0.605652 0.000218
O O11 0.424417 0.744179 0.066401
O O12 0.637173 0.509076 0.718719
O O13 0.600418 0.446565 0.526676
O O14 0.755883 0.478579 0.365253
O O15 0.589073 0.916813 0.400601
#
# Coordination Sequence:
#
# PCOD9285706 Si02
#       7
#     8   8   8   8   8   8   8
#     4  11  25  45  74 104 144 189 238 298 355 426
#     4  11  26  49  70 104 146 184 241 293 358 432
#     4  10  22  43  70 100 137 187 244 293 358 429
#     4  10  23  40  67 105 139 182 239 300 362 425
#     4  10  21  42  66 101 140 188 237 299 359 429
#     4  11  27  44  73 104 140 190 232 299 363 417
#     4  11  26  47  70 102 141 190 237 291 355 435
#
# _framework density 23.596026999999999
#
# number of rings (size 3 to 8) (size 9 to 14) (size 15 to 20)
#    0.000    1.429    1.429    1.714   12.000    2.857 
#    2.571    0.000    0.000    0.000    0.000    0.000 
#    0.000    0.000    0.000    0.000    0.000    0.000 
#
# Total GULP energy -156635.551860 kJ/mol
# GULP energy per Si atom -5594.126852 kJ/mol
# Density = 2.354232 g / cm^3
# Si number density = 23.596027 Si / 1000 Ang^3
#
#
#
# Elastic Constant Matrix: (Units=GPa)
#
#
# Indices 1 2 3 4 5 6 
#
# 1 64.6705 34.1420 19.9781 0.0000 6.8344 0.0000
# 2 34.1420 126.8759 71.3696 0.0000 20.5062 0.0000
# 3 19.9781 71.3696 106.5523 0.0000 9.7307 0.0000
# 4 0.0000 0.0000 0.0000 38.3650 0.0000 -8.9927
# 5 6.8344 20.5062 9.7307 0.0000 28.3753 0.0000
# 6 0.0000 0.0000 0.0000 -8.9927 0.0000 42.3791
#
#
#
# Elastic Compliance Matrix: (Units=1/GPa)
#
#
# Indices 1 2 3 4 5 6 
#
# 1 0.018050 -0.004568 -0.000236 0.000000 -0.000965 0.000000
# 2 -0.004568 0.015054 -0.008603 0.000000 -0.006829 0.000000
# 3 -0.000236 -0.008603 0.015092 0.000000 0.001099 0.000000
# 4 0.000000 0.000000 0.000000 0.027430 0.000000 0.005821
# 5 -0.000965 -0.006829 0.001099 0.000000 0.040032 0.000000
# 6 0.000000 0.000000 0.000000 0.005821 0.000000 0.024832
#
#
# Mechanical properties :
#
#
# Convention : Reuss Voigt Hill
#
# Bulk Modulus (GPa) = 46.77301 61.00867 53.89084
# Shear Modulus (GPa) = 28.66454 33.33114 30.99784
#
# Velocity S-wave (km/s) = 3.48918 3.76250 3.62842
# Velocity P-wave (km/s) = 6.00816 6.69230 6.35943
#
# Compressibility (1/GPa) = 0.02137985
#
# Stress axis : x y z
#
# Youngs Moduli (GPa) = 55.40256 66.42664 66.26223
#
# Poissons Ratio (x) = 0.30345 0.01565
# Poissons Ratio (y) = 0.25309 0.57007
# Poissons Ratio (z) = 0.01309 0.57149
#
# Static dielectric constant tensor:
#      x y z
#    x 1.913790 0.000000 -0.030750 
#    y 0.000000 1.983590 0.000000 
#    z -0.030750 0.000000 1.836040 
# 
# From -- ./inp_files/123302.got.cif
#   From: 2010.05.17/outbox.cif.g08.bks.cpg/sg15_62_cif.got.tgz:123302.got - 2010.06.03 18:47:42.
