data_PCOD9285566
_publ_section_title
;
Structure prediction by ZEFSAII (Michael W. Deem and Ramdas Pophale) SiO2 
 PCOD9285566
Probable space group: C 2/C
;
_chemical_formula_sum "Si O2"
_cell_formula_units_Z 48
_cell_length_a 11.794692
_cell_length_b 8.034424
_cell_length_c 24.068371
_cell_angle_alpha 90.000000
_cell_angle_beta 67.544134
_cell_angle_gamma 90.000000
_cell_volume 2107.860233
_symmetry_space_group_name_H-M "C 2/C"
_symmetry_group_IT_number 15
_symmetry_cell_setting 'monoclinic'
loop_
_space_group_symop_operation_xyz
x,y,z
-x,y,1/2-z
-x,-y,-z
x,-y,1/2+z
1/2+x,1/2+y,z
1/2-x,1/2+y,1/2-z
1/2-x,1/2-y,-z
1/2+x,1/2-y,1/2+z
loop_
_atom_site_type_symbol
_atom_site_label
_atom_site_fract_x
_atom_site_fract_y
_atom_site_fract_z
Si Si1 0.882786 0.358625 0.733198
Si Si2 0.604461 0.326354 0.569480
Si Si3 0.303768 0.984889 0.970244
Si Si4 0.595600 0.751410 0.465557
Si Si5 0.520277 0.521112 0.685481
Si Si6 0.211552 0.639970 0.832723
O O1 0.845191 0.502970 0.698025
O O2 0.760420 0.303078 0.790090
O O3 0.000000 0.407913 0.750000
O O4 0.932704 0.183240 0.697496
O O5 0.725652 0.434149 0.535320
O O6 0.534343 0.329860 0.523409
O O7 0.520406 0.403885 0.632652
O O8 0.644334 0.138024 0.573985
O O9 0.209768 0.870307 0.954682
O O10 0.405085 0.871405 0.981189
O O11 0.623656 0.836309 0.401405
O O12 0.500000 0.440026 0.750000
O O13 0.660054 0.580951 0.664799
#
# Coordination Sequence:
#
# PCOD9285566 Si02
#       6
#     8   8   8   8   8   8
#     4   9  22  42  61  90 129 164 206 257 317 380
#     4  11  22  42  65  94 121 169 211 255 319 376
#     4  10  24  44  61  90 130 161 214 264 310 376
#     4  11  23  41  64  91 122 167 208 263 317 370
#     4   9  21  41  63  91 128 160 202 258 314 376
#     4  10  21  42  64  90 127 164 206 259 316 371
#
# _framework density 22.771908
#
# number of rings (size 3 to 8) (size 9 to 14) (size 15 to 20)
#    0.000    2.333    1.667    1.000    4.667    4.000 
#    6.000    0.000    0.000    0.000    0.000    0.000 
#    0.000    0.000    0.000    0.000    0.000    0.000 
#
# Total GULP energy -133999.866788 kJ/mol
# GULP energy per Si atom -5583.327783 kJ/mol
# Density = 2.272008 g / cm^3
# Si number density = 22.771908 Si / 1000 Ang^3
#
#
#
# Elastic Constant Matrix: (Units=GPa)
#
#
# Indices 1 2 3 4 5 6 
#
# 1 52.9092 21.7080 0.0941 0.0000 3.9062 0.0000
# 2 21.7080 69.0973 26.8251 0.0000 21.2944 0.0000
# 3 0.0941 26.8251 48.1991 0.0000 -5.3665 0.0000
# 4 0.0000 0.0000 0.0000 19.4337 0.0000 0.7856
# 5 3.9062 21.2944 -5.3665 0.0000 31.4046 0.0000
# 6 0.0000 0.0000 0.0000 0.7856 0.0000 24.3872
#
#
#
# Elastic Compliance Matrix: (Units=1/GPa)
#
#
# Indices 1 2 3 4 5 6 
#
# 1 0.023492 -0.012452 0.007645 0.000000 0.006828 0.000000
# 2 -0.012452 0.035148 -0.022445 0.000000 -0.026119 0.000000
# 3 0.007645 -0.022445 0.035488 0.000000 0.020333 0.000000
# 4 0.000000 0.000000 0.000000 0.051524 0.000000 -0.001660
# 5 0.006828 -0.026119 0.020333 0.000000 0.052178 0.000000
# 6 0.000000 0.000000 0.000000 -0.001660 0.000000 0.041059
#
#
# Mechanical properties :
#
#
# Convention : Reuss Voigt Hill
#
# Bulk Modulus (GPa) = 25.23872 29.71779 27.47825
# Shear Modulus (GPa) = 16.30784 23.15032 19.72908
#
# Velocity S-wave (km/s) = 2.67898 3.19190 2.94662
# Velocity P-wave (km/s) = 4.54715 5.16361 4.86515
#
# Compressibility (1/GPa) = 0.03962166
#
# Stress axis : x y z
#
# Youngs Moduli (GPa) = 42.56825 28.45146 28.17850
#
# Poissons Ratio (x) = 0.35429 -0.21542
# Poissons Ratio (y) = 0.53008 0.63247
# Poissons Ratio (z) = -0.32542 0.63860
#
# Static dielectric constant tensor:
#      x y z
#    x 1.915520 0.000000 -0.015770 
#    y 0.000000 1.906150 0.000000 
#    z -0.015770 0.000000 1.843880 
# 
# From -- ./inp_files/268027.got.cif
#   From: 2010.05.17/outbox.cif.g08.bks.cpg/sg15_135_cif.got.tgz:268027.got - 2010.06.03 18:47:42.
