data_PCOD9285863
_publ_section_title
;
Structure prediction by ZEFSAII (Michael W. Deem and Ramdas Pophale) SiO2 
 PCOD9285863
Probable space group: C 2/C
;
_chemical_formula_sum "Si O2"
_cell_formula_units_Z 52
_cell_length_a 20.906446
_cell_length_b 12.427665
_cell_length_c 13.211425
_cell_angle_alpha 90.000000
_cell_angle_beta 44.102044
_cell_angle_gamma 90.000000
_cell_volume 2388.857380
_symmetry_space_group_name_H-M "C 2/C"
_symmetry_group_IT_number 15
_symmetry_cell_setting 'monoclinic'
loop_
_space_group_symop_operation_xyz
x,y,z
-x,y,1/2-z
-x,-y,-z
x,-y,1/2+z
1/2+x,1/2+y,z
1/2-x,1/2+y,1/2-z
1/2-x,1/2-y,-z
1/2+x,1/2-y,1/2+z
loop_
_atom_site_type_symbol
_atom_site_label
_atom_site_fract_x
_atom_site_fract_y
_atom_site_fract_z
Si Si1 0.080058 0.388488 0.515947
Si Si2 0.358401 0.765430 0.359006
Si Si3 0.764831 0.623707 0.497906
Si Si4 0.406655 0.537906 0.685051
Si Si5 0.000000 0.105253 0.250000
Si Si6 0.386647 0.992524 0.240737
Si Si7 0.428493 0.333598 0.567816
O O1 0.150961 0.407771 0.524456
O O2 0.110487 0.443553 0.375745
O O3 0.084780 0.259049 0.498527
O O4 0.977980 0.434723 0.650084
O O5 0.250000 0.750000 0.500000
O O6 0.416213 0.688356 0.368310
O O7 0.393748 0.720587 0.210819
O O8 0.383315 0.891046 0.322127
O O9 0.750000 0.750000 0.500000
O O10 0.675905 0.577781 0.653677
O O11 0.795951 0.564146 0.360538
O O12 0.471596 0.472224 0.690255
O O13 0.379888 0.450070 0.630246
O O14 0.465219 0.632372 0.567933
#
# Coordination Sequence:
#
# PCOD9285863 Si02
#       7
#     8   8   8   8   4   8   8
#     4  10  23  42  67  98 135 185 227 296 348 418
#     4  10  21  42  67  99 130 172 234 279 343 422
#     4  12  26  41  66 107 135 184 236 288 350 429
#     4  10  22  41  64  93 136 175 229 277 354 405
#     4  10  22  38  66  94 124 184 212 288 340 402
#     4  10  22  44  69  95 137 179 236 286 358 410
#     4   9  20  43  61  90 132 173 222 280 337 415
#
# _framework density 21.767728999999999
#
# number of rings (size 3 to 8) (size 9 to 14) (size 15 to 20)
#    0.000    1.846    0.000    3.231    4.308    1.231 
#   22.154    0.000    0.000    0.000    0.000    0.000 
#    0.000    0.000    0.000    0.000    0.000    0.000 
#
# Total GULP energy -144959.017864 kJ/mol
# GULP energy per Si atom -5575.346841 kJ/mol
# Density = 2.171818 g / cm^3
# Si number density = 21.767729 Si / 1000 Ang^3
#
#
#
# Elastic Constant Matrix: (Units=GPa)
#
#
# Indices 1 2 3 4 5 6 
#
# 1 63.1092 17.3661 30.1769 0.0000 -6.3654 0.0000
# 2 17.3661 110.3440 76.3967 0.0000 -9.4295 0.0000
# 3 30.1769 76.3967 185.1872 0.0000 -26.2156 0.0000
# 4 0.0000 0.0000 0.0000 42.5656 0.0000 -3.6475
# 5 -6.3654 -9.4295 -26.2156 0.0000 19.7969 0.0000
# 6 0.0000 0.0000 0.0000 -3.6475 0.0000 26.5702
#
#
#
# Elastic Compliance Matrix: (Units=1/GPa)
#
#
# Indices 1 2 3 4 5 6 
#
# 1 0.017364 -0.001125 -0.002032 0.000000 0.002357 0.000000
# 2 -0.001125 0.012778 -0.005265 0.000000 -0.001247 0.000000
# 3 -0.002032 -0.005265 0.009176 0.000000 0.008989 0.000000
# 4 0.000000 0.000000 0.000000 0.023773 0.000000 0.003263
# 5 0.002357 -0.001247 0.008989 0.000000 0.062581 0.000000
# 6 0.000000 0.000000 0.000000 0.003263 0.000000 0.038084
#
#
# Mechanical properties :
#
#
# Convention : Reuss Voigt Hill
#
# Bulk Modulus (GPa) = 44.49313 67.39108 55.94211
# Shear Modulus (GPa) = 26.58301 33.43326 30.00813
#
# Velocity S-wave (km/s) = 3.49838 3.92332 3.71693
# Velocity P-wave (km/s) = 6.06651 7.17981 6.64651
#
# Compressibility (1/GPa) = 0.02247538
#
# Stress axis : x y z
#
# Youngs Moduli (GPa) = 57.58919 78.25960 108.98575
#
# Poissons Ratio (x) = 0.08801 0.22146
# Poissons Ratio (y) = 0.06476 0.57377
# Poissons Ratio (z) = 0.11702 0.41201
#
# Static dielectric constant tensor:
#      x y z
#    x 1.874940 0.000000 0.064580 
#    y 0.000000 1.838930 0.000000 
#    z 0.064580 0.000000 1.813640 
# 
# From -- ./inp_files/173128.got.cif
#   From: 2010.05.17/outbox.cif.g08.bks.cpg/sg15_87_cif.got.tgz:173128.got - 2010.06.03 18:47:42.
