data_PCOD9285962
_publ_section_title
;
Structure prediction by ZEFSAII (Michael W. Deem and Ramdas Pophale) SiO2 
 PCOD9285962
Probable space group: C 2/C
;
_chemical_formula_sum "Si O2"
_cell_formula_units_Z 48
_cell_length_a 9.525520
_cell_length_b 11.745971
_cell_length_c 24.002668
_cell_angle_alpha 90.000000
_cell_angle_beta 62.956667
_cell_angle_gamma 90.000000
_cell_volume 2391.941232
_symmetry_space_group_name_H-M "C 2/C"
_symmetry_group_IT_number 15
_symmetry_cell_setting 'monoclinic'
loop_
_space_group_symop_operation_xyz
x,y,z
-x,y,1/2-z
-x,-y,-z
x,-y,1/2+z
1/2+x,1/2+y,z
1/2-x,1/2+y,1/2-z
1/2-x,1/2-y,-z
1/2+x,1/2-y,1/2+z
loop_
_atom_site_type_symbol
_atom_site_label
_atom_site_fract_x
_atom_site_fract_y
_atom_site_fract_z
Si Si1 0.000000 0.064571 0.750000
Si Si2 0.015293 0.270211 0.581605
Si Si3 0.978169 0.834961 0.643265
Si Si4 0.335349 0.584366 0.671400
Si Si5 0.730210 0.951601 0.870391
Si Si6 0.500000 0.813043 0.250000
Si Si7 0.352465 0.807198 0.063378
O O1 0.074171 0.129167 0.789057
O O2 0.146487 0.992028 0.699284
O O3 0.914361 0.155195 0.607446
O O4 0.912044 0.373652 0.624753
O O5 0.182248 0.248544 0.580952
O O6 0.050023 0.298704 0.511143
O O7 0.932489 0.759128 0.599398
O O8 0.159962 0.875009 0.609607
O O9 0.958955 0.764699 0.703961
O O10 0.876932 0.951351 0.661428
O O11 0.152571 0.612330 0.708317
O O12 0.672867 0.063271 0.912608
#
# Coordination Sequence:
#
# PCOD9285962 Si02
#       7
#     4   8   8   8   8   4   8
#     4  10  21  42  69  88 138 167 208 271 334 380
#     4  11  24  44  67  96 135 171 225 271 319 395
#     4  11  24  43  68  94 131 173 213 271 330 386
#     4  11  24  43  65 100 129 174 216 274 329 391
#     4  11  22  45  65  98 131 175 213 274 329 385
#     4  12  25  44  67  96 136 169 220 269 334 396
#     4  11  25  45  67  96 131 179 220 268 329 385
#
# _framework density 20.067384000000001
#
# number of rings (size 3 to 8) (size 9 to 14) (size 15 to 20)
#    0.000    1.000    5.000    3.500    0.000    4.000 
#    0.000    0.000    0.000    0.000    0.000    0.000 
#    0.000    0.000    0.000    0.000    0.000    0.000 
#
# Total GULP energy -134100.559000 kJ/mol
# GULP energy per Si atom -5587.523292 kJ/mol
# Density = 2.002171 g / cm^3
# Si number density = 20.067384 Si / 1000 Ang^3
#
#
#
# Elastic Constant Matrix: (Units=GPa)
#
#
# Indices 1 2 3 4 5 6 
#
# 1 51.7316 33.0999 17.2835 0.0000 -18.3283 0.0000
# 2 33.0999 68.5195 9.2544 0.0000 -3.3581 0.0000
# 3 17.2835 9.2544 59.9813 0.0000 -8.3700 0.0000
# 4 0.0000 0.0000 0.0000 23.3486 0.0000 -3.0479
# 5 -18.3283 -3.3581 -8.3700 0.0000 37.3512 0.0000
# 6 0.0000 0.0000 0.0000 -3.0479 0.0000 38.8533
#
#
#
# Elastic Compliance Matrix: (Units=1/GPa)
#
#
# Indices 1 2 3 4 5 6 
#
# 1 0.037405 -0.016489 -0.006069 0.000000 0.015512 0.000000
# 2 -0.016489 0.022200 0.000491 0.000000 -0.005985 0.000000
# 3 -0.006069 0.000491 0.018515 0.000000 0.001215 0.000000
# 4 0.000000 0.000000 0.000000 0.043272 0.000000 0.003395
# 5 0.015512 -0.005985 0.001215 0.000000 0.034119 0.000000
# 6 0.000000 0.000000 0.000000 0.003395 0.000000 0.026004
#
#
# Mechanical properties :
#
#
# Convention : Reuss Voigt Hill
#
# Bulk Modulus (GPa) = 29.42563 33.27867 31.35215
# Shear Modulus (GPa) = 21.09904 27.95025 24.52465
#
# Velocity S-wave (km/s) = 3.24606 3.73610 3.49967
# Velocity P-wave (km/s) = 5.36139 5.93555 5.65576
#
# Compressibility (1/GPa) = 0.03398398
#
# Stress axis : x y z
#
# Youngs Moduli (GPa) = 26.73474 45.04466 54.01164
#
# Poissons Ratio (x) = 0.74275 0.32782
# Poissons Ratio (y) = 0.44083 -0.02651
# Poissons Ratio (z) = 0.16226 -0.02211
#
# Static dielectric constant tensor:
#      x y z
#    x 1.712300 0.000000 0.005470 
#    y 0.000000 1.701590 0.000000 
#    z 0.005470 0.000000 1.717570 
# 
# From -- ./inp_files/263522.got.cif
#   From: 2010.05.17/outbox.cif.g08.bks.cpg/sg15_132_cif.got.tgz:263522.got - 2010.06.03 18:47:42.
