data_PCOD9285635
_publ_section_title
;
Structure prediction by ZEFSAII (Michael W. Deem and Ramdas Pophale) SiO2 
 PCOD9285635
Probable space group: C 2/C
;
_chemical_formula_sum "Si O2"
_cell_formula_units_Z 52
_cell_length_a 14.267240
_cell_length_b 9.606813
_cell_length_c 19.273741
_cell_angle_alpha 90.000000
_cell_angle_beta 84.552441
_cell_angle_gamma 90.000000
_cell_volume 2629.779837
_symmetry_space_group_name_H-M "C 2/C"
_symmetry_group_IT_number 15
_symmetry_cell_setting 'monoclinic'
loop_
_space_group_symop_operation_xyz
x,y,z
-x,y,1/2-z
-x,-y,-z
x,-y,1/2+z
1/2+x,1/2+y,z
1/2-x,1/2+y,1/2-z
1/2-x,1/2-y,-z
1/2+x,1/2-y,1/2+z
loop_
_atom_site_type_symbol
_atom_site_label
_atom_site_fract_x
_atom_site_fract_y
_atom_site_fract_z
Si Si1 0.636748 0.411046 0.002462
Si Si2 0.310644 0.769398 0.794612
Si Si3 0.649469 0.947817 0.271464
Si Si4 0.036114 0.394670 0.137301
Si Si5 0.500000 0.401471 0.250000
Si Si6 0.998769 0.928108 0.889117
Si Si7 0.656314 0.886513 0.554059
O O1 0.586600 0.450798 0.934290
O O2 0.748176 0.433228 0.990232
O O3 0.588983 0.497240 0.067249
O O4 0.617039 0.247030 0.016232
O O5 0.225534 0.664358 0.789210
O O6 0.409567 0.694108 0.771633
O O7 0.313403 0.824309 0.873111
O O8 0.303672 0.903051 0.745339
O O9 0.601812 0.904128 0.201453
O O10 0.564591 0.955784 0.332299
O O11 0.021805 0.234677 0.118568
O O12 0.084518 0.489661 0.075353
O O13 0.482530 0.499088 0.185170
#
# Coordination Sequence:
#
# PCOD9285635 Si02
#       7
#     8   8   8   8   4   8   8
#     4  10  23  42  64  91 126 175 212 259 317 380
#     4  11  23  39  64  94 125 168 212 262 325 375
#     4  10  23  38  62  96 130 162 207 271 325 374
#     4  10  22  40  61  94 131 164 211 266 315 378
#     4  12  24  40  68  92 128 170 212 266 316 378
#     4  11  24  40  65  94 128 168 217 262 314 376
#     4  10  21  42  65  87 130 170 214 258 315 383
#
# _framework density 19.773517999999999
#
# number of rings (size 3 to 8) (size 9 to 14) (size 15 to 20)
#    0.000    1.538    1.538    3.692    8.615    1.231 
#    0.000    0.000    0.000    0.000    0.000    0.000 
#    0.000    0.000    0.000    0.000    0.000    0.000 
#
# Total GULP energy -145399.296254 kJ/mol
# GULP energy per Si atom -5592.280625 kJ/mol
# Density = 1.972851 g / cm^3
# Si number density = 19.773518 Si / 1000 Ang^3
#
#
#
# Elastic Constant Matrix: (Units=GPa)
#
#
# Indices 1 2 3 4 5 6 
#
# 1 37.3739 -5.3837 -9.9811 0.0000 -7.4474 0.0000
# 2 -5.3837 51.2542 -0.5909 0.0000 -2.4630 0.0000
# 3 -9.9811 -0.5909 56.6728 0.0000 -7.0446 0.0000
# 4 0.0000 0.0000 0.0000 17.3759 0.0000 -7.3388
# 5 -7.4474 -2.4630 -7.0446 0.0000 15.0565 0.0000
# 6 0.0000 0.0000 0.0000 -7.3388 0.0000 30.5225
#
#
#
# Elastic Compliance Matrix: (Units=1/GPa)
#
#
# Indices 1 2 3 4 5 6 
#
# 1 0.034110 0.004729 0.008759 0.000000 0.021744 0.000000
# 2 0.004729 0.020343 0.001857 0.000000 0.006536 0.000000
# 3 0.008759 0.001857 0.021005 0.000000 0.014464 0.000000
# 4 0.000000 0.000000 0.000000 0.064056 0.000000 0.015402
# 5 0.021744 0.006536 0.014464 0.000000 0.085009 0.000000
# 6 0.000000 0.000000 0.000000 0.015402 0.000000 0.036466
#
#
# Mechanical properties :
#
#
# Convention : Reuss Voigt Hill
#
# Bulk Modulus (GPa) = 9.42073 12.59887 11.00980
# Shear Modulus (GPa) = 18.81962 23.34142 21.08052
#
# Velocity S-wave (km/s) = 3.08841 3.43948 3.26866
# Velocity P-wave (km/s) = 4.18238 4.70731 4.45259
#
# Compressibility (1/GPa) = 0.10614892
#
# Stress axis : x y z
#
# Youngs Moduli (GPa) = 29.31696 49.15752 47.60732
#
# Poissons Ratio (x) = -0.23245 -0.41702
# Poissons Ratio (y) = -0.13863 -0.08842
# Poissons Ratio (z) = -0.25680 -0.09130
#
# Static dielectric constant tensor:
#      x y z
#    x 1.677470 0.000000 0.008270 
#    y 0.000000 1.670180 0.000000 
#    z 0.008270 0.000000 1.693510 
# 
# From -- ./inp_files/242387.got.cif
#   From: 2010.05.17/outbox.cif.g08.bks.cpg/sg15_122_cif.got.tgz:242387.got - 2010.06.03 18:47:42.
