data_PCOD9285171
_publ_section_title
;
Structure prediction by ZEFSAII (Michael W. Deem and Ramdas Pophale) SiO2 
 PCOD9285171
Probable space group: C 2/C
;
_chemical_formula_sum "Si O2"
_cell_formula_units_Z 40
_cell_length_a 14.286444
_cell_length_b 10.505927
_cell_length_c 13.575012
_cell_angle_alpha 90.000000
_cell_angle_beta 117.614591
_cell_angle_gamma 90.000000
_cell_volume 1805.404027
_symmetry_space_group_name_H-M "C 2/C"
_symmetry_group_IT_number 15
_symmetry_cell_setting 'monoclinic'
loop_
_space_group_symop_operation_xyz
x,y,z
-x,y,1/2-z
-x,-y,-z
x,-y,1/2+z
1/2+x,1/2+y,z
1/2-x,1/2+y,1/2-z
1/2-x,1/2-y,-z
1/2+x,1/2-y,1/2+z
loop_
_atom_site_type_symbol
_atom_site_label
_atom_site_fract_x
_atom_site_fract_y
_atom_site_fract_z
Si Si1 0.591542 0.924119 0.489287
Si Si2 0.327167 0.829737 0.780146
Si Si3 0.500000 0.460907 0.750000
Si Si4 0.000000 0.507745 0.250000
Si Si5 0.834844 0.944293 0.314355
Si Si6 0.694322 0.610818 0.472243
O O1 0.613853 0.820615 0.584909
O O2 0.709625 0.976223 0.523404
O O3 0.500000 0.000000 0.500000
O O4 0.542990 0.916388 0.356918
O O5 0.409032 0.897174 0.745728
O O6 0.287276 0.686541 0.746048
O O7 0.233344 0.930583 0.741006
O O8 0.555235 0.541410 0.689866
O O9 0.406331 0.387752 0.647932
O O10 0.835746 0.934804 0.433304
O O11 0.750000 0.750000 0.500000
#
# Coordination Sequence:
#
# PCOD9285171 Si02
#       6
#     8   8   4   4   8   8
#     4  10  21  41  68 104 139 176 238 295 351 420
#     4  11  23  44  70 100 144 180 239 293 350 424
#     4  12  27  47  70 102 147 192 231 300 365 420
#     4  10  21  41  70 100 135 188 227 300 357 414
#     4  12  24  47  69 104 143 190 237 296 355 423
#     4  12  24  48  71 105 146 185 243 291 360 432
#
# _framework density 22.155705999999999
#
# number of rings (size 3 to 8) (size 9 to 14) (size 15 to 20)
#    0.000    0.800    6.000    1.200    0.000    0.800 
#    7.200    6.000    0.000    0.000    0.000    0.000 
#    0.000    0.000    0.000    0.000    0.000    0.000 
#
# Total GULP energy -111336.560776 kJ/mol
# GULP energy per Si atom -5566.828039 kJ/mol
# Density = 2.210528 g / cm^3
# Si number density = 22.155706 Si / 1000 Ang^3
#
#
#
# Elastic Constant Matrix: (Units=GPa)
#
#
# Indices 1 2 3 4 5 6 
#
# 1 186.8932 33.4476 40.2789 0.0000 -16.3640 0.0000
# 2 33.4476 105.7157 32.5827 0.0000 12.8040 0.0000
# 3 40.2789 32.5827 159.4174 0.0000 -10.8348 0.0000
# 4 0.0000 0.0000 0.0000 21.5099 0.0000 6.0747
# 5 -16.3640 12.8040 -10.8348 0.0000 43.5331 0.0000
# 6 0.0000 0.0000 0.0000 6.0747 0.0000 24.0860
#
#
#
# Elastic Compliance Matrix: (Units=1/GPa)
#
#
# Indices 1 2 3 4 5 6 
#
# 1 0.006143 -0.001965 -0.000971 0.000000 0.002645 0.000000
# 2 -0.001965 0.011291 -0.002123 0.000000 -0.004588 0.000000
# 3 -0.000971 -0.002123 0.007090 0.000000 0.002024 0.000000
# 4 0.000000 0.000000 0.000000 0.050055 0.000000 -0.012624
# 5 0.002645 -0.004588 0.002024 0.000000 0.025819 0.000000
# 6 0.000000 0.000000 0.000000 -0.012624 0.000000 0.044702
#
#
# Mechanical properties :
#
#
# Convention : Reuss Voigt Hill
#
# Bulk Modulus (GPa) = 69.41380 73.84942 71.63161
# Shear Modulus (GPa) = 31.24624 40.87362 36.05993
#
# Velocity S-wave (km/s) = 3.75947 4.29981 4.03869
# Velocity P-wave (km/s) = 7.08822 7.61942 7.35861
#
# Compressibility (1/GPa) = 0.01440636
#
# Stress axis : x y z
#
# Youngs Moduli (GPa) = 162.78311 88.56586 141.05146
#
# Poissons Ratio (x) = 0.17402 0.13693
# Poissons Ratio (y) = 0.31985 0.29947
# Poissons Ratio (z) = 0.15802 0.18803
#
# Static dielectric constant tensor:
#      x y z
#    x 1.907850 0.000000 -0.011440 
#    y 0.000000 1.906570 0.000000 
#    z -0.011440 0.000000 1.846310 
# 
# From -- ./inp_files/152327.got.cif
#   From: 2010.05.17/outbox.cif.g08.bks.cpg/sg15_77_cif.got.tgz:152327.got - 2010.06.03 18:47:42.
