data_PCOD9285963
_publ_section_title
;
Structure prediction by ZEFSAII (Michael W. Deem and Ramdas Pophale) SiO2 
 PCOD9285963
Probable space group: C 2/C
;
_chemical_formula_sum "Si O2"
_cell_formula_units_Z 56
_cell_length_a 14.841190
_cell_length_b 7.433488
_cell_length_c 26.115249
_cell_angle_alpha 90.000000
_cell_angle_beta 125.764521
_cell_angle_gamma 90.000000
_cell_volume 2337.784087
_symmetry_space_group_name_H-M "C 2/C"
_symmetry_group_IT_number 15
_symmetry_cell_setting 'monoclinic'
loop_
_space_group_symop_operation_xyz
x,y,z
-x,y,1/2-z
-x,-y,-z
x,-y,1/2+z
1/2+x,1/2+y,z
1/2-x,1/2+y,1/2-z
1/2-x,1/2-y,-z
1/2+x,1/2-y,1/2+z
loop_
_atom_site_type_symbol
_atom_site_label
_atom_site_fract_x
_atom_site_fract_y
_atom_site_fract_z
Si Si1 0.918366 0.093412 0.635338
Si Si2 0.064470 0.498819 0.324318
Si Si3 0.832619 0.464027 0.932700
Si Si4 0.352150 0.413014 0.304629
Si Si5 0.868424 0.224783 0.511722
Si Si6 0.817617 0.940449 0.407885
Si Si7 0.630182 0.986750 0.169637
O O1 0.911757 0.287144 0.660794
O O2 0.935128 0.137820 0.580261
O O3 0.039256 0.013084 0.689148
O O4 0.801722 0.992000 0.604159
O O5 0.185052 0.414346 0.366682
O O6 0.000000 0.471109 0.250000
O O7 0.984452 0.428335 0.342545
O O8 0.892618 0.578587 0.996955
O O9 0.864596 0.254856 0.939395
O O10 0.859440 0.548531 0.886610
O O11 0.338182 0.497872 0.356158
O O12 0.368131 0.201322 0.320226
O O13 0.239677 0.422729 0.235213
O O14 0.750000 0.250000 0.500000
O O15 0.857299 0.087904 0.461310
#
# Coordination Sequence:
#
# PCOD9285963 Si02
#       7
#     8   8   8   8   8   8   8
#     4  10  23  41  65  94 123 169 216 251 318 379
#     4  11  21  40  64  91 125 172 201 264 321 370
#     4  10  23  41  64  95 125 166 209 261 307 380
#     4  10  23  39  61  94 129 162 210 264 311 378
#     4  10  21  42  69  89 128 168 212 258 316 369
#     4  11  22  42  65  93 132 160 212 260 315 367
#     4  10  23  37  61  92 129 162 210 257 320 369
#
# _framework density 23.954308000000001
#
# number of rings (size 3 to 8) (size 9 to 14) (size 15 to 20)
#    0.000    1.714    4.286    0.000    6.000    4.000 
#    0.000    6.429    0.000    0.000    0.000    0.000 
#    0.000    0.000    0.000    0.000    0.000    0.000 
#
# Total GULP energy -156598.573400 kJ/mol
# GULP energy per Si atom -5592.806193 kJ/mol
# Density = 2.389979 g / cm^3
# Si number density = 23.954308 Si / 1000 Ang^3
#
#
#
# Elastic Constant Matrix: (Units=GPa)
#
#
# Indices 1 2 3 4 5 6 
#
# 1 113.2584 -6.3421 22.6235 0.0000 7.7729 0.0000
# 2 -6.3421 65.0430 3.7363 0.0000 -9.3492 0.0000
# 3 22.6235 3.7363 62.2804 0.0000 -7.5247 0.0000
# 4 0.0000 0.0000 0.0000 34.1407 0.0000 -1.6348
# 5 7.7729 -9.3492 -7.5247 0.0000 45.5541 0.0000
# 6 0.0000 0.0000 0.0000 -1.6348 0.0000 23.9862
#
#
#
# Elastic Compliance Matrix: (Units=1/GPa)
#
#
# Indices 1 2 3 4 5 6 
#
# 1 0.009797 0.000871 -0.003869 0.000000 -0.002132 0.000000
# 2 0.000871 0.015939 -0.000914 0.000000 0.002972 0.000000
# 3 -0.003869 -0.000914 0.017932 0.000000 0.003435 0.000000
# 4 0.000000 0.000000 0.000000 0.029386 0.000000 0.002003
# 5 -0.002132 0.002972 0.003435 0.000000 0.023493 0.000000
# 6 0.000000 0.000000 0.000000 0.002003 0.000000 0.041827
#
#
# Mechanical properties :
#
#
# Convention : Reuss Voigt Hill
#
# Bulk Modulus (GPa) = 27.89766 31.17970 29.53868
# Shear Modulus (GPa) = 31.61653 35.44047 33.52850
#
# Velocity S-wave (km/s) = 3.63694 3.85060 3.74530
# Velocity P-wave (km/s) = 5.41368 5.72836 5.57324
#
# Compressibility (1/GPa) = 0.03584530
#
# Stress axis : x y z
#
# Youngs Moduli (GPa) = 102.06954 62.73916 55.76772
#
# Poissons Ratio (x) = -0.05465 0.21575
# Poissons Ratio (y) = -0.08891 0.05095
# Poissons Ratio (z) = 0.39488 0.05732
#
# Static dielectric constant tensor:
#      x y z
#    x 1.954960 0.000000 0.030330 
#    y 0.000000 1.946020 0.000000 
#    z 0.030330 0.000000 1.932670 
# 
# From -- ./inp_files/273250.got.cif
#   From: 2010.05.17/outbox.cif.g08.bks.cpg/sg15_137_cif.got.tgz:273250.got - 2010.06.03 18:47:42.
