data_PCOD9285112
_publ_section_title
;
Structure prediction by ZEFSAII (Michael W. Deem and Ramdas Pophale) SiO2 
 PCOD9285112
Probable space group: C 2/C
;
_chemical_formula_sum "Si O2"
_cell_formula_units_Z 56
_cell_length_a 9.716768
_cell_length_b 29.494369
_cell_length_c 10.212604
_cell_angle_alpha 90.000000
_cell_angle_beta 57.688063
_cell_angle_gamma 90.000000
_cell_volume 2473.611445
_symmetry_space_group_name_H-M "C 2/C"
_symmetry_group_IT_number 15
_symmetry_cell_setting 'monoclinic'
loop_
_space_group_symop_operation_xyz
x,y,z
-x,y,1/2-z
-x,-y,-z
x,-y,1/2+z
1/2+x,1/2+y,z
1/2-x,1/2+y,1/2-z
1/2-x,1/2-y,-z
1/2+x,1/2-y,1/2+z
loop_
_atom_site_type_symbol
_atom_site_label
_atom_site_fract_x
_atom_site_fract_y
_atom_site_fract_z
Si Si1 0.331952 0.218817 0.617005
Si Si2 0.139127 0.121124 0.953031
Si Si3 0.906800 0.378993 0.113269
Si Si4 0.040821 0.966088 0.865400
Si Si5 0.131612 0.219016 0.977791
Si Si6 0.804047 0.150724 0.008006
Si Si7 0.363364 0.910923 0.712235
O O1 0.440637 0.174895 0.604334
O O2 0.191840 0.221137 0.796677
O O3 0.449237 0.261653 0.570880
O O4 0.246101 0.300427 0.479305
O O5 0.307244 0.109007 0.793995
O O6 0.153652 0.168287 0.021733
O O7 0.992731 0.137830 0.928649
O O8 0.070817 0.078754 0.065098
O O9 0.771341 0.381490 0.066139
O O10 0.058834 0.403665 0.970506
O O11 0.223766 0.948107 0.779941
O O12 0.000000 0.989202 0.750000
O O13 0.000000 0.000000 0.000000
O O14 0.250000 0.250000 0.000000
O O15 0.714991 0.135642 0.187771
O O16 0.500000 0.923357 0.750000
#
# Coordination Sequence:
#
# PCOD9285112 Si02
#       7
#     8   8   8   8   8   8   8
#     4   9  21  36  56  86 131 173 239 273 347 397
#     4  10  21  41  67  93 131 177 229 280 367 417
#     4   8  17  34  62  97 127 171 218 286 340 411
#     4  11  27  49  73 108 142 188 235 297 362 446
#     4  11  23  38  55  87 133 188 230 289 341 424
#     4   8  17  35  60  93 125 170 223 283 343 410
#     4   9  18  40  72 103 138 174 229 292 360 414
#
# _framework density 22.638966
#
# number of rings (size 3 to 8) (size 9 to 14) (size 15 to 20)
#    0.857    1.714    0.000    0.857    0.000    8.571 
#    0.000    5.000    0.000    0.000    0.000    0.000 
#    0.000    0.000    0.000    0.000    0.000    0.000 
#
# Total GULP energy -156161.000926 kJ/mol
# GULP energy per Si atom -5577.178605 kJ/mol
# Density = 2.258744 g / cm^3
# Si number density = 22.638966 Si / 1000 Ang^3
#
#
#
# Elastic Constant Matrix: (Units=GPa)
#
#
# Indices 1 2 3 4 5 6 
#
# 1 70.4457 27.6585 36.0818 0.0000 -0.1900 0.0000
# 2 27.6585 49.9465 34.1625 0.0000 -3.8657 0.0000
# 3 36.0818 34.1625 116.3438 0.0000 -17.7467 0.0000
# 4 0.0000 0.0000 0.0000 32.0439 0.0000 1.6460
# 5 -0.1900 -3.8657 -17.7467 0.0000 35.3482 0.0000
# 6 0.0000 0.0000 0.0000 1.6460 0.0000 10.0484
#
#
#
# Elastic Compliance Matrix: (Units=1/GPa)
#
#
# Indices 1 2 3 4 5 6 
#
# 1 0.019504 -0.008242 -0.004061 0.000000 -0.002835 0.000000
# 2 -0.008242 0.028571 -0.005808 0.000000 0.000164 0.000000
# 3 -0.004061 -0.005808 0.012410 0.000000 0.005574 0.000000
# 4 0.000000 0.000000 0.000000 0.031472 0.000000 -0.005155
# 5 -0.002835 0.000164 0.005574 0.000000 0.031091 0.000000
# 6 0.000000 0.000000 0.000000 -0.005155 0.000000 0.100362
#
#
# Mechanical properties :
#
#
# Convention : Reuss Voigt Hill
#
# Bulk Modulus (GPa) = 41.21633 48.06017 44.63825
# Shear Modulus (GPa) = 18.67616 24.74364 21.70990
#
# Velocity S-wave (km/s) = 2.87532 3.30959 3.10007
# Velocity P-wave (km/s) = 5.41006 5.98996 5.70738
#
# Compressibility (1/GPa) = 0.02426223
#
# Stress axis : x y z
#
# Youngs Moduli (GPa) = 51.27209 35.00038 80.57794
#
# Poissons Ratio (x) = 0.28848 0.32723
# Poissons Ratio (y) = 0.42260 0.46802
# Poissons Ratio (z) = 0.20822 0.20329
#
# Static dielectric constant tensor:
#      x y z
#    x 1.896000 0.000000 0.036010 
#    y 0.000000 1.852470 0.000000 
#    z 0.036010 0.000000 1.841040 
# 
# From -- ./inp_files/91978.got.cif
#   From: 2010.05.17/outbox.cif.g08.bks.cpg/sg15_46_cif.got.tgz:91978.got - 2010.06.03 18:47:42.
