data_PCOD9285055
_publ_section_title
;
Structure prediction by ZEFSAII (Michael W. Deem and Ramdas Pophale) SiO2 
 PCOD9285055
Probable space group: C 2/C
;
_chemical_formula_sum "Si O2"
_cell_formula_units_Z 44
_cell_length_a 30.717873
_cell_length_b 11.890253
_cell_length_c 16.933190
_cell_angle_alpha 90.000000
_cell_angle_beta 163.458111
_cell_angle_gamma 90.000000
_cell_volume 1760.894318
_symmetry_space_group_name_H-M "C 2/C"
_symmetry_group_IT_number 15
_symmetry_cell_setting 'monoclinic'
loop_
_space_group_symop_operation_xyz
x,y,z
-x,y,1/2-z
-x,-y,-z
x,-y,1/2+z
1/2+x,1/2+y,z
1/2-x,1/2+y,1/2-z
1/2-x,1/2-y,-z
1/2+x,1/2-y,1/2+z
loop_
_atom_site_type_symbol
_atom_site_label
_atom_site_fract_x
_atom_site_fract_y
_atom_site_fract_z
Si Si1 0.216128 0.822853 0.518062
Si Si2 0.000000 0.707351 0.750000
Si Si3 0.147520 0.531569 0.806112
Si Si4 0.000000 0.693710 0.250000
Si Si5 0.000000 0.000000 0.500000
Si Si6 0.466219 0.262063 0.864634
Si Si7 0.204454 0.496415 0.584997
O O1 0.250000 0.750000 0.500000
O O2 0.066564 0.774655 0.298724
O O3 0.215081 0.952647 0.486649
O O4 0.365348 0.795239 0.829424
O O5 0.959408 0.775537 0.758101
O O6 0.859738 0.618947 0.491288
O O7 0.000000 0.500000 0.500000
O O8 0.150482 0.664830 0.809345
O O9 0.130604 0.497824 0.867942
O O10 0.137751 0.607136 0.511475
O O11 0.120125 0.000984 0.632126
O O12 0.045175 0.869698 0.600002
#
# Coordination Sequence:
#
# PCOD9285055 Si02
#       7
#     8   4   8   4   4   8   8
#     4  11  20  40  70 106 140 188 248 313 376 438
#     4   9  22  44  68  99 144 195 252 305 380 448
#     4   9  19  38  67 100 136 184 242 298 381 436
#     4  11  20  38  68 101 136 189 258 305 366 432
#     4  12  22  42  70 100 142 198 248 298 388 446
#     4  10  22  42  70 100 139 194 242 303 377 451
#     4  10  21  41  66  98 141 195 244 309 367 445
#
# _framework density 24.987304000000002
#
# number of rings (size 3 to 8) (size 9 to 14) (size 15 to 20)
#    0.000    1.818    3.636    0.000    0.000    2.909 
#    6.545    1.818    8.000    2.182    0.000    0.000 
#    0.000    0.000    0.000    0.000    0.000    0.000 
#
# Total GULP energy -122557.191320 kJ/mol
# GULP energy per Si atom -5570.781424 kJ/mol
# Density = 2.493043 g / cm^3
# Si number density = 24.987304 Si / 1000 Ang^3
#
#
#
# Elastic Constant Matrix: (Units=GPa)
#
#
# Indices 1 2 3 4 5 6 
#
# 1 129.5365 73.9367 38.4159 0.0000 23.5249 0.0000
# 2 73.9367 211.6743 38.9349 0.0000 28.4730 0.0000
# 3 38.4159 38.9349 81.9415 0.0000 32.4719 0.0000
# 4 0.0000 0.0000 0.0000 38.2414 0.0000 13.1703
# 5 23.5249 28.4730 32.4719 0.0000 53.9985 0.0000
# 6 0.0000 0.0000 0.0000 13.1703 0.0000 53.4705
#
#
#
# Elastic Compliance Matrix: (Units=1/GPa)
#
#
# Indices 1 2 3 4 5 6 
#
# 1 0.010530 -0.002955 -0.003062 0.000000 -0.001188 0.000000
# 2 -0.002955 0.006119 -0.000989 0.000000 -0.001344 0.000000
# 3 -0.003062 -0.000989 0.017558 0.000000 -0.008703 0.000000
# 4 0.000000 0.000000 0.000000 0.028573 0.000000 -0.007038
# 5 -0.001188 -0.001344 -0.008703 0.000000 0.024979 0.000000
# 6 0.000000 0.000000 0.000000 -0.007038 0.000000 0.020435
#
#
# Mechanical properties :
#
#
# Convention : Reuss Voigt Hill
#
# Bulk Modulus (GPa) = 49.51743 80.63636 65.07689
# Shear Modulus (GPa) = 38.77758 47.26642 43.02200
#
# Velocity S-wave (km/s) = 3.94368 4.35399 4.15390
# Velocity P-wave (km/s) = 6.37157 7.59061 7.00764
#
# Compressibility (1/GPa) = 0.02019491
#
# Stress axis : x y z
#
# Youngs Moduli (GPa) = 94.96301 163.41775 56.95324
#
# Poissons Ratio (x) = 0.48293 0.17438
# Poissons Ratio (y) = 0.28063 0.05635
# Poissons Ratio (z) = 0.29076 0.16170
#
# Static dielectric constant tensor:
#      x y z
#    x 1.946640 0.000000 -0.053310 
#    y 0.000000 2.316960 0.000000 
#    z -0.053310 0.000000 2.141760 
# 
# From -- ./inp_files/225244.got.cif
#   From: 2010.05.17/outbox.cif.g08.bks.cpg/sg15_113_cif.got.tgz:225244.got - 2010.06.03 18:47:42.
