data_PCOD9285338
_publ_section_title
;
Structure prediction by ZEFSAII (Michael W. Deem and Ramdas Pophale) SiO2 
 PCOD9285338
Probable space group: C 2/C
;
_chemical_formula_sum "Si O2"
_cell_formula_units_Z 44
_cell_length_a 16.335304
_cell_length_b 9.816004
_cell_length_c 13.491016
_cell_angle_alpha 90.000000
_cell_angle_beta 126.510271
_cell_angle_gamma 90.000000
_cell_volume 1738.712230
_symmetry_space_group_name_H-M "C 2/C"
_symmetry_group_IT_number 15
_symmetry_cell_setting 'monoclinic'
loop_
_space_group_symop_operation_xyz
x,y,z
-x,y,1/2-z
-x,-y,-z
x,-y,1/2+z
1/2+x,1/2+y,z
1/2-x,1/2+y,1/2-z
1/2-x,1/2-y,-z
1/2+x,1/2-y,1/2+z
loop_
_atom_site_type_symbol
_atom_site_label
_atom_site_fract_x
_atom_site_fract_y
_atom_site_fract_z
Si Si1 0.476511 0.364918 0.544313
Si Si2 0.427323 0.815335 0.524419
Si Si3 0.612539 0.445953 0.380428
Si Si4 0.298575 0.596956 0.225021
Si Si5 0.813993 0.613023 0.740992
Si Si6 0.500000 0.011935 0.750000
O O1 0.500000 0.500000 0.500000
O O2 0.473999 0.246378 0.462208
O O3 0.393533 0.413497 0.561616
O O4 0.583748 0.354119 0.679184
O O5 0.373221 0.688035 0.541923
O O6 0.365719 0.874800 0.387584
O O7 0.460188 0.921515 0.630146
O O8 0.500000 0.423658 0.250000
O O9 0.693661 0.483422 0.355227
O O10 0.256288 0.520040 0.291400
O O11 0.252226 0.746970 0.176154
O O12 0.901410 0.589240 0.722158
#
# Coordination Sequence:
#
# PCOD9285338 Si02
#       6
#     8   8   8   8   8   4
#     4   8  17  35  64  98 128 167 222 272 324 401
#     4  10  21  41  70  97 132 180 228 271 337 410
#     4   9  17  35  69 101 129 178 223 274 336 401
#     4  10  23  41  65 100 138 175 224 281 336 398
#     4  11  27  45  69  98 142 178 226 284 338 402
#     4  12  26  46  70  98 136 184 226 282 342 402
#
# _framework density 25.306086000000001
#
# number of rings (size 3 to 8) (size 9 to 14) (size 15 to 20)
#    0.000    2.182    0.909    0.545    8.909    0.727 
#    6.545    0.909    0.000    0.000    0.000    0.000 
#    0.000    0.000    0.000    0.000    0.000    0.000 
#
# Total GULP energy -122743.456041 kJ/mol
# GULP energy per Si atom -5579.248002 kJ/mol
# Density = 2.524849 g / cm^3
# Si number density = 25.306086 Si / 1000 Ang^3
#
#
#
# Elastic Constant Matrix: (Units=GPa)
#
#
# Indices 1 2 3 4 5 6 
#
# 1 158.7302 42.8873 -3.7302 0.0000 -16.7371 0.0000
# 2 42.8873 98.4081 8.9595 0.0000 -0.2742 0.0000
# 3 -3.7302 8.9595 79.7221 0.0000 -10.9315 0.0000
# 4 0.0000 0.0000 0.0000 54.3952 0.0000 -32.9138
# 5 -16.7371 -0.2742 -10.9315 0.0000 21.8700 0.0000
# 6 0.0000 0.0000 0.0000 -32.9138 0.0000 37.2496
#
#
#
# Elastic Compliance Matrix: (Units=1/GPa)
#
#
# Indices 1 2 3 4 5 6 
#
# 1 0.008067 -0.003655 0.001748 0.000000 0.007002 0.000000
# 2 -0.003655 0.011928 -0.002013 0.000000 -0.003654 0.000000
# 3 0.001748 -0.002013 0.013990 0.000000 0.008306 0.000000
# 4 0.000000 0.000000 0.000000 0.039506 0.000000 0.034908
# 5 0.007002 -0.003654 0.008306 0.000000 0.055189 0.000000
# 6 0.000000 0.000000 0.000000 0.034908 0.000000 0.057690
#
#
# Mechanical properties :
#
#
# Convention : Reuss Voigt Hill
#
# Bulk Modulus (GPa) = 38.24649 48.12151 43.18400
# Shear Modulus (GPa) = 24.63961 41.95256 33.29609
#
# Velocity S-wave (km/s) = 3.12374 4.07603 3.63124
# Velocity P-wave (km/s) = 5.30629 6.41943 5.88922
#
# Compressibility (1/GPa) = 0.02614619
#
# Stress axis : x y z
#
# Youngs Moduli (GPa) = 123.96156 83.83731 71.47734
#
# Poissons Ratio (x) = 0.30646 -0.12497
# Poissons Ratio (y) = 0.45312 0.14385
# Poissons Ratio (z) = -0.21673 0.16873
#
# Static dielectric constant tensor:
#      x y z
#    x 2.028250 0.000000 0.045550 
#    y 0.000000 2.224960 0.000000 
#    z 0.045550 0.000000 2.182700 
# 
# From -- ./inp_files/159810.got.cif
#   From: 2010.05.17/outbox.cif.g08.bks.cpg/sg15_80_cif.got.tgz:159810.got - 2010.06.03 18:47:42.
