data_PCOD9285523
_publ_section_title
;
Structure prediction by ZEFSAII (Michael W. Deem and Ramdas Pophale) SiO2 
 PCOD9285523
Probable space group: C 2/C
;
_chemical_formula_sum "Si O2"
_cell_formula_units_Z 48
_cell_length_a 11.306697
_cell_length_b 26.665339
_cell_length_c 7.886945
_cell_angle_alpha 90.000000
_cell_angle_beta 86.443362
_cell_angle_gamma 90.000000
_cell_volume 2373.309632
_symmetry_space_group_name_H-M "C 2/C"
_symmetry_group_IT_number 15
_symmetry_cell_setting 'monoclinic'
loop_
_space_group_symop_operation_xyz
x,y,z
-x,y,1/2-z
-x,-y,-z
x,-y,1/2+z
1/2+x,1/2+y,z
1/2-x,1/2+y,1/2-z
1/2-x,1/2-y,-z
1/2+x,1/2-y,1/2+z
loop_
_atom_site_type_symbol
_atom_site_label
_atom_site_fract_x
_atom_site_fract_y
_atom_site_fract_z
Si Si1 0.409625 0.546380 0.492012
Si Si2 0.500000 0.962679 0.750000
Si Si3 0.860756 0.449055 0.438922
Si Si4 0.000000 0.118690 0.250000
Si Si5 0.000000 0.365194 0.250000
Si Si6 0.000000 0.126626 0.750000
Si Si7 0.143299 0.813665 0.996920
Si Si8 0.919445 0.698410 0.429757
O O1 0.500000 0.500000 0.500000
O O2 0.275603 0.536118 0.547529
O O3 0.404023 0.577478 0.318124
O O4 0.458976 0.589152 0.609382
O O5 0.418390 0.935369 0.617478
O O6 0.579914 0.000305 0.634184
O O7 0.893587 0.403324 0.310625
O O8 0.936151 0.155669 0.126991
O O9 0.028202 0.331948 0.413669
O O10 0.110045 0.160388 0.678959
O O11 0.280314 0.817447 0.928641
O O12 0.096136 0.756927 0.017773
O O13 0.000000 0.693465 0.250000
#
# Coordination Sequence:
#
# PCOD9285523 Si02
#       8
#     8   4   8   4   4   4   8   8
#     4  11  24  38  62  94 127 171 217 274 332 402
#     4   9  22  42  64  86 122 182 208 280 327 392
#     4  10  23  42  64  92 132 166 228 270 336 393
#     4  10  24  40  63  94 126 175 214 272 338 396
#     4  11  25  42  66 109 127 180 228 281 331 404
#     4  10  21  42  63  91 133 171 216 275 332 394
#     4  10  22  45  65  98 134 175 223 276 339 403
#     4  11  24  43  71 100 137 179 226 278 337 405
#
# _framework density 20.224920000000001
#
# number of rings (size 3 to 8) (size 9 to 14) (size 15 to 20)
#    0.000    1.667    0.833    2.000    8.167    0.000 
#    6.000    2.500    0.000    0.000    0.000    0.000 
#    0.000    0.000    0.000    0.000    0.000    0.000 
#
# Total GULP energy -133657.589800 kJ/mol
# GULP energy per Si atom -5569.066242 kJ/mol
# Density = 2.017889 g / cm^3
# Si number density = 20.224920 Si / 1000 Ang^3
#
#
#
# Elastic Constant Matrix: (Units=GPa)
#
#
# Indices 1 2 3 4 5 6 
#
# 1 144.6291 62.8378 52.2942 0.0000 -31.2515 0.0000
# 2 62.8378 116.3427 52.6122 0.0000 -6.1120 0.0000
# 3 52.2942 52.6122 92.5863 0.0000 -13.7662 0.0000
# 4 0.0000 0.0000 0.0000 89.8753 0.0000 -141.7792
# 5 -31.2515 -6.1120 -13.7662 0.0000 30.5622 0.0000
# 6 0.0000 0.0000 0.0000 -141.7792 0.0000 400.8292
#
#
#
# Elastic Compliance Matrix: (Units=1/GPa)
#
#
# Indices 1 2 3 4 5 6 
#
# 1 0.012202 -0.004880 -0.002582 0.000000 0.010338 0.000000
# 2 -0.004880 0.013533 -0.005652 0.000000 -0.004829 0.000000
# 3 -0.002582 -0.005652 0.015980 0.000000 0.003428 0.000000
# 4 0.000000 0.000000 0.000000 0.025172 0.000000 0.008904
# 5 0.010338 -0.004829 0.003428 0.000000 0.043870 0.000000
# 6 0.000000 0.000000 0.000000 0.008904 0.000000 0.005644
#
#
# Mechanical properties :
#
#
# Convention : Reuss Voigt Hill
#
# Bulk Modulus (GPa) = 64.56511 76.56072 70.56292
# Shear Modulus (GPa) = 33.83149 116.64093 75.23621
#
# Velocity S-wave (km/s) = 4.09438 7.60244 6.10578
# Velocity P-wave (km/s) = 7.37189 10.72379 9.20175
#
# Compressibility (1/GPa) = 0.01548824
#
# Stress axis : x y z
#
# Youngs Moduli (GPa) = 81.95612 73.89273 62.57657
#
# Poissons Ratio (x) = 0.36057 0.16155
# Poissons Ratio (y) = 0.39992 0.35369
# Poissons Ratio (z) = 0.21159 0.41765
#
# Static dielectric constant tensor:
#      x y z
#    x 1.741390 0.000000 -0.129700 
#    y 0.000000 1.684570 0.000000 
#    z -0.129700 0.000000 2.113320 
# 
# From -- ./inp_files/31986.got.cif
#   From: 2010.05.17/outbox.cif.g08.bks.cpg/sg15_16_cif.got.tgz:31986.got - 2010.06.03 18:47:42.
