data_PCOD9285701
_publ_section_title
;
Structure prediction by ZEFSAII (Michael W. Deem and Ramdas Pophale) SiO2 
 PCOD9285701
Probable space group: C 2/C
;
_chemical_formula_sum "Si O2"
_cell_formula_units_Z 44
_cell_length_a 18.391035
_cell_length_b 16.433094
_cell_length_c 8.019654
_cell_angle_alpha 90.000000
_cell_angle_beta 132.202656
_cell_angle_gamma 90.000000
_cell_volume 1795.422050
_symmetry_space_group_name_H-M "C 2/C"
_symmetry_group_IT_number 15
_symmetry_cell_setting 'monoclinic'
loop_
_space_group_symop_operation_xyz
x,y,z
-x,y,1/2-z
-x,-y,-z
x,-y,1/2+z
1/2+x,1/2+y,z
1/2-x,1/2+y,1/2-z
1/2-x,1/2-y,-z
1/2+x,1/2-y,1/2+z
loop_
_atom_site_type_symbol
_atom_site_label
_atom_site_fract_x
_atom_site_fract_y
_atom_site_fract_z
Si Si1 0.305670 0.063081 0.798617
Si Si2 0.000000 0.387126 0.750000
Si Si3 0.363823 0.443899 0.954629
Si Si4 0.561303 0.793137 0.509118
Si Si5 0.609680 0.387490 0.144107
Si Si6 0.738087 0.165027 0.075960
O O1 0.225678 0.117400 0.776267
O O2 0.315777 0.104831 0.635282
O O3 0.246335 0.979887 0.682487
O O4 0.406574 0.059872 0.051411
O O5 0.026378 0.332803 0.628255
O O6 0.418084 0.526790 0.985748
O O7 0.341941 0.377858 0.778586
O O8 0.401403 0.402701 0.177759
O O9 0.500000 0.817353 0.250000
O O10 0.558609 0.695276 0.516220
O O11 0.672931 0.817630 0.637368
O O12 0.750000 0.250000 0.000000
#
# Coordination Sequence:
#
# PCOD9285701 Si02
#       6
#     8   4   8   8   8   8
#     4  10  21  42  65  99 135 170 227 276 338 411
#     4  12  26  44  66 106 144 182 224 278 352 420
#     4  10  21  42  68 102 127 178 232 284 340 412
#     4  12  27  43  67 101 141 181 228 285 344 407
#     4  10  22  43  69  96 131 178 230 280 342 407
#     4  12  22  42  73  99 136 177 233 289 339 401
#
# _framework density 24.506772999999999
#
# number of rings (size 3 to 8) (size 9 to 14) (size 15 to 20)
#    1.091    0.000    5.455    1.091    2.545    1.455 
#    1.636    3.636    0.000    0.000    0.000    0.000 
#    0.000    0.000    0.000    0.000    0.000    0.000 
#
# Total GULP energy -123040.701322 kJ/mol
# GULP energy per Si atom -5592.759151 kJ/mol
# Density = 2.445099 g / cm^3
# Si number density = 24.506773 Si / 1000 Ang^3
#
#
#
# Elastic Constant Matrix: (Units=GPa)
#
#
# Indices 1 2 3 4 5 6 
#
# 1 124.5785 27.6413 24.7394 0.0000 -10.6734 0.0000
# 2 27.6413 104.4286 13.1935 0.0000 -12.5127 0.0000
# 3 24.7394 13.1935 104.6313 0.0000 -20.8652 0.0000
# 4 0.0000 0.0000 0.0000 32.5603 0.0000 -1.3774
# 5 -10.6734 -12.5127 -20.8652 0.0000 33.8002 0.0000
# 6 0.0000 0.0000 0.0000 -1.3774 0.0000 24.4449
#
#
#
# Elastic Compliance Matrix: (Units=1/GPa)
#
#
# Indices 1 2 3 4 5 6 
#
# 1 0.008891 -0.002021 -0.001638 0.000000 0.001048 0.000000
# 2 -0.002021 0.010513 -0.000227 0.000000 0.003114 0.000000
# 3 -0.001638 -0.000227 0.011237 0.000000 0.006335 0.000000
# 4 0.000000 0.000000 0.000000 0.030786 0.000000 0.001735
# 5 0.001048 0.003114 0.006335 0.000000 0.034980 0.000000
# 6 0.000000 0.000000 0.000000 0.001735 0.000000 0.041006
#
#
# Mechanical properties :
#
#
# Convention : Reuss Voigt Hill
#
# Bulk Modulus (GPa) = 43.72932 51.64297 47.68615
# Shear Modulus (GPa) = 32.72124 36.03202 34.37663
#
# Velocity S-wave (km/s) = 3.65799 3.83859 3.74938
# Velocity P-wave (km/s) = 5.97693 6.38475 6.18421
#
# Compressibility (1/GPa) = 0.02286795
#
# Stress axis : x y z
#
# Youngs Moduli (GPa) = 112.47901 95.12472 88.99416
#
# Poissons Ratio (x) = 0.19222 0.14580
# Poissons Ratio (y) = 0.22728 0.02019
# Poissons Ratio (z) = 0.18428 0.02158
#
# Static dielectric constant tensor:
#      x y z
#    x 2.004550 0.000000 0.029820 
#    y 0.000000 1.986670 0.000000 
#    z 0.029820 0.000000 1.931640 
# 
# From -- ./inp_files/55911.got.cif
#   From: 2010.05.17/outbox.cif.g08.bks.cpg/sg15_28_cif.got.tgz:55911.got - 2010.06.03 18:47:42.
