data_PCOD9285738
_publ_section_title
;
Structure prediction by ZEFSAII (Michael W. Deem and Ramdas Pophale) SiO2 
 PCOD9285738
Probable space group: C 2/C
;
_chemical_formula_sum "Si O2"
_cell_formula_units_Z 40
_cell_length_a 15.237980
_cell_length_b 13.283633
_cell_length_c 21.916804
_cell_angle_alpha 90.000000
_cell_angle_beta 156.383012
_cell_angle_gamma 90.000000
_cell_volume 1777.276062
_symmetry_space_group_name_H-M "C 2/C"
_symmetry_group_IT_number 15
_symmetry_cell_setting 'monoclinic'
loop_
_space_group_symop_operation_xyz
x,y,z
-x,y,1/2-z
-x,-y,-z
x,-y,1/2+z
1/2+x,1/2+y,z
1/2-x,1/2+y,1/2-z
1/2-x,1/2-y,-z
1/2+x,1/2-y,1/2+z
loop_
_atom_site_type_symbol
_atom_site_label
_atom_site_fract_x
_atom_site_fract_y
_atom_site_fract_z
Si Si1 0.247426 0.046683 0.087862
Si Si2 0.106633 0.153886 0.557427
Si Si3 0.051377 0.958617 0.212208
Si Si4 0.423433 0.147467 0.875456
Si Si5 0.140727 0.161283 0.393228
O O1 0.500000 0.072261 0.250000
O O2 0.108992 0.100734 0.052264
O O3 0.136157 0.078711 0.953594
O O4 0.216828 0.927430 0.082332
O O5 0.018923 0.253296 0.468786
O O6 0.271262 0.170549 0.719529
O O7 0.277573 0.915985 0.329605
O O8 0.000000 0.934552 0.250000
O O9 0.030665 0.079786 0.190952
O O10 0.648079 0.096429 0.994760
O O11 0.250000 0.250000 0.500000
O O12 0.000000 0.211078 0.250000
#
# Coordination Sequence:
#
# PCOD9285738 Si02
#       5
#     8   8   8   8   8
#     4  10  21  42  66  92 128 168 217 269 321 388
#     4  10  23  40  66  95 125 172 214 265 333 385
#     4  10  24  41  62  95 131 172 215 266 333 388
#     4  11  23  42  65  96 134 169 219 274 324 395
#     4  11  23  40  67  96 124 168 217 267 326 385
#
# _framework density 22.506352
#
# number of rings (size 3 to 8) (size 9 to 14) (size 15 to 20)
#    0.000    1.600    0.000    3.600    0.000    8.800 
#    0.000    6.000    0.000    0.000    0.000    0.000 
#    0.000    0.000    0.000    0.000    0.000    0.000 
#
# Total GULP energy -111757.127479 kJ/mol
# GULP energy per Si atom -5587.856374 kJ/mol
# Density = 2.245513 g / cm^3
# Si number density = 22.506352 Si / 1000 Ang^3
#
#
#
# Elastic Constant Matrix: (Units=GPa)
#
#
# Indices 1 2 3 4 5 6 
#
# 1 110.7269 30.4692 54.8540 0.0027 2.5300 0.0005
# 2 30.4692 70.2554 33.7958 -0.0139 10.0978 0.0033
# 3 54.8540 33.7958 156.6011 0.0004 15.6054 0.0014
# 4 0.0027 -0.0139 0.0004 34.4779 0.0010 5.4929
# 5 2.5300 10.0978 15.6054 0.0010 43.4011 -0.0015
# 6 0.0005 0.0033 0.0014 5.4929 -0.0015 31.1769
#
#
#
# Elastic Compliance Matrix: (Units=1/GPa)
#
#
# Indices 1 2 3 4 5 6 
#
# 1 0.011708 -0.003615 -0.003461 -0.000003 0.001403 0.000001
# 2 -0.003615 0.017276 -0.002160 0.000008 -0.003032 -0.000003
# 3 -0.003461 -0.002160 0.008291 -0.000001 -0.002277 0.000000
# 4 -0.000003 0.000008 -0.000001 0.029842 -0.000002 -0.005258
# 5 0.001403 -0.003032 -0.002277 -0.000002 0.024483 0.000002
# 6 0.000001 -0.000003 0.000000 -0.005258 0.000002 0.033001
#
#
# Mechanical properties :
#
#
# Convention : Reuss Voigt Hill
#
# Bulk Modulus (GPa) = 53.17899 63.98014 58.57957
# Shear Modulus (GPa) = 33.48034 36.37547 34.92791
#
# Velocity S-wave (km/s) = 3.86112 4.02460 3.94371
# Velocity P-wave (km/s) = 6.59980 7.07714 6.84263
#
# Compressibility (1/GPa) = 0.01880442
#
# Stress axis : x y z
#
# Youngs Moduli (GPa) = 85.40906 57.88267 120.61291
#
# Poissons Ratio (x) = 0.20922 0.41743
# Poissons Ratio (y) = 0.30872 0.26053
# Poissons Ratio (z) = 0.29559 0.12503
#
# Static dielectric constant tensor:
#      x y z
#    x 1.960230 0.000000 -0.039080 
#    y 0.000000 1.857730 -0.000010 
#    z -0.039080 -0.000010 1.813660 
# 
# From -- ./inp_files/277595.got.cif
#   From: 2010.05.17/outbox.cif.g08.bks.cpg/sg15_139_cif.got.tgz:277595.got - 2010.06.03 18:47:42.
