data_PCOD9285005
_publ_section_title
;
Structure prediction by ZEFSAII (Michael W. Deem and Ramdas Pophale) SiO2 
 PCOD9285005
Probable space group: C 2/C
;
_chemical_formula_sum "Si O2"
_cell_formula_units_Z 40
_cell_length_a 7.575975
_cell_length_b 24.492350
_cell_length_c 8.254930
_cell_angle_alpha 90.000000
_cell_angle_beta 90.417024
_cell_angle_gamma 90.000000
_cell_volume 1531.690014
_symmetry_space_group_name_H-M "C 2/C"
_symmetry_group_IT_number 15
_symmetry_cell_setting 'monoclinic'
loop_
_space_group_symop_operation_xyz
x,y,z
-x,y,1/2-z
-x,-y,-z
x,-y,1/2+z
1/2+x,1/2+y,z
1/2-x,1/2+y,1/2-z
1/2-x,1/2-y,-z
1/2+x,1/2-y,1/2+z
loop_
_atom_site_type_symbol
_atom_site_label
_atom_site_fract_x
_atom_site_fract_y
_atom_site_fract_z
Si Si1 0.297319 0.277700 0.821101
Si Si2 0.680347 0.011548 0.311276
Si Si3 0.231467 0.888356 0.530456
Si Si4 0.165052 0.921515 0.983210
Si Si5 0.705748 0.830500 0.300171
O O1 0.500000 0.285135 0.750000
O O2 0.221372 0.231342 0.700078
O O3 0.250000 0.250000 0.000000
O O4 0.224853 0.338432 0.848611
O O5 0.500000 0.985423 0.250000
O O6 0.648102 0.058554 0.446505
O O7 0.812052 0.965647 0.373299
O O8 0.750235 0.047931 0.165998
O O9 0.218757 0.863687 0.351155
O O10 0.034930 0.909251 0.558950
O O11 0.257063 0.865554 0.041423
O O12 0.500000 0.826586 0.250000
#
# Coordination Sequence:
#
# PCOD9285005 Si02
#       5
#     8   8   8   8   8
#     4   9  19  38  63  92 130 170 217 271 328 392
#     4  12  25  42  64  94 131 173 217 270 330 397
#     4  11  23  42  65  96 131 170 220 274 329 391
#     4  12  24  41  65  95 130 171 219 271 328 391
#     4  10  21  41  66  93 128 172 217 270 328 393
#
# _framework density 26.114946
#
# number of rings (size 3 to 8) (size 9 to 14) (size 15 to 20)
#    0.000    1.200    0.000    6.600    0.000    1.600 
#    0.000   15.000    0.000    0.000    0.000    0.000 
#    0.000    0.000    0.000    0.000    0.000    0.000 
#
# Total GULP energy -111877.294807 kJ/mol
# GULP energy per Si atom -5593.864740 kJ/mol
# Density = 2.605551 g / cm^3
# Si number density = 26.114946 Si / 1000 Ang^3
#
#
#
# Elastic Constant Matrix: (Units=GPa)
#
#
# Indices 1 2 3 4 5 6 
#
# 1 69.7363 6.5363 24.5554 0.0000 0.1496 0.0000
# 2 6.5363 187.9290 49.7170 0.0000 17.9434 0.0000
# 3 24.5554 49.7170 113.0328 0.0000 -10.9316 0.0000
# 4 0.0000 0.0000 0.0000 35.3591 0.0000 -7.4307
# 5 0.1496 17.9434 -10.9316 0.0000 43.1860 0.0000
# 6 0.0000 0.0000 0.0000 -7.4307 0.0000 25.3960
#
#
#
# Elastic Compliance Matrix: (Units=1/GPa)
#
#
# Indices 1 2 3 4 5 6 
#
# 1 0.015614 0.000571 -0.003764 0.000000 -0.001244 0.000000
# 2 0.000571 0.006524 -0.003338 0.000000 -0.003557 0.000000
# 3 -0.003764 -0.003338 0.011551 0.000000 0.004324 0.000000
# 4 0.000000 0.000000 0.000000 0.030134 0.000000 0.008817
# 5 -0.001244 -0.003557 0.004324 0.000000 0.025733 0.000000
# 6 0.000000 0.000000 0.000000 0.008817 0.000000 0.041956
#
#
# Mechanical properties :
#
#
# Convention : Reuss Voigt Hill
#
# Bulk Modulus (GPa) = 48.47564 59.14617 53.81090
# Shear Modulus (GPa) = 33.01462 40.11418 36.56440
#
# Velocity S-wave (km/s) = 3.55942 3.92351 3.74589
# Velocity P-wave (km/s) = 5.95780 6.57441 6.27368
#
# Compressibility (1/GPa) = 0.02062892
#
# Stress axis : x y z
#
# Youngs Moduli (GPa) = 64.04464 153.28135 86.57372
#
# Poissons Ratio (x) = -0.08759 0.32584
# Poissons Ratio (y) = -0.03660 0.28896
# Poissons Ratio (z) = 0.24104 0.51161
#
# Static dielectric constant tensor:
#      x y z
#    x 2.109290 0.000000 -0.076400 
#    y 0.000000 2.067730 0.000000 
#    z -0.076400 0.000000 2.185080 
# 
# From -- ./inp_files/23620.got.cif
#   From: 2010.05.17/outbox.cif.g08.bks.cpg/sg15_12_cif.got.tgz:23620.got - 2010.06.03 18:47:42.
