data_PCOD9285651
_publ_section_title
;
Structure prediction by ZEFSAII (Michael W. Deem and Ramdas Pophale) SiO2 
 PCOD9285651
Probable space group: C 2/C
;
_chemical_formula_sum "Si O2"
_cell_formula_units_Z 48
_cell_length_a 8.537546
_cell_length_b 28.783842
_cell_length_c 14.193729
_cell_angle_alpha 90.000000
_cell_angle_beta 135.695791
_cell_angle_gamma 90.000000
_cell_volume 2436.266278
_symmetry_space_group_name_H-M "C 2/C"
_symmetry_group_IT_number 15
_symmetry_cell_setting 'monoclinic'
loop_
_space_group_symop_operation_xyz
x,y,z
-x,y,1/2-z
-x,-y,-z
x,-y,1/2+z
1/2+x,1/2+y,z
1/2-x,1/2+y,1/2-z
1/2-x,1/2-y,-z
1/2+x,1/2-y,1/2+z
loop_
_atom_site_type_symbol
_atom_site_label
_atom_site_fract_x
_atom_site_fract_y
_atom_site_fract_z
Si Si1 0.429088 0.783767 0.618366
Si Si2 0.556510 0.032378 0.612546
Si Si3 0.759671 0.894112 0.597554
Si Si4 0.000000 0.538844 0.250000
Si Si5 0.278367 0.287112 0.596871
Si Si6 0.500000 0.587662 0.750000
Si Si7 0.826244 0.385333 0.548179
O O1 0.500000 0.764623 0.750000
O O2 0.250000 0.750000 0.500000
O O3 0.599954 0.786899 0.604982
O O4 0.336569 0.835196 0.598912
O O5 0.349290 0.069515 0.524015
O O6 0.791618 0.058081 0.698950
O O7 0.500000 0.000000 0.500000
O O8 0.587690 0.996552 0.710121
O O9 0.786804 0.841566 0.568796
O O10 0.560456 0.892446 0.590870
O O11 0.000000 0.906595 0.750000
O O12 0.176027 0.573255 0.377004
O O13 0.500000 0.275357 0.750000
O O14 0.250000 0.250000 0.500000
O O15 0.380598 0.614523 0.613198
#
# Coordination Sequence:
#
# PCOD9285651 Si02
#       7
#     8   8   8   4   8   4   8
#     4  11  23  40  66  97 126 166 218 264 324 391
#     4  11  23  40  62  92 128 165 215 264 315 379
#     4   9  20  41  66  87 125 170 210 260 321 381
#     4  12  22  42  61  92 126 169 214 260 316 378
#     4  10  21  42  65  91 127 167 210 267 328 383
#     4  10  22  44  61  90 130 169 204 270 316 370
#     4  10  22  41  64  91 129 165 212 262 321 384
#
# _framework density 19.702279999999998
#
# number of rings (size 3 to 8) (size 9 to 14) (size 15 to 20)
#    0.000    1.667    4.167    1.000    2.333    0.667 
#    7.500    0.000    0.000    0.000    0.000    0.000 
#    0.000    0.000    0.000    0.000    0.000    0.000 
#
# Total GULP energy -133701.095139 kJ/mol
# GULP energy per Si atom -5570.878964 kJ/mol
# Density = 1.965744 g / cm^3
# Si number density = 19.702280 Si / 1000 Ang^3
#
#
#
# Elastic Constant Matrix: (Units=GPa)
#
#
# Indices 1 2 3 4 5 6 
#
# 1 36.5206 26.2835 37.9318 0.0000 -3.4803 0.0000
# 2 26.2835 115.7359 69.5252 0.0000 -6.9017 0.0000
# 3 37.9318 69.5252 166.6650 0.0000 3.1124 0.0000
# 4 0.0000 0.0000 0.0000 33.3477 0.0000 -9.3426
# 5 -3.4803 -6.9017 3.1124 0.0000 40.3290 0.0000
# 6 0.0000 0.0000 0.0000 -9.3426 0.0000 23.1246
#
#
#
# Elastic Compliance Matrix: (Units=1/GPa)
#
#
# Indices 1 2 3 4 5 6 
#
# 1 0.037926 -0.004283 -0.006902 0.000000 0.003073 0.000000
# 2 -0.004283 0.012240 -0.004169 0.000000 0.002047 0.000000
# 3 -0.006902 -0.004169 0.009348 0.000000 -0.002031 0.000000
# 4 0.000000 0.000000 0.000000 0.033814 0.000000 0.013661
# 5 0.003073 0.002047 -0.002031 0.000000 0.025568 0.000000
# 6 0.000000 0.000000 0.000000 0.013661 0.000000 0.048763
#
#
# Mechanical properties :
#
#
# Convention : Reuss Voigt Hill
#
# Bulk Modulus (GPa) = 34.71698 65.15582 49.93640
# Shear Modulus (GPa) = 24.04175 31.70567 27.87371
#
# Velocity S-wave (km/s) = 3.49700 4.01588 3.76539
# Velocity P-wave (km/s) = 5.82790 7.39223 6.65618
#
# Compressibility (1/GPa) = 0.02880435
#
# Stress axis : x y z
#
# Youngs Moduli (GPa) = 26.36685 81.70126 106.97356
#
# Poissons Ratio (x) = 0.34996 0.73836
# Poissons Ratio (y) = 0.11294 0.44599
# Poissons Ratio (z) = 0.18199 0.34063
#
# Static dielectric constant tensor:
#      x y z
#    x 1.601410 0.000000 0.055700 
#    y 0.000000 1.721140 0.000000 
#    z 0.055700 0.000000 1.613800 
# 
# From -- ./inp_files/139666.got.cif
#   From: 2010.05.17/outbox.cif.g08.bks.cpg/sg15_70_cif.got.tgz:139666.got - 2010.06.03 18:47:42.
