data_PCOD9285792
_publ_section_title
;
Structure prediction by ZEFSAII (Michael W. Deem and Ramdas Pophale) SiO2 
 PCOD9285792
Probable space group: C 2/C
;
_chemical_formula_sum "Si O2"
_cell_formula_units_Z 28
_cell_length_a 7.298769
_cell_length_b 19.162109
_cell_length_c 9.517438
_cell_angle_alpha 90.000000
_cell_angle_beta 73.894232
_cell_angle_gamma 90.000000
_cell_volume 1278.862731
_symmetry_space_group_name_H-M "C 2/C"
_symmetry_group_IT_number 15
_symmetry_cell_setting 'monoclinic'
loop_
_space_group_symop_operation_xyz
x,y,z
-x,y,1/2-z
-x,-y,-z
x,-y,1/2+z
1/2+x,1/2+y,z
1/2-x,1/2+y,1/2-z
1/2-x,1/2-y,-z
1/2+x,1/2-y,1/2+z
loop_
_atom_site_type_symbol
_atom_site_label
_atom_site_fract_x
_atom_site_fract_y
_atom_site_fract_z
Si Si1 0.581704 0.437217 0.076337
Si Si2 0.025682 0.594087 0.900512
Si Si3 0.500000 0.772376 0.250000
Si Si4 0.625876 0.638819 0.098011
O O1 0.500000 0.438880 0.250000
O O2 0.809098 0.438785 0.042700
O O3 0.500000 0.500000 0.000000
O O4 0.502526 0.369030 0.013152
O O5 0.000000 0.560293 0.750000
O O6 0.087514 0.673361 0.842585
O O7 0.826400 0.603646 0.021977
O O8 0.644400 0.718378 0.146936
O O9 0.500000 0.605028 0.250000
#
# Coordination Sequence:
#
# PCOD9285792 Si02
#       4
#     8   8   4   8
#     4  12  25  44  68  96 135 185 232 286 337 404
#     4  10  21  42  67 100 141 180 219 283 348 397
#     4   8  20  40  70 104 146 172 230 272 350 414
#     4  10  22  42  66 105 142 175 228 279 340 415
#
# _framework density 21.894451
#
# number of rings (size 3 to 8) (size 9 to 14) (size 15 to 20)
#    1.714    0.000    2.857    1.714    0.000    3.429 
#    0.000    2.857    0.000    0.000    0.000    0.000 
#    0.000    0.000    0.000    0.000    0.000    0.000 
#
# Total GULP energy -78037.775489 kJ/mol
# GULP energy per Si atom -5574.126821 kJ/mol
# Density = 2.184462 g / cm^3
# Si number density = 21.894451 Si / 1000 Ang^3
#
#
#
# Elastic Constant Matrix: (Units=GPa)
#
#
# Indices 1 2 3 4 5 6 
#
# 1 177.6005 25.6716 65.2017 0.0000 -0.7627 0.0000
# 2 25.6716 81.1430 23.1359 0.0000 13.2103 0.0000
# 3 65.2017 23.1359 168.9952 0.0000 -5.8206 0.0000
# 4 0.0000 0.0000 0.0000 -4.8153 0.0000 4.4875
# 5 -0.7627 13.2103 -5.8206 0.0000 28.7512 0.0000
# 6 0.0000 0.0000 0.0000 4.4875 0.0000 23.6181
#
#
#
# Elastic Compliance Matrix: (Units=1/GPa)
#
#
# Indices 1 2 3 4 5 6 
#
# 1 0.006722 -0.001514 -0.002373 0.000000 0.000394 0.000000
# 2 -0.001514 0.014405 -0.001629 0.000000 -0.006989 0.000000
# 3 -0.002373 -0.001629 0.007129 0.000000 0.002129 0.000000
# 4 0.000000 0.000000 0.000000 -0.176433 0.000000 0.033523
# 5 0.000394 -0.006989 0.002129 0.000000 0.038434 0.000000
# 6 0.000000 0.000000 0.000000 0.033523 0.000000 0.035971
#
#
# Mechanical properties :
#
#
# Convention : Reuss Voigt Hill
#
# Bulk Modulus (GPa) = 58.05432 72.86189 65.45811
# Shear Modulus (GPa) = -87.72167 30.42610 -28.64778
#
# Velocity S-wave (km/s) = -6.33661 3.73187 -3.62117
# Velocity P-wave (km/s) = 5.19267 7.20556 3.53244
#
# Compressibility (1/GPa) = 0.01722525
#
# Stress axis : x y z
#
# Youngs Moduli (GPa) = 148.75897 69.41968 140.27157
#
# Poissons Ratio (x) = 0.10513 0.33282
# Poissons Ratio (y) = 0.22527 0.22844
# Poissons Ratio (z) = 0.35296 0.11305
#
# Static dielectric constant tensor:
#      x y z
#    x 1.779510 0.000000 -0.025120 
#    y 0.000000 1.895340 0.000000 
#    z -0.025120 0.000000 1.840730 
# 
# From -- ./inp_files/72804.got.cif
#   From: 2010.05.17/outbox.cif.g08.bks.cpg/sg15_37_cif.got.tgz:72804.got - 2010.06.03 18:47:42.
