data_PCOD9285670
_publ_section_title
;
Structure prediction by ZEFSAII (Michael W. Deem and Ramdas Pophale) SiO2 
 PCOD9285670
Probable space group: C 2/C
;
_chemical_formula_sum "Si O2"
_cell_formula_units_Z 56
_cell_length_a 17.385903
_cell_length_b 11.390401
_cell_length_c 16.435206
_cell_angle_alpha 90.000000
_cell_angle_beta 47.221376
_cell_angle_gamma 90.000000
_cell_volume 2388.897945
_symmetry_space_group_name_H-M "C 2/C"
_symmetry_group_IT_number 15
_symmetry_cell_setting 'monoclinic'
loop_
_space_group_symop_operation_xyz
x,y,z
-x,y,1/2-z
-x,-y,-z
x,-y,1/2+z
1/2+x,1/2+y,z
1/2-x,1/2+y,1/2-z
1/2-x,1/2-y,-z
1/2+x,1/2-y,1/2+z
loop_
_atom_site_type_symbol
_atom_site_label
_atom_site_fract_x
_atom_site_fract_y
_atom_site_fract_z
Si Si1 0.440407 0.863859 0.082515
Si Si2 0.010336 0.969730 0.154861
Si Si3 0.825417 0.395075 0.889326
Si Si4 0.211944 0.881839 0.546624
Si Si5 0.349339 0.647161 0.082775
Si Si6 0.504361 0.069364 0.369192
Si Si7 0.269725 0.484903 0.790371
O O1 0.412721 0.729028 0.099147
O O2 0.491320 0.928117 0.122632
O O3 0.327239 0.925098 0.146120
O O4 0.518204 0.885267 0.950617
O O5 0.000000 0.904360 0.250000
O O6 0.088084 0.081480 0.121641
O O7 0.068120 0.913184 0.036334
O O8 0.889542 0.974333 0.215824
O O9 0.737171 0.307425 0.920268
O O10 0.910549 0.400095 0.757336
O O11 0.895586 0.376985 0.918119
O O12 0.770446 0.520781 0.948243
O O13 0.250000 0.750000 0.500000
O O14 0.242964 0.907772 0.618492
O O15 0.278045 0.572659 0.195514
#
# Coordination Sequence:
#
# PCOD9285670 Si02
#       7
#     8   8   8   8   8   8   8
#     4  11  24  42  65  97 132 172 223 282 341 396
#     4   9  22  45  62  92 136 170 222 279 338 407
#     4  10  21  42  65  94 133 171 222 276 334 404
#     4  10  22  40  67  97 125 176 221 276 337 412
#     4  11  24  40  69  99 125 182 223 273 348 409
#     4  10  22  43  62  90 139 169 216 284 329 397
#     4  11  22  44  61  94 137 169 215 292 329 408
#
# _framework density 23.441772
#
# number of rings (size 3 to 8) (size 9 to 14) (size 15 to 20)
#    0.000    1.714    2.857    0.429    2.000    2.857 
#    7.714    0.000    0.000    0.000    0.000    0.000 
#    0.000    0.000    0.000    0.000    0.000    0.000 
#
# Total GULP energy -155916.826201 kJ/mol
# GULP energy per Si atom -5568.458079 kJ/mol
# Density = 2.338842 g / cm^3
# Si number density = 23.441772 Si / 1000 Ang^3
#
#
#
# Elastic Constant Matrix: (Units=GPa)
#
#
# Indices 1 2 3 4 5 6 
#
# 1 115.4926 3.6718 17.9311 0.0000 -8.9242 0.0000
# 2 3.6718 44.5135 44.9293 0.0000 -0.2642 0.0000
# 3 17.9311 44.9293 148.9561 0.0000 -4.1835 0.0000
# 4 0.0000 0.0000 0.0000 4.2354 0.0000 -13.3533
# 5 -8.9242 -0.2642 -4.1835 0.0000 32.9975 0.0000
# 6 0.0000 0.0000 0.0000 -13.3533 0.0000 11.2618
#
#
#
# Elastic Compliance Matrix: (Units=1/GPa)
#
#
# Indices 1 2 3 4 5 6 
#
# 1 0.009000 0.000431 -0.001149 0.000000 0.002292 0.000000
# 2 0.000431 0.032350 -0.009834 0.000000 -0.000871 0.000000
# 3 -0.001149 -0.009834 0.009842 0.000000 0.000858 0.000000
# 4 0.000000 0.000000 0.000000 -0.086224 0.000000 -0.102236
# 5 0.002292 -0.000871 0.000858 0.000000 0.031027 0.000000
# 6 0.000000 0.000000 0.000000 -0.102236 0.000000 -0.032427
#
#
# Mechanical properties :
#
#
# Convention : Reuss Voigt Hill
#
# Bulk Modulus (GPa) = 33.23544 49.11406 41.17475
# Shear Modulus (GPa) = -943.91391 25.86094 -459.02648
#
# Velocity S-wave (km/s) = -20.08824 3.32505 -14.00859
# Velocity P-wave (km/s) = 22.88758 5.97815 15.62215
#
# Compressibility (1/GPa) = 0.03008836
#
# Stress axis : x y z
#
# Youngs Moduli (GPa) = 111.10667 30.91161 101.60480
#
# Poissons Ratio (x) = -0.01332 0.11675
# Poissons Ratio (y) = -0.04789 0.99919
# Poissons Ratio (z) = 0.12767 0.30399
#
# Static dielectric constant tensor:
#      x y z
#    x 2.018920 0.000000 -0.002430 
#    y 0.000000 2.008800 0.000000 
#    z -0.002430 0.000000 1.859950 
# 
# From -- ./inp_files/210551.got.cif
#   From: 2010.05.17/outbox.cif.g08.bks.cpg/sg15_106_cif.got.tgz:210551.got - 2010.06.03 18:47:42.
