data_PCOD9285275
_publ_section_title
;
Structure prediction by ZEFSAII (Michael W. Deem and Ramdas Pophale) SiO2 
 PCOD9285275
Probable space group: C 2/C
;
_chemical_formula_sum "Si O2"
_cell_formula_units_Z 40
_cell_length_a 16.413668
_cell_length_b 23.960122
_cell_length_c 8.041881
_cell_angle_alpha 90.000000
_cell_angle_beta 35.136221
_cell_angle_gamma 90.000000
_cell_volume 1820.180708
_symmetry_space_group_name_H-M "C 2/C"
_symmetry_group_IT_number 15
_symmetry_cell_setting 'monoclinic'
loop_
_space_group_symop_operation_xyz
x,y,z
-x,y,1/2-z
-x,-y,-z
x,-y,1/2+z
1/2+x,1/2+y,z
1/2-x,1/2+y,1/2-z
1/2-x,1/2-y,-z
1/2+x,1/2-y,1/2+z
loop_
_atom_site_type_symbol
_atom_site_label
_atom_site_fract_x
_atom_site_fract_y
_atom_site_fract_z
Si Si1 0.813154 0.936941 0.904252
Si Si2 0.208712 0.659894 0.127238
Si Si3 0.339412 0.757901 0.082758
Si Si4 0.141791 0.938577 0.278139
Si Si5 0.909286 0.659567 0.743005
O O1 0.814766 0.930823 0.101897
O O2 0.695818 0.891845 0.044920
O O3 0.972109 0.929327 0.567384
O O4 0.796355 0.001666 0.882267
O O5 0.262192 0.698927 0.189119
O O6 0.044198 0.642181 0.402879
O O7 0.231621 0.698972 0.927487
O O8 0.299747 0.605712 0.948587
O O9 0.341452 0.789463 0.254630
O O10 0.500000 0.749554 0.750000
O O11 0.000000 0.678095 0.750000
#
# Coordination Sequence:
#
# PCOD9285275 Si02
#       5
#     8   8   8   8   8
#     4  10  23  43  66 101 136 175 226 281 336 408
#     4  10  21  41  69  93 128 181 224 278 337 403
#     4   9  20  42  66  92 128 180 231 272 336 405
#     4  10  22  43  70  97 133 178 228 278 338 410
#     4  11  24  41  64 102 141 173 226 287 340 400
#
# _framework density 21.975839000000001
#
# number of rings (size 3 to 8) (size 9 to 14) (size 15 to 20)
#    0.000    2.000    2.000    0.000    2.800    3.200 
#    3.600    4.000    0.000    0.000    0.000    0.000 
#    0.000    0.000    0.000    0.000    0.000    0.000 
#
# Total GULP energy -111566.082704 kJ/mol
# GULP energy per Si atom -5578.304135 kJ/mol
# Density = 2.192582 g / cm^3
# Si number density = 21.975839 Si / 1000 Ang^3
#
#
#
# Elastic Constant Matrix: (Units=GPa)
#
#
# Indices 1 2 3 4 5 6 
#
# 1 110.5967 68.3402 21.8619 0.0001 2.2634 -0.0002
# 2 68.3402 133.5143 84.5811 -0.0001 -0.8846 0.0001
# 3 21.8619 84.5811 71.9164 0.0003 1.2858 -0.0003
# 4 0.0001 -0.0001 0.0003 44.4103 -0.0001 0.5171
# 5 2.2634 -0.8846 1.2858 -0.0001 16.6759 0.0001
# 6 -0.0002 0.0001 -0.0003 0.5171 0.0001 35.9086
#
#
#
# Elastic Compliance Matrix: (Units=1/GPa)
#
#
# Indices 1 2 3 4 5 6 
#
# 1 0.020357 -0.025918 0.024402 0.000000 -0.006019 0.000000
# 2 -0.025918 0.062678 -0.066050 0.000001 0.011936 -0.000001
# 3 0.024402 -0.066050 0.084408 -0.000001 -0.013324 0.000001
# 4 0.000000 0.000001 -0.000001 0.022521 0.000000 -0.000324
# 5 -0.006019 0.011936 -0.013324 0.000000 0.062444 0.000000
# 6 0.000000 -0.000001 0.000001 -0.000324 0.000000 0.027853
#
#
# Mechanical properties :
#
#
# Convention : Reuss Voigt Hill
#
# Bulk Modulus (GPa) = 30.95130 73.95485 52.45307
# Shear Modulus (GPa) = 11.73256 28.81525 20.27390
#
# Velocity S-wave (km/s) = 2.31310 3.62501 3.04065
# Velocity P-wave (km/s) = 4.60963 7.15869 6.02061
#
# Compressibility (1/GPa) = 0.03230882
#
# Stress axis : x y z
#
# Youngs Moduli (GPa) = 49.12333 15.95452 11.84728
#
# Poissons Ratio (x) = 0.41351 -0.28909
# Poissons Ratio (y) = 1.27319 0.78252
# Poissons Ratio (z) = -1.19870 1.05380
#
# Static dielectric constant tensor:
#      x y z
#    x 1.853350 0.000000 0.050890 
#    y 0.000000 1.783340 0.000000 
#    z 0.050890 0.000000 1.853680 
# 
# From -- ./inp_files/52104.got.cif
#   From: 2010.05.17/outbox.cif.g08.bks.cpg/sg15_27_cif.got.tgz:52104.got - 2010.06.03 18:47:42.
