data_PCOD9285266
_publ_section_title
;
Structure prediction by ZEFSAII (Michael W. Deem and Ramdas Pophale) SiO2 
 PCOD9285266
Probable space group: C 2/C
;
_chemical_formula_sum "Si O2"
_cell_formula_units_Z 60
_cell_length_a 7.724839
_cell_length_b 26.740957
_cell_length_c 12.683811
_cell_angle_alpha 90.000000
_cell_angle_beta 94.285429
_cell_angle_gamma 90.000000
_cell_volume 2612.764280
_symmetry_space_group_name_H-M "C 2/C"
_symmetry_group_IT_number 15
_symmetry_cell_setting 'monoclinic'
loop_
_space_group_symop_operation_xyz
x,y,z
-x,y,1/2-z
-x,-y,-z
x,-y,1/2+z
1/2+x,1/2+y,z
1/2-x,1/2+y,1/2-z
1/2-x,1/2-y,-z
1/2+x,1/2-y,1/2+z
loop_
_atom_site_type_symbol
_atom_site_label
_atom_site_fract_x
_atom_site_fract_y
_atom_site_fract_z
Si Si1 0.411692 0.604105 0.859020
Si Si2 0.350378 0.354355 0.627082
Si Si3 0.672950 0.501859 0.080546
Si Si4 0.170134 0.319127 0.826922
Si Si5 0.902256 0.349933 0.070859
Si Si6 0.782349 0.399556 0.486576
Si Si7 0.500000 0.442948 0.750000
Si Si8 0.454774 0.254578 0.871281
O O1 0.500000 0.596030 0.750000
O O2 0.300063 0.556556 0.895887
O O3 0.261741 0.646182 0.856807
O O4 0.584553 0.610830 0.939041
O O5 0.300492 0.338744 0.742872
O O6 0.188441 0.362057 0.544429
O O7 0.435908 0.407767 0.652151
O O8 0.452166 0.306013 0.588632
O O9 0.791393 0.542853 0.026675
O O10 0.639870 0.523565 0.196696
O O11 0.500000 0.500000 0.000000
O O12 0.174705 0.361646 0.915608
O O13 0.251560 0.267449 0.871895
O O14 0.000000 0.311590 0.750000
O O15 0.975694 0.293873 0.068173
O O16 0.070222 0.385460 0.092367
O O17 0.500000 0.245665 0.750000
#
# Coordination Sequence:
#
# PCOD9285266 Si02
#       8
#     8   8   8   8   8   8   4   8
#     4  11  26  47  69  99 139 192 237 280 355 433
#     4  11  20  39  69 100 135 180 233 285 350 410
#     4  10  21  41  69 104 134 179 231 286 360 418
#     4  11  20  41  66 105 142 174 233 291 350 419
#     4  12  26  43  70  99 143 185 235 292 350 415
#     4  11  24  43  73 106 140 177 236 295 351 422
#     4  12  18  38  76  98 142 186 230 298 348 418
#     4  10  23  42  64  95 141 185 230 290 345 418
#
# _framework density 22.964182999999998
#
# number of rings (size 3 to 8) (size 9 to 14) (size 15 to 20)
#    0.000    1.067    5.333    2.800    1.867    1.067 
#    4.800    0.000    5.867    0.000    0.000    0.000 
#    0.000    0.000    0.000    0.000    0.000    0.000 
#
# Total GULP energy -167318.781538 kJ/mol
# GULP energy per Si atom -5577.292718 kJ/mol
# Density = 2.291192 g / cm^3
# Si number density = 22.964183 Si / 1000 Ang^3
#
#
#
# Elastic Constant Matrix: (Units=GPa)
#
#
# Indices 1 2 3 4 5 6 
#
# 1 123.6718 54.7872 16.8263 0.0000 11.2792 0.0000
# 2 54.7872 103.7837 30.0735 0.0000 17.4845 0.0000
# 3 16.8263 30.0735 74.3589 0.0000 4.5901 0.0000
# 4 0.0000 0.0000 0.0000 14.8859 0.0000 -0.6450
# 5 11.2792 17.4845 4.5901 0.0000 33.7232 0.0000
# 6 0.0000 0.0000 0.0000 -0.6450 0.0000 23.0017
#
#
#
# Elastic Compliance Matrix: (Units=1/GPa)
#
#
# Indices 1 2 3 4 5 6 
#
# 1 0.010571 -0.005416 -0.000158 0.000000 -0.000706 0.000000
# 2 -0.005416 0.014634 -0.004373 0.000000 -0.005181 0.000000
# 3 -0.000158 -0.004373 0.015238 0.000000 0.000246 0.000000
# 4 0.000000 0.000000 0.000000 0.067259 0.000000 0.001886
# 5 -0.000706 -0.005181 0.000246 0.000000 0.032542 0.000000
# 6 0.000000 0.000000 0.000000 0.001886 0.000000 0.043528
#
#
# Mechanical properties :
#
#
# Convention : Reuss Voigt Hill
#
# Bulk Modulus (GPa) = 48.66497 56.13206 52.39851
# Shear Modulus (GPa) = 23.75114 27.66399 25.70757
#
# Velocity S-wave (km/s) = 3.21949 3.47458 3.34947
# Velocity P-wave (km/s) = 5.92097 6.37129 6.15025
#
# Compressibility (1/GPa) = 0.02054866
#
# Stress axis : x y z
#
# Youngs Moduli (GPa) = 94.59862 68.33203 65.62687
#
# Poissons Ratio (x) = 0.37006 0.01038
# Poissons Ratio (y) = 0.51231 0.28701
# Poissons Ratio (z) = 0.01496 0.29885
#
# Static dielectric constant tensor:
#      x y z
#    x 1.993170 0.000000 -0.025340 
#    y 0.000000 1.891460 0.000000 
#    z -0.025340 0.000000 1.891580 
# 
# From -- ./inp_files/137405.got.cif
#   From: 2010.05.17/outbox.cif.g08.bks.cpg/sg15_69_cif.got.tgz:137405.got - 2010.06.03 18:47:42.
