data_PCOD9285404
_publ_section_title
;
Structure prediction by ZEFSAII (Michael W. Deem and Ramdas Pophale) SiO2 
 PCOD9285404
Probable space group: C 2/C
;
_chemical_formula_sum "Si O2"
_cell_formula_units_Z 36
_cell_length_a 9.535465
_cell_length_b 16.034698
_cell_length_c 14.118140
_cell_angle_alpha 90.000000
_cell_angle_beta 131.759074
_cell_angle_gamma 90.000000
_cell_volume 1610.241351
_symmetry_space_group_name_H-M "C 2/C"
_symmetry_group_IT_number 15
_symmetry_cell_setting 'monoclinic'
loop_
_space_group_symop_operation_xyz
x,y,z
-x,y,1/2-z
-x,-y,-z
x,-y,1/2+z
1/2+x,1/2+y,z
1/2-x,1/2+y,1/2-z
1/2-x,1/2-y,-z
1/2+x,1/2-y,1/2+z
loop_
_atom_site_type_symbol
_atom_site_label
_atom_site_fract_x
_atom_site_fract_y
_atom_site_fract_z
Si Si1 0.141092 0.278740 0.181780
Si Si2 0.846158 0.333048 0.500119
Si Si3 0.500000 0.083150 0.750000
Si Si4 0.500000 0.368015 0.750000
Si Si5 0.500000 0.796325 0.750000
Si Si6 0.311317 0.010093 0.478486
O O1 0.135458 0.353660 0.252800
O O2 0.070096 0.195080 0.198929
O O3 0.340072 0.263148 0.221512
O O4 0.032818 0.307970 0.037515
O O5 0.750000 0.250000 0.500000
O O6 0.968615 0.355740 0.646654
O O7 0.725592 0.416249 0.433556
O O8 0.378130 0.036967 0.614237
O O9 0.335065 0.425377 0.632977
O O10 0.500000 0.000000 0.500000
#
# Coordination Sequence:
#
# PCOD9285404 Si02
#       6
#     8   8   4   4   4   8
#     4  10  23  43  72 106 144 196 245 296 375 441
#     4  10  22  43  68  98 141 192 237 298 364 438
#     4  11  25  44  77 105 148 192 245 309 368 437
#     4  11  28  45  78 110 148 194 249 308 369 444
#     4  10  21  41  73  99 146 190 246 297 361 441
#     4  12  25  48  72 110 153 186 247 312 368 430
#
# _framework density 22.356898000000001
#
# number of rings (size 3 to 8) (size 9 to 14) (size 15 to 20)
#    0.000    1.333    2.222    2.000    3.111    7.111 
#    0.000    5.556    0.000    0.000    0.000    0.000 
#    0.000    0.000    0.000    0.000    0.000    0.000 
#
# Total GULP energy -100249.600765 kJ/mol
# GULP energy per Si atom -5569.422265 kJ/mol
# Density = 2.230601 g / cm^3
# Si number density = 22.356898 Si / 1000 Ang^3
#
#
#
# Elastic Constant Matrix: (Units=GPa)
#
#
# Indices 1 2 3 4 5 6 
#
# 1 134.1046 67.1995 59.9712 0.0000 -27.1507 0.0000
# 2 67.1995 204.9049 82.9663 0.0000 -15.4829 0.0000
# 3 59.9712 82.9663 151.5181 0.0000 -39.3191 0.0000
# 4 0.0000 0.0000 0.0000 30.2210 0.0000 -2.2849
# 5 -27.1507 -15.4829 -39.3191 0.0000 47.8440 0.0000
# 6 0.0000 0.0000 0.0000 -2.2849 0.0000 19.7847
#
#
#
# Elastic Compliance Matrix: (Units=1/GPa)
#
#
# Indices 1 2 3 4 5 6 
#
# 1 0.010150 -0.002320 -0.001840 0.000000 0.003497 0.000000
# 2 -0.002320 0.006839 -0.003297 0.000000 -0.001813 0.000000
# 3 -0.001840 -0.003297 0.010913 0.000000 0.006858 0.000000
# 4 0.000000 0.000000 0.000000 0.033381 0.000000 0.003855
# 5 0.003497 -0.001813 0.006858 0.000000 0.027935 0.000000
# 6 0.000000 0.000000 0.000000 0.003855 0.000000 0.050989
#
#
# Mechanical properties :
#
#
# Convention : Reuss Voigt Hill
#
# Bulk Modulus (GPa) = 76.98719 101.20018 89.09368
# Shear Modulus (GPa) = 31.35780 38.26265 34.81022
#
# Velocity S-wave (km/s) = 3.74919 4.14145 3.95020
# Velocity P-wave (km/s) = 7.29741 8.26032 7.79375
#
# Compressibility (1/GPa) = 0.01298917
#
# Stress axis : x y z
#
# Youngs Moduli (GPa) = 98.52231 146.21835 91.63395
#
# Poissons Ratio (x) = 0.33916 0.16858
# Poissons Ratio (y) = 0.22853 0.30213
# Poissons Ratio (z) = 0.18125 0.48211
#
# Static dielectric constant tensor:
#      x y z
#    x 1.814980 0.000000 0.130770 
#    y 0.000000 2.020730 0.000000 
#    z 0.130770 0.000000 2.551980 
# 
# From -- ./inp_files/143191.got.cif
#   From: 2010.05.17/outbox.cif.g08.bks.cpg/sg15_72_cif.got.tgz:143191.got - 2010.06.03 18:47:42.
