data_PCOD9285795
_publ_section_title
;
Structure prediction by ZEFSAII (Michael W. Deem and Ramdas Pophale) SiO2 
 PCOD9285795
Probable space group: C 2/C
;
_chemical_formula_sum "Si O2"
_cell_formula_units_Z 40
_cell_length_a 9.309958
_cell_length_b 13.423495
_cell_length_c 13.865920
_cell_angle_alpha 90.000000
_cell_angle_beta 57.565171
_cell_angle_gamma 90.000000
_cell_volume 1462.532478
_symmetry_space_group_name_H-M "C 2/C"
_symmetry_group_IT_number 15
_symmetry_cell_setting 'monoclinic'
loop_
_space_group_symop_operation_xyz
x,y,z
-x,y,1/2-z
-x,-y,-z
x,-y,1/2+z
1/2+x,1/2+y,z
1/2-x,1/2+y,1/2-z
1/2-x,1/2-y,-z
1/2+x,1/2-y,1/2+z
loop_
_atom_site_type_symbol
_atom_site_label
_atom_site_fract_x
_atom_site_fract_y
_atom_site_fract_z
Si Si1 0.522648 0.600214 0.130178
Si Si2 0.926478 0.782993 0.065500
Si Si3 0.131252 0.395976 0.780593
Si Si4 0.844643 0.886975 0.382943
Si Si5 0.127450 0.379259 0.285231
O O1 0.500000 0.622168 0.250000
O O2 0.322978 0.587884 0.173423
O O3 0.641978 0.501624 0.082878
O O4 0.584335 0.690521 0.042322
O O5 0.873083 0.676113 0.125882
O O6 0.104821 0.816084 0.048306
O O7 0.799385 0.861340 0.163182
O O8 0.069964 0.507271 0.823430
O O9 0.000000 0.351945 0.750000
O O10 0.000000 0.886319 0.250000
O O11 0.684304 0.851966 0.374936
O O12 0.000000 0.336950 0.250000
#
# Coordination Sequence:
#
# PCOD9285795 Si02
#       5
#     8   8   8   8   8
#     4  11  22  43  68  95 131 180 226 272 323 407
#     4  11  23  41  73  95 129 186 219 263 347 393
#     4  11  23  41  66 100 136 167 221 281 329 396
#     4   9  17  39  66  92 125 173 214 261 327 398
#     4  10  21  42  67 101 137 166 220 283 325 397
#
# _framework density 27.349820000000001
#
# number of rings (size 3 to 8) (size 9 to 14) (size 15 to 20)
#    0.000    1.600    6.000    2.400    0.000    2.400 
#    0.000    3.000    4.400    0.000    0.000    0.000 
#    0.000    0.000    0.000    0.000    0.000    0.000 
#
# Total GULP energy -111718.367639 kJ/mol
# GULP energy per Si atom -5585.918382 kJ/mol
# Density = 2.728757 g / cm^3
# Si number density = 27.349820 Si / 1000 Ang^3
#
#
#
# Elastic Constant Matrix: (Units=GPa)
#
#
# Indices 1 2 3 4 5 6 
#
# 1 187.1158 22.6905 36.0726 0.0000 20.7141 0.0000
# 2 22.6905 147.8593 33.2189 0.0000 7.7630 0.0000
# 3 36.0726 33.2189 90.9778 0.0000 26.4466 0.0000
# 4 0.0000 0.0000 0.0000 -11.0629 0.0000 33.0332
# 5 20.7141 7.7630 26.4466 0.0000 28.2304 0.0000
# 6 0.0000 0.0000 0.0000 33.0332 0.0000 28.4159
#
#
#
# Elastic Compliance Matrix: (Units=1/GPa)
#
#
# Indices 1 2 3 4 5 6 
#
# 1 0.005991 -0.000462 -0.001327 0.000000 -0.003026 0.000000
# 2 -0.000462 0.007413 -0.002789 0.000000 0.000913 0.000000
# 3 -0.001327 -0.002789 0.016532 0.000000 -0.013747 0.000000
# 4 0.000000 0.000000 0.000000 -0.020217 0.000000 0.023502
# 5 -0.003026 0.000913 -0.013747 0.000000 0.050270 0.000000
# 6 0.000000 0.000000 0.000000 0.023502 0.000000 0.007871
#
#
# Mechanical properties :
#
#
# Convention : Reuss Voigt Hill
#
# Bulk Modulus (GPa) = 48.12433 67.76853 57.94643
# Shear Modulus (GPa) = 59.56394 31.38140 45.47267
#
# Velocity S-wave (km/s) = 4.67181 3.39102 4.08196
# Velocity P-wave (km/s) = 6.83631 6.33752 6.59164
#
# Compressibility (1/GPa) = 0.02077951
#
# Stress axis : x y z
#
# Youngs Moduli (GPa) = 166.91317 134.90292 60.48752
#
# Poissons Ratio (x) = 0.06238 0.08028
# Poissons Ratio (y) = 0.07718 0.16869
# Poissons Ratio (z) = 0.22152 0.37622
#
# Static dielectric constant tensor:
#      x y z
#    x 2.350030 0.000000 0.009710 
#    y 0.000000 2.148440 0.000000 
#    z 0.009710 0.000000 2.090460 
# 
# From -- ./inp_files/133095.got.cif
#   From: 2010.05.17/outbox.cif.g08.bks.cpg/sg15_67_cif.got.tgz:133095.got - 2010.06.03 18:47:42.
