data_PCOD9285313
_publ_section_title
;
Structure prediction by ZEFSAII (Michael W. Deem and Ramdas Pophale) SiO2 
 PCOD9285313
Probable space group: C 2/C
;
_chemical_formula_sum "Si O2"
_cell_formula_units_Z 52
_cell_length_a 7.782634
_cell_length_b 16.819016
_cell_length_c 19.994151
_cell_angle_alpha 90.000000
_cell_angle_beta 123.414423
_cell_angle_gamma 90.000000
_cell_volume 2184.567118
_symmetry_space_group_name_H-M "C 2/C"
_symmetry_group_IT_number 15
_symmetry_cell_setting 'monoclinic'
loop_
_space_group_symop_operation_xyz
x,y,z
-x,y,1/2-z
-x,-y,-z
x,-y,1/2+z
1/2+x,1/2+y,z
1/2-x,1/2+y,1/2-z
1/2-x,1/2-y,-z
1/2+x,1/2-y,1/2+z
loop_
_atom_site_type_symbol
_atom_site_label
_atom_site_fract_x
_atom_site_fract_y
_atom_site_fract_z
Si Si1 0.898454 0.788390 0.476998
Si Si2 0.131299 0.631133 0.544902
Si Si3 0.104207 0.170008 0.673686
Si Si4 0.000000 0.301181 0.750000
Si Si5 0.160113 0.086804 0.114127
Si Si6 0.578012 0.004184 0.923195
Si Si7 0.709433 0.993669 0.250052
O O1 0.750000 0.750000 0.500000
O O2 0.825680 0.813279 0.387443
O O3 0.055067 0.714323 0.498945
O O4 0.004091 0.862221 0.537639
O O5 0.361781 0.646770 0.619164
O O6 0.971249 0.593496 0.564315
O O7 0.128097 0.559208 0.491168
O O8 0.219146 0.096262 0.731280
O O9 0.125800 0.245756 0.726168
O O10 0.847457 0.353254 0.671902
O O11 0.235002 0.011120 0.087174
O O12 0.118639 0.048661 0.177948
O O13 0.368311 0.980548 0.839134
O O14 0.500000 0.998049 0.250000
#
# Coordination Sequence:
#
# PCOD9285313 Si02
#       7
#     8   8   8   4   8   8   8
#     4  12  28  44  69 105 140 186 244 299 352 430
#     4  11  23  42  71 101 137 182 236 295 353 434
#     4  12  25  43  75 102 142 184 246 291 364 425
#     4  12  22  42  76 102 132 192 230 294 350 430
#     4  11  22  44  70  97 142 187 231 288 368 420
#     4  10  21  41  70 100 136 179 231 290 354 427
#     4  10  24  41  68 101 137 180 228 293 353 430
#
# _framework density 23.803343999999999
#
# number of rings (size 3 to 8) (size 9 to 14) (size 15 to 20)
#    0.000    0.923    5.385    2.308    4.308    3.077 
#    0.000    0.000    0.000    0.000    0.000    0.000 
#    0.000    0.000    0.000    0.000    0.000    0.000 
#
# Total GULP energy -145266.965115 kJ/mol
# GULP energy per Si atom -5587.190966 kJ/mol
# Density = 2.374917 g / cm^3
# Si number density = 23.803344 Si / 1000 Ang^3
#
#
#
# Elastic Constant Matrix: (Units=GPa)
#
#
# Indices 1 2 3 4 5 6 
#
# 1 46.6014 13.9923 7.2563 0.0000 -2.2649 0.0000
# 2 13.9923 104.8388 21.7734 0.0000 -2.9835 0.0000
# 3 7.2563 21.7734 71.1519 0.0000 -9.8769 0.0000
# 4 0.0000 0.0000 0.0000 23.7848 0.0000 22.4346
# 5 -2.2649 -2.9835 -9.8769 0.0000 16.6280 0.0000
# 6 0.0000 0.0000 0.0000 22.4346 0.0000 34.6260
#
#
#
# Elastic Compliance Matrix: (Units=1/GPa)
#
#
# Indices 1 2 3 4 5 6 
#
# 1 0.022550 -0.002705 -0.001213 0.000000 0.001866 0.000000
# 2 -0.002705 0.010510 -0.002975 0.000000 -0.000250 0.000000
# 3 -0.001213 -0.002975 0.016339 0.000000 0.009006 0.000000
# 4 0.000000 0.000000 0.000000 0.108117 0.000000 -0.070050
# 5 0.001866 -0.000250 0.009006 0.000000 0.065698 0.000000
# 6 0.000000 0.000000 0.000000 -0.070050 0.000000 0.074266
#
#
# Mechanical properties :
#
#
# Convention : Reuss Voigt Hill
#
# Bulk Modulus (GPa) = 28.07927 34.29288 31.18608
# Shear Modulus (GPa) = 15.47327 26.97910 21.22619
#
# Velocity S-wave (km/s) = 2.55237 3.37028 2.98943
# Velocity P-wave (km/s) = 4.52858 5.43903 5.00455
#
# Compressibility (1/GPa) = 0.03561346
#
# Stress axis : x y z
#
# Youngs Moduli (GPa) = 44.34550 95.14568 61.20422
#
# Poissons Ratio (x) = 0.25733 0.07425
# Poissons Ratio (y) = 0.11994 0.18209
# Poissons Ratio (z) = 0.05380 0.28307
#
# Static dielectric constant tensor:
#      x y z
#    x 2.002880 0.000000 -0.046660 
#    y 0.000000 1.894920 0.000000 
#    z -0.046660 0.000000 1.945200 
# 
# From -- ./inp_files/233117.got.cif
#   From: 2010.05.17/outbox.cif.g08.bks.cpg/sg15_117_cif.got.tgz:233117.got - 2010.06.03 18:47:42.
