data_PCOD9285311
_publ_section_title
;
Structure prediction by ZEFSAII (Michael W. Deem and Ramdas Pophale) SiO2 
 PCOD9285311
Probable space group: C 2/C
;
_chemical_formula_sum "Si O2"
_cell_formula_units_Z 60
_cell_length_a 5.522592
_cell_length_b 20.887692
_cell_length_c 27.521915
_cell_angle_alpha 90.000000
_cell_angle_beta 117.568671
_cell_angle_gamma 90.000000
_cell_volume 2814.295050
_symmetry_space_group_name_H-M "C 2/C"
_symmetry_group_IT_number 15
_symmetry_cell_setting 'monoclinic'
loop_
_space_group_symop_operation_xyz
x,y,z
-x,y,1/2-z
-x,-y,-z
x,-y,1/2+z
1/2+x,1/2+y,z
1/2-x,1/2+y,1/2-z
1/2-x,1/2-y,-z
1/2+x,1/2-y,1/2+z
loop_
_atom_site_type_symbol
_atom_site_label
_atom_site_fract_x
_atom_site_fract_y
_atom_site_fract_z
Si Si1 0.668233 0.731850 0.315335
Si Si2 0.268645 0.842928 0.658892
Si Si3 0.356358 0.969824 0.373989
Si Si4 0.300924 0.128312 0.642859
Si Si5 0.000000 0.558945 0.750000
Si Si6 0.174083 0.945757 0.457984
Si Si7 0.866631 0.047984 0.283362
Si Si8 0.680482 0.432749 0.567062
O O1 0.500000 0.745834 0.250000
O O2 0.462254 0.695164 0.332641
O O3 0.729916 0.797025 0.350704
O O4 0.948292 0.694564 0.326006
O O5 0.295031 0.904969 0.696274
O O6 0.154937 0.870342 0.597480
O O7 0.418969 0.903271 0.352171
O O8 0.381561 0.950576 0.432945
O O9 0.587034 0.023034 0.387159
O O10 0.080614 0.008874 0.336864
O O11 0.310095 0.099480 0.697833
O O12 0.068790 0.097512 0.587523
O O13 0.805172 0.508247 0.758627
O O14 0.254003 0.919276 0.517875
O O15 0.074758 0.019033 0.456442
O O16 0.000000 0.084431 0.250000
#
# Coordination Sequence:
#
# PCOD9285311 Si02
#       8
#     8   8   8   8   4   8   8   8
#     4  12  29  48  70  95 141 200 239 277 336 414
#     4  12  27  47  67  99 140 186 236 286 340 424
#     4  11  20  39  68 102 136 173 220 293 357 425
#     4  11  24  43  65 100 134 182 236 278 345 415
#     4  12  22  38  64  98 136 166 214 296 356 408
#     4  10  21  41  70 100 135 173 221 295 360 414
#     4  12  24  37  68 104 138 173 221 295 369 419
#     4  10  22  41  67 103 136 171 226 289 366 409
#
# _framework density 21.319727
#
# number of rings (size 3 to 8) (size 9 to 14) (size 15 to 20)
#    0.000    0.800    4.667    2.800    5.600    0.000 
#    2.400    1.333    0.000    0.000    0.000    0.000 
#    0.000    0.000    0.000    0.000    0.000    0.000 
#
# Total GULP energy -167341.420418 kJ/mol
# GULP energy per Si atom -5578.047347 kJ/mol
# Density = 2.127120 g / cm^3
# Si number density = 21.319727 Si / 1000 Ang^3
#
#
#
# Elastic Constant Matrix: (Units=GPa)
#
#
# Indices 1 2 3 4 5 6 
#
# 1 105.2335 59.6413 28.7102 0.0000 -16.1511 0.0000
# 2 59.6413 107.5271 53.9805 0.0000 -9.2247 0.0000
# 3 28.7102 53.9805 112.9574 0.0000 -14.6890 0.0000
# 4 0.0000 0.0000 0.0000 30.6868 0.0000 -5.5826
# 5 -16.1511 -9.2247 -14.6890 0.0000 39.9941 0.0000
# 6 0.0000 0.0000 0.0000 -5.5826 0.0000 27.1899
#
#
#
# Elastic Compliance Matrix: (Units=1/GPa)
#
#
# Indices 1 2 3 4 5 6 
#
# 1 0.014525 -0.008046 0.000708 0.000000 0.004270 0.000000
# 2 -0.008046 0.016711 -0.006156 0.000000 -0.001656 0.000000
# 3 0.000708 -0.006156 0.012043 0.000000 0.003289 0.000000
# 4 0.000000 0.000000 0.000000 0.033852 0.000000 0.006950
# 5 0.004270 -0.001656 0.003289 0.000000 0.027554 0.000000
# 6 0.000000 0.000000 0.000000 0.006950 0.000000 0.038205
#
#
# Mechanical properties :
#
#
# Convention : Reuss Voigt Hill
#
# Bulk Modulus (GPa) = 61.38249 67.82023 64.60136
# Shear Modulus (GPa) = 28.52139 31.79990 30.16064
#
# Velocity S-wave (km/s) = 3.66155 3.86628 3.76531
# Velocity P-wave (km/s) = 6.83593 7.19798 7.01929
#
# Compressibility (1/GPa) = 0.01629129
#
# Stress axis : x y z
#
# Youngs Moduli (GPa) = 68.84869 59.84036 83.03869
#
# Poissons Ratio (x) = 0.48145 -0.05883
# Poissons Ratio (y) = 0.55393 0.51122
# Poissons Ratio (z) = -0.04878 0.36840
#
# Static dielectric constant tensor:
#      x y z
#    x 1.922520 0.000000 -0.011090 
#    y 0.000000 1.772050 0.000000 
#    z -0.011090 0.000000 1.811050 
# 
# From -- ./inp_files/286427.got.cif
#   From: 2010.05.17/outbox.cif.g08.bks.cpg/sg15_144_cif.got.tgz:286427.got - 2010.06.03 18:47:42.
