data_PCOD9285554
_publ_section_title
;
Structure prediction by ZEFSAII (Michael W. Deem and Ramdas Pophale) SiO2 
 PCOD9285554
Probable space group: C 2/C
;
_chemical_formula_sum "Si O2"
_cell_formula_units_Z 60
_cell_length_a 18.273716
_cell_length_b 30.856507
_cell_length_c 8.653052
_cell_angle_alpha 90.000000
_cell_angle_beta 37.414111
_cell_angle_gamma 90.000000
_cell_volume 2964.423999
_symmetry_space_group_name_H-M "C 2/C"
_symmetry_group_IT_number 15
_symmetry_cell_setting 'monoclinic'
loop_
_space_group_symop_operation_xyz
x,y,z
-x,y,1/2-z
-x,-y,-z
x,-y,1/2+z
1/2+x,1/2+y,z
1/2-x,1/2+y,1/2-z
1/2-x,1/2-y,-z
1/2+x,1/2-y,1/2+z
loop_
_atom_site_type_symbol
_atom_site_label
_atom_site_fract_x
_atom_site_fract_y
_atom_site_fract_z
Si Si1 0.000000 0.673108 0.750000
Si Si2 0.773699 0.384227 0.703262
Si Si3 0.458441 0.333198 0.499768
Si Si4 0.131894 0.442804 0.472667
Si Si5 0.935093 0.264147 0.096933
Si Si6 0.372629 0.966242 0.376798
Si Si7 0.820957 0.716662 0.486640
Si Si8 0.802637 0.876191 0.324402
O O1 0.100229 0.642000 0.505842
O O2 0.071455 0.705160 0.745078
O O3 0.789281 0.428921 0.586523
O O4 0.672065 0.354544 0.794333
O O5 0.731114 0.393302 0.948544
O O6 0.500000 0.324669 0.250000
O O7 0.456702 0.286788 0.587101
O O8 0.555414 0.365611 0.413344
O O9 0.116120 0.458465 0.323838
O O10 0.164217 0.484775 0.521570
O O11 0.237439 0.407808 0.313795
O O12 0.000000 0.426064 0.750000
O O13 0.828746 0.267771 0.150447
O O14 0.049474 0.283265 0.812126
O O15 0.500000 0.960868 0.250000
O O16 0.750000 0.750000 0.500000
O O17 0.760074 0.670381 0.584125
#
# Coordination Sequence:
#
# PCOD9285554 Si02
#       8
#     4   8   8   8   8   8   8   8
#     4  12  26  38  58  94 132 166 208 272 326 374
#     4  11  23  40  64  91 129 165 208 260 321 378
#     4  10  21  42  64  87 121 173 218 260 307 375
#     4  11  24  39  68  99 125 163 204 259 317 374
#     4  11  23  38  59  89 122 169 218 268 314 364
#     4  11  22  43  65  96 132 157 201 260 321 376
#     4  11  20  38  64  84 120 166 224 262 301 370
#     4  11  22  39  66  92 124 164 221 260 313 375
#
# _framework density 20.240019
#
# number of rings (size 3 to 8) (size 9 to 14) (size 15 to 20)
#    0.000    1.067    4.667    4.000    3.733    0.533 
#    2.400    0.667    0.000    0.000    0.000    0.000 
#    0.000    0.000    0.000    0.000    0.000    0.000 
#
# Total GULP energy -167660.575141 kJ/mol
# GULP energy per Si atom -5588.685838 kJ/mol
# Density = 2.019395 g / cm^3
# Si number density = 20.240019 Si / 1000 Ang^3
#
#
#
# Elastic Constant Matrix: (Units=GPa)
#
#
# Indices 1 2 3 4 5 6 
#
# 1 100.3999 27.4259 7.4575 0.0000 3.8194 0.0000
# 2 27.4259 80.2240 7.6326 0.0000 -10.3974 0.0000
# 3 7.4575 7.6326 26.5910 0.0000 -11.9805 0.0000
# 4 0.0000 0.0000 0.0000 9.9550 0.0000 -0.5127
# 5 3.8194 -10.3974 -11.9805 0.0000 29.7809 0.0000
# 6 0.0000 0.0000 0.0000 -0.5127 0.0000 40.0688
#
#
#
# Elastic Compliance Matrix: (Units=1/GPa)
#
#
# Indices 1 2 3 4 5 6 
#
# 1 0.011578 -0.004162 -0.004124 0.000000 -0.004597 0.000000
# 2 -0.004162 0.014646 -0.000601 0.000000 0.005405 0.000000
# 3 -0.004124 -0.000601 0.047731 0.000000 0.019520 0.000000
# 4 0.000000 0.000000 0.000000 0.100518 0.000000 0.001286
# 5 -0.004597 0.005405 0.019520 0.000000 0.043908 0.000000
# 6 0.000000 0.000000 0.000000 0.001286 0.000000 0.024974
#
#
# Mechanical properties :
#
#
# Convention : Reuss Voigt Hill
#
# Bulk Modulus (GPa) = 17.79963 32.47188 25.13575
# Shear Modulus (GPa) = 17.86640 26.94086 22.40363
#
# Velocity S-wave (km/s) = 2.97429 3.65234 3.33062
# Velocity P-wave (km/s) = 4.53967 5.81931 5.21886
#
# Compressibility (1/GPa) = 0.05618095
#
# Stress axis : x y z
#
# Youngs Moduli (GPa) = 86.36958 68.28013 20.95086
#
# Poissons Ratio (x) = 0.28416 0.08639
# Poissons Ratio (y) = 0.35944 0.01260
# Poissons Ratio (z) = 0.35616 0.04107
#
# Static dielectric constant tensor:
#      x y z
#    x 1.766730 0.000000 -0.002960 
#    y 0.000000 1.700250 0.000000 
#    z -0.002960 0.000000 1.736420 
# 
# From -- ./inp_files/52828.got.cif
#   From: 2010.05.17/outbox.cif.g08.bks.cpg/sg15_27_cif.got.tgz:52828.got - 2010.06.03 18:47:42.
