data_PCOD9285144
_publ_section_title
;
Structure prediction by ZEFSAII (Michael W. Deem and Ramdas Pophale) SiO2 
 PCOD9285144
Probable space group: C 2/C
;
_chemical_formula_sum "Si O2"
_cell_formula_units_Z 48
_cell_length_a 16.092949
_cell_length_b 9.137866
_cell_length_c 27.548507
_cell_angle_alpha 90.000000
_cell_angle_beta 147.960198
_cell_angle_gamma 90.000000
_cell_volume 2149.169325
_symmetry_space_group_name_H-M "C 2/C"
_symmetry_group_IT_number 15
_symmetry_cell_setting 'monoclinic'
loop_
_space_group_symop_operation_xyz
x,y,z
-x,y,1/2-z
-x,-y,-z
x,-y,1/2+z
1/2+x,1/2+y,z
1/2-x,1/2+y,1/2-z
1/2-x,1/2-y,-z
1/2+x,1/2-y,1/2+z
loop_
_atom_site_type_symbol
_atom_site_label
_atom_site_fract_x
_atom_site_fract_y
_atom_site_fract_z
Si Si1 0.157049 0.357285 0.168232
Si Si2 0.465280 0.908927 0.532037
Si Si3 0.177899 0.489027 0.346585
Si Si4 0.365125 0.356131 0.526629
Si Si5 0.596331 0.395435 0.126138
Si Si6 0.332010 0.329093 0.152971
O O1 0.283615 0.344405 0.272978
O O2 0.243215 0.341966 0.159920
O O3 0.062353 0.510742 0.122008
O O4 0.020509 0.240391 0.100371
O O5 0.524210 0.742389 0.561313
O O6 0.276833 0.906836 0.440843
O O7 0.500000 0.000000 0.500000
O O8 0.265629 0.391349 0.429444
O O9 0.292560 0.483679 0.356624
O O10 0.157668 0.656953 0.354071
O O11 0.000000 0.434623 0.250000
O O12 0.250000 0.250000 0.500000
O O13 0.452702 0.513475 0.578670
O O14 0.500000 0.391999 0.250000
#
# Coordination Sequence:
#
# PCOD9285144 Si02
#       6
#     8   8   8   8   8   8
#     4  11  24  42  66 102 138 178 238 295 360 438
#     4  10  22  41  66  99 135 184 233 290 362 432
#     4  11  22  41  70  99 135 187 239 288 364 430
#     4  12  25  44  68 102 139 184 242 296 358 440
#     4  12  23  44  70  99 143 188 232 306 363 428
#     4  10  21  41  67  96 133 181 234 289 358 433
#
# _framework density 22.334211
#
# number of rings (size 3 to 8) (size 9 to 14) (size 15 to 20)
#    0.000    1.000    3.333    4.500    0.000    1.333 
#    0.000    7.500    0.000    0.000    0.000    0.000 
#    0.000    0.000    0.000    0.000    0.000    0.000 
#
# Total GULP energy -133847.070503 kJ/mol
# GULP energy per Si atom -5576.961271 kJ/mol
# Density = 2.228338 g / cm^3
# Si number density = 22.334211 Si / 1000 Ang^3
#
#
#
# Elastic Constant Matrix: (Units=GPa)
#
#
# Indices 1 2 3 4 5 6 
#
# 1 74.2008 19.1905 52.7048 0.0000 15.8320 0.0000
# 2 19.1905 78.7640 44.6766 0.0000 21.1158 0.0000
# 3 52.7048 44.6766 206.8192 0.0002 24.8013 0.0000
# 4 0.0000 0.0000 0.0002 6.2050 0.0000 13.7122
# 5 15.8320 21.1158 24.8013 0.0000 25.6627 0.0000
# 6 0.0000 0.0000 0.0000 13.7122 0.0000 21.8527
#
#
#
# Elastic Compliance Matrix: (Units=1/GPa)
#
#
# Indices 1 2 3 4 5 6 
#
# 1 0.017619 -0.000363 -0.003556 0.000000 -0.007134 0.000000
# 2 -0.000363 0.017199 -0.002209 0.000000 -0.011793 0.000000
# 3 -0.003556 -0.002209 0.006489 0.000000 -0.002261 0.000000
# 4 0.000000 0.000000 0.000000 -0.416807 0.000000 0.261539
# 5 -0.007134 -0.011793 -0.002261 0.000000 0.055257 0.000000
# 6 0.000000 0.000000 0.000000 0.261539 0.000000 -0.118350
#
#
# Mechanical properties :
#
#
# Convention : Reuss Voigt Hill
#
# Bulk Modulus (GPa) = 34.42087 65.88086 50.15086
# Shear Modulus (GPa) = -12.00038 26.95824 7.47893
#
# Velocity S-wave (km/s) = -2.32051 3.47801 1.83191
# Velocity P-wave (km/s) = 2.87498 6.75948 5.19404
#
# Compressibility (1/GPa) = 0.02905214
#
# Stress axis : x y z
#
# Youngs Moduli (GPa) = 56.75745 58.14288 154.09521
#
# Poissons Ratio (x) = 0.02111 0.54795
# Poissons Ratio (y) = 0.02061 0.34032
# Poissons Ratio (z) = 0.20183 0.12841
#
# Static dielectric constant tensor:
#      x y z
#    x 1.867200 0.000000 -0.093090 
#    y 0.000000 1.889450 0.000000 
#    z -0.093090 0.000000 2.131300 
# 
# From -- ./inp_files/209284.got.cif
#   From: 2010.05.17/outbox.cif.g08.bks.cpg/sg15_105_cif.got.tgz:209284.got - 2010.06.03 18:47:42.
