data_PCOD9285199
_publ_section_title
;
Structure prediction by ZEFSAII (Michael W. Deem and Ramdas Pophale) SiO2 
 PCOD9285199
Probable space group: C 2/C
;
_chemical_formula_sum "Si O2"
_cell_formula_units_Z 64
_cell_length_a 11.273201
_cell_length_b 17.391214
_cell_length_c 24.100669
_cell_angle_alpha 90.000000
_cell_angle_beta 139.042863
_cell_angle_gamma 90.000000
_cell_volume 3097.241945
_symmetry_space_group_name_H-M "C 2/C"
_symmetry_group_IT_number 15
_symmetry_cell_setting 'monoclinic'
loop_
_space_group_symop_operation_xyz
x,y,z
-x,y,1/2-z
-x,-y,-z
x,-y,1/2+z
1/2+x,1/2+y,z
1/2-x,1/2+y,1/2-z
1/2-x,1/2-y,-z
1/2+x,1/2-y,1/2+z
loop_
_atom_site_type_symbol
_atom_site_label
_atom_site_fract_x
_atom_site_fract_y
_atom_site_fract_z
Si Si1 0.782927 0.439593 0.940263
Si Si2 0.410904 0.857785 0.311328
Si Si3 0.383419 0.248939 0.152955
Si Si4 0.395230 0.379712 0.967216
Si Si5 0.092683 0.794265 0.125962
Si Si6 0.187066 0.404204 0.098819
Si Si7 0.122101 0.214920 0.347942
Si Si8 0.739653 0.041587 0.938075
O O1 0.731213 0.511646 0.883609
O O2 0.656228 0.366179 0.888288
O O3 0.786779 0.466015 0.005379
O O4 0.988074 0.411226 0.001159
O O5 0.247074 0.844422 0.211232
O O6 0.338307 0.882956 0.345515
O O7 0.521281 0.777104 0.350955
O O8 0.562277 0.920154 0.348865
O O9 0.500000 0.247583 0.250000
O O10 0.223520 0.187273 0.101513
O O11 0.507113 0.238127 0.141929
O O12 0.301614 0.333931 0.116189
O O13 0.284526 0.458747 0.929460
O O14 0.444125 0.348573 0.045628
O O15 0.588340 0.402542 0.009494
O O16 0.191523 0.749540 0.110754
O O17 0.000000 0.205183 0.250000
#
# Coordination Sequence:
#
# PCOD9285199 Si02
#       8
#     8   8   8   8   8   8   8   8
#     4  10  22  40  65  96 130 173 213 284 333 398
#     4  10  21  41  68  93 130 172 224 274 326 410
#     4  12  25  42  65  96 136 175 227 274 341 406
#     4  11  24  42  64 100 132 181 220 277 339 406
#     4  11  22  42  67  95 133 176 221 276 338 407
#     4  10  22  39  64  95 129 170 220 268 340 392
#     4  10  22  38  63  96 127 167 222 270 333 390
#     4  10  23  42  65  96 134 168 232 271 336 403
#
# _framework density 20.663547000000001
#
# number of rings (size 3 to 8) (size 9 to 14) (size 15 to 20)
#    0.000    1.500    2.500    1.875    1.750    4.500 
#    6.750    0.000    0.000    0.000    0.000    0.000 
#    0.000    0.000    0.000    0.000    0.000    0.000 
#
# Total GULP energy -178757.021883 kJ/mol
# GULP energy per Si atom -5586.156934 kJ/mol
# Density = 2.061652 g / cm^3
# Si number density = 20.663547 Si / 1000 Ang^3
#
#
#
# Elastic Constant Matrix: (Units=GPa)
#
#
# Indices 1 2 3 4 5 6 
#
# 1 51.3276 0.6640 3.5935 0.0000 -11.1447 0.0000
# 2 0.6640 91.2740 43.5093 0.0000 -5.3628 0.0000
# 3 3.5935 43.5093 54.9509 0.0000 7.8492 0.0000
# 4 0.0000 0.0000 0.0000 7.0337 0.0000 -5.3898
# 5 -11.1447 -5.3628 7.8492 0.0000 19.4919 0.0000
# 6 0.0000 0.0000 0.0000 -5.3898 0.0000 15.9669
#
#
#
# Elastic Compliance Matrix: (Units=1/GPa)
#
#
# Indices 1 2 3 4 5 6 
#
# 1 0.023888 0.004596 -0.007780 0.000000 0.018056 0.000000
# 2 0.004596 0.021075 -0.019301 0.000000 0.016198 0.000000
# 3 -0.007780 -0.019301 0.037543 0.000000 -0.024877 0.000000
# 4 0.000000 0.000000 0.000000 0.191781 0.000000 0.064738
# 5 0.018056 0.016198 -0.024877 0.000000 0.076101 0.000000
# 6 0.000000 0.000000 0.000000 0.064738 0.000000 0.084483
#
#
# Mechanical properties :
#
#
# Convention : Reuss Voigt Hill
#
# Bulk Modulus (GPa) = 26.64184 32.56513 29.60348
# Shear Modulus (GPa) = 10.15530 18.48421 14.31976
#
# Velocity S-wave (km/s) = 2.21929 2.99412 2.63534
# Velocity P-wave (km/s) = 4.41454 5.26753 4.85979
#
# Compressibility (1/GPa) = 0.03753494
#
# Stress axis : x y z
#
# Youngs Moduli (GPa) = 41.86135 47.44964 26.63643
#
# Poissons Ratio (x) = -0.21807 0.20723
# Poissons Ratio (y) = -0.19239 0.51411
# Poissons Ratio (z) = 0.32569 0.91583
#
# Static dielectric constant tensor:
#      x y z
#    x 1.779970 0.000000 0.024970 
#    y 0.000000 1.723540 0.000000 
#    z 0.024970 0.000000 1.712710 
# 
# From -- ./inp_files/293104.got.cif
#   From: 2010.05.17/outbox.cif.g08.bks.cpg/sg15_147_cif.got.tgz:293104.got - 2010.06.03 18:47:42.
