data_PCOD9285261
_publ_section_title
;
Structure prediction by ZEFSAII (Michael W. Deem and Ramdas Pophale) SiO2 
 PCOD9285261
Probable space group: C 2/C
;
_chemical_formula_sum "Si O2"
_cell_formula_units_Z 48
_cell_length_a 9.521470
_cell_length_b 23.974031
_cell_length_c 9.853600
_cell_angle_alpha 90.000000
_cell_angle_beta 105.222696
_cell_angle_gamma 90.000000
_cell_volume 2170.340897
_symmetry_space_group_name_H-M "C 2/C"
_symmetry_group_IT_number 15
_symmetry_cell_setting 'monoclinic'
loop_
_space_group_symop_operation_xyz
x,y,z
-x,y,1/2-z
-x,-y,-z
x,-y,1/2+z
1/2+x,1/2+y,z
1/2-x,1/2+y,1/2-z
1/2-x,1/2-y,-z
1/2+x,1/2-y,1/2+z
loop_
_atom_site_type_symbol
_atom_site_label
_atom_site_fract_x
_atom_site_fract_y
_atom_site_fract_z
Si Si1 0.053269 0.811424 0.972292
Si Si2 0.706246 0.890327 0.586730
Si Si3 0.392392 0.000378 0.845099
Si Si4 0.500000 0.268736 0.250000
Si Si5 0.711592 0.828616 0.862421
Si Si6 0.606752 0.122015 0.613006
Si Si7 0.500000 0.781251 0.250000
O O1 0.157652 0.860477 0.947763
O O2 0.884457 0.823466 0.898203
O O3 0.078708 0.756550 0.884387
O O4 0.060714 0.801412 0.135259
O O5 0.662066 0.855893 0.709267
O O6 0.566554 0.887198 0.453726
O O7 0.724736 0.953230 0.647290
O O8 0.500000 0.984461 0.750000
O O9 0.335716 0.063540 0.813424
O O10 0.500000 0.000000 0.000000
O O11 0.373442 0.229730 0.154731
O O12 0.674481 0.864956 0.984416
O O13 0.612607 0.177683 0.703462
#
# Coordination Sequence:
#
# PCOD9285261 Si02
#       7
#     8   8   8   4   8   8   4
#     4  12  27  40  67  99 144 187 227 279 356 422
#     4  11  22  42  65  96 136 182 228 287 347 404
#     4  10  21  41  69 102 129 174 235 291 336 399
#     4  12  26  42  65  96 145 188 230 280 348 422
#     4  12  22  43  66 100 138 188 228 279 352 421
#     4  11  23  38  69 101 134 175 237 289 334 403
#     4  12  22  40  63 104 137 172 234 280 334 418
#
# _framework density 22.116342
#
# number of rings (size 3 to 8) (size 9 to 14) (size 15 to 20)
#    0.000    0.667    5.833    2.500    2.333    1.333 
#    0.000    0.833    0.000    2.000    0.000    0.000 
#    0.000    0.000    0.000    0.000    0.000    0.000 
#
# Total GULP energy -134251.051798 kJ/mol
# GULP energy per Si atom -5593.793825 kJ/mol
# Density = 2.206600 g / cm^3
# Si number density = 22.116342 Si / 1000 Ang^3
#
#
#
# Elastic Constant Matrix: (Units=GPa)
#
#
# Indices 1 2 3 4 5 6 
#
# 1 114.3363 72.1270 26.4209 0.0000 -17.9277 0.0000
# 2 72.1270 154.4440 41.3509 0.0000 -25.9602 0.0000
# 3 26.4209 41.3509 101.6803 0.0000 -37.7758 0.0000
# 4 0.0000 0.0000 0.0000 30.4462 0.0000 -16.6501
# 5 -17.9277 -25.9602 -37.7758 0.0000 39.3850 0.0000
# 6 0.0000 0.0000 0.0000 -16.6501 0.0000 26.2579
#
#
#
# Elastic Compliance Matrix: (Units=1/GPa)
#
#
# Indices 1 2 3 4 5 6 
#
# 1 0.012559 -0.005468 -0.000396 0.000000 0.001733 0.000000
# 2 -0.005468 0.009888 -0.001715 0.000000 0.002384 0.000000
# 3 -0.000396 -0.001715 0.015766 0.000000 0.013811 0.000000
# 4 0.000000 0.000000 0.000000 0.050281 0.000000 0.031883
# 5 0.001733 0.002384 0.013811 0.000000 0.040998 0.000000
# 6 0.000000 0.000000 0.000000 0.031883 0.000000 0.058301
#
#
# Mechanical properties :
#
#
# Convention : Reuss Voigt Hill
#
# Bulk Modulus (GPa) = 43.37252 72.25093 57.81172
# Shear Modulus (GPa) = 23.73785 34.58861 29.16323
#
# Velocity S-wave (km/s) = 3.27971 3.95896 3.63523
# Velocity P-wave (km/s) = 5.83058 7.32375 6.61940
#
# Compressibility (1/GPa) = 0.02305607
#
# Stress axis : x y z
#
# Youngs Moduli (GPa) = 79.62726 101.13092 63.42693
#
# Poissons Ratio (x) = 0.55295 0.02511
# Poissons Ratio (y) = 0.43538 0.10877
# Poissons Ratio (z) = 0.03152 0.17342
#
# Static dielectric constant tensor:
#      x y z
#    x 1.809910 0.000000 -0.004880 
#    y 0.000000 1.922600 0.000000 
#    z -0.004880 0.000000 1.849120 
# 
# From -- ./inp_files/79398.got.cif
#   From: 2010.05.17/outbox.cif.g08.bks.cpg/sg15_40_cif.got.tgz:79398.got - 2010.06.03 18:47:42.
