data_PCOD9285008
_publ_section_title
;
Structure prediction by ZEFSAII (Michael W. Deem and Ramdas Pophale) SiO2 
 PCOD9285008
Probable space group: C 2/C
;
_chemical_formula_sum "Si O2"
_cell_formula_units_Z 36
_cell_length_a 15.276413
_cell_length_b 8.473901
_cell_length_c 16.309403
_cell_angle_alpha 90.000000
_cell_angle_beta 54.020174
_cell_angle_gamma 90.000000
_cell_volume 1708.486473
_symmetry_space_group_name_H-M "C 2/C"
_symmetry_group_IT_number 15
_symmetry_cell_setting 'monoclinic'
loop_
_space_group_symop_operation_xyz
x,y,z
-x,y,1/2-z
-x,-y,-z
x,-y,1/2+z
1/2+x,1/2+y,z
1/2-x,1/2+y,1/2-z
1/2-x,1/2-y,-z
1/2+x,1/2-y,1/2+z
loop_
_atom_site_type_symbol
_atom_site_label
_atom_site_fract_x
_atom_site_fract_y
_atom_site_fract_z
Si Si1 0.666079 0.355154 0.292075
Si Si2 0.351611 0.845853 0.974165
Si Si3 0.000000 0.733384 0.250000
Si Si4 0.085635 0.365569 0.983236
Si Si5 0.389528 0.293805 0.622973
O O1 0.591103 0.325063 0.253205
O O2 0.634204 0.233336 0.382049
O O3 0.643774 0.531450 0.334656
O O4 0.792216 0.321777 0.203666
O O5 0.435695 0.863135 0.853960
O O6 0.250000 0.750000 0.000000
O O7 0.396351 0.730958 0.021079
O O8 0.328145 0.021716 0.019835
O O9 0.000000 0.500000 0.000000
O O10 0.010508 0.256439 0.082518
#
# Coordination Sequence:
#
# PCOD9285008 Si02
#       5
#     8   8   4   8   8
#     4  12  24  41  69  96 130 178 222 273 334 394
#     4  11  23  42  68  95 133 172 219 269 335 390
#     4  12  24  38  68  92 132 168 222 266 336 372
#     4  10  21  41  66  93 131 175 217 267 332 399
#     4  11  23  41  68  94 133 176 223 269 334 399
#
# _framework density 21.071280999999999
#
# number of rings (size 3 to 8) (size 9 to 14) (size 15 to 20)
#    0.000    0.889    6.667    3.333    0.000    0.000 
#    0.000    4.444    0.000    0.000    0.000    0.000 
#    0.000    0.000    0.000    0.000    0.000    0.000 
#
# Total GULP energy -100377.589002 kJ/mol
# GULP energy per Si atom -5576.532722 kJ/mol
# Density = 2.102332 g / cm^3
# Si number density = 21.071281 Si / 1000 Ang^3
#
#
#
# Elastic Constant Matrix: (Units=GPa)
#
#
# Indices 1 2 3 4 5 6 
#
# 1 61.6512 28.1911 17.7012 0.0000 -1.3264 0.0000
# 2 28.1911 122.1812 48.1384 0.0000 18.0192 0.0000
# 3 17.7012 48.1384 136.8669 0.0000 -3.4108 0.0000
# 4 0.0000 0.0000 0.0000 35.9561 0.0000 -12.6993
# 5 -1.3264 18.0192 -3.4108 0.0000 27.4500 0.0000
# 6 0.0000 0.0000 0.0000 -12.6993 0.0000 21.4024
#
#
#
# Elastic Compliance Matrix: (Units=1/GPa)
#
#
# Indices 1 2 3 4 5 6 
#
# 1 0.018597 -0.004578 -0.000700 0.000000 0.003817 0.000000
# 2 -0.004578 0.012026 -0.003852 0.000000 -0.008594 0.000000
# 3 -0.000700 -0.003852 0.008841 0.000000 0.003593 0.000000
# 4 0.000000 0.000000 0.000000 0.035185 0.000000 0.020878
# 5 0.003817 -0.008594 0.003593 0.000000 0.042702 0.000000
# 6 0.000000 0.000000 0.000000 0.020878 0.000000 0.059112
#
#
# Mechanical properties :
#
#
# Convention : Reuss Voigt Hill
#
# Bulk Modulus (GPa) = 47.15997 56.52897 51.84447
# Shear Modulus (GPa) = 24.77819 32.07295 28.42557
#
# Velocity S-wave (km/s) = 3.43289 3.90566 3.67688
# Velocity P-wave (km/s) = 6.17598 6.87202 6.53328
#
# Compressibility (1/GPa) = 0.02120442
#
# Stress axis : x y z
#
# Youngs Moduli (GPa) = 53.77290 83.15402 113.10724
#
# Poissons Ratio (x) = 0.38068 0.07916
# Poissons Ratio (y) = 0.24617 0.43567
# Poissons Ratio (z) = 0.03763 0.32029
#
# Static dielectric constant tensor:
#      x y z
#    x 1.965910 0.000000 -0.028770 
#    y 0.000000 1.778600 0.000000 
#    z -0.028770 0.000000 1.790740 
# 
# From -- ./inp_files/158916.got.cif
#   From: 2010.05.17/outbox.cif.g08.bks.cpg/sg15_80_cif.got.tgz:158916.got - 2010.06.03 18:47:42.
