data_PCOD9285827
_publ_section_title
;
Structure prediction by ZEFSAII (Michael W. Deem and Ramdas Pophale) SiO2 
 PCOD9285827
Probable space group: C 2/C
;
_chemical_formula_sum "Si O2"
_cell_formula_units_Z 44
_cell_length_a 25.567035
_cell_length_b 16.066577
_cell_length_c 7.637627
_cell_angle_alpha 90.000000
_cell_angle_beta 145.997949
_cell_angle_gamma 90.000000
_cell_volume 1754.473728
_symmetry_space_group_name_H-M "C 2/C"
_symmetry_group_IT_number 15
_symmetry_cell_setting 'monoclinic'
loop_
_space_group_symop_operation_xyz
x,y,z
-x,y,1/2-z
-x,-y,-z
x,-y,1/2+z
1/2+x,1/2+y,z
1/2-x,1/2+y,1/2-z
1/2-x,1/2-y,-z
1/2+x,1/2-y,1/2+z
loop_
_atom_site_type_symbol
_atom_site_label
_atom_site_fract_x
_atom_site_fract_y
_atom_site_fract_z
Si Si1 0.829913 0.449844 0.871870
Si Si2 0.698273 0.444138 0.818074
Si Si3 0.243606 0.796112 0.167088
Si Si4 0.500000 0.374587 0.250000
Si Si5 0.949817 0.747601 0.795609
Si Si6 0.083771 0.383311 0.724895
O O1 0.776432 0.416485 0.894031
O O2 0.738959 0.468699 0.495061
O O3 0.896137 0.402829 0.921413
O O4 0.888909 0.532861 0.094132
O O5 0.709632 0.388490 0.022862
O O6 0.592093 0.430330 0.466088
O O7 0.160872 0.754312 0.043350
O O8 0.250000 0.750000 0.000000
O O9 0.345022 0.809060 0.526918
O O10 0.522755 0.315370 0.479450
O O11 0.000000 0.762515 0.750000
O O12 0.982632 0.658245 0.966688
#
# Coordination Sequence:
#
# PCOD9285827 Si02
#       6
#     8   8   8   4   8   8
#     4   9  20  38  65  92 124 179 217 259 331 394
#     4   9  19  36  60  89 124 169 221 263 336 385
#     4  10  22  40  67  92 129 176 213 278 333 382
#     4  10  22  42  60  92 138 166 210 300 318 382
#     4  11  25  41  65 104 127 172 226 266 341 392
#     4  10  21  42  67  94 133 171 219 274 320 397
#
# _framework density 25.078747
#
# number of rings (size 3 to 8) (size 9 to 14) (size 15 to 20)
#    0.000    2.182    0.000    2.182    5.091    1.455 
#    3.273    0.909    0.000    0.000    0.000    0.000 
#    0.000    0.000    0.000    0.000    0.000    0.000 
#
# Total GULP energy -122931.269230 kJ/mol
# GULP energy per Si atom -5587.784965 kJ/mol
# Density = 2.502167 g / cm^3
# Si number density = 25.078747 Si / 1000 Ang^3
#
#
#
# Elastic Constant Matrix: (Units=GPa)
#
#
# Indices 1 2 3 4 5 6 
#
# 1 116.1302 27.7369 15.7567 0.0000 1.0114 0.0000
# 2 27.7369 41.2003 30.8341 0.0000 7.6200 0.0000
# 3 15.7567 30.8341 102.3476 0.0000 7.5389 0.0000
# 4 0.0000 0.0000 0.0000 24.2267 0.0000 4.5461
# 5 1.0114 7.6200 7.5389 0.0000 48.6027 0.0000
# 6 0.0000 0.0000 0.0000 4.5461 0.0000 44.4435
#
#
#
# Elastic Compliance Matrix: (Units=1/GPa)
#
#
# Indices 1 2 3 4 5 6 
#
# 1 0.010330 -0.007589 0.000631 0.000000 0.000877 0.000000
# 2 -0.007589 0.037509 -0.009822 0.000000 -0.004199 0.000000
# 3 0.000631 -0.009822 0.012665 0.000000 -0.000438 0.000000
# 4 0.000000 0.000000 0.000000 0.042085 0.000000 -0.004305
# 5 0.000877 -0.004199 -0.000438 0.000000 0.021283 0.000000
# 6 0.000000 0.000000 0.000000 -0.004305 0.000000 0.022941
#
#
# Mechanical properties :
#
#
# Convention : Reuss Voigt Hill
#
# Bulk Modulus (GPa) = 37.11523 45.37040 41.24281
# Shear Modulus (GPa) = 26.40553 35.81127 31.10840
#
# Velocity S-wave (km/s) = 3.24837 3.78293 3.52579
# Velocity P-wave (km/s) = 5.37595 6.10009 5.74943
#
# Compressibility (1/GPa) = 0.02694311
#
# Stress axis : x y z
#
# Youngs Moduli (GPa) = 96.80184 26.66045 78.95864
#
# Poissons Ratio (x) = 0.20234 -0.04986
# Poissons Ratio (y) = 0.73467 0.77557
# Poissons Ratio (z) = -0.06113 0.26187
#
# Static dielectric constant tensor:
#      x y z
#    x 1.941360 0.000000 0.015980 
#    y 0.000000 2.171500 0.000000 
#    z 0.015980 0.000000 2.026900 
# 
# From -- ./inp_files/70540.got.cif
#   From: 2010.05.17/outbox.cif.g08.bks.cpg/sg15_36_cif.got.tgz:70540.got - 2010.06.03 18:47:42.
