data_PCOD9285866
_publ_section_title
;
Structure prediction by ZEFSAII (Michael W. Deem and Ramdas Pophale) SiO2 
 PCOD9285866
Probable space group: C 2/C
;
_chemical_formula_sum "Si O2"
_cell_formula_units_Z 60
_cell_length_a 16.459535
_cell_length_b 7.589461
_cell_length_c 24.288021
_cell_angle_alpha 90.000000
_cell_angle_beta 66.367824
_cell_angle_gamma 90.000000
_cell_volume 2779.594271
_symmetry_space_group_name_H-M "C 2/C"
_symmetry_group_IT_number 15
_symmetry_cell_setting 'monoclinic'
loop_
_space_group_symop_operation_xyz
x,y,z
-x,y,1/2-z
-x,-y,-z
x,-y,1/2+z
1/2+x,1/2+y,z
1/2-x,1/2+y,1/2-z
1/2-x,1/2-y,-z
1/2+x,1/2-y,1/2+z
loop_
_atom_site_type_symbol
_atom_site_label
_atom_site_fract_x
_atom_site_fract_y
_atom_site_fract_z
Si Si1 0.288952 0.833274 0.547076
Si Si2 0.862699 0.313423 0.353285
Si Si3 0.939940 0.541904 0.943106
Si Si4 0.153617 0.868632 0.264784
Si Si5 0.237287 0.108395 0.332870
Si Si6 0.000000 0.081937 0.250000
Si Si7 0.952147 0.102680 0.063759
Si Si8 0.918983 0.242810 0.609654
O O1 0.250000 0.750000 0.500000
O O2 0.200407 0.843652 0.606488
O O3 0.356294 0.980979 0.506788
O O4 0.352527 0.733490 0.574885
O O5 0.901572 0.422299 0.393617
O O6 0.804278 0.458293 0.336974
O O7 0.939904 0.215534 0.301114
O O8 0.993926 0.718991 0.943298
O O9 0.007225 0.383009 0.924446
O O10 0.211828 0.782446 0.200677
O O11 0.131003 0.725411 0.319237
O O12 0.200441 0.023392 0.286454
O O13 0.066027 0.953284 0.263872
O O14 0.154051 0.140971 0.397722
O O15 0.963554 0.948426 0.105651
O O16 0.000000 0.000000 0.000000
#
# Coordination Sequence:
#
# PCOD9285866 Si02
#       8
#     8   8   8   8   8   4   8   8
#     4  10  21  42  67  99 134 175 224 284 342 413
#     4  11  23  44  68  94 135 179 225 277 352 401
#     4  11  24  40  75  98 133 182 223 283 349 403
#     4  11  26  43  66  97 140 174 235 283 343 412
#     4  11  24  43  68  98 136 182 225 286 344 412
#     4  12  28  44  66 100 140 184 230 290 342 410
#     4  11  22  42  68 102 137 176 229 285 342 412
#     4  11  23  43  68 102 134 177 233 279 341 421
#
# _framework density 21.585882999999999
#
# number of rings (size 3 to 8) (size 9 to 14) (size 15 to 20)
#    0.000    1.067    4.000    2.800    5.600    0.000 
#    0.000    0.000    0.000    4.800    0.000    0.000 
#    0.000    0.000    0.000    0.000    0.000    0.000 
#
# Total GULP energy -167038.628121 kJ/mol
# GULP energy per Si atom -5567.954271 kJ/mol
# Density = 2.153675 g / cm^3
# Si number density = 21.585883 Si / 1000 Ang^3
#
#
#
# Elastic Constant Matrix: (Units=GPa)
#
#
# Indices 1 2 3 4 5 6 
#
# 1 134.9017 38.8971 55.1478 0.0000 -2.5321 0.0000
# 2 38.8971 58.9244 19.2975 0.0001 -7.7635 -0.0001
# 3 55.1478 19.2975 123.1974 0.0000 -26.5606 0.0000
# 4 0.0000 0.0001 0.0000 47.3125 0.0000 -24.8374
# 5 -2.5321 -7.7635 -26.5606 0.0000 45.7026 0.0000
# 6 0.0000 -0.0001 0.0000 -24.8374 0.0000 42.8162
#
#
#
# Elastic Compliance Matrix: (Units=1/GPa)
#
#
# Indices 1 2 3 4 5 6 
#
# 1 0.011035 -0.006176 -0.004649 0.000000 -0.003140 0.000000
# 2 -0.006176 0.021449 0.000133 0.000000 0.003379 0.000000
# 3 -0.004649 0.000133 0.011577 0.000000 0.006493 0.000000
# 4 0.000000 0.000000 0.000000 0.030391 0.000000 0.017630
# 5 -0.003140 0.003379 0.006493 0.000000 0.026054 0.000000
# 6 0.000000 0.000000 0.000000 0.017630 0.000000 0.033582
#
#
# Mechanical properties :
#
#
# Convention : Reuss Voigt Hill
#
# Bulk Modulus (GPa) = 44.09558 60.41203 52.25380
# Shear Modulus (GPa) = 30.66881 40.74499 35.70690
#
# Velocity S-wave (km/s) = 3.77341 4.34934 4.07157
# Velocity P-wave (km/s) = 6.28150 7.29862 6.80908
#
# Compressibility (1/GPa) = 0.02267801
#
# Stress axis : x y z
#
# Youngs Moduli (GPa) = 90.61965 46.62211 86.37574
#
# Poissons Ratio (x) = 0.28792 0.40159
# Poissons Ratio (y) = 0.55962 -0.01149
# Poissons Ratio (z) = 0.42132 -0.00620
#
# Static dielectric constant tensor:
#      x y z
#    x 1.776700 0.000000 -0.037470 
#    y 0.000000 1.784920 0.000000 
#    z -0.037470 0.000000 1.870540 
# 
# From -- ./inp_files/273137.got.cif
#   From: 2010.05.17/outbox.cif.g08.bks.cpg/sg15_137_cif.got.tgz:273137.got - 2010.06.03 18:47:42.
