data_PCOD9285471
_publ_section_title
;
Structure prediction by ZEFSAII (Michael W. Deem and Ramdas Pophale) SiO2 
 PCOD9285471
Probable space group: C 2/C
;
_chemical_formula_sum "Si O2"
_cell_formula_units_Z 56
_cell_length_a 13.133329
_cell_length_b 9.208214
_cell_length_c 30.155735
_cell_angle_alpha 90.000000
_cell_angle_beta 130.789098
_cell_angle_gamma 90.000000
_cell_volume 2761.115057
_symmetry_space_group_name_H-M "C 2/C"
_symmetry_group_IT_number 15
_symmetry_cell_setting 'monoclinic'
loop_
_space_group_symop_operation_xyz
x,y,z
-x,y,1/2-z
-x,-y,-z
x,-y,1/2+z
1/2+x,1/2+y,z
1/2-x,1/2+y,1/2-z
1/2-x,1/2-y,-z
1/2+x,1/2-y,1/2+z
loop_
_atom_site_type_symbol
_atom_site_label
_atom_site_fract_x
_atom_site_fract_y
_atom_site_fract_z
Si Si1 0.450375 0.639085 0.055582
Si Si2 0.189216 0.603783 0.928697
Si Si3 0.086262 0.125001 0.640841
Si Si4 0.153125 0.353780 0.071303
Si Si5 0.533628 0.110913 0.444418
Si Si6 0.441853 0.293325 0.187261
Si Si7 0.630070 0.956677 0.312739
O O1 0.377321 0.760428 0.064790
O O2 0.490555 0.505445 0.097570
O O3 0.581874 0.711515 0.071433
O O4 0.345171 0.599539 0.986925
O O5 0.117574 0.461518 0.928567
O O6 0.161841 0.614541 0.869129
O O7 0.237800 0.067590 0.679190
O O8 0.052160 0.255451 0.597573
O O9 0.049769 0.182409 0.679190
O O10 0.304453 0.364542 0.130870
O O11 0.067045 0.489568 0.064788
O O12 0.134394 0.349534 0.013074
O O13 0.500000 0.352567 0.250000
O O14 0.403554 0.125001 0.185703
O O15 0.500000 0.897435 0.250000
#
# Coordination Sequence:
#
# PCOD9285471 Si02
#       7
#     8   8   8   8   8   8   8
#     4  10  22  37  68  97 132 173 216 275 346 387
#     4  10  21  42  61  97 138 169 216 282 325 403
#     4  12  24  42  70  98 121 178 222 266 344 404
#     4  10  21  42  61  97 138 169 216 282 325 403
#     4  10  22  37  68  97 132 173 216 275 346 387
#     4  11  25  45  66  96 134 175 221 280 327 403
#     4  11  25  45  66  96 134 175 221 280 327 403
#
# _framework density 20.281661
#
# number of rings (size 3 to 8) (size 9 to 14) (size 15 to 20)
#    0.000    1.429    2.857    1.714    2.000    8.000 
#    0.000    1.429    0.000    0.000    0.000    0.000 
#    0.000    0.000    0.000    0.000    0.000    0.000 
#
# Total GULP energy -156572.375614 kJ/mol
# GULP energy per Si atom -5591.870558 kJ/mol
# Density = 2.023550 g / cm^3
# Si number density = 20.281661 Si / 1000 Ang^3
#
#
#
# Elastic Constant Matrix: (Units=GPa)
#
#
# Indices 1 2 3 4 5 6 
#
# 1 117.3605 20.5992 72.1763 0.0000 0.7193 0.0000
# 2 20.5992 69.0237 15.6268 0.0000 -0.3215 0.0000
# 3 72.1763 15.6268 161.0754 0.0000 2.0896 0.0000
# 4 0.0000 0.0000 0.0000 15.5018 0.0000 -0.2846
# 5 0.7193 -0.3215 2.0896 0.0000 28.2810 0.0000
# 6 0.0000 0.0000 0.0000 -0.2846 0.0000 19.9274
#
#
#
# Elastic Compliance Matrix: (Units=1/GPa)
#
#
# Indices 1 2 3 4 5 6 
#
# 1 0.012154 -0.002448 -0.005209 0.000000 0.000048 0.000000
# 2 -0.002448 0.015308 -0.000392 0.000000 0.000265 0.000000
# 3 -0.005209 -0.000392 0.008587 0.000000 -0.000506 0.000000
# 4 0.000000 0.000000 0.000000 0.064525 0.000000 0.000922
# 5 0.000048 0.000265 -0.000506 0.000000 0.035399 0.000000
# 6 0.000000 0.000000 0.000000 0.000922 0.000000 0.050195
#
#
# Mechanical properties :
#
#
# Convention : Reuss Voigt Hill
#
# Bulk Modulus (GPa) = 50.12073 62.69603 56.40838
# Shear Modulus (GPa) = 23.93308 28.67919 26.30614
#
# Velocity S-wave (km/s) = 3.43889 3.76446 3.60535
# Velocity P-wave (km/s) = 6.36663 7.06220 6.72341
#
# Compressibility (1/GPa) = 0.01995183
#
# Stress axis : x y z
#
# Youngs Moduli (GPa) = 82.27993 65.32457 116.45500
#
# Poissons Ratio (x) = 0.15988 0.60663
# Poissons Ratio (y) = 0.20138 0.04563
# Poissons Ratio (z) = 0.42860 0.02560
#
# Static dielectric constant tensor:
#      x y z
#    x 1.725890 0.000000 -0.001930 
#    y 0.000000 1.726860 0.000000 
#    z -0.001930 0.000000 1.695910 
# 
# From -- ./inp_files/310388.got.cif
#   From: 2010.05.17/outbox.cif.g08.bks.cpg/sg15_156_cif.got.tgz:310388.got - 2010.06.03 18:47:42.
