data_PCOD9285265
_publ_section_title
;
Structure prediction by ZEFSAII (Michael W. Deem and Ramdas Pophale) SiO2 
 PCOD9285265
Probable space group: C 2/C
;
_chemical_formula_sum "Si O2"
_cell_formula_units_Z 40
_cell_length_a 7.447725
_cell_length_b 12.364097
_cell_length_c 17.036524
_cell_angle_alpha 90.000000
_cell_angle_beta 81.421289
_cell_angle_gamma 90.000000
_cell_volume 1551.246085
_symmetry_space_group_name_H-M "C 2/C"
_symmetry_group_IT_number 15
_symmetry_cell_setting 'monoclinic'
loop_
_space_group_symop_operation_xyz
x,y,z
-x,y,1/2-z
-x,-y,-z
x,-y,1/2+z
1/2+x,1/2+y,z
1/2-x,1/2+y,1/2-z
1/2-x,1/2-y,-z
1/2+x,1/2-y,1/2+z
loop_
_atom_site_type_symbol
_atom_site_label
_atom_site_fract_x
_atom_site_fract_y
_atom_site_fract_z
Si Si1 0.232237 0.920149 0.493146
Si Si2 0.055955 0.116198 0.164129
Si Si3 0.264620 0.191314 0.676495
Si Si4 0.854444 0.791541 0.156595
Si Si5 0.368179 0.857416 0.010005
O O1 0.091141 0.930670 0.574785
O O2 0.160193 0.858371 0.421999
O O3 0.085936 0.645957 0.491758
O O4 0.299645 0.039853 0.466858
O O5 0.095793 0.209538 0.334771
O O6 0.243668 0.180233 0.166133
O O7 0.000000 0.057485 0.250000
O O8 0.244450 0.145747 0.765012
O O9 0.332420 0.113141 0.603964
O O10 0.063114 0.226518 0.664242
O O11 0.250000 0.750000 0.000000
#
# Coordination Sequence:
#
# PCOD9285265 Si02
#       5
#     8   8   8   8   8
#     4  11  24  44  74 103 140 194 236 297 360 428
#     4  10  21  41  69 103 143 185 229 289 356 422
#     4  10  22  40  68 102 145 184 222 296 353 417
#     4  10  21  41  69 106 141 181 239 286 351 429
#     4  11  25  45  71 103 140 186 245 298 358 425
#
# _framework density 25.785723999999998
#
# number of rings (size 3 to 8) (size 9 to 14) (size 15 to 20)
#    0.000    1.600    2.000    1.800    2.800    0.800 
#    3.600    2.000    0.000    4.800    0.000    0.000 
#    0.000    0.000    0.000    0.000    0.000    0.000 
#
# Total GULP energy -111856.311354 kJ/mol
# GULP energy per Si atom -5592.815568 kJ/mol
# Density = 2.572703 g / cm^3
# Si number density = 25.785724 Si / 1000 Ang^3
#
#
#
# Elastic Constant Matrix: (Units=GPa)
#
#
# Indices 1 2 3 4 5 6 
#
# 1 142.2819 19.9678 44.5733 0.0000 -14.4761 0.0000
# 2 19.9678 90.5296 18.3547 0.0000 2.1006 0.0000
# 3 44.5733 18.3547 175.4195 0.0000 -40.2790 0.0000
# 4 0.0000 0.0000 0.0000 -4.2021 0.0000 22.6331
# 5 -14.4761 2.1006 -40.2790 0.0000 46.3679 0.0000
# 6 0.0000 0.0000 0.0000 22.6331 0.0000 17.5564
#
#
#
# Elastic Compliance Matrix: (Units=1/GPa)
#
#
# Indices 1 2 3 4 5 6 
#
# 1 0.007841 -0.001435 -0.001580 0.000000 0.001140 0.000000
# 2 -0.001435 0.011687 -0.001352 0.000000 -0.002152 0.000000
# 3 -0.001580 -0.001352 0.007675 0.000000 0.006235 0.000000
# 4 0.000000 0.000000 0.000000 -0.029958 0.000000 0.038621
# 5 0.001140 -0.002152 0.006235 0.000000 0.027437 0.000000
# 6 0.000000 0.000000 0.000000 0.038621 0.000000 0.007170
#
#
# Mechanical properties :
#
#
# Convention : Reuss Voigt Hill
#
# Bulk Modulus (GPa) = 54.15093 63.78028 58.96560
# Shear Modulus (GPa) = 106.96550 33.63345 70.29947
#
# Velocity S-wave (km/s) = 6.44767 3.61549 5.22706
# Velocity P-wave (km/s) = 8.74505 6.49749 7.70368
#
# Compressibility (1/GPa) = 0.01846690
#
# Stress axis : x y z
#
# Youngs Moduli (GPa) = 127.53755 85.56628 130.28637
#
# Poissons Ratio (x) = 0.12283 0.20590
# Poissons Ratio (y) = 0.18308 0.17618
# Poissons Ratio (z) = 0.20155 0.11571
#
# Static dielectric constant tensor:
#      x y z
#    x 2.011230 0.000000 0.003660 
#    y 0.000000 1.991890 0.000000 
#    z 0.003660 0.000000 2.206120 
# 
# From -- ./inp_files/141835.got.cif
#   From: 2010.05.17/outbox.cif.g08.bks.cpg/sg15_71_cif.got.tgz:141835.got - 2010.06.03 18:47:42.
