data_PCOD9285143
_publ_section_title
;
Structure prediction by ZEFSAII (Michael W. Deem and Ramdas Pophale) SiO2 
 PCOD9285143
Probable space group: C 2/C
;
_chemical_formula_sum "Si O2"
_cell_formula_units_Z 40
_cell_length_a 11.774960
_cell_length_b 24.374367
_cell_length_c 7.925611
_cell_angle_alpha 90.000000
_cell_angle_beta 127.697737
_cell_angle_gamma 90.000000
_cell_volume 1799.856961
_symmetry_space_group_name_H-M "C 2/C"
_symmetry_group_IT_number 15
_symmetry_cell_setting 'monoclinic'
loop_
_space_group_symop_operation_xyz
x,y,z
-x,y,1/2-z
-x,-y,-z
x,-y,1/2+z
1/2+x,1/2+y,z
1/2-x,1/2+y,1/2-z
1/2-x,1/2-y,-z
1/2+x,1/2-y,1/2+z
loop_
_atom_site_type_symbol
_atom_site_label
_atom_site_fract_x
_atom_site_fract_y
_atom_site_fract_z
Si Si1 0.134702 0.145562 0.745583
Si Si2 0.987594 0.238500 0.429195
Si Si3 0.186930 0.449148 0.250568
Si Si4 0.143440 0.432043 0.606103
Si Si5 0.299583 0.813270 0.697647
O O1 0.081581 0.183402 0.543898
O O2 0.199521 0.089032 0.739732
O O3 0.000000 0.138489 0.750000
O O4 0.251724 0.179188 0.961001
O O5 0.055678 0.282256 0.619508
O O6 0.000000 0.259294 0.250000
O O7 0.827564 0.219927 0.326271
O O8 0.177630 0.434474 0.438813
O O9 0.211315 0.514032 0.252373
O O10 0.028965 0.437094 0.029880
O O11 0.193990 0.375171 0.728184
#
# Coordination Sequence:
#
# PCOD9285143 Si02
#       5
#     8   8   8   8   8
#     4  10  23  43  64  96 133 171 215 264 324 391
#     4  11  24  41  64  92 132 174 221 267 322 385
#     4  10  21  41  67  96 131 166 215 267 328 382
#     4  10  22  39  67  98 126 169 215 269 323 387
#     4  11  24  41  63  96 133 170 221 264 325 384
#
# _framework density 22.223989
#
# number of rings (size 3 to 8) (size 9 to 14) (size 15 to 20)
#    0.000    1.600    0.000    3.600    5.600    2.400 
#    0.000   10.000    0.000    0.000    0.000    0.000 
#    0.000    0.000    0.000    0.000    0.000    0.000 
#
# Total GULP energy -111988.528279 kJ/mol
# GULP energy per Si atom -5599.426414 kJ/mol
# Density = 2.217341 g / cm^3
# Si number density = 22.223989 Si / 1000 Ang^3
#
#
#
# Elastic Constant Matrix: (Units=GPa)
#
#
# Indices 1 2 3 4 5 6 
#
# 1 73.8817 62.7319 33.0783 0.0000 18.2206 0.0000
# 2 62.7319 121.7023 27.3291 0.0000 10.5080 0.0000
# 3 33.0783 27.3291 76.4228 0.0000 5.2506 0.0000
# 4 0.0000 0.0000 0.0000 42.6397 0.0000 1.5345
# 5 18.2206 10.5080 5.2506 0.0000 19.0503 0.0000
# 6 0.0000 0.0000 0.0000 1.5345 0.0000 34.3016
#
#
#
# Elastic Compliance Matrix: (Units=1/GPa)
#
#
# Indices 1 2 3 4 5 6 
#
# 1 0.035218 -0.014205 -0.008550 0.000000 -0.023492 0.000000
# 2 -0.014205 0.014994 0.000430 0.000000 0.005198 0.000000
# 3 -0.008550 0.000430 0.016397 0.000000 0.003421 0.000000
# 4 0.000000 0.000000 0.000000 0.023490 0.000000 -0.001051
# 5 -0.023492 0.005198 0.003421 0.000000 0.071152 0.000000
# 6 0.000000 0.000000 0.000000 -0.001051 0.000000 0.029200
#
#
# Mechanical properties :
#
#
# Convention : Reuss Voigt Hill
#
# Bulk Modulus (GPa) = 45.54102 57.58726 51.56414
# Shear Modulus (GPa) = 20.62535 29.12280 24.87408
#
# Velocity S-wave (km/s) = 3.04972 3.62390 3.34914
# Velocity P-wave (km/s) = 5.73911 6.59384 6.18127
#
# Compressibility (1/GPa) = 0.02195823
#
# Stress axis : x y z
#
# Youngs Moduli (GPa) = 28.39476 66.69550 60.98654
#
# Poissons Ratio (x) = 0.94740 0.52142
# Poissons Ratio (y) = 0.40334 -0.02619
# Poissons Ratio (z) = 0.24277 -0.02865
#
# Static dielectric constant tensor:
#      x y z
#    x 1.791520 0.000000 0.023660 
#    y 0.000000 1.788880 0.000000 
#    z 0.023660 0.000000 1.808640 
# 
# From -- ./inp_files/41857.got.cif
#   From: 2010.05.17/outbox.cif.g08.bks.cpg/sg15_21_cif.got.tgz:41857.got - 2010.06.03 18:47:42.
