data_PCOD9285552
_publ_section_title
;
Structure prediction by ZEFSAII (Michael W. Deem and Ramdas Pophale) SiO2 
 PCOD9285552
Probable space group: C 2/C
;
_chemical_formula_sum "Si O2"
_cell_formula_units_Z 40
_cell_length_a 4.888665
_cell_length_b 25.244240
_cell_length_c 14.760987
_cell_angle_alpha 90.000000
_cell_angle_beta 123.445892
_cell_angle_gamma 90.000000
_cell_volume 1520.007559
_symmetry_space_group_name_H-M "C 2/C"
_symmetry_group_IT_number 15
_symmetry_cell_setting 'monoclinic'
loop_
_space_group_symop_operation_xyz
x,y,z
-x,y,1/2-z
-x,-y,-z
x,-y,1/2+z
1/2+x,1/2+y,z
1/2-x,1/2+y,1/2-z
1/2-x,1/2-y,-z
1/2+x,1/2-y,1/2+z
loop_
_atom_site_type_symbol
_atom_site_label
_atom_site_fract_x
_atom_site_fract_y
_atom_site_fract_z
Si Si1 0.233272 0.729076 0.863451
Si Si2 0.011861 0.463075 0.861412
Si Si3 0.128427 0.415758 0.171976
Si Si4 0.715198 0.298055 0.594288
Si Si5 0.113120 0.097744 0.437209
O O1 0.413730 0.779425 0.848823
O O2 0.000000 0.700009 0.750000
O O3 0.983977 0.751992 0.891593
O O4 0.538097 0.699072 0.963617
O O5 0.000000 0.458179 0.750000
O O6 0.901297 0.522575 0.865562
O O7 0.385457 0.445001 0.947868
O O8 0.776893 0.425510 0.877220
O O9 0.500000 0.398063 0.250000
O O10 0.000000 0.416461 0.250000
O O11 0.907589 0.385563 0.058435
O O12 0.628832 0.353278 0.624166
#
# Coordination Sequence:
#
# PCOD9285552 Si02
#       5
#     8   8   8   8   8
#     4  10  21  42  64  86 123 162 191 245 313 374
#     4  11  23  40  61  89 126 170 214 258 315 376
#     4  11  23  41  62  89 125 170 218 259 313 377
#     4  10  23  39  62  94 119 152 208 246 300 387
#     4  12  23  40  64  92 126 161 209 271 316 361
#
# _framework density 26.315659
#
# number of rings (size 3 to 8) (size 9 to 14) (size 15 to 20)
#    0.000    1.200    0.000    7.200    0.000    4.000 
#    0.000    5.000    0.000    0.000    0.000    0.000 
#    0.000    0.000    0.000    0.000    0.000    0.000 
#
# Total GULP energy -112041.363896 kJ/mol
# GULP energy per Si atom -5602.068195 kJ/mol
# Density = 2.625576 g / cm^3
# Si number density = 26.315659 Si / 1000 Ang^3
#
#
#
# Elastic Constant Matrix: (Units=GPa)
#
#
# Indices 1 2 3 4 5 6 
#
# 1 160.4407 14.8302 8.5734 0.0000 3.0045 0.0000
# 2 14.8302 79.6835 -3.4823 0.0000 -5.9244 0.0000
# 3 8.5734 -3.4823 103.7917 0.0000 28.0707 0.0000
# 4 0.0000 0.0000 0.0000 18.3070 0.0000 1.1267
# 5 3.0045 -5.9244 28.0707 0.0000 45.1455 0.0000
# 6 0.0000 0.0000 0.0000 1.1267 0.0000 37.5952
#
#
#
# Elastic Compliance Matrix: (Units=1/GPa)
#
#
# Indices 1 2 3 4 5 6 
#
# 1 0.006378 -0.001229 -0.000492 0.000000 -0.000280 0.000000
# 2 -0.001229 0.012910 0.000065 0.000000 0.001735 0.000000
# 3 -0.000492 0.000065 0.011620 0.000000 -0.007184 0.000000
# 4 0.000000 0.000000 0.000000 0.054725 0.000000 -0.001640
# 5 -0.000280 0.001735 -0.007184 0.000000 0.026864 0.000000
# 6 0.000000 0.000000 0.000000 -0.001640 0.000000 0.026648
#
#
# Mechanical properties :
#
#
# Convention : Reuss Voigt Hill
#
# Bulk Modulus (GPa) = 36.23723 42.63984 39.43854
# Shear Modulus (GPa) = 32.96903 41.80917 37.38910
#
# Velocity S-wave (km/s) = 3.54337 3.99024 3.77343
# Velocity P-wave (km/s) = 5.52637 6.12109 5.83132
#
# Compressibility (1/GPa) = 0.02759593
#
# Stress axis : x y z
#
# Youngs Moduli (GPa) = 156.78854 77.45740 86.05482
#
# Poissons Ratio (x) = 0.09522 0.04238
# Poissons Ratio (y) = 0.19275 -0.00562
# Poissons Ratio (z) = 0.07721 -0.00506
#
# Static dielectric constant tensor:
#      x y z
#    x 1.962470 0.000000 0.016180 
#    y 0.000000 2.120110 0.000000 
#    z 0.016180 0.000000 2.173190 
# 
# From -- ./inp_files/130548.got.cif
#   From: 2010.05.17/outbox.cif.g08.bks.cpg/sg15_66_cif.got.tgz:130548.got - 2010.06.03 18:47:42.
