data_PCOD9285913
_publ_section_title
;
Structure prediction by ZEFSAII (Michael W. Deem and Ramdas Pophale) SiO2 
 PCOD9285913
Probable space group: C 2/C
;
_chemical_formula_sum "Si O2"
_cell_formula_units_Z 40
_cell_length_a 7.550904
_cell_length_b 35.911243
_cell_length_c 9.371860
_cell_angle_alpha 90.000000
_cell_angle_beta 53.772479
_cell_angle_gamma 90.000000
_cell_volume 2050.003495
_symmetry_space_group_name_H-M "C 2/C"
_symmetry_group_IT_number 15
_symmetry_cell_setting 'monoclinic'
loop_
_space_group_symop_operation_xyz
x,y,z
-x,y,1/2-z
-x,-y,-z
x,-y,1/2+z
1/2+x,1/2+y,z
1/2-x,1/2+y,1/2-z
1/2-x,1/2-y,-z
1/2+x,1/2-y,1/2+z
loop_
_atom_site_type_symbol
_atom_site_label
_atom_site_fract_x
_atom_site_fract_y
_atom_site_fract_z
Si Si1 0.713752 0.704666 0.244521
Si Si2 0.760989 0.873714 0.619276
Si Si3 0.500000 0.340331 0.250000
Si Si4 0.877172 0.285222 0.154806
Si Si5 0.736256 0.456285 0.863675
Si Si6 0.000000 0.009089 0.750000
O O1 0.500000 0.708922 0.250000
O O2 0.683211 0.665011 0.331395
O O3 0.706880 0.743178 0.335775
O O4 0.939215 0.704492 0.048762
O O5 0.500000 0.875514 0.750000
O O6 0.837979 0.913934 0.636581
O O7 0.857185 0.866745 0.417928
O O8 0.673165 0.313344 0.247335
O O9 0.000000 0.286950 0.250000
O O10 0.654020 0.483393 0.777224
O O11 0.000000 0.457999 0.750000
O O12 0.635116 0.467683 0.066303
#
# Coordination Sequence:
#
# PCOD9285913 Si02
#       6
#     8   8   4   8   8   4
#     4  11  22  39  59  84 123 158 213 257 303 359
#     4  11  23  39  59  91 123 159 196 255 305 360
#     4  12  23  40  62  84 128 160 212 250 308 358
#     4  11  23  39  59  87 115 168 212 258 302 356
#     4  10  22  40  66  94 128 158 203 247 306 366
#     4  10  21  42  68  94 120 164 202 242 304 374
#
# _framework density 19.512162
#
# number of rings (size 3 to 8) (size 9 to 14) (size 15 to 20)
#    0.000    1.200    2.000    6.000    2.800    1.600 
#    0.000    0.000    0.000    0.000    0.000    0.000 
#    0.000    0.000    0.000    0.000    0.000    0.000 
#
# Total GULP energy -111599.390280 kJ/mol
# GULP energy per Si atom -5579.969514 kJ/mol
# Density = 1.946775 g / cm^3
# Si number density = 19.512162 Si / 1000 Ang^3
#
#
#
# Elastic Constant Matrix: (Units=GPa)
#
#
# Indices 1 2 3 4 5 6 
#
# 1 60.2807 14.0512 26.1958 0.0000 -9.0572 0.0000
# 2 14.0512 95.9825 42.7215 0.0000 -3.1799 0.0000
# 3 26.1958 42.7215 135.9535 0.0000 -3.5409 0.0000
# 4 0.0000 0.0000 0.0000 28.5416 0.0000 3.8987
# 5 -9.0572 -3.1799 -3.5409 0.0000 27.8161 0.0000
# 6 0.0000 0.0000 0.0000 3.8987 0.0000 35.8709
#
#
#
# Elastic Compliance Matrix: (Units=1/GPa)
#
#
# Indices 1 2 3 4 5 6 
#
# 1 0.019093 -0.001204 -0.003153 0.000000 0.005678 0.000000
# 2 -0.001204 0.012211 -0.003591 0.000000 0.000547 0.000000
# 3 -0.003153 -0.003591 0.009084 0.000000 -0.000281 0.000000
# 4 0.000000 0.000000 0.000000 0.035565 0.000000 -0.003865
# 5 0.005678 0.000547 -0.000281 0.000000 0.037826 0.000000
# 6 0.000000 0.000000 0.000000 -0.003865 0.000000 0.028298
#
#
# Mechanical properties :
#
#
# Convention : Reuss Voigt Hill
#
# Bulk Modulus (GPa) = 40.82764 50.90595 45.86680
# Shear Modulus (GPa) = 30.09585 32.39558 31.24571
#
# Velocity S-wave (km/s) = 3.93162 4.07907 4.00602
# Velocity P-wave (km/s) = 6.44824 6.95205 6.70488
#
# Compressibility (1/GPa) = 0.02449321
#
# Stress axis : x y z
#
# Youngs Moduli (GPa) = 52.37579 81.89158 110.08296
#
# Poissons Ratio (x) = 0.09857 0.34706
# Poissons Ratio (y) = 0.06304 0.39531
# Poissons Ratio (z) = 0.16513 0.29408
#
# Static dielectric constant tensor:
#      x y z
#    x 1.681580 0.000000 0.041320 
#    y 0.000000 1.720860 0.000000 
#    z 0.041320 0.000000 1.699860 
# 
# From -- ./inp_files/82028.got.cif
#   From: 2010.05.17/outbox.cif.g08.bks.cpg/sg15_42_cif.got.tgz:82028.got - 2010.06.03 18:47:42.
