data_PCOD9285028
_publ_section_title
;
Structure prediction by ZEFSAII (Michael W. Deem and Ramdas Pophale) SiO2 
 PCOD9285028
Probable space group: C 2/C
;
_chemical_formula_sum "Si O2"
_cell_formula_units_Z 40
_cell_length_a 14.646320
_cell_length_b 10.688530
_cell_length_c 18.864792
_cell_angle_alpha 90.000000
_cell_angle_beta 38.416823
_cell_angle_gamma 90.000000
_cell_volume 1835.077011
_symmetry_space_group_name_H-M "C 2/C"
_symmetry_group_IT_number 15
_symmetry_cell_setting 'monoclinic'
loop_
_space_group_symop_operation_xyz
x,y,z
-x,y,1/2-z
-x,-y,-z
x,-y,1/2+z
1/2+x,1/2+y,z
1/2-x,1/2+y,1/2-z
1/2-x,1/2-y,-z
1/2+x,1/2-y,1/2+z
loop_
_atom_site_type_symbol
_atom_site_label
_atom_site_fract_x
_atom_site_fract_y
_atom_site_fract_z
Si Si1 0.179213 0.376718 0.015046
Si Si2 0.408590 0.224880 0.489640
Si Si3 0.632258 0.809552 0.328691
Si Si4 0.184001 0.419493 0.843219
Si Si5 0.382507 0.403153 0.382689
O O1 0.189351 0.405452 0.924577
O O2 0.284131 0.487990 0.978297
O O3 0.250000 0.250000 0.000000
O O4 0.006089 0.355493 0.133684
O O5 0.423277 0.252669 0.563656
O O6 0.519709 0.108877 0.414695
O O7 0.452642 0.326730 0.404923
O O8 0.239868 0.187631 0.578224
O O9 0.720957 0.697406 0.240266
O O10 0.716019 0.938716 0.299206
O O11 0.500000 0.440173 0.250000
#
# Coordination Sequence:
#
# PCOD9285028 Si02
#       5
#     8   8   8   8   8
#     4  11  25  42  63  96 136 170 216 275 333 391
#     4  10  21  41  66  96 126 166 222 272 315 390
#     4  11  23  44  69  95 134 177 221 272 327 392
#     4  11  23  44  68  94 132 179 221 267 330 391
#     4  11  22  39  68  97 130 168 216 271 330 385
#
# _framework density 21.797450000000001
#
# number of rings (size 3 to 8) (size 9 to 14) (size 15 to 20)
#    0.000    1.200    4.000    2.400    2.800    1.600 
#    0.000    4.000    0.000    0.000    0.000    0.000 
#    0.000    0.000    0.000    0.000    0.000    0.000 
#
# Total GULP energy -111459.253100 kJ/mol
# GULP energy per Si atom -5572.962655 kJ/mol
# Density = 2.174784 g / cm^3
# Si number density = 21.797450 Si / 1000 Ang^3
#
#
#
# Elastic Constant Matrix: (Units=GPa)
#
#
# Indices 1 2 3 4 5 6 
#
# 1 61.9066 43.1115 5.8403 0.0000 -13.9478 0.0000
# 2 43.1115 123.2628 45.4584 0.0000 8.2707 0.0000
# 3 5.8403 45.4584 74.7583 0.0000 -18.5763 0.0000
# 4 0.0000 0.0000 0.0000 48.0791 0.0000 -10.5260
# 5 -13.9478 8.2707 -18.5763 0.0000 21.8057 0.0000
# 6 0.0000 0.0000 0.0000 -10.5260 0.0000 31.9716
#
#
#
# Elastic Compliance Matrix: (Units=1/GPa)
#
#
# Indices 1 2 3 4 5 6 
#
# 1 0.077358 -0.056724 0.058467 0.000000 0.120804 0.000000
# 2 -0.056724 0.055227 -0.055018 0.000000 -0.104100 0.000000
# 3 0.058467 -0.055018 0.071978 0.000000 0.119584 0.000000
# 4 0.000000 0.000000 0.000000 0.022415 0.000000 0.007380
# 5 0.120804 -0.104100 0.119584 0.000000 0.264490 0.000000
# 6 0.000000 0.000000 0.000000 0.007380 0.000000 0.033707
#
#
# Mechanical properties :
#
#
# Convention : Reuss Voigt Hill
#
# Bulk Modulus (GPa) = 10.20271 49.86092 30.03182
# Shear Modulus (GPa) = 7.52563 31.40577 19.46570
#
# Velocity S-wave (km/s) = 1.86011 3.79991 2.99160
# Velocity P-wave (km/s) = 3.05028 6.49436 5.07350
#
# Compressibility (1/GPa) = 0.09801313
#
# Stress axis : x y z
#
# Youngs Moduli (GPa) = 12.92697 18.10701 13.89304
#
# Poissons Ratio (x) = 1.02710 -0.81228
# Poissons Ratio (y) = 0.73327 0.76437
# Poissons Ratio (z) = -0.75580 0.99621
#
# Static dielectric constant tensor:
#      x y z
#    x 1.845870 0.000000 -0.056180 
#    y 0.000000 1.841140 0.000000 
#    z -0.056180 0.000000 1.833010 
# 
# From -- ./inp_files/94676.got.cif
#   From: 2010.05.17/outbox.cif.g08.bks.cpg/sg15_48_cif.got.tgz:94676.got - 2010.06.03 18:47:42.
