data_PCOD9285242
_publ_section_title
;
Structure prediction by ZEFSAII (Michael W. Deem and Ramdas Pophale) SiO2 
 PCOD9285242
Probable space group: C 2/C
;
_chemical_formula_sum "Si O2"
_cell_formula_units_Z 52
_cell_length_a 13.491472
_cell_length_b 11.426182
_cell_length_c 16.982518
_cell_angle_alpha 90.000000
_cell_angle_beta 115.448742
_cell_angle_gamma 90.000000
_cell_volume 2363.937072
_symmetry_space_group_name_H-M "C 2/C"
_symmetry_group_IT_number 15
_symmetry_cell_setting 'monoclinic'
loop_
_space_group_symop_operation_xyz
x,y,z
-x,y,1/2-z
-x,-y,-z
x,-y,1/2+z
1/2+x,1/2+y,z
1/2-x,1/2+y,1/2-z
1/2-x,1/2-y,-z
1/2+x,1/2-y,1/2+z
loop_
_atom_site_type_symbol
_atom_site_label
_atom_site_fract_x
_atom_site_fract_y
_atom_site_fract_z
Si Si1 0.379270 0.454466 0.728253
Si Si2 0.222675 0.367136 0.539908
Si Si3 0.507843 0.771762 0.531856
Si Si4 0.000000 0.589618 0.250000
Si Si5 0.139799 0.797187 0.221990
Si Si6 0.665805 0.917733 0.924996
Si Si7 0.168242 0.817344 0.641851
O O1 0.500000 0.409828 0.750000
O O2 0.297812 0.391379 0.640876
O O3 0.381509 0.595140 0.726779
O O4 0.345592 0.427585 0.806139
O O5 0.250000 0.250000 0.500000
O O6 0.098073 0.359742 0.528306
O O7 0.232684 0.482821 0.491172
O O8 0.580563 0.690469 0.616431
O O9 0.409868 0.837154 0.545204
O O10 0.447175 0.712889 0.437294
O O11 0.919537 0.677840 0.269393
O O12 0.922371 0.522152 0.164040
O O13 0.270041 0.775104 0.279106
O O14 0.748855 0.841203 0.901733
#
# Coordination Sequence:
#
# PCOD9285242 Si02
#       7
#     8   8   8   4   8   8   8
#     4  12  26  44  68  96 139 181 220 283 353 401
#     4  12  27  47  63 101 142 183 226 280 346 415
#     4  11  23  45  70  98 139 176 225 283 338 408
#     4   8  18  42  66  98 126 170 224 282 316 398
#     4  10  21  41  68  99 130 169 229 278 329 403
#     4  10  23  42  73  98 131 177 230 278 338 402
#     4  11  24  43  69 102 130 176 231 278 339 405
#
# _framework density 21.997202000000001
#
# number of rings (size 3 to 8) (size 9 to 14) (size 15 to 20)
#    0.000    1.231    2.308    2.769    4.308    0.615 
#    4.154    0.000    0.000    0.000    0.000    0.000 
#    0.000    0.000    0.000    0.000    0.000    0.000 
#
# Total GULP energy -145034.493312 kJ/mol
# GULP energy per Si atom -5578.249743 kJ/mol
# Density = 2.194714 g / cm^3
# Si number density = 21.997202 Si / 1000 Ang^3
#
#
#
# Elastic Constant Matrix: (Units=GPa)
#
#
# Indices 1 2 3 4 5 6 
#
# 1 63.9049 7.8793 12.9911 0.0000 10.2375 0.0000
# 2 7.8793 51.1181 39.5074 0.0000 4.4684 0.0000
# 3 12.9911 39.5074 158.1340 0.0000 29.0008 0.0000
# 4 0.0000 0.0000 0.0000 22.8871 0.0000 -1.5431
# 5 10.2375 4.4684 29.0008 0.0000 33.6962 0.0000
# 6 0.0000 0.0000 0.0000 -1.5431 0.0000 36.5049
#
#
#
# Elastic Compliance Matrix: (Units=1/GPa)
#
#
# Indices 1 2 3 4 5 6 
#
# 1 0.016680 -0.002199 0.000065 0.000000 -0.004832 0.000000
# 2 -0.002199 0.024695 -0.006544 0.000000 0.003025 0.000000
# 3 0.000065 -0.006544 0.009259 0.000000 -0.007121 0.000000
# 4 0.000000 0.000000 0.000000 0.043818 0.000000 0.001852
# 5 -0.004832 0.003025 -0.007121 0.000000 0.036873 0.000000
# 6 0.000000 0.000000 0.000000 0.001852 0.000000 0.027472
#
#
# Mechanical properties :
#
#
# Convention : Reuss Voigt Hill
#
# Bulk Modulus (GPa) = 30.04912 43.76809 36.90861
# Shear Modulus (GPa) = 26.70311 32.80293 29.75302
#
# Velocity S-wave (km/s) = 3.48793 3.86584 3.68174
# Velocity P-wave (km/s) = 5.46909 6.31400 5.90667
#
# Compressibility (1/GPa) = 0.03327884
#
# Stress axis : x y z
#
# Youngs Moduli (GPa) = 59.95109 40.49484 108.00083
#
# Poissons Ratio (x) = 0.08906 -0.00706
# Poissons Ratio (y) = 0.13184 0.70673
# Poissons Ratio (z) = -0.00392 0.26499
#
# Static dielectric constant tensor:
#      x y z
#    x 1.815150 0.000000 -0.020980 
#    y 0.000000 1.803760 0.000000 
#    z -0.020980 0.000000 1.915980 
# 
# From -- ./inp_files/204193.got.cif
#   From: 2010.05.17/outbox.cif.g08.bks.cpg/sg15_103_cif.got.tgz:204193.got - 2010.06.03 18:47:42.
