data_PCOD9285002
_publ_section_title
;
Structure prediction by ZEFSAII (Michael W. Deem and Ramdas Pophale) SiO2 
 PCOD9285002
Probable space group: C 2/C
;
_chemical_formula_sum "Si O2"
_cell_formula_units_Z 40
_cell_length_a 11.591347
_cell_length_b 12.895956
_cell_length_c 26.905769
_cell_angle_alpha 90.000000
_cell_angle_beta 26.026007
_cell_angle_gamma 90.000000
_cell_volume 1764.732011
_symmetry_space_group_name_H-M "C 2/C"
_symmetry_group_IT_number 15
_symmetry_cell_setting 'monoclinic'
loop_
_space_group_symop_operation_xyz
x,y,z
-x,y,1/2-z
-x,-y,-z
x,-y,1/2+z
1/2+x,1/2+y,z
1/2-x,1/2+y,1/2-z
1/2-x,1/2-y,-z
1/2+x,1/2-y,1/2+z
loop_
_atom_site_type_symbol
_atom_site_label
_atom_site_fract_x
_atom_site_fract_y
_atom_site_fract_z
Si Si1 0.513038 0.844163 0.483986
Si Si2 0.326455 0.857048 0.193132
Si Si3 0.864468 0.293776 0.904288
Si Si4 0.105174 0.984664 0.616452
Si Si5 0.789755 0.978619 0.038640
O O1 0.594847 0.847710 0.394685
O O2 0.630025 0.737054 0.457393
O O3 0.210792 0.879804 0.600957
O O4 0.670680 0.929254 0.456318
O O5 0.134379 0.764898 0.285336
O O6 0.591431 0.881629 0.121105
O O7 0.149817 0.960363 0.264414
O O8 0.883317 0.416370 0.897065
O O9 0.750000 0.250000 0.000000
O O10 0.084702 0.969795 0.565146
O O11 0.000000 0.000000 0.000000
#
# Coordination Sequence:
#
# PCOD9285002 Si02
#       5
#     8   8   8   8   8
#     4   9  18  35  65  91 123 165 214 264 312 384
#     4  10  21  41  66  93 127 172 220 258 329 394
#     4  11  20  42  65  93 131 169 215 275 318 387
#     4   9  17  37  62  89 125 164 210 262 315 381
#     4  11  24  42  64  93 134 172 208 272 334 387
#
# _framework density 22.666329000000001
#
# number of rings (size 3 to 8) (size 9 to 14) (size 15 to 20)
#    0.000    2.000    4.000    2.400    0.000    0.800 
#   10.800    2.000    0.000    0.000    0.000    0.000 
#    0.000    0.000    0.000    0.000    0.000    0.000 
#
# Total GULP energy -111593.381195 kJ/mol
# GULP energy per Si atom -5579.669060 kJ/mol
# Density = 2.261474 g / cm^3
# Si number density = 22.666329 Si / 1000 Ang^3
#
#
#
# Elastic Constant Matrix: (Units=GPa)
#
#
# Indices 1 2 3 4 5 6 
#
# 1 133.2987 7.4342 27.4398 0.0046 -9.9803 -0.0054
# 2 7.4342 66.8620 11.6791 -0.0060 -6.2139 -0.0012
# 3 27.4398 11.6791 48.4835 0.0195 0.1386 -0.0025
# 4 0.0046 -0.0060 0.0195 33.5136 -0.0151 -2.2422
# 5 -9.9803 -6.2139 0.1386 -0.0151 23.6974 -0.0033
# 6 -0.0054 -0.0012 -0.0025 -2.2422 -0.0033 23.0480
#
#
#
# Elastic Compliance Matrix: (Units=1/GPa)
#
#
# Indices 1 2 3 4 5 6 
#
# 1 0.008815 0.000258 -0.005062 0.000004 0.003810 0.000002
# 2 0.000258 0.016033 -0.004021 0.000007 0.004336 0.000002
# 3 -0.005062 -0.004021 0.024468 -0.000016 -0.003329 -0.000001
# 4 0.000004 0.000007 -0.000016 0.030034 0.000023 0.002922
# 5 0.003810 0.004336 -0.003329 0.000023 0.044960 0.000009
# 6 0.000002 0.000002 -0.000001 0.002922 0.000009 0.043672
#
#
# Mechanical properties :
#
#
# Convention : Reuss Voigt Hill
#
# Bulk Modulus (GPa) = 31.57831 37.97225 34.77528
# Shear Modulus (GPa) = 25.48596 29.52453 27.50524
#
# Velocity S-wave (km/s) = 3.35684 3.61303 3.48729
# Velocity P-wave (km/s) = 5.38392 5.84760 5.62054
#
# Compressibility (1/GPa) = 0.03166731
#
# Stress axis : x y z
#
# Youngs Moduli (GPa) = 113.44557 62.37221 40.86892
#
# Poissons Ratio (x) = -0.01610 0.20688
# Poissons Ratio (y) = -0.02929 0.16432
# Poissons Ratio (z) = 0.57425 0.25077
#
# Static dielectric constant tensor:
#      x y z
#    x 1.877600 0.000030 -0.054790 
#    y 0.000030 1.885270 -0.000030 
#    z -0.054790 -0.000030 1.829180 
# 
# From -- ./inp_files/292620.got.cif
#   From: 2010.05.17/outbox.cif.g08.bks.cpg/sg15_147_cif.got.tgz:292620.got - 2010.06.03 18:47:42.
