data_PCOD9285835
_publ_section_title
;
Structure prediction by ZEFSAII (Michael W. Deem and Ramdas Pophale) SiO2 
 PCOD9285835
Probable space group: C 2/C
;
_chemical_formula_sum "Si O2"
_cell_formula_units_Z 60
_cell_length_a 18.447561
_cell_length_b 8.990658
_cell_length_c 21.684597
_cell_angle_alpha 90.000000
_cell_angle_beta 125.499769
_cell_angle_gamma 90.000000
_cell_volume 2927.986501
_symmetry_space_group_name_H-M "C 2/C"
_symmetry_group_IT_number 15
_symmetry_cell_setting 'monoclinic'
loop_
_space_group_symop_operation_xyz
x,y,z
-x,y,1/2-z
-x,-y,-z
x,-y,1/2+z
1/2+x,1/2+y,z
1/2-x,1/2+y,1/2-z
1/2-x,1/2-y,-z
1/2+x,1/2-y,1/2+z
loop_
_atom_site_type_symbol
_atom_site_label
_atom_site_fract_x
_atom_site_fract_y
_atom_site_fract_z
Si Si1 0.647707 0.783228 0.442709
Si Si2 0.600403 0.163900 0.665371
Si Si3 0.633040 0.348289 0.804759
Si Si4 0.166427 0.413315 0.633037
Si Si5 0.527352 0.286219 0.131901
Si Si6 0.499047 0.591475 0.436858
Si Si7 0.069632 0.473128 0.962255
Si Si8 0.500000 0.375967 0.250000
O O1 0.750000 0.750000 0.500000
O O2 0.615307 0.738620 0.359283
O O3 0.586631 0.687111 0.460946
O O4 0.643225 0.958360 0.454450
O O5 0.603478 0.246188 0.732153
O O6 0.582692 0.294692 0.607831
O O7 0.679337 0.053725 0.685576
O O8 0.516227 0.054567 0.611770
O O9 0.738988 0.370344 0.848059
O O10 0.583270 0.507243 0.787580
O O11 0.117821 0.280330 0.646614
O O12 0.100072 0.469899 0.544856
O O13 0.517491 0.461946 0.120092
O O14 0.451754 0.198722 0.055671
O O15 0.510544 0.268821 0.195994
O O16 0.500000 0.500000 0.500000
#
# Coordination Sequence:
#
# PCOD9285835 Si02
#       8
#     8   8   8   8   8   8   8   4
#     4  11  22  42  64  93 129 179 215 265 333 402
#     4  10  22  40  65  92 127 175 217 261 336 393
#     4  12  24  43  67  93 141 174 220 276 334 402
#     4  11  24  42  68  97 133 169 226 282 323 392
#     4  11  22  40  68  93 127 170 213 275 335 384
#     4  11  21  38  67  92 124 170 220 262 326 402
#     4  10  21  42  67  96 129 168 222 273 323 397
#     4  12  24  44  62  98 138 170 210 278 340 394
#
# _framework density 20.491899
#
# number of rings (size 3 to 8) (size 9 to 14) (size 15 to 20)
#    0.000    1.067    4.000    4.800    1.867    2.133 
#    0.000    4.000    0.000    0.000    0.000    0.000 
#    0.000    0.000    0.000    0.000    0.000    0.000 
#
# Total GULP energy -167081.569302 kJ/mol
# GULP energy per Si atom -5569.385643 kJ/mol
# Density = 2.044526 g / cm^3
# Si number density = 20.491899 Si / 1000 Ang^3
#
#
#
# Elastic Constant Matrix: (Units=GPa)
#
#
# Indices 1 2 3 4 5 6 
#
# 1 102.6721 19.6576 25.2721 0.0000 -3.1516 0.0000
# 2 19.6576 83.2582 4.8898 0.0000 1.4597 0.0000
# 3 25.2721 4.8898 87.2213 0.0000 -23.9812 0.0000
# 4 0.0000 0.0000 0.0000 33.2887 0.0000 -12.0792
# 5 -3.1516 1.4597 -23.9812 0.0000 36.4644 0.0000
# 6 0.0000 0.0000 0.0000 -12.0792 0.0000 33.3451
#
#
#
# Elastic Compliance Matrix: (Units=1/GPa)
#
#
# Indices 1 2 3 4 5 6 
#
# 1 0.010989 -0.002376 -0.003374 0.000000 -0.001174 0.000000
# 2 -0.002376 0.012603 -0.000260 0.000000 -0.000881 0.000000
# 3 -0.003374 -0.000260 0.015113 0.000000 0.009658 0.000000
# 4 0.000000 0.000000 0.000000 0.034586 0.000000 0.012529
# 5 -0.001174 -0.000881 0.009658 0.000000 0.033709 0.000000
# 6 0.000000 0.000000 0.000000 0.012529 0.000000 0.034528
#
#
# Mechanical properties :
#
#
# Convention : Reuss Voigt Hill
#
# Bulk Modulus (GPa) = 37.47492 41.42116 39.44804
# Shear Modulus (GPa) = 30.78021 35.50846 33.14434
#
# Velocity S-wave (km/s) = 3.87986 4.16721 4.02610
# Velocity P-wave (km/s) = 6.19665 6.58874 6.39570
#
# Compressibility (1/GPa) = 0.02668452
#
# Stress axis : x y z
#
# Youngs Moduli (GPa) = 91.00038 79.34927 66.17026
#
# Poissons Ratio (x) = 0.18852 0.22323
# Poissons Ratio (y) = 0.21620 0.01723
# Poissons Ratio (z) = 0.30699 0.02066
#
# Static dielectric constant tensor:
#      x y z
#    x 1.834270 0.000000 -0.034220 
#    y 0.000000 1.789200 0.000000 
#    z -0.034220 0.000000 1.834380 
# 
# From -- ./inp_files/247393.got.cif
#   From: 2010.05.17/outbox.cif.g08.bks.cpg/sg15_124_cif.got.tgz:247393.got - 2010.06.03 18:47:42.
