data_PCOD9285249
_publ_section_title
;
Structure prediction by ZEFSAII (Michael W. Deem and Ramdas Pophale) SiO2 
 PCOD9285249
Probable space group: C 2/C
;
_chemical_formula_sum "Si O2"
_cell_formula_units_Z 44
_cell_length_a 21.392034
_cell_length_b 13.055917
_cell_length_c 8.323182
_cell_angle_alpha 90.000000
_cell_angle_beta 115.662897
_cell_angle_gamma 90.000000
_cell_volume 2095.298993
_symmetry_space_group_name_H-M "C 2/C"
_symmetry_group_IT_number 15
_symmetry_cell_setting 'monoclinic'
loop_
_space_group_symop_operation_xyz
x,y,z
-x,y,1/2-z
-x,-y,-z
x,-y,1/2+z
1/2+x,1/2+y,z
1/2-x,1/2+y,1/2-z
1/2-x,1/2-y,-z
1/2+x,1/2-y,1/2+z
loop_
_atom_site_type_symbol
_atom_site_label
_atom_site_fract_x
_atom_site_fract_y
_atom_site_fract_z
Si Si1 0.974938 0.388274 0.534428
Si Si2 0.172894 0.673591 0.514574
Si Si3 0.282787 0.493766 0.198819
Si Si4 0.286334 0.815138 0.771704
Si Si5 0.644994 0.643442 0.467811
Si Si6 0.000000 0.755376 0.750000
O O1 0.892138 0.371303 0.464332
O O2 0.996348 0.312367 0.410938
O O3 0.000000 0.372616 0.750000
O O4 0.000000 0.500000 0.500000
O O5 0.235121 0.592394 0.567844
O O6 0.211318 0.766991 0.644737
O O7 0.159993 0.703563 0.315372
O O8 0.225378 0.565298 0.219525
O O9 0.320697 0.575173 0.130792
O O10 0.338848 0.430432 0.362827
O O11 0.315813 0.750694 0.953011
O O12 0.567397 0.673756 0.341442
#
# Coordination Sequence:
#
# PCOD9285249 Si02
#       6
#     8   8   8   8   8   4
#     4  12  27  45  70 102 142 192 232 284 355 422
#     4  10  23  40  68 102 134 177 226 297 347 408
#     4  11  22  42  71 101 135 178 234 290 354 410
#     4  10  21  41  69 100 135 173 235 294 346 408
#     4  11  25  43  69 103 138 187 230 287 353 420
#     4  12  28  50  68 102 154 188 240 280 342 442
#
# _framework density 20.999389999999998
#
# number of rings (size 3 to 8) (size 9 to 14) (size 15 to 20)
#    0.000    1.091    2.727    2.727    5.091    2.182 
#    3.273    0.000    0.000    0.000    0.000    0.000 
#    0.000    0.000    0.000    0.000    0.000    0.000 
#
# Total GULP energy -122646.935534 kJ/mol
# GULP energy per Si atom -5574.860706 kJ/mol
# Density = 2.095159 g / cm^3
# Si number density = 20.999390 Si / 1000 Ang^3
#
#
#
# Elastic Constant Matrix: (Units=GPa)
#
#
# Indices 1 2 3 4 5 6 
#
# 1 91.8123 7.7640 22.4759 0.0000 -10.0114 0.0000
# 2 7.7640 83.9192 26.0015 0.0000 -4.7847 0.0000
# 3 22.4759 26.0015 96.0619 0.0000 -13.1885 0.0000
# 4 0.0000 0.0000 0.0000 11.0867 0.0000 4.0922
# 5 -10.0114 -4.7847 -13.1885 0.0000 29.2159 0.0000
# 6 0.0000 0.0000 0.0000 4.0922 0.0000 19.9823
#
#
#
# Elastic Compliance Matrix: (Units=1/GPa)
#
#
# Indices 1 2 3 4 5 6 
#
# 1 0.011795 -0.000211 -0.002295 0.000000 0.002971 0.000000
# 2 -0.000211 0.013020 -0.003403 0.000000 0.000524 0.000000
# 3 -0.002295 -0.003403 0.012455 0.000000 0.004279 0.000000
# 4 0.000000 0.000000 0.000000 0.097574 0.000000 -0.019982
# 5 0.002971 0.000524 0.004279 0.000000 0.037264 0.000000
# 6 0.000000 0.000000 0.000000 -0.019982 0.000000 0.054136
#
#
# Mechanical properties :
#
#
# Convention : Reuss Voigt Hill
#
# Bulk Modulus (GPa) = 39.28700 42.69735 40.99218
# Shear Modulus (GPa) = 20.28016 26.42711 23.35364
#
# Velocity S-wave (km/s) = 3.11102 3.55134 3.33845
# Velocity P-wave (km/s) = 5.62618 6.09859 5.86714
#
# Compressibility (1/GPa) = 0.02545371
#
# Stress axis : x y z
#
# Youngs Moduli (GPa) = 84.77877 76.80519 80.28638
#
# Poissons Ratio (x) = 0.01619 0.18424
# Poissons Ratio (y) = 0.01788 0.27321
# Poissons Ratio (z) = 0.19455 0.26136
#
# Static dielectric constant tensor:
#      x y z
#    x 1.775950 0.000000 -0.077940 
#    y 0.000000 0.512430 0.000000 
#    z -0.077940 0.000000 1.912090 
# 
# From -- ./inp_files/47204.got.cif
#   From: 2010.05.17/outbox.cif.g08.bks.cpg/sg15_24_cif.got.tgz:47204.got - 2010.06.03 18:47:42.
