data_PCOD9285717
_publ_section_title
;
Structure prediction by ZEFSAII (Michael W. Deem and Ramdas Pophale) SiO2 
 PCOD9285717
Probable space group: C 2/C
;
_chemical_formula_sum "Si O2"
_cell_formula_units_Z 64
_cell_length_a 14.666100
_cell_length_b 9.297733
_cell_length_c 29.476224
_cell_angle_alpha 90.000000
_cell_angle_beta 52.008592
_cell_angle_gamma 90.000000
_cell_volume 3167.718486
_symmetry_space_group_name_H-M "C 2/C"
_symmetry_group_IT_number 15
_symmetry_cell_setting 'monoclinic'
loop_
_space_group_symop_operation_xyz
x,y,z
-x,y,1/2-z
-x,-y,-z
x,-y,1/2+z
1/2+x,1/2+y,z
1/2-x,1/2+y,1/2-z
1/2-x,1/2-y,-z
1/2+x,1/2-y,1/2+z
loop_
_atom_site_type_symbol
_atom_site_label
_atom_site_fract_x
_atom_site_fract_y
_atom_site_fract_z
Si Si1 0.667866 0.552189 0.643615
Si Si2 0.196454 0.001752 0.870284
Si Si3 0.600463 0.839525 0.041901
Si Si4 0.775969 0.251496 0.411525
Si Si5 0.542287 0.674382 0.845676
Si Si6 0.127657 0.330974 0.537293
Si Si7 0.388539 0.767187 0.054734
Si Si8 0.128246 0.723436 0.228872
O O1 0.710516 0.390972 0.622838
O O2 0.545529 0.573459 0.655949
O O3 0.764376 0.655540 0.591734
O O4 0.656315 0.622115 0.696876
O O5 0.262086 0.113252 0.882903
O O6 0.115561 0.087059 0.860019
O O7 0.124175 0.895470 0.925078
O O8 0.282637 0.895540 0.816506
O O9 0.619170 0.764825 0.084489
O O10 0.468870 0.846371 0.066390
O O11 0.649935 0.999640 0.030850
O O12 0.668821 0.761941 0.979866
O O13 0.456431 0.785456 0.896693
O O14 0.621555 0.755125 0.784629
O O15 0.250000 0.250000 0.500000
O O16 0.064229 0.286190 0.510135
O O17 0.000000 0.684154 0.250000
#
# Coordination Sequence:
#
# PCOD9285717 Si02
#       8
#     8   8   8   8   8   8   8   8
#     4  10  21  42  66  89 128 171 209 269 320 387
#     4  11  25  42  67  99 129 172 218 277 320 386
#     4  11  24  37  61  97 138 171 213 266 329 403
#     4  11  23  40  61  96 134 168 217 272 327 380
#     4  11  23  42  68  94 131 171 219 264 332 387
#     4  12  22  38  68 100 132 175 214 268 336 400
#     4  11  22  40  62  95 134 170 215 256 331 392
#     4   9  23  46  67  88 127 175 222 266 325 391
#
# _framework density 20.203814999999999
#
# number of rings (size 3 to 8) (size 9 to 14) (size 15 to 20)
#    0.000    1.250    2.500    2.625    5.250    5.000 
#    2.250    3.125    0.000    0.000    0.000    0.000 
#    0.000    0.000    0.000    0.000    0.000    0.000 
#
# Total GULP energy -178743.173014 kJ/mol
# GULP energy per Si atom -5585.724157 kJ/mol
# Density = 2.015783 g / cm^3
# Si number density = 20.203815 Si / 1000 Ang^3
#
#
#
# Elastic Constant Matrix: (Units=GPa)
#
#
# Indices 1 2 3 4 5 6 
#
# 1 76.3398 22.0569 11.9782 0.0000 7.9750 0.0000
# 2 22.0569 95.8082 43.7449 0.0000 14.6212 0.0000
# 3 11.9782 43.7449 106.9339 0.0000 18.1048 0.0000
# 4 0.0000 0.0000 0.0000 31.4539 0.0000 -2.2798
# 5 7.9750 14.6212 18.1048 0.0000 19.9951 0.0000
# 6 0.0000 0.0000 0.0000 -2.2798 0.0000 20.3930
#
#
#
# Elastic Compliance Matrix: (Units=1/GPa)
#
#
# Indices 1 2 3 4 5 6 
#
# 1 0.014275 -0.002789 0.000190 0.000000 -0.003826 0.000000
# 2 -0.002789 0.013907 -0.004539 0.000000 -0.004947 0.000000
# 3 0.000190 -0.004539 0.012564 0.000000 -0.008133 0.000000
# 4 0.000000 0.000000 0.000000 0.032052 0.000000 0.003583
# 5 -0.003826 -0.004947 -0.008133 0.000000 0.062520 0.000000
# 6 0.000000 0.000000 0.000000 0.003583 0.000000 0.049437
#
#
# Mechanical properties :
#
#
# Convention : Reuss Voigt Hill
#
# Bulk Modulus (GPa) = 37.77990 48.29357 43.03674
# Shear Modulus (GPa) = 24.05515 27.78852 25.92183
#
# Velocity S-wave (km/s) = 3.45429 3.71267 3.58581
# Velocity P-wave (km/s) = 5.88638 6.50643 6.20416
#
# Compressibility (1/GPa) = 0.02646910
#
# Stress axis : x y z
#
# Youngs Moduli (GPa) = 70.05202 71.90560 79.59128
#
# Poissons Ratio (x) = 0.20056 -0.01510
# Poissons Ratio (y) = 0.19539 0.36128
# Poissons Ratio (z) = -0.01329 0.32639
#
# Static dielectric constant tensor:
#      x y z
#    x 1.735610 0.000000 0.004710 
#    y 0.000000 1.706880 0.000000 
#    z 0.004710 0.000000 1.738630 
# 
# From -- ./inp_files/312894.got.cif
#   From: 2010.05.17/outbox.cif.g08.bks.cpg/sg15_157_cif.got.tgz:312894.got - 2010.06.03 18:47:42.
