data_PCOD9285637
_publ_section_title
;
Structure prediction by ZEFSAII (Michael W. Deem and Ramdas Pophale) SiO2 
 PCOD9285637
Probable space group: C 2/C
;
_chemical_formula_sum "Si O2"
_cell_formula_units_Z 48
_cell_length_a 11.134358
_cell_length_b 27.100460
_cell_length_c 13.833423
_cell_angle_alpha 90.000000
_cell_angle_beta 31.593210
_cell_angle_gamma 90.000000
_cell_volume 2186.791797
_symmetry_space_group_name_H-M "C 2/C"
_symmetry_group_IT_number 15
_symmetry_cell_setting 'monoclinic'
loop_
_space_group_symop_operation_xyz
x,y,z
-x,y,1/2-z
-x,-y,-z
x,-y,1/2+z
1/2+x,1/2+y,z
1/2-x,1/2+y,1/2-z
1/2-x,1/2-y,-z
1/2+x,1/2-y,1/2+z
loop_
_atom_site_type_symbol
_atom_site_label
_atom_site_fract_x
_atom_site_fract_y
_atom_site_fract_z
Si Si1 0.962913 0.855504 0.888009
Si Si2 0.153831 0.711330 0.725652
Si Si3 0.845253 0.399229 0.051837
Si Si4 0.956892 0.055386 0.910045
Si Si5 0.576766 0.195510 0.416919
Si Si6 0.325505 0.548285 0.218394
O O1 0.192644 0.831662 0.774202
O O2 0.974505 0.913871 0.890036
O O3 0.000000 0.845384 0.750000
O O4 0.763021 0.830776 0.084966
O O5 0.347881 0.747013 0.639736
O O6 0.997169 0.692257 0.919801
O O7 0.000000 0.739864 0.750000
O O8 0.726743 0.427491 0.043566
O O9 0.658701 0.403767 0.265595
O O10 0.890171 0.341393 0.997379
O O11 0.081926 0.427783 0.916091
O O12 0.832867 0.048226 0.096862
O O13 0.100065 0.004888 0.794250
#
# Coordination Sequence:
#
# PCOD9285637 Si02
#       6
#     8   8   8   8   8   8
#     4  11  22  36  56  93 128 157 197 254 314 371
#     4  12  21  36  59  89 129 162 203 261 308 370
#     4  10  22  39  64  92 123 163 200 254 305 368
#     4  10  21  42  65  89 123 164 206 253 301 362
#     4  11  22  36  59  88 123 162 203 249 316 356
#     4  10  22  39  64  93 123 161 204 250 307 368
#
# _framework density 21.949963
#
# number of rings (size 3 to 8) (size 9 to 14) (size 15 to 20)
#    0.000    1.333    3.333    3.000    2.333    0.000 
#    0.000    1.667    0.000    9.000    0.000    0.000 
#    0.000    0.000    0.000    0.000    0.000    0.000 
#
# Total GULP energy -133634.082639 kJ/mol
# GULP energy per Si atom -5568.086777 kJ/mol
# Density = 2.190000 g / cm^3
# Si number density = 21.949963 Si / 1000 Ang^3
#
#
#
# Elastic Constant Matrix: (Units=GPa)
#
#
# Indices 1 2 3 4 5 6 
#
# 1 57.2749 24.1790 7.5101 0.0000 1.0947 0.0000
# 2 24.1790 81.2781 9.8623 0.0000 -16.8219 0.0000
# 3 7.5101 9.8623 89.3782 0.0000 -4.0294 0.0000
# 4 0.0000 0.0000 0.0000 25.0206 0.0000 -3.5388
# 5 1.0947 -16.8219 -4.0294 0.0000 26.3632 0.0000
# 6 0.0000 0.0000 0.0000 -3.5388 0.0000 17.3357
#
#
#
# Elastic Compliance Matrix: (Units=1/GPa)
#
#
# Indices 1 2 3 4 5 6 
#
# 1 0.020764 -0.007198 -0.001205 0.000000 -0.005639 0.000000
# 2 -0.007198 0.016792 -0.000757 0.000000 0.010898 0.000000
# 3 -0.001205 -0.000757 0.011432 0.000000 0.001314 0.000000
# 4 0.000000 0.000000 0.000000 0.041155 0.000000 0.008401
# 5 -0.005639 0.010898 0.001314 0.000000 0.045321 0.000000
# 6 0.000000 0.000000 0.000000 0.008401 0.000000 0.059399
#
#
# Mechanical properties :
#
#
# Convention : Reuss Voigt Hill
#
# Bulk Modulus (GPa) = 32.60550 34.55933 33.58241
# Shear Modulus (GPa) = 22.38079 26.16921 24.27500
#
# Velocity S-wave (km/s) = 3.19663 3.45660 3.32915
# Velocity P-wave (km/s) = 5.33959 5.63113 5.48730
#
# Compressibility (1/GPa) = 0.03066967
#
# Stress axis : x y z
#
# Youngs Moduli (GPa) = 48.16014 59.55198 87.47066
#
# Poissons Ratio (x) = 0.42865 0.10538
# Poissons Ratio (y) = 0.34665 0.06620
# Poissons Ratio (z) = 0.05802 0.04507
#
# Static dielectric constant tensor:
#      x y z
#    x 1.867310 0.000000 -0.024580 
#    y 0.000000 1.867570 0.000000 
#    z -0.024580 0.000000 1.825110 
# 
# From -- ./inp_files/148676.got.cif
#   From: 2010.05.17/outbox.cif.g08.bks.cpg/sg15_75_cif.got.tgz:148676.got - 2010.06.03 18:47:42.
