data_PCOD9285056
_publ_section_title
;
Structure prediction by ZEFSAII (Michael W. Deem and Ramdas Pophale) SiO2 
 PCOD9285056
Probable space group: C 2/C
;
_chemical_formula_sum "Si O2"
_cell_formula_units_Z 60
_cell_length_a 12.399615
_cell_length_b 20.276423
_cell_length_c 18.037905
_cell_angle_alpha 90.000000
_cell_angle_beta 34.136240
_cell_angle_gamma 90.000000
_cell_volume 2544.921472
_symmetry_space_group_name_H-M "C 2/C"
_symmetry_group_IT_number 15
_symmetry_cell_setting 'monoclinic'
loop_
_space_group_symop_operation_xyz
x,y,z
-x,y,1/2-z
-x,-y,-z
x,-y,1/2+z
1/2+x,1/2+y,z
1/2-x,1/2+y,1/2-z
1/2-x,1/2-y,-z
1/2+x,1/2-y,1/2+z
loop_
_atom_site_type_symbol
_atom_site_label
_atom_site_fract_x
_atom_site_fract_y
_atom_site_fract_z
Si Si1 0.361203 0.875587 0.958560
Si Si2 0.500000 0.678525 0.750000
Si Si3 0.368666 0.411573 0.533287
Si Si4 0.168738 0.263295 0.790119
Si Si5 0.417980 0.698730 0.506915
Si Si6 0.454609 0.977871 0.443238
Si Si7 0.597766 0.382124 0.621440
Si Si8 0.849761 0.005432 0.185086
O O1 0.193420 0.860011 0.113800
O O2 0.278320 0.863404 0.923096
O O3 0.548904 0.831547 0.863158
O O4 0.409651 0.952660 0.930121
O O5 0.554531 0.719155 0.793994
O O6 0.528539 0.369202 0.482594
O O7 0.471237 0.456595 0.414545
O O8 0.301291 0.462373 0.633292
O O9 0.379781 0.270415 0.635245
O O10 0.175113 0.238640 0.872140
O O11 0.333073 0.672227 0.477594
O O12 0.668250 0.957773 0.299404
O O13 0.500000 0.000000 0.500000
O O14 0.283842 0.926693 0.532853
O O15 0.500000 0.351890 0.750000
O O16 0.427590 0.432214 0.688724
#
# Coordination Sequence:
#
# PCOD9285056 Si02
#       8
#     8   4   8   8   8   8   8   8
#     4  12  24  40  68 104 142 185 237 305 368 441
#     4  12  24  40  68 106 144 192 244 308 378 434
#     4  10  21  41  66  98 147 184 228 299 369 437
#     4  12  24  46  69 107 147 195 254 303 372 442
#     4  11  25  46  72 102 144 194 246 312 366 438
#     4  12  26  40  70 108 140 186 239 294 375 446
#     4  11  23  46  72 102 148 192 243 304 375 445
#     4  10  22  42  64 103 145 189 233 293 366 454
#
# _framework density 23.576364999999999
#
# number of rings (size 3 to 8) (size 9 to 14) (size 15 to 20)
#    0.000    0.800    5.333    2.800    2.800    1.600 
#    0.000    0.667    0.000    0.000    0.000    0.000 
#    0.000    0.000    0.000    0.000    0.000    0.000 
#
# Total GULP energy -167327.103054 kJ/mol
# GULP energy per Si atom -5577.570102 kJ/mol
# Density = 2.352270 g / cm^3
# Si number density = 23.576365 Si / 1000 Ang^3
#
#
#
# Elastic Constant Matrix: (Units=GPa)
#
#
# Indices 1 2 3 4 5 6 
#
# 1 92.9319 29.5253 39.3495 0.0022 5.3015 -0.0028
# 2 29.5253 43.6790 20.7804 0.0077 7.0053 -0.0020
# 3 39.3495 20.7804 107.2410 0.0135 1.6806 -0.0022
# 4 0.0022 0.0077 0.0135 26.6921 -0.0046 6.9220
# 5 5.3015 7.0053 1.6806 -0.0046 29.4789 0.0010
# 6 -0.0028 -0.0020 -0.0022 6.9220 0.0010 31.5675
#
#
#
# Elastic Compliance Matrix: (Units=1/GPa)
#
#
# Indices 1 2 3 4 5 6 
#
# 1 0.015069 -0.008233 -0.003925 0.000003 -0.000530 0.000000
# 2 -0.008233 0.030720 -0.002843 -0.000008 -0.005657 0.000003
# 3 -0.003925 -0.002843 0.011304 -0.000005 0.000737 0.000001
# 4 0.000003 -0.000008 -0.000005 0.039723 0.000008 -0.008710
# 5 -0.000530 -0.005657 0.000737 0.000008 0.035320 -0.000003
# 6 0.000000 0.000003 0.000001 -0.008710 -0.000003 0.033588
#
#
# Mechanical properties :
#
#
# Convention : Reuss Voigt Hill
#
# Bulk Modulus (GPa) = 36.91484 47.01802 41.96643
# Shear Modulus (GPa) = 24.41914 27.82749 26.12332
#
# Velocity S-wave (km/s) = 3.22179 3.43930 3.33232
# Velocity P-wave (km/s) = 5.43429 5.97978 5.71355
#
# Compressibility (1/GPa) = 0.02708937
#
# Stress axis : x y z
#
# Youngs Moduli (GPa) = 66.36270 32.55244 88.46077
#
# Poissons Ratio (x) = 0.26802 0.34724
# Poissons Ratio (y) = 0.54639 0.25149
# Poissons Ratio (z) = 0.26050 0.09254
#
# Static dielectric constant tensor:
#      x y z
#    x 1.852590 -0.000020 -0.047190 
#    y -0.000020 1.738560 -0.000020 
#    z -0.047190 -0.000020 1.763670 
# 
# From -- ./inp_files/200517.got.cif
#   From: 2010.05.17/outbox.cif.g08.bks.cpg/sg15_101_cif.got.tgz:200517.got - 2010.06.03 18:47:42.
