data_PCOD9285619
_publ_section_title
;
Structure prediction by ZEFSAII (Michael W. Deem and Ramdas Pophale) SiO2 
 PCOD9285619
Probable space group: C 2/C
;
_chemical_formula_sum "Si O2"
_cell_formula_units_Z 40
_cell_length_a 23.207127
_cell_length_b 10.201522
_cell_length_c 9.055771
_cell_angle_alpha 90.000000
_cell_angle_beta 121.591175
_cell_angle_gamma 90.000000
_cell_volume 1826.220895
_symmetry_space_group_name_H-M "C 2/C"
_symmetry_group_IT_number 15
_symmetry_cell_setting 'monoclinic'
loop_
_space_group_symop_operation_xyz
x,y,z
-x,y,1/2-z
-x,-y,-z
x,-y,1/2+z
1/2+x,1/2+y,z
1/2-x,1/2+y,1/2-z
1/2-x,1/2-y,-z
1/2+x,1/2-y,1/2+z
loop_
_atom_site_type_symbol
_atom_site_label
_atom_site_fract_x
_atom_site_fract_y
_atom_site_fract_z
Si Si1 0.134766 0.047411 0.359975
Si Si2 0.722924 0.515719 0.218701
Si Si3 0.500000 0.040373 0.750000
Si Si4 0.448603 0.178078 0.385349
Si Si5 0.318601 0.246895 0.361095
Si Si6 0.000000 0.891242 0.250000
O O1 0.198317 0.968676 0.517539
O O2 0.143431 0.189737 0.446733
O O3 0.154317 0.047824 0.216611
O O4 0.064859 0.982518 0.311699
O O5 0.735454 0.360486 0.249736
O O6 0.782243 0.611182 0.341928
O O7 0.469983 0.124873 0.575251
O O8 0.550059 0.940806 0.730243
O O9 0.373675 0.233583 0.307005
O O10 0.497304 0.291806 0.386672
#
# Coordination Sequence:
#
# PCOD9285619 Si02
#       6
#     8   8   4   8   8   4
#     4  10  23  41  66  97 129 174 222 280 330 393
#     4  10  23  43  62  97 128 177 224 275 330 397
#     4   9  22  41  64  98 136 172 224 274 340 402
#     4  10  21  42  64  98 131 179 220 278 336 396
#     4  10  23  42  66  95 132 176 231 266 339 388
#     4  11  20  43  68  98 136 166 230 278 338 394
#
# _framework density 21.903154000000001
#
# number of rings (size 3 to 8) (size 9 to 14) (size 15 to 20)
#    1.200    0.800    2.000    0.600    0.000    8.000 
#   10.800    0.000    0.000    0.000    0.000    0.000 
#    0.000    0.000    0.000    0.000    0.000    0.000 
#
# Total GULP energy -111404.339252 kJ/mol
# GULP energy per Si atom -5570.216963 kJ/mol
# Density = 2.185330 g / cm^3
# Si number density = 21.903154 Si / 1000 Ang^3
#
#
#
# Elastic Constant Matrix: (Units=GPa)
#
#
# Indices 1 2 3 4 5 6 
#
# 1 58.5037 25.6960 4.1602 0.0000 -13.1142 0.0000
# 2 25.6960 83.6531 16.1819 0.0000 3.8485 0.0000
# 3 4.1602 16.1819 62.0244 0.0000 -18.2301 0.0000
# 4 0.0000 0.0000 0.0000 16.0155 0.0000 7.1843
# 5 -13.1142 3.8485 -18.2301 0.0000 23.7627 0.0000
# 6 0.0000 0.0000 0.0000 7.1843 0.0000 40.1420
#
#
#
# Elastic Compliance Matrix: (Units=1/GPa)
#
#
# Indices 1 2 3 4 5 6 
#
# 1 0.025994 -0.010400 0.007335 0.000000 0.021657 0.000000
# 2 -0.010400 0.017422 -0.008217 0.000000 -0.014865 0.000000
# 3 0.007335 -0.008217 0.024990 0.000000 0.024551 0.000000
# 4 0.000000 0.000000 0.000000 0.067890 0.000000 -0.012150
# 5 0.021657 -0.014865 0.024551 0.000000 0.075278 0.000000
# 6 0.000000 0.000000 0.000000 -0.012150 0.000000 0.027086
#
#
# Mechanical properties :
#
#
# Convention : Reuss Voigt Hill
#
# Bulk Modulus (GPa) = 21.81337 32.91749 27.36543
# Shear Modulus (GPa) = 18.08289 26.52692 22.30490
#
# Velocity S-wave (km/s) = 2.87641 3.48386 3.19461
# Velocity P-wave (km/s) = 4.58392 5.58966 5.11159
#
# Compressibility (1/GPa) = 0.04584345
#
# Stress axis : x y z
#
# Youngs Moduli (GPa) = 38.47046 57.39844 40.01531
#
# Poissons Ratio (x) = 0.59694 -0.29353
# Poissons Ratio (y) = 0.40009 0.32880
# Poissons Ratio (z) = -0.28219 0.47164
#
# Static dielectric constant tensor:
#      x y z
#    x 1.772180 0.000000 0.001100 
#    y 0.000000 1.832960 0.000000 
#    z 0.001100 0.000000 1.795850 
# 
# From -- ./inp_files/60361.got.cif
#   From: 2010.05.17/outbox.cif.g08.bks.cpg/sg15_31_cif.got.tgz:60361.got - 2010.06.03 18:47:42.
