data_PCOD9285575
_publ_section_title
;
Structure prediction by ZEFSAII (Michael W. Deem and Ramdas Pophale) SiO2 
 PCOD9285575
Probable space group: C 2/C
;
_chemical_formula_sum "Si O2"
_cell_formula_units_Z 56
_cell_length_a 14.056961
_cell_length_b 12.480620
_cell_length_c 16.769444
_cell_angle_alpha 90.000000
_cell_angle_beta 74.094474
_cell_angle_gamma 90.000000
_cell_volume 2829.388608
_symmetry_space_group_name_H-M "C 2/C"
_symmetry_group_IT_number 15
_symmetry_cell_setting 'monoclinic'
loop_
_space_group_symop_operation_xyz
x,y,z
-x,y,1/2-z
-x,-y,-z
x,-y,1/2+z
1/2+x,1/2+y,z
1/2-x,1/2+y,1/2-z
1/2-x,1/2-y,-z
1/2+x,1/2-y,1/2+z
loop_
_atom_site_type_symbol
_atom_site_label
_atom_site_fract_x
_atom_site_fract_y
_atom_site_fract_z
Si Si1 0.505938 0.158621 0.912642
Si Si2 0.000000 0.793197 0.750000
Si Si3 0.480662 0.757744 0.594753
Si Si4 0.278894 0.876745 0.497125
Si Si5 0.603533 0.464035 0.438211
Si Si6 0.500000 0.349470 0.250000
Si Si7 0.848900 0.460432 0.644826
Si Si8 0.351418 0.465594 0.737178
O O1 0.508069 0.228485 0.831109
O O2 0.392606 0.116030 0.941926
O O3 0.585410 0.064398 0.885672
O O4 0.523821 0.212920 0.996530
O O5 0.096828 0.869109 0.727052
O O6 0.411340 0.656858 0.590214
O O7 0.532840 0.716310 0.663595
O O8 0.422299 0.861386 0.638423
O O9 0.250000 0.750000 0.500000
O O10 0.198797 0.949850 0.471206
O O11 0.284334 0.923681 0.584146
O O12 0.500000 0.500000 0.500000
O O13 0.621841 0.544231 0.361658
O O14 0.592075 0.427717 0.247149
O O15 0.765926 0.475726 0.730164
#
# Coordination Sequence:
#
# PCOD9285575 Si02
#       8
#     8   4   8   8   8   4   8   8
#     4  11  24  41  67  95 132 172 221 268 319 399
#     4  11  24  41  70  90 132 167 228 267 328 378
#     4  10  21  42  64  91 130 168 214 261 325 381
#     4  11  21  40  71  92 127 175 216 265 333 380
#     4  11  23  40  68  98 127 170 220 269 323 385
#     4   9  22  41  66  86 130 167 214 271 334 370
#     4  11  24  41  63  94 135 167 218 264 323 393
#     4  10  24  41  63  98 126 165 220 275 320 392
#
# _framework density 19.792262000000001
#
# number of rings (size 3 to 8) (size 9 to 14) (size 15 to 20)
#    0.000    1.429    2.857    3.429    8.000    1.714 
#    2.571    0.714    0.000    0.000    0.000    0.000 
#    0.000    0.000    0.000    0.000    0.000    0.000 
#
# Total GULP energy -155971.657642 kJ/mol
# GULP energy per Si atom -5570.416344 kJ/mol
# Density = 1.974721 g / cm^3
# Si number density = 19.792262 Si / 1000 Ang^3
#
#
#
# Elastic Constant Matrix: (Units=GPa)
#
#
# Indices 1 2 3 4 5 6 
#
# 1 62.6365 24.2880 52.7565 0.0000 2.2499 0.0000
# 2 24.2880 75.9740 45.4877 0.0000 4.2171 0.0000
# 3 52.7565 45.4877 130.7181 0.0000 -7.0774 0.0000
# 4 0.0000 0.0000 0.0000 4.1239 0.0000 0.5140
# 5 2.2499 4.2171 -7.0774 0.0000 39.9596 0.0000
# 6 0.0000 0.0000 0.0000 0.5140 0.0000 12.4014
#
#
#
# Elastic Compliance Matrix: (Units=1/GPa)
#
#
# Indices 1 2 3 4 5 6 
#
# 1 0.024844 -0.002133 -0.009439 0.000000 -0.002845 0.000000
# 2 -0.002133 0.017127 -0.005241 0.000000 -0.002616 0.000000
# 3 -0.009439 -0.005241 0.013471 0.000000 0.003470 0.000000
# 4 0.000000 0.000000 0.000000 0.243751 0.000000 -0.010104
# 5 -0.002845 -0.002616 0.003470 0.000000 0.026076 0.000000
# 6 0.000000 0.000000 0.000000 -0.010104 0.000000 0.081055
#
#
# Mechanical properties :
#
#
# Convention : Reuss Voigt Hill
#
# Bulk Modulus (GPa) = 45.83494 57.15478 51.49486
# Shear Modulus (GPa) = 11.18011 21.08340 16.13176
#
# Velocity S-wave (km/s) = 2.37928 3.26733 2.85801
# Velocity P-wave (km/s) = 5.54583 6.57069 6.07990
#
# Compressibility (1/GPa) = 0.02181742
#
# Stress axis : x y z
#
# Youngs Moduli (GPa) = 40.25049 58.38630 74.23385
#
# Poissons Ratio (x) = 0.12456 0.70067
# Poissons Ratio (y) = 0.08587 0.38903
# Poissons Ratio (z) = 0.37991 0.30598
#
# Static dielectric constant tensor:
#      x y z
#    x 1.787110 0.000000 -0.009440 
#    y 0.000000 1.703410 0.000000 
#    z -0.009440 0.000000 1.787180 
# 
# From -- ./inp_files/203986.got.cif
#   From: 2010.05.17/outbox.cif.g08.bks.cpg/sg15_102_cif.got.tgz:203986.got - 2010.06.03 18:47:42.
