data_PCOD9285622
_publ_section_title
;
Structure prediction by ZEFSAII (Michael W. Deem and Ramdas Pophale) SiO2 
 PCOD9285622
Probable space group: C 2/C
;
_chemical_formula_sum "Si O2"
_cell_formula_units_Z 44
_cell_length_a 20.992478
_cell_length_b 17.167650
_cell_length_c 17.346239
_cell_angle_alpha 90.000000
_cell_angle_beta 17.493297
_cell_angle_gamma 90.000000
_cell_volume 1879.145951
_symmetry_space_group_name_H-M "C 2/C"
_symmetry_group_IT_number 15
_symmetry_cell_setting 'monoclinic'
loop_
_space_group_symop_operation_xyz
x,y,z
-x,y,1/2-z
-x,-y,-z
x,-y,1/2+z
1/2+x,1/2+y,z
1/2-x,1/2+y,1/2-z
1/2-x,1/2-y,-z
1/2+x,1/2-y,1/2+z
loop_
_atom_site_type_symbol
_atom_site_label
_atom_site_fract_x
_atom_site_fract_y
_atom_site_fract_z
Si Si1 0.703489 0.331771 0.597590
Si Si2 0.735502 0.739978 0.359511
Si Si3 0.000000 0.346664 0.750000
Si Si4 0.215805 0.925638 0.952994
Si Si5 0.885900 0.742379 0.648055
Si Si6 0.268458 0.097615 0.872872
O O1 0.750000 0.250000 0.500000
O O2 0.714746 0.304198 0.673427
O O3 0.827962 0.388896 0.394424
O O4 0.469869 0.368957 0.861829
O O5 0.662338 0.791686 0.516917
O O6 0.696769 0.647589 0.418463
O O7 0.508300 0.755519 0.564904
O O8 0.842180 0.762712 0.147506
O O9 0.111939 0.400042 0.683492
O O10 0.000000 0.937850 0.250000
O O11 0.275095 0.007193 0.845976
O O12 0.894026 0.654841 0.672719
#
# Coordination Sequence:
#
# PCOD9285622 Si02
#       6
#     8   8   4   8   8   8
#     4   9  18  37  66  92 127 173 213 267 329 411
#     4  12  23  43  67  94 130 178 232 279 328 405
#     4  12  26  46  66  98 132 186 244 272 330 416
#     4  12  24  44  70  97 137 182 223 287 344 397
#     4  11  22  40  67  98 128 171 225 279 333 407
#     4  10  21  42  64  98 141 168 219 281 343 406
#
# _framework density 23.414891999999998
#
# number of rings (size 3 to 8) (size 9 to 14) (size 15 to 20)
#    0.000    1.091    6.364    1.636    0.000    0.727 
#    3.273    0.909    0.000    0.000    0.000    0.000 
#    0.000    0.000    0.000    0.000    0.000    0.000 
#
# Total GULP energy -122648.401480 kJ/mol
# GULP energy per Si atom -5574.927340 kJ/mol
# Density = 2.336160 g / cm^3
# Si number density = 23.414892 Si / 1000 Ang^3
#
#
#
# Elastic Constant Matrix: (Units=GPa)
#
#
# Indices 1 2 3 4 5 6 
#
# 1 140.6400 43.6782 21.9318 -0.0614 -2.4522 0.0104
# 2 43.6782 185.7434 50.2049 -0.0952 -2.3126 0.0515
# 3 21.9318 50.2049 136.4819 -0.0357 -3.8771 0.0185
# 4 -0.0614 -0.0952 -0.0357 22.3541 0.0143 -2.3699
# 5 -2.4522 -2.3126 -3.8771 0.0143 31.1084 0.0029
# 6 0.0104 0.0515 0.0185 -2.3699 0.0029 3.9869
#
#
#
# Elastic Compliance Matrix: (Units=1/GPa)
#
#
# Indices 1 2 3 4 5 6 
#
# 1 0.007725 -0.001642 -0.000626 0.000014 0.000409 0.000012
# 2 -0.001642 0.006328 -0.002062 0.000013 0.000084 -0.000060
# 3 -0.000626 -0.002062 0.008209 0.000001 0.000821 -0.000010
# 4 0.000014 0.000013 0.000001 0.047743 -0.000022 0.028380
# 5 0.000409 0.000084 0.000821 -0.000022 0.032286 -0.000043
# 6 0.000012 -0.000060 -0.000010 0.028380 -0.000043 0.267695
#
#
# Mechanical properties :
#
#
# Convention : Reuss Voigt Hill
#
# Bulk Modulus (GPa) = 73.51064 77.16614 75.33839
# Shear Modulus (GPa) = 13.04868 34.62658 23.83763
#
# Velocity S-wave (km/s) = 2.36324 3.84972 3.19416
# Velocity P-wave (km/s) = 6.23775 7.26554 6.77117
#
# Compressibility (1/GPa) = 0.01360347
#
# Stress axis : x y z
#
# Youngs Moduli (GPa) = 129.44785 158.02098 121.81516
#
# Poissons Ratio (x) = 0.25953 0.07621
# Poissons Ratio (y) = 0.21260 0.25113
# Poissons Ratio (z) = 0.08098 0.32577
#
# Static dielectric constant tensor:
#      x y z
#    x 2.229670 0.000250 -0.264550 
#    y 0.000250 1.763760 -0.000130 
#    z -0.264550 -0.000130 2.072980 
# 
# From -- ./inp_files/47166.got.cif
#   From: 2010.05.17/outbox.cif.g08.bks.cpg/sg15_24_cif.got.tgz:47166.got - 2010.06.03 18:47:42.
