data_PCOD9285174
_publ_section_title
;
Structure prediction by ZEFSAII (Michael W. Deem and Ramdas Pophale) SiO2 
 PCOD9285174
Probable space group: C 2/C
;
_chemical_formula_sum "Si O2"
_cell_formula_units_Z 40
_cell_length_a 12.280016
_cell_length_b 17.297633
_cell_length_c 11.040077
_cell_angle_alpha 90.000000
_cell_angle_beta 41.664402
_cell_angle_gamma 90.000000
_cell_volume 1558.930427
_symmetry_space_group_name_H-M "C 2/C"
_symmetry_group_IT_number 15
_symmetry_cell_setting 'monoclinic'
loop_
_space_group_symop_operation_xyz
x,y,z
-x,y,1/2-z
-x,-y,-z
x,-y,1/2+z
1/2+x,1/2+y,z
1/2-x,1/2+y,1/2-z
1/2-x,1/2-y,-z
1/2+x,1/2-y,1/2+z
loop_
_atom_site_type_symbol
_atom_site_label
_atom_site_fract_x
_atom_site_fract_y
_atom_site_fract_z
Si Si1 0.834490 0.996387 0.750837
Si Si2 0.688657 0.024310 0.621009
Si Si3 0.244522 0.841320 0.581719
Si Si4 0.056984 0.844171 0.339594
Si Si5 0.097559 0.284209 0.358504
O O1 0.716690 0.999171 0.733771
O O2 0.965251 0.063648 0.615670
O O3 0.858307 0.906113 0.758039
O O4 0.766429 0.020033 0.941112
O O5 0.500000 0.022507 0.750000
O O6 0.749904 0.113002 0.550130
O O7 0.159633 0.760887 0.685283
O O8 0.433414 0.833980 0.469818
O O9 0.249815 0.826235 0.203861
O O10 0.000000 0.829664 0.250000
O O11 0.960207 0.784316 0.503831
#
# Coordination Sequence:
#
# PCOD9285174 Si02
#       5
#     8   8   8   8   8
#     4  10  24  43  72 102 136 182 242 292 342 416
#     4  10  21  41  68 105 138 178 236 289 351 410
#     4   9  23  42  74 100 139 184 238 286 351 416
#     4  11  24  42  68 100 141 186 236 290 353 414
#     4  10  22  45  66 101 145 185 233 285 354 428
#
# _framework density 25.658618000000001
#
# number of rings (size 3 to 8) (size 9 to 14) (size 15 to 20)
#    1.200    0.800    0.000    2.400    5.600    0.800 
#    0.000   12.000    0.000    0.000    0.000    0.000 
#    0.000    0.000    0.000    0.000    0.000    0.000 
#
# Total GULP energy -111732.129467 kJ/mol
# GULP energy per Si atom -5586.606473 kJ/mol
# Density = 2.560022 g / cm^3
# Si number density = 25.658618 Si / 1000 Ang^3
#
#
#
# Elastic Constant Matrix: (Units=GPa)
#
#
# Indices 1 2 3 4 5 6 
#
# 1 188.0315 19.3045 46.4765 -0.0002 -8.4838 -0.0004
# 2 19.3045 106.1950 12.0990 0.0002 -12.3280 -0.0002
# 3 46.4765 12.0990 80.5158 -0.0009 -26.1571 0.0004
# 4 -0.0002 0.0002 -0.0009 41.2106 0.0003 3.6292
# 5 -8.4838 -12.3280 -26.1571 0.0003 40.8867 0.0004
# 6 -0.0004 -0.0002 0.0004 3.6292 0.0004 28.6656
#
#
#
# Elastic Compliance Matrix: (Units=1/GPa)
#
#
# Indices 1 2 3 4 5 6 
#
# 1 0.006332 -0.000870 -0.004018 0.000000 -0.001519 0.000000
# 2 -0.000870 0.009904 -0.000094 0.000000 0.002745 0.000000
# 3 -0.004018 -0.000094 0.018270 0.000000 0.010826 0.000000
# 4 0.000000 0.000000 0.000000 0.024539 0.000000 -0.003107
# 5 -0.001519 0.002745 0.010826 0.000000 0.031897 -0.000001
# 6 0.000000 0.000000 0.000000 -0.003107 -0.000001 0.035278
#
#
# Mechanical properties :
#
#
# Convention : Reuss Voigt Hill
#
# Bulk Modulus (GPa) = 40.74472 58.94470 49.84471
# Shear Modulus (GPa) = 34.63430 41.94341 38.28885
#
# Velocity S-wave (km/s) = 3.67796 4.04749 3.86714
# Velocity P-wave (km/s) = 5.82671 6.69817 6.27758
#
# Compressibility (1/GPa) = 0.02454306
#
# Stress axis : x y z
#
# Youngs Moduli (GPa) = 157.92506 100.96740 54.73317
#
# Poissons Ratio (x) = 0.08780 0.21991
# Poissons Ratio (y) = 0.13733 0.00517
# Poissons Ratio (z) = 0.63451 0.00953
#
# Static dielectric constant tensor:
#      x y z
#    x 1.935990 0.000000 0.013920 
#    y 0.000000 2.054660 0.000000 
#    z 0.013920 0.000000 2.126630 
# 
# From -- ./inp_files/89310.got.cif
#   From: 2010.05.17/outbox.cif.g08.bks.cpg/sg15_45_cif.got.tgz:89310.got - 2010.06.03 18:47:42.
