data_PCOD9285750
_publ_section_title
;
Structure prediction by ZEFSAII (Michael W. Deem and Ramdas Pophale) SiO2 
 PCOD9285750
Probable space group: C 2/C
;
_chemical_formula_sum "Si O2"
_cell_formula_units_Z 64
_cell_length_a 14.112190
_cell_length_b 13.316990
_cell_length_c 19.474224
_cell_angle_alpha 90.000000
_cell_angle_beta 127.768575
_cell_angle_gamma 90.000000
_cell_volume 2893.061123
_symmetry_space_group_name_H-M "C 2/C"
_symmetry_group_IT_number 15
_symmetry_cell_setting 'monoclinic'
loop_
_space_group_symop_operation_xyz
x,y,z
-x,y,1/2-z
-x,-y,-z
x,-y,1/2+z
1/2+x,1/2+y,z
1/2-x,1/2+y,1/2-z
1/2-x,1/2-y,-z
1/2+x,1/2-y,1/2+z
loop_
_atom_site_type_symbol
_atom_site_label
_atom_site_fract_x
_atom_site_fract_y
_atom_site_fract_z
Si Si1 0.576007 0.067353 0.981012
Si Si2 0.496898 0.474927 0.919241
Si Si3 0.893803 0.762671 0.575407
Si Si4 0.290609 0.236510 0.096595
Si Si5 0.760847 0.120717 0.289290
Si Si6 0.313227 0.644204 0.167099
Si Si7 0.105761 0.930421 0.337808
Si Si8 0.013412 0.429482 0.831677
O O1 0.534109 0.170584 0.925518
O O2 0.588323 0.994145 0.920103
O O3 0.688967 0.110888 0.074201
O O4 0.500000 0.000000 0.000000
O O5 0.557278 0.366099 0.934312
O O6 0.357706 0.468205 0.836435
O O7 0.568386 0.548326 0.899731
O O8 0.500000 0.500000 0.000000
O O9 0.750000 0.750000 0.500000
O O10 0.890160 0.780543 0.655145
O O11 0.231278 0.174395 0.132970
O O12 0.288352 0.352040 0.119837
O O13 0.416725 0.176087 0.145523
O O14 0.250000 0.250000 0.000000
O O15 0.798403 0.181469 0.237815
O O16 0.625477 0.087905 0.211602
O O17 0.375140 0.535387 0.191121
O O18 0.000000 0.877259 0.250000
O O19 0.000000 0.477412 0.750000
#
# Coordination Sequence:
#
# PCOD9285750 Si02
#       8
#     8   8   8   8   8   8   8   8
#     4  11  21  40  69  94 128 178 226 272 335 405
#     4  11  24  43  70  97 135 175 230 277 331 409
#     4   9  23  43  64  97 134 175 218 276 342 395
#     4  11  24  43  67  98 135 177 226 285 351 403
#     4  11  22  43  64  99 134 178 229 284 334 414
#     4  10  21  42  66  93 139 176 220 277 344 405
#     4  11  21  40  64  93 129 176 211 270 342 393
#     4  10  23  43  65  96 142 174 222 291 351 402
#
# _framework density 22.121897000000001
#
# number of rings (size 3 to 8) (size 9 to 14) (size 15 to 20)
#    0.000    1.500    2.500    2.625    0.000    8.000 
#    6.750    1.250    0.000    0.000    0.000    0.000 
#    0.000    0.000    0.000    0.000    0.000    0.000 
#
# Total GULP energy -178167.581783 kJ/mol
# GULP energy per Si atom -5567.736931 kJ/mol
# Density = 2.207155 g / cm^3
# Si number density = 22.121897 Si / 1000 Ang^3
#
#
#
# Elastic Constant Matrix: (Units=GPa)
#
#
# Indices 1 2 3 4 5 6 
#
# 1 78.3700 7.7499 31.0119 0.0000 -20.6613 0.0000
# 2 7.7499 58.3766 7.2367 0.0000 -11.6523 0.0000
# 3 31.0119 7.2367 130.1225 0.0000 -31.2753 0.0000
# 4 0.0000 0.0000 0.0000 25.5242 0.0000 -5.1972
# 5 -20.6613 -11.6523 -31.2753 0.0000 46.5436 0.0000
# 6 0.0000 0.0000 0.0000 -5.1972 0.0000 19.5450
#
#
#
# Elastic Compliance Matrix: (Units=1/GPa)
#
#
# Indices 1 2 3 4 5 6 
#
# 1 0.015065 -0.000725 -0.002369 0.000000 0.004914 0.000000
# 2 -0.000725 0.018067 0.000212 0.000000 0.004344 0.000000
# 3 -0.002369 0.000212 0.009538 0.000000 0.005411 0.000000
# 4 0.000000 0.000000 0.000000 0.041421 0.000000 0.011014
# 5 0.004914 0.004344 0.005411 0.000000 0.028390 0.000000
# 6 0.000000 0.000000 0.000000 0.011014 0.000000 0.054093
#
#
# Mechanical properties :
#
#
# Convention : Reuss Voigt Hill
#
# Bulk Modulus (GPa) = 27.09606 39.87400 33.48503
# Shear Modulus (GPa) = 27.07967 33.04726 30.06347
#
# Velocity S-wave (km/s) = 3.50253 3.86926 3.69045
# Velocity P-wave (km/s) = 5.35089 6.16647 5.77310
#
# Compressibility (1/GPa) = 0.03690574
#
# Stress axis : x y z
#
# Youngs Moduli (GPa) = 66.38065 55.34900 104.83968
#
# Poissons Ratio (x) = 0.04015 0.24835
# Poissons Ratio (y) = 0.04815 -0.02224
# Poissons Ratio (z) = 0.15725 -0.01174
#
# Static dielectric constant tensor:
#      x y z
#    x 1.934990 0.000000 0.148690 
#    y 0.000000 1.877230 0.000000 
#    z 0.148690 0.000000 2.093930 
# 
# From -- ./inp_files/205432.got.cif
#   From: 2010.05.17/outbox.cif.g08.bks.cpg/sg15_103_cif.got.tgz:205432.got - 2010.06.03 18:47:42.
