data_PCOD9285878
_publ_section_title
;
Structure prediction by ZEFSAII (Michael W. Deem and Ramdas Pophale) SiO2 
 PCOD9285878
Probable space group: C 2/C
;
_chemical_formula_sum "Si O2"
_cell_formula_units_Z 48
_cell_length_a 14.542563
_cell_length_b 25.659226
_cell_length_c 7.919895
_cell_angle_alpha 90.000000
_cell_angle_beta 47.930579
_cell_angle_gamma 90.000000
_cell_volume 2193.830226
_symmetry_space_group_name_H-M "C 2/C"
_symmetry_group_IT_number 15
_symmetry_cell_setting 'monoclinic'
loop_
_space_group_symop_operation_xyz
x,y,z
-x,y,1/2-z
-x,-y,-z
x,-y,1/2+z
1/2+x,1/2+y,z
1/2-x,1/2+y,1/2-z
1/2-x,1/2-y,-z
1/2+x,1/2-y,1/2+z
loop_
_atom_site_type_symbol
_atom_site_label
_atom_site_fract_x
_atom_site_fract_y
_atom_site_fract_z
Si Si1 0.500000 0.876156 0.250000
Si Si2 0.518902 0.589610 0.423292
Si Si3 0.292089 0.941541 0.701880
Si Si4 0.321984 0.836406 0.194174
Si Si5 0.438838 0.290757 0.998985
Si Si6 0.763903 0.056358 0.843002
Si Si7 0.500000 0.778556 0.750000
O O1 0.405407 0.911857 0.474351
O O2 0.418543 0.840934 0.226092
O O3 0.500000 0.575728 0.250000
O O4 0.659624 0.579285 0.299496
O O5 0.491636 0.651267 0.474351
O O6 0.414386 0.558106 0.656460
O O7 0.289140 0.002820 0.663432
O O8 0.289859 0.935015 0.905350
O O9 0.205410 0.799294 0.364373
O O10 0.273732 0.894968 0.225761
O O11 0.388745 0.815261 0.945692
O O12 0.462947 0.255864 0.133312
O O13 0.500000 0.272515 0.750000
#
# Coordination Sequence:
#
# PCOD9285878 Si02
#       7
#     4   8   8   8   8   8   4
#     4  12  26  45  70  94 142 186 227 282 352 412
#     4  10  21  42  68 101 139 173 227 292 349 404
#     4  12  24  40  68 100 135 187 229 280 347 417
#     4  11  26  48  66 102 139 179 229 290 342 417
#     4  10  24  46  72 103 138 177 232 291 350 411
#     4  11  24  42  68  98 137 177 233 286 344 413
#     4  12  26  45  74 104 136 184 233 286 356 418
#
# _framework density 21.879542000000001
#
# number of rings (size 3 to 8) (size 9 to 14) (size 15 to 20)
#    0.000    1.000    0.000    7.500    5.833    4.000 
#    6.000    0.000    0.000    0.000    0.000    0.000 
#    0.000    0.000    0.000    0.000    0.000    0.000 
#
# Total GULP energy -134394.459830 kJ/mol
# GULP energy per Si atom -5599.769160 kJ/mol
# Density = 2.182974 g / cm^3
# Si number density = 21.879542 Si / 1000 Ang^3
#
#
#
# Elastic Constant Matrix: (Units=GPa)
#
#
# Indices 1 2 3 4 5 6 
#
# 1 102.3658 25.8167 32.9966 0.0000 -7.1618 0.0000
# 2 25.8167 76.7613 33.1442 0.0000 -6.6431 0.0000
# 3 32.9966 33.1442 165.4771 0.0000 -7.2310 0.0000
# 4 0.0000 0.0000 0.0000 -0.0446 0.0000 33.6761
# 5 -7.1618 -6.6431 -7.2310 0.0000 32.5785 0.0000
# 6 0.0000 0.0000 0.0000 33.6761 0.0000 1.4394
#
#
#
# Elastic Compliance Matrix: (Units=1/GPa)
#
#
# Indices 1 2 3 4 5 6 
#
# 1 0.011118 -0.002934 -0.001564 0.000000 0.001499 0.000000
# 2 -0.002934 0.015207 -0.002377 0.000000 0.001928 0.000000
# 3 -0.001564 -0.002377 0.006861 0.000000 0.000695 0.000000
# 4 0.000000 0.000000 0.000000 -0.001269 0.000000 0.029693
# 5 0.001499 0.001928 0.000695 0.000000 0.031572 0.000000
# 6 0.000000 0.000000 0.000000 0.029693 0.000000 0.000039
#
#
# Mechanical properties :
#
#
# Convention : Reuss Voigt Hill
#
# Bulk Modulus (GPa) = 51.44758 58.72438 55.08598
# Shear Modulus (GPa) = 59.69665 23.63778 41.66721
#
# Velocity S-wave (km/s) = 5.22910 3.29045 4.36867
# Velocity P-wave (km/s) = 7.74745 6.42917 7.11889
#
# Compressibility (1/GPa) = 0.01943726
#
# Stress axis : x y z
#
# Youngs Moduli (GPa) = 89.94572 65.75779 145.74486
#
# Poissons Ratio (x) = 0.19295 0.22790
# Poissons Ratio (y) = 0.26393 0.34637
# Poissons Ratio (z) = 0.14065 0.15628
#
# Static dielectric constant tensor:
#      x y z
#    x 1.845850 0.000000 -0.058410 
#    y 0.000000 1.780740 0.000000 
#    z -0.058410 0.000000 1.811540 
# 
# From -- ./inp_files/43863.got.cif
#   From: 2010.05.17/outbox.cif.g08.bks.cpg/sg15_22_cif.got.tgz:43863.got - 2010.06.03 18:47:42.
