data_PCOD9285474
_publ_section_title
;
Structure prediction by ZEFSAII (Michael W. Deem and Ramdas Pophale) SiO2 
 PCOD9285474
Probable space group: C 2/C
;
_chemical_formula_sum "Si O2"
_cell_formula_units_Z 52
_cell_length_a 24.280303
_cell_length_b 21.633640
_cell_length_c 7.138790
_cell_angle_alpha 90.000000
_cell_angle_beta 139.858715
_cell_angle_gamma 90.000000
_cell_volume 2417.402068
_symmetry_space_group_name_H-M "C 2/C"
_symmetry_group_IT_number 15
_symmetry_cell_setting 'monoclinic'
loop_
_space_group_symop_operation_xyz
x,y,z
-x,y,1/2-z
-x,-y,-z
x,-y,1/2+z
1/2+x,1/2+y,z
1/2-x,1/2+y,1/2-z
1/2-x,1/2-y,-z
1/2+x,1/2-y,1/2+z
loop_
_atom_site_type_symbol
_atom_site_label
_atom_site_fract_x
_atom_site_fract_y
_atom_site_fract_z
Si Si1 0.664740 0.185631 0.388487
Si Si2 0.888862 0.055978 0.125609
Si Si3 0.048670 0.561483 0.562609
Si Si4 0.712803 0.898875 0.338783
Si Si5 0.574300 0.583964 0.707203
Si Si6 0.712080 0.318607 0.643091
Si Si7 0.500000 0.157560 0.750000
O O1 0.665532 0.129692 0.536011
O O2 0.691045 0.246350 0.573086
O O3 0.733579 0.170849 0.405708
O O4 0.574321 0.194587 0.049255
O O5 0.971665 0.082995 0.448717
O O6 0.897211 0.981914 0.135447
O O7 0.801101 0.073179 0.995892
O O8 0.898462 0.081003 0.940586
O O9 0.148118 0.553260 0.768570
O O10 0.000000 0.500000 0.500000
O O11 0.042524 0.612560 0.707448
O O12 0.000000 0.583268 0.250000
O O13 0.734262 0.844527 0.542735
O O14 0.625238 0.641611 0.919706
#
# Coordination Sequence:
#
# PCOD9285474 Si02
#       7
#     8   8   8   8   8   8   4
#     4  11  25  45  70 101 137 186 236 289 347 411
#     4  10  22  38  69  97 141 173 224 282 354 415
#     4  12  26  43  69 101 141 182 232 288 353 423
#     4  12  24  44  70 102 137 183 234 288 342 421
#     4  10  21  42  62 102 137 177 219 286 349 418
#     4  11  24  44  70 100 141 181 236 287 344 412
#     4  12  24  48  68  96 142 180 228 296 352 410
#
# _framework density 21.510694999999998
#
# number of rings (size 3 to 8) (size 9 to 14) (size 15 to 20)
#    0.000    0.923    5.385    1.385    0.000    6.769 
#    0.000    1.538    0.000    0.000    0.000    0.000 
#    0.000    0.000    0.000    0.000    0.000    0.000 
#
# Total GULP energy -145393.552009 kJ/mol
# GULP energy per Si atom -5592.059693 kJ/mol
# Density = 2.146174 g / cm^3
# Si number density = 21.510695 Si / 1000 Ang^3
#
#
#
# Elastic Constant Matrix: (Units=GPa)
#
#
# Indices 1 2 3 4 5 6 
#
# 1 156.8163 36.9686 33.8284 0.0000 28.6361 0.0000
# 2 36.9686 36.5042 14.8559 0.0000 9.4460 0.0000
# 3 33.8284 14.8559 84.8918 0.0000 7.6691 0.0000
# 4 0.0000 0.0000 0.0000 31.2972 0.0000 -0.8621
# 5 28.6361 9.4460 7.6691 0.0000 36.5676 0.0000
# 6 0.0000 0.0000 0.0000 -0.8621 0.0000 43.3290
#
#
#
# Elastic Compliance Matrix: (Units=1/GPa)
#
#
# Indices 1 2 3 4 5 6 
#
# 1 0.009507 -0.007490 -0.002018 0.000000 -0.005087 0.000000
# 2 -0.007490 0.037080 -0.003230 0.000000 -0.003035 0.000000
# 3 -0.002018 -0.003230 0.013181 0.000000 -0.000350 0.000000
# 4 0.000000 0.000000 0.000000 0.031969 0.000000 0.000636
# 5 -0.005087 -0.003035 -0.000350 0.000000 0.032187 0.000000
# 6 0.000000 0.000000 0.000000 0.000636 0.000000 0.023092
#
#
# Mechanical properties :
#
#
# Convention : Reuss Voigt Hill
#
# Bulk Modulus (GPa) = 29.16244 49.94646 39.55445
# Shear Modulus (GPa) = 27.18536 35.07605 31.13071
#
# Velocity S-wave (km/s) = 3.55886 4.04249 3.80836
# Velocity P-wave (km/s) = 5.52032 6.71258 6.14543
#
# Compressibility (1/GPa) = 0.03429068
#
# Stress axis : x y z
#
# Youngs Moduli (GPa) = 105.18644 26.96900 75.86860
#
# Poissons Ratio (x) = 0.20201 0.15311
# Poissons Ratio (y) = 0.78788 0.24505
# Poissons Ratio (z) = 0.21227 0.08711
#
# Static dielectric constant tensor:
#      x y z
#    x 1.790100 0.000000 -0.005360 
#    y 0.000000 1.735740 0.000000 
#    z -0.005360 0.000000 1.802460 
# 
# From -- ./inp_files/16246.got.cif
#   From: 2010.05.17/outbox.cif.g08.bks.cpg/sg15_9_cif.got.tgz:16246.got - 2010.06.03 18:47:42.
