data_PCOD9285879
_publ_section_title
;
Structure prediction by ZEFSAII (Michael W. Deem and Ramdas Pophale) SiO2 
 PCOD9285879
Probable space group: C 2/C
;
_chemical_formula_sum "Si O2"
_cell_formula_units_Z 44
_cell_length_a 20.665882
_cell_length_b 7.241130
_cell_length_c 13.532843
_cell_angle_alpha 90.000000
_cell_angle_beta 112.941849
_cell_angle_gamma 90.000000
_cell_volume 1864.928778
_symmetry_space_group_name_H-M "C 2/C"
_symmetry_group_IT_number 15
_symmetry_cell_setting 'monoclinic'
loop_
_space_group_symop_operation_xyz
x,y,z
-x,y,1/2-z
-x,-y,-z
x,-y,1/2+z
1/2+x,1/2+y,z
1/2-x,1/2+y,1/2-z
1/2-x,1/2-y,-z
1/2+x,1/2-y,1/2+z
loop_
_atom_site_type_symbol
_atom_site_label
_atom_site_fract_x
_atom_site_fract_y
_atom_site_fract_z
Si Si1 0.146390 0.803446 0.914944
Si Si2 0.654926 0.886579 0.988239
Si Si3 0.000000 0.708515 0.750000
Si Si4 0.965495 0.712925 0.938769
Si Si5 0.893853 0.107448 0.901936
Si Si6 0.198044 0.128362 0.838840
O O1 0.066170 0.820788 0.829979
O O2 0.191280 0.911600 0.861857
O O3 0.162491 0.589383 0.943994
O O4 0.149781 0.902709 0.022633
O O5 0.585116 0.879972 0.011876
O O6 0.719676 0.834558 0.098817
O O7 0.657909 0.743149 0.900001
O O8 0.026705 0.615031 0.663959
O O9 0.928919 0.911687 0.896425
O O10 0.040498 0.759528 0.033148
O O11 0.841021 0.169597 0.785651
#
# Coordination Sequence:
#
# PCOD9285879 Si02
#       6
#     8   8   4   8   8   8
#     4  11  23  43  66 102 131 178 225 279 334 402
#     4  11  26  42  67 100 141 175 228 276 335 412
#     4  10  22  40  74  98 134 176 222 282 338 396
#     4  10  21  42  68 102 130 175 227 277 334 403
#     4  10  22  40  72  95 131 181 224 276 340 394
#     4  11  24  46  66  98 138 185 221 275 342 405
#
# _framework density 23.593395000000001
#
# number of rings (size 3 to 8) (size 9 to 14) (size 15 to 20)
#    0.000    1.455    3.636    0.545    0.000    8.000 
#    3.273    0.000    0.000    0.000    0.000    0.000 
#    0.000    0.000    0.000    0.000    0.000    0.000 
#
# Total GULP energy -122982.157859 kJ/mol
# GULP energy per Si atom -5590.098085 kJ/mol
# Density = 2.353970 g / cm^3
# Si number density = 23.593395 Si / 1000 Ang^3
#
#
#
# Elastic Constant Matrix: (Units=GPa)
#
#
# Indices 1 2 3 4 5 6 
#
# 1 30.8634 14.8014 29.9058 0.0000 -6.0300 0.0000
# 2 14.8014 76.7867 29.6185 0.0000 -8.2423 0.0000
# 3 29.9058 29.6185 200.4680 0.0000 15.0337 0.0000
# 4 0.0000 0.0000 0.0000 16.1208 0.0000 2.1577
# 5 -6.0300 -8.2423 15.0337 0.0000 34.0791 0.0000
# 6 0.0000 0.0000 0.0000 2.1577 0.0000 11.6437
#
#
#
# Elastic Compliance Matrix: (Units=1/GPa)
#
#
# Indices 1 2 3 4 5 6 
#
# 1 0.042636 -0.004786 -0.006342 0.000000 0.009184 0.000000
# 2 -0.004786 0.015012 -0.001771 0.000000 0.003565 0.000000
# 3 -0.006342 -0.001771 0.006528 0.000000 -0.004431 0.000000
# 4 0.000000 0.000000 0.000000 0.063609 0.000000 -0.011788
# 5 0.009184 0.003565 -0.004431 0.000000 0.033785 0.000000
# 6 0.000000 0.000000 0.000000 -0.011788 0.000000 0.088067
#
#
# Mechanical properties :
#
#
# Convention : Reuss Voigt Hill
#
# Bulk Modulus (GPa) = 26.05753 50.75217 38.40485
# Shear Modulus (GPa) = 17.34729 27.95488 22.65108
#
# Velocity S-wave (km/s) = 2.71451 3.44591 3.10185
# Velocity P-wave (km/s) = 4.57090 6.11476 5.39831
#
# Compressibility (1/GPa) = 0.03837662
#
# Stress axis : x y z
#
# Youngs Moduli (GPa) = 23.45442 66.61516 153.17733
#
# Poissons Ratio (x) = 0.31884 0.97145
# Poissons Ratio (y) = 0.11226 0.27132
# Poissons Ratio (z) = 0.14875 0.11799
#
# Static dielectric constant tensor:
#      x y z
#    x 1.911390 0.000000 -0.006230 
#    y 0.000000 1.960450 0.000000 
#    z -0.006230 0.000000 1.846170 
# 
# From -- ./inp_files/109928.got.cif
#   From: 2010.05.17/outbox.cif.g08.bks.cpg/sg15_55_cif.got.tgz:109928.got - 2010.06.03 18:47:42.
