data_PCOD9285155
_publ_section_title
;
Structure prediction by ZEFSAII (Michael W. Deem and Ramdas Pophale) SiO2 
 PCOD9285155
Probable space group: C 2/C
;
_chemical_formula_sum "Si O2"
_cell_formula_units_Z 60
_cell_length_a 7.557943
_cell_length_b 33.303134
_cell_length_c 11.398158
_cell_angle_alpha 90.000000
_cell_angle_beta 104.974129
_cell_angle_gamma 90.000000
_cell_volume 2771.530518
_symmetry_space_group_name_H-M "C 2/C"
_symmetry_group_IT_number 15
_symmetry_cell_setting 'monoclinic'
loop_
_space_group_symop_operation_xyz
x,y,z
-x,y,1/2-z
-x,-y,-z
x,-y,1/2+z
1/2+x,1/2+y,z
1/2-x,1/2+y,1/2-z
1/2-x,1/2-y,-z
1/2+x,1/2-y,1/2+z
loop_
_atom_site_type_symbol
_atom_site_label
_atom_site_fract_x
_atom_site_fract_y
_atom_site_fract_z
Si Si1 0.667058 0.904009 0.011432
Si Si2 0.706653 0.155294 0.324601
Si Si3 0.605491 0.730959 0.066226
Si Si4 0.972448 0.953026 0.506240
Si Si5 0.163768 0.164816 0.578283
Si Si6 0.171423 0.911475 0.218739
Si Si7 0.000000 0.292223 0.250000
Si Si8 0.745961 0.602447 0.382570
O O1 0.680509 0.904462 0.155325
O O2 0.830155 0.932766 0.991720
O O3 0.712609 0.861193 0.958315
O O4 0.458705 0.911586 0.933289
O O5 0.500000 0.161081 0.250000
O O6 0.803159 0.197561 0.335106
O O7 0.782255 0.121754 0.249906
O O8 0.535829 0.765069 0.141522
O O9 0.750000 0.750000 0.000000
O O10 0.455185 0.703973 0.972418
O O11 0.804994 0.939189 0.389817
O O12 0.891951 0.933322 0.610108
O O13 0.000000 0.000000 0.500000
O O14 0.089225 0.129583 0.649715
O O15 0.335093 0.180031 0.681170
O O16 0.213930 0.139773 0.468749
O O17 0.000000 0.932925 0.250000
#
# Coordination Sequence:
#
# PCOD9285155 Si02
#       8
#     8   8   8   8   8   8   4   8
#     4  10  21  41  67  99 127 174 226 262 339 404
#     4  10  23  42  68  93 129 176 233 276 333 431
#     4  12  28  41  65  96 138 179 223 298 364 414
#     4  10  22  40  64 104 136 168 219 273 344 404
#     4  11  24  42  66  94 127 173 229 276 343 419
#     4   9  19  38  68  92 123 169 217 268 319 405
#     4  12  28  40  62  96 138 172 228 292 348 422
#     4  10  22  43  72  92 130 182 223 281 331 410
#
# _framework density 21.648689000000001
#
# number of rings (size 3 to 8) (size 9 to 14) (size 15 to 20)
#    0.000    1.600    0.000    4.400    9.333    3.733 
#    7.200    0.000    2.933    0.000    0.000    0.000 
#    0.000    0.000    0.000    0.000    0.000    0.000 
#
# Total GULP energy -167314.994859 kJ/mol
# GULP energy per Si atom -5577.166495 kJ/mol
# Density = 2.159942 g / cm^3
# Si number density = 21.648689 Si / 1000 Ang^3
#
#
#
# Elastic Constant Matrix: (Units=GPa)
#
#
# Indices 1 2 3 4 5 6 
#
# 1 82.3129 29.3860 15.0891 0.0000 6.2222 0.0000
# 2 29.3860 83.7719 20.6150 0.0000 17.6782 0.0000
# 3 15.0891 20.6150 98.3524 0.0000 13.1403 0.0000
# 4 0.0000 0.0000 0.0000 8.5555 0.0000 -2.4256
# 5 6.2222 17.6782 13.1403 0.0000 31.6207 0.0000
# 6 0.0000 0.0000 0.0000 -2.4256 0.0000 26.1639
#
#
#
# Elastic Compliance Matrix: (Units=1/GPa)
#
#
# Indices 1 2 3 4 5 6 
#
# 1 0.014021 -0.004698 -0.001216 0.000000 0.000373 0.000000
# 2 -0.004698 0.015464 -0.001577 0.000000 -0.007066 0.000000
# 3 -0.001216 -0.001577 0.011154 0.000000 -0.003514 0.000000
# 4 0.000000 0.000000 0.000000 0.120039 0.000000 0.011129
# 5 0.000373 -0.007066 -0.003514 0.000000 0.036962 0.000000
# 6 0.000000 0.000000 0.000000 0.011129 0.000000 0.039252
#
#
# Mechanical properties :
#
#
# Convention : Reuss Voigt Hill
#
# Bulk Modulus (GPa) = 38.97411 43.84637 41.41024
# Shear Modulus (GPa) = 19.19930 26.55782 22.87856
#
# Velocity S-wave (km/s) = 2.98125 3.50632 3.25439
# Velocity P-wave (km/s) = 5.46740 6.05722 5.76985
#
# Compressibility (1/GPa) = 0.02565806
#
# Stress axis : x y z
#
# Youngs Moduli (GPa) = 71.32366 64.66575 89.65303
#
# Poissons Ratio (x) = 0.30377 0.10903
# Poissons Ratio (y) = 0.33505 0.14135
# Poissons Ratio (z) = 0.08674 0.10195
#
# Static dielectric constant tensor:
#      x y z
#    x 1.855980 0.000000 -0.048190 
#    y 0.000000 1.736470 0.000000 
#    z -0.048190 0.000000 2.358430 
# 
# From -- ./inp_files/82635.got.cif
#   From: 2010.05.17/outbox.cif.g08.bks.cpg/sg15_42_cif.got.tgz:82635.got - 2010.06.03 18:47:42.
