data_PCOD9285972
_publ_section_title
;
Structure prediction by ZEFSAII (Michael W. Deem and Ramdas Pophale) SiO2 
 PCOD9285972
Probable space group: C 2/C
;
_chemical_formula_sum "Si O2"
_cell_formula_units_Z 64
_cell_length_a 11.346997
_cell_length_b 27.374965
_cell_length_c 15.830521
_cell_angle_alpha 90.000000
_cell_angle_beta 34.433936
_cell_angle_gamma 90.000000
_cell_volume 2780.534203
_symmetry_space_group_name_H-M "C 2/C"
_symmetry_group_IT_number 15
_symmetry_cell_setting 'monoclinic'
loop_
_space_group_symop_operation_xyz
x,y,z
-x,y,1/2-z
-x,-y,-z
x,-y,1/2+z
1/2+x,1/2+y,z
1/2-x,1/2+y,1/2-z
1/2-x,1/2-y,-z
1/2+x,1/2-y,1/2+z
loop_
_atom_site_type_symbol
_atom_site_label
_atom_site_fract_x
_atom_site_fract_y
_atom_site_fract_z
Si Si1 0.212847 0.382996 0.977540
Si Si2 0.182130 0.871928 0.768768
Si Si3 0.061076 0.798948 0.311770
Si Si4 0.809519 0.293922 0.407058
Si Si5 0.193063 0.037934 0.389383
Si Si6 0.038284 0.085482 0.826509
Si Si7 0.368086 0.717129 0.092986
Si Si8 0.043799 0.525173 0.882460
O O1 0.449495 0.371098 0.865972
O O2 0.179274 0.374425 0.897620
O O3 0.103222 0.342477 0.099627
O O4 0.143540 0.438536 0.032909
O O5 0.174099 0.919274 0.831538
O O6 0.247132 0.826938 0.789823
O O7 0.075103 0.857009 0.319170
O O8 0.272283 0.766155 0.189931
O O9 0.000000 0.793036 0.250000
O O10 0.884114 0.781050 0.482479
O O11 0.750000 0.250000 0.500000
O O12 0.606734 0.299189 0.470167
O O13 0.000000 0.270161 0.250000
O O14 0.152868 0.064373 0.503604
O O15 0.394161 0.010145 0.231626
O O16 0.000000 0.000000 0.500000
O O17 0.250575 0.058149 0.725954
O O18 0.000000 0.077020 0.750000
O O19 0.000000 0.500000 0.000000
#
# Coordination Sequence:
#
# PCOD9285972 Si02
#       8
#     8   8   8   8   8   8   8   8
#     4  10  24  40  67 101 137 178 227 273 346 416
#     4  10  21  43  67  98 141 181 213 285 351 406
#     4  11  24  44  70  98 131 183 236 286 346 410
#     4  11  26  41  65 102 140 180 227 278 348 426
#     4  10  21  42  69  93 130 178 225 277 344 402
#     4  10  24  45  68  93 134 181 226 283 350 404
#     4  11  24  41  68  97 138 180 228 285 343 413
#     4  11  23  40  69 103 134 172 233 285 338 413
#
# _framework density 23.017158999999999
#
# number of rings (size 3 to 8) (size 9 to 14) (size 15 to 20)
#    0.000    1.500    2.500    1.125    8.750    3.000 
#    0.000    3.125    0.000    0.000    0.000    0.000 
#    0.000    0.000    0.000    0.000    0.000    0.000 
#
# Total GULP energy -178423.205612 kJ/mol
# GULP energy per Si atom -5575.725175 kJ/mol
# Density = 2.296477 g / cm^3
# Si number density = 23.017159 Si / 1000 Ang^3
#
#
#
# Elastic Constant Matrix: (Units=GPa)
#
#
# Indices 1 2 3 4 5 6 
#
# 1 62.6574 41.2412 28.0886 0.0000 31.2900 0.0003
# 2 41.2412 111.0327 70.0539 0.0000 21.5983 0.0000
# 3 28.0886 70.0539 163.1577 0.0001 40.5420 0.0005
# 4 0.0000 0.0000 0.0001 47.6455 -0.0001 9.0354
# 5 31.2900 21.5983 40.5420 -0.0001 36.9849 -0.0003
# 6 0.0003 0.0000 0.0005 9.0354 -0.0003 50.4858
#
#
#
# Elastic Compliance Matrix: (Units=1/GPa)
#
#
# Indices 1 2 3 4 5 6 
#
# 1 0.035933 -0.011364 0.006319 0.000000 -0.030691 0.000000
# 2 -0.011364 0.016047 -0.006863 0.000000 0.007766 0.000000
# 3 0.006319 -0.006863 0.011435 0.000000 -0.013873 0.000000
# 4 0.000000 0.000000 0.000000 0.021726 0.000000 -0.003888
# 5 -0.030691 0.007766 -0.013873 0.000000 0.063675 0.000001
# 6 0.000000 0.000000 0.000000 -0.003888 0.000001 0.020503
#
#
# Mechanical properties :
#
#
# Convention : Reuss Voigt Hill
#
# Bulk Modulus (GPa) = 25.25292 68.40170 46.82731
# Shear Modulus (GPa) = 24.23247 40.18753 32.21000
#
# Velocity S-wave (km/s) = 3.24821 4.18303 3.74490
# Velocity P-wave (km/s) = 5.00629 7.28783 6.25202
#
# Compressibility (1/GPa) = 0.03959939
#
# Stress axis : x y z
#
# Youngs Moduli (GPa) = 27.82958 62.31781 87.44859
#
# Poissons Ratio (x) = 0.70816 -0.55260
# Poissons Ratio (y) = 0.31625 0.60019
# Poissons Ratio (z) = -0.17586 0.42771
#
# Static dielectric constant tensor:
#      x y z
#    x 1.922470 0.000000 0.002980 
#    y 0.000000 1.791190 0.000000 
#    z 0.002980 0.000000 1.946390 
# 
# From -- ./inp_files/148771.got.cif
#   From: 2010.05.17/outbox.cif.g08.bks.cpg/sg15_75_cif.got.tgz:148771.got - 2010.06.03 18:47:42.
