data_PCOD9285239
_publ_section_title
;
Structure prediction by ZEFSAII (Michael W. Deem and Ramdas Pophale) SiO2 
 PCOD9285239
Probable space group: C 2/C
;
_chemical_formula_sum "Si O2"
_cell_formula_units_Z 48
_cell_length_a 8.406827
_cell_length_b 11.559908
_cell_length_c 22.984361
_cell_angle_alpha 90.000000
_cell_angle_beta 71.432307
_cell_angle_gamma 90.000000
_cell_volume 2117.402818
_symmetry_space_group_name_H-M "C 2/C"
_symmetry_group_IT_number 15
_symmetry_cell_setting 'monoclinic'
loop_
_space_group_symop_operation_xyz
x,y,z
-x,y,1/2-z
-x,-y,-z
x,-y,1/2+z
1/2+x,1/2+y,z
1/2-x,1/2+y,1/2-z
1/2-x,1/2-y,-z
1/2+x,1/2-y,1/2+z
loop_
_atom_site_type_symbol
_atom_site_label
_atom_site_fract_x
_atom_site_fract_y
_atom_site_fract_z
Si Si1 0.103731 0.227815 0.681759
Si Si2 0.750761 0.455948 0.077728
Si Si3 0.459919 0.799663 0.190497
Si Si4 0.473890 0.031183 0.364107
Si Si5 0.384311 0.293838 0.937521
Si Si6 0.845962 0.916475 0.534318
O O1 0.139927 0.127108 0.631248
O O2 0.287710 0.254996 0.687073
O O3 0.014656 0.337575 0.661288
O O4 0.000000 0.188272 0.750000
O O5 0.663311 0.578907 0.078153
O O6 0.921196 0.491210 0.091043
O O7 0.758100 0.400197 0.012747
O O8 0.500000 0.756608 0.250000
O O9 0.595936 0.776098 0.124204
O O10 0.456751 0.939534 0.190590
O O11 0.278532 0.026473 0.404865
O O12 0.563653 0.304755 0.949162
O O13 0.250000 0.250000 0.000000
O O14 0.000000 0.000000 0.500000
#
# Coordination Sequence:
#
# PCOD9285239 Si02
#       6
#     8   8   8   8   8   8
#     4  11  26  46  68 101 141 186 244 301 360 431
#     4  10  25  42  69 103 134 189 230 293 364 431
#     4  11  25  45  70 100 138 188 240 294 364 437
#     4  11  23  46  68 102 141 179 239 293 369 432
#     4  11  24  44  70 106 143 187 238 299 367 430
#     4  10  21  41  68  98 140 179 228 291 355 433
#
# _framework density 22.669281000000002
#
# number of rings (size 3 to 8) (size 9 to 14) (size 15 to 20)
#    0.000    1.333    1.667    3.000    4.667    5.333 
#    3.000    0.000    0.000    0.000    0.000    0.000 
#    0.000    0.000    0.000    0.000    0.000    0.000 
#
# Total GULP energy -133983.996038 kJ/mol
# GULP energy per Si atom -5582.666502 kJ/mol
# Density = 2.261768 g / cm^3
# Si number density = 22.669281 Si / 1000 Ang^3
#
#
#
# Elastic Constant Matrix: (Units=GPa)
#
#
# Indices 1 2 3 4 5 6 
#
# 1 82.3725 20.0689 30.9289 0.0000 18.6568 0.0000
# 2 20.0689 86.7517 25.5039 0.0000 12.9773 0.0000
# 3 30.9289 25.5039 129.0647 0.0000 11.6148 0.0000
# 4 0.0000 0.0000 0.0000 26.2762 0.0000 -1.2303
# 5 18.6568 12.9773 11.6148 0.0000 42.6738 0.0000
# 6 0.0000 0.0000 0.0000 -1.2303 0.0000 37.6554
#
#
#
# Elastic Compliance Matrix: (Units=1/GPa)
#
#
# Indices 1 2 3 4 5 6 
#
# 1 0.014777 -0.001850 -0.002711 0.000000 -0.005160 0.000000
# 2 -0.001850 0.012894 -0.001870 0.000000 -0.002604 0.000000
# 3 -0.002711 -0.001870 0.008826 0.000000 -0.000648 0.000000
# 4 0.000000 0.000000 0.000000 0.038116 0.000000 0.001245
# 5 -0.005160 -0.002604 -0.000648 0.000000 0.026658 0.000000
# 6 0.000000 0.000000 0.000000 0.001245 0.000000 0.026597
#
#
# Mechanical properties :
#
#
# Convention : Reuss Voigt Hill
#
# Bulk Modulus (GPa) = 42.31067 50.13250 46.22159
# Shear Modulus (GPa) = 33.64532 36.10022 34.87277
#
# Velocity S-wave (km/s) = 3.85669 3.99491 3.92641
# Velocity P-wave (km/s) = 6.20781 6.59104 6.40229
#
# Compressibility (1/GPa) = 0.02363470
#
# Stress axis : x y z
#
# Youngs Moduli (GPa) = 67.67098 77.55316 113.30507
#
# Poissons Ratio (x) = 0.14344 0.30721
# Poissons Ratio (y) = 0.12516 0.21194
# Poissons Ratio (z) = 0.18348 0.14506
#
# Static dielectric constant tensor:
#      x y z
#    x 0.938930 0.000000 0.241830 
#    y 0.000000 2.175230 0.000000 
#    z 0.241830 0.000000 1.822600 
# 
# From -- ./inp_files/263477.got.cif
#   From: 2010.05.17/outbox.cif.g08.bks.cpg/sg15_132_cif.got.tgz:263477.got - 2010.06.03 18:47:42.
