data_PCOD9285264
_publ_section_title
;
Structure prediction by ZEFSAII (Michael W. Deem and Ramdas Pophale) SiO2 
 PCOD9285264
Probable space group: C 2/C
;
_chemical_formula_sum "Si O2"
_cell_formula_units_Z 64
_cell_length_a 25.393916
_cell_length_b 19.917707
_cell_length_c 11.200992
_cell_angle_alpha 90.000000
_cell_angle_beta 153.674824
_cell_angle_gamma 90.000000
_cell_volume 2512.377647
_symmetry_space_group_name_H-M "C 2/C"
_symmetry_group_IT_number 15
_symmetry_cell_setting 'monoclinic'
loop_
_space_group_symop_operation_xyz
x,y,z
-x,y,1/2-z
-x,-y,-z
x,-y,1/2+z
1/2+x,1/2+y,z
1/2-x,1/2+y,1/2-z
1/2-x,1/2-y,-z
1/2+x,1/2-y,1/2+z
loop_
_atom_site_type_symbol
_atom_site_label
_atom_site_fract_x
_atom_site_fract_y
_atom_site_fract_z
Si Si1 0.704976 0.072193 0.619398
Si Si2 0.535713 0.743410 0.636163
Si Si3 0.173360 0.714101 0.650892
Si Si4 0.360204 0.875084 0.758508
Si Si5 0.172249 0.030577 0.417965
Si Si6 0.513905 0.596670 0.633583
Si Si7 0.859957 0.679464 0.497083
Si Si8 0.889715 0.553790 0.704767
O O1 0.653508 0.134769 0.591305
O O2 0.716379 0.104715 0.511618
O O3 0.632786 0.003315 0.443432
O O4 0.821888 0.056603 0.933664
O O5 0.398670 0.761678 0.380991
O O6 0.591362 0.799630 0.666976
O O7 0.543999 0.665749 0.627941
O O8 0.606528 0.753475 0.902896
O O9 0.302037 0.748476 0.904658
O O10 0.303713 0.862683 0.772088
O O11 0.473198 0.926504 0.991396
O O12 0.897268 0.930129 0.826955
O O13 0.308257 0.030911 0.649760
O O14 0.111000 0.040614 0.805202
O O15 0.500000 0.605611 0.750000
O O16 0.842447 0.626521 0.567136
O O17 0.000000 0.683319 0.750000
#
# Coordination Sequence:
#
# PCOD9285264 Si02
#       8
#     8   8   8   8   8   8   8   8
#     4  11  25  42  67 105 142 184 239 300 358 429
#     4  10  21  41  75 103 139 190 244 301 361 432
#     4  10  21  41  69 103 142 184 243 297 360 429
#     4  10  24  46  68 107 142 191 240 302 364 432
#     4  11  26  41  70 105 138 192 239 297 361 439
#     4  11  23  46  70 102 146 188 241 300 367 432
#     4  10  24  45  70 102 145 196 242 300 365 433
#     4  11  24  44  68 101 147 193 241 292 371 432
#
# _framework density 25.473877000000002
#
# number of rings (size 3 to 8) (size 9 to 14) (size 15 to 20)
#    0.000    1.500    1.250    2.625    3.500    6.500 
#   15.750    6.250    0.000    0.000    0.000    0.000 
#    0.000    0.000    0.000    0.000    0.000    0.000 
#
# Total GULP energy -178808.300323 kJ/mol
# GULP energy per Si atom -5587.759385 kJ/mol
# Density = 2.541590 g / cm^3
# Si number density = 25.473877 Si / 1000 Ang^3
#
#
#
# Elastic Constant Matrix: (Units=GPa)
#
#
# Indices 1 2 3 4 5 6 
#
# 1 55.6696 23.3951 53.0758 0.0000 -13.4425 0.0000
# 2 23.3951 168.2759 60.9691 0.0000 1.3866 0.0000
# 3 53.0758 60.9691 107.1972 0.0000 -24.3179 0.0000
# 4 0.0000 0.0000 0.0000 30.6462 0.0000 -4.7188
# 5 -13.4425 1.3866 -24.3179 0.0000 42.1927 0.0000
# 6 0.0000 0.0000 0.0000 -4.7188 0.0000 32.4424
#
#
#
# Elastic Compliance Matrix: (Units=1/GPa)
#
#
# Indices 1 2 3 4 5 6 
#
# 1 0.034442 0.001680 -0.017868 0.000000 0.000620 0.000000
# 2 0.001680 0.007938 -0.006080 0.000000 -0.003230 0.000000
# 3 -0.017868 -0.006080 0.023454 0.000000 0.008025 0.000000
# 4 0.000000 0.000000 0.000000 0.033378 0.000000 0.004855
# 5 0.000620 -0.003230 0.008025 0.000000 0.028629 0.000000
# 6 0.000000 0.000000 0.000000 0.004855 0.000000 0.031530
#
#
# Mechanical properties :
#
#
# Convention : Reuss Voigt Hill
#
# Bulk Modulus (GPa) = 46.94965 67.33586 57.14276
# Shear Modulus (GPa) = 23.69587 33.96977 28.83282
#
# Velocity S-wave (km/s) = 3.05323 3.65569 3.36796
# Velocity P-wave (km/s) = 5.55879 6.65654 6.13228
#
# Compressibility (1/GPa) = 0.02129941
#
# Stress axis : x y z
#
# Youngs Moduli (GPa) = 29.03395 125.97073 42.63675
#
# Poissons Ratio (x) = -0.21169 0.76185
# Poissons Ratio (y) = -0.04879 0.25922
# Poissons Ratio (z) = 0.51879 0.76586
#
# Static dielectric constant tensor:
#      x y z
#    x 2.026740 0.000000 -0.012760 
#    y 0.000000 2.032780 0.000000 
#    z -0.012760 0.000000 2.109660 
# 
# From -- ./inp_files/124307.got.cif
#   From: 2010.05.17/outbox.cif.g08.bks.cpg/sg15_63_cif.got.tgz:124307.got - 2010.06.03 18:47:42.
