data_PCOD9285515
_publ_section_title
;
Structure prediction by ZEFSAII (Michael W. Deem and Ramdas Pophale) SiO2 
 PCOD9285515
Probable space group: C 2/C
;
_chemical_formula_sum "Si O2"
_cell_formula_units_Z 60
_cell_length_a 19.685792
_cell_length_b 19.575257
_cell_length_c 8.882933
_cell_angle_alpha 90.000000
_cell_angle_beta 58.877428
_cell_angle_gamma 90.000000
_cell_volume 2930.371927
_symmetry_space_group_name_H-M "C 2/C"
_symmetry_group_IT_number 15
_symmetry_cell_setting 'monoclinic'
loop_
_space_group_symop_operation_xyz
x,y,z
-x,y,1/2-z
-x,-y,-z
x,-y,1/2+z
1/2+x,1/2+y,z
1/2-x,1/2+y,1/2-z
1/2-x,1/2-y,-z
1/2+x,1/2-y,1/2+z
loop_
_atom_site_type_symbol
_atom_site_label
_atom_site_fract_x
_atom_site_fract_y
_atom_site_fract_z
Si Si1 0.140259 0.720249 0.874674
Si Si2 0.422338 0.229211 0.881882
Si Si3 0.500000 0.740909 0.750000
Si Si4 0.234452 0.667051 0.324020
Si Si5 0.423373 0.650614 0.591403
Si Si6 0.188868 0.961349 0.886238
Si Si7 0.743551 0.614709 0.857080
Si Si8 0.570675 0.514518 0.778415
O O1 0.116119 0.742723 0.734382
O O2 0.210699 0.775517 0.818792
O O3 0.179951 0.646023 0.812285
O O4 0.063372 0.721369 0.069431
O O5 0.500000 0.185717 0.750000
O O6 0.355649 0.193839 0.060783
O O7 0.451299 0.298027 0.929895
O O8 0.443914 0.692456 0.715572
O O9 0.249691 0.598245 0.215171
O O10 0.256702 0.647036 0.473529
O O11 0.332833 0.639544 0.648181
O O12 0.459523 0.575178 0.576917
O O13 0.233027 0.033246 0.865683
O O14 0.127861 0.967273 0.813864
O O15 0.132428 0.949434 0.093336
O O16 0.500000 0.489254 0.750000
#
# Coordination Sequence:
#
# PCOD9285515 Si02
#       8
#     8   8   4   8   8   8   8   8
#     4  11  22  40  66  91 125 160 215 259 310 377
#     4  11  21  40  68  93 122 161 211 264 317 372
#     4  12  24  36  56  98 130 158 194 266 318 362
#     4  11  21  41  68  94 116 168 217 260 304 375
#     4  11  21  39  56  92 126 160 203 252 314 363
#     4  11  23  41  62  85 128 168 210 257 310 368
#     4  10  21  42  63  89 120 169 213 253 309 375
#     4  11  23  40  56  89 129 173 209 245 303 380
#
# _framework density 20.475218000000002
#
# number of rings (size 3 to 8) (size 9 to 14) (size 15 to 20)
#    0.000    1.067    6.000    2.000    0.000    0.533 
#    4.800    2.000    1.467    1.600    0.000    0.000 
#    0.000    0.000    0.000    0.000    0.000    0.000 
#
# Total GULP energy -167258.399171 kJ/mol
# GULP energy per Si atom -5575.279972 kJ/mol
# Density = 2.042862 g / cm^3
# Si number density = 20.475218 Si / 1000 Ang^3
#
#
#
# Elastic Constant Matrix: (Units=GPa)
#
#
# Indices 1 2 3 4 5 6 
#
# 1 24.6080 18.5228 3.4807 0.0000 -1.6113 0.0000
# 2 18.5228 87.2359 45.7985 0.0000 -19.4324 0.0000
# 3 3.4807 45.7985 125.9156 0.0000 -24.2132 0.0000
# 4 0.0000 0.0000 0.0000 20.4668 0.0000 8.6820
# 5 -1.6113 -19.4324 -24.2132 0.0000 41.7866 0.0000
# 6 0.0000 0.0000 0.0000 8.6820 0.0000 6.3073
#
#
#
# Elastic Compliance Matrix: (Units=1/GPa)
#
#
# Indices 1 2 3 4 5 6 
#
# 1 0.049468 -0.012442 0.002715 0.000000 -0.002306 0.000000
# 2 -0.012442 0.017936 -0.005254 0.000000 0.004817 0.000000
# 3 0.002715 -0.005254 0.010498 0.000000 0.003744 0.000000
# 4 0.000000 0.000000 0.000000 0.117427 0.000000 -0.161639
# 5 -0.002306 0.004817 0.003744 0.000000 0.028252 0.000000
# 6 0.000000 0.000000 0.000000 -0.161639 0.000000 0.381044
#
#
# Mechanical properties :
#
#
# Convention : Reuss Voigt Hill
#
# Bulk Modulus (GPa) = 20.85967 41.48482 31.17225
# Shear Modulus (GPa) = 7.68560 25.04263 16.36412
#
# Velocity S-wave (km/s) = 1.93953 3.50104 2.83011
# Velocity P-wave (km/s) = 3.90199 6.05376 5.09282
#
# Compressibility (1/GPa) = 0.04793940
#
# Stress axis : x y z
#
# Youngs Moduli (GPa) = 20.21521 55.75321 95.25914
#
# Poissons Ratio (x) = 0.69370 -0.25861
# Poissons Ratio (y) = 0.25152 0.50045
# Poissons Ratio (z) = -0.05488 0.29290
#
# Static dielectric constant tensor:
#      x y z
#    x 1.782050 0.000000 -0.003820 
#    y 0.000000 1.747180 0.000000 
#    z -0.003820 0.000000 1.792840 
# 
# From -- ./inp_files/58084.got.cif
#   From: 2010.05.17/outbox.cif.g08.bks.cpg/sg15_30_cif.got.tgz:58084.got - 2010.06.03 18:47:42.
