data_PCOD9285128
_publ_section_title
;
Structure prediction by ZEFSAII (Michael W. Deem and Ramdas Pophale) SiO2 
 PCOD9285128
Probable space group: C 2/C
;
_chemical_formula_sum "Si O2"
_cell_formula_units_Z 32
_cell_length_a 7.113666
_cell_length_b 15.338387
_cell_length_c 11.470213
_cell_angle_alpha 90.000000
_cell_angle_beta 90.355695
_cell_angle_gamma 90.000000
_cell_volume 1251.515623
_symmetry_space_group_name_H-M "C 2/C"
_symmetry_group_IT_number 15
_symmetry_cell_setting 'monoclinic'
loop_
_space_group_symop_operation_xyz
x,y,z
-x,y,1/2-z
-x,-y,-z
x,-y,1/2+z
1/2+x,1/2+y,z
1/2-x,1/2+y,1/2-z
1/2-x,1/2-y,-z
1/2+x,1/2-y,1/2+z
loop_
_atom_site_type_symbol
_atom_site_label
_atom_site_fract_x
_atom_site_fract_y
_atom_site_fract_z
Si Si1 0.663976 0.157404 0.026635
Si Si2 0.775903 0.478350 0.511700
Si Si3 0.840293 0.347540 0.346847
Si Si4 0.221165 0.842640 0.717942
O O1 0.662464 0.140060 0.164219
O O2 0.750000 0.250000 0.000000
O O3 0.464451 0.167497 0.963145
O O4 0.790975 0.078064 0.976873
O O5 0.721624 0.430294 0.390350
O O6 0.737567 0.417772 0.621775
O O7 0.000000 0.500000 0.500000
O O8 0.736680 0.257810 0.318389
O O9 0.000000 0.367679 0.250000
O O10 0.000000 0.838285 0.750000
#
# Coordination Sequence:
#
# PCOD9285128 Si02
#       4
#     8   8   8   8
#     4  11  22  41  67  92 134 172 222 277 333 390
#     4  10  25  40  69  96 129 173 235 269 334 398
#     4  10  21  41  67  94 133 172 226 275 329 398
#     4  11  23  42  69  94 138 177 221 279 338 393
#
# _framework density 25.568995999999999
#
# number of rings (size 3 to 8) (size 9 to 14) (size 15 to 20)
#    0.000    1.500    5.000    0.750    7.000    4.000 
#    0.000    0.000    5.500    0.000    0.000    0.000 
#    0.000    0.000    0.000    0.000    0.000    0.000 
#
# Total GULP energy -89398.386942 kJ/mol
# GULP energy per Si atom -5587.399184 kJ/mol
# Density = 2.551080 g / cm^3
# Si number density = 25.568996 Si / 1000 Ang^3
#
#
#
# Elastic Constant Matrix: (Units=GPa)
#
#
# Indices 1 2 3 4 5 6 
#
# 1 45.4243 -3.8565 12.1129 0.0000 -5.2378 0.0000
# 2 -3.8565 201.2032 50.1526 0.0000 -21.5759 0.0000
# 3 12.1129 50.1526 144.5477 0.0000 -0.4951 0.0000
# 4 0.0000 0.0000 0.0000 40.2595 0.0000 -0.0689
# 5 -5.2378 -21.5759 -0.4951 0.0000 40.8073 0.0000
# 6 0.0000 0.0000 0.0000 -0.0689 0.0000 12.3998
#
#
#
# Elastic Compliance Matrix: (Units=1/GPa)
#
#
# Indices 1 2 3 4 5 6 
#
# 1 0.023216 0.001451 -0.002436 0.000000 0.003717 0.000000
# 2 0.001451 0.005885 -0.002152 0.000000 0.003272 0.000000
# 3 -0.002436 -0.002152 0.007864 0.000000 -0.001355 0.000000
# 4 0.000000 0.000000 0.000000 0.024839 0.000000 0.000138
# 5 0.003717 0.003272 -0.001355 0.000000 0.026696 0.000000
# 6 0.000000 0.000000 0.000000 0.000138 0.000000 0.080648
#
#
# Mechanical properties :
#
#
# Convention : Reuss Voigt Hill
#
# Bulk Modulus (GPa) = 32.58332 56.44369 44.51350
# Shear Modulus (GPa) = 26.93185 40.87773 33.90479
#
# Velocity S-wave (km/s) = 3.24898 4.00274 3.64539
# Velocity P-wave (km/s) = 5.18126 6.59436 5.93005
#
# Compressibility (1/GPa) = 0.03069055
#
# Stress axis : x y z
#
# Youngs Moduli (GPa) = 43.07356 169.91607 127.15504
#
# Poissons Ratio (x) = -0.24653 0.30977
# Poissons Ratio (y) = -0.06249 0.27368
# Poissons Ratio (z) = 0.10493 0.36572
#
# Static dielectric constant tensor:
#      x y z
#    x 2.293340 0.000000 -0.095850 
#    y 0.000000 2.447980 0.000000 
#    z -0.095850 0.000000 2.070190 
# 
# From -- ./inp_files/75338.got.cif
#   From: 2010.05.17/outbox.cif.g08.bks.cpg/sg15_38_cif.got.tgz:75338.got - 2010.06.03 18:47:42.
