data_PCOD9285698
_publ_section_title
;
Structure prediction by ZEFSAII (Michael W. Deem and Ramdas Pophale) SiO2 
 PCOD9285698
Probable space group: C 2/C
;
_chemical_formula_sum "Si O2"
_cell_formula_units_Z 56
_cell_length_a 9.179122
_cell_length_b 24.138407
_cell_length_c 16.053504
_cell_angle_alpha 90.000000
_cell_angle_beta 131.223236
_cell_angle_gamma 90.000000
_cell_volume 2675.363090
_symmetry_space_group_name_H-M "C 2/C"
_symmetry_group_IT_number 15
_symmetry_cell_setting 'monoclinic'
loop_
_space_group_symop_operation_xyz
x,y,z
-x,y,1/2-z
-x,-y,-z
x,-y,1/2+z
1/2+x,1/2+y,z
1/2-x,1/2+y,1/2-z
1/2-x,1/2-y,-z
1/2+x,1/2-y,1/2+z
loop_
_atom_site_type_symbol
_atom_site_label
_atom_site_fract_x
_atom_site_fract_y
_atom_site_fract_z
Si Si1 0.817425 0.280112 0.237222
Si Si2 0.424069 0.332511 0.026855
Si Si3 0.270701 0.646346 0.643711
Si Si4 0.367381 0.454547 0.988433
Si Si5 0.708467 0.020128 0.605851
Si Si6 0.000000 0.412334 0.750000
Si Si7 0.180125 0.158705 0.199965
Si Si8 0.000000 0.073109 0.250000
O O1 0.611489 0.297867 0.121184
O O2 0.827847 0.310689 0.330750
O O3 0.816718 0.213989 0.245471
O O4 0.000000 0.297034 0.250000
O O5 0.270023 0.334790 0.045869
O O6 0.479354 0.396798 0.036459
O O7 0.349437 0.320143 0.906278
O O8 0.500000 0.646260 0.750000
O O9 0.201242 0.583346 0.636515
O O10 0.167623 0.445345 0.862063
O O11 0.500000 0.500000 0.000000
O O12 0.326212 0.471989 0.065897
O O13 0.500000 0.000000 0.500000
O O14 0.819621 0.969538 0.691809
O O15 0.883345 0.373935 0.771125
O O16 0.024291 0.115045 0.180033
#
# Coordination Sequence:
#
# PCOD9285698 Si02
#       8
#     8   8   8   8   8   4   8   4
#     4  11  24  44  64  98 133 175 231 287 346 396
#     4   9  22  43  66  95 128 177 223 276 340 404
#     4   9  20  42  66  92 131 170 221 284 335 400
#     4  10  21  42  65  98 137 171 221 279 342 402
#     4  11  22  38  67  98 128 177 221 268 344 412
#     4  10  22  42  65  97 130 176 238 270 332 418
#     4  11  24  44  66  97 135 183 226 282 343 401
#     4  12  24  44  67  95 150 176 216 288 346 406
#
# _framework density 20.931736999999998
#
# number of rings (size 3 to 8) (size 9 to 14) (size 15 to 20)
#    0.000    1.714    1.429    2.571    3.000    3.429 
#    9.000    0.000    0.000    0.000    0.000    0.000 
#    0.000    0.000    0.000    0.000    0.000    0.000 
#
# Total GULP energy -156148.393915 kJ/mol
# GULP energy per Si atom -5576.728354 kJ/mol
# Density = 2.088410 g / cm^3
# Si number density = 20.931737 Si / 1000 Ang^3
#
#
#
# Elastic Constant Matrix: (Units=GPa)
#
#
# Indices 1 2 3 4 5 6 
#
# 1 65.2373 46.0488 17.1214 0.0000 0.4513 0.0000
# 2 46.0488 121.5996 34.7476 0.0000 3.7894 0.0000
# 3 17.1214 34.7476 81.4139 0.0000 -4.5581 0.0000
# 4 0.0000 0.0000 0.0000 16.9526 0.0000 0.2412
# 5 0.4513 3.7894 -4.5581 0.0000 25.1526 0.0000
# 6 0.0000 0.0000 0.0000 0.2412 0.0000 21.6867
#
#
#
# Elastic Compliance Matrix: (Units=1/GPa)
#
#
# Indices 1 2 3 4 5 6 
#
# 1 0.021026 -0.007660 -0.001120 0.000000 0.000574 0.000000
# 2 -0.007660 0.012274 -0.003762 0.000000 -0.002393 0.000000
# 3 -0.001120 -0.003762 0.014302 0.000000 0.003179 0.000000
# 4 0.000000 0.000000 0.000000 0.058997 0.000000 -0.000656
# 5 0.000574 -0.002393 0.003179 0.000000 0.040684 0.000000
# 6 0.000000 0.000000 0.000000 -0.000656 0.000000 0.046119
#
#
# Mechanical properties :
#
#
# Convention : Reuss Voigt Hill
#
# Bulk Modulus (GPa) = 44.40951 51.56516 47.98734
# Shear Modulus (GPa) = 22.12477 24.11389 23.11933
#
# Velocity S-wave (km/s) = 3.25468 3.39783 3.32702
# Velocity P-wave (km/s) = 5.94864 6.33104 6.14282
#
# Compressibility (1/GPa) = 0.02251770
#
# Stress axis : x y z
#
# Youngs Moduli (GPa) = 47.56100 81.47315 69.92051
#
# Poissons Ratio (x) = 0.62408 0.07833
# Poissons Ratio (y) = 0.36432 0.26302
# Poissons Ratio (z) = 0.05328 0.30647
#
# Static dielectric constant tensor:
#      x y z
#    x 1.721130 0.000000 -0.045210 
#    y 0.000000 1.625310 0.000000 
#    z -0.045210 0.000000 1.788820 
# 
# From -- ./inp_files/193345.got.cif
#   From: 2010.05.17/outbox.cif.g08.bks.cpg/sg15_97_cif.got.tgz:193345.got - 2010.06.03 18:47:42.
