data_PCOD9285673
_publ_section_title
;
Structure prediction by ZEFSAII (Michael W. Deem and Ramdas Pophale) SiO2 
 PCOD9285673
Probable space group: C 2/C
;
_chemical_formula_sum "Si O2"
_cell_formula_units_Z 56
_cell_length_a 24.977758
_cell_length_b 9.176320
_cell_length_c 15.836869
_cell_angle_alpha 90.000000
_cell_angle_beta 126.267018
_cell_angle_gamma 90.000000
_cell_volume 2926.653157
_symmetry_space_group_name_H-M "C 2/C"
_symmetry_group_IT_number 15
_symmetry_cell_setting 'monoclinic'
loop_
_space_group_symop_operation_xyz
x,y,z
-x,y,1/2-z
-x,-y,-z
x,-y,1/2+z
1/2+x,1/2+y,z
1/2-x,1/2+y,1/2-z
1/2-x,1/2-y,-z
1/2+x,1/2-y,1/2+z
loop_
_atom_site_type_symbol
_atom_site_label
_atom_site_fract_x
_atom_site_fract_y
_atom_site_fract_z
Si Si1 0.314048 0.769979 0.341578
Si Si2 0.359574 0.886517 0.731796
Si Si3 0.721670 0.357702 0.401436
Si Si4 0.181628 0.837699 0.940819
Si Si5 0.423486 0.004564 0.956950
Si Si6 0.724027 0.541703 0.642834
Si Si7 0.075389 0.589712 0.844066
O O1 0.282392 0.851447 0.393199
O O2 0.387285 0.839044 0.405845
O O3 0.309101 0.595393 0.340431
O O4 0.260925 0.826433 0.223693
O O5 0.342402 0.720836 0.697650
O O6 0.385644 0.907159 0.851178
O O7 0.287935 0.965686 0.658959
O O8 0.403764 0.959263 0.700333
O O9 0.750000 0.250000 0.500000
O O10 0.697326 0.516996 0.403130
O O11 0.122754 0.726572 0.866245
O O12 0.250000 0.750000 0.000000
O O13 0.173300 0.895194 0.028378
O O14 0.500000 0.000000 0.000000
O O15 0.417755 0.955838 0.050122
O O16 0.000000 0.626069 0.750000
#
# Coordination Sequence:
#
# PCOD9285673 Si02
#       7
#     8   8   8   8   8   8   8
#     4  10  22  37  62  94 125 155 205 270 318 373
#     4  10  21  42  65  95 122 162 217 265 320 387
#     4  11  20  39  63  95 125 155 208 267 324 383
#     4  12  23  38  65  92 130 165 210 269 323 377
#     4  11  23  41  66  91 127 173 220 257 308 392
#     4  10  22  37  60  98 125 156 208 262 326 375
#     4  12  25  42  64  93 131 177 216 262 325 381
#
# _framework density 19.134485000000002
#
# number of rings (size 3 to 8) (size 9 to 14) (size 15 to 20)
#    0.000    1.143    5.714    1.714    8.000    0.000 
#    0.000    2.143    0.000    1.714    0.000    0.000 
#    0.000    0.000    0.000    0.000    0.000    0.000 
#
# Total GULP energy -156016.030693 kJ/mol
# GULP energy per Si atom -5572.001096 kJ/mol
# Density = 1.909093 g / cm^3
# Si number density = 19.134485 Si / 1000 Ang^3
#
#
#
# Elastic Constant Matrix: (Units=GPa)
#
#
# Indices 1 2 3 4 5 6 
#
# 1 55.9646 13.3187 13.9176 0.0000 13.2629 0.0000
# 2 13.3187 110.4019 32.0408 0.0000 11.3965 0.0000
# 3 13.9176 32.0408 88.2223 0.0000 2.8952 0.0000
# 4 0.0000 0.0000 0.0000 29.8530 0.0000 -5.8689
# 5 13.2629 11.3965 2.8952 0.0000 41.5251 0.0000
# 6 0.0000 0.0000 0.0000 -5.8689 0.0000 30.4732
#
#
#
# Elastic Compliance Matrix: (Units=1/GPa)
#
#
# Indices 1 2 3 4 5 6 
#
# 1 0.020184 -0.001063 -0.002602 0.000000 -0.005974 0.000000
# 2 -0.001063 0.010453 -0.003554 0.000000 -0.002281 0.000000
# 3 -0.002602 -0.003554 0.013007 0.000000 0.000900 0.000000
# 4 0.000000 0.000000 0.000000 0.034816 0.000000 0.006705
# 5 -0.005974 -0.002281 0.000900 0.000000 0.026553 0.000000
# 6 0.000000 0.000000 0.000000 0.006705 0.000000 0.034107
#
#
# Mechanical properties :
#
#
# Convention : Reuss Voigt Hill
#
# Bulk Modulus (GPa) = 34.23966 41.46033 37.84999
# Shear Modulus (GPa) = 30.61981 33.39103 32.00542
#
# Velocity S-wave (km/s) = 4.00464 4.18194 4.09425
# Velocity P-wave (km/s) = 6.27024 6.71066 6.49419
#
# Compressibility (1/GPa) = 0.02920590
#
# Stress axis : x y z
#
# Youngs Moduli (GPa) = 49.54367 95.66679 76.88398
#
# Poissons Ratio (x) = 0.10171 0.20005
# Poissons Ratio (y) = 0.05267 0.27322
# Poissons Ratio (z) = 0.12891 0.33997
#
# Static dielectric constant tensor:
#      x y z
#    x 2.461530 0.000000 -0.952890 
#    y 0.000000 1.605160 0.000000 
#    z -0.952890 0.000000 2.801190 
# 
# From -- ./inp_files/221716.got.cif
#   From: 2010.05.17/outbox.cif.g08.bks.cpg/sg15_111_cif.got.tgz:221716.got - 2010.06.03 18:47:42.
