data_PCOD9285281
_publ_section_title
;
Structure prediction by ZEFSAII (Michael W. Deem and Ramdas Pophale) SiO2 
 PCOD9285281
Probable space group: C 2/C
;
_chemical_formula_sum "Si O2"
_cell_formula_units_Z 44
_cell_length_a 16.721421
_cell_length_b 8.481390
_cell_length_c 15.183509
_cell_angle_alpha 90.000000
_cell_angle_beta 126.893467
_cell_angle_gamma 90.000000
_cell_volume 1722.139415
_symmetry_space_group_name_H-M "C 2/C"
_symmetry_group_IT_number 15
_symmetry_cell_setting 'monoclinic'
loop_
_space_group_symop_operation_xyz
x,y,z
-x,y,1/2-z
-x,-y,-z
x,-y,1/2+z
1/2+x,1/2+y,z
1/2-x,1/2+y,1/2-z
1/2-x,1/2-y,-z
1/2+x,1/2-y,1/2+z
loop_
_atom_site_type_symbol
_atom_site_label
_atom_site_fract_x
_atom_site_fract_y
_atom_site_fract_z
Si Si1 0.541451 0.447319 0.162033
Si Si2 0.099889 0.663675 0.393306
Si Si3 0.729873 0.700095 0.125318
Si Si4 0.500000 0.114032 0.750000
Si Si5 0.810145 0.808427 0.693620
Si Si6 0.122902 0.134704 0.528948
O O1 0.466880 0.318655 0.148325
O O2 0.640625 0.517131 0.273172
O O3 0.573869 0.365288 0.092564
O O4 0.470586 0.602336 0.097204
O O5 0.160470 0.677417 0.341763
O O6 0.173279 0.675857 0.525298
O O7 0.035961 0.505410 0.350632
O O8 0.713246 0.727743 0.218128
O O9 0.682091 0.530147 0.070770
O O10 0.399174 0.203116 0.712587
O O11 0.706194 0.770094 0.574993
#
# Coordination Sequence:
#
# PCOD9285281 Si02
#       6
#     8   8   8   4   8   8
#     4   9  21  39  69  95 128 171 219 261 333 396
#     4  10  21  41  69  95 126 173 219 270 321 399
#     4   9  20  42  68  92 128 175 218 265 334 389
#     4  12  26  40  62  96 138 166 222 282 322 384
#     4  11  23  42  64 100 133 169 213 281 331 387
#     4   9  18  40  67  96 131 169 213 276 325 392
#
# _framework density 25.549617000000001
#
# number of rings (size 3 to 8) (size 9 to 14) (size 15 to 20)
#    0.000    2.182    1.818    1.091    2.545    1.455 
#    3.273    4.545    0.000    0.000    0.000    0.000 
#    0.000    0.000    0.000    0.000    0.000    0.000 
#
# Total GULP energy -123013.087634 kJ/mol
# GULP energy per Si atom -5591.503983 kJ/mol
# Density = 2.549147 g / cm^3
# Si number density = 25.549617 Si / 1000 Ang^3
#
#
#
# Elastic Constant Matrix: (Units=GPa)
#
#
# Indices 1 2 3 4 5 6 
#
# 1 171.2618 28.6897 26.7033 0.0000 8.3865 0.0000
# 2 28.6897 31.7236 17.7315 0.0000 -5.1132 0.0000
# 3 26.7033 17.7315 97.7208 0.0000 28.2116 0.0000
# 4 0.0000 0.0000 0.0000 44.9089 0.0000 21.0926
# 5 8.3865 -5.1132 28.2116 0.0000 37.2631 0.0000
# 6 0.0000 0.0000 0.0000 21.0926 0.0000 -65.1176
#
#
#
# Elastic Compliance Matrix: (Units=1/GPa)
#
#
# Indices 1 2 3 4 5 6 
#
# 1 0.007109 -0.006873 0.000049 0.000000 -0.002580 0.000000
# 2 -0.006873 0.046788 -0.011404 0.000000 0.016601 0.000000
# 3 0.000049 -0.011404 0.016309 0.000000 -0.013923 0.000000
# 4 0.000000 0.000000 0.000000 0.019327 0.000000 0.006260
# 5 -0.002580 0.016601 -0.013923 0.000000 0.040236 0.000000
# 6 0.000000 0.000000 0.000000 0.006260 0.000000 -0.013329
#
#
# Mechanical properties :
#
#
# Convention : Reuss Voigt Hill
#
# Bulk Modulus (GPa) = 29.62942 49.66168 39.64555
# Shear Modulus (GPa) = 30.46101 18.58299 24.52200
#
# Velocity S-wave (km/s) = 3.45661 2.69983 3.10139
# Velocity P-wave (km/s) = 5.24909 5.40355 5.32688
#
# Compressibility (1/GPa) = 0.03375024
#
# Stress axis : x y z
#
# Youngs Moduli (GPa) = 140.66743 21.37316 61.31736
#
# Poissons Ratio (x) = 0.14689 -0.00303
# Poissons Ratio (y) = 0.96675 0.69928
# Poissons Ratio (z) = -0.00695 0.24375
#
# Static dielectric constant tensor:
#      x y z
#    x 2.074090 0.000000 -0.086560 
#    y 0.000000 2.044480 0.000000 
#    z -0.086560 0.000000 2.197160 
# 
# From -- ./inp_files/209747.got.cif
#   From: 2010.05.17/outbox.cif.g08.bks.cpg/sg15_105_cif.got.tgz:209747.got - 2010.06.03 18:47:42.
