data_PCOD9285075
_publ_section_title
;
Structure prediction by ZEFSAII (Michael W. Deem and Ramdas Pophale) SiO2 
 PCOD9285075
Probable space group: C 2/C
;
_chemical_formula_sum "Si O2"
_cell_formula_units_Z 60
_cell_length_a 22.035988
_cell_length_b 7.604921
_cell_length_c 19.317266
_cell_angle_alpha 90.000000
_cell_angle_beta 44.126526
_cell_angle_gamma 90.000000
_cell_volume 2253.902380
_symmetry_space_group_name_H-M "C 2/C"
_symmetry_group_IT_number 15
_symmetry_cell_setting 'monoclinic'
loop_
_space_group_symop_operation_xyz
x,y,z
-x,y,1/2-z
-x,-y,-z
x,-y,1/2+z
1/2+x,1/2+y,z
1/2-x,1/2+y,1/2-z
1/2-x,1/2-y,-z
1/2+x,1/2-y,1/2+z
loop_
_atom_site_type_symbol
_atom_site_label
_atom_site_fract_x
_atom_site_fract_y
_atom_site_fract_z
Si Si1 0.687781 0.907809 0.572228
Si Si2 0.916868 0.365905 0.069757
Si Si3 0.543383 0.277275 0.105664
Si Si4 0.475315 0.316383 0.912817
Si Si5 0.000000 0.260243 0.250000
Si Si6 0.308929 0.604686 0.373754
Si Si7 0.657183 0.759952 0.731040
Si Si8 0.686265 0.794016 0.860083
O O1 0.594396 0.828439 0.623696
O O2 0.733363 0.068446 0.493950
O O3 0.689764 0.914535 0.653593
O O4 0.597393 0.321537 0.681133
O O5 0.839751 0.504053 0.135106
O O6 0.940402 0.222062 0.108508
O O7 0.906666 0.266744 0.005716
O O8 0.000000 0.500000 0.000000
O O9 0.533839 0.490331 0.114725
O O10 0.445635 0.211069 0.176018
O O11 0.482637 0.177819 0.843521
O O12 0.394031 0.289209 0.030675
O O13 0.250000 0.250000 0.500000
O O14 0.330209 0.415511 0.323435
O O15 0.266062 0.711410 0.346538
O O16 0.695853 0.727399 0.774722
#
# Coordination Sequence:
#
# PCOD9285075 Si02
#       8
#     8   8   8   8   4   8   8   8
#     4  10  23  41  69 104 140 189 242 302 351 417
#     4  10  21  41  67 103 147 183 228 294 359 427
#     4  12  20  41  75 105 142 191 245 295 357 430
#     4  11  24  42  72 106 141 192 237 294 363 435
#     4  12  26  48  76 102 146 192 254 300 370 434
#     4  11  25  49  71 105 147 190 244 312 356 435
#     4  11  23  42  72 108 141 192 244 291 361 443
#     4  11  25  49  68 107 154 184 236 306 369 434
#
# _framework density 26.620494999999998
#
# number of rings (size 3 to 8) (size 9 to 14) (size 15 to 20)
#    0.000    1.067    5.333    2.400    0.000    1.600 
#    9.600    0.000    0.000    0.000    0.000    0.000 
#    0.000    0.000    0.000    0.000    0.000    0.000 
#
# Total GULP energy -167660.596930 kJ/mol
# GULP energy per Si atom -5588.686564 kJ/mol
# Density = 2.655991 g / cm^3
# Si number density = 26.620495 Si / 1000 Ang^3
#
#
#
# Elastic Constant Matrix: (Units=GPa)
#
#
# Indices 1 2 3 4 5 6 
#
# 1 132.3442 30.3601 51.2455 -0.0012 2.3153 -0.0019
# 2 30.3601 85.2527 20.3293 -0.0011 -22.8075 -0.0059
# 3 51.2455 20.3293 154.6290 0.0000 16.5368 -0.0015
# 4 -0.0012 -0.0011 0.0000 -11.1364 0.0002 -15.0088
# 5 2.3153 -22.8075 16.5368 0.0002 49.5839 0.0001
# 6 -0.0019 -0.0059 -0.0015 -15.0088 0.0001 25.0347
#
#
#
# Elastic Compliance Matrix: (Units=1/GPa)
#
#
# Indices 1 2 3 4 5 6 
#
# 1 0.009241 -0.002920 -0.002581 0.000000 -0.000914 0.000000
# 2 -0.002920 0.015305 -0.001879 -0.000003 0.007803 0.000001
# 3 -0.002581 -0.001879 0.007932 0.000000 -0.003389 0.000000
# 4 0.000000 -0.000003 0.000000 -0.049666 -0.000001 -0.029776
# 5 -0.000914 0.007803 -0.003389 -0.000001 0.024930 0.000001
# 6 0.000000 0.000001 0.000000 -0.029776 0.000001 0.022093
#
#
# Mechanical properties :
#
#
# Convention : Reuss Voigt Hill
#
# Bulk Modulus (GPa) = 56.43812 64.01061 60.22436
# Shear Modulus (GPa) = 99.00522 30.71583 64.86052
#
# Velocity S-wave (km/s) = 6.10509 3.40051 4.94143
# Velocity P-wave (km/s) = 8.42278 6.28616 7.43165
#
# Compressibility (1/GPa) = 0.01771852
#
# Stress axis : x y z
#
# Youngs Moduli (GPa) = 108.20977 65.33673 126.07225
#
# Poissons Ratio (x) = 0.19078 0.32540
# Poissons Ratio (y) = 0.31597 0.23689
# Poissons Ratio (z) = 0.27929 0.12277
#
# Static dielectric constant tensor:
#      x y z
#    x 2.138660 0.000010 0.052580 
#    y 0.000010 2.138250 0.000010 
#    z 0.052580 0.000010 2.160750 
# 
# From -- ./inp_files/221888.got.cif
#   From: 2010.05.17/outbox.cif.g08.bks.cpg/sg15_111_cif.got.tgz:221888.got - 2010.06.03 18:47:42.
