data_PCOD9285768
_publ_section_title
;
Structure prediction by ZEFSAII (Michael W. Deem and Ramdas Pophale) SiO2 
 PCOD9285768
Probable space group: C 2/C
;
_chemical_formula_sum "Si O2"
_cell_formula_units_Z 56
_cell_length_a 18.822705
_cell_length_b 14.161490
_cell_length_c 12.001644
_cell_angle_alpha 90.000000
_cell_angle_beta 123.333623
_cell_angle_gamma 90.000000
_cell_volume 2672.824235
_symmetry_space_group_name_H-M "C 2/C"
_symmetry_group_IT_number 15
_symmetry_cell_setting 'monoclinic'
loop_
_space_group_symop_operation_xyz
x,y,z
-x,y,1/2-z
-x,-y,-z
x,-y,1/2+z
1/2+x,1/2+y,z
1/2-x,1/2+y,1/2-z
1/2-x,1/2-y,-z
1/2+x,1/2-y,1/2+z
loop_
_atom_site_type_symbol
_atom_site_label
_atom_site_fract_x
_atom_site_fract_y
_atom_site_fract_z
Si Si1 0.942374 0.586417 0.802807
Si Si2 0.744097 0.396615 0.740839
Si Si3 0.727474 0.790470 0.357594
Si Si4 0.149134 0.089582 0.690899
Si Si5 0.189640 0.836071 0.472953
Si Si6 0.437464 0.882779 0.884185
Si Si7 0.995484 0.818667 0.121421
O O1 0.852296 0.638074 0.713415
O O2 0.939947 0.472306 0.804414
O O3 0.000000 0.618110 0.750000
O O4 0.989560 0.610987 0.959248
O O5 0.709506 0.301097 0.766129
O O6 0.686614 0.485064 0.722662
O O7 0.741566 0.399328 0.604237
O O8 0.844115 0.394157 0.858986
O O9 0.750000 0.750000 0.500000
O O10 0.802972 0.847539 0.360511
O O11 0.169736 0.123623 0.834406
O O12 0.048347 0.109803 0.590070
O O13 0.250000 0.750000 0.500000
O O14 0.105578 0.807981 0.471740
O O15 0.454636 0.781371 0.842462
O O16 0.000000 0.858326 0.250000
#
# Coordination Sequence:
#
# PCOD9285768 Si02
#       7
#     8   8   8   8   8   8   8
#     4  11  25  41  61 100 134 177 228 283 356 421
#     4  12  24  42  69 102 132 183 229 286 357 419
#     4  12  25  46  67  98 143 187 228 286 357 433
#     4  11  25  43  67 101 137 179 237 288 354 425
#     4  11  23  43  72  98 135 179 239 291 349 426
#     4  11  22  40  68  96 135 172 227 299 346 414
#     4  10  21  42  66  96 131 177 232 290 348 406
#
# _framework density 20.951622
#
# number of rings (size 3 to 8) (size 9 to 14) (size 15 to 20)
#    0.000    0.857    4.286    3.000    2.000    1.714 
#    0.000    2.143    0.000    0.000    0.000    0.000 
#    0.000    0.000    0.000    0.000    0.000    0.000 
#
# Total GULP energy -156121.711644 kJ/mol
# GULP energy per Si atom -5575.775416 kJ/mol
# Density = 2.090394 g / cm^3
# Si number density = 20.951622 Si / 1000 Ang^3
#
#
#
# Elastic Constant Matrix: (Units=GPa)
#
#
# Indices 1 2 3 4 5 6 
#
# 1 134.1337 30.5865 24.2574 0.0000 16.3648 0.0000
# 2 30.5865 64.4996 -1.2315 0.0000 8.9712 0.0000
# 3 24.2574 -1.2315 82.7324 0.0000 2.2437 0.0000
# 4 0.0000 0.0000 0.0000 16.0183 0.0000 4.6788
# 5 16.3648 8.9712 2.2437 0.0000 32.9096 0.0000
# 6 0.0000 0.0000 0.0000 4.6788 0.0000 36.8508
#
#
#
# Elastic Compliance Matrix: (Units=1/GPa)
#
#
# Indices 1 2 3 4 5 6 
#
# 1 0.009254 -0.003976 -0.002682 0.000000 -0.003335 0.000000
# 2 -0.003976 0.017834 0.001512 0.000000 -0.002988 0.000000
# 3 -0.002682 0.001512 0.012895 0.000000 0.000042 0.000000
# 4 0.000000 0.000000 0.000000 0.064833 0.000000 -0.008232
# 5 -0.003335 -0.002988 0.000042 0.000000 0.032856 0.000000
# 6 0.000000 0.000000 0.000000 -0.008232 0.000000 0.028182
#
#
# Mechanical properties :
#
#
# Convention : Reuss Voigt Hill
#
# Bulk Modulus (GPa) = 33.67972 43.17673 38.42823
# Shear Modulus (GPa) = 26.87581 32.33929 29.60755
#
# Velocity S-wave (km/s) = 3.58544 3.93303 3.76325
# Velocity P-wave (km/s) = 5.76632 6.42476 6.10442
#
# Compressibility (1/GPa) = 0.02969145
#
# Stress axis : x y z
#
# Youngs Moduli (GPa) = 108.06506 56.07381 77.55018
#
# Poissons Ratio (x) = 0.22292 0.20799
# Poissons Ratio (y) = 0.42962 -0.11727
# Poissons Ratio (z) = 0.28982 -0.08479
#
# Static dielectric constant tensor:
#      x y z
#    x 1.824300 0.000000 0.083220 
#    y 0.000000 1.668570 0.000000 
#    z 0.083220 0.000000 1.840800 
# 
# From -- ./inp_files/105803.got.cif
#   From: 2010.05.17/outbox.cif.g08.bks.cpg/sg15_53_cif.got.tgz:105803.got - 2010.06.03 18:47:42.
