data_PCOD9285122
_publ_section_title
;
Structure prediction by ZEFSAII (Michael W. Deem and Ramdas Pophale) SiO2 
 PCOD9285122
Probable space group: C 2/C
;
_chemical_formula_sum "Si O2"
_cell_formula_units_Z 48
_cell_length_a 20.864044
_cell_length_b 11.681540
_cell_length_c 26.802006
_cell_angle_alpha 90.000000
_cell_angle_beta 20.413076
_cell_angle_gamma 90.000000
_cell_volume 2278.373209
_symmetry_space_group_name_H-M "C 2/C"
_symmetry_group_IT_number 15
_symmetry_cell_setting 'monoclinic'
loop_
_space_group_symop_operation_xyz
x,y,z
-x,y,1/2-z
-x,-y,-z
x,-y,1/2+z
1/2+x,1/2+y,z
1/2-x,1/2+y,1/2-z
1/2-x,1/2-y,-z
1/2+x,1/2-y,1/2+z
loop_
_atom_site_type_symbol
_atom_site_label
_atom_site_fract_x
_atom_site_fract_y
_atom_site_fract_z
Si Si1 0.051594 0.468621 0.387513
Si Si2 0.152581 0.088581 0.907376
Si Si3 0.217541 0.254853 0.600050
Si Si4 0.290384 0.505218 0.920319
Si Si5 0.046253 0.686818 0.982670
Si Si6 0.779651 0.512552 0.918884
O O1 0.165280 0.450505 0.254620
O O2 0.061658 0.594773 0.404262
O O3 0.839308 0.450924 0.527106
O O4 0.112986 0.381306 0.385392
O O5 0.084697 0.211753 0.939016
O O6 0.814305 0.920077 0.057774
O O7 0.000000 0.000000 0.000000
O O8 0.284088 0.231836 0.607971
O O9 0.289780 0.380309 0.533932
O O10 0.000000 0.260323 0.750000
O O11 0.276822 0.139253 0.527747
O O12 0.500000 0.504824 0.750000
O O13 0.266019 0.449066 0.991915
O O14 0.000000 0.515197 0.750000
#
# Coordination Sequence:
#
# PCOD9285122 Si02
#       6
#     8   8   8   8   8   8
#     4  10  24  46  67  96 141 174 225 285 329 405
#     4  12  25  40  67 103 134 181 223 270 342 408
#     4   9  19  36  64  96 128 169 220 280 337 389
#     4  10  21  41  67  94 128 178 227 273 340 397
#     4  10  23  44  67  97 135 180 218 279 342 398
#     4  11  21  39  62  93 139 171 218 282 329 393
#
# _framework density 21.067663
#
# number of rings (size 3 to 8) (size 9 to 14) (size 15 to 20)
#    0.000    1.667    3.333    0.500    2.333    5.333 
#    3.000    1.667    0.000    1.000    0.000    0.000 
#    0.000    0.000    0.000    0.000    0.000    0.000 
#
# Total GULP energy -134028.523565 kJ/mol
# GULP energy per Si atom -5584.521815 kJ/mol
# Density = 2.101971 g / cm^3
# Si number density = 21.067663 Si / 1000 Ang^3
#
#
#
# Elastic Constant Matrix: (Units=GPa)
#
#
# Indices 1 2 3 4 5 6 
#
# 1 179.2584 46.1266 26.1913 -0.0031 -6.0369 0.0087
# 2 46.1266 46.1787 12.2644 -0.0301 -3.3444 -0.0121
# 3 26.1913 12.2644 54.8313 -0.0250 -2.5125 -0.0325
# 4 -0.0031 -0.0301 -0.0250 5.3336 -0.0010 -2.1541
# 5 -6.0369 -3.3444 -2.5125 -0.0010 35.4346 -0.0020
# 6 0.0087 -0.0121 -0.0325 -2.1541 -0.0020 1.9618
#
#
#
# Elastic Compliance Matrix: (Units=1/GPa)
#
#
# Indices 1 2 3 4 5 6 
#
# 1 0.007736 -0.007140 -0.002076 -0.000163 0.000497 -0.000291
# 2 -0.007140 0.029730 -0.003176 0.000387 0.001364 0.000589
# 3 -0.002076 -0.003176 0.019975 0.000367 0.000763 0.000724
# 4 -0.000163 0.000387 0.000367 0.336898 0.000065 0.369933
# 5 0.000497 0.001364 0.000763 0.000065 0.028489 0.000120
# 6 -0.000291 0.000589 0.000724 0.369933 0.000120 0.915956
#
#
# Mechanical properties :
#
#
# Convention : Reuss Voigt Hill
#
# Bulk Modulus (GPa) = 30.62115 49.93699 40.27907
# Shear Modulus (GPa) = 3.63781 21.59175 12.61478
#
# Velocity S-wave (km/s) = 1.31548 3.20484 2.44964
# Velocity P-wave (km/s) = 4.10774 6.11958 5.21166
#
# Compressibility (1/GPa) = 0.03265716
#
# Stress axis : x y z
#
# Youngs Moduli (GPa) = 129.26886 33.63632 50.06211
#
# Poissons Ratio (x) = 0.24016 0.10391
# Poissons Ratio (y) = 0.92298 0.15901
# Poissons Ratio (z) = 0.26831 0.10683
#
# Static dielectric constant tensor:
#      x y z
#    x 2.008500 -0.000030 -0.251030 
#    y -0.000030 1.781240 0.000040 
#    z -0.251030 0.000040 2.040150 
# 
# From -- ./inp_files/300913.got.cif
#   From: 2010.05.17/outbox.cif.g08.bks.cpg/sg15_151_cif.got.tgz:300913.got - 2010.06.03 18:47:42.
