data_PCOD9285818
_publ_section_title
;
Structure prediction by ZEFSAII (Michael W. Deem and Ramdas Pophale) SiO2 
 PCOD9285818
Probable space group: C 2/C
;
_chemical_formula_sum "Si O2"
_cell_formula_units_Z 60
_cell_length_a 20.489439
_cell_length_b 7.500913
_cell_length_c 18.356560
_cell_angle_alpha 90.000000
_cell_angle_beta 84.095472
_cell_angle_gamma 90.000000
_cell_volume 2806.243121
_symmetry_space_group_name_H-M "C 2/C"
_symmetry_group_IT_number 15
_symmetry_cell_setting 'monoclinic'
loop_
_space_group_symop_operation_xyz
x,y,z
-x,y,1/2-z
-x,-y,-z
x,-y,1/2+z
1/2+x,1/2+y,z
1/2-x,1/2+y,1/2-z
1/2-x,1/2-y,-z
1/2+x,1/2-y,1/2+z
loop_
_atom_site_type_symbol
_atom_site_label
_atom_site_fract_x
_atom_site_fract_y
_atom_site_fract_z
Si Si1 0.602657 0.025938 0.741851
Si Si2 0.075471 0.298507 0.094435
Si Si3 0.908803 0.892848 0.379585
Si Si4 0.795434 0.430534 0.497907
Si Si5 0.959026 0.816450 0.517710
Si Si6 0.156854 0.312478 0.378651
Si Si7 0.212787 0.348027 0.641178
Si Si8 0.000000 0.780333 0.250000
O O1 0.569063 0.128257 0.677524
O O2 0.613369 0.119065 0.816973
O O3 0.673627 0.979584 0.698835
O O4 0.559912 0.850236 0.762897
O O5 0.132816 0.390031 0.042661
O O6 0.008378 0.306281 0.056972
O O7 0.099490 0.093647 0.094515
O O8 0.937016 0.764452 0.439382
O O9 0.840125 0.810200 0.363185
O O10 0.967517 0.898792 0.315247
O O11 0.750000 0.250000 0.500000
O O12 0.810763 0.533934 0.572317
O O13 0.769336 0.568183 0.439708
O O14 0.890548 0.816969 0.569136
O O15 0.000000 0.000000 0.500000
O O16 0.218575 0.214408 0.336020
#
# Coordination Sequence:
#
# PCOD9285818 Si02
#       8
#     8   8   8   8   8   8   8   4
#     4  10  24  43  62  98 128 174 214 276 325 402
#     4  10  23  42  62  92 137 159 219 274 328 387
#     4  10  21  42  67  93 129 174 216 276 327 401
#     4  11  24  39  66  96 126 170 214 273 329 394
#     4  10  23  38  65  98 126 169 218 273 323 398
#     4  12  24  41  70  91 133 179 219 270 342 395
#     4  10  23  43  64  91 131 167 218 270 326 397
#     4  10  22  40  66  90 136 170 220 256 342 386
#
# _framework density 21.380897000000001
#
# number of rings (size 3 to 8) (size 9 to 14) (size 15 to 20)
#    0.000    1.600    1.333    2.000    5.600    6.400 
#    0.000    4.000    0.000    0.000    0.000    0.000 
#    0.000    0.000    0.000    0.000    0.000    0.000 
#
# Total GULP energy -167298.110742 kJ/mol
# GULP energy per Si atom -5576.603691 kJ/mol
# Density = 2.133223 g / cm^3
# Si number density = 21.380897 Si / 1000 Ang^3
#
#
#
# Elastic Constant Matrix: (Units=GPa)
#
#
# Indices 1 2 3 4 5 6 
#
# 1 95.8353 4.6185 6.3370 0.0000 -7.9582 0.0000
# 2 4.6185 45.4726 -5.4559 0.0000 -5.5685 0.0000
# 3 6.3370 -5.4559 57.3298 0.0000 -11.3472 0.0000
# 4 0.0000 0.0000 0.0000 -1.8016 0.0000 -6.6286
# 5 -7.9582 -5.5685 -11.3472 0.0000 19.9713 0.0000
# 6 0.0000 0.0000 0.0000 -6.6286 0.0000 25.2377
#
#
#
# Elastic Compliance Matrix: (Units=1/GPa)
#
#
# Indices 1 2 3 4 5 6 
#
# 1 0.010819 -0.000690 -0.000503 0.000000 0.003833 0.000000
# 2 -0.000690 0.023596 0.004022 0.000000 0.008589 0.000000
# 3 -0.000503 0.004022 0.020352 0.000000 0.012485 0.000000
# 4 0.000000 0.000000 0.000000 -0.282279 0.000000 -0.074139
# 5 0.003833 0.008589 0.012485 0.000000 0.061088 0.000000
# 6 0.000000 0.000000 0.000000 -0.074139 0.000000 0.020151
#
#
# Mechanical properties :
#
#
# Convention : Reuss Voigt Hill
#
# Bulk Modulus (GPa) = 16.54922 23.29297 19.92110
# Shear Modulus (GPa) = -37.93923 21.55735 -8.19094
#
# Velocity S-wave (km/s) = -4.21699 3.17874 -1.95941
# Velocity P-wave (km/s) = 3.99420 4.93867 2.05388
#
# Compressibility (1/GPa) = 0.06042581
#
# Stress axis : x y z
#
# Youngs Moduli (GPa) = 92.42668 42.38063 49.13442
#
# Poissons Ratio (x) = 0.02923 0.02471
# Poissons Ratio (y) = 0.06376 -0.19761
# Poissons Ratio (z) = 0.04648 -0.17045
#
# Static dielectric constant tensor:
#      x y z
#    x 1.696880 0.000000 0.155000 
#    y 0.000000 1.812420 0.000000 
#    z 0.155000 0.000000 1.507730 
# 
# From -- ./inp_files/209578.got.cif
#   From: 2010.05.17/outbox.cif.g08.bks.cpg/sg15_105_cif.got.tgz:209578.got - 2010.06.03 18:47:42.
