data_PCOD9285425
_publ_section_title
;
Structure prediction by ZEFSAII (Michael W. Deem and Ramdas Pophale) SiO2 
 PCOD9285425
Probable space group: C 2/C
;
_chemical_formula_sum "Si O2"
_cell_formula_units_Z 64
_cell_length_a 23.627496
_cell_length_b 13.421669
_cell_length_c 11.060833
_cell_angle_alpha 90.000000
_cell_angle_beta 105.999973
_cell_angle_gamma 90.000000
_cell_volume 3371.737480
_symmetry_space_group_name_H-M "C 2/C"
_symmetry_group_IT_number 15
_symmetry_cell_setting 'monoclinic'
loop_
_space_group_symop_operation_xyz
x,y,z
-x,y,1/2-z
-x,-y,-z
x,-y,1/2+z
1/2+x,1/2+y,z
1/2-x,1/2+y,1/2-z
1/2-x,1/2-y,-z
1/2+x,1/2-y,1/2+z
loop_
_atom_site_type_symbol
_atom_site_label
_atom_site_fract_x
_atom_site_fract_y
_atom_site_fract_z
Si Si1 0.739161 0.246356 0.352700
Si Si2 0.682015 0.781297 0.477558
Si Si3 0.604770 0.468472 0.510333
Si Si4 0.327855 0.551885 0.708371
Si Si5 0.550087 0.715943 0.107724
Si Si6 0.708328 0.938608 0.689367
Si Si7 0.849392 0.353948 0.300095
Si Si8 0.069979 0.162515 0.398991
O O1 0.750000 0.250000 0.500000
O O2 0.692497 0.332554 0.287639
O O3 0.723038 0.133174 0.310293
O O4 0.799937 0.279924 0.325813
O O5 0.750000 0.750000 0.500000
O O6 0.680701 0.860450 0.582086
O O7 0.657327 0.835398 0.345379
O O8 0.636766 0.691273 0.471217
O O9 0.636364 0.510482 0.652551
O O10 0.643212 0.456541 0.408768
O O11 0.574569 0.364824 0.528375
O O12 0.558570 0.552247 0.440995
O O13 0.268990 0.484469 0.674112
O O14 0.587684 0.816137 0.118378
O O15 0.563994 0.672604 0.250996
O O16 0.479990 0.729584 0.068157
O O17 0.667120 0.032909 0.685005
#
# Coordination Sequence:
#
# PCOD9285425 Si02
#       8
#     8   8   8   8   8   8   8   8
#     4  11  22  36  54  87 126 157 193 249 308 359
#     4  11  21  39  60  88 119 150 204 250 300 360
#     4  12  21  39  60  95 119 163 198 250 311 374
#     4  11  24  34  61  90 128 156 200 248 310 365
#     4  10  21  42  59  87 123 158 206 248 302 363
#     4  11  23  36  58  87 122 160 200 247 305 367
#     4  10  23  37  58  85 119 163 195 251 299 357
#     4  10  22  38  65  88 118 161 202 250 302 365
#
# _framework density 18.981311000000002
#
# number of rings (size 3 to 8) (size 9 to 14) (size 15 to 20)
#    0.000    1.250    2.500    4.125    8.750    0.000 
#    0.000    0.625    0.000    0.000    0.000    0.000 
#    0.000    0.000    0.000    0.000    0.000    0.000 
#
# Total GULP energy -178514.784175 kJ/mol
# GULP energy per Si atom -5578.587005 kJ/mol
# Density = 1.893811 g / cm^3
# Si number density = 18.981311 Si / 1000 Ang^3
#
#
#
# Elastic Constant Matrix: (Units=GPa)
#
#
# Indices 1 2 3 4 5 6 
#
# 1 90.3329 37.6960 19.5291 0.0000 -6.1409 0.0000
# 2 37.6960 99.2487 12.5964 0.0000 -6.5681 0.0000
# 3 19.5291 12.5964 70.9540 0.0000 -20.2809 0.0000
# 4 0.0000 0.0000 0.0000 24.5398 0.0000 -4.7308
# 5 -6.1409 -6.5681 -20.2809 0.0000 23.1175 0.0000
# 6 0.0000 0.0000 0.0000 -4.7308 0.0000 23.0036
#
#
#
# Elastic Compliance Matrix: (Units=1/GPa)
#
#
# Indices 1 2 3 4 5 6 
#
# 1 0.013724 -0.004854 -0.003027 0.000000 -0.000389 0.000000
# 2 -0.004854 0.012079 -0.000262 0.000000 0.001913 0.000000
# 3 -0.003027 -0.000262 0.019649 0.000000 0.016360 0.000000
# 4 0.000000 0.000000 0.000000 0.042432 0.000000 0.008726
# 5 -0.000389 0.001913 0.016360 0.000000 0.058050 0.000000
# 6 0.000000 0.000000 0.000000 0.008726 0.000000 0.045266
#
#
# Mechanical properties :
#
#
# Convention : Reuss Voigt Hill
#
# Bulk Modulus (GPa) = 34.28471 44.46430 39.37450
# Shear Modulus (GPa) = 23.01941 26.84644 24.93293
#
# Velocity S-wave (km/s) = 3.48622 3.76488 3.62823
# Velocity P-wave (km/s) = 5.85718 6.50963 6.19200
#
# Compressibility (1/GPa) = 0.02916752
#
# Stress axis : x y z
#
# Youngs Moduli (GPa) = 72.86693 82.78748 50.89224
#
# Poissons Ratio (x) = 0.40185 0.15403
# Poissons Ratio (y) = 0.35370 0.01331
# Poissons Ratio (z) = 0.22055 0.02166
#
# Static dielectric constant tensor:
#      x y z
#    x 1.708240 0.000000 0.064470 
#    y 0.000000 1.691170 0.000000 
#    z 0.064470 0.000000 2.028010 
# 
# From -- ./inp_files/117605.got.cif
#   From: 2010.05.17/outbox.cif.g08.bks.cpg/sg15_59_cif.got.tgz:117605.got - 2010.06.03 18:47:42.
