data_PCOD9285820
_publ_section_title
;
Structure prediction by ZEFSAII (Michael W. Deem and Ramdas Pophale) SiO2 
 PCOD9285820
Probable space group: C 2/C
;
_chemical_formula_sum "Si O2"
_cell_formula_units_Z 48
_cell_length_a 18.058277
_cell_length_b 9.317734
_cell_length_c 29.074399
_cell_angle_alpha 90.000000
_cell_angle_beta 152.060347
_cell_angle_gamma 90.000000
_cell_volume 2292.161824
_symmetry_space_group_name_H-M "C 2/C"
_symmetry_group_IT_number 15
_symmetry_cell_setting 'monoclinic'
loop_
_space_group_symop_operation_xyz
x,y,z
-x,y,1/2-z
-x,-y,-z
x,-y,1/2+z
1/2+x,1/2+y,z
1/2-x,1/2+y,1/2-z
1/2-x,1/2-y,-z
1/2+x,1/2-y,1/2+z
loop_
_atom_site_type_symbol
_atom_site_label
_atom_site_fract_x
_atom_site_fract_y
_atom_site_fract_z
Si Si1 0.145845 0.281871 0.736301
Si Si2 0.588093 0.099729 0.664565
Si Si3 0.805224 0.218801 0.580945
Si Si4 0.806549 0.444553 0.651440
Si Si5 0.638034 0.042961 0.041198
Si Si6 0.141107 0.739063 0.791866
O O1 0.249764 0.166060 0.766772
O O2 0.098814 0.427347 0.681669
O O3 0.239679 0.349849 0.830335
O O4 0.994062 0.211841 0.677857
O O5 0.448862 0.120001 0.550456
O O6 0.574689 0.187174 0.705774
O O7 0.750000 0.250000 0.500000
O O8 0.749407 0.362195 0.576246
O O9 0.734210 0.085647 0.569450
O O10 0.755920 0.604301 0.633693
O O11 0.000000 0.449283 0.750000
O O12 0.753111 0.124689 0.139867
O O13 0.500000 0.000000 0.000000
O O14 0.000000 0.756016 0.750000
#
# Coordination Sequence:
#
# PCOD9285820 Si02
#       6
#     8   8   8   8   8   8
#     4  10  21  42  67  93 135 181 219 283 346 413
#     4  11  23  44  66 101 139 180 229 288 351 414
#     4  11  22  41  69  99 128 176 228 277 348 413
#     4   8  18  39  63  86 127 170 214 265 335 407
#     4  12  26  43  69 103 139 175 236 295 341 419
#     4  10  24  44  66  93 136 181 224 286 351 413
#
# _framework density 20.940930000000002
#
# number of rings (size 3 to 8) (size 9 to 14) (size 15 to 20)
#    0.000    1.667    1.667    3.000    0.000    5.333 
#    3.000    2.500    0.000    0.000    0.000    0.000 
#    0.000    0.000    0.000    0.000    0.000    0.000 
#
# Total GULP energy -133649.218005 kJ/mol
# GULP energy per Si atom -5568.717417 kJ/mol
# Density = 2.089327 g / cm^3
# Si number density = 20.940930 Si / 1000 Ang^3
#
#
#
# Elastic Constant Matrix: (Units=GPa)
#
#
# Indices 1 2 3 4 5 6 
#
# 1 105.8163 34.3733 4.6324 0.0000 15.8514 0.0000
# 2 34.3733 66.3853 15.5320 0.0000 10.7970 0.0000
# 3 4.6324 15.5320 22.9118 0.0009 -1.6801 0.0000
# 4 0.0000 0.0000 0.0009 20.5208 0.0000 -1.7680
# 5 15.8514 10.7970 -1.6801 0.0000 39.9386 0.0000
# 6 0.0000 0.0000 0.0000 -1.7680 0.0000 36.5232
#
#
#
# Elastic Compliance Matrix: (Units=1/GPa)
#
#
# Indices 1 2 3 4 5 6 
#
# 1 0.011767 -0.005937 0.001426 0.000000 -0.003005 0.000000
# 2 -0.005937 0.022125 -0.014107 0.000001 -0.004218 0.000000
# 3 0.001426 -0.014107 0.053323 -0.000002 0.005491 0.000000
# 4 0.000000 0.000001 -0.000002 0.048935 0.000000 0.002369
# 5 -0.003005 -0.004218 0.005491 0.000000 0.027602 0.000000
# 6 0.000000 0.000000 0.000000 0.002369 0.000000 0.027495
#
#
# Mechanical properties :
#
#
# Convention : Reuss Voigt Hill
#
# Bulk Modulus (GPa) = 20.00934 33.79876 26.90405
# Shear Modulus (GPa) = 20.39620 28.76823 24.58222
#
# Velocity S-wave (km/s) = 3.12426 3.71047 3.42992
# Velocity P-wave (km/s) = 4.75295 5.87639 5.34427
#
# Compressibility (1/GPa) = 0.04997665
#
# Stress axis : x y z
#
# Youngs Moduli (GPa) = 84.98464 45.19860 18.75353
#
# Poissons Ratio (x) = 0.26837 -0.02674
# Poissons Ratio (y) = 0.50460 0.26456
# Poissons Ratio (z) = -0.12116 0.63762
#
# Static dielectric constant tensor:
#      x y z
#    x 1.781020 0.000000 0.024490 
#    y 0.000000 1.704860 0.000000 
#    z 0.024490 0.000000 1.950180 
# 
# From -- ./inp_files/315779.got.cif
#   From: 2010.05.17/outbox.cif.g08.bks.cpg/sg15_158_cif.got.tgz:315779.got - 2010.06.03 18:47:42.
