data_PCOD9285045
_publ_section_title
;
Structure prediction by ZEFSAII (Michael W. Deem and Ramdas Pophale) SiO2 
 PCOD9285045
Probable space group: C 2/C
;
_chemical_formula_sum "Si O2"
_cell_formula_units_Z 40
_cell_length_a 23.590717
_cell_length_b 4.987765
_cell_length_c 18.450845
_cell_angle_alpha 90.000000
_cell_angle_beta 130.630559
_cell_angle_gamma 90.000000
_cell_volume 1647.637744
_symmetry_space_group_name_H-M "C 2/C"
_symmetry_group_IT_number 15
_symmetry_cell_setting 'monoclinic'
loop_
_space_group_symop_operation_xyz
x,y,z
-x,y,1/2-z
-x,-y,-z
x,-y,1/2+z
1/2+x,1/2+y,z
1/2-x,1/2+y,1/2-z
1/2-x,1/2-y,-z
1/2+x,1/2-y,1/2+z
loop_
_atom_site_type_symbol
_atom_site_label
_atom_site_fract_x
_atom_site_fract_y
_atom_site_fract_z
Si Si1 0.369492 0.586472 0.177583
Si Si2 0.206146 0.592350 0.684742
Si Si3 0.415297 0.083302 0.310463
Si Si4 0.943005 0.686681 0.138301
Si Si5 0.286119 0.038874 0.975024
O O1 0.408243 0.812220 0.257385
O O2 0.410788 0.471001 0.140101
O O3 0.282859 0.666488 0.092282
O O4 0.372034 0.318157 0.230620
O O5 0.265774 0.357244 0.751011
O O6 0.128533 0.482175 0.652782
O O7 0.201157 0.649353 0.595599
O O8 0.501723 0.176315 0.384107
O O9 0.000000 0.612750 0.250000
O O10 0.870877 0.499208 0.071629
O O11 0.250000 0.250000 0.000000
#
# Coordination Sequence:
#
# PCOD9285045 Si02
#       5
#     8   8   8   8   8
#     4  10  21  41  66  97 132 182 228 279 336 417
#     4  12  23  43  71 102 140 184 232 291 348 414
#     4  11  21  41  67  97 138 181 225 280 352 404
#     4   9  22  40  64  98 141 177 223 289 346 404
#     4  10  21  43  70 104 137 186 238 286 342 424
#
# _framework density 24.277180000000001
#
# number of rings (size 3 to 8) (size 9 to 14) (size 15 to 20)
#    0.000    1.600    4.000    0.000    0.000    8.000 
#    0.000   37.000    0.000    8.400    0.000    0.000 
#    0.000    0.000    0.000    0.000    0.000    0.000 
#
# Total GULP energy -111675.013133 kJ/mol
# GULP energy per Si atom -5583.750657 kJ/mol
# Density = 2.422192 g / cm^3
# Si number density = 24.277180 Si / 1000 Ang^3
#
#
#
# Elastic Constant Matrix: (Units=GPa)
#
#
# Indices 1 2 3 4 5 6 
#
# 1 207.0161 33.7074 54.0517 0.0000 17.2462 0.0017
# 2 33.7074 123.5936 20.7427 0.0000 -7.9534 -0.0055
# 3 54.0517 20.7427 102.7996 -0.0002 23.2624 0.0001
# 4 0.0000 0.0000 -0.0002 22.0589 0.0001 7.4982
# 5 17.2462 -7.9534 23.2624 0.0001 56.4515 0.0006
# 6 0.0017 -0.0055 0.0001 7.4982 0.0006 33.2617
#
#
#
# Elastic Compliance Matrix: (Units=1/GPa)
#
#
# Indices 1 2 3 4 5 6 
#
# 1 0.005776 -0.001194 -0.002601 0.000000 -0.000861 -0.000001
# 2 -0.001194 0.008847 -0.001678 -0.000001 0.002303 0.000002
# 3 -0.002601 -0.001678 0.012471 0.000000 -0.004581 0.000000
# 4 0.000000 -0.000001 0.000000 0.049095 0.000000 -0.011068
# 5 -0.000861 0.002303 -0.004581 0.000000 0.020189 0.000000
# 6 -0.000001 0.000002 0.000000 -0.011068 0.000000 0.032560
#
#
# Mechanical properties :
#
#
# Convention : Reuss Voigt Hill
#
# Bulk Modulus (GPa) = 61.93540 72.26810 67.10175
# Shear Modulus (GPa) = 34.41956 44.01492 39.21724
#
# Velocity S-wave (km/s) = 3.76942 4.26257 4.02356
# Velocity P-wave (km/s) = 6.67172 7.35245 7.02034
#
# Compressibility (1/GPa) = 0.01614586
#
# Stress axis : x y z
#
# Youngs Moduli (GPa) = 173.13466 113.03844 80.18901
#
# Poissons Ratio (x) = 0.13498 0.20859
# Poissons Ratio (y) = 0.20674 0.13458
# Poissons Ratio (z) = 0.45035 0.18971
#
# Static dielectric constant tensor:
#      x y z
#    x 2.090600 0.000000 0.006760 
#    y 0.000000 1.957770 0.000000 
#    z 0.006760 0.000000 1.982020 
# 
# From -- ./inp_files/256652.got.cif
#   From: 2010.05.17/outbox.cif.g08.bks.cpg/sg15_129_cif.got.tgz:256652.got - 2010.06.03 18:47:42.
