data_PCOD9285968
_publ_section_title
;
Structure prediction by ZEFSAII (Michael W. Deem and Ramdas Pophale) SiO2 
 PCOD9285968
Probable space group: C 2/C
;
_chemical_formula_sum "Si O2"
_cell_formula_units_Z 52
_cell_length_a 24.340330
_cell_length_b 8.573160
_cell_length_c 24.049771
_cell_angle_alpha 90.000000
_cell_angle_beta 22.561629
_cell_angle_gamma 90.000000
_cell_volume 1925.502379
_symmetry_space_group_name_H-M "C 2/C"
_symmetry_group_IT_number 15
_symmetry_cell_setting 'monoclinic'
loop_
_space_group_symop_operation_xyz
x,y,z
-x,y,1/2-z
-x,-y,-z
x,-y,1/2+z
1/2+x,1/2+y,z
1/2-x,1/2+y,1/2-z
1/2-x,1/2-y,-z
1/2+x,1/2-y,1/2+z
loop_
_atom_site_type_symbol
_atom_site_label
_atom_site_fract_x
_atom_site_fract_y
_atom_site_fract_z
Si Si1 0.902715 0.565526 0.480204
Si Si2 0.114994 0.637999 0.402503
Si Si3 0.160376 0.123358 0.050756
Si Si4 0.418482 0.374823 0.630522
Si Si5 0.000000 0.862666 0.250000
Si Si6 0.415740 0.166703 0.737274
Si Si7 0.400485 0.684617 0.720580
O O1 0.846918 0.422679 0.569720
O O2 0.767100 0.678024 0.608800
O O3 0.968262 0.472110 0.367216
O O4 0.038784 0.670688 0.371634
O O5 0.273676 0.622446 0.229176
O O6 0.000000 0.500000 0.500000
O O7 0.049715 0.810813 0.470696
O O8 0.002130 0.190920 0.185488
O O9 0.138810 0.968983 0.106520
O O10 0.250000 0.250000 0.000000
O O11 0.263832 0.107171 0.901175
O O12 0.397234 0.227381 0.692159
O O13 0.440499 0.527923 0.648447
O O14 0.027309 0.795572 0.285998
#
# Coordination Sequence:
#
# PCOD9285968 Si02
#       7
#     8   8   8   8   4   8   8
#     4  10  25  42  62  90 132 165 212 264 331 378
#     4  10  23  43  70 103 125 160 215 263 316 401
#     4  12  20  35  59  89 120 161 221 276 304 369
#     4  10  21  42  69  91 132 166 207 259 325 389
#     4  12  24  36  60  88 128 164 240 252 308 378
#     4  11  21  38  62  88 119 168 213 259 329 371
#     4  11  24  43  59  90 128 178 209 269 316 376
#
# _framework density 27.005936999999999
#
# number of rings (size 3 to 8) (size 9 to 14) (size 15 to 20)
#    0.000    1.231    3.077    3.692    2.154    4.308 
#    2.769    1.538    0.000    0.000    0.000    0.000 
#    0.000    0.000    0.000    0.000    0.000    0.000 
#
# Total GULP energy -145076.352662 kJ/mol
# GULP energy per Si atom -5579.859718 kJ/mol
# Density = 2.694447 g / cm^3
# Si number density = 27.005937 Si / 1000 Ang^3
#
#
#
# Elastic Constant Matrix: (Units=GPa)
#
#
# Indices 1 2 3 4 5 6 
#
# 1 34.3834 7.0325 6.5870 -0.0004 -7.5922 0.0000
# 2 7.0325 88.1796 34.8767 -0.0023 4.1219 0.0008
# 3 6.5870 34.8767 116.4433 -0.0018 -5.4574 0.0007
# 4 -0.0004 -0.0023 -0.0018 40.5077 0.0006 0.3714
# 5 -7.5922 4.1219 -5.4574 0.0006 48.6458 0.0000
# 6 0.0000 0.0008 0.0007 0.3714 0.0000 37.2334
#
#
#
# Elastic Compliance Matrix: (Units=1/GPa)
#
#
# Indices 1 2 3 4 5 6 
#
# 1 0.030808 -0.002370 -0.000803 0.000000 0.004919 0.000000
# 2 -0.002370 0.013161 -0.003898 0.000001 -0.001922 0.000000
# 3 -0.000803 -0.003898 0.009862 0.000000 0.001311 0.000000
# 4 0.000000 0.000001 0.000000 0.024689 0.000000 -0.000246
# 5 0.004919 -0.001922 0.001311 0.000000 0.021634 0.000000
# 6 0.000000 0.000000 0.000000 -0.000246 0.000000 0.026860
#
#
# Mechanical properties :
#
#
# Convention : Reuss Voigt Hill
#
# Bulk Modulus (GPa) = 25.19430 37.33318 31.26374
# Shear Modulus (GPa) = 32.38640 37.97805 35.18222
#
# Velocity S-wave (km/s) = 3.46675 3.75412 3.61329
# Velocity P-wave (km/s) = 5.03725 5.71360 5.38605
#
# Compressibility (1/GPa) = 0.03969151
#
# Stress axis : x y z
#
# Youngs Moduli (GPa) = 32.45872 75.98176 101.39677
#
# Poissons Ratio (x) = 0.18004 0.08137
# Poissons Ratio (y) = 0.07691 0.39524
# Poissons Ratio (z) = 0.02605 0.29618
#
# Static dielectric constant tensor:
#      x y z
#    x 2.535040 0.000000 0.047110 
#    y 0.000000 2.115670 0.000000 
#    z 0.047110 0.000000 2.170040 
# 
# From -- ./inp_files/320153.got.cif
#   From: 2010.05.17/outbox.cif.g08.bks.cpg/sg15_161_cif.got.tgz:320153.got - 2010.06.03 18:47:42.
