data_PCOD9285309
_publ_section_title
;
Structure prediction by ZEFSAII (Michael W. Deem and Ramdas Pophale) SiO2 
 PCOD9285309
Probable space group: C 2/C
;
_chemical_formula_sum "Si O2"
_cell_formula_units_Z 64
_cell_length_a 9.072535
_cell_length_b 28.032868
_cell_length_c 18.706738
_cell_angle_alpha 90.000000
_cell_angle_beta 140.291132
_cell_angle_gamma 90.000000
_cell_volume 3039.612539
_symmetry_space_group_name_H-M "C 2/C"
_symmetry_group_IT_number 15
_symmetry_cell_setting 'monoclinic'
loop_
_space_group_symop_operation_xyz
x,y,z
-x,y,1/2-z
-x,-y,-z
x,-y,1/2+z
1/2+x,1/2+y,z
1/2-x,1/2+y,1/2-z
1/2-x,1/2-y,-z
1/2+x,1/2-y,1/2+z
loop_
_atom_site_type_symbol
_atom_site_label
_atom_site_fract_x
_atom_site_fract_y
_atom_site_fract_z
Si Si1 0.744737 0.596140 0.879977
Si Si2 0.497273 0.749533 0.326466
Si Si3 0.689554 0.914565 0.457429
Si Si4 0.477291 0.752996 0.822542
Si Si5 0.073021 0.182333 0.488911
Si Si6 0.585931 0.505455 0.359082
Si Si7 0.756991 0.013021 0.861562
Si Si8 0.273251 0.823044 0.505328
O O1 0.500000 0.605994 0.750000
O O2 0.742220 0.540877 0.903019
O O3 0.779487 0.628854 0.962839
O O4 0.948052 0.603238 0.899069
O O5 0.500000 0.725892 0.250000
O O6 0.253975 0.775484 0.246989
O O7 0.704449 0.786852 0.404864
O O8 0.495971 0.712216 0.390719
O O9 0.855952 0.869931 0.509380
O O10 0.675535 0.941271 0.376188
O O11 0.790635 0.952923 0.551234
O O12 0.500000 0.767337 0.750000
O O13 0.683595 0.717442 0.917634
O O14 0.492729 0.800201 0.876814
O O15 0.895693 0.177473 0.488705
O O16 0.500000 0.522715 0.250000
O O17 0.371907 0.485858 0.326580
O O18 0.500000 0.987651 0.750000
O O19 0.000000 0.000000 0.000000
#
# Coordination Sequence:
#
# PCOD9285309 Si02
#       8
#     8   8   8   8   8   8   8   8
#     4  11  24  40  65  97 130 170 221 276 333 402
#     4  11  24  42  66  91 130 177 214 278 334 402
#     4  11  25  41  67  98 134 175 226 282 342 413
#     4  11  23  42  66  91 132 173 220 268 337 395
#     4  11  25  41  62  98 130 169 228 271 337 401
#     4  10  22  45  69  95 135 176 225 282 345 411
#     4  10  21  41  70 100 133 178 225 283 344 409
#     4  11  24  40  64  98 130 171 221 276 329 405
#
# _framework density 21.055313999999999
#
# number of rings (size 3 to 8) (size 9 to 14) (size 15 to 20)
#    0.000    1.250    2.500    3.000    5.250    2.000 
#    0.000    0.000    5.500    0.000    0.000    0.000 
#    0.000    0.000    0.000    0.000    0.000    0.000 
#
# Total GULP energy -178328.751081 kJ/mol
# GULP energy per Si atom -5572.773471 kJ/mol
# Density = 2.100739 g / cm^3
# Si number density = 21.055314 Si / 1000 Ang^3
#
#
#
# Elastic Constant Matrix: (Units=GPa)
#
#
# Indices 1 2 3 4 5 6 
#
# 1 91.4462 -2.4771 23.8576 -0.0007 1.0383 0.0001
# 2 -2.4771 54.6588 16.5217 -0.0006 -9.4702 0.0000
# 3 23.8576 16.5217 87.6183 -0.0044 -14.6469 0.0003
# 4 -0.0007 -0.0006 -0.0044 -58.2504 -0.0013 -5.5489
# 5 1.0383 -9.4702 -14.6469 -0.0013 39.1823 0.0001
# 6 0.0001 0.0000 0.0003 -5.5489 0.0001 33.7475
#
#
#
# Elastic Compliance Matrix: (Units=1/GPa)
#
#
# Indices 1 2 3 4 5 6 
#
# 1 0.011971 0.001441 -0.003761 0.000000 -0.001375 0.000000
# 2 0.001441 0.020047 -0.003594 0.000000 0.003464 0.000000
# 3 -0.003761 -0.003594 0.013852 -0.000001 0.004409 0.000000
# 4 0.000000 0.000000 -0.000001 -0.016903 -0.000001 -0.002779
# 5 -0.001375 0.003464 0.004409 -0.000001 0.028044 0.000000
# 6 0.000000 0.000000 0.000000 -0.002779 0.000000 0.029175
#
#
# Mechanical properties :
#
#
# Convention : Reuss Voigt Hill
#
# Bulk Modulus (GPa) = 29.37452 34.39197 31.88325
# Shear Modulus (GPa) = 45.72004 15.99060 30.85532
#
# Velocity S-wave (km/s) = 4.66491 2.75881 3.83226
# Velocity P-wave (km/s) = 6.55718 5.14953 5.89552
#
# Compressibility (1/GPa) = 0.03404311
#
# Stress axis : x y z
#
# Youngs Moduli (GPa) = 83.53289 49.88275 72.19174
#
# Poissons Ratio (x) = -0.07189 0.27153
# Poissons Ratio (y) = -0.12039 0.25943
# Poissons Ratio (z) = 0.31419 0.17926
#
# Static dielectric constant tensor:
#      x y z
#    x 1.779580 0.000000 0.064360 
#    y 0.000000 1.728730 0.000000 
#    z 0.064360 0.000000 1.910100 
# 
# From -- ./inp_files/194288.got.cif
#   From: 2010.05.17/outbox.cif.g08.bks.cpg/sg15_98_cif.got.tgz:194288.got - 2010.06.03 18:47:42.
