data_PCOD9285696
_publ_section_title
;
Structure prediction by ZEFSAII (Michael W. Deem and Ramdas Pophale) SiO2 
 PCOD9285696
Probable space group: C 2/C
;
_chemical_formula_sum "Si O2"
_cell_formula_units_Z 64
_cell_length_a 10.379312
_cell_length_b 9.643115
_cell_length_c 27.920274
_cell_angle_alpha 90.000000
_cell_angle_beta 86.300292
_cell_angle_gamma 90.000000
_cell_volume 2788.685586
_symmetry_space_group_name_H-M "C 2/C"
_symmetry_group_IT_number 15
_symmetry_cell_setting 'monoclinic'
loop_
_space_group_symop_operation_xyz
x,y,z
-x,y,1/2-z
-x,-y,-z
x,-y,1/2+z
1/2+x,1/2+y,z
1/2-x,1/2+y,1/2-z
1/2-x,1/2-y,-z
1/2+x,1/2-y,1/2+z
loop_
_atom_site_type_symbol
_atom_site_label
_atom_site_fract_x
_atom_site_fract_y
_atom_site_fract_z
Si Si1 0.710746 0.646022 0.057759
Si Si2 0.487256 0.860795 0.928360
Si Si3 0.221933 0.544670 0.542177
Si Si4 0.457121 0.000253 0.827359
Si Si5 0.404548 0.402916 0.378239
Si Si6 0.324419 0.505927 0.141475
Si Si7 0.892132 0.239868 0.216063
Si Si8 0.617021 0.286225 0.219057
O O1 0.665999 0.805124 0.059789
O O2 0.646963 0.544530 0.097851
O O3 0.866082 0.660254 0.059654
O O4 0.691671 0.577932 0.005929
O O5 0.408443 0.722141 0.915971
O O6 0.396138 0.943819 0.966716
O O7 0.495026 0.953284 0.879795
O O8 0.296565 0.476669 0.585366
O O9 0.309066 0.051836 0.834618
O O10 0.548922 0.114223 0.802816
O O11 0.443686 0.858219 0.798120
O O12 0.554184 0.407407 0.359364
O O13 0.337482 0.366027 0.329981
O O14 0.365284 0.639520 0.171411
O O15 0.750718 0.258477 0.243161
O O16 0.000000 0.183161 0.250000
O O17 0.500000 0.356951 0.250000
#
# Coordination Sequence:
#
# PCOD9285696 Si02
#       8
#     8   8   8   8   8   8   8   8
#     4  11  23  43  67 105 134 186 232 280 347 417
#     4  10  21  42  65  98 132 183 223 280 344 409
#     4  10  23  44  69  97 144 179 231 287 341 413
#     4   9  21  42  70  93 140 181 225 283 347 409
#     4  11  24  41  68  99 138 181 228 284 354 410
#     4  10  23  42  63 100 137 177 227 288 340 411
#     4  11  24  43  70 103 128 185 240 278 353 421
#     4  10  23  45  67 100 141 178 227 293 350 415
#
# _framework density 22.94988
#
# number of rings (size 3 to 8) (size 9 to 14) (size 15 to 20)
#    0.000    1.750    1.250    2.250    5.250    1.500 
#    6.750    0.000    0.000    0.000    0.000    0.000 
#    0.000    0.000    0.000    0.000    0.000    0.000 
#
# Total GULP energy -178729.851830 kJ/mol
# GULP energy per Si atom -5585.307870 kJ/mol
# Density = 2.289765 g / cm^3
# Si number density = 22.949880 Si / 1000 Ang^3
#
#
#
# Elastic Constant Matrix: (Units=GPa)
#
#
# Indices 1 2 3 4 5 6 
#
# 1 98.6226 22.3681 13.9667 0.0000 10.6018 0.0000
# 2 22.3681 91.2232 18.9720 0.0000 -15.5021 0.0000
# 3 13.9667 18.9720 85.7029 0.0000 8.5704 0.0000
# 4 0.0000 0.0000 0.0000 22.4216 0.0000 -4.7098
# 5 10.6018 -15.5021 8.5704 0.0000 30.1830 0.0000
# 6 0.0000 0.0000 0.0000 -4.7098 0.0000 27.8892
#
#
#
# Elastic Compliance Matrix: (Units=1/GPa)
#
#
# Indices 1 2 3 4 5 6 
#
# 1 0.011699 -0.003773 -0.000480 0.000000 -0.005911 0.000000
# 2 -0.003773 0.014255 -0.003505 0.000000 0.009642 0.000000
# 3 -0.000480 -0.003505 0.013056 0.000000 -0.005339 0.000000
# 4 0.000000 0.000000 0.000000 0.046240 0.000000 0.007809
# 5 -0.005911 0.009642 -0.005339 0.000000 0.041675 0.000000
# 6 0.000000 0.000000 0.000000 0.007809 0.000000 0.037175
#
#
# Mechanical properties :
#
#
# Convention : Reuss Voigt Hill
#
# Bulk Modulus (GPa) = 42.56517 42.90693 42.73605
# Shear Modulus (GPa) = 26.67411 30.78156 28.72783
#
# Velocity S-wave (km/s) = 3.41292 3.66628 3.54187
# Velocity P-wave (km/s) = 5.84106 6.05464 5.94881
#
# Compressibility (1/GPa) = 0.02349339
#
# Stress axis : x y z
#
# Youngs Moduli (GPa) = 85.47859 70.15217 76.59191
#
# Poissons Ratio (x) = 0.26470 0.03678
# Poissons Ratio (y) = 0.32253 0.26844
# Poissons Ratio (z) = 0.04104 0.24587
#
# Static dielectric constant tensor:
#      x y z
#    x 1.882440 0.000000 0.029900 
#    y 0.000000 1.855520 0.000000 
#    z 0.029900 0.000000 1.953710 
# 
# From -- ./inp_files/310313.got.cif
#   From: 2010.05.17/outbox.cif.g08.bks.cpg/sg15_156_cif.got.tgz:310313.got - 2010.06.03 18:47:42.
