data_PCOD9285892
_publ_section_title
;
Structure prediction by ZEFSAII (Michael W. Deem and Ramdas Pophale) SiO2 
 PCOD9285892
Probable space group: C 2/C
;
_chemical_formula_sum "Si O2"
_cell_formula_units_Z 48
_cell_length_a 29.257348
_cell_length_b 17.094808
_cell_length_c 8.986681
_cell_angle_alpha 90.000000
_cell_angle_beta 31.890775
_cell_angle_gamma 90.000000
_cell_volume 2374.545347
_symmetry_space_group_name_H-M "C 2/C"
_symmetry_group_IT_number 15
_symmetry_cell_setting 'monoclinic'
loop_
_space_group_symop_operation_xyz
x,y,z
-x,y,1/2-z
-x,-y,-z
x,-y,1/2+z
1/2+x,1/2+y,z
1/2-x,1/2+y,1/2-z
1/2-x,1/2-y,-z
1/2+x,1/2-y,1/2+z
loop_
_atom_site_type_symbol
_atom_site_label
_atom_site_fract_x
_atom_site_fract_y
_atom_site_fract_z
Si Si1 0.000000 0.703437 0.750000
Si Si2 0.000000 0.317546 0.750000
Si Si3 0.483139 0.694510 0.563219
Si Si4 0.085053 0.548743 0.819783
Si Si5 0.151423 0.087894 0.748233
Si Si6 0.844450 0.591931 0.191041
Si Si7 0.586170 0.552848 0.262068
O O1 0.970709 0.756684 0.695050
O O2 0.079147 0.650966 0.475158
O O3 0.952974 0.257562 0.767248
O O4 0.057217 0.376497 0.493523
O O5 0.408459 0.645362 0.685234
O O6 0.553712 0.632604 0.428835
O O7 0.138056 0.575890 0.530444
O O8 0.139241 0.488530 0.767742
O O9 0.000000 0.500000 0.000000
O O10 0.248221 0.120219 0.488210
O O11 0.153162 0.002632 0.662363
O O12 0.113443 0.073185 0.018124
O O13 0.500000 0.500000 0.500000
#
# Coordination Sequence:
#
# PCOD9285892 Si02
#       7
#     4   4   8   8   8   8   8
#     4  12  21  42  63  86 128 172 208 254 325 404
#     4  12  23  38  67  94 124 166 218 262 323 392
#     4  11  23  41  64  92 126 168 212 258 332 394
#     4  12  21  42  65  95 120 173 219 259 315 395
#     4  11  24  42  64 100 124 168 221 277 311 379
#     4  12  24  40  67  92 130 163 223 266 319 377
#     4  10  21  42  68  90 127 170 218 260 321 389
#
# _framework density 20.214396000000001
#
# number of rings (size 3 to 8) (size 9 to 14) (size 15 to 20)
#    0.000    0.667    6.667    2.500    4.667    0.667 
#    0.000    0.833    0.000    0.000    0.000    0.000 
#    0.000    0.000    0.000    0.000    0.000    0.000 
#
# Total GULP energy -133989.928084 kJ/mol
# GULP energy per Si atom -5582.913670 kJ/mol
# Density = 2.016839 g / cm^3
# Si number density = 20.214396 Si / 1000 Ang^3
#
#
#
# Elastic Constant Matrix: (Units=GPa)
#
#
# Indices 1 2 3 4 5 6 
#
# 1 51.8625 23.0147 19.9491 0.0000 8.0706 0.0000
# 2 23.0147 99.5690 8.5357 0.0000 3.3671 0.0000
# 3 19.9491 8.5357 84.3583 0.0000 2.6068 0.0000
# 4 0.0000 0.0000 0.0000 7.5534 0.0000 17.1960
# 5 8.0706 3.3671 2.6068 0.0000 38.3504 0.0000
# 6 0.0000 0.0000 0.0000 17.1960 0.0000 50.6433
#
#
#
# Elastic Compliance Matrix: (Units=1/GPa)
#
#
# Indices 1 2 3 4 5 6 
#
# 1 0.024114 -0.004995 -0.005065 0.000000 -0.004292 0.000000
# 2 -0.004995 0.011192 0.000047 0.000000 0.000065 0.000000
# 3 -0.005065 0.000047 0.013042 0.000000 0.000175 0.000000
# 4 0.000000 0.000000 0.000000 0.583266 0.000000 -0.198048
# 5 -0.004292 0.000065 0.000175 0.000000 0.026961 0.000000
# 6 0.000000 0.000000 0.000000 -0.198048 0.000000 0.086993
#
#
# Mechanical properties :
#
#
# Convention : Reuss Voigt Hill
#
# Bulk Modulus (GPa) = 35.30744 37.64320 36.47532
# Shear Modulus (GPa) = 6.45134 31.59545 19.02340
#
# Velocity S-wave (km/s) = 1.78840 3.95779 3.07103
# Velocity P-wave (km/s) = 4.66572 6.28871 5.53700
#
# Compressibility (1/GPa) = 0.02832264
#
# Stress axis : x y z
#
# Youngs Moduli (GPa) = 41.46950 89.35333 76.67701
#
# Poissons Ratio (x) = 0.44628 0.38833
# Poissons Ratio (y) = 0.20712 -0.00358
# Poissons Ratio (z) = 0.21002 -0.00417
#
# Static dielectric constant tensor:
#      x y z
#    x 1.767600 0.000000 -0.021210 
#    y 0.000000 1.749380 0.000000 
#    z -0.021210 0.000000 1.717070 
# 
# From -- ./inp_files/70560.got.cif
#   From: 2010.05.17/outbox.cif.g08.bks.cpg/sg15_36_cif.got.tgz:70560.got - 2010.06.03 18:47:42.
