data_PCOD9285695
_publ_section_title
;
Structure prediction by ZEFSAII (Michael W. Deem and Ramdas Pophale) SiO2 
 PCOD9285695
Probable space group: C 2/C
;
_chemical_formula_sum "Si O2"
_cell_formula_units_Z 60
_cell_length_a 11.870522
_cell_length_b 14.242304
_cell_length_c 21.237453
_cell_angle_alpha 90.000000
_cell_angle_beta 52.189735
_cell_angle_gamma 90.000000
_cell_volume 2836.641381
_symmetry_space_group_name_H-M "C 2/C"
_symmetry_group_IT_number 15
_symmetry_cell_setting 'monoclinic'
loop_
_space_group_symop_operation_xyz
x,y,z
-x,y,1/2-z
-x,-y,-z
x,-y,1/2+z
1/2+x,1/2+y,z
1/2-x,1/2+y,1/2-z
1/2-x,1/2-y,-z
1/2+x,1/2-y,1/2+z
loop_
_atom_site_type_symbol
_atom_site_label
_atom_site_fract_x
_atom_site_fract_y
_atom_site_fract_z
Si Si1 0.787675 0.461630 0.181117
Si Si2 0.773780 0.862823 0.611647
Si Si3 0.181580 0.343774 0.450666
Si Si4 0.014707 0.630988 0.360553
Si Si5 0.934409 0.917606 0.679537
Si Si6 0.792492 0.812331 0.187817
Si Si7 0.065144 0.921327 0.060444
Si Si8 0.500000 0.259030 0.750000
O O1 0.822607 0.424676 0.100066
O O2 0.645380 0.524184 0.238207
O O3 0.755053 0.371462 0.235112
O O4 0.911508 0.529419 0.163778
O O5 0.828199 0.757545 0.578316
O O6 0.607130 0.864045 0.651031
O O7 0.818333 0.893858 0.665462
O O8 0.857761 0.928368 0.532798
O O9 0.065977 0.356638 0.544817
O O10 0.334229 0.352453 0.433046
O O11 0.130430 0.714989 0.319325
O O12 0.993965 0.824595 0.690430
O O13 0.048044 0.982831 0.605032
O O14 0.648169 0.795983 0.198922
O O15 0.910205 0.873909 0.111142
#
# Coordination Sequence:
#
# PCOD9285695 Si02
#       8
#     8   8   8   8   8   8   8   4
#     4  11  25  41  65 101 131 179 217 268 336 396
#     4  11  22  42  70 100 129 169 219 274 342 387
#     4  11  21  41  72  99 130 171 226 269 328 399
#     4  11  22  45  69 100 135 167 220 288 324 389
#     4  11  24  40  63  92 134 176 222 260 327 403
#     4  11  23  43  64  94 137 169 217 280 323 386
#     4  10  21  42  65  98 129 170 216 275 324 396
#     4  12  24  44  60  90 134 180 220 272 320 398
#
# _framework density 21.151774
#
# number of rings (size 3 to 8) (size 9 to 14) (size 15 to 20)
#    0.000    1.067    4.000    3.200    0.000    4.267 
#    2.400    0.667    0.000    0.000    0.000    0.000 
#    0.000    0.000    0.000    0.000    0.000    0.000 
#
# Total GULP energy -167792.788749 kJ/mol
# GULP energy per Si atom -5593.092958 kJ/mol
# Density = 2.110363 g / cm^3
# Si number density = 21.151774 Si / 1000 Ang^3
#
#
#
# Elastic Constant Matrix: (Units=GPa)
#
#
# Indices 1 2 3 4 5 6 
#
# 1 97.2385 32.1638 24.9241 0.0000 -17.6402 0.0000
# 2 32.1638 62.9483 39.5903 0.0000 -6.6563 0.0000
# 3 24.9241 39.5903 81.4811 0.0000 -12.9485 0.0000
# 4 0.0000 0.0000 0.0000 34.7451 0.0000 -0.8893
# 5 -17.6402 -6.6563 -12.9485 0.0000 26.9297 0.0000
# 6 0.0000 0.0000 0.0000 -0.8893 0.0000 37.7562
#
#
#
# Elastic Compliance Matrix: (Units=1/GPa)
#
#
# Indices 1 2 3 4 5 6 
#
# 1 0.013685 -0.006216 0.000016 0.000000 0.007435 0.000000
# 2 -0.006216 0.025703 -0.011071 0.000000 -0.003042 0.000000
# 3 0.000016 -0.011071 0.018638 0.000000 0.006236 0.000000
# 4 0.000000 0.000000 0.000000 0.028798 0.000000 0.000678
# 5 0.007435 -0.003042 0.006236 0.000000 0.044251 0.000000
# 6 0.000000 0.000000 0.000000 0.000678 0.000000 0.026502
#
#
# Mechanical properties :
#
#
# Convention : Reuss Voigt Hill
#
# Bulk Modulus (GPa) = 42.58192 48.33603 45.45898
# Shear Modulus (GPa) = 25.00658 29.55216 27.27937
#
# Velocity S-wave (km/s) = 3.44211 3.74190 3.59513
# Velocity P-wave (km/s) = 5.99773 6.44753 6.22670
#
# Compressibility (1/GPa) = 0.02348414
#
# Stress axis : x y z
#
# Youngs Moduli (GPa) = 73.07308 38.90534 53.65388
#
# Poissons Ratio (x) = 0.24184 -0.00085
# Poissons Ratio (y) = 0.45423 0.59399
# Poissons Ratio (z) = -0.00116 0.43071
#
# Static dielectric constant tensor:
#      x y z
#    x 1.767330 0.000000 -0.011640 
#    y 0.000000 1.772910 0.000000 
#    z -0.011640 0.000000 1.770540 
# 
# From -- ./inp_files/238700.got.cif
#   From: 2010.05.17/outbox.cif.g08.bks.cpg/sg15_120_cif.got.tgz:238700.got - 2010.06.03 18:47:42.
