data_PCOD9285931
_publ_section_title
;
Structure prediction by ZEFSAII (Michael W. Deem and Ramdas Pophale) SiO2 
 PCOD9285931
Probable space group: C 2/C
;
_chemical_formula_sum "Si O2"
_cell_formula_units_Z 44
_cell_length_a 8.461386
_cell_length_b 17.905087
_cell_length_c 15.541995
_cell_angle_alpha 90.000000
_cell_angle_beta 120.727901
_cell_angle_gamma 90.000000
_cell_volume 2024.057800
_symmetry_space_group_name_H-M "C 2/C"
_symmetry_group_IT_number 15
_symmetry_cell_setting 'monoclinic'
loop_
_space_group_symop_operation_xyz
x,y,z
-x,y,1/2-z
-x,-y,-z
x,-y,1/2+z
1/2+x,1/2+y,z
1/2-x,1/2+y,1/2-z
1/2-x,1/2-y,-z
1/2+x,1/2-y,1/2+z
loop_
_atom_site_type_symbol
_atom_site_label
_atom_site_fract_x
_atom_site_fract_y
_atom_site_fract_z
Si Si1 0.731834 0.187156 0.232174
Si Si2 0.771146 0.961950 0.015803
Si Si3 0.811752 0.311081 0.585035
Si Si4 0.885741 0.977163 0.800948
Si Si5 0.000000 0.694325 0.750000
Si Si6 0.439061 0.936023 0.362002
O O1 0.719598 0.216307 0.326654
O O2 0.528963 0.171553 0.140463
O O3 0.839687 0.109433 0.272364
O O4 0.828478 0.249239 0.201534
O O5 0.673691 0.934643 0.078819
O O6 0.789207 0.888703 0.962415
O O7 0.967023 0.001060 0.086167
O O8 0.624385 0.018521 0.933570
O O9 0.750000 0.250000 0.500000
O O10 0.000000 0.003131 0.750000
O O11 0.693094 0.020530 0.742554
O O12 0.984690 0.642162 0.829598
#
# Coordination Sequence:
#
# PCOD9285931 Si02
#       6
#     8   8   8   8   4   8
#     4  11  25  45  68 100 143 182 227 291 352 408
#     4  10  22  42  71  99 131 184 234 281 348 421
#     4  11  25  44  69  97 140 187 234 281 350 422
#     4  10  21  42  68  96 137 176 224 283 348 406
#     4  12  26  42  70 102 140 180 226 290 350 412
#     4  10  23  41  66 101 136 175 228 289 339 416
#
# _framework density 21.738510999999999
#
# number of rings (size 3 to 8) (size 9 to 14) (size 15 to 20)
#    0.000    1.455    2.727    1.091    5.091    2.182 
#    0.000    2.727    0.000    0.000    0.000    0.000 
#    0.000    0.000    0.000    0.000    0.000    0.000 
#
# Total GULP energy -122934.747928 kJ/mol
# GULP energy per Si atom -5587.943088 kJ/mol
# Density = 2.168903 g / cm^3
# Si number density = 21.738511 Si / 1000 Ang^3
#
#
#
# Elastic Constant Matrix: (Units=GPa)
#
#
# Indices 1 2 3 4 5 6 
#
# 1 67.2961 43.7786 56.8596 0.0000 13.7238 0.0000
# 2 43.7786 136.2515 60.2555 0.0000 23.8703 0.0000
# 3 56.8596 60.2555 146.5355 0.0000 31.9061 0.0000
# 4 0.0000 0.0000 0.0000 28.6929 0.0000 -6.1864
# 5 13.7238 23.8703 31.9061 0.0000 32.9985 0.0000
# 6 0.0000 0.0000 0.0000 -6.1864 0.0000 46.6747
#
#
#
# Elastic Compliance Matrix: (Units=1/GPa)
#
#
# Indices 1 2 3 4 5 6 
#
# 1 0.024105 -0.004469 -0.007647 0.000000 0.000601 0.000000
# 2 -0.004469 0.010171 -0.001585 0.000000 -0.003967 0.000000
# 3 -0.007647 -0.001585 0.012035 0.000000 -0.007310 0.000000
# 4 0.000000 0.000000 0.000000 0.035877 0.000000 0.004755
# 5 0.000601 -0.003967 -0.007310 0.000000 0.039992 0.000000
# 6 0.000000 0.000000 0.000000 0.004755 0.000000 0.022055
#
#
# Mechanical properties :
#
#
# Convention : Reuss Voigt Hill
#
# Bulk Modulus (GPa) = 52.88089 74.65228 63.76659
# Shear Modulus (GPa) = 28.09968 34.28585 31.19277
#
# Velocity S-wave (km/s) = 3.59921 3.97570 3.79213
# Velocity P-wave (km/s) = 6.45377 7.44919 6.96927
#
# Compressibility (1/GPa) = 0.01891042
#
# Stress axis : x y z
#
# Youngs Moduli (GPa) = 41.48505 98.31947 83.09390
#
# Poissons Ratio (x) = 0.43937 0.63540
# Poissons Ratio (y) = 0.18539 0.13167
# Poissons Ratio (z) = 0.31722 0.15580
#
# Static dielectric constant tensor:
#      x y z
#    x 1.837270 0.000000 -0.035830 
#    y 0.000000 1.755140 0.000000 
#    z -0.035830 0.000000 1.803380 
# 
# From -- ./inp_files/134982.got.cif
#   From: 2010.05.17/outbox.cif.g08.bks.cpg/sg15_68_cif.got.tgz:134982.got - 2010.06.03 18:47:42.
