data_PCOD9285123
_publ_section_title
;
Structure prediction by ZEFSAII (Michael W. Deem and Ramdas Pophale) SiO2 
 PCOD9285123
Probable space group: C 2/C
;
_chemical_formula_sum "Si O2"
_cell_formula_units_Z 60
_cell_length_a 8.426233
_cell_length_b 11.520760
_cell_length_c 27.385606
_cell_angle_alpha 90.000000
_cell_angle_beta 101.920330
_cell_angle_gamma 90.000000
_cell_volume 2601.173164
_symmetry_space_group_name_H-M "C 2/C"
_symmetry_group_IT_number 15
_symmetry_cell_setting 'monoclinic'
loop_
_space_group_symop_operation_xyz
x,y,z
-x,y,1/2-z
-x,-y,-z
x,-y,1/2+z
1/2+x,1/2+y,z
1/2-x,1/2+y,1/2-z
1/2-x,1/2-y,-z
1/2+x,1/2-y,1/2+z
loop_
_atom_site_type_symbol
_atom_site_label
_atom_site_fract_x
_atom_site_fract_y
_atom_site_fract_z
Si Si1 0.000000 0.277724 0.750000
Si Si2 0.600209 0.898532 0.979049
Si Si3 0.701609 0.601535 0.828539
Si Si4 0.291482 0.801867 0.925568
Si Si5 0.742786 0.952092 0.405573
Si Si6 0.127556 0.045630 0.933693
Si Si7 0.741897 0.347602 0.811195
Si Si8 0.949095 0.388026 0.194339
O O1 0.896961 0.196557 0.707094
O O2 0.873501 0.342304 0.776994
O O3 0.465645 0.800005 0.962874
O O4 0.651994 0.950748 0.930295
O O5 0.764146 0.885343 0.020247
O O6 0.500000 0.000000 0.000000
O O7 0.667502 0.600806 0.883672
O O8 0.657701 0.472289 0.807101
O O9 0.891834 0.616347 0.829124
O O10 0.202256 0.678412 0.922213
O O11 0.319826 0.829049 0.869912
O O12 0.189909 0.911580 0.938305
O O13 0.687711 0.954720 0.345566
O O14 0.934754 0.959650 0.425848
O O15 0.621626 0.239430 0.799510
O O16 0.000000 0.436148 0.250000
#
# Coordination Sequence:
#
# PCOD9285123 Si02
#       8
#     4   8   8   8   8   8   8   8
#     4  12  24  38  64  90 118 164 210 256 304 374
#     4  10  21  41  67  94 129 164 208 258 309 379
#     4  11  24  42  64  87 129 164 204 259 318 357
#     4   9  21  42  63  90 127 163 206 252 316 369
#     4  11  22  41  65  89 132 163 206 266 305 371
#     4  10  22  41  65  97 123 164 214 256 310 374
#     4  10  23  41  60  91 123 158 208 256 302 376
#     4  11  22  41  62  90 123 165 211 252 314 373
#
# _framework density 23.066514000000002
#
# number of rings (size 3 to 8) (size 9 to 14) (size 15 to 20)
#    0.000    1.600    1.333    4.400    1.867    2.667 
#    0.000   16.000    0.000    0.000    0.000    0.000 
#    0.000    0.000    0.000    0.000    0.000    0.000 
#
# Total GULP energy -167834.641591 kJ/mol
# GULP energy per Si atom -5594.488053 kJ/mol
# Density = 2.301401 g / cm^3
# Si number density = 23.066514 Si / 1000 Ang^3
#
#
#
# Elastic Constant Matrix: (Units=GPa)
#
#
# Indices 1 2 3 4 5 6 
#
# 1 65.3791 3.4924 12.0642 0.0000 15.1962 0.0000
# 2 3.4924 45.7636 18.1917 0.0000 1.1305 0.0000
# 3 12.0642 18.1917 91.7915 0.0000 25.2458 0.0000
# 4 0.0000 0.0000 0.0000 18.4247 0.0000 -4.6147
# 5 15.1962 1.1305 25.2458 0.0000 41.9050 0.0000
# 6 0.0000 0.0000 0.0000 -4.6147 0.0000 -50.3870
#
#
#
# Elastic Compliance Matrix: (Units=1/GPa)
#
#
# Indices 1 2 3 4 5 6 
#
# 1 0.016773 -0.000972 -0.000415 0.000000 -0.005806 0.000000
# 2 -0.000972 0.024020 -0.005455 0.000000 0.002991 0.000000
# 3 -0.000415 -0.005455 0.014321 0.000000 -0.008330 0.000000
# 4 0.000000 0.000000 0.000000 0.053058 0.000000 -0.004859
# 5 -0.005806 0.002991 -0.008330 0.000000 0.030907 0.000000
# 6 0.000000 0.000000 0.000000 -0.004859 0.000000 -0.019401
#
#
# Mechanical properties :
#
#
# Convention : Reuss Voigt Hill
#
# Bulk Modulus (GPa) = 24.13666 30.04787 27.09227
# Shear Modulus (GPa) = 33.97372 13.26759 23.62066
#
# Velocity S-wave (km/s) = 3.84195 2.40091 3.20351
# Velocity P-wave (km/s) = 5.49249 4.55420 5.04520
#
# Compressibility (1/GPa) = 0.04143075
#
# Stress axis : x y z
#
# Youngs Moduli (GPa) = 59.61785 41.63149 69.82747
#
# Poissons Ratio (x) = 0.04045 0.02898
# Poissons Ratio (y) = 0.05793 0.38093
# Poissons Ratio (z) = 0.02474 0.22711
#
# Static dielectric constant tensor:
#      x y z
#    x 1.827090 0.000000 0.026140 
#    y 0.000000 1.883380 0.000000 
#    z 0.026140 0.000000 1.878650 
# 
# From -- ./inp_files/307519.got.cif
#   From: 2010.05.17/outbox.cif.g08.bks.cpg/sg15_154_cif.got.tgz:307519.got - 2010.06.03 18:47:42.
