data_PCOD9285967
_publ_section_title
;
Structure prediction by ZEFSAII (Michael W. Deem and Ramdas Pophale) SiO2 
 PCOD9285967
Probable space group: C 2/C
;
_chemical_formula_sum "Si O2"
_cell_formula_units_Z 64
_cell_length_a 12.567436
_cell_length_b 14.672369
_cell_length_c 18.722313
_cell_angle_alpha 90.000000
_cell_angle_beta 92.688168
_cell_angle_gamma 90.000000
_cell_volume 3448.484320
_symmetry_space_group_name_H-M "C 2/C"
_symmetry_group_IT_number 15
_symmetry_cell_setting 'monoclinic'
loop_
_space_group_symop_operation_xyz
x,y,z
-x,y,1/2-z
-x,-y,-z
x,-y,1/2+z
1/2+x,1/2+y,z
1/2-x,1/2+y,1/2-z
1/2-x,1/2-y,-z
1/2+x,1/2-y,1/2+z
loop_
_atom_site_type_symbol
_atom_site_label
_atom_site_fract_x
_atom_site_fract_y
_atom_site_fract_z
Si Si1 0.989466 0.188639 0.831302
Si Si2 0.265397 0.656467 0.459297
Si Si3 0.602278 0.057131 0.805502
Si Si4 0.714014 0.662700 0.456691
Si Si5 0.991148 0.895189 0.017067
Si Si6 0.844365 0.345870 0.692080
Si Si7 0.380737 0.981697 0.023577
Si Si8 0.750013 0.733255 0.681954
O O1 0.865759 0.198340 0.847119
O O2 0.000000 0.150116 0.750000
O O3 0.031219 0.131198 0.900379
O O4 0.049657 0.286927 0.826354
O O5 0.250000 0.750000 0.500000
O O6 0.388777 0.636699 0.471030
O O7 0.232238 0.663175 0.377051
O O8 0.188441 0.574627 0.482914
O O9 0.500000 0.072704 0.750000
O O10 0.600855 0.050937 0.893179
O O11 0.679930 0.144358 0.796887
O O12 0.635925 0.951971 0.789139
O O13 0.750000 0.750000 0.500000
O O14 0.601323 0.640171 0.488429
O O15 0.807312 0.588807 0.476058
O O16 0.702624 0.697822 0.375244
O O17 0.000000 0.000000 0.000000
O O18 0.784984 0.293411 0.752499
O O19 0.500000 0.000000 0.000000
#
# Coordination Sequence:
#
# PCOD9285967 Si02
#       8
#     8   8   8   8   8   8   8   8
#     4  10  21  42  69  91 131 176 220 264 333 401
#     4  11  24  43  68 100 132 173 227 275 332 391
#     4  11  24  43  66  96 132 171 219 276 334 386
#     4  12  24  43  69  96 133 180 217 271 341 391
#     4  12  24  44  66  97 139 175 224 277 330 402
#     4  10  24  44  67  98 131 178 220 273 333 404
#     4  11  26  42  68 103 130 173 230 277 329 400
#     4  11  24  43  67  98 132 174 223 269 337 399
#
# _framework density 18.558879000000001
#
# number of rings (size 3 to 8) (size 9 to 14) (size 15 to 20)
#    0.000    1.000    5.000    1.125    8.750    2.000 
#    4.500    0.000    0.000    0.000    0.000    0.000 
#    0.000    0.000    0.000    0.000    0.000    0.000 
#
# Total GULP energy -178150.139220 kJ/mol
# GULP energy per Si atom -5567.191851 kJ/mol
# Density = 1.851664 g / cm^3
# Si number density = 18.558879 Si / 1000 Ang^3
#
#
#
# Elastic Constant Matrix: (Units=GPa)
#
#
# Indices 1 2 3 4 5 6 
#
# 1 150.0607 59.0159 47.3018 0.0000 13.5639 0.0000
# 2 59.0159 104.6850 37.5007 0.0000 14.3907 0.0000
# 3 47.3018 37.5007 55.6135 0.0000 21.0443 0.0000
# 4 0.0000 0.0000 0.0000 26.7731 0.0000 7.4852
# 5 13.5639 14.3907 21.0443 0.0000 33.2930 0.0000
# 6 0.0000 0.0000 0.0000 7.4852 0.0000 35.0171
#
#
#
# Elastic Compliance Matrix: (Units=1/GPa)
#
#
# Indices 1 2 3 4 5 6 
#
# 1 0.010020 -0.003427 -0.006871 0.000000 0.001742 0.000000
# 2 -0.003427 0.013767 -0.006105 0.000000 -0.000695 0.000000
# 3 -0.006871 -0.006105 0.034022 0.000000 -0.016067 0.000000
# 4 0.000000 0.000000 0.000000 0.039725 0.000000 -0.008492
# 5 0.001742 -0.000695 -0.016067 0.000000 0.039783 0.000000
# 6 0.000000 0.000000 0.000000 -0.008492 0.000000 0.030373
#
#
# Mechanical properties :
#
#
# Convention : Reuss Voigt Hill
#
# Bulk Modulus (GPa) = 39.99585 66.44401 53.21993
# Shear Modulus (GPa) = 23.94292 30.11936 27.03114
#
# Velocity S-wave (km/s) = 3.59570 4.03290 3.82056
# Velocity P-wave (km/s) = 6.23188 7.58717 6.94268
#
# Compressibility (1/GPa) = 0.02500259
#
# Stress axis : x y z
#
# Youngs Moduli (GPa) = 99.79938 72.63705 29.39289
#
# Poissons Ratio (x) = 0.24892 0.20196
# Poissons Ratio (y) = 0.34201 0.17945
# Poissons Ratio (z) = 0.68572 0.44347
#
# Static dielectric constant tensor:
#      x y z
#    x 1.609280 0.000000 0.019490 
#    y 0.000000 -1.860420 0.000000 
#    z 0.019490 0.000000 1.626710 
# 
# From -- ./inp_files/198341.got.cif
#   From: 2010.05.17/outbox.cif.g08.bks.cpg/sg15_100_cif.got.tgz:198341.got - 2010.06.03 18:47:42.
