data_PCOD9285088
_publ_section_title
;
Structure prediction by ZEFSAII (Michael W. Deem and Ramdas Pophale) SiO2 
 PCOD9285088
Probable space group: C 2/C
;
_chemical_formula_sum "Si O2"
_cell_formula_units_Z 60
_cell_length_a 13.867493
_cell_length_b 26.233117
_cell_length_c 14.085002
_cell_angle_alpha 90.000000
_cell_angle_beta 30.772316
_cell_angle_gamma 90.000000
_cell_volume 2621.554424
_symmetry_space_group_name_H-M "C 2/C"
_symmetry_group_IT_number 15
_symmetry_cell_setting 'monoclinic'
loop_
_space_group_symop_operation_xyz
x,y,z
-x,y,1/2-z
-x,-y,-z
x,-y,1/2+z
1/2+x,1/2+y,z
1/2-x,1/2+y,1/2-z
1/2-x,1/2-y,-z
1/2+x,1/2-y,1/2+z
loop_
_atom_site_type_symbol
_atom_site_label
_atom_site_fract_x
_atom_site_fract_y
_atom_site_fract_z
Si Si1 0.985299 0.301970 0.652832
Si Si2 0.461240 0.131437 0.554879
Si Si3 0.445049 0.653036 0.434079
Si Si4 0.822820 0.062745 0.202806
Si Si5 0.277039 0.805012 0.529963
Si Si6 0.563172 0.688186 0.528620
Si Si7 0.000000 0.110394 0.750000
Si Si8 0.155439 0.053641 0.779115
O O1 0.107187 0.334479 0.476702
O O2 0.000000 0.316257 0.750000
O O3 0.028957 0.242937 0.602531
O O4 0.769255 0.310333 0.808321
O O5 0.632394 0.095562 0.370656
O O6 0.545869 0.172242 0.559901
O O7 0.299957 0.089982 0.714503
O O8 0.532891 0.596817 0.357655
O O9 0.262800 0.656826 0.523484
O O10 0.602732 0.688757 0.250202
O O11 0.427837 0.674364 0.555416
O O12 0.789296 0.005223 0.263015
O O13 0.943782 0.058408 0.002682
O O14 0.250000 0.750000 0.500000
O O15 0.565796 0.647448 0.610242
O O16 0.852052 0.073936 0.822008
#
# Coordination Sequence:
#
# PCOD9285088 Si02
#       8
#     8   8   8   8   8   8   4   8
#     4  12  24  38  61  96 141 184 225 282 350 422
#     4  11  23  44  69 102 138 183 235 293 353 426
#     4  10  21  41  67  90 139 186 222 298 361 403
#     4  10  22  46  67  99 140 173 239 299 357 411
#     4  10  21  42  64 100 138 186 240 287 350 426
#     4  12  24  41  62  99 137 182 230 282 349 432
#     4  12  24  44  66 104 138 178 240 278 360 434
#     4  11  24  42  74 100 132 187 231 296 359 427
#
# _framework density 22.887184000000001
#
# number of rings (size 3 to 8) (size 9 to 14) (size 15 to 20)
#    0.000    1.067    4.667    2.400    1.867    2.133 
#    4.800    0.000    0.000    3.200    0.000    0.000 
#    0.000    0.000    0.000    0.000    0.000    0.000 
#
# Total GULP energy -167485.034928 kJ/mol
# GULP energy per Si atom -5582.834498 kJ/mol
# Density = 2.283509 g / cm^3
# Si number density = 22.887184 Si / 1000 Ang^3
#
#
#
# Elastic Constant Matrix: (Units=GPa)
#
#
# Indices 1 2 3 4 5 6 
#
# 1 137.4948 47.3333 14.4412 -0.0012 15.3474 0.0026
# 2 47.3333 184.9132 28.7560 -0.0013 11.1087 0.0006
# 3 14.4412 28.7560 81.3643 0.0020 11.0263 0.0032
# 4 -0.0012 -0.0013 0.0020 36.4722 -0.0010 6.8091
# 5 15.3474 11.1087 11.0263 -0.0010 30.1592 -0.0038
# 6 0.0026 0.0006 0.0032 6.8091 -0.0038 20.2322
#
#
#
# Elastic Compliance Matrix: (Units=1/GPa)
#
#
# Indices 1 2 3 4 5 6 
#
# 1 0.008337 -0.001873 -0.000354 0.000000 -0.003423 -0.000002
# 2 -0.001873 0.006203 -0.001767 0.000000 -0.000686 0.000000
# 3 -0.000354 -0.001767 0.013536 0.000000 -0.004118 -0.000003
# 4 0.000000 0.000000 0.000000 0.029256 0.000000 -0.009846
# 5 -0.003423 -0.000686 -0.004118 0.000000 0.036657 0.000008
# 6 -0.000002 0.000000 -0.000003 -0.009846 0.000008 0.052740
#
#
# Mechanical properties :
#
#
# Convention : Reuss Voigt Hill
#
# Bulk Modulus (GPa) = 49.78097 64.98148 57.38122
# Shear Modulus (GPa) = 30.97613 38.25550 34.61581
#
# Velocity S-wave (km/s) = 3.68289 4.09281 3.89325
# Velocity P-wave (km/s) = 6.31527 7.12661 6.73317
#
# Compressibility (1/GPa) = 0.02008800
#
# Stress axis : x y z
#
# Youngs Moduli (GPa) = 119.94415 161.19976 73.87848
#
# Poissons Ratio (x) = 0.30200 0.02613
# Poissons Ratio (y) = 0.22471 0.13055
# Poissons Ratio (z) = 0.04243 0.28485
#
# Static dielectric constant tensor:
#      x y z
#    x 1.889050 0.000000 -0.026220 
#    y 0.000000 1.893970 0.000000 
#    z -0.026220 0.000000 1.942790 
# 
# From -- ./inp_files/157330.got.cif
#   From: 2010.05.17/outbox.cif.g08.bks.cpg/sg15_79_cif.got.tgz:157330.got - 2010.06.03 18:47:42.
