data_PCOD9285217
_publ_section_title
;
Structure prediction by ZEFSAII (Michael W. Deem and Ramdas Pophale) SiO2 
 PCOD9285217
Probable space group: C 2/C
;
_chemical_formula_sum "Si O2"
_cell_formula_units_Z 48
_cell_length_a 8.591891
_cell_length_b 17.076138
_cell_length_c 25.126794
_cell_angle_alpha 90.000000
_cell_angle_beta 41.864175
_cell_angle_gamma 90.000000
_cell_volume 2460.255682
_symmetry_space_group_name_H-M "C 2/C"
_symmetry_group_IT_number 15
_symmetry_cell_setting 'monoclinic'
loop_
_space_group_symop_operation_xyz
x,y,z
-x,y,1/2-z
-x,-y,-z
x,-y,1/2+z
1/2+x,1/2+y,z
1/2-x,1/2+y,1/2-z
1/2-x,1/2-y,-z
1/2+x,1/2-y,1/2+z
loop_
_atom_site_type_symbol
_atom_site_label
_atom_site_fract_x
_atom_site_fract_y
_atom_site_fract_z
Si Si1 0.743645 0.977069 0.962318
Si Si2 0.937003 0.874146 0.827813
Si Si3 0.539313 0.770363 0.881737
Si Si4 0.685294 0.172753 0.550294
Si Si5 0.745005 0.256119 0.217941
Si Si6 0.627489 0.367384 0.009330
O O1 0.890985 0.951392 0.873308
O O2 0.843126 0.046494 0.973883
O O3 0.689525 0.899615 0.009436
O O4 0.500000 0.000000 0.000000
O O5 0.716984 0.813246 0.877832
O O6 0.000000 0.889581 0.750000
O O7 0.133639 0.828885 0.811255
O O8 0.688602 0.736616 0.794952
O O9 0.389971 0.696145 0.938973
O O10 0.350455 0.838890 0.917768
O O11 0.750000 0.250000 0.500000
O O12 0.439412 0.187518 0.642699
O O13 0.890282 0.149591 0.538717
O O14 0.500000 0.259798 0.250000
#
# Coordination Sequence:
#
# PCOD9285217 Si02
#       6
#     8   8   8   8   8   8
#     4  12  25  43  66 102 136 174 217 278 336 400
#     4  10  21  44  67  92 133 176 223 272 333 398
#     4  10  21  41  68  95 129 175 220 271 330 394
#     4  12  24  44  70  97 131 175 227 274 327 404
#     4  11  23  39  69  98 126 170 232 273 323 391
#     4  11  23  41  68  99 135 174 218 273 336 393
#
# _framework density 19.510166999999999
#
# number of rings (size 3 to 8) (size 9 to 14) (size 15 to 20)
#    0.000    1.000    5.000    1.500    4.667    0.000 
#    3.000    0.000    0.000    0.000    0.000    0.000 
#    0.000    0.000    0.000    0.000    0.000    0.000 
#
# Total GULP energy -133778.452656 kJ/mol
# GULP energy per Si atom -5574.102194 kJ/mol
# Density = 1.946576 g / cm^3
# Si number density = 19.510167 Si / 1000 Ang^3
#
#
#
# Elastic Constant Matrix: (Units=GPa)
#
#
# Indices 1 2 3 4 5 6 
#
# 1 111.6359 53.4269 33.3442 0.0000 -21.9055 0.0000
# 2 53.4269 144.2859 54.7615 -0.0003 7.4113 0.0000
# 3 33.3442 54.7615 109.1418 -0.0014 -4.0419 0.0017
# 4 0.0000 -0.0003 -0.0014 33.5079 0.0003 -0.5325
# 5 -21.9055 7.4113 -4.0419 0.0003 34.3741 -0.0005
# 6 0.0000 0.0000 0.0017 -0.5325 -0.0005 18.7082
#
#
#
# Elastic Compliance Matrix: (Units=1/GPa)
#
#
# Indices 1 2 3 4 5 6 
#
# 1 0.013657 -0.005070 -0.001271 0.000000 0.009647 0.000000
# 2 -0.005070 0.010638 -0.004011 0.000000 -0.005996 0.000000
# 3 -0.001271 -0.004011 0.011616 0.000000 0.001420 -0.000001
# 4 0.000000 0.000000 0.000000 0.029857 0.000000 0.000850
# 5 0.009647 -0.005996 0.001420 0.000000 0.036699 0.000001
# 6 0.000000 0.000000 -0.000001 0.000850 0.000001 0.053477
#
#
# Mechanical properties :
#
#
# Convention : Reuss Voigt Hill
#
# Bulk Modulus (GPa) = 65.76025 72.01430 68.88728
# Shear Modulus (GPa) = 27.51544 32.22011 29.86777
#
# Velocity S-wave (km/s) = 3.75949 4.06821 3.91689
# Velocity P-wave (km/s) = 7.25423 7.68495 7.47269
#
# Compressibility (1/GPa) = 0.01520675
#
# Stress axis : x y z
#
# Youngs Moduli (GPa) = 73.22464 94.00068 86.08958
#
# Poissons Ratio (x) = 0.47657 0.10944
# Poissons Ratio (y) = 0.37124 0.34529
# Poissons Ratio (z) = 0.09309 0.37702
#
# Static dielectric constant tensor:
#      x y z
#    x 1.493810 -0.000010 -0.003550 
#    y -0.000010 1.557570 0.000000 
#    z -0.003550 0.000000 1.781050 
# 
# From -- ./inp_files/232495.got.cif
#   From: 2010.05.17/outbox.cif.g08.bks.cpg/sg15_117_cif.got.tgz:232495.got - 2010.06.03 18:47:42.
