data_PCOD9285574
_publ_section_title
;
Structure prediction by ZEFSAII (Michael W. Deem and Ramdas Pophale) SiO2 
 PCOD9285574
Probable space group: C 2/C
;
_chemical_formula_sum "Si O2"
_cell_formula_units_Z 60
_cell_length_a 18.209277
_cell_length_b 28.139178
_cell_length_c 12.735478
_cell_angle_alpha 90.000000
_cell_angle_beta 26.355821
_cell_angle_gamma 90.000000
_cell_volume 2896.996249
_symmetry_space_group_name_H-M "C 2/C"
_symmetry_group_IT_number 15
_symmetry_cell_setting 'monoclinic'
loop_
_space_group_symop_operation_xyz
x,y,z
-x,y,1/2-z
-x,-y,-z
x,-y,1/2+z
1/2+x,1/2+y,z
1/2-x,1/2+y,1/2-z
1/2-x,1/2-y,-z
1/2+x,1/2-y,1/2+z
loop_
_atom_site_type_symbol
_atom_site_label
_atom_site_fract_x
_atom_site_fract_y
_atom_site_fract_z
Si Si1 0.299394 0.504195 0.751754
Si Si2 0.201046 0.402800 0.494576
Si Si3 0.147683 0.818559 0.846259
Si Si4 0.840997 0.152433 0.621674
Si Si5 0.000000 0.859057 0.250000
Si Si6 0.183628 0.233261 0.974856
Si Si7 0.842746 0.058473 0.498240
Si Si8 0.184092 0.406487 0.987436
O O1 0.500000 0.500000 0.500000
O O2 0.253288 0.525585 0.696876
O O3 0.247041 0.543558 0.903297
O O4 0.210856 0.454719 0.887113
O O5 0.243380 0.367254 0.345078
O O6 0.338940 0.387549 0.407187
O O7 0.000000 0.401027 0.750000
O O8 0.270182 0.774595 0.667687
O O9 0.229353 0.865368 0.690341
O O10 0.983093 0.813579 0.985660
O O11 0.081643 0.829189 0.048569
O O12 0.743061 0.184412 0.664736
O O13 0.905422 0.104740 0.482749
O O14 0.000000 0.221998 0.250000
O O15 0.250000 0.250000 0.000000
O O16 0.749004 0.078849 0.519279
O O17 0.000000 0.031345 0.250000
O O18 0.000000 0.391276 0.250000
#
# Coordination Sequence:
#
# PCOD9285574 Si02
#       8
#     8   8   8   8   4   8   8   8
#     4  11  22  39  63  96 127 172 221 262 326 395
#     4  10  23  43  66  94 131 177 224 268 323 396
#     4  11  23  44  63  96 131 170 216 264 334 395
#     4  10  21  42  64  91 128 169 211 264 329 391
#     4  10  24  44  70  92 134 182 216 272 330 396
#     4  12  23  38  66  97 124 162 213 272 325 389
#     4  11  20  39  66  85 120 172 207 252 322 382
#     4  12  25  39  61  97 131 161 213 276 320 379
#
# _framework density 20.711106999999998
#
# number of rings (size 3 to 8) (size 9 to 14) (size 15 to 20)
#    0.000    1.067    4.000    3.600    0.000    5.867 
#    2.400    1.333    0.000    0.000    0.000    0.000 
#    0.000    0.000    0.000    0.000    0.000    0.000 
#
# Total GULP energy -167089.798850 kJ/mol
# GULP energy per Si atom -5569.659962 kJ/mol
# Density = 2.066397 g / cm^3
# Si number density = 20.711107 Si / 1000 Ang^3
#
#
#
# Elastic Constant Matrix: (Units=GPa)
#
#
# Indices 1 2 3 4 5 6 
#
# 1 71.6703 6.2541 34.6862 -0.0055 17.3934 0.0266
# 2 6.2541 104.6949 28.0353 0.0013 20.3921 0.0052
# 3 34.6862 28.0353 93.7716 0.0018 14.6592 0.0142
# 4 -0.0055 0.0013 0.0018 13.7766 0.0005 -4.0782
# 5 17.3934 20.3921 14.6592 0.0005 31.0908 -0.0183
# 6 0.0266 0.0052 0.0142 -4.0782 -0.0183 19.8647
#
#
#
# Elastic Compliance Matrix: (Units=1/GPa)
#
#
# Indices 1 2 3 4 5 6 
#
# 1 0.019034 0.002345 -0.006301 0.000000 -0.009216 -0.000030
# 2 0.002345 0.011729 -0.003203 -0.000003 -0.007495 -0.000011
# 3 -0.006301 -0.003203 0.014113 -0.000005 -0.001029 -0.000003
# 4 0.000000 -0.000003 -0.000005 0.077284 0.000012 0.015866
# 5 -0.009216 -0.007495 -0.001029 0.000012 0.042720 0.000057
# 6 -0.000030 -0.000011 -0.000003 0.015866 0.000057 0.053598
#
#
# Mechanical properties :
#
#
# Convention : Reuss Voigt Hill
#
# Bulk Modulus (GPa) = 32.72292 45.34309 39.03301
# Shear Modulus (GPa) = 20.57765 26.35717 23.46741
#
# Velocity S-wave (km/s) = 3.15549 3.57124 3.36978
# Velocity P-wave (km/s) = 5.39538 6.24064 5.83334
#
# Compressibility (1/GPa) = 0.03055962
#
# Stress axis : x y z
#
# Youngs Moduli (GPa) = 52.53667 85.25971 70.85487
#
# Poissons Ratio (x) = -0.19996 0.44648
# Poissons Ratio (y) = -0.12322 0.22691
# Poissons Ratio (z) = 0.33105 0.27304
#
# Static dielectric constant tensor:
#      x y z
#    x 1.808630 -0.000030 -0.027070 
#    y -0.000030 1.735790 0.000020 
#    z -0.027070 0.000020 1.708820 
# 
# From -- ./inp_files/108415.got.cif
#   From: 2010.05.17/outbox.cif.g08.bks.cpg/sg15_55_cif.got.tgz:108415.got - 2010.06.03 18:47:42.
