data_PCOD9285565
_publ_section_title
;
Structure prediction by ZEFSAII (Michael W. Deem and Ramdas Pophale) SiO2 
 PCOD9285565
Probable space group: C 2/C
;
_chemical_formula_sum "Si O2"
_cell_formula_units_Z 40
_cell_length_a 10.037078
_cell_length_b 9.541081
_cell_length_c 26.402848
_cell_angle_alpha 90.000000
_cell_angle_beta 37.559600
_cell_angle_gamma 90.000000
_cell_volume 1541.313198
_symmetry_space_group_name_H-M "C 2/C"
_symmetry_group_IT_number 15
_symmetry_cell_setting 'monoclinic'
loop_
_space_group_symop_operation_xyz
x,y,z
-x,y,1/2-z
-x,-y,-z
x,-y,1/2+z
1/2+x,1/2+y,z
1/2-x,1/2+y,1/2-z
1/2-x,1/2-y,-z
1/2+x,1/2-y,1/2+z
loop_
_atom_site_type_symbol
_atom_site_label
_atom_site_fract_x
_atom_site_fract_y
_atom_site_fract_z
Si Si1 0.839576 0.798466 0.541995
Si Si2 0.738403 0.846280 0.249783
Si Si3 0.598730 0.503347 0.891179
Si Si4 0.807434 0.983316 0.388535
Si Si5 0.880634 0.410298 0.654809
O O1 0.018309 0.882294 0.456275
O O2 0.869465 0.635121 0.543444
O O3 0.609533 0.829023 0.583200
O O4 0.817339 0.872907 0.603007
O O5 0.737655 0.681654 0.238097
O O6 0.585037 0.932777 0.333542
O O7 0.732819 0.920371 0.196576
O O8 0.983395 0.890234 0.193743
O O9 0.399158 0.458432 0.914068
O O10 0.735711 0.078036 0.363835
#
# Coordination Sequence:
#
# PCOD9285565 Si02
#       5
#     8   8   8   8   8
#     4  10  21  42  64  90 124 167 202 250 315 362
#     4   9  23  41  61  89 128 159 203 259 307 362
#     4   9  21  43  60  90 131 157 200 265 302 362
#     4   9  21  40  63  86 122 161 203 255 301 365
#     4  11  22  41  67  90 121 170 207 251 313 368
#
# _framework density 25.951893999999999
#
# number of rings (size 3 to 8) (size 9 to 14) (size 15 to 20)
#    1.200    1.200    0.000    1.200    2.800    1.600 
#   10.800    2.000    0.000    0.000    0.000    0.000 
#    0.000    0.000    0.000    0.000    0.000    0.000 
#
# Total GULP energy -111814.609962 kJ/mol
# GULP energy per Si atom -5590.730498 kJ/mol
# Density = 2.589283 g / cm^3
# Si number density = 25.951894 Si / 1000 Ang^3
#
#
#
# Elastic Constant Matrix: (Units=GPa)
#
#
# Indices 1 2 3 4 5 6 
#
# 1 113.6741 53.8516 -3.0783 0.0000 20.5912 0.0000
# 2 53.8516 125.7642 9.2616 0.0000 8.0505 0.0000
# 3 -3.0783 9.2616 46.2448 0.0000 3.7483 0.0000
# 4 0.0000 0.0000 0.0000 42.7567 0.0000 9.6709
# 5 20.5912 8.0505 3.7483 0.0000 27.4674 0.0000
# 6 0.0000 0.0000 0.0000 9.6709 0.0000 44.1022
#
#
#
# Elastic Compliance Matrix: (Units=1/GPa)
#
#
# Indices 1 2 3 4 5 6 
#
# 1 0.012837 -0.005144 0.002571 0.000000 -0.008467 0.000000
# 2 -0.005144 0.010262 -0.002494 0.000000 0.001189 0.000000
# 3 0.002571 -0.002494 0.022642 0.000000 -0.004286 0.000000
# 4 0.000000 0.000000 0.000000 0.024609 0.000000 -0.005396
# 5 -0.008467 0.001189 -0.004286 0.000000 0.042990 0.000000
# 6 0.000000 0.000000 0.000000 -0.005396 0.000000 0.023858
#
#
# Mechanical properties :
#
#
# Convention : Reuss Voigt Hill
#
# Bulk Modulus (GPa) = 28.08447 45.08366 36.58406
# Shear Modulus (GPa) = 31.40671 37.90846 34.65759
#
# Velocity S-wave (km/s) = 3.48255 3.82608 3.65835
# Velocity P-wave (km/s) = 5.19770 6.07686 5.65440
#
# Compressibility (1/GPa) = 0.03560687
#
# Stress axis : x y z
#
# Youngs Moduli (GPa) = 77.89712 97.44990 44.16551
#
# Poissons Ratio (x) = 0.50131 -0.11355
# Poissons Ratio (y) = 0.40072 0.11015
# Poissons Ratio (z) = -0.20028 0.24304
#
# Static dielectric constant tensor:
#      x y z
#    x 2.026630 0.000000 -0.055430 
#    y 0.000000 2.032010 0.000000 
#    z -0.055430 0.000000 2.148200 
# 
# From -- ./inp_files/287305.got.cif
#   From: 2010.05.17/outbox.cif.g08.bks.cpg/sg15_144_cif.got.tgz:287305.got - 2010.06.03 18:47:42.
