data_PCOD9285759
_publ_section_title
;
Structure prediction by ZEFSAII (Michael W. Deem and Ramdas Pophale) SiO2 
 PCOD9285759
Probable space group: C 2/C
;
_chemical_formula_sum "Si O2"
_cell_formula_units_Z 32
_cell_length_a 8.369256
_cell_length_b 11.297836
_cell_length_c 28.368042
_cell_angle_alpha 90.000000
_cell_angle_beta 146.806959
_cell_angle_gamma 90.000000
_cell_volume 1468.470183
_symmetry_space_group_name_H-M "C 2/C"
_symmetry_group_IT_number 15
_symmetry_cell_setting 'monoclinic'
loop_
_space_group_symop_operation_xyz
x,y,z
-x,y,1/2-z
-x,-y,-z
x,-y,1/2+z
1/2+x,1/2+y,z
1/2-x,1/2+y,1/2-z
1/2-x,1/2-y,-z
1/2+x,1/2-y,1/2+z
loop_
_atom_site_type_symbol
_atom_site_label
_atom_site_fract_x
_atom_site_fract_y
_atom_site_fract_z
Si Si1 0.687962 0.995053 0.843870
Si Si2 0.840187 0.402767 0.994144
Si Si3 0.405964 0.247359 0.426117
Si Si4 0.816923 0.479206 0.842337
O O1 0.500000 0.985989 0.750000
O O2 0.759314 0.131663 0.873843
O O3 0.504358 0.946841 0.842673
O O4 0.001241 0.933769 0.915576
O O5 0.874525 0.282097 0.973696
O O6 0.000000 0.500000 0.000000
O O7 0.007801 0.424056 0.084145
O O8 0.277524 0.137628 0.364658
O O9 0.750000 0.250000 0.500000
O O10 0.500000 0.525055 0.750000
#
# Coordination Sequence:
#
# PCOD9285759 Si02
#       4
#     8   8   8   8
#     4  12  24  42  68  95 131 174 213 267 326 379
#     4  10  21  42  66  95 129 167 214 265 319 385
#     4  11  23  42  69  92 130 171 214 264 329 382
#     4  11  24  44  65  96 134 167 219 269 316 387
#
# _framework density 21.791384999999998
#
# number of rings (size 3 to 8) (size 9 to 14) (size 15 to 20)
#    0.000    1.000    5.000    4.500    0.000    1.000 
#    0.000    1.250    0.000    0.000    0.000    0.000 
#    0.000    0.000    0.000    0.000    0.000    0.000 
#
# Total GULP energy -89548.717418 kJ/mol
# GULP energy per Si atom -5596.794839 kJ/mol
# Density = 2.174179 g / cm^3
# Si number density = 21.791385 Si / 1000 Ang^3
#
#
#
# Elastic Constant Matrix: (Units=GPa)
#
#
# Indices 1 2 3 4 5 6 
#
# 1 130.6663 10.5179 67.7856 0.0000 7.3267 0.0000
# 2 10.5179 63.4622 24.8433 0.0000 -2.6958 0.0000
# 3 67.7856 24.8433 200.4792 -0.0001 5.4329 -0.0001
# 4 0.0000 0.0000 -0.0001 -1.8725 0.0000 -0.4238
# 5 7.3267 -2.6958 5.4329 0.0000 43.7189 0.0000
# 6 0.0000 0.0000 -0.0001 -0.4238 0.0000 33.2818
#
#
#
# Elastic Compliance Matrix: (Units=1/GPa)
#
#
# Indices 1 2 3 4 5 6 
#
# 1 0.009350 -0.000395 -0.003080 0.000000 -0.001209 0.000000
# 2 -0.000395 0.016649 -0.001966 0.000000 0.001337 0.000000
# 3 -0.003080 -0.001966 0.006283 0.000000 -0.000386 0.000000
# 4 0.000000 0.000000 0.000000 -0.532518 0.000000 -0.006781
# 5 -0.001209 0.001337 -0.000386 0.000000 0.023206 0.000000
# 6 0.000000 0.000000 0.000000 -0.006781 0.000000 0.029960
#
#
# Mechanical properties :
#
#
# Convention : Reuss Voigt Hill
#
# Bulk Modulus (GPa) = 46.72619 66.76682 56.74650
# Shear Modulus (GPa) = -11.65359 34.45638 11.40140
#
# Velocity S-wave (km/s) = -2.31504 3.98074 2.28985
# Velocity P-wave (km/s) = 3.78724 7.19958 5.75227
#
# Compressibility (1/GPa) = 0.02140128
#
# Stress axis : x y z
#
# Youngs Moduli (GPa) = 106.94756 60.06274 159.14882
#
# Poissons Ratio (x) = 0.02375 0.49014
# Poissons Ratio (y) = 0.04229 0.31284
# Poissons Ratio (z) = 0.32937 0.11807
#
# Static dielectric constant tensor:
#      x y z
#    x 1.856260 0.000000 -0.033690 
#    y 0.000000 1.850920 0.000000 
#    z -0.033690 0.000000 1.760650 
# 
# From -- ./inp_files/131728.got.cif
#   From: 2010.05.17/outbox.cif.g08.bks.cpg/sg15_66_cif.got.tgz:131728.got - 2010.06.03 18:47:42.
