data_PCOD9285247
_publ_section_title
;
Structure prediction by ZEFSAII (Michael W. Deem and Ramdas Pophale) SiO2 
 PCOD9285247
Probable space group: C 2/C
;
_chemical_formula_sum "Si O2"
_cell_formula_units_Z 40
_cell_length_a 23.468529
_cell_length_b 10.677929
_cell_length_c 17.585073
_cell_angle_alpha 90.000000
_cell_angle_beta 26.486706
_cell_angle_gamma 90.000000
_cell_volume 1965.361051
_symmetry_space_group_name_H-M "C 2/C"
_symmetry_group_IT_number 15
_symmetry_cell_setting 'monoclinic'
loop_
_space_group_symop_operation_xyz
x,y,z
-x,y,1/2-z
-x,-y,-z
x,-y,1/2+z
1/2+x,1/2+y,z
1/2-x,1/2+y,1/2-z
1/2-x,1/2-y,-z
1/2+x,1/2-y,1/2+z
loop_
_atom_site_type_symbol
_atom_site_label
_atom_site_fract_x
_atom_site_fract_y
_atom_site_fract_z
Si Si1 0.120435 0.809764 0.343085
Si Si2 0.601222 0.259942 0.991011
Si Si3 0.793970 0.111656 0.467076
Si Si4 0.209738 0.368626 0.494886
Si Si5 0.440675 0.549430 0.432765
O O1 0.251410 0.742893 0.213272
O O2 0.176779 0.884545 0.203175
O O3 0.069316 0.895541 0.471110
O O4 0.004878 0.729233 0.445426
O O5 0.597987 0.172306 0.069853
O O6 0.576705 0.400788 0.046912
O O7 0.750000 0.250000 0.500000
O O8 0.826082 0.101614 0.517552
O O9 0.927889 0.088470 0.263875
O O10 0.702754 0.996839 0.549779
O O11 0.250000 0.250000 0.500000
#
# Coordination Sequence:
#
# PCOD9285247 Si02
#       5
#     8   8   8   8   8
#     4  10  23  37  69 101 129 174 236 288 339 408
#     4  10  21  41  69  99 127 186 225 292 335 416
#     4  11  24  40  67  97 135 184 226 287 350 418
#     4  10  21  41  69 100 129 175 240 282 333 410
#     4  11  22  42  66  91 137 185 227 276 363 415
#
# _framework density 20.352494
#
# number of rings (size 3 to 8) (size 9 to 14) (size 15 to 20)
#    1.200    0.400    4.000    0.600    2.800    0.800 
#    0.000    9.000    0.000    0.000    0.000    0.000 
#    0.000    0.000    0.000    0.000    0.000    0.000 
#
# Total GULP energy -111380.509026 kJ/mol
# GULP energy per Si atom -5569.025451 kJ/mol
# Density = 2.030617 g / cm^3
# Si number density = 20.352494 Si / 1000 Ang^3
#
#
#
# Elastic Constant Matrix: (Units=GPa)
#
#
# Indices 1 2 3 4 5 6 
#
# 1 116.7415 35.7500 41.5896 0.0000 2.9542 0.0000
# 2 35.7500 114.8679 19.4913 0.0000 -3.9232 0.0000
# 3 41.5896 19.4913 58.7634 0.0000 -7.0587 0.0000
# 4 0.0000 0.0000 0.0000 15.8273 0.0000 -8.5612
# 5 2.9542 -3.9232 -7.0587 0.0000 40.4837 0.0000
# 6 0.0000 0.0000 0.0000 -8.5612 0.0000 32.9199
#
#
#
# Elastic Compliance Matrix: (Units=1/GPa)
#
#
# Indices 1 2 3 4 5 6 
#
# 1 0.012325 -0.002534 -0.008192 0.000000 -0.002573 0.000000
# 2 -0.002534 0.009751 -0.001333 0.000000 0.000897 0.000000
# 3 -0.008192 -0.001333 0.023812 0.000000 0.004620 0.000000
# 4 0.000000 0.000000 0.000000 0.073524 0.000000 0.019121
# 5 -0.002573 0.000897 0.004620 0.000000 0.025782 0.000000
# 6 0.000000 0.000000 0.000000 0.019121 0.000000 0.035349
#
#
# Mechanical properties :
#
#
# Convention : Reuss Voigt Hill
#
# Bulk Modulus (GPa) = 45.93274 53.78162 49.85718
# Shear Modulus (GPa) = 23.59386 30.74898 27.17142
#
# Velocity S-wave (km/s) = 3.40849 3.89115 3.65779
# Velocity P-wave (km/s) = 6.17317 6.83158 6.51070
#
# Compressibility (1/GPa) = 0.02177096
#
# Stress axis : x y z
#
# Youngs Moduli (GPa) = 81.13330 102.55215 41.99485
#
# Poissons Ratio (x) = 0.25985 0.34402
# Poissons Ratio (y) = 0.20558 0.05599
# Poissons Ratio (z) = 0.66464 0.13673
#
# Static dielectric constant tensor:
#      x y z
#    x 1.788600 0.000000 -0.062000 
#    y 0.000000 1.698450 0.000000 
#    z -0.062000 0.000000 1.750890 
# 
# From -- ./inp_files/218758.got.cif
#   From: 2010.05.17/outbox.cif.g08.bks.cpg/sg15_110_cif.got.tgz:218758.got - 2010.06.03 18:47:42.
