data_PCOD9285770
_publ_section_title
;
Structure prediction by ZEFSAII (Michael W. Deem and Ramdas Pophale) SiO2 
 PCOD9285770
Probable space group: C 2/C
;
_chemical_formula_sum "Si O2"
_cell_formula_units_Z 48
_cell_length_a 21.980304
_cell_length_b 7.193735
_cell_length_c 16.040259
_cell_angle_alpha 90.000000
_cell_angle_beta 60.169895
_cell_angle_gamma 90.000000
_cell_volume 2200.245273
_symmetry_space_group_name_H-M "C 2/C"
_symmetry_group_IT_number 15
_symmetry_cell_setting 'monoclinic'
loop_
_space_group_symop_operation_xyz
x,y,z
-x,y,1/2-z
-x,-y,-z
x,-y,1/2+z
1/2+x,1/2+y,z
1/2-x,1/2+y,1/2-z
1/2-x,1/2-y,-z
1/2+x,1/2-y,1/2+z
loop_
_atom_site_type_symbol
_atom_site_label
_atom_site_fract_x
_atom_site_fract_y
_atom_site_fract_z
Si Si1 0.672331 0.333697 0.542451
Si Si2 0.461604 0.074664 0.189011
Si Si3 0.391516 0.044091 0.466803
Si Si4 0.656710 0.303972 0.152055
Si Si5 0.348050 0.853022 0.179754
Si Si6 0.277636 0.558105 0.145562
O O1 0.750000 0.250000 0.500000
O O2 0.620439 0.161390 0.563300
O O3 0.657359 0.480734 0.626075
O O4 0.679508 0.453836 0.454102
O O5 0.500000 0.037168 0.250000
O O6 0.526894 0.102293 0.083192
O O7 0.413797 0.906702 0.190669
O O8 0.407028 0.242216 0.243796
O O9 0.356226 0.184035 0.424138
O O10 0.359502 0.054499 0.580882
O O11 0.729176 0.224252 0.140260
O O12 0.332687 0.639754 0.172860
O O13 0.279102 0.928870 0.272061
#
# Coordination Sequence:
#
# PCOD9285770 Si02
#       6
#     8   8   8   8   8   8
#     4  12  22  37  71 103 132 174 223 277 336 404
#     4   9  22  43  67  90 130 184 225 267 328 393
#     4  11  21  41  68  97 134 177 224 273 334 397
#     4  10  21  42  66  96 135 176 220 273 334 401
#     4  11  22  39  68  94 139 171 220 282 338 397
#     4  11  22  40  62 102 131 176 216 280 346 393
#
# _framework density 21.815749
#
# number of rings (size 3 to 8) (size 9 to 14) (size 15 to 20)
#    0.000    1.333    3.333    3.000    0.000    0.000 
#    0.000    8.333    7.333    0.000    0.000    0.000 
#    0.000    0.000    0.000    0.000    0.000    0.000 
#
# Total GULP energy -134143.849383 kJ/mol
# GULP energy per Si atom -5589.327058 kJ/mol
# Density = 2.176609 g / cm^3
# Si number density = 21.815749 Si / 1000 Ang^3
#
#
#
# Elastic Constant Matrix: (Units=GPa)
#
#
# Indices 1 2 3 4 5 6 
#
# 1 72.7914 31.8514 5.0877 0.0000 -8.5214 0.0004
# 2 31.8514 71.6182 15.9230 0.0002 -14.1544 0.0019
# 3 5.0877 15.9230 75.4296 0.0000 -20.4302 0.0001
# 4 0.0000 0.0002 0.0000 30.7966 0.0000 14.5310
# 5 -8.5214 -14.1544 -20.4302 0.0000 27.1662 0.0002
# 6 0.0004 0.0019 0.0001 14.5310 0.0002 28.0966
#
#
#
# Elastic Compliance Matrix: (Units=1/GPa)
#
#
# Indices 1 2 3 4 5 6 
#
# 1 0.017180 -0.007415 0.001029 0.000000 0.002300 0.000000
# 2 -0.007415 0.018879 -0.001822 0.000001 0.006141 -0.000001
# 3 0.001029 -0.001822 0.016831 0.000000 0.012031 0.000000
# 4 0.000000 0.000001 0.000000 0.042953 0.000000 -0.022214
# 5 0.002300 0.006141 0.012031 0.000000 0.049779 -0.000001
# 6 0.000000 -0.000001 0.000000 -0.022214 -0.000001 0.047080
#
#
# Mechanical properties :
#
#
# Convention : Reuss Voigt Hill
#
# Bulk Modulus (GPa) = 27.41593 36.17372 31.79482
# Shear Modulus (GPa) = 22.59620 28.34368 25.46994
#
# Velocity S-wave (km/s) = 3.22184 3.60839 3.42058
# Velocity P-wave (km/s) = 5.14146 5.82908 5.49603
#
# Compressibility (1/GPa) = 0.03647514
#
# Stress axis : x y z
#
# Youngs Moduli (GPa) = 58.20838 52.96806 59.41302
#
# Poissons Ratio (x) = 0.39275 -0.06116
# Poissons Ratio (y) = 0.43161 0.10826
# Poissons Ratio (z) = -0.05992 0.09651
#
# Static dielectric constant tensor:
#      x y z
#    x 1.791830 0.000000 0.083210 
#    y 0.000000 1.801120 0.000000 
#    z 0.083210 0.000000 2.268910 
# 
# From -- ./inp_files/220843.got.cif
#   From: 2010.05.17/outbox.cif.g08.bks.cpg/sg15_111_cif.got.tgz:220843.got - 2010.06.03 18:47:42.
