data_PCOD9285845
_publ_section_title
;
Structure prediction by ZEFSAII (Michael W. Deem and Ramdas Pophale) SiO2 
 PCOD9285845
Probable space group: C 2/C
;
_chemical_formula_sum "Si O2"
_cell_formula_units_Z 56
_cell_length_a 13.206566
_cell_length_b 14.496484
_cell_length_c 13.714153
_cell_angle_alpha 90.000000
_cell_angle_beta 86.210816
_cell_angle_gamma 90.000000
_cell_volume 2619.818190
_symmetry_space_group_name_H-M "C 2/C"
_symmetry_group_IT_number 15
_symmetry_cell_setting 'monoclinic'
loop_
_space_group_symop_operation_xyz
x,y,z
-x,y,1/2-z
-x,-y,-z
x,-y,1/2+z
1/2+x,1/2+y,z
1/2-x,1/2+y,1/2-z
1/2-x,1/2-y,-z
1/2+x,1/2-y,1/2+z
loop_
_atom_site_type_symbol
_atom_site_label
_atom_site_fract_x
_atom_site_fract_y
_atom_site_fract_z
Si Si1 0.561855 0.805565 0.103737
Si Si2 0.164863 0.697950 0.790139
Si Si3 0.965964 0.006226 0.855636
Si Si4 0.745847 0.368861 0.892196
Si Si5 0.027908 0.855499 0.980029
Si Si6 0.744339 0.004719 0.302465
Si Si7 0.119202 0.486657 0.999294
O O1 0.444815 0.820084 0.149164
O O2 0.627841 0.763756 0.187943
O O3 0.537892 0.736063 0.017210
O O4 0.622905 0.895507 0.066079
O O5 0.240588 0.767215 0.841965
O O6 0.216634 0.599343 0.774960
O O7 0.000000 0.040595 0.750000
O O8 0.846499 0.996615 0.858847
O O9 0.005776 0.076220 0.933684
O O10 0.008725 0.905978 0.877974
O O11 0.649322 0.354035 0.970472
O O12 0.740531 0.434899 0.796187
O O13 0.828222 0.423117 0.954072
O O14 0.661201 0.033491 0.388292
O O15 0.000000 0.500000 0.000000
#
# Coordination Sequence:
#
# PCOD9285845 Si02
#       7
#     8   8   8   8   8   8   8
#     4  10  21  42  67  97 130 180 233 275 336 412
#     4  10  22  40  71  95 130 181 231 278 334 412
#     4  11  22  39  65  97 134 172 223 286 345 397
#     4  11  23  43  67  99 132 177 231 280 338 407
#     4  10  22  41  69  95 130 177 226 280 341 404
#     4  12  23  41  67  98 133 178 224 281 340 407
#     4  12  25  42  67  98 140 183 223 284 348 409
#
# _framework density 21.375530000000001
#
# number of rings (size 3 to 8) (size 9 to 14) (size 15 to 20)
#    0.000    1.143    5.714    0.857    2.000    2.286 
#    2.571    1.429    0.000    0.000    0.000    0.000 
#    0.000    0.000    0.000    0.000    0.000    0.000 
#
# Total GULP energy -155976.037716 kJ/mol
# GULP energy per Si atom -5570.572776 kJ/mol
# Density = 2.132688 g / cm^3
# Si number density = 21.375530 Si / 1000 Ang^3
#
#
#
# Elastic Constant Matrix: (Units=GPa)
#
#
# Indices 1 2 3 4 5 6 
#
# 1 68.5388 16.8667 -4.5018 0.0000 9.7915 0.0000
# 2 16.8667 91.0742 23.6032 0.0000 1.3585 0.0000
# 3 -4.5018 23.6032 63.9227 0.0000 4.2531 0.0000
# 4 0.0000 0.0000 0.0000 12.1899 0.0000 -25.6482
# 5 9.7915 1.3585 4.2531 0.0000 27.5849 0.0000
# 6 0.0000 0.0000 0.0000 -25.6482 0.0000 -31.5971
#
#
#
# Elastic Compliance Matrix: (Units=1/GPa)
#
#
# Indices 1 2 3 4 5 6 
#
# 1 0.016587 -0.003748 0.002962 0.000000 -0.006160 0.000000
# 2 -0.003748 0.012989 -0.005159 0.000000 0.001486 0.000000
# 3 0.002962 -0.005159 0.017995 0.000000 -0.003572 0.000000
# 4 0.000000 0.000000 0.000000 0.030295 0.000000 -0.024591
# 5 -0.006160 0.001486 -0.003572 0.000000 0.038916 0.000000
# 6 0.000000 0.000000 0.000000 -0.024591 0.000000 -0.011687
#
#
# Mechanical properties :
#
#
# Convention : Reuss Voigt Hill
#
# Bulk Modulus (GPa) = 28.02564 32.83020 30.42792
# Shear Modulus (GPa) = 38.79661 14.14004 26.46832
#
# Velocity S-wave (km/s) = 4.26490 2.57477 3.52270
# Velocity P-wave (km/s) = 6.11491 4.92253 5.55083
#
# Compressibility (1/GPa) = 0.03568161
#
# Stress axis : x y z
#
# Youngs Moduli (GPa) = 60.28798 76.98853 55.57087
#
# Poissons Ratio (x) = 0.28852 -0.16459
# Poissons Ratio (y) = 0.22593 0.28668
# Poissons Ratio (z) = -0.17856 0.39718
#
# Static dielectric constant tensor:
#      x y z
#    x 1.784820 0.000000 0.031440 
#    y 0.000000 1.855830 0.000000 
#    z 0.031440 0.000000 1.793010 
# 
# From -- ./inp_files/144275.got.cif
#   From: 2010.05.17/outbox.cif.g08.bks.cpg/sg15_73_cif.got.tgz:144275.got - 2010.06.03 18:47:42.
