data_PCOD9285103
_publ_section_title
;
Structure prediction by ZEFSAII (Michael W. Deem and Ramdas Pophale) SiO2 
 PCOD9285103
Probable space group: C 2/C
;
_chemical_formula_sum "Si O2"
_cell_formula_units_Z 56
_cell_length_a 23.423317
_cell_length_b 6.591925
_cell_length_c 26.518165
_cell_angle_alpha 90.000000
_cell_angle_beta 138.326052
_cell_angle_gamma 90.000000
_cell_volume 2722.415710
_symmetry_space_group_name_H-M "C 2/C"
_symmetry_group_IT_number 15
_symmetry_cell_setting 'monoclinic'
loop_
_space_group_symop_operation_xyz
x,y,z
-x,y,1/2-z
-x,-y,-z
x,-y,1/2+z
1/2+x,1/2+y,z
1/2-x,1/2+y,1/2-z
1/2-x,1/2-y,-z
1/2+x,1/2-y,1/2+z
loop_
_atom_site_type_symbol
_atom_site_label
_atom_site_fract_x
_atom_site_fract_y
_atom_site_fract_z
Si Si1 0.808854 0.434890 0.557975
Si Si2 0.394600 0.205733 0.448288
Si Si3 0.099078 0.867122 0.315247
Si Si4 0.751831 0.320832 0.928922
Si Si5 0.832149 0.980215 0.836043
Si Si6 0.849955 0.310372 0.759413
Si Si7 0.558802 0.906100 0.112260
O O1 0.750000 0.250000 0.500000
O O2 0.886986 0.317669 0.635819
O O3 0.813504 0.582169 0.512724
O O4 0.765319 0.585634 0.569885
O O5 0.301786 0.156169 0.409821
O O6 0.389158 0.424441 0.418559
O O7 0.465681 0.183842 0.538463
O O8 0.417029 0.048441 0.419167
O O9 0.128855 0.784038 0.280448
O O10 0.000000 0.929737 0.250000
O O11 0.163475 0.052112 0.371087
O O12 0.834341 0.137599 0.791341
O O13 0.737830 0.939064 0.795788
O O14 0.873907 0.775468 0.843680
O O15 0.927061 0.454774 0.829707
#
# Coordination Sequence:
#
# PCOD9285103 Si02
#       7
#     8   8   8   8   8   8   8
#     4   9  21  43  63  87 120 163 219 261 309 373
#     4  10  22  38  66  92 124 167 209 262 320 386
#     4  11  25  41  62  96 132 172 215 262 322 386
#     4  10  21  41  67  92 123 170 217 266 321 378
#     4  11  21  39  61  91 126 166 213 263 328 383
#     4  11  23  38  64  93 130 170 209 265 323 388
#     4  10  22  40  59  98 130 160 211 260 321 384
#
# _framework density 20.569966999999998
#
# number of rings (size 3 to 8) (size 9 to 14) (size 15 to 20)
#    0.000    1.714    1.429    2.143    4.000    2.857 
#    7.714    0.000    0.000    0.000    0.000    0.000 
#    0.000    0.000    0.000    0.000    0.000    0.000 
#
# Total GULP energy -156272.134454 kJ/mol
# GULP energy per Si atom -5581.147659 kJ/mol
# Density = 2.052315 g / cm^3
# Si number density = 20.569967 Si / 1000 Ang^3
#
#
#
# Elastic Constant Matrix: (Units=GPa)
#
#
# Indices 1 2 3 4 5 6 
#
# 1 65.2909 9.6687 27.7313 0.0003 3.7483 0.0001
# 2 9.6687 66.9615 33.8954 0.0019 2.9864 -0.0030
# 3 27.7313 33.8954 95.0150 0.0003 7.6708 0.0009
# 4 0.0003 0.0019 0.0003 20.7204 0.0003 0.0861
# 5 3.7483 2.9864 7.6708 0.0003 18.7602 0.0017
# 6 0.0001 -0.0030 0.0009 0.0861 0.0017 18.8969
#
#
#
# Elastic Compliance Matrix: (Units=1/GPa)
#
#
# Indices 1 2 3 4 5 6 
#
# 1 0.017522 0.000078 -0.005024 0.000000 -0.001459 0.000000
# 2 0.000078 0.018226 -0.006504 -0.000002 -0.000258 0.000003
# 3 -0.005024 -0.006504 0.014630 0.000001 -0.003943 -0.000001
# 4 0.000000 -0.000002 0.000001 0.048263 -0.000001 -0.000220
# 5 -0.001459 -0.000258 -0.003943 -0.000001 0.055249 -0.000005
# 6 0.000000 0.000003 -0.000001 -0.000220 -0.000005 0.052920
#
#
# Mechanical properties :
#
#
# Convention : Reuss Voigt Hill
#
# Bulk Modulus (GPa) = 36.39258 41.09536 38.74397
# Shear Modulus (GPa) = 20.93196 22.07362 21.50279
#
# Velocity S-wave (km/s) = 3.19344 3.27937 3.23669
# Velocity P-wave (km/s) = 5.59714 5.86180 5.73100
#
# Compressibility (1/GPa) = 0.02747813
#
# Stress axis : x y z
#
# Youngs Moduli (GPa) = 57.07055 54.86519 68.35472
#
# Poissons Ratio (x) = -0.00429 0.34342
# Poissons Ratio (y) = -0.00446 0.44459
# Poissons Ratio (z) = 0.28673 0.35685
#
# Static dielectric constant tensor:
#      x y z
#    x 1.700640 0.000000 -0.003200 
#    y 0.000000 1.723480 0.000000 
#    z -0.003200 0.000000 1.779920 
# 
# From -- ./inp_files/302928.got.cif
#   From: 2010.05.17/outbox.cif.g08.bks.cpg/sg15_152_cif.got.tgz:302928.got - 2010.06.03 18:47:42.
