data_PCOD9285336
_publ_section_title
;
Structure prediction by ZEFSAII (Michael W. Deem and Ramdas Pophale) SiO2 
 PCOD9285336
Probable space group: C 2/C
;
_chemical_formula_sum "Si O2"
_cell_formula_units_Z 48
_cell_length_a 16.179620
_cell_length_b 10.934666
_cell_length_c 27.249664
_cell_angle_alpha 90.000000
_cell_angle_beta 151.068940
_cell_angle_gamma 90.000000
_cell_volume 2332.180525
_symmetry_space_group_name_H-M "C 2/C"
_symmetry_group_IT_number 15
_symmetry_cell_setting 'monoclinic'
loop_
_space_group_symop_operation_xyz
x,y,z
-x,y,1/2-z
-x,-y,-z
x,-y,1/2+z
1/2+x,1/2+y,z
1/2-x,1/2+y,1/2-z
1/2-x,1/2-y,-z
1/2+x,1/2-y,1/2+z
loop_
_atom_site_type_symbol
_atom_site_label
_atom_site_fract_x
_atom_site_fract_y
_atom_site_fract_z
Si Si1 0.357140 0.403267 0.508042
Si Si2 0.829161 0.882208 0.689777
Si Si3 0.496009 0.197115 0.842104
Si Si4 0.743419 0.619715 0.790339
Si Si5 0.001725 0.263388 0.004262
Si Si6 0.416444 0.312837 0.062863
O O1 0.434766 0.313001 0.590191
O O2 0.156578 0.372466 0.403405
O O3 0.444150 0.359221 0.502735
O O4 0.384639 0.543753 0.535220
O O5 0.655964 0.858740 0.569555
O O6 0.000000 0.920223 0.750000
O O7 0.875521 0.752884 0.738075
O O8 0.797768 0.983756 0.714098
O O9 0.384343 0.117518 0.820864
O O10 0.830445 0.687214 0.881505
O O11 0.577731 0.688739 0.683488
O O12 0.034395 0.247767 0.963670
O O13 0.250000 0.250000 0.000000
#
# Coordination Sequence:
#
# PCOD9285336 Si02
#       6
#     8   8   8   8   8   8
#     4  10  22  44  66  97 134 174 224 283 332 412
#     4  12  23  42  71 102 136 177 232 286 343 409
#     4  10  21  41  70  97 128 177 225 274 345 402
#     4  11  26  42  69  99 142 174 225 289 337 408
#     4  11  25  45  67 103 134 182 230 279 350 412
#     4  12  27  44  69  98 141 184 229 282 351 405
#
# _framework density 20.581596999999999
#
# number of rings (size 3 to 8) (size 9 to 14) (size 15 to 20)
#    0.000    1.000    5.000    1.000    4.667    0.000 
#    0.000    1.667    0.000    0.000    0.000    0.000 
#    0.000    0.000    0.000    0.000    0.000    0.000 
#
# Total GULP energy -134176.572081 kJ/mol
# GULP energy per Si atom -5590.690503 kJ/mol
# Density = 2.053475 g / cm^3
# Si number density = 20.581597 Si / 1000 Ang^3
#
#
#
# Elastic Constant Matrix: (Units=GPa)
#
#
# Indices 1 2 3 4 5 6 
#
# 1 74.5117 34.6849 50.7322 -0.0001 15.7199 0.0000
# 2 34.6849 55.6586 37.4562 0.0001 13.0576 0.0000
# 3 50.7322 37.4562 165.8920 0.0005 -2.0036 0.0000
# 4 -0.0001 0.0001 0.0005 6.6085 0.0000 -1.0432
# 5 15.7199 13.0576 -2.0036 0.0000 29.2598 0.0000
# 6 0.0000 0.0000 0.0000 -1.0432 0.0000 32.3328
#
#
#
# Elastic Compliance Matrix: (Units=1/GPa)
#
#
# Indices 1 2 3 4 5 6 
#
# 1 0.022796 -0.008728 -0.005106 0.000001 -0.008702 0.000000
# 2 -0.008728 0.027757 -0.003694 0.000000 -0.007951 0.000000
# 3 -0.005106 -0.003694 0.008483 -0.000001 0.004972 0.000000
# 4 0.000001 0.000000 -0.000001 0.152096 0.000000 0.004907
# 5 -0.008702 -0.007951 0.004972 0.000000 0.042740 0.000000
# 6 0.000000 0.000000 0.000000 0.004907 0.000000 0.031087
#
#
# Mechanical properties :
#
#
# Convention : Reuss Voigt Hill
#
# Bulk Modulus (GPa) = 41.70068 60.20099 50.95083
# Shear Modulus (GPa) = 15.24351 25.18614 20.21482
#
# Velocity S-wave (km/s) = 2.72442 3.50197 3.13737
# Velocity P-wave (km/s) = 5.49561 6.75760 6.15901
#
# Compressibility (1/GPa) = 0.02398043
#
# Stress axis : x y z
#
# Youngs Moduli (GPa) = 43.86772 36.02682 117.87613
#
# Poissons Ratio (x) = 0.31446 0.60183
# Poissons Ratio (y) = 0.38290 0.43542
# Poissons Ratio (z) = 0.22397 0.13308
#
# Static dielectric constant tensor:
#      x y z
#    x 1.733420 0.000000 -0.007920 
#    y 0.000000 1.700020 0.000000 
#    z -0.007920 0.000000 1.770240 
# 
# From -- ./inp_files/152472.got.cif
#   From: 2010.05.17/outbox.cif.g08.bks.cpg/sg15_77_cif.got.tgz:152472.got - 2010.06.03 18:47:42.
