data_PCOD9285761
_publ_section_title
;
Structure prediction by ZEFSAII (Michael W. Deem and Ramdas Pophale) SiO2 
 PCOD9285761
Probable space group: C 2/C
;
_chemical_formula_sum "Si O2"
_cell_formula_units_Z 48
_cell_length_a 11.111870
_cell_length_b 15.127970
_cell_length_c 13.958388
_cell_angle_alpha 90.000000
_cell_angle_beta 66.747825
_cell_angle_gamma 90.000000
_cell_volume 2155.821610
_symmetry_space_group_name_H-M "C 2/C"
_symmetry_group_IT_number 15
_symmetry_cell_setting 'monoclinic'
loop_
_space_group_symop_operation_xyz
x,y,z
-x,y,1/2-z
-x,-y,-z
x,-y,1/2+z
1/2+x,1/2+y,z
1/2-x,1/2+y,1/2-z
1/2-x,1/2-y,-z
1/2+x,1/2-y,1/2+z
loop_
_atom_site_type_symbol
_atom_site_label
_atom_site_fract_x
_atom_site_fract_y
_atom_site_fract_z
Si Si1 0.135819 0.233094 0.259346
Si Si2 0.500000 0.007319 0.250000
Si Si3 0.653650 0.387766 0.335466
Si Si4 0.726404 0.952104 0.822965
Si Si5 0.500000 0.725880 0.750000
Si Si6 0.257935 0.689423 0.088929
Si Si7 0.267725 0.984700 0.455296
O O1 0.232759 0.314307 0.209605
O O2 0.199996 0.141031 0.205142
O O3 0.126348 0.219362 0.376860
O O4 0.000000 0.247134 0.250000
O O5 0.406665 0.051978 0.198295
O O6 0.395776 0.959363 0.351993
O O7 0.689756 0.470238 0.254763
O O8 0.528716 0.337933 0.331441
O O9 0.653709 0.425420 0.443158
O O10 0.708160 0.974161 0.940248
O O11 0.375498 0.785486 0.812766
O O12 0.259559 0.586968 0.061409
O O13 0.250000 0.750000 0.000000
#
# Coordination Sequence:
#
# PCOD9285761 Si02
#       7
#     8   4   8   8   4   8   8
#     4  11  25  45  66  97 143 175 220 283 341 399
#     4  10  21  42  66  95 132 172 225 282 326 405
#     4  10  24  42  67  98 135 178 225 279 334 403
#     4  11  24  43  68  99 136 179 223 279 341 400
#     4  10  23  44  70  97 140 178 227 286 330 403
#     4  11  23  45  71 100 134 182 231 278 335 403
#     4  11  22  41  69 100 130 178 227 273 343 396
#
# _framework density 22.265291999999999
#
# number of rings (size 3 to 8) (size 9 to 14) (size 15 to 20)
#    0.000    1.333    3.333    3.000    8.167    2.000 
#    3.000    2.500    0.000    0.000    0.000    0.000 
#    0.000    0.000    0.000    0.000    0.000    0.000 
#
# Total GULP energy -134078.479699 kJ/mol
# GULP energy per Si atom -5586.603321 kJ/mol
# Density = 2.221461 g / cm^3
# Si number density = 22.265292 Si / 1000 Ang^3
#
#
#
# Elastic Constant Matrix: (Units=GPa)
#
#
# Indices 1 2 3 4 5 6 
#
# 1 76.8658 16.8574 33.3300 0.0000 44.3518 0.0000
# 2 16.8574 138.8338 21.7809 0.0000 20.1004 0.0000
# 3 33.3300 21.7809 105.4640 0.0000 53.6365 0.0000
# 4 0.0000 0.0000 0.0000 30.6825 0.0000 9.6041
# 5 44.3518 20.1004 53.6365 0.0000 45.5866 0.0000
# 6 0.0000 0.0000 0.0000 9.6041 0.0000 32.0024
#
#
#
# Elastic Compliance Matrix: (Units=1/GPa)
#
#
# Indices 1 2 3 4 5 6 
#
# 1 0.039640 0.001077 0.017692 0.000000 -0.059857 0.000000
# 2 0.001077 0.007728 0.000821 0.000000 -0.005421 0.000000
# 3 0.017692 0.000821 0.031521 0.000000 -0.054661 0.000000
# 4 0.000000 0.000000 0.000000 0.035971 0.000000 -0.010795
# 5 -0.059857 -0.005421 -0.054661 0.000000 0.146876 0.000000
# 6 0.000000 0.000000 0.000000 -0.010795 0.000000 0.034487
#
#
# Mechanical properties :
#
#
# Convention : Reuss Voigt Hill
#
# Bulk Modulus (GPa) = 8.46965 51.67781 30.07373
# Shear Modulus (GPa) = 16.86914 38.26731 27.56823
#
# Velocity S-wave (km/s) = 2.75552 4.15022 3.52258
# Velocity P-wave (km/s) = 3.73310 6.79898 5.48462
#
# Compressibility (1/GPa) = 0.11806863
#
# Stress axis : x y z
#
# Youngs Moduli (GPa) = 25.22724 129.39624 31.72525
#
# Poissons Ratio (x) = -0.13942 -0.56128
# Poissons Ratio (y) = -0.02718 -0.02603
# Poissons Ratio (z) = -0.44632 -0.10618
#
# Static dielectric constant tensor:
#      x y z
#    x 1.879400 0.000000 -0.004790 
#    y 0.000000 1.819680 0.000000 
#    z -0.004790 0.000000 1.831580 
# 
# From -- ./inp_files/143487.got.cif
#   From: 2010.05.17/outbox.cif.g08.bks.cpg/sg15_72_cif.got.tgz:143487.got - 2010.06.03 18:47:42.
