data_PCOD9285060
_publ_section_title
;
Structure prediction by ZEFSAII (Michael W. Deem and Ramdas Pophale) SiO2 
 PCOD9285060
Probable space group: C 2/C
;
_chemical_formula_sum "Si O2"
_cell_formula_units_Z 60
_cell_length_a 11.449510
_cell_length_b 18.064903
_cell_length_c 23.406496
_cell_angle_alpha 90.000000
_cell_angle_beta 149.569186
_cell_angle_gamma 90.000000
_cell_volume 2452.089357
_symmetry_space_group_name_H-M "C 2/C"
_symmetry_group_IT_number 15
_symmetry_cell_setting 'monoclinic'
loop_
_space_group_symop_operation_xyz
x,y,z
-x,y,1/2-z
-x,-y,-z
x,-y,1/2+z
1/2+x,1/2+y,z
1/2-x,1/2+y,1/2-z
1/2-x,1/2-y,-z
1/2+x,1/2-y,1/2+z
loop_
_atom_site_type_symbol
_atom_site_label
_atom_site_fract_x
_atom_site_fract_y
_atom_site_fract_z
Si Si1 0.484614 0.406676 0.999405
Si Si2 0.628570 0.029872 0.920121
Si Si3 0.756159 0.734775 0.640803
Si Si4 0.000000 0.641309 0.250000
Si Si5 0.074568 0.665445 0.979289
Si Si6 0.211479 0.756228 0.251381
Si Si7 0.114094 0.923997 0.184395
Si Si8 0.835863 0.558454 0.960739
O O1 0.673053 0.452785 0.042431
O O2 0.567130 0.320752 0.036478
O O3 0.523972 0.425863 0.082169
O O4 0.224887 0.405156 0.864877
O O5 0.665267 0.097172 0.980714
O O6 0.370267 0.045303 0.790132
O O7 0.607585 0.953896 0.948157
O O8 0.770934 0.798649 0.600568
O O9 0.709567 0.765594 0.684029
O O10 0.000000 0.692975 0.750000
O O11 0.921095 0.695915 0.267648
O O12 0.951963 0.723457 0.884805
O O13 0.890998 0.633174 0.948936
O O14 0.108068 0.839247 0.203284
O O15 0.934726 0.962066 0.151739
O O16 0.000000 0.500000 0.000000
#
# Coordination Sequence:
#
# PCOD9285060 Si02
#       8
#     8   8   8   4   8   8   8   8
#     4  11  24  42  67  99 138 182 234 279 349 422
#     4  10  23  45  69  97 132 185 231 292 340 408
#     4  11  23  38  66 105 137 180 225 276 353 423
#     4  12  24  38  64  98 142 182 222 290 350 408
#     4  10  21  41  66  99 140 174 231 278 345 413
#     4  10  22  39  67  95 140 186 217 279 346 426
#     4  10  22  43  72  96 135 182 233 279 349 424
#     4  10  23  43  68  99 127 176 234 283 343 412
#
# _framework density 24.468928999999999
#
# number of rings (size 3 to 8) (size 9 to 14) (size 15 to 20)
#    0.000    1.600    1.333    3.600    3.733    6.933 
#    7.200    0.000    0.000    0.000    0.000    0.000 
#    0.000    0.000    0.000    0.000    0.000    0.000 
#
# Total GULP energy -167460.375720 kJ/mol
# GULP energy per Si atom -5582.012524 kJ/mol
# Density = 2.441324 g / cm^3
# Si number density = 24.468929 Si / 1000 Ang^3
#
#
#
# Elastic Constant Matrix: (Units=GPa)
#
#
# Indices 1 2 3 4 5 6 
#
# 1 134.2836 37.2893 63.3060 0.0000 3.2781 0.0001
# 2 37.2893 45.4849 47.8345 0.0000 -15.0351 0.0000
# 3 63.3060 47.8345 146.1629 -0.0011 3.6208 0.0007
# 4 0.0000 0.0000 -0.0011 39.7047 -0.0002 -5.4428
# 5 3.2781 -15.0351 3.6208 -0.0002 47.5499 -0.0001
# 6 0.0001 0.0000 0.0007 -5.4428 -0.0001 25.7211
#
#
#
# Elastic Compliance Matrix: (Units=1/GPa)
#
#
# Indices 1 2 3 4 5 6 
#
# 1 0.010561 -0.007460 -0.002060 0.000000 -0.002930 0.000000
# 2 -0.007460 0.046444 -0.012368 0.000000 0.016142 0.000000
# 3 -0.002060 -0.012368 0.011898 0.000000 -0.004675 0.000000
# 4 0.000000 0.000000 0.000000 0.025938 0.000000 0.005489
# 5 -0.002930 0.016142 -0.004675 0.000000 0.026692 0.000000
# 6 0.000000 0.000000 0.000000 0.005489 0.000000 0.040040
#
#
# Mechanical properties :
#
#
# Convention : Reuss Voigt Hill
#
# Bulk Modulus (GPa) = 39.80031 69.19899 54.49965
# Shear Modulus (GPa) = 23.39427 34.42857 28.91142
#
# Velocity S-wave (km/s) = 3.09541 3.75511 3.44111
# Velocity P-wave (km/s) = 5.39225 6.86607 6.17330
#
# Compressibility (1/GPa) = 0.02512543
#
# Stress axis : x y z
#
# Youngs Moduli (GPa) = 94.68463 21.53110 84.05040
#
# Poissons Ratio (x) = 0.16063 0.17316
# Poissons Ratio (y) = 0.70638 1.03958
# Poissons Ratio (z) = 0.19507 0.26631
#
# Static dielectric constant tensor:
#      x y z
#    x 2.028820 0.000000 0.050250 
#    y 0.000000 2.100570 0.000000 
#    z 0.050250 0.000000 1.970490 
# 
# From -- ./inp_files/271035.got.cif
#   From: 2010.05.17/outbox.cif.g08.bks.cpg/sg15_136_cif.got.tgz:271035.got - 2010.06.03 18:47:42.
