data_PCOD9285270
_publ_section_title
;
Structure prediction by ZEFSAII (Michael W. Deem and Ramdas Pophale) SiO2 
 PCOD9285270
Probable space group: C 2/C
;
_chemical_formula_sum "Si O2"
_cell_formula_units_Z 60
_cell_length_a 8.344896
_cell_length_b 21.079641
_cell_length_c 14.819312
_cell_angle_alpha 90.000000
_cell_angle_beta 96.309153
_cell_angle_gamma 90.000000
_cell_volume 2591.038345
_symmetry_space_group_name_H-M "C 2/C"
_symmetry_group_IT_number 15
_symmetry_cell_setting 'monoclinic'
loop_
_space_group_symop_operation_xyz
x,y,z
-x,y,1/2-z
-x,-y,-z
x,-y,1/2+z
1/2+x,1/2+y,z
1/2-x,1/2+y,1/2-z
1/2-x,1/2-y,-z
1/2+x,1/2-y,1/2+z
loop_
_atom_site_type_symbol
_atom_site_label
_atom_site_fract_x
_atom_site_fract_y
_atom_site_fract_z
Si Si1 0.222385 0.560705 0.842525
Si Si2 0.146887 0.519687 0.649038
Si Si3 0.695999 0.551533 0.033762
Si Si4 0.574840 0.754821 0.070433
Si Si5 0.389018 0.640816 0.985492
Si Si6 0.887106 0.329388 0.585216
Si Si7 0.500000 0.296606 0.750000
Si Si8 0.291662 0.127821 0.335759
O O1 0.233556 0.557574 0.735584
O O2 0.285340 0.625088 0.891379
O O3 0.038750 0.542810 0.859239
O O4 0.326052 0.505895 0.898459
O O5 0.224267 0.528957 0.555283
O O6 0.163763 0.445458 0.676908
O O7 0.536368 0.591559 0.004328
O O8 0.812633 0.601439 0.089944
O O9 0.752821 0.724284 0.092845
O O10 0.496943 0.747348 0.162471
O O11 0.470968 0.709454 0.997764
O O12 0.579286 0.821053 0.020293
O O13 0.281538 0.631555 0.067824
O O14 0.049028 0.329258 0.651913
O O15 0.345095 0.342846 0.736676
#
# Coordination Sequence:
#
# PCOD9285270 Si02
#       8
#     8   8   8   8   8   8   4   8
#     4  11  22  37  56  91 122 160 208 259 309 386
#     4  11  24  35  60  89 124 164 211 248 323 379
#     4  11  21  40  60  89 125 163 203 262 315 381
#     4   9  22  43  63  93 118 167 213 261 321 376
#     4  10  22  37  59  88 126 162 202 253 317 372
#     4  10  21  41  69  84 121 170 214 253 318 381
#     4  10  24  36  60  96 126 148 214 268 312 370
#     4  11  22  38  61  91 123 165 202 261 309 377
#
# _framework density 23.156742000000001
#
# number of rings (size 3 to 8) (size 9 to 14) (size 15 to 20)
#    0.000    1.600    2.667    1.600    5.600    3.200 
#    0.000    4.000    0.000    6.400    0.000    0.000 
#    0.000    0.000    0.000    0.000    0.000    0.000 
#
# Total GULP energy -167800.151354 kJ/mol
# GULP energy per Si atom -5593.338378 kJ/mol
# Density = 2.310404 g / cm^3
# Si number density = 23.156742 Si / 1000 Ang^3
#
#
#
# Elastic Constant Matrix: (Units=GPa)
#
#
# Indices 1 2 3 4 5 6 
#
# 1 68.6968 13.7431 17.5873 0.0000 14.1920 0.0000
# 2 13.7431 22.2086 -3.2404 0.0000 4.1374 0.0000
# 3 17.5873 -3.2404 75.1475 0.0000 3.1428 0.0000
# 4 0.0000 0.0000 0.0000 25.6550 0.0000 -2.2450
# 5 14.1920 4.1374 3.1428 0.0000 30.2843 0.0000
# 6 0.0000 0.0000 0.0000 -2.2450 0.0000 23.9185
#
#
#
# Elastic Compliance Matrix: (Units=1/GPa)
#
#
# Indices 1 2 3 4 5 6 
#
# 1 0.019537 -0.011464 -0.004770 0.000000 -0.007094 0.000000
# 2 -0.011464 0.053318 0.005084 0.000000 -0.002440 0.000000
# 3 -0.004770 0.005084 0.014642 0.000000 0.000021 0.000000
# 4 0.000000 0.000000 0.000000 0.039302 0.000000 0.003689
# 5 -0.007094 -0.002440 0.000021 0.000000 0.036676 0.000000
# 6 0.000000 0.000000 0.000000 0.003689 0.000000 0.042155
#
#
# Mechanical properties :
#
#
# Convention : Reuss Voigt Hill
#
# Bulk Modulus (GPa) = 15.33814 24.69254 20.01534
# Shear Modulus (GPa) = 20.02709 25.16910 22.59810
#
# Velocity S-wave (km/s) = 2.94402 3.30040 3.12729
# Velocity P-wave (km/s) = 4.26548 5.02094 4.65855
#
# Compressibility (1/GPa) = 0.06519696
#
# Stress axis : x y z
#
# Youngs Moduli (GPa) = 51.18496 18.75533 68.29732
#
# Poissons Ratio (x) = 0.21501 0.32578
# Poissons Ratio (y) = 0.58679 -0.34724
# Poissons Ratio (z) = 0.24415 -0.09536
#
# Static dielectric constant tensor:
#      x y z
#    x 1.934930 0.000000 -0.006150 
#    y 0.000000 1.840220 0.000000 
#    z -0.006150 0.000000 1.863460 
# 
# From -- ./inp_files/137891.got.cif
#   From: 2010.05.17/outbox.cif.g08.bks.cpg/sg15_69_cif.got.tgz:137891.got - 2010.06.03 18:47:42.
