data_PCOD9285889
_publ_section_title
;
Structure prediction by ZEFSAII (Michael W. Deem and Ramdas Pophale) SiO2 
 PCOD9285889
Probable space group: C 2/C
;
_chemical_formula_sum "Si O2"
_cell_formula_units_Z 36
_cell_length_a 24.105607
_cell_length_b 4.912708
_cell_length_c 12.672156
_cell_angle_alpha 90.000000
_cell_angle_beta 67.951724
_cell_angle_gamma 90.000000
_cell_volume 1390.936717
_symmetry_space_group_name_H-M "C 2/C"
_symmetry_group_IT_number 15
_symmetry_cell_setting 'monoclinic'
loop_
_space_group_symop_operation_xyz
x,y,z
-x,y,1/2-z
-x,-y,-z
x,-y,1/2+z
1/2+x,1/2+y,z
1/2-x,1/2+y,1/2-z
1/2-x,1/2-y,-z
1/2+x,1/2-y,1/2+z
loop_
_atom_site_type_symbol
_atom_site_label
_atom_site_fract_x
_atom_site_fract_y
_atom_site_fract_z
Si Si1 0.720471 0.946419 0.218751
Si Si2 0.664159 0.188122 0.073311
Si Si3 0.000000 0.739215 0.750000
Si Si4 0.899581 0.150761 0.471843
Si Si5 0.592965 0.116023 0.311858
O O1 0.754277 0.667751 0.216646
O O2 0.720969 0.072580 0.098920
O O3 0.649714 0.916404 0.292275
O O4 0.651302 0.420954 0.998058
O O5 0.625294 0.301440 0.200762
O O6 0.630964 0.922069 0.053213
O O7 0.042494 0.906873 0.641405
O O8 0.039282 0.547055 0.798428
O O9 0.920704 0.219010 0.574103
#
# Coordination Sequence:
#
# PCOD9285889 Si02
#       5
#     8   8   4   8   8
#     4  10  21  42  68  89 130 170 209 269 319 369
#     4   9  23  39  64  90 135 156 218 261 312 374
#     4  10  22  42  68  96 136 166 210 272 312 390
#     4  11  21  42  63  99 125 173 207 266 317 389
#     4   9  23  41  68  93 133 166 218 254 332 372
#
# _framework density 25.88184
#
# number of rings (size 3 to 8) (size 9 to 14) (size 15 to 20)
#    1.333    0.889    0.000    2.000    0.000    8.889 
#    0.000   13.333    0.000    0.000    0.000    0.000 
#    0.000    0.000    0.000    0.000    0.000    0.000 
#
# Total GULP energy -100527.393962 kJ/mol
# GULP energy per Si atom -5584.855220 kJ/mol
# Density = 2.582293 g / cm^3
# Si number density = 25.881840 Si / 1000 Ang^3
#
#
#
# Elastic Constant Matrix: (Units=GPa)
#
#
# Indices 1 2 3 4 5 6 
#
# 1 168.5828 30.5444 25.7122 0.0000 19.2847 0.0000
# 2 30.5444 88.6199 1.9638 0.0000 13.0724 0.0000
# 3 25.7122 1.9638 88.1443 0.0000 26.1450 0.0000
# 4 0.0000 0.0000 0.0000 14.5090 0.0000 20.9493
# 5 19.2847 13.0724 26.1450 0.0000 31.4887 0.0000
# 6 0.0000 0.0000 0.0000 20.9493 0.0000 21.5030
#
#
#
# Elastic Compliance Matrix: (Units=1/GPa)
#
#
# Indices 1 2 3 4 5 6 
#
# 1 0.006737 -0.001958 -0.001246 0.000000 -0.002279 0.000000
# 2 -0.001958 0.012764 0.001994 0.000000 -0.005755 0.000000
# 3 -0.001246 0.001994 0.015501 0.000000 -0.012935 0.000000
# 4 0.000000 0.000000 0.000000 -0.169469 0.000000 0.165105
# 5 -0.002279 -0.005755 -0.012935 0.000000 0.046282 0.000000
# 6 0.000000 0.000000 0.000000 0.165105 0.000000 -0.114348
#
#
# Mechanical properties :
#
#
# Convention : Reuss Voigt Hill
#
# Bulk Modulus (GPa) = 30.69221 51.30976 41.00099
# Shear Modulus (GPa) = -26.41979 32.64192 3.11107
#
# Velocity S-wave (km/s) = -3.19844 3.55518 1.09756
# Velocity P-wave (km/s) = 1.32502 6.05971 4.18117
#
# Compressibility (1/GPa) = 0.03258155
#
# Stress axis : x y z
#
# Youngs Moduli (GPa) = 148.42718 78.34610 64.51296
#
# Poissons Ratio (x) = 0.15343 0.08037
# Poissons Ratio (y) = 0.29068 -0.12863
# Poissons Ratio (z) = 0.18490 -0.15622
#
# Static dielectric constant tensor:
#      x y z
#    x 2.080150 0.000000 -0.039130 
#    y 0.000000 1.959930 0.000000 
#    z -0.039130 0.000000 2.145740 
# 
# From -- ./inp_files/175029.got.cif
#   From: 2010.05.17/outbox.cif.g08.bks.cpg/sg15_88_cif.got.tgz:175029.got - 2010.06.03 18:47:42.
