data_PCOD9285519
_publ_section_title
;
Structure prediction by ZEFSAII (Michael W. Deem and Ramdas Pophale) SiO2 
 PCOD9285519
Probable space group: C 2/C
;
_chemical_formula_sum "Si O2"
_cell_formula_units_Z 52
_cell_length_a 6.494274
_cell_length_b 13.931935
_cell_length_c 27.430111
_cell_angle_alpha 90.000000
_cell_angle_beta 70.801439
_cell_angle_gamma 90.000000
_cell_volume 2343.789059
_symmetry_space_group_name_H-M "C 2/C"
_symmetry_group_IT_number 15
_symmetry_cell_setting 'monoclinic'
loop_
_space_group_symop_operation_xyz
x,y,z
-x,y,1/2-z
-x,-y,-z
x,-y,1/2+z
1/2+x,1/2+y,z
1/2-x,1/2+y,1/2-z
1/2-x,1/2-y,-z
1/2+x,1/2-y,1/2+z
loop_
_atom_site_type_symbol
_atom_site_label
_atom_site_fract_x
_atom_site_fract_y
_atom_site_fract_z
Si Si1 0.919217 0.522611 0.671386
Si Si2 0.323503 0.842149 0.625172
Si Si3 0.667474 0.553446 0.041200
Si Si4 0.000000 0.123067 0.750000
Si Si5 0.799032 0.193989 0.046381
Si Si6 0.188197 0.674309 0.697656
Si Si7 0.934663 0.607518 0.561725
O O1 0.866084 0.411501 0.668004
O O2 0.707897 0.565177 0.714612
O O3 0.948097 0.561908 0.614076
O O4 0.124421 0.566918 0.684624
O O5 0.196733 0.893314 0.590985
O O6 0.564032 0.825400 0.586235
O O7 0.206697 0.745902 0.651384
O O8 0.444056 0.596958 0.036730
O O9 0.725077 0.443591 0.051725
O O10 0.858329 0.583156 0.988483
O O11 0.088207 0.178811 0.789987
O O12 0.917279 0.278546 0.066952
O O13 0.750000 0.250000 0.000000
O O14 0.000000 0.704762 0.750000
#
# Coordination Sequence:
#
# PCOD9285519 Si02
#       7
#     8   8   8   4   8   8   8
#     4  10  23  41  67  92 126 167 215 269 330 394
#     4  11  24  41  64 100 125 172 218 259 335 391
#     4  10  23  42  60  92 135 169 221 261 325 390
#     4  10  22  46  64  92 120 164 210 266 346 382
#     4  12  24  36  60  94 129 174 216 262 317 389
#     4  10  23  44  68  95 128 165 216 282 331 396
#     4  10  21  42  63  90 130 176 209 274 323 383
#
# _framework density 22.186297
#
# number of rings (size 3 to 8) (size 9 to 14) (size 15 to 20)
#    0.000    1.538    1.538    2.308    3.231    5.538 
#    4.154    0.000    0.000    0.000    0.000    0.000 
#    0.000    0.000    0.000    0.000    0.000    0.000 
#
# Total GULP energy -145142.115587 kJ/mol
# GULP energy per Si atom -5582.389061 kJ/mol
# Density = 2.213580 g / cm^3
# Si number density = 22.186297 Si / 1000 Ang^3
#
#
#
# Elastic Constant Matrix: (Units=GPa)
#
#
# Indices 1 2 3 4 5 6 
#
# 1 73.8062 18.0806 25.6578 0.0000 15.8050 0.0000
# 2 18.0806 67.4516 1.5950 0.0000 4.4960 0.0000
# 3 25.6578 1.5950 63.0619 -0.0001 13.0369 -0.0001
# 4 0.0000 0.0000 -0.0001 313.4448 0.0000 215.4952
# 5 15.8050 4.4960 13.0369 0.0000 30.9143 0.0000
# 6 0.0000 0.0000 -0.0001 215.4952 0.0000 186.6611
#
#
#
# Elastic Compliance Matrix: (Units=1/GPa)
#
#
# Indices 1 2 3 4 5 6 
#
# 1 0.017959 -0.004270 -0.005948 0.000000 -0.006052 0.000000
# 2 -0.004270 0.015986 0.001492 0.000000 -0.000771 0.000000
# 3 -0.005948 0.001492 0.019342 0.000000 -0.005333 0.000000
# 4 0.000000 0.000000 0.000000 0.015465 0.000000 -0.017854
# 5 -0.006052 -0.000771 -0.005333 0.000000 0.037803 0.000000
# 6 0.000000 0.000000 0.000000 -0.017854 0.000000 0.025969
#
#
# Mechanical properties :
#
#
# Convention : Reuss Voigt Hill
#
# Bulk Modulus (GPa) = 27.90428 32.77627 30.34027
# Shear Modulus (GPa) = 30.87944 116.80312 73.84128
#
# Velocity S-wave (km/s) = 3.73476 7.26366 5.77535
# Velocity P-wave (km/s) = 5.58592 9.22784 7.62743
#
# Compressibility (1/GPa) = 0.03583680
#
# Stress axis : x y z
#
# Youngs Moduli (GPa) = 55.68346 62.55438 51.70067
#
# Poissons Ratio (x) = 0.26709 0.30749
# Poissons Ratio (y) = 0.23776 -0.07716
# Poissons Ratio (z) = 0.33118 -0.09335
#
# Static dielectric constant tensor:
#      x y z
#    x 1.870550 0.000000 0.072830 
#    y 0.000000 1.811750 0.000000 
#    z 0.072830 0.000000 1.808780 
# 
# From -- ./inp_files/285783.got.cif
#   From: 2010.05.17/outbox.cif.g08.bks.cpg/sg15_143_cif.got.tgz:285783.got - 2010.06.03 18:47:42.
