data_PCOD9285865
_publ_section_title
;
Structure prediction by ZEFSAII (Michael W. Deem and Ramdas Pophale) SiO2 
 PCOD9285865
Probable space group: C 2/C
;
_chemical_formula_sum "Si O2"
_cell_formula_units_Z 60
_cell_length_a 18.228073
_cell_length_b 7.731286
_cell_length_c 14.905304
_cell_angle_alpha 90.000000
_cell_angle_beta 93.117788
_cell_angle_gamma 90.000000
_cell_volume 2097.442346
_symmetry_space_group_name_H-M "C 2/C"
_symmetry_group_IT_number 15
_symmetry_cell_setting 'monoclinic'
loop_
_space_group_symop_operation_xyz
x,y,z
-x,y,1/2-z
-x,-y,-z
x,-y,1/2+z
1/2+x,1/2+y,z
1/2-x,1/2+y,1/2-z
1/2-x,1/2-y,-z
1/2+x,1/2-y,1/2+z
loop_
_atom_site_type_symbol
_atom_site_label
_atom_site_fract_x
_atom_site_fract_y
_atom_site_fract_z
Si Si1 0.060054 0.276577 0.551204
Si Si2 0.000000 0.187744 0.250000
Si Si3 0.251222 0.589028 0.678740
Si Si4 0.125576 0.956883 0.205211
Si Si5 0.404216 0.989310 0.293534
Si Si6 0.244011 0.911111 0.581480
Si Si7 0.850672 0.928167 0.570093
Si Si8 0.405219 0.178767 0.108819
O O1 0.104238 0.416940 0.611524
O O2 0.090287 0.212893 0.457821
O O3 0.976935 0.341900 0.552006
O O4 0.073018 0.115146 0.622717
O O5 0.069250 0.059165 0.266495
O O6 0.041232 0.327201 0.189680
O O7 0.320492 0.674733 0.736725
O O8 0.178196 0.573851 0.729433
O O9 0.236869 0.700228 0.586572
O O10 0.291960 0.414849 0.646611
O O11 0.192110 0.062750 0.165996
O O12 0.428661 0.109222 0.210281
O O13 0.331643 0.929979 0.584791
O O14 0.203804 0.050126 0.517824
O O15 0.886817 0.119802 0.583410
#
# Coordination Sequence:
#
# PCOD9285865 Si02
#       8
#     8   4   8   8   8   8   8   8
#     4  11  24  41  67 102 133 178 225 287 342 409
#     4  12  26  42  62 106 140 172 214 302 348 388
#     4  11  22  42  68  94 134 179 230 275 335 412
#     4  11  25  40  70 101 136 173 236 283 335 407
#     4  12  24  42  71  97 138 177 227 285 350 402
#     4  10  21  42  67  99 131 182 222 277 338 409
#     4  10  24  42  68  98 135 179 232 280 337 416
#     4  11  20  40  69  96 131 179 225 275 338 407
#
# _framework density 28.606269000000001
#
# number of rings (size 3 to 8) (size 9 to 14) (size 15 to 20)
#    0.000    1.067    4.000    3.600    5.600    0.533 
#    0.000    0.000    2.933    7.200    0.000    0.000 
#    0.000    0.000    0.000    0.000    0.000    0.000 
#
# Total GULP energy -167174.862768 kJ/mol
# GULP energy per Si atom -5572.495426 kJ/mol
# Density = 2.854116 g / cm^3
# Si number density = 28.606269 Si / 1000 Ang^3
#
#
#
# Elastic Constant Matrix: (Units=GPa)
#
#
# Indices 1 2 3 4 5 6 
#
# 1 227.1554 50.5819 39.4204 0.0000 -13.2769 0.0000
# 2 50.5819 85.0192 17.1955 0.0000 -8.0114 0.0000
# 3 39.4204 17.1955 68.3338 0.0000 -16.6079 0.0000
# 4 0.0000 0.0000 0.0000 37.6837 0.0000 -8.2082
# 5 -13.2769 -8.0114 -16.6079 0.0000 40.8140 0.0000
# 6 0.0000 0.0000 0.0000 -8.2082 0.0000 47.8443
#
#
#
# Elastic Compliance Matrix: (Units=1/GPa)
#
#
# Indices 1 2 3 4 5 6 
#
# 1 0.005440 -0.002729 -0.002388 0.000000 0.000262 0.000000
# 2 -0.002729 0.013823 -0.001621 0.000000 0.001166 0.000000
# 3 -0.002388 -0.001621 0.017926 0.000000 0.006200 0.000000
# 4 0.000000 0.000000 0.000000 0.027567 0.000000 0.004729
# 5 0.000262 0.001166 0.006200 0.000000 0.027338 0.000000
# 6 0.000000 0.000000 0.000000 0.004729 0.000000 0.021713
#
#
# Mechanical properties :
#
#
# Convention : Reuss Voigt Hill
#
# Bulk Modulus (GPa) = 42.16837 66.10043 54.13440
# Shear Modulus (GPa) = 36.98619 43.48909 40.23764
#
# Velocity S-wave (km/s) = 3.59965 3.90329 3.75454
# Velocity P-wave (km/s) = 5.66124 6.59328 6.14495
#
# Compressibility (1/GPa) = 0.02371446
#
# Stress axis : x y z
#
# Youngs Moduli (GPa) = 183.83911 72.34234 55.78480
#
# Poissons Ratio (x) = 0.19739 0.13319
# Poissons Ratio (y) = 0.50163 0.09042
# Poissons Ratio (z) = 0.43893 0.11726
#
# Static dielectric constant tensor:
#      x y z
#    x 2.184220 0.000000 0.020050 
#    y 0.000000 2.341850 0.000000 
#    z 0.020050 0.000000 2.535390 
# 
# From -- ./inp_files/209589.got.cif
#   From: 2010.05.17/outbox.cif.g08.bks.cpg/sg15_105_cif.got.tgz:209589.got - 2010.06.03 18:47:42.
