data_PCOD9285786
_publ_section_title
;
Structure prediction by ZEFSAII (Michael W. Deem and Ramdas Pophale) SiO2 
 PCOD9285786
Probable space group: C 2/C
;
_chemical_formula_sum "Si O2"
_cell_formula_units_Z 40
_cell_length_a 5.108911
_cell_length_b 18.274722
_cell_length_c 23.364994
_cell_angle_alpha 90.000000
_cell_angle_beta 54.000150
_cell_angle_gamma 90.000000
_cell_volume 1764.831556
_symmetry_space_group_name_H-M "C 2/C"
_symmetry_group_IT_number 15
_symmetry_cell_setting 'monoclinic'
loop_
_space_group_symop_operation_xyz
x,y,z
-x,y,1/2-z
-x,-y,-z
x,-y,1/2+z
1/2+x,1/2+y,z
1/2-x,1/2+y,1/2-z
1/2-x,1/2-y,-z
1/2+x,1/2-y,1/2+z
loop_
_atom_site_type_symbol
_atom_site_label
_atom_site_fract_x
_atom_site_fract_y
_atom_site_fract_z
Si Si1 0.399465 0.508518 0.080291
Si Si2 0.135031 0.800479 0.317443
Si Si3 0.345932 0.699736 0.551354
Si Si4 0.670206 0.079752 0.884780
Si Si5 0.839038 0.178453 0.097550
O O1 0.656724 0.467627 0.088037
O O2 0.365401 0.592732 0.103180
O O3 0.044569 0.471843 0.128051
O O4 0.500000 0.500000 0.000000
O O5 0.500000 0.797145 0.250000
O O6 0.116671 0.817511 0.387434
O O7 0.928247 0.868123 0.320288
O O8 0.949503 0.723046 0.335198
O O9 0.659235 0.691649 0.471572
O O10 0.093002 0.639180 0.559090
O O11 0.159840 0.776414 0.572649
#
# Coordination Sequence:
#
# PCOD9285786 Si02
#       5
#     8   8   8   8   8
#     4  12  23  39  68 104 140 170 214 281 348 398
#     4  11  24  45  69  93 134 186 231 274 332 413
#     4  10  21  42  66  99 132 173 228 277 336 397
#     4  11  23  41  65  98 132 177 219 271 338 399
#     4  10  23  37  69 101 134 170 223 284 336 397
#
# _framework density 22.665054000000001
#
# number of rings (size 3 to 8) (size 9 to 14) (size 15 to 20)
#    0.000    1.200    4.000    1.200    2.800    4.800 
#    0.000    2.000    0.000    0.000    0.000    0.000 
#    0.000    0.000    0.000    0.000    0.000    0.000 
#
# Total GULP energy -111747.038762 kJ/mol
# GULP energy per Si atom -5587.351938 kJ/mol
# Density = 2.261347 g / cm^3
# Si number density = 22.665054 Si / 1000 Ang^3
#
#
#
# Elastic Constant Matrix: (Units=GPa)
#
#
# Indices 1 2 3 4 5 6 
#
# 1 111.6880 58.1791 18.1821 0.0000 -12.8655 0.0000
# 2 58.1791 220.6529 31.4439 0.0000 -31.1991 0.0000
# 3 18.1821 31.4439 100.1354 0.0000 -27.3284 0.0000
# 4 0.0000 0.0000 0.0000 8.5628 0.0000 -15.0897
# 5 -12.8655 -31.1991 -27.3284 0.0000 40.9428 0.0000
# 6 0.0000 0.0000 0.0000 -15.0897 0.0000 32.2598
#
#
#
# Elastic Compliance Matrix: (Units=1/GPa)
#
#
# Indices 1 2 3 4 5 6 
#
# 1 0.010509 -0.002533 -0.000903 0.000000 0.000769 0.000000
# 2 -0.002533 0.005726 -0.000446 0.000000 0.003270 0.000000
# 3 -0.000903 -0.000446 0.012374 0.000000 0.007636 0.000000
# 4 0.000000 0.000000 0.000000 0.664690 0.000000 0.310914
# 5 0.000769 0.003270 0.007636 0.000000 0.032255 0.000000
# 6 0.000000 0.000000 0.000000 0.310914 0.000000 0.176430
#
#
# Mechanical properties :
#
#
# Convention : Reuss Voigt Hill
#
# Bulk Modulus (GPa) = 47.97214 72.00959 59.99086
# Shear Modulus (GPa) = 5.45437 37.99782 21.72610
#
# Velocity S-wave (km/s) = 1.55298 4.09894 3.09944
# Velocity P-wave (km/s) = 4.94240 7.36491 6.27173
#
# Compressibility (1/GPa) = 0.02084543
#
# Stress axis : x y z
#
# Youngs Moduli (GPa) = 95.15887 174.64802 80.81197
#
# Poissons Ratio (x) = 0.44246 0.07295
# Poissons Ratio (y) = 0.24108 0.03601
# Poissons Ratio (z) = 0.08590 0.07783
#
# Static dielectric constant tensor:
#      x y z
#    x 2.364980 0.000000 -0.125440 
#    y 0.000000 1.885000 0.000000 
#    z -0.125440 0.000000 1.919610 
# 
# From -- ./inp_files/260804.got.cif
#   From: 2010.05.17/outbox.cif.g08.bks.cpg/sg15_131_cif.got.tgz:260804.got - 2010.06.03 18:47:42.
