data_PCOD9285636
_publ_section_title
;
Structure prediction by ZEFSAII (Michael W. Deem and Ramdas Pophale) SiO2 
 PCOD9285636
Probable space group: C 2/C
;
_chemical_formula_sum "Si O2"
_cell_formula_units_Z 56
_cell_length_a 21.985438
_cell_length_b 12.109468
_cell_length_c 8.926574
_cell_angle_alpha 90.000000
_cell_angle_beta 71.050361
_cell_angle_gamma 90.000000
_cell_volume 2247.741239
_symmetry_space_group_name_H-M "C 2/C"
_symmetry_group_IT_number 15
_symmetry_cell_setting 'monoclinic'
loop_
_space_group_symop_operation_xyz
x,y,z
-x,y,1/2-z
-x,-y,-z
x,-y,1/2+z
1/2+x,1/2+y,z
1/2-x,1/2+y,1/2-z
1/2-x,1/2-y,-z
1/2+x,1/2-y,1/2+z
loop_
_atom_site_type_symbol
_atom_site_label
_atom_site_fract_x
_atom_site_fract_y
_atom_site_fract_z
Si Si1 0.054625 0.646692 0.410650
Si Si2 0.823691 0.649268 0.033138
Si Si3 0.500000 0.036744 0.750000
Si Si4 0.229447 0.416307 0.405141
Si Si5 0.500000 0.674712 0.750000
Si Si6 0.822980 0.987782 0.591178
Si Si7 0.183378 0.773784 0.757245
Si Si8 0.453922 0.531966 0.399309
O O1 0.127709 0.680576 0.374903
O O2 0.047933 0.546312 0.299161
O O3 0.013724 0.747484 0.378685
O O4 0.030737 0.607046 0.592094
O O5 0.819938 0.516441 0.027787
O O6 0.752855 0.686058 0.140435
O O7 0.843300 0.702440 0.859115
O O8 0.281889 0.428197 0.494279
O O9 0.270493 0.442587 0.222974
O O10 0.193053 0.304034 0.394210
O O11 0.556760 0.587272 0.674930
O O12 0.850481 0.888370 0.672129
O O13 0.882274 0.065060 0.496675
O O14 0.500000 0.599358 0.250000
O O15 0.500000 0.500000 0.500000
#
# Coordination Sequence:
#
# PCOD9285636 Si02
#       8
#     8   8   4   8   4   8   8   8
#     4  10  21  42  65  88 130 161 205 265 311 375
#     4  10  23  40  63  94 131 168 203 270 316 382
#     4   9  22  40  63  96 118 166 211 248 316 381
#     4  11  22  42  64  98 128 168 215 257 330 388
#     4   9  24  44  59  96 124 160 217 258 316 375
#     4  11  23  40  69  92 132 174 204 277 319 377
#     4  10  23  41  59 103 128 161 223 249 324 391
#     4  10  23  45  63  94 122 165 223 263 314 379
#
# _framework density 24.913900000000002
#
# number of rings (size 3 to 8) (size 9 to 14) (size 15 to 20)
#    0.429    1.429    1.429    1.286    4.000    1.143 
#    9.000    0.000    0.000    0.000    0.000    0.000 
#    0.000    0.000    0.000    0.000    0.000    0.000 
#
# Total GULP energy -156571.266391 kJ/mol
# GULP energy per Si atom -5591.830943 kJ/mol
# Density = 2.485720 g / cm^3
# Si number density = 24.913900 Si / 1000 Ang^3
#
#
#
# Elastic Constant Matrix: (Units=GPa)
#
#
# Indices 1 2 3 4 5 6 
#
# 1 66.4881 3.6398 19.8521 0.0000 10.4834 0.0000
# 2 3.6398 99.6041 11.7818 0.0000 -1.8568 0.0000
# 3 19.8521 11.7818 94.0091 0.0000 12.8392 0.0000
# 4 0.0000 0.0000 0.0000 16.4986 0.0000 10.2194
# 5 10.4834 -1.8568 12.8392 0.0000 31.3007 0.0000
# 6 0.0000 0.0000 0.0000 10.2194 0.0000 16.7344
#
#
#
# Elastic Compliance Matrix: (Units=1/GPa)
#
#
# Indices 1 2 3 4 5 6 
#
# 1 0.016609 -0.000351 -0.002861 0.000000 -0.004410 0.000000
# 2 -0.000351 0.010241 -0.001386 0.000000 0.001293 0.000000
# 3 -0.002861 -0.001386 0.011966 0.000000 -0.004032 0.000000
# 4 0.000000 0.000000 0.000000 0.097487 0.000000 -0.059533
# 5 -0.004410 0.001293 -0.004032 0.000000 0.035156 0.000000
# 6 0.000000 0.000000 0.000000 -0.059533 0.000000 0.096113
#
#
# Mechanical properties :
#
#
# Convention : Reuss Voigt Hill
#
# Bulk Modulus (GPa) = 33.76115 36.73875 35.24995
# Shear Modulus (GPa) = 17.44349 27.89525 22.66937
#
# Velocity S-wave (km/s) = 2.64891 3.34977 3.01974
# Velocity P-wave (km/s) = 4.78917 5.45340 5.13204
#
# Compressibility (1/GPa) = 0.02961985
#
# Stress axis : x y z
#
# Youngs Moduli (GPa) = 60.20797 97.65032 83.57110
#
# Poissons Ratio (x) = 0.03425 0.23911
# Poissons Ratio (y) = 0.02112 0.11583
# Poissons Ratio (z) = 0.17226 0.13534
#
# Static dielectric constant tensor:
#      x y z
#    x 2.049600 0.000000 -0.008500 
#    y 0.000000 1.988510 0.000000 
#    z -0.008500 0.000000 2.065170 
# 
# From -- ./inp_files/61509.got.cif
#   From: 2010.05.17/outbox.cif.g08.bks.cpg/sg15_31_cif.got.tgz:61509.got - 2010.06.03 18:47:42.
