data_PCOD9285528
_publ_section_title
;
Structure prediction by ZEFSAII (Michael W. Deem and Ramdas Pophale) SiO2 
 PCOD9285528
Probable space group: C 2/C
;
_chemical_formula_sum "Si O2"
_cell_formula_units_Z 48
_cell_length_a 18.085740
_cell_length_b 14.159583
_cell_length_c 13.231268
_cell_angle_alpha 90.000000
_cell_angle_beta 35.346373
_cell_angle_gamma 90.000000
_cell_volume 1960.221183
_symmetry_space_group_name_H-M "C 2/C"
_symmetry_group_IT_number 15
_symmetry_cell_setting 'monoclinic'
loop_
_space_group_symop_operation_xyz
x,y,z
-x,y,1/2-z
-x,-y,-z
x,-y,1/2+z
1/2+x,1/2+y,z
1/2-x,1/2+y,1/2-z
1/2-x,1/2-y,-z
1/2+x,1/2-y,1/2+z
loop_
_atom_site_type_symbol
_atom_site_label
_atom_site_fract_x
_atom_site_fract_y
_atom_site_fract_z
Si Si1 0.552173 0.873029 0.841687
Si Si2 0.952071 0.824468 0.481768
Si Si3 0.822892 0.951327 0.463630
Si Si4 0.219519 0.460063 0.377633
Si Si5 0.870413 0.126508 0.528399
Si Si6 0.808886 0.328772 0.621033
O O1 0.528733 0.762374 0.846808
O O2 0.678189 0.923673 0.659674
O O3 0.575230 0.864224 0.936451
O O4 0.425635 0.926810 0.949487
O O5 0.915574 0.897727 0.436421
O O6 0.809772 0.792715 0.677806
O O7 0.016701 0.864470 0.512848
O O8 0.814294 0.920269 0.357050
O O9 0.864618 0.058821 0.438480
O O10 0.264420 0.424210 0.218603
O O11 0.229954 0.572315 0.383408
O O12 0.847568 0.234520 0.520086
#
# Coordination Sequence:
#
# PCOD9285528 Si02
#       6
#     8   8   8   8   8   8
#     4  10  21  42  65  91 128 163 207 267 310 375
#     4  10  21  42  63  93 125 167 211 255 318 374
#     4  11  25  40  63  96 130 165 210 264 316 377
#     4  12  23  40  65  93 127 166 212 258 321 371
#     4  11  23  42  65  89 129 167 209 264 313 380
#     4  10  22  40  68  91 122 174 210 257 314 377
#
# _framework density 24.487033
#
# number of rings (size 3 to 8) (size 9 to 14) (size 15 to 20)
#    0.000    1.333    5.000    1.500    0.000    2.000 
#    6.000    0.000    0.000    0.000    0.000    0.000 
#    0.000    0.000    0.000    0.000    0.000    0.000 
#
# Total GULP energy -133956.392485 kJ/mol
# GULP energy per Si atom -5581.516354 kJ/mol
# Density = 2.443130 g / cm^3
# Si number density = 24.487033 Si / 1000 Ang^3
#
#
#
# Elastic Constant Matrix: (Units=GPa)
#
#
# Indices 1 2 3 4 5 6 
#
# 1 84.8555 39.2842 33.3771 0.0000 -25.3644 0.0000
# 2 39.2842 146.9981 19.8807 0.0000 -18.0058 0.0000
# 3 33.3771 19.8807 60.7226 0.0000 -35.7346 0.0000
# 4 0.0000 0.0000 0.0000 11.7751 0.0000 -20.0139
# 5 -25.3644 -18.0058 -35.7346 0.0000 35.0170 0.0000
# 6 0.0000 0.0000 0.0000 -20.0139 0.0000 16.5516
#
#
#
# Elastic Compliance Matrix: (Units=1/GPa)
#
#
# Indices 1 2 3 4 5 6 
#
# 1 0.016852 -0.003156 -0.005010 0.000000 0.005471 0.000000
# 2 -0.003156 0.007856 0.000487 0.000000 0.002251 0.000000
# 3 -0.005010 0.000487 0.042745 0.000000 0.040242 0.000000
# 4 0.000000 0.000000 0.000000 -0.080481 0.000000 -0.097316
# 5 0.005471 0.002251 0.040242 0.000000 0.074745 0.000000
# 6 0.000000 0.000000 0.000000 -0.097316 0.000000 -0.057256
#
#
# Mechanical properties :
#
#
# Convention : Reuss Voigt Hill
#
# Bulk Modulus (GPa) = 19.19551 53.07334 36.13442
# Shear Modulus (GPa) = 134.47042 26.00434 80.23738
#
# Velocity S-wave (km/s) = 7.41850 3.26231 5.73048
# Velocity P-wave (km/s) = 9.01304 5.99261 7.65331
#
# Compressibility (1/GPa) = 0.05209551
#
# Stress axis : x y z
#
# Youngs Moduli (GPa) = 59.34113 127.29154 23.39468
#
# Poissons Ratio (x) = 0.40170 0.11720
# Poissons Ratio (y) = 0.18727 -0.01140
# Poissons Ratio (z) = 0.29729 -0.06201
#
# Static dielectric constant tensor:
#      x y z
#    x 1.966140 0.000000 -0.031830 
#    y 0.000000 2.030460 0.000000 
#    z -0.031830 0.000000 2.019270 
# 
# From -- ./inp_files/162145.got.cif
#   From: 2010.05.17/outbox.cif.g08.bks.cpg/sg15_82_cif.got.tgz:162145.got - 2010.06.03 18:47:42.
