data_PCOD9285402
_publ_section_title
;
Structure prediction by ZEFSAII (Michael W. Deem and Ramdas Pophale) SiO2 
 PCOD9285402
Probable space group: C 2/C
;
_chemical_formula_sum "Si O2"
_cell_formula_units_Z 56
_cell_length_a 6.279140
_cell_length_b 29.844620
_cell_length_c 13.453092
_cell_angle_alpha 90.000000
_cell_angle_beta 83.327141
_cell_angle_gamma 90.000000
_cell_volume 2504.011542
_symmetry_space_group_name_H-M "C 2/C"
_symmetry_group_IT_number 15
_symmetry_cell_setting 'monoclinic'
loop_
_space_group_symop_operation_xyz
x,y,z
-x,y,1/2-z
-x,-y,-z
x,-y,1/2+z
1/2+x,1/2+y,z
1/2-x,1/2+y,1/2-z
1/2-x,1/2-y,-z
1/2+x,1/2-y,1/2+z
loop_
_atom_site_type_symbol
_atom_site_label
_atom_site_fract_x
_atom_site_fract_y
_atom_site_fract_z
Si Si1 0.164645 0.904069 0.149066
Si Si2 0.252247 0.517446 0.126958
Si Si3 0.044811 0.230855 0.068941
Si Si4 0.500000 0.090446 0.250000
Si Si5 0.203664 0.647023 0.397512
Si Si6 0.500000 0.950485 0.250000
Si Si7 0.621901 0.441166 0.511912
Si Si8 0.186954 0.313495 0.450709
O O1 0.400909 0.921356 0.167724
O O2 0.205917 0.853601 0.113956
O O3 0.000000 0.905292 0.250000
O O4 0.054123 0.931135 0.065067
O O5 0.197113 0.483182 0.216831
O O6 0.486064 0.538728 0.110076
O O7 0.093787 0.558749 0.157380
O O8 0.234740 0.482671 0.035178
O O9 0.134727 0.188623 0.124451
O O10 0.926245 0.275878 0.112657
O O11 0.250000 0.250000 0.000000
O O12 0.875352 0.209720 0.002109
O O13 0.665878 0.122870 0.294870
O O14 0.281595 0.606583 0.465061
O O15 0.988288 0.666622 0.461561
#
# Coordination Sequence:
#
# PCOD9285402 Si02
#       8
#     8   8   8   4   8   4   8   8
#     4  12  24  39  66  99 133 170 222 279 334 403
#     4  10  24  42  64  96 134 180 228 281 329 400
#     4   9  20  41  75  96 126 170 219 273 331 415
#     4  11  26  40  64 100 138 174 226 282 338 389
#     4  11  23  43  70  97 133 179 224 276 337 409
#     4  11  24  42  64  96 136 174 220 290 334 381
#     4  11  23  42  67  94 130 185 232 268 337 404
#     4  10  21  41  73  98 128 173 219 269 341 409
#
# _framework density 22.364115999999999
#
# number of rings (size 3 to 8) (size 9 to 14) (size 15 to 20)
#    0.000    1.429    2.857    1.714    0.000    7.429 
#    0.000    0.000   26.714    0.000    0.000    0.000 
#    0.000    0.000    0.000    0.000    0.000    0.000 
#
# Total GULP energy -156164.025618 kJ/mol
# GULP energy per Si atom -5577.286629 kJ/mol
# Density = 2.231321 g / cm^3
# Si number density = 22.364116 Si / 1000 Ang^3
#
#
#
# Elastic Constant Matrix: (Units=GPa)
#
#
# Indices 1 2 3 4 5 6 
#
# 1 90.4161 57.1247 24.9154 0.0000 4.1798 0.0000
# 2 57.1247 168.8850 33.0261 0.0000 4.0563 0.0000
# 3 24.9154 33.0261 43.7314 0.0000 4.0032 0.0000
# 4 0.0000 0.0000 0.0000 13.8014 0.0000 -2.8706
# 5 4.1798 4.0563 4.0032 0.0000 36.7983 0.0000
# 6 0.0000 0.0000 0.0000 -2.8706 0.0000 51.4294
#
#
#
# Elastic Compliance Matrix: (Units=1/GPa)
#
#
# Indices 1 2 3 4 5 6 
#
# 1 0.015162 -0.004030 -0.005533 0.000000 -0.000676 0.000000
# 2 -0.004030 0.008020 -0.003759 0.000000 -0.000017 0.000000
# 3 -0.005533 -0.003759 0.029052 0.000000 -0.002118 0.000000
# 4 0.000000 0.000000 0.000000 0.073308 0.000000 0.004092
# 5 -0.000676 -0.000017 -0.002118 0.000000 0.027484 0.000000
# 6 0.000000 0.000000 0.000000 0.004092 0.000000 0.019672
#
#
# Mechanical properties :
#
#
# Convention : Reuss Voigt Hill
#
# Bulk Modulus (GPa) = 39.07819 59.24053 49.15936
# Shear Modulus (GPa) = 24.05323 32.93690 28.49506
#
# Velocity S-wave (km/s) = 3.28308 3.84181 3.57339
# Velocity P-wave (km/s) = 5.64651 6.79897 6.24936
#
# Compressibility (1/GPa) = 0.02558972
#
# Stress axis : x y z
#
# Youngs Moduli (GPa) = 65.95317 124.68960 34.42142
#
# Poissons Ratio (x) = 0.50254 0.19045
# Poissons Ratio (y) = 0.26582 0.12938
# Poissons Ratio (z) = 0.36491 0.46869
#
# Static dielectric constant tensor:
#      x y z
#    x 1.865160 0.000000 -0.006840 
#    y 0.000000 1.816950 0.000000 
#    z -0.006840 0.000000 1.856510 
# 
# From -- ./inp_files/130831.got.cif
#   From: 2010.05.17/outbox.cif.g08.bks.cpg/sg15_66_cif.got.tgz:130831.got - 2010.06.03 18:47:42.
