data_PCOD9285458
_publ_section_title
;
Structure prediction by ZEFSAII (Michael W. Deem and Ramdas Pophale) SiO2 
 PCOD9285458
Probable space group: C 2/C
;
_chemical_formula_sum "Si O2"
_cell_formula_units_Z 40
_cell_length_a 10.863425
_cell_length_b 10.325692
_cell_length_c 18.898370
_cell_angle_alpha 90.000000
_cell_angle_beta 116.943779
_cell_angle_gamma 90.000000
_cell_volume 1889.766032
_symmetry_space_group_name_H-M "C 2/C"
_symmetry_group_IT_number 15
_symmetry_cell_setting 'monoclinic'
loop_
_space_group_symop_operation_xyz
x,y,z
-x,y,1/2-z
-x,-y,-z
x,-y,1/2+z
1/2+x,1/2+y,z
1/2-x,1/2+y,1/2-z
1/2-x,1/2-y,-z
1/2+x,1/2-y,1/2+z
loop_
_atom_site_type_symbol
_atom_site_label
_atom_site_fract_x
_atom_site_fract_y
_atom_site_fract_z
Si Si1 0.613120 0.436476 0.836777
Si Si2 0.310955 0.858048 0.567927
Si Si3 0.619901 0.232131 0.126157
Si Si4 0.346800 0.723938 0.709176
Si Si5 0.661050 0.375647 0.998958
O O1 0.500000 0.392124 0.750000
O O2 0.758672 0.365588 0.863870
O O3 0.639227 0.587489 0.827394
O O4 0.569708 0.410240 0.906392
O O5 0.250000 0.750000 0.500000
O O6 0.476338 0.842642 0.601533
O O7 0.265323 0.818064 0.635870
O O8 0.257864 0.000018 0.535900
O O9 0.678887 0.294532 0.214517
O O10 0.594786 0.334546 0.056386
O O11 0.500000 0.782942 0.750000
O O12 0.750000 0.250000 0.000000
#
# Coordination Sequence:
#
# PCOD9285458 Si02
#       5
#     8   8   8   8   8
#     4  10  21  42  61  91 133 166 217 276 330 401
#     4  11  22  42  66  94 130 175 221 276 327 404
#     4  10  24  41  65  94 133 179 218 277 338 391
#     4   9  20  40  60  91 128 166 222 267 323 403
#     4  10  23  43  64  98 132 164 224 272 327 402
#
# _framework density 21.166640000000001
#
# number of rings (size 3 to 8) (size 9 to 14) (size 15 to 20)
#    0.000    2.000    2.000    0.000    2.800    5.600 
#    7.200    1.000    0.000    0.000    0.000    0.000 
#    0.000    0.000    0.000    0.000    0.000    0.000 
#
# Total GULP energy -111472.485862 kJ/mol
# GULP energy per Si atom -5573.624293 kJ/mol
# Density = 2.111846 g / cm^3
# Si number density = 21.166640 Si / 1000 Ang^3
#
#
#
# Elastic Constant Matrix: (Units=GPa)
#
#
# Indices 1 2 3 4 5 6 
#
# 1 67.7780 22.2103 38.0884 0.0000 1.5347 0.0000
# 2 22.2103 108.7011 64.0602 0.0000 -4.7930 0.0000
# 3 38.0884 64.0602 191.9710 0.0000 -27.5897 0.0000
# 4 0.0000 0.0000 0.0000 38.1801 0.0000 0.9661
# 5 1.5347 -4.7930 -27.5897 0.0000 38.7216 0.0000
# 6 0.0000 0.0000 0.0000 0.9661 0.0000 24.8470
#
#
#
# Elastic Compliance Matrix: (Units=1/GPa)
#
#
# Indices 1 2 3 4 5 6 
#
# 1 0.017255 -0.001712 -0.003321 0.000000 -0.003262 0.000000
# 2 -0.001712 0.011695 -0.003727 0.000000 -0.001140 0.000000
# 3 -0.003321 -0.003727 0.007870 0.000000 0.005278 0.000000
# 4 0.000000 0.000000 0.000000 0.026217 0.000000 -0.001019
# 5 -0.003262 -0.001140 0.005278 0.000000 0.029574 0.000000
# 6 0.000000 0.000000 0.000000 -0.001019 0.000000 0.040286
#
#
# Mechanical properties :
#
#
# Convention : Reuss Voigt Hill
#
# Bulk Modulus (GPa) = 51.81187 68.57421 60.19304
# Shear Modulus (GPa) = 31.87710 36.62248 34.24979
#
# Velocity S-wave (km/s) = 3.88494 4.16408 4.02693
# Velocity P-wave (km/s) = 6.68243 7.45567 7.07962
#
# Compressibility (1/GPa) = 0.01930060
#
# Stress axis : x y z
#
# Youngs Moduli (GPa) = 57.95319 85.50322 127.06193
#
# Poissons Ratio (x) = 0.14642 0.42197
# Poissons Ratio (y) = 0.09924 0.47354
# Poissons Ratio (z) = 0.19246 0.31865
#
# Static dielectric constant tensor:
#      x y z
#    x 1.827930 0.000000 -0.060090 
#    y 0.000000 1.731950 0.000000 
#    z -0.060090 0.000000 1.870710 
# 
# From -- ./inp_files/196361.got.cif
#   From: 2010.05.17/outbox.cif.g08.bks.cpg/sg15_99_cif.got.tgz:196361.got - 2010.06.03 18:47:42.
