data_PCOD9285912
_publ_section_title
;
Structure prediction by ZEFSAII (Michael W. Deem and Ramdas Pophale) SiO2 
 PCOD9285912
Probable space group: C 2/C
;
_chemical_formula_sum "Si O2"
_cell_formula_units_Z 40
_cell_length_a 15.442693
_cell_length_b 11.348251
_cell_length_c 10.813523
_cell_angle_alpha 90.000000
_cell_angle_beta 105.465283
_cell_angle_gamma 90.000000
_cell_volume 1826.428131
_symmetry_space_group_name_H-M "C 2/C"
_symmetry_group_IT_number 15
_symmetry_cell_setting 'monoclinic'
loop_
_space_group_symop_operation_xyz
x,y,z
-x,y,1/2-z
-x,-y,-z
x,-y,1/2+z
1/2+x,1/2+y,z
1/2-x,1/2+y,1/2-z
1/2-x,1/2-y,-z
1/2+x,1/2-y,1/2+z
loop_
_atom_site_type_symbol
_atom_site_label
_atom_site_fract_x
_atom_site_fract_y
_atom_site_fract_z
Si Si1 0.782247 0.086028 0.617611
Si Si2 0.550339 0.557002 0.400077
Si Si3 0.015906 0.315942 0.466607
Si Si4 0.626230 0.813686 0.880699
Si Si5 0.617221 0.005416 0.169626
O O1 0.707036 0.136688 0.495631
O O2 0.838856 0.200240 0.680064
O O3 0.851178 0.998807 0.577881
O O4 0.722188 0.025444 0.699106
O O5 0.500000 0.533425 0.250000
O O6 0.500000 0.500000 0.500000
O O7 0.552992 0.698045 0.420626
O O8 0.955789 0.278469 0.562633
O O9 0.943894 0.389271 0.358510
O O10 0.087892 0.411229 0.543050
O O11 0.599854 0.918787 0.782724
#
# Coordination Sequence:
#
# PCOD9285912 Si02
#       5
#     8   8   8   8   8
#     4  10  24  40  65 101 129 183 230 289 340 408
#     4  12  28  45  73 102 140 179 237 290 349 412
#     4  10  23  44  66 102 134 185 228 282 345 418
#     4  10  21  42  68  93 143 181 230 283 348 413
#     4  10  23  40  70 100 139 182 229 279 352 410
#
# _framework density 21.900672
#
# number of rings (size 3 to 8) (size 9 to 14) (size 15 to 20)
#    0.000    1.600    2.000    0.600    5.600    5.600 
#    0.000    0.000    0.000    0.000    0.000    0.000 
#    0.000    0.000    0.000    0.000    0.000    0.000 
#
# Total GULP energy -111822.639783 kJ/mol
# GULP energy per Si atom -5591.131989 kJ/mol
# Density = 2.185082 g / cm^3
# Si number density = 21.900672 Si / 1000 Ang^3
#
#
#
# Elastic Constant Matrix: (Units=GPa)
#
#
# Indices 1 2 3 4 5 6 
#
# 1 90.7116 20.1531 -7.2937 0.0000 -10.3024 0.0000
# 2 20.1531 101.9290 -3.2609 0.0000 -7.5459 0.0000
# 3 -7.2937 -3.2609 39.5999 0.0000 -16.7665 0.0000
# 4 0.0000 0.0000 0.0000 24.2019 0.0000 -15.2882
# 5 -10.3024 -7.5459 -16.7665 0.0000 15.6266 0.0000
# 6 0.0000 0.0000 0.0000 -15.2882 0.0000 40.8527
#
#
#
# Elastic Compliance Matrix: (Units=1/GPa)
#
#
# Indices 1 2 3 4 5 6 
#
# 1 0.014704 -0.000882 0.012020 0.000000 0.022165 0.000000
# 2 -0.000882 0.010885 0.004972 0.000000 0.010010 0.000000
# 3 0.012020 0.004972 0.059093 0.000000 0.073729 0.000000
# 4 0.000000 0.000000 0.000000 0.054111 0.000000 0.020250
# 5 0.022165 0.010010 0.073729 0.000000 0.162548 0.000000
# 6 0.000000 0.000000 0.000000 0.020250 0.000000 0.032056
#
#
# Mechanical properties :
#
#
# Convention : Reuss Voigt Hill
#
# Bulk Modulus (GPa) = 8.55407 27.93751 18.24579
# Shear Modulus (GPa) = 14.69968 30.97903 22.83936
#
# Velocity S-wave (km/s) = 2.59356 3.76510 3.23284
# Velocity P-wave (km/s) = 3.58930 5.62898 4.72062
#
# Compressibility (1/GPa) = 0.11690344
#
# Stress axis : x y z
#
# Youngs Moduli (GPa) = 68.00995 91.86798 16.92251
#
# Poissons Ratio (x) = 0.08100 -0.20342
# Poissons Ratio (y) = 0.05996 -0.08414
# Poissons Ratio (z) = -0.81751 -0.45678
#
# Static dielectric constant tensor:
#      x y z
#    x 1.818710 0.000000 -0.006680 
#    y 0.000000 1.798790 0.000000 
#    z -0.006680 0.000000 1.834700 
# 
# From -- ./inp_files/95119.got.cif
#   From: 2010.05.17/outbox.cif.g08.bks.cpg/sg15_48_cif.got.tgz:95119.got - 2010.06.03 18:47:42.
