data_PCOD9285621
_publ_section_title
;
Structure prediction by ZEFSAII (Michael W. Deem and Ramdas Pophale) SiO2 
 PCOD9285621
Probable space group: C 2/C
;
_chemical_formula_sum "Si O2"
_cell_formula_units_Z 44
_cell_length_a 26.168203
_cell_length_b 8.751897
_cell_length_c 13.939762
_cell_angle_alpha 90.000000
_cell_angle_beta 148.952252
_cell_angle_gamma 90.000000
_cell_volume 1646.541067
_symmetry_space_group_name_H-M "C 2/C"
_symmetry_group_IT_number 15
_symmetry_cell_setting 'monoclinic'
loop_
_space_group_symop_operation_xyz
x,y,z
-x,y,1/2-z
-x,-y,-z
x,-y,1/2+z
1/2+x,1/2+y,z
1/2-x,1/2+y,1/2-z
1/2-x,1/2-y,-z
1/2+x,1/2-y,1/2+z
loop_
_atom_site_type_symbol
_atom_site_label
_atom_site_fract_x
_atom_site_fract_y
_atom_site_fract_z
Si Si1 0.465892 0.418035 0.293741
Si Si2 0.833281 0.635268 0.098132
Si Si3 0.092209 0.170264 0.166121
Si Si4 0.500000 0.889141 0.250000
Si Si5 0.903848 0.616945 0.414453
Si Si6 0.207743 0.340018 0.587323
O O1 0.500000 0.487030 0.250000
O O2 0.415258 0.255022 0.193276
O O3 0.396208 0.530429 0.242024
O O4 0.562072 0.399268 0.514667
O O5 0.872141 0.557266 0.260238
O O6 0.750000 0.750000 0.000000
O O7 0.795803 0.513521 0.960350
O O8 0.199529 0.240603 0.312887
O O9 0.990701 0.260413 0.029973
O O10 0.540604 0.975167 0.409861
O O11 0.596734 0.793049 0.376250
O O12 0.807359 0.669957 0.321465
#
# Coordination Sequence:
#
# PCOD9285621 Si02
#       6
#     8   8   8   4   8   8
#     4  10  23  37  65  99 138 176 225 292 333 424
#     4  11  22  42  68 104 132 184 232 281 352 419
#     4  10  21  42  64  98 136 179 230 278 355 404
#     4   8  22  42  60  90 126 182 218 280 336 410
#     4   9  23  43  64 100 141 170 238 283 336 429
#     4  10  22  42  67  96 137 178 227 282 352 401
#
# _framework density 26.722684000000001
#
# number of rings (size 3 to 8) (size 9 to 14) (size 15 to 20)
#    1.091    1.091    1.818    0.000    5.091    1.455 
#    0.000    1.818    0.000    0.000    0.000    0.000 
#    0.000    0.000    0.000    0.000    0.000    0.000 
#
# Total GULP energy -122596.141290 kJ/mol
# GULP energy per Si atom -5572.551877 kJ/mol
# Density = 2.666186 g / cm^3
# Si number density = 26.722684 Si / 1000 Ang^3
#
#
#
# Elastic Constant Matrix: (Units=GPa)
#
#
# Indices 1 2 3 4 5 6 
#
# 1 185.0894 56.2105 74.1779 0.0000 23.0481 0.0000
# 2 56.2105 105.0156 20.3053 0.0000 29.1869 0.0000
# 3 74.1779 20.3053 50.1350 0.0000 26.9609 0.0000
# 4 0.0000 0.0000 0.0000 3.1772 0.0000 2.1506
# 5 23.0481 29.1869 26.9609 0.0000 54.7152 0.0000
# 6 0.0000 0.0000 0.0000 2.1506 0.0000 29.5777
#
#
#
# Elastic Compliance Matrix: (Units=1/GPa)
#
#
# Indices 1 2 3 4 5 6 
#
# 1 0.018063 -0.006903 -0.029684 0.000000 0.010700 0.000000
# 2 -0.006903 0.013938 0.009527 0.000000 -0.009222 0.000000
# 3 -0.029684 0.009527 0.076209 0.000000 -0.030130 0.000000
# 4 0.000000 0.000000 0.000000 0.331040 0.000000 -0.024070
# 5 0.010700 -0.009222 -0.030130 0.000000 0.033535 0.000000
# 6 0.000000 0.000000 0.000000 -0.024070 0.000000 0.035559
#
#
# Mechanical properties :
#
#
# Convention : Reuss Voigt Hill
#
# Bulk Modulus (GPa) = 18.48712 71.29192 44.88952
# Shear Modulus (GPa) = 8.61336 30.13044 19.37190
#
# Velocity S-wave (km/s) = 1.79729 3.36150 2.69536
# Velocity P-wave (km/s) = 3.35263 6.46549 5.14989
#
# Compressibility (1/GPa) = 0.05409172
#
# Stress axis : x y z
#
# Youngs Moduli (GPa) = 55.36204 71.74637 13.12174
#
# Poissons Ratio (x) = 0.49524 0.38950
# Poissons Ratio (y) = 0.38214 -0.12501
# Poissons Ratio (z) = 1.64334 -0.68352
#
# Static dielectric constant tensor:
#      x y z
#    x 2.284310 0.000000 0.068830 
#    y 0.000000 2.135860 0.000000 
#    z 0.068830 0.000000 2.165270 
# 
# From -- ./inp_files/177662.got.cif
#   From: 2010.05.17/outbox.cif.g08.bks.cpg/sg15_89_cif.got.tgz:177662.got - 2010.06.03 18:47:42.
