data_PCOD9285129
_publ_section_title
;
Structure prediction by ZEFSAII (Michael W. Deem and Ramdas Pophale) SiO2 
 PCOD9285129
Probable space group: C 2/C
;
_chemical_formula_sum "Si O2"
_cell_formula_units_Z 40
_cell_length_a 9.783753
_cell_length_b 12.845947
_cell_length_c 13.396523
_cell_angle_alpha 90.000000
_cell_angle_beta 79.978013
_cell_angle_gamma 90.000000
_cell_volume 1658.004632
_symmetry_space_group_name_H-M "C 2/C"
_symmetry_group_IT_number 15
_symmetry_cell_setting 'monoclinic'
loop_
_space_group_symop_operation_xyz
x,y,z
-x,y,1/2-z
-x,-y,-z
x,-y,1/2+z
1/2+x,1/2+y,z
1/2-x,1/2+y,1/2-z
1/2-x,1/2-y,-z
1/2+x,1/2-y,1/2+z
loop_
_atom_site_type_symbol
_atom_site_label
_atom_site_fract_x
_atom_site_fract_y
_atom_site_fract_z
Si Si1 0.566838 0.760102 0.350577
Si Si2 0.500000 0.060277 0.250000
Si Si3 0.174722 0.747323 0.306723
Si Si4 0.000000 0.077486 0.750000
Si Si5 0.595095 0.445696 0.570137
Si Si6 0.355217 0.895547 0.412522
O O1 0.500000 0.783697 0.250000
O O2 0.728388 0.751599 0.305340
O O3 0.497764 0.655033 0.395155
O O4 0.505933 0.852021 0.426449
O O5 0.590656 0.139633 0.308488
O O6 0.394683 0.985629 0.326676
O O7 0.070687 0.843880 0.316632
O O8 0.273295 0.790521 0.382475
O O9 0.897905 0.005865 0.825653
O O10 0.500000 0.500000 0.500000
O O11 0.748817 0.434994 0.507902
#
# Coordination Sequence:
#
# PCOD9285129 Si02
#       6
#     8   4   8   4   8   8
#     4  10  21  41  67  94 133 175 222 280 334 401
#     4  11  22  41  70  98 136 179 216 285 334 396
#     4  10  22  41  66  97 133 174 219 278 337 394
#     4  11  24  43  62 100 134 167 230 283 328 404
#     4  12  23  40  68  96 132 180 223 275 342 398
#     4  11  22  43  67  98 137 175 227 277 337 404
#
# _framework density 24.125385999999999
#
# number of rings (size 3 to 8) (size 9 to 14) (size 15 to 20)
#    0.000    1.200    6.000    1.800    0.000    0.000 
#    3.600    4.000    0.000    0.000    0.000    0.000 
#    0.000    0.000    0.000    0.000    0.000    0.000 
#
# Total GULP energy -111481.085791 kJ/mol
# GULP energy per Si atom -5574.054290 kJ/mol
# Density = 2.407048 g / cm^3
# Si number density = 24.125386 Si / 1000 Ang^3
#
#
#
# Elastic Constant Matrix: (Units=GPa)
#
#
# Indices 1 2 3 4 5 6 
#
# 1 58.9219 24.9843 21.7107 0.0000 -19.6333 0.0000
# 2 24.9843 139.2179 64.3026 0.0000 -21.9435 0.0000
# 3 21.7107 64.3026 75.8796 0.0000 -32.7610 0.0000
# 4 0.0000 0.0000 0.0000 -6.2322 0.0000 -14.8553
# 5 -19.6333 -21.9435 -32.7610 0.0000 41.0018 0.0000
# 6 0.0000 0.0000 0.0000 -14.8553 0.0000 33.9159
#
#
#
# Elastic Compliance Matrix: (Units=1/GPa)
#
#
# Indices 1 2 3 4 5 6 
#
# 1 0.020894 -0.002205 -0.000457 0.000000 0.008459 0.000000
# 2 -0.002205 0.012214 -0.011226 0.000000 -0.003489 0.000000
# 3 -0.000457 -0.011226 0.030738 0.000000 0.018333 0.000000
# 4 0.000000 0.000000 0.000000 -0.078500 0.000000 -0.034383
# 5 0.008459 -0.003489 0.018333 0.000000 0.041221 0.000000
# 6 0.000000 0.000000 0.000000 -0.034383 0.000000 0.014425
#
#
# Mechanical properties :
#
#
# Convention : Reuss Voigt Hill
#
# Bulk Modulus (GPa) = 27.72403 55.11274 41.41839
# Shear Modulus (GPa) = 61.88819 24.60524 43.24672
#
# Velocity S-wave (km/s) = 5.07035 3.19704 4.23848
# Velocity P-wave (km/s) = 6.76716 6.04334 6.41547
#
# Compressibility (1/GPa) = 0.03606979
#
# Stress axis : x y z
#
# Youngs Moduli (GPa) = 47.86106 81.87473 32.53307
#
# Poissons Ratio (x) = 0.18055 0.01487
# Poissons Ratio (y) = 0.10554 0.36520
# Poissons Ratio (z) = 0.02188 0.91910
#
# Static dielectric constant tensor:
#      x y z
#    x 2.131190 0.000000 0.080840 
#    y 0.000000 2.001120 0.000000 
#    z 0.080840 0.000000 2.092250 
# 
# From -- ./inp_files/142160.got.cif
#   From: 2010.05.17/outbox.cif.g08.bks.cpg/sg15_72_cif.got.tgz:142160.got - 2010.06.03 18:47:42.
