data_PCOD9285248
_publ_section_title
;
Structure prediction by ZEFSAII (Michael W. Deem and Ramdas Pophale) SiO2 
 PCOD9285248
Probable space group: C 2/C
;
_chemical_formula_sum "Si O2"
_cell_formula_units_Z 56
_cell_length_a 22.306993
_cell_length_b 10.076750
_cell_length_c 17.612397
_cell_angle_alpha 90.000000
_cell_angle_beta 145.641605
_cell_angle_gamma 90.000000
_cell_volume 2234.303336
_symmetry_space_group_name_H-M "C 2/C"
_symmetry_group_IT_number 15
_symmetry_cell_setting 'monoclinic'
loop_
_space_group_symop_operation_xyz
x,y,z
-x,y,1/2-z
-x,-y,-z
x,-y,1/2+z
1/2+x,1/2+y,z
1/2-x,1/2+y,1/2-z
1/2-x,1/2-y,-z
1/2+x,1/2-y,1/2+z
loop_
_atom_site_type_symbol
_atom_site_label
_atom_site_fract_x
_atom_site_fract_y
_atom_site_fract_z
Si Si1 0.000000 0.255545 0.750000
Si Si2 0.638617 0.136974 0.186381
Si Si3 0.773056 0.429825 0.885222
Si Si4 0.789446 0.145364 0.478790
Si Si5 0.009663 0.500008 0.660788
Si Si6 0.895200 0.915936 0.380113
Si Si7 0.500000 0.758508 0.250000
Si Si8 0.691584 0.359393 0.040559
O O1 0.084552 0.166724 0.882448
O O2 0.046645 0.363566 0.739483
O O3 0.686345 0.106100 0.155775
O O4 0.736588 0.176932 0.343133
O O5 0.569532 0.268180 0.104562
O O6 0.568507 0.015621 0.143055
O O7 0.673970 0.523073 0.762000
O O8 0.751681 0.285637 0.900513
O O9 0.880812 0.497289 0.030600
O O10 0.750000 0.250000 0.500000
O O11 0.764859 0.987829 0.458893
O O12 0.046073 0.634982 0.737952
O O13 0.831975 0.902641 0.395613
O O14 0.000000 0.000000 0.500000
O O15 0.418229 0.673387 0.116750
#
# Coordination Sequence:
#
# PCOD9285248 Si02
#       8
#     4   8   8   8   8   8   4   8
#     4  11  23  38  66  94 139 179 218 292 329 409
#     4  11  23  41  68 100 132 179 234 286 346 414
#     4  10  22  46  67  95 140 178 227 291 344 412
#     4  12  24  43  68 102 138 182 236 277 348 415
#     4  10  21  41  69 100 131 182 232 278 346 413
#     4  11  25  42  68 103 134 178 232 290 356 408
#     4   9  21  44  68  98 147 183 226 276 351 409
#     4  10  23  44  69  97 139 186 224 289 343 411
#
# _framework density 25.063742000000001
#
# number of rings (size 3 to 8) (size 9 to 14) (size 15 to 20)
#    0.000    1.429    2.857    1.714    2.000    3.429 
#    7.714    0.714    0.000    0.000    0.000    0.000 
#    0.000    0.000    0.000    0.000    0.000    0.000 
#
# Total GULP energy -156445.756293 kJ/mol
# GULP energy per Si atom -5587.348439 kJ/mol
# Density = 2.500670 g / cm^3
# Si number density = 25.063742 Si / 1000 Ang^3
#
#
#
# Elastic Constant Matrix: (Units=GPa)
#
#
# Indices 1 2 3 4 5 6 
#
# 1 44.1922 27.7893 4.6894 0.0000 -0.0080 0.0000
# 2 27.7893 151.1950 30.7921 0.0000 -0.2170 0.0000
# 3 4.6894 30.7921 127.8700 0.0000 -0.0859 0.0000
# 4 0.0000 0.0000 0.0000 51.8787 0.0000 3.2805
# 5 -0.0080 -0.2170 -0.0859 0.0000 30.6955 0.0000
# 6 0.0000 0.0000 0.0000 3.2805 0.0000 41.2625
#
#
#
# Elastic Compliance Matrix: (Units=1/GPa)
#
#
# Indices 1 2 3 4 5 6 
#
# 1 0.025591 -0.004745 0.000204 0.000000 -0.000026 0.000000
# 2 -0.004745 0.007835 -0.001713 0.000000 0.000049 0.000000
# 3 0.000204 -0.001713 0.008225 0.000000 0.000011 0.000000
# 4 0.000000 0.000000 0.000000 0.019373 0.000000 -0.001540
# 5 -0.000026 0.000049 0.000011 0.000000 0.032578 0.000000
# 6 0.000000 0.000000 0.000000 -0.001540 0.000000 0.024358
#
#
# Mechanical properties :
#
#
# Convention : Reuss Voigt Hill
#
# Bulk Modulus (GPa) = 34.31269 49.97765 42.14517
# Shear Modulus (GPa) = 35.66792 42.09975 38.88383
#
# Velocity S-wave (km/s) = 3.77648 4.10287 3.94305
# Velocity P-wave (km/s) = 5.72150 6.51369 6.13041
#
# Compressibility (1/GPa) = 0.02914374
#
# Stress axis : x y z
#
# Youngs Moduli (GPa) = 39.07681 127.63268 121.57480
#
# Poissons Ratio (x) = 0.60563 -0.02482
# Poissons Ratio (y) = 0.18542 0.20822
# Poissons Ratio (z) = -0.00798 0.21859
#
# Static dielectric constant tensor:
#      x y z
#    x 2.110610 0.000000 0.001750 
#    y 0.000000 1.965410 0.000000 
#    z 0.001750 0.000000 2.127830 
# 
# From -- ./inp_files/222104.got.cif
#   From: 2010.05.17/outbox.cif.g08.bks.cpg/sg15_112_cif.got.tgz:222104.got - 2010.06.03 18:47:42.
