data_PCOD9285842
_publ_section_title
;
Structure prediction by ZEFSAII (Michael W. Deem and Ramdas Pophale) SiO2 
 PCOD9285842
Probable space group: C 2/C
;
_chemical_formula_sum "Si O2"
_cell_formula_units_Z 64
_cell_length_a 14.019559
_cell_length_b 9.212591
_cell_length_c 29.796234
_cell_angle_alpha 90.000000
_cell_angle_beta 47.637714
_cell_angle_gamma 90.000000
_cell_volume 2843.561435
_symmetry_space_group_name_H-M "C 2/C"
_symmetry_group_IT_number 15
_symmetry_cell_setting 'monoclinic'
loop_
_space_group_symop_operation_xyz
x,y,z
-x,y,1/2-z
-x,-y,-z
x,-y,1/2+z
1/2+x,1/2+y,z
1/2-x,1/2+y,1/2-z
1/2-x,1/2-y,-z
1/2+x,1/2-y,1/2+z
loop_
_atom_site_type_symbol
_atom_site_label
_atom_site_fract_x
_atom_site_fract_y
_atom_site_fract_z
Si Si1 0.232479 0.412158 0.093921
Si Si2 0.291238 0.501478 0.671232
Si Si3 0.444362 0.996688 0.567378
Si Si4 0.809977 0.334662 0.171611
Si Si5 0.954833 0.466480 0.698039
Si Si6 0.189394 0.078872 0.109193
Si Si7 0.781316 0.581457 0.489958
Si Si8 0.948241 0.874784 0.202098
O O1 0.315934 0.450637 0.112036
O O2 0.199568 0.246174 0.091859
O O3 0.273156 0.499538 0.036526
O O4 0.092990 0.465471 0.152718
O O5 0.322061 0.335897 0.677307
O O6 0.139086 0.507369 0.731199
O O7 0.369703 0.599655 0.680864
O O8 0.305135 0.920119 0.609375
O O9 0.563054 0.938308 0.558605
O O10 0.500000 0.000000 0.500000
O O11 0.392570 0.151894 0.599906
O O12 0.876850 0.455066 0.182036
O O13 0.658474 0.374709 0.223985
O O14 0.984870 0.294484 0.688182
O O15 0.059651 0.998077 0.167638
O O16 0.227915 0.987694 0.052788
O O17 0.750000 0.750000 0.500000
#
# Coordination Sequence:
#
# PCOD9285842 Si02
#       8
#     8   8   8   8   8   8   8   8
#     4  12  24  42  67  96 141 179 224 291 334 415
#     4  10  24  40  66 102 134 181 229 280 343 409
#     4  10  24  44  70  95 133 173 231 284 339 412
#     4  10  21  42  71  95 137 180 224 282 349 399
#     4  10  21  42  67  96 138 183 226 280 341 406
#     4  11  26  44  66 105 133 181 233 281 348 409
#     4  11  25  47  74  96 133 184 233 290 351 410
#     4  10  23  43  67 100 140 175 229 278 342 422
#
# _framework density 22.506986999999999
#
# number of rings (size 3 to 8) (size 9 to 14) (size 15 to 20)
#    0.000    1.500    1.250    2.250    7.000    1.500 
#    2.250    1.250    0.000    0.000    0.000    0.000 
#    0.000    0.000    0.000    0.000    0.000    0.000 
#
# Total GULP energy -178276.002771 kJ/mol
# GULP energy per Si atom -5571.125087 kJ/mol
# Density = 2.245576 g / cm^3
# Si number density = 22.506987 Si / 1000 Ang^3
#
#
#
# Elastic Constant Matrix: (Units=GPa)
#
#
# Indices 1 2 3 4 5 6 
#
# 1 56.3480 17.2174 13.7045 0.0000 7.7141 0.0001
# 2 17.2174 133.4640 33.5861 0.0000 2.3553 0.0001
# 3 13.7045 33.5861 64.5511 0.0000 11.2743 0.0000
# 4 0.0000 0.0000 0.0000 25.4985 0.0000 -4.1503
# 5 7.7141 2.3553 11.2743 0.0000 34.9106 0.0000
# 6 0.0001 0.0001 0.0000 -4.1503 0.0000 12.3351
#
#
#
# Elastic Compliance Matrix: (Units=1/GPa)
#
#
# Indices 1 2 3 4 5 6 
#
# 1 0.019381 -0.001786 -0.002605 0.000000 -0.003321 0.000000
# 2 -0.001786 0.008814 -0.004421 0.000000 0.001228 0.000000
# 3 -0.002605 -0.004421 0.019280 0.000000 -0.005352 0.000000
# 4 0.000000 0.000000 0.000000 0.041490 0.000000 0.013960
# 5 -0.003321 0.001228 -0.005352 0.000000 0.031024 0.000000
# 6 0.000000 0.000000 0.000000 0.013960 0.000000 0.085767
#
#
# Mechanical properties :
#
#
# Convention : Reuss Voigt Hill
#
# Bulk Modulus (GPa) = 33.50132 42.59767 38.04950
# Shear Modulus (GPa) = 21.42880 27.20585 24.31733
#
# Velocity S-wave (km/s) = 3.08895 3.48051 3.29056
# Velocity P-wave (km/s) = 5.25731 5.92617 5.60173
#
# Compressibility (1/GPa) = 0.02984957
#
# Stress axis : x y z
#
# Youngs Moduli (GPa) = 51.59738 113.45621 51.86737
#
# Poissons Ratio (x) = 0.20263 0.13514
# Poissons Ratio (y) = 0.09215 0.22932
# Poissons Ratio (z) = 0.13443 0.50161
#
# Static dielectric constant tensor:
#      x y z
#    x 1.938320 0.000000 0.067670 
#    y 0.000000 2.000650 0.000000 
#    z 0.067670 0.000000 1.918610 
# 
# From -- ./inp_files/313151.got.cif
#   From: 2010.05.17/outbox.cif.g08.bks.cpg/sg15_157_cif.got.tgz:313151.got - 2010.06.03 18:47:42.
