data_PCOD9285180
_publ_section_title
;
Structure prediction by ZEFSAII (Michael W. Deem and Ramdas Pophale) SiO2 
 PCOD9285180
Probable space group: C 2/C
;
_chemical_formula_sum "Si O2"
_cell_formula_units_Z 56
_cell_length_a 22.461069
_cell_length_b 6.755505
_cell_length_c 17.260370
_cell_angle_alpha 90.000000
_cell_angle_beta 95.968826
_cell_angle_gamma 90.000000
_cell_volume 2604.818469
_symmetry_space_group_name_H-M "C 2/C"
_symmetry_group_IT_number 15
_symmetry_cell_setting 'monoclinic'
loop_
_space_group_symop_operation_xyz
x,y,z
-x,y,1/2-z
-x,-y,-z
x,-y,1/2+z
1/2+x,1/2+y,z
1/2-x,1/2+y,1/2-z
1/2-x,1/2-y,-z
1/2+x,1/2-y,1/2+z
loop_
_atom_site_type_symbol
_atom_site_label
_atom_site_fract_x
_atom_site_fract_y
_atom_site_fract_z
Si Si1 0.802279 0.593157 0.934868
Si Si2 0.484992 0.315603 0.553511
Si Si3 0.969418 0.891071 0.324136
Si Si4 0.696032 0.147501 0.387254
Si Si5 0.736630 0.268518 0.847367
Si Si6 0.161863 0.088179 0.747290
Si Si7 0.928196 0.557178 0.435911
O O1 0.763718 0.763956 0.888800
O O2 0.757542 0.406013 0.921776
O O3 0.862796 0.517602 0.904497
O O4 0.817931 0.665251 0.023478
O O5 0.500000 0.500000 0.500000
O O6 0.491256 0.427183 0.635998
O O7 0.427293 0.195229 0.513810
O O8 0.534266 0.143777 0.550949
O O9 0.901830 0.961844 0.297863
O O10 0.960154 0.703489 0.379525
O O11 0.000000 0.822103 0.250000
O O12 0.655579 0.266587 0.321324
O O13 0.699169 0.919125 0.367975
O O14 0.794864 0.194982 0.808394
O O15 0.697214 0.401386 0.785158
#
# Coordination Sequence:
#
# PCOD9285180 Si02
#       7
#     8   8   8   8   8   8   8
#     4  10  22  39  64  91 125 164 209 263 323 383
#     4   9  22  40  61  90 117 165 221 262 313 382
#     4  11  25  42  62  95 132 169 217 268 325 385
#     4  10  23  38  58  97 128 157 212 264 317 383
#     4  11  21  39  62  93 125 167 211 255 328 384
#     4  11  23  37  63  93 127 168 209 263 317 389
#     4  10  21  41  68  88 121 173 215 267 324 386
#
# _framework density 21.498618
#
# number of rings (size 3 to 8) (size 9 to 14) (size 15 to 20)
#    0.000    1.714    2.857    0.429    2.000    6.286 
#    0.000    0.000    0.000    0.000    0.000    0.000 
#    0.000    0.000    0.000    0.000    0.000    0.000 
#
# Total GULP energy -156207.623586 kJ/mol
# GULP energy per Si atom -5578.843699 kJ/mol
# Density = 2.144969 g / cm^3
# Si number density = 21.498618 Si / 1000 Ang^3
#
#
#
# Elastic Constant Matrix: (Units=GPa)
#
#
# Indices 1 2 3 4 5 6 
#
# 1 33.1224 12.1612 -6.5358 0.0000 0.1459 0.0000
# 2 12.1612 98.8578 15.5159 0.0000 -4.5173 0.0000
# 3 -6.5358 15.5159 68.0318 0.0000 -7.1680 0.0000
# 4 0.0000 0.0000 0.0000 16.0144 0.0000 -6.9243
# 5 0.1459 -4.5173 -7.1680 0.0000 13.4581 0.0000
# 6 0.0000 0.0000 0.0000 -6.9243 0.0000 12.7297
#
#
#
# Elastic Compliance Matrix: (Units=1/GPa)
#
#
# Indices 1 2 3 4 5 6 
#
# 1 0.032746 -0.004680 0.004249 0.000000 0.000337 0.000000
# 2 -0.004680 0.011232 -0.002764 0.000000 0.002349 0.000000
# 3 0.004249 -0.002764 0.016565 0.000000 0.007849 0.000000
# 4 0.000000 0.000000 0.000000 0.081647 0.000000 0.044411
# 5 0.000337 0.002349 0.007849 0.000000 0.079270 0.000000
# 6 0.000000 0.000000 0.000000 0.044411 0.000000 0.102714
#
#
# Mechanical properties :
#
#
# Convention : Reuss Voigt Hill
#
# Bulk Modulus (GPa) = 18.46609 26.92162 22.69385
# Shear Modulus (GPa) = 14.34250 20.36513 17.35382
#
# Velocity S-wave (km/s) = 2.58570 3.08112 2.84422
# Velocity P-wave (km/s) = 4.18599 5.02070 4.62223
#
# Compressibility (1/GPa) = 0.05415332
#
# Stress axis : x y z
#
# Youngs Moduli (GPa) = 30.53791 89.02851 60.37001
#
# Poissons Ratio (x) = 0.41663 -0.25650
# Poissons Ratio (y) = 0.14291 0.16685
# Poissons Ratio (z) = -0.12975 0.24606
#
# Static dielectric constant tensor:
#      x y z
#    x 1.768440 0.000000 0.008910 
#    y 0.000000 1.752810 0.000000 
#    z 0.008910 0.000000 1.875060 
# 
# From -- ./inp_files/221314.got.cif
#   From: 2010.05.17/outbox.cif.g08.bks.cpg/sg15_111_cif.got.tgz:221314.got - 2010.06.03 18:47:42.
