data_PCOD9285179
_publ_section_title
;
Structure prediction by ZEFSAII (Michael W. Deem and Ramdas Pophale) SiO2 
 PCOD9285179
Probable space group: C 2/C
;
_chemical_formula_sum "Si O2"
_cell_formula_units_Z 60
_cell_length_a 26.540829
_cell_length_b 20.199211
_cell_length_c 8.420960
_cell_angle_alpha 90.000000
_cell_angle_beta 36.719416
_cell_angle_gamma 90.000000
_cell_volume 2699.210363
_symmetry_space_group_name_H-M "C 2/C"
_symmetry_group_IT_number 15
_symmetry_cell_setting 'monoclinic'
loop_
_space_group_symop_operation_xyz
x,y,z
-x,y,1/2-z
-x,-y,-z
x,-y,1/2+z
1/2+x,1/2+y,z
1/2-x,1/2+y,1/2-z
1/2-x,1/2-y,-z
1/2+x,1/2-y,1/2+z
loop_
_atom_site_type_symbol
_atom_site_label
_atom_site_fract_x
_atom_site_fract_y
_atom_site_fract_z
Si Si1 0.000000 0.454553 0.750000
Si Si2 0.105235 0.443436 0.772524
Si Si3 0.153926 0.910896 0.219224
Si Si4 0.716469 0.751532 0.313041
Si Si5 0.488651 0.423491 0.470315
Si Si6 0.815358 0.144891 0.358977
Si Si7 0.688148 0.177470 0.186217
Si Si8 0.776397 0.983018 0.764002
O O1 0.945655 0.418192 0.753070
O O2 0.058332 0.501610 0.494432
O O3 0.126587 0.384015 0.836864
O O4 0.190273 0.476668 0.490436
O O5 0.065202 0.889454 0.372727
O O6 0.151725 0.964974 0.364176
O O7 0.219116 0.852802 0.090883
O O8 0.200477 0.952805 0.962755
O O9 0.669543 0.699405 0.318463
O O10 0.666421 0.775319 0.594379
O O11 0.797215 0.712914 0.184171
O O12 0.751103 0.815503 0.133375
O O13 0.500000 0.422277 0.250000
O O14 0.500000 0.500000 0.500000
O O15 0.401458 0.383730 0.716071
O O16 0.773801 0.079838 0.386955
#
# Coordination Sequence:
#
# PCOD9285179 Si02
#       8
#     4   8   8   8   8   8   8   8
#     4  10  22  40  58 100 122 146 188 260 356 376
#     4  10  22  37  66  90 126 155 199 272 329 385
#     4  11  21  36  60  97 126 159 205 262 326 384
#     4  10  23  41  63  89 120 172 233 254 292 383
#     4  12  22  37  60  94 142 161 196 269 338 388
#     4  11  23  39  62  92 131 171 218 263 315 384
#     4  10  21  41  68  86 118 163 223 266 301 380
#     4  11  21  36  64  96 118 164 206 253 330 389
#
# _framework density 22.228721
#
# number of rings (size 3 to 8) (size 9 to 14) (size 15 to 20)
#    0.000    1.333    4.000    1.600    5.600    1.067 
#    0.000    0.000   16.133    0.000    0.000    0.000 
#    0.000    0.000    0.000    0.000    0.000    0.000 
#
# Total GULP energy -167581.108210 kJ/mol
# GULP energy per Si atom -5586.036940 kJ/mol
# Density = 2.217813 g / cm^3
# Si number density = 22.228721 Si / 1000 Ang^3
#
#
#
# Elastic Constant Matrix: (Units=GPa)
#
#
# Indices 1 2 3 4 5 6 
#
# 1 97.9540 25.4020 13.7703 0.0000 -3.5786 0.0000
# 2 25.4020 92.9481 11.3050 0.0000 0.5487 0.0000
# 3 13.7703 11.3050 33.9967 0.0000 -2.4313 0.0000
# 4 0.0000 0.0000 0.0000 8.3308 0.0000 21.0057
# 5 -3.5786 0.5487 -2.4313 0.0000 27.0638 0.0000
# 6 0.0000 0.0000 0.0000 21.0057 0.0000 43.4478
#
#
#
# Elastic Compliance Matrix: (Units=1/GPa)
#
#
# Indices 1 2 3 4 5 6 
#
# 1 0.011468 -0.002696 -0.003660 0.000000 0.001242 0.000000
# 2 -0.002696 0.011855 -0.002911 0.000000 -0.000858 0.000000
# 3 -0.003660 -0.002911 0.032040 0.000000 0.002453 0.000000
# 4 0.000000 0.000000 0.000000 -0.548012 0.000000 0.264947
# 5 0.001242 -0.000858 0.002453 0.000000 0.037352 0.000000
# 6 0.000000 0.000000 0.000000 0.264947 0.000000 -0.105078
#
#
# Mechanical properties :
#
#
# Convention : Reuss Voigt Hill
#
# Bulk Modulus (GPa) = 27.15277 36.20593 31.67935
# Shear Modulus (GPa) = -9.44174 27.39659 8.97743
#
# Velocity S-wave (km/s) = -2.06319 3.51449 2.01182
# Velocity P-wave (km/s) = 2.56242 5.72644 4.43611
#
# Compressibility (1/GPa) = 0.03682865
#
# Stress axis : x y z
#
# Youngs Moduli (GPa) = 87.19956 84.35440 31.21052
#
# Poissons Ratio (x) = 0.22745 0.11422
# Poissons Ratio (y) = 0.23512 0.09086
# Poissons Ratio (z) = 0.31912 0.24558
#
# Static dielectric constant tensor:
#      x y z
#    x 1.888940 0.000000 0.008060 
#    y 0.000000 1.831150 0.000000 
#    z 0.008060 0.000000 1.840900 
# 
# From -- ./inp_files/67504.got.cif
#   From: 2010.05.17/outbox.cif.g08.bks.cpg/sg15_34_cif.got.tgz:67504.got - 2010.06.03 18:47:42.
