data_PCOD9285356
_publ_section_title
;
Structure prediction by ZEFSAII (Michael W. Deem and Ramdas Pophale) SiO2 
 PCOD9285356
Probable space group: C 2/C
;
_chemical_formula_sum "Si O2"
_cell_formula_units_Z 48
_cell_length_a 24.858892
_cell_length_b 4.942036
_cell_length_c 18.181943
_cell_angle_alpha 90.000000
_cell_angle_beta 114.401265
_cell_angle_gamma 90.000000
_cell_volume 2034.188333
_symmetry_space_group_name_H-M "C 2/C"
_symmetry_group_IT_number 15
_symmetry_cell_setting 'monoclinic'
loop_
_space_group_symop_operation_xyz
x,y,z
-x,y,1/2-z
-x,-y,-z
x,-y,1/2+z
1/2+x,1/2+y,z
1/2-x,1/2+y,1/2-z
1/2-x,1/2-y,-z
1/2+x,1/2-y,1/2+z
loop_
_atom_site_type_symbol
_atom_site_label
_atom_site_fract_x
_atom_site_fract_y
_atom_site_fract_z
Si Si1 0.431914 0.706519 0.845624
Si Si2 0.757273 0.996973 0.449195
Si Si3 0.940964 0.667538 0.948075
Si Si4 0.465568 0.095365 0.663261
Si Si5 0.383833 0.489507 0.535966
Si Si6 0.142605 0.272635 0.830876
O O1 0.405630 0.941130 0.883167
O O2 0.488339 0.863842 0.839446
O O3 0.382822 0.641543 0.757119
O O4 0.447396 0.438763 0.901515
O O5 0.750000 0.250000 0.500000
O O6 0.823268 0.943637 0.456452
O O7 0.704136 0.063501 0.362804
O O8 0.750000 0.750000 0.500000
O O9 0.912186 0.765842 0.007017
O O10 0.000000 0.500000 0.000000
O O11 0.500000 0.247725 0.750000
O O12 0.435961 0.279437 0.583422
O O13 0.408979 0.971799 0.671190
O O14 0.359495 0.561505 0.603085
#
# Coordination Sequence:
#
# PCOD9285356 Si02
#       6
#     8   8   8   8   8   8
#     4  11  28  44  66 101 144 189 231 294 369 437
#     4  10  21  41  71 102 133 178 236 303 355 412
#     4  12  29  46  66 100 145 191 232 289 366 445
#     4  10  23  39  67 103 137 179 234 291 357 431
#     4  11  25  43  72 102 137 184 245 296 356 435
#     4  10  23  44  70 102 137 180 240 300 358 426
#
# _framework density 23.596636
#
# number of rings (size 3 to 8) (size 9 to 14) (size 15 to 20)
#    0.000    1.333    1.667    1.500   14.000    0.667 
#    0.000    1.667    0.000    0.000    0.000    0.000 
#    0.000    0.000    0.000    0.000    0.000    0.000 
#
# Total GULP energy -133881.728451 kJ/mol
# GULP energy per Si atom -5578.405352 kJ/mol
# Density = 2.354293 g / cm^3
# Si number density = 23.596636 Si / 1000 Ang^3
#
#
#
# Elastic Constant Matrix: (Units=GPa)
#
#
# Indices 1 2 3 4 5 6 
#
# 1 62.2337 38.7425 50.3012 0.0001 25.7196 0.0000
# 2 38.7425 149.4796 48.4693 -0.0005 4.3841 0.0015
# 3 50.3012 48.4693 143.4033 0.0000 18.7888 0.0000
# 4 0.0001 -0.0005 0.0000 43.1674 0.0000 -5.0389
# 5 25.7196 4.3841 18.7888 0.0000 38.3373 0.0000
# 6 0.0000 0.0015 0.0000 -5.0389 0.0000 37.1542
#
#
#
# Elastic Compliance Matrix: (Units=1/GPa)
#
#
# Indices 1 2 3 4 5 6 
#
# 1 0.032803 -0.005621 -0.007274 0.000000 -0.017799 0.000000
# 2 -0.005621 0.008483 -0.001349 0.000000 0.003462 0.000000
# 3 -0.007274 -0.001349 0.009961 0.000000 0.000153 0.000000
# 4 0.000000 0.000000 0.000000 0.023538 0.000000 0.003192
# 5 -0.017799 0.003462 0.000153 0.000000 0.037555 0.000000
# 6 0.000000 0.000000 0.000000 0.003192 0.000000 0.027348
#
#
# Mechanical properties :
#
#
# Convention : Reuss Voigt Hill
#
# Bulk Modulus (GPa) = 43.94100 70.01584 56.97842
# Shear Modulus (GPa) = 28.44742 38.23869 33.34305
#
# Velocity S-wave (km/s) = 3.47590 4.02993 3.76312
# Velocity P-wave (km/s) = 5.89672 7.16869 6.56359
#
# Compressibility (1/GPa) = 0.02275779
#
# Stress axis : x y z
#
# Youngs Moduli (GPa) = 30.48457 117.88733 100.39284
#
# Poissons Ratio (x) = 0.66268 0.73029
# Poissons Ratio (y) = 0.17136 0.13542
# Poissons Ratio (z) = 0.22176 0.15902
#
# Static dielectric constant tensor:
#      x y z
#    x 1.970540 0.000000 0.048310 
#    y 0.000000 1.995430 0.000000 
#    z 0.048310 0.000000 2.082030 
# 
# From -- ./inp_files/220993.got.cif
#   From: 2010.05.17/outbox.cif.g08.bks.cpg/sg15_111_cif.got.tgz:220993.got - 2010.06.03 18:47:42.
