data_PCOD9285595
_publ_section_title
;
Structure prediction by ZEFSAII (Michael W. Deem and Ramdas Pophale) SiO2 
 PCOD9285595
Probable space group: C 2/C
;
_chemical_formula_sum "Si O2"
_cell_formula_units_Z 40
_cell_length_a 8.962271
_cell_length_b 12.409714
_cell_length_c 19.567537
_cell_angle_alpha 90.000000
_cell_angle_beta 43.822716
_cell_angle_gamma 90.000000
_cell_volume 1506.924276
_symmetry_space_group_name_H-M "C 2/C"
_symmetry_group_IT_number 15
_symmetry_cell_setting 'monoclinic'
loop_
_space_group_symop_operation_xyz
x,y,z
-x,y,1/2-z
-x,-y,-z
x,-y,1/2+z
1/2+x,1/2+y,z
1/2-x,1/2+y,1/2-z
1/2-x,1/2-y,-z
1/2+x,1/2-y,1/2+z
loop_
_atom_site_type_symbol
_atom_site_label
_atom_site_fract_x
_atom_site_fract_y
_atom_site_fract_z
Si Si1 0.439696 0.680651 0.614553
Si Si2 0.117818 0.056246 0.355825
Si Si3 0.699865 0.912714 0.843850
Si Si4 0.783319 0.742263 0.605344
Si Si5 0.863905 0.433271 0.475841
O O1 0.332203 0.565445 0.639335
O O2 0.287756 0.784194 0.662884
O O3 0.577342 0.683032 0.639894
O O4 0.599875 0.708115 0.499774
O O5 0.136379 0.050168 0.267455
O O6 0.260519 0.156820 0.331578
O O7 0.881631 0.086032 0.464287
O O8 0.688461 0.950219 0.926031
O O9 0.465349 0.964937 0.902746
O O10 0.955658 0.661015 0.584536
#
# Coordination Sequence:
#
# PCOD9285595 Si02
#       5
#     8   8   8   8   8
#     4  10  22  42  63  91 137 172 216 283 338 396
#     4  12  23  39  70  98 129 176 227 276 334 403
#     4  10  23  40  64  98 127 175 229 268 339 412
#     4  10  22  41  67  95 128 176 223 272 342 403
#     4  10  21  42  64  93 136 173 215 281 337 401
#
# _framework density 26.544132000000001
#
# number of rings (size 3 to 8) (size 9 to 14) (size 15 to 20)
#    0.000    1.600    0.000    6.600    2.800    0.800 
#    0.000    0.000    4.400    0.000    0.000    0.000 
#    0.000    0.000    0.000    0.000    0.000    0.000 
#
# Total GULP energy -111728.433457 kJ/mol
# GULP energy per Si atom -5586.421673 kJ/mol
# Density = 2.648372 g / cm^3
# Si number density = 26.544132 Si / 1000 Ang^3
#
#
#
# Elastic Constant Matrix: (Units=GPa)
#
#
# Indices 1 2 3 4 5 6 
#
# 1 46.3869 25.3616 20.0237 0.0000 -6.9633 0.0000
# 2 25.3616 188.9668 33.8733 0.0001 -3.0221 0.0000
# 3 20.0237 33.8733 85.4836 0.0006 -4.0605 -0.0002
# 4 0.0000 0.0001 0.0006 22.1711 -0.0001 7.4255
# 5 -6.9633 -3.0221 -4.0605 -0.0001 47.0508 0.0000
# 6 0.0000 0.0000 -0.0002 7.4255 0.0000 28.1014
#
#
#
# Elastic Compliance Matrix: (Units=1/GPa)
#
#
# Indices 1 2 3 4 5 6 
#
# 1 0.025490 -0.002505 -0.004827 0.000000 0.003195 0.000000
# 2 -0.002505 0.005944 -0.001775 0.000000 -0.000142 0.000000
# 3 -0.004827 -0.001775 0.013548 0.000000 0.000341 0.000000
# 4 0.000000 0.000000 0.000000 0.049483 0.000000 -0.013075
# 5 0.003195 -0.000142 0.000341 0.000000 0.021747 0.000000
# 6 0.000000 0.000000 0.000000 -0.013075 0.000000 0.039041
#
#
# Mechanical properties :
#
#
# Convention : Reuss Voigt Hill
#
# Bulk Modulus (GPa) = 37.35614 53.26160 45.30887
# Shear Modulus (GPa) = 27.41382 35.56990 31.49186
#
# Velocity S-wave (km/s) = 3.21715 3.66461 3.44815
# Velocity P-wave (km/s) = 5.28241 6.16561 5.74102
#
# Compressibility (1/GPa) = 0.02676936
#
# Stress axis : x y z
#
# Youngs Moduli (GPa) = 39.23045 168.23440 73.80935
#
# Poissons Ratio (x) = 0.42140 0.35624
# Poissons Ratio (y) = 0.09827 0.13104
# Poissons Ratio (z) = 0.18935 0.29868
#
# Static dielectric constant tensor:
#      x y z
#    x 2.536010 0.000000 -0.106990 
#    y 0.000000 2.080880 0.000000 
#    z -0.106990 0.000000 2.042250 
# 
# From -- ./inp_files/237367.got.cif
#   From: 2010.05.17/outbox.cif.g08.bks.cpg/sg15_119_cif.got.tgz:237367.got - 2010.06.03 18:47:42.
