data_PCOD9285871
_publ_section_title
;
Structure prediction by ZEFSAII (Michael W. Deem and Ramdas Pophale) SiO2 
 PCOD9285871
Probable space group: C 2/C
;
_chemical_formula_sum "Si O2"
_cell_formula_units_Z 36
_cell_length_a 12.797347
_cell_length_b 24.832086
_cell_length_c 14.160942
_cell_angle_alpha 90.000000
_cell_angle_beta 20.920838
_cell_angle_gamma 90.000000
_cell_volume 1606.897107
_symmetry_space_group_name_H-M "C 2/C"
_symmetry_group_IT_number 15
_symmetry_cell_setting 'monoclinic'
loop_
_space_group_symop_operation_xyz
x,y,z
-x,y,1/2-z
-x,-y,-z
x,-y,1/2+z
1/2+x,1/2+y,z
1/2-x,1/2+y,1/2-z
1/2-x,1/2-y,-z
1/2+x,1/2-y,1/2+z
loop_
_atom_site_type_symbol
_atom_site_label
_atom_site_fract_x
_atom_site_fract_y
_atom_site_fract_z
Si Si1 0.500000 0.788229 0.750000
Si Si2 0.500000 0.532395 0.750000
Si Si3 0.361485 0.570230 0.272895
Si Si4 0.727629 0.123938 0.710240
Si Si5 0.797421 0.366002 0.049813
Si Si6 0.000000 0.710513 0.750000
O O1 0.750000 0.750000 0.500000
O O2 0.444541 0.830244 0.710946
O O3 0.511369 0.490187 0.826884
O O4 0.222968 0.571496 0.965858
O O5 0.500000 0.597762 0.250000
O O6 0.018343 0.576635 0.579198
O O7 0.476905 0.600073 0.083500
O O8 0.739257 0.141075 0.808667
O O9 0.617401 0.171490 0.734579
O O10 0.500000 0.346955 0.250000
O O11 0.250000 0.750000 0.500000
#
# Coordination Sequence:
#
# PCOD9285871 Si02
#       6
#     4   4   8   8   8   4
#     4  12  25  48  71  90 133 182 227 284 348 406
#     4   8  21  45  64 106 140 183 229 284 334 406
#     4  10  21  42  67  99 140 180 226 272 343 417
#     4  12  24  43  71  97 140 183 225 286 349 403
#     4  10  26  46  68 104 140 177 233 289 330 421
#     4  12  24  43  65  96 127 165 228 288 340 404
#
# _framework density 22.403424999999999
#
# number of rings (size 3 to 8) (size 9 to 14) (size 15 to 20)
#    1.333    0.000    3.333    1.333    3.111    5.333 
#    0.000    0.000    0.000    0.000    0.000    0.000 
#    0.000    0.000    0.000    0.000    0.000    0.000 
#
# Total GULP energy -100238.631103 kJ/mol
# GULP energy per Si atom -5568.812839 kJ/mol
# Density = 2.235243 g / cm^3
# Si number density = 22.403425 Si / 1000 Ang^3
#
#
#
# Elastic Constant Matrix: (Units=GPa)
#
#
# Indices 1 2 3 4 5 6 
#
# 1 109.2565 47.2097 18.8003 0.0671 35.3202 -0.0217
# 2 47.2097 155.2671 58.8465 0.0508 26.2502 -0.1322
# 3 18.8003 58.8465 126.5150 0.2421 28.5399 -0.3597
# 4 0.0671 0.0508 0.2421 17.4352 0.0990 18.0576
# 5 35.3202 26.2502 28.5399 0.0990 37.3997 0.0234
# 6 -0.0217 -0.1322 -0.3597 18.0576 0.0234 -2.6865
#
#
#
# Elastic Compliance Matrix: (Units=1/GPa)
#
#
# Indices 1 2 3 4 5 6 
#
# 1 0.014290 -0.002969 0.002212 0.000049 -0.013100 -0.000050
# 2 -0.002969 0.008783 -0.003486 -0.000002 -0.000701 0.000039
# 3 0.002212 -0.003486 0.011011 0.000168 -0.008045 -0.000264
# 4 0.000049 -0.000002 0.000168 0.007207 -0.000222 0.048419
# 5 -0.013100 -0.000701 -0.008045 -0.000222 0.045741 0.000122
# 6 -0.000050 0.000039 -0.000264 0.048419 0.000122 -0.046747
#
#
# Mechanical properties :
#
#
# Convention : Reuss Voigt Hill
#
# Bulk Modulus (GPa) = 39.06454 71.19464 55.12959
# Shear Modulus (GPa) = 87.25685 28.17515 57.71600
#
# Velocity S-wave (km/s) = 6.24760 3.55015 5.08115
# Velocity P-wave (km/s) = 8.33775 6.97511 7.68669
#
# Compressibility (1/GPa) = 0.02559866
#
# Stress axis : x y z
#
# Youngs Moduli (GPa) = 69.98066 113.85893 90.82134
#
# Poissons Ratio (x) = 0.33800 -0.20092
# Poissons Ratio (y) = 0.20775 0.31659
# Poissons Ratio (z) = -0.15481 0.39689
#
# Static dielectric constant tensor:
#      x y z
#    x 1.842390 -0.000130 -0.003380 
#    y -0.000130 1.901730 0.000030 
#    z -0.003380 0.000030 1.844430 
# 
# From -- ./inp_files/157033.got.cif
#   From: 2010.05.17/outbox.cif.g08.bks.cpg/sg15_79_cif.got.tgz:157033.got - 2010.06.03 18:47:42.
