data_PCOD9285916
_publ_section_title
;
Structure prediction by ZEFSAII (Michael W. Deem and Ramdas Pophale) SiO2 
 PCOD9285916
Probable space group: C 2/C
;
_chemical_formula_sum "Si O2"
_cell_formula_units_Z 52
_cell_length_a 22.866991
_cell_length_b 5.355506
_cell_length_c 17.161121
_cell_angle_alpha 90.000000
_cell_angle_beta 69.553794
_cell_angle_gamma 90.000000
_cell_volume 1969.223656
_symmetry_space_group_name_H-M "C 2/C"
_symmetry_group_IT_number 15
_symmetry_cell_setting 'monoclinic'
loop_
_space_group_symop_operation_xyz
x,y,z
-x,y,1/2-z
-x,-y,-z
x,-y,1/2+z
1/2+x,1/2+y,z
1/2-x,1/2+y,1/2-z
1/2-x,1/2-y,-z
1/2+x,1/2-y,1/2+z
loop_
_atom_site_type_symbol
_atom_site_label
_atom_site_fract_x
_atom_site_fract_y
_atom_site_fract_z
Si Si1 0.697724 0.365633 0.967064
Si Si2 0.478095 0.900398 0.593584
Si Si3 0.209146 0.303562 0.146195
Si Si4 0.157840 0.347554 0.331424
Si Si5 0.500000 0.906895 0.250000
Si Si6 0.927993 0.009441 0.700822
Si Si7 0.862302 0.208136 0.863610
O O1 0.724193 0.628798 0.923153
O O2 0.689751 0.183448 0.898483
O O3 0.750000 0.250000 0.000000
O O4 0.634552 0.367388 0.047334
O O5 0.476735 0.605472 0.614381
O O6 0.500000 0.000000 0.500000
O O7 0.404320 0.981928 0.634733
O O8 0.514054 0.995917 0.654515
O O9 0.205072 0.392943 0.238425
O O10 0.165280 0.514284 0.127386
O O11 0.181313 0.026795 0.146820
O O12 0.130261 0.075580 0.322379
O O13 0.554685 0.718850 0.251887
O O14 0.916588 0.213872 0.773314
#
# Coordination Sequence:
#
# PCOD9285916 Si02
#       7
#     8   8   8   8   4   8   8
#     4  10  23  41  64 100 135 182 235 289 355 436
#     4  11  24  45  71 106 139 188 252 314 381 460
#     4  10  21  43  64  94 134 178 228 281 354 425
#     4  10  23  43  65  95 138 188 232 296 375 435
#     4  10  24  42  72  96 136 186 228 302 388 438
#     4  10  22  43  66  96 134 180 230 299 372 444
#     4  10  21  42  68  94 135 175 228 287 350 423
#
# _framework density 26.406345999999999
#
# number of rings (size 3 to 8) (size 9 to 14) (size 15 to 20)
#    0.000    1.846    1.538    0.923    0.000   11.077 
#   16.615    0.000    0.000    0.000    0.000    0.000 
#    0.000    0.000    0.000    0.000    0.000    0.000 
#
# Total GULP energy -144869.482064 kJ/mol
# GULP energy per Si atom -5571.903156 kJ/mol
# Density = 2.634624 g / cm^3
# Si number density = 26.406346 Si / 1000 Ang^3
#
#
#
# Elastic Constant Matrix: (Units=GPa)
#
#
# Indices 1 2 3 4 5 6 
#
# 1 67.5036 10.6012 43.3981 0.0000 35.9394 0.0000
# 2 10.6012 74.9036 31.7569 0.0000 9.3291 0.0000
# 3 43.3981 31.7569 220.2175 0.0000 6.6529 0.0000
# 4 0.0000 0.0000 0.0000 41.9758 0.0000 -4.9762
# 5 35.9394 9.3291 6.6529 0.0000 46.7537 0.0000
# 6 0.0000 0.0000 0.0000 -4.9762 0.0000 23.9302
#
#
#
# Elastic Compliance Matrix: (Units=1/GPa)
#
#
# Indices 1 2 3 4 5 6 
#
# 1 0.030174 0.000826 -0.005383 0.000000 -0.022593 0.000000
# 2 0.000826 0.014553 -0.002164 0.000000 -0.003231 0.000000
# 3 -0.005383 -0.002164 0.005801 0.000000 0.003744 0.000000
# 4 0.000000 0.000000 0.000000 0.024425 0.000000 0.005079
# 5 -0.022593 -0.003231 0.003744 0.000000 0.038868 0.000000
# 6 0.000000 0.000000 0.000000 0.005079 0.000000 0.042844
#
#
# Mechanical properties :
#
#
# Convention : Reuss Voigt Hill
#
# Bulk Modulus (GPa) = 26.96448 59.34857 43.15653
# Shear Modulus (GPa) = 27.40181 40.98984 34.19582
#
# Velocity S-wave (km/s) = 3.22483 3.94416 3.60249
# Velocity P-wave (km/s) = 4.90913 6.57767 5.80368
#
# Compressibility (1/GPa) = 0.03708582
#
# Stress axis : x y z
#
# Youngs Moduli (GPa) = 33.14132 68.71243 172.39363
#
# Poissons Ratio (x) = -0.05673 0.92797
# Poissons Ratio (y) = -0.02736 0.37303
# Poissons Ratio (z) = 0.17839 0.14868
#
# Static dielectric constant tensor:
#      x y z
#    x 2.286030 0.000000 -0.152990 
#    y 0.000000 2.287600 0.000000 
#    z -0.152990 0.000000 2.173830 
# 
# From -- ./inp_files/220891.got.cif
#   From: 2010.05.17/outbox.cif.g08.bks.cpg/sg15_111_cif.got.tgz:220891.got - 2010.06.03 18:47:42.
