data_PCOD9285329
_publ_section_title
;
Structure prediction by ZEFSAII (Michael W. Deem and Ramdas Pophale) SiO2 
 PCOD9285329
Probable space group: C 2/C
;
_chemical_formula_sum "Si O2"
_cell_formula_units_Z 64
_cell_length_a 26.134326
_cell_length_b 15.484798
_cell_length_c 12.383200
_cell_angle_alpha 90.000000
_cell_angle_beta 145.490349
_cell_angle_gamma 90.000000
_cell_volume 2839.122831
_symmetry_space_group_name_H-M "C 2/C"
_symmetry_group_IT_number 15
_symmetry_cell_setting 'monoclinic'
loop_
_space_group_symop_operation_xyz
x,y,z
-x,y,1/2-z
-x,-y,-z
x,-y,1/2+z
1/2+x,1/2+y,z
1/2-x,1/2+y,1/2-z
1/2-x,1/2-y,-z
1/2+x,1/2-y,1/2+z
loop_
_atom_site_type_symbol
_atom_site_label
_atom_site_fract_x
_atom_site_fract_y
_atom_site_fract_z
Si Si1 0.363019 0.839913 0.212127
Si Si2 0.154268 0.861270 0.797806
Si Si3 0.990787 0.419598 0.613702
Si Si4 0.081734 0.996397 0.310812
Si Si5 0.847905 0.342301 0.735509
Si Si6 0.295548 0.498564 0.284201
Si Si7 0.650755 0.355397 0.284385
Si Si8 0.610763 0.075924 0.971551
O O1 0.372616 0.738068 0.251589
O O2 0.414477 0.886263 0.399309
O O3 0.256314 0.861945 0.024130
O O4 0.398693 0.866929 0.154047
O O5 0.085224 0.916671 0.748257
O O6 0.164125 0.916791 0.705505
O O7 0.964567 0.518275 0.596946
O O8 0.000000 0.377945 0.750000
O O9 0.083835 0.402894 0.712723
O O10 0.083830 0.913050 0.239033
O O11 0.000000 0.994860 0.250000
O O12 0.173694 0.997045 0.539939
O O13 0.748134 0.351821 0.513348
O O14 0.878976 0.242828 0.779677
O O15 0.850364 0.364351 0.865966
O O16 0.332817 0.411496 0.294773
O O17 0.188719 0.505826 0.082008
#
# Coordination Sequence:
#
# PCOD9285329 Si02
#       8
#     8   8   8   8   8   8   8   8
#     4  10  24  45  71 101 142 178 235 283 334 424
#     4   9  22  44  68 101 133 184 229 281 340 406
#     4  12  28  43  69 102 143 182 224 283 352 412
#     4  11  23  40  68  95 132 176 228 288 344 407
#     4  11  25  44  67 100 137 179 232 282 346 418
#     4  10  21  41  70  93 135 179 224 281 353 412
#     4  10  24  45  65  97 133 177 234 282 342 419
#     4  11  24  43  70 102 138 185 228 284 348 417
#
# _framework density 22.542172999999998
#
# number of rings (size 3 to 8) (size 9 to 14) (size 15 to 20)
#    0.000    1.500    1.250    1.875    8.750    5.500 
#    6.750    0.000    0.000    0.000    0.000    0.000 
#    0.000    0.000    0.000    0.000    0.000    0.000 
#
# Total GULP energy -178841.020350 kJ/mol
# GULP energy per Si atom -5588.781886 kJ/mol
# Density = 2.249087 g / cm^3
# Si number density = 22.542173 Si / 1000 Ang^3
#
#
#
# Elastic Constant Matrix: (Units=GPa)
#
#
# Indices 1 2 3 4 5 6 
#
# 1 94.2407 37.2211 -4.8251 0.0000 -1.9314 0.0000
# 2 37.2211 110.7349 18.4264 0.0000 1.9675 0.0000
# 3 -4.8251 18.4264 71.5814 0.0000 -28.7251 0.0000
# 4 0.0000 0.0000 0.0000 22.9484 0.0000 0.8756
# 5 -1.9314 1.9675 -28.7251 0.0000 39.1187 0.0000
# 6 0.0000 0.0000 0.0000 0.8756 0.0000 0.5632
#
#
#
# Elastic Compliance Matrix: (Units=1/GPa)
#
#
# Indices 1 2 3 4 5 6 
#
# 1 0.012823 -0.004961 0.003538 0.000000 0.003481 0.000000
# 2 -0.004961 0.011645 -0.005197 0.000000 -0.004647 0.000000
# 3 0.003538 -0.005197 0.022289 0.000000 0.016803 0.000000
# 4 0.000000 0.000000 0.000000 0.046324 0.000000 -0.072020
# 5 0.003481 -0.004647 0.016803 0.000000 0.038308 0.000000
# 6 0.000000 0.000000 0.000000 -0.072020 0.000000 1.887508
#
#
# Mechanical properties :
#
#
# Convention : Reuss Voigt Hill
#
# Bulk Modulus (GPa) = 29.83399 42.02244 35.92822
# Shear Modulus (GPa) = 2.44701 27.57503 15.01102
#
# Velocity S-wave (km/s) = 1.04302 3.50131 2.58332
# Velocity P-wave (km/s) = 3.83588 5.91843 4.98707
#
# Compressibility (1/GPa) = 0.03351881
#
# Stress axis : x y z
#
# Youngs Moduli (GPa) = 77.98555 85.87129 44.86433
#
# Poissons Ratio (x) = 0.42598 -0.15873
# Poissons Ratio (y) = 0.38686 0.23315
# Poissons Ratio (z) = -0.27592 0.44626
#
# Static dielectric constant tensor:
#      x y z
#    x 1.831770 0.000000 0.049120 
#    y 0.000000 1.803540 0.000000 
#    z 0.049120 0.000000 1.934970 
# 
# From -- ./inp_files/123556.got.cif
#   From: 2010.05.17/outbox.cif.g08.bks.cpg/sg15_62_cif.got.tgz:123556.got - 2010.06.03 18:47:42.
