data_PCOD9285828
_publ_section_title
;
Structure prediction by ZEFSAII (Michael W. Deem and Ramdas Pophale) SiO2 
 PCOD9285828
Probable space group: C 2/C
;
_chemical_formula_sum "Si O2"
_cell_formula_units_Z 44
_cell_length_a 21.343611
_cell_length_b 14.379812
_cell_length_c 16.062970
_cell_angle_alpha 90.000000
_cell_angle_beta 23.933995
_cell_angle_gamma 90.000000
_cell_volume 2000.022104
_symmetry_space_group_name_H-M "C 2/C"
_symmetry_group_IT_number 15
_symmetry_cell_setting 'monoclinic'
loop_
_space_group_symop_operation_xyz
x,y,z
-x,y,1/2-z
-x,-y,-z
x,-y,1/2+z
1/2+x,1/2+y,z
1/2-x,1/2+y,1/2-z
1/2-x,1/2-y,-z
1/2+x,1/2-y,1/2+z
loop_
_atom_site_type_symbol
_atom_site_label
_atom_site_fract_x
_atom_site_fract_y
_atom_site_fract_z
Si Si1 0.094200 0.960260 0.552530
Si Si2 0.104082 0.717781 0.232937
Si Si3 0.818203 0.157148 0.116594
Si Si4 0.867922 0.183604 0.247882
Si Si5 0.000000 0.545460 0.250000
Si Si6 0.141521 0.367613 0.167212
O O1 0.224018 0.892540 0.430806
O O2 0.000000 0.991908 0.750000
O O3 0.980708 0.902241 0.631422
O O4 0.167716 0.047428 0.416942
O O5 0.977146 0.797929 0.389835
O O6 0.021624 0.627036 0.295161
O O7 0.250000 0.750000 0.000000
O O8 0.176538 0.696766 0.235247
O O9 0.818378 0.181622 0.213077
O O10 0.942802 0.280209 0.188523
O O11 0.720276 0.168048 0.486455
O O12 0.935141 0.464088 0.265440
#
# Coordination Sequence:
#
# PCOD9285828 Si02
#       6
#     8   8   8   8   4   8
#     4  10  21  42  67  95 130 181 225 273 342 412
#     4  12  25  45  69 101 138 183 226 288 353 409
#     4  12  25  43  71 103 139 175 240 286 344 402
#     4  10  25  43  68  99 137 182 226 284 335 416
#     4  12  24  44  72  96 134 188 230 278 344 422
#     4  10  24  43  68  95 141 180 227 271 355 406
#
# _framework density 21.999756000000001
#
# number of rings (size 3 to 8) (size 9 to 14) (size 15 to 20)
#    0.000    1.091    3.636    1.636   11.455    0.000 
#    3.273    1.818    0.000    0.000    0.000    0.000 
#    0.000    0.000    0.000    0.000    0.000    0.000 
#
# Total GULP energy -122562.241385 kJ/mol
# GULP energy per Si atom -5571.010972 kJ/mol
# Density = 2.194968 g / cm^3
# Si number density = 21.999756 Si / 1000 Ang^3
#
#
#
# Elastic Constant Matrix: (Units=GPa)
#
#
# Indices 1 2 3 4 5 6 
#
# 1 177.6143 51.1159 5.9576 0.0002 7.8157 0.0001
# 2 51.1159 168.9602 -4.7906 0.0002 12.4559 0.0002
# 3 5.9576 -4.7906 37.9977 0.0001 9.6607 0.0002
# 4 0.0002 0.0002 0.0001 0.5296 -0.0003 -18.8568
# 5 7.8157 12.4559 9.6607 -0.0003 18.6208 -0.0003
# 6 0.0001 0.0002 0.0002 -18.8568 -0.0003 6.2002
#
#
#
# Elastic Compliance Matrix: (Units=1/GPa)
#
#
# Indices 1 2 3 4 5 6 
#
# 1 0.006234 -0.001850 -0.000991 0.000000 -0.000865 0.000000
# 2 -0.001850 0.006927 0.002470 0.000000 -0.005139 0.000000
# 3 -0.000991 0.002470 0.031216 0.000001 -0.017432 0.000000
# 4 0.000000 0.000000 0.000001 -0.017600 -0.000002 -0.053526
# 5 -0.000865 -0.005139 -0.017432 -0.000002 0.066547 -0.000001
# 6 0.000000 0.000000 0.000000 -0.053526 -0.000001 -0.001503
#
#
# Mechanical properties :
#
#
# Convention : Reuss Voigt Hill
#
# Bulk Modulus (GPa) = 22.91754 54.34866 38.63310
# Shear Modulus (GPa) = 46.68144 27.22275 36.95209
#
# Velocity S-wave (km/s) = 4.61141 3.52150 4.10281
# Velocity P-wave (km/s) = 6.22843 6.42592 6.32795
#
# Compressibility (1/GPa) = 0.04363470
#
# Stress axis : x y z
#
# Youngs Moduli (GPa) = 160.41138 144.35884 32.03485
#
# Poissons Ratio (x) = 0.26711 0.03174
# Poissons Ratio (y) = 0.29681 -0.07912
# Poissons Ratio (z) = 0.15894 -0.35655
#
# Static dielectric constant tensor:
#      x y z
#    x 1.800310 0.000000 -0.018490 
#    y 0.000000 1.782410 0.000000 
#    z -0.018490 0.000000 1.850240 
# 
# From -- ./inp_files/47228.got.cif
#   From: 2010.05.17/outbox.cif.g08.bks.cpg/sg15_24_cif.got.tgz:47228.got - 2010.06.03 18:47:42.
