data_PCOD9285268
_publ_section_title
;
Structure prediction by ZEFSAII (Michael W. Deem and Ramdas Pophale) SiO2 
 PCOD9285268
Probable space group: C 2/C
;
_chemical_formula_sum "Si O2"
_cell_formula_units_Z 40
_cell_length_a 19.729910
_cell_length_b 5.224998
_cell_length_c 23.243506
_cell_angle_alpha 90.000000
_cell_angle_beta 134.353873
_cell_angle_gamma 90.000000
_cell_volume 1713.328385
_symmetry_space_group_name_H-M "C 2/C"
_symmetry_group_IT_number 15
_symmetry_cell_setting 'monoclinic'
loop_
_space_group_symop_operation_xyz
x,y,z
-x,y,1/2-z
-x,-y,-z
x,-y,1/2+z
1/2+x,1/2+y,z
1/2-x,1/2+y,1/2-z
1/2-x,1/2-y,-z
1/2+x,1/2-y,1/2+z
loop_
_atom_site_type_symbol
_atom_site_label
_atom_site_fract_x
_atom_site_fract_y
_atom_site_fract_z
Si Si1 0.139113 0.303464 0.363574
Si Si2 0.949486 0.666206 0.800131
Si Si3 0.688520 0.842137 0.718921
Si Si4 0.513653 0.431812 0.073935
Si Si5 0.316102 0.563802 0.504243
O O1 0.098718 0.178786 0.281314
O O2 0.242026 0.430614 0.416476
O O3 0.047232 0.455550 0.334096
O O4 0.152622 0.124153 0.426438
O O5 0.872455 0.445042 0.763887
O O6 0.962670 0.838822 0.865584
O O7 0.751544 0.589230 0.765541
O O8 0.602660 0.757734 0.627082
O O9 0.411145 0.326393 0.032948
O O10 0.500000 0.500000 0.000000
O O11 0.250000 0.750000 0.500000
#
# Coordination Sequence:
#
# PCOD9285268 Si02
#       5
#     8   8   8   8   8
#     4   9  21  41  71 103 139 189 245 307 368 442
#     4  10  22  45  69 103 144 192 253 303 369 437
#     4  12  26  48  73 103 144 197 248 299 367 446
#     4  11  26  45  71 109 153 197 247 312 374 451
#     4  10  21  41  69 106 144 191 241 307 374 441
#
# _framework density 23.346371000000001
#
# number of rings (size 3 to 8) (size 9 to 14) (size 15 to 20)
#    0.000    1.600    2.000    1.200    2.800    2.400 
#    3.600    4.000    0.000    0.000    0.000    0.000 
#    0.000    0.000    0.000    0.000    0.000    0.000 
#
# Total GULP energy -111395.255084 kJ/mol
# GULP energy per Si atom -5569.762754 kJ/mol
# Density = 2.329323 g / cm^3
# Si number density = 23.346371 Si / 1000 Ang^3
#
#
#
# Elastic Constant Matrix: (Units=GPa)
#
#
# Indices 1 2 3 4 5 6 
#
# 1 133.6477 51.1472 74.4516 -0.0061 40.1429 -0.0103
# 2 51.1472 73.7743 40.7604 -0.0167 23.4911 -0.0242
# 3 74.4516 40.7604 167.1561 0.0010 -0.5178 0.0049
# 4 -0.0061 -0.0167 0.0010 -77.5512 0.0001 -52.1749
# 5 40.1429 23.4911 -0.5178 0.0001 56.8734 0.0015
# 6 -0.0103 -0.0242 0.0049 -52.1749 0.0015 -3.3489
#
#
#
# Elastic Compliance Matrix: (Units=1/GPa)
#
#
# Indices 1 2 3 4 5 6 
#
# 1 0.014936 -0.004486 -0.005586 -0.000002 -0.008740 0.000002
# 2 -0.004486 0.019856 -0.002860 -0.000009 -0.005061 0.000008
# 3 -0.005586 -0.002860 0.009184 0.000004 0.005207 -0.000004
# 4 -0.000002 -0.000009 0.000004 0.001360 0.000006 -0.021188
# 5 -0.008740 -0.005061 0.005207 0.000006 0.025890 -0.000006
# 6 0.000002 0.000008 -0.000004 -0.021188 -0.000006 0.031493
#
#
# Mechanical properties :
#
#
# Convention : Reuss Voigt Hill
#
# Bulk Modulus (GPa) = 55.20640 78.58849 66.89745
# Shear Modulus (GPa) = 37.14178 9.07593 23.10885
#
# Velocity S-wave (km/s) = 3.99294 1.97382 3.14956
# Velocity P-wave (km/s) = 6.70493 6.23936 6.47633
#
# Compressibility (1/GPa) = 0.01811384
#
# Stress axis : x y z
#
# Youngs Moduli (GPa) = 66.95214 50.36155 108.88777
#
# Poissons Ratio (x) = 0.22591 0.60822
# Poissons Ratio (y) = 0.30034 0.31137
# Poissons Ratio (z) = 0.37398 0.14401
#
# Static dielectric constant tensor:
#      x y z
#    x 1.819640 0.000000 -0.104100 
#    y 0.000000 2.057640 0.000010 
#    z -0.104100 0.000010 1.956130 
# 
# From -- ./inp_files/279088.got.cif
#   From: 2010.05.17/outbox.cif.g08.bks.cpg/sg15_140_cif.got.tgz:279088.got - 2010.06.03 18:47:42.
