data_PCOD9285121
_publ_section_title
;
Structure prediction by ZEFSAII (Michael W. Deem and Ramdas Pophale) SiO2 
 PCOD9285121
Probable space group: C 2/C
;
_chemical_formula_sum "Si O2"
_cell_formula_units_Z 32
_cell_length_a 7.749407
_cell_length_b 12.240137
_cell_length_c 13.960304
_cell_angle_alpha 90.000000
_cell_angle_beta 100.285719
_cell_angle_gamma 90.000000
_cell_volume 1302.907666
_symmetry_space_group_name_H-M "C 2/C"
_symmetry_group_IT_number 15
_symmetry_cell_setting 'monoclinic'
loop_
_space_group_symop_operation_xyz
x,y,z
-x,y,1/2-z
-x,-y,-z
x,-y,1/2+z
1/2+x,1/2+y,z
1/2-x,1/2+y,1/2-z
1/2-x,1/2-y,-z
1/2+x,1/2-y,1/2+z
loop_
_atom_site_type_symbol
_atom_site_label
_atom_site_fract_x
_atom_site_fract_y
_atom_site_fract_z
Si Si1 0.634566 0.557120 0.898264
Si Si2 0.759445 0.603605 0.703792
Si Si3 0.749689 0.189096 0.101241
Si Si4 0.095079 0.430437 0.925122
O O1 0.744148 0.591812 0.815486
O O2 0.436577 0.591949 0.859812
O O3 0.648416 0.424931 0.898852
O O4 0.724716 0.602426 0.003576
O O5 0.824733 0.723000 0.681755
O O6 0.862571 0.507807 0.659732
O O7 0.549492 0.159924 0.111867
O O8 0.750000 0.250000 0.000000
O O9 0.000000 0.500000 0.000000
#
# Coordination Sequence:
#
# PCOD9285121 Si02
#       4
#     8   8   8   8
#     4  10  24  43  65 101 130 170 217 273 321 384
#     4  11  23  44  65  96 140 160 221 275 313 395
#     4  11  23  44  66  94 130 175 218 263 328 387
#     4  10  21  41  67  94 128 172 212 268 320 384
#
# _framework density 24.560452999999999
#
# number of rings (size 3 to 8) (size 9 to 14) (size 15 to 20)
#    0.000    1.500    5.000    0.750    0.000    9.000 
#    9.000    0.000    0.000    0.000    0.000    0.000 
#    0.000    0.000    0.000    0.000    0.000    0.000 
#
# Total GULP energy -89607.933280 kJ/mol
# GULP energy per Si atom -5600.495830 kJ/mol
# Density = 2.450455 g / cm^3
# Si number density = 24.560453 Si / 1000 Ang^3
#
#
#
# Elastic Constant Matrix: (Units=GPa)
#
#
# Indices 1 2 3 4 5 6 
#
# 1 120.1458 19.1931 28.2529 0.0000 15.3610 0.0000
# 2 19.1931 129.1046 27.1503 0.0000 3.3402 0.0000
# 3 28.2529 27.1503 99.9275 0.0000 -3.7670 0.0000
# 4 0.0000 0.0000 0.0000 24.1476 0.0000 -5.2912
# 5 15.3610 3.3402 -3.7670 0.0000 49.0011 0.0000
# 6 0.0000 0.0000 0.0000 -5.2912 0.0000 28.7768
#
#
#
# Elastic Compliance Matrix: (Units=1/GPa)
#
#
# Indices 1 2 3 4 5 6 
#
# 1 0.009452 -0.000783 -0.002577 0.000000 -0.003108 0.000000
# 2 -0.000783 0.008306 -0.002054 0.000000 -0.000479 0.000000
# 3 -0.002577 -0.002054 0.011362 0.000000 0.001821 0.000000
# 4 0.000000 0.000000 0.000000 0.043150 0.000000 0.007934
# 5 -0.003108 -0.000479 0.001821 0.000000 0.021555 0.000000
# 6 0.000000 0.000000 0.000000 0.007934 0.000000 0.036209
#
#
# Mechanical properties :
#
#
# Convention : Reuss Voigt Hill
#
# Bulk Modulus (GPa) = 54.66265 55.37452 55.01858
# Shear Modulus (GPa) = 34.02325 38.69055 36.35690
#
# Velocity S-wave (km/s) = 3.72598 3.97333 3.85164
# Velocity P-wave (km/s) = 6.38868 6.60644 6.49847
#
# Compressibility (1/GPa) = 0.01829403
#
# Stress axis : x y z
#
# Youngs Moduli (GPa) = 105.80303 120.39102 88.00975
#
# Poissons Ratio (x) = 0.09424 0.22678
# Poissons Ratio (y) = 0.08282 0.18073
# Poissons Ratio (z) = 0.27263 0.24723
#
# Static dielectric constant tensor:
#      x y z
#    x 2.040500 0.000000 0.076880 
#    y 0.000000 1.939800 0.000000 
#    z 0.076880 0.000000 1.894210 
# 
# From -- ./inp_files/131739.got.cif
#   From: 2010.05.17/outbox.cif.g08.bks.cpg/sg15_66_cif.got.tgz:131739.got - 2010.06.03 18:47:42.
