data_PCOD9285500
_publ_section_title
;
Structure prediction by ZEFSAII (Michael W. Deem and Ramdas Pophale) SiO2 
 PCOD9285500
Probable space group: C 2/C
;
_chemical_formula_sum "Si O2"
_cell_formula_units_Z 56
_cell_length_a 7.168979
_cell_length_b 22.216264
_cell_length_c 15.012723
_cell_angle_alpha 90.000000
_cell_angle_beta 95.529965
_cell_angle_gamma 90.000000
_cell_volume 2379.917239
_symmetry_space_group_name_H-M "C 2/C"
_symmetry_group_IT_number 15
_symmetry_cell_setting 'monoclinic'
loop_
_space_group_symop_operation_xyz
x,y,z
-x,y,1/2-z
-x,-y,-z
x,-y,1/2+z
1/2+x,1/2+y,z
1/2-x,1/2+y,1/2-z
1/2-x,1/2-y,-z
1/2+x,1/2-y,1/2+z
loop_
_atom_site_type_symbol
_atom_site_label
_atom_site_fract_x
_atom_site_fract_y
_atom_site_fract_z
Si Si1 0.331246 0.376961 0.594213
Si Si2 0.653890 0.077469 0.908018
Si Si3 0.774299 0.321069 0.223900
Si Si4 0.227823 0.189264 0.249748
Si Si5 0.777780 0.100252 0.616028
Si Si6 0.044458 0.993062 0.606811
Si Si7 0.172384 0.811211 0.544118
O O1 0.208248 0.408256 0.512206
O O2 0.212224 0.359334 0.674897
O O3 0.485895 0.426682 0.630645
O O4 0.449219 0.320521 0.557407
O O5 0.746128 0.132507 0.857198
O O6 0.434260 0.078062 0.884827
O O7 0.744635 0.016098 0.876148
O O8 0.706080 0.253666 0.210357
O O9 0.690028 0.349001 0.309060
O O10 0.000000 0.317219 0.250000
O O11 0.265318 0.184572 0.146526
O O12 0.000000 0.187621 0.250000
O O13 0.911940 0.044383 0.640782
O O14 0.793644 0.132978 0.521196
O O15 0.000000 0.000000 0.500000
O O16 0.250000 0.750000 0.500000
#
# Coordination Sequence:
#
# PCOD9285500 Si02
#       7
#     8   8   8   8   8   8   8
#     4  10  22  42  61  95 128 167 215 263 323 387
#     4  10  22  39  65  91 125 166 210 266 315 375
#     4   9  19  37  59  93 123 159 215 258 318 377
#     4   9  19  36  62  88 127 168 207 266 323 376
#     4  11  21  40  65  91 125 170 211 268 315 374
#     4  10  21  42  62  95 126 165 223 254 317 391
#     4  11  20  39  65  90 125 173 211 260 324 381
#
# _framework density 23.53023
#
# number of rings (size 3 to 8) (size 9 to 14) (size 15 to 20)
#    0.000    2.000    4.286    0.000    2.000    3.429 
#    7.714    0.714    0.000    0.000    0.000    0.000 
#    0.000    0.000    0.000    0.000    0.000    0.000 
#
# Total GULP energy -156389.970422 kJ/mol
# GULP energy per Si atom -5585.356086 kJ/mol
# Density = 2.347667 g / cm^3
# Si number density = 23.530230 Si / 1000 Ang^3
#
#
#
# Elastic Constant Matrix: (Units=GPa)
#
#
# Indices 1 2 3 4 5 6 
#
# 1 73.9175 11.3666 10.4355 0.0000 -2.9850 0.0000
# 2 11.3666 103.2314 46.0523 0.0000 -6.9927 0.0000
# 3 10.4355 46.0523 125.8205 0.0000 -24.1622 0.0000
# 4 0.0000 0.0000 0.0000 20.7593 0.0000 2.8283
# 5 -2.9850 -6.9927 -24.1622 0.0000 22.9974 0.0000
# 6 0.0000 0.0000 0.0000 2.8283 0.0000 26.3948
#
#
#
# Elastic Compliance Matrix: (Units=1/GPa)
#
#
# Indices 1 2 3 4 5 6 
#
# 1 0.013827 -0.001227 -0.000532 0.000000 0.000863 0.000000
# 2 -0.001227 0.011711 -0.004424 0.000000 -0.001246 0.000000
# 3 -0.000532 -0.004424 0.011700 0.000000 0.010879 0.000000
# 4 0.000000 0.000000 0.000000 0.048885 0.000000 -0.005238
# 5 0.000863 -0.001246 0.010879 0.000000 0.054646 0.000000
# 6 0.000000 0.000000 0.000000 -0.005238 0.000000 0.038448
#
#
# Mechanical properties :
#
#
# Convention : Reuss Voigt Hill
#
# Bulk Modulus (GPa) = 40.20440 48.74202 44.47321
# Shear Modulus (GPa) = 25.01576 29.70463 27.36020
#
# Velocity S-wave (km/s) = 3.26411 3.55689 3.41364
# Velocity P-wave (km/s) = 5.59725 6.13418 5.87186
#
# Compressibility (1/GPa) = 0.02487290
#
# Stress axis : x y z
#
# Youngs Moduli (GPa) = 72.32123 85.38811 85.46734
#
# Poissons Ratio (x) = 0.10474 0.04549
# Poissons Ratio (y) = 0.08871 0.37812
# Poissons Ratio (z) = 0.03849 0.37777
#
# Static dielectric constant tensor:
#      x y z
#    x 1.940680 0.000000 -0.012880 
#    y 0.000000 1.915370 0.000000 
#    z -0.012880 0.000000 1.936250 
# 
# From -- ./inp_files/136465.got.cif
#   From: 2010.05.17/outbox.cif.g08.bks.cpg/sg15_69_cif.got.tgz:136465.got - 2010.06.03 18:47:42.
