data_PCOD9285712
_publ_section_title
;
Structure prediction by ZEFSAII (Michael W. Deem and Ramdas Pophale) SiO2 
 PCOD9285712
Probable space group: C 2/C
;
_chemical_formula_sum "Si O2"
_cell_formula_units_Z 56
_cell_length_a 11.633120
_cell_length_b 26.220005
_cell_length_c 9.092712
_cell_angle_alpha 90.000000
_cell_angle_beta 106.243912
_cell_angle_gamma 90.000000
_cell_volume 2662.745428
_symmetry_space_group_name_H-M "C 2/C"
_symmetry_group_IT_number 15
_symmetry_cell_setting 'monoclinic'
loop_
_space_group_symop_operation_xyz
x,y,z
-x,y,1/2-z
-x,-y,-z
x,-y,1/2+z
1/2+x,1/2+y,z
1/2-x,1/2+y,1/2-z
1/2-x,1/2-y,-z
1/2+x,1/2-y,1/2+z
loop_
_atom_site_type_symbol
_atom_site_label
_atom_site_fract_x
_atom_site_fract_y
_atom_site_fract_z
Si Si1 0.689123 0.566855 0.434998
Si Si2 0.092785 0.723318 0.069012
Si Si3 0.202963 0.611192 0.612353
Si Si4 0.213695 0.829459 0.064132
Si Si5 0.627415 0.476426 0.228472
Si Si6 0.028653 0.447233 0.431403
Si Si7 0.668536 0.202928 0.427162
O O1 0.655950 0.625867 0.444050
O O2 0.649650 0.535302 0.278429
O O3 0.639791 0.536339 0.560744
O O4 0.833482 0.566090 0.495532
O O5 0.122417 0.783507 0.064281
O O6 0.138537 0.706202 0.245485
O O7 0.952911 0.710309 0.021072
O O8 0.171394 0.694826 0.975181
O O9 0.239994 0.642708 0.771501
O O10 0.274249 0.558327 0.652889
O O11 0.228868 0.649263 0.488909
O O12 0.063988 0.595851 0.550993
O O13 0.500000 0.461510 0.250000
O O14 0.000000 0.453965 0.250000
O O15 0.000000 0.500000 0.500000
O O16 0.750000 0.250000 0.500000
#
# Coordination Sequence:
#
# PCOD9285712 Si02
#       7
#     8   8   8   8   8   8   8
#     4  11  22  41  63  92 125 169 209 261 311 374
#     4  10  23  42  62  94 128 163 210 267 310 375
#     4  11  23  40  67  94 124 173 208 260 323 373
#     4  10  21  42  66  88 124 169 212 256 318 374
#     4  11  24  41  63  90 130 168 212 252 307 384
#     4  12  21  40  63  96 128 161 211 264 317 377
#     4  11  23  40  63  94 131 161 211 261 312 373
#
# _framework density 21.030923999999999
#
# number of rings (size 3 to 8) (size 9 to 14) (size 15 to 20)
#    0.000    1.143    5.714    1.286    0.000    3.429 
#    5.143    1.429    0.000    0.000    0.000    0.000 
#    0.000    0.000    0.000    0.000    0.000    0.000 
#
# Total GULP energy -156528.379904 kJ/mol
# GULP energy per Si atom -5590.299282 kJ/mol
# Density = 2.098306 g / cm^3
# Si number density = 21.030924 Si / 1000 Ang^3
#
#
#
# Elastic Constant Matrix: (Units=GPa)
#
#
# Indices 1 2 3 4 5 6 
#
# 1 63.2766 -5.4817 -4.8800 0.0000 2.0570 0.0000
# 2 -5.4817 123.4313 16.3804 0.0000 -12.8031 0.0000
# 3 -4.8800 16.3804 9.4674 0.0000 -1.2357 0.0000
# 4 0.0000 0.0000 0.0000 29.5906 0.0000 -5.4795
# 5 2.0570 -12.8031 -1.2357 0.0000 13.2598 0.0000
# 6 0.0000 0.0000 0.0000 -5.4795 0.0000 30.1575
#
#
#
# Elastic Compliance Matrix: (Units=1/GPa)
#
#
# Indices 1 2 3 4 5 6 
#
# 1 0.016553 -0.000789 0.009579 0.000000 -0.002437 0.000000
# 2 -0.000789 0.011611 -0.019251 0.000000 0.009539 0.000000
# 3 0.009579 -0.019251 0.142990 0.000000 -0.006748 0.000000
# 4 0.000000 0.000000 0.000000 0.034971 0.000000 0.006354
# 5 -0.002437 0.009539 -0.006748 0.000000 0.084376 0.000000
# 6 0.000000 0.000000 0.000000 0.006354 0.000000 0.034314
#
#
# Mechanical properties :
#
#
# Convention : Reuss Voigt Hill
#
# Bulk Modulus (GPa) = 6.65630 23.13475 14.89552
# Shear Modulus (GPa) = 12.63222 27.27869 19.95546
#
# Velocity S-wave (km/s) = 2.45347 3.60540 3.08370
# Velocity P-wave (km/s) = 3.34633 5.32505 4.44714
#
# Compressibility (1/GPa) = 0.15023371
#
# Stress axis : x y z
#
# Youngs Moduli (GPa) = 60.41106 86.12650 6.99349
#
# Poissons Ratio (x) = 0.06794 -0.06699
# Poissons Ratio (y) = 0.04766 0.13463
# Poissons Ratio (z) = -0.57869 1.65798
#
# Static dielectric constant tensor:
#      x y z
#    x 1.748190 0.000000 -0.011270 
#    y 0.000000 1.761880 0.000000 
#    z -0.011270 0.000000 1.746180 
# 
# From -- ./inp_files/34325.got.cif
#   From: 2010.05.17/outbox.cif.g08.bks.cpg/sg15_18_cif.got.tgz:34325.got - 2010.06.03 18:47:42.
