data_PCOD9285385
_publ_section_title
;
Structure prediction by ZEFSAII (Michael W. Deem and Ramdas Pophale) SiO2 
 PCOD9285385
Probable space group: C 2/C
;
_chemical_formula_sum "Si O2"
_cell_formula_units_Z 32
_cell_length_a 17.806236
_cell_length_b 4.940396
_cell_length_c 18.680719
_cell_angle_alpha 90.000000
_cell_angle_beta 134.163662
_cell_angle_gamma 90.000000
_cell_volume 1178.854381
_symmetry_space_group_name_H-M "C 2/C"
_symmetry_group_IT_number 15
_symmetry_cell_setting 'monoclinic'
loop_
_space_group_symop_operation_xyz
x,y,z
-x,y,1/2-z
-x,-y,-z
x,-y,1/2+z
1/2+x,1/2+y,z
1/2-x,1/2+y,1/2-z
1/2-x,1/2-y,-z
1/2+x,1/2-y,1/2+z
loop_
_atom_site_type_symbol
_atom_site_label
_atom_site_fract_x
_atom_site_fract_y
_atom_site_fract_z
Si Si1 0.703646 0.841971 0.688424
Si Si2 0.106339 0.782645 0.361181
Si Si3 0.796202 0.925431 0.450663
Si Si4 0.979644 0.695561 0.053061
O O1 0.789581 0.642096 0.777583
O O2 0.714076 0.827907 0.609249
O O3 0.596616 0.714158 0.647798
O O4 0.167150 0.032317 0.441895
O O5 0.191592 0.606984 0.375784
O O6 0.067917 0.595027 0.403051
O O7 0.000000 0.862246 0.250000
O O8 0.896988 0.072273 0.480991
O O9 0.000000 0.500000 0.000000
#
# Coordination Sequence:
#
# PCOD9285385 Si02
#       4
#     8   8   8   8
#     4  12  25  43  75 112 144 189 244 297 361 431
#     4   9  19  39  71  99 145 189 237 288 364 427
#     4   9  21  40  66 103 142 190 233 299 352 431
#     4  10  21  41  72 101 143 185 238 300 353 417
#
# _framework density 27.144997
#
# number of rings (size 3 to 8) (size 9 to 14) (size 15 to 20)
#    1.500    0.500    0.000    3.750    0.000    0.000 
#    0.000    1.250    0.000    3.000    0.000    0.000 
#    0.000    0.000    0.000    0.000    0.000    0.000 
#
# Total GULP energy -89317.255711 kJ/mol
# GULP energy per Si atom -5582.328482 kJ/mol
# Density = 2.708321 g / cm^3
# Si number density = 27.144997 Si / 1000 Ang^3
#
#
#
# Elastic Constant Matrix: (Units=GPa)
#
#
# Indices 1 2 3 4 5 6 
#
# 1 104.7133 -2.9205 11.4125 0.0001 -3.0043 -0.0003
# 2 -2.9205 62.3555 11.3556 -0.0001 -11.3889 0.0019
# 3 11.4125 11.3556 152.0686 0.0000 2.7529 -0.0003
# 4 0.0001 -0.0001 0.0000 25.2826 -0.0001 -13.2335
# 5 -3.0043 -11.3889 2.7529 -0.0001 51.3558 -0.0002
# 6 -0.0003 0.0019 -0.0003 -13.2335 -0.0002 32.2660
#
#
#
# Elastic Compliance Matrix: (Units=1/GPa)
#
#
# Indices 1 2 3 4 5 6 
#
# 1 0.009679 0.000739 -0.000796 0.000000 0.000773 0.000000
# 2 0.000739 0.017038 -0.001398 -0.000001 0.003897 -0.000001
# 3 -0.000796 -0.001398 0.006753 0.000000 -0.000719 0.000000
# 4 0.000000 -0.000001 0.000000 0.050365 0.000000 0.020657
# 5 0.000773 0.003897 -0.000719 0.000000 0.020420 0.000000
# 6 0.000000 -0.000001 0.000000 0.020657 0.000000 0.039465
#
#
# Mechanical properties :
#
#
# Convention : Reuss Voigt Hill
#
# Bulk Modulus (GPa) = 32.72097 39.87030 36.29563
# Shear Modulus (GPa) = 31.88443 41.73352 36.80897
#
# Velocity S-wave (km/s) = 3.43096 3.92526 3.68640
# Velocity P-wave (km/s) = 5.27026 5.93829 5.61422
#
# Compressibility (1/GPa) = 0.03056144
#
# Stress axis : x y z
#
# Youngs Moduli (GPa) = 103.31223 58.69211 148.07970
#
# Poissons Ratio (x) = -0.04340 0.11782
# Poissons Ratio (y) = -0.07639 0.20707
# Poissons Ratio (z) = 0.08220 0.08207
#
# Static dielectric constant tensor:
#      x y z
#    x 2.135330 0.000000 0.008700 
#    y 0.000000 2.245770 0.000000 
#    z 0.008700 0.000000 2.337790 
# 
# From -- ./inp_files/246341.got.cif
#   From: 2010.05.17/outbox.cif.g08.bks.cpg/sg15_124_cif.got.tgz:246341.got - 2010.06.03 18:47:42.
