data_PCOD9285987
_publ_section_title
;
Structure prediction by ZEFSAII (Michael W. Deem and Ramdas Pophale) SiO2 
 PCOD9285987
Probable space group: C 2/C
;
_chemical_formula_sum "Si O2"
_cell_formula_units_Z 36
_cell_length_a 9.516556
_cell_length_b 16.852021
_cell_length_c 15.065608
_cell_angle_alpha 90.000000
_cell_angle_beta 39.716677
_cell_angle_gamma 90.000000
_cell_volume 1543.880584
_symmetry_space_group_name_H-M "C 2/C"
_symmetry_group_IT_number 15
_symmetry_cell_setting 'monoclinic'
loop_
_space_group_symop_operation_xyz
x,y,z
-x,y,1/2-z
-x,-y,-z
x,-y,1/2+z
1/2+x,1/2+y,z
1/2-x,1/2+y,1/2-z
1/2-x,1/2-y,-z
1/2+x,1/2-y,1/2+z
loop_
_atom_site_type_symbol
_atom_site_label
_atom_site_fract_x
_atom_site_fract_y
_atom_site_fract_z
Si Si1 0.202813 0.014165 0.007147
Si Si2 0.000000 0.899759 0.250000
Si Si3 0.832052 0.265493 0.060829
Si Si4 0.266176 0.129908 0.125240
Si Si5 0.225630 0.093871 0.338746
O O1 0.329495 0.071413 0.013648
O O2 0.032343 0.071711 0.040596
O O3 0.060906 0.955231 0.138254
O O4 0.306636 0.958750 0.881830
O O5 0.796584 0.840620 0.336970
O O6 0.764555 0.186435 0.144351
O O7 0.750000 0.250000 0.000000
O O8 0.087230 0.290807 0.944124
O O9 0.311275 0.085504 0.196725
O O10 0.000000 0.143317 0.250000
#
# Coordination Sequence:
#
# PCOD9285987 Si02
#       5
#     8   4   8   8   8
#     4  10  21  43  68  94 136 178 232 284 339 411
#     4  12  22  44  60  98 136 174 224 286 330 410
#     4  12  25  41  69 101 137 178 230 287 350 406
#     4  10  23  45  69 100 137 184 231 288 340 414
#     4  10  21  42  69  95 134 178 231 281 344 410
#
# _framework density 23.317865999999999
#
# number of rings (size 3 to 8) (size 9 to 14) (size 15 to 20)
#    0.000    1.333    5.556    1.333    0.000    4.444 
#    0.000    0.000    0.000    0.000    0.000    0.000 
#    0.000    0.000    0.000    0.000    0.000    0.000 
#
# Total GULP energy -100584.404228 kJ/mol
# GULP energy per Si atom -5588.022457 kJ/mol
# Density = 2.326479 g / cm^3
# Si number density = 23.317866 Si / 1000 Ang^3
#
#
#
# Elastic Constant Matrix: (Units=GPa)
#
#
# Indices 1 2 3 4 5 6 
#
# 1 153.3705 48.5011 48.0507 0.0029 12.4669 -0.0014
# 2 48.5011 109.5246 22.2879 0.0045 -4.8657 -0.0011
# 3 48.0507 22.2879 83.6848 0.0039 2.3568 -0.0006
# 4 0.0029 0.0045 0.0039 -79.3297 -0.0024 2.9715
# 5 12.4669 -4.8657 2.3568 -0.0024 41.5826 0.0010
# 6 -0.0014 -0.0011 -0.0006 2.9715 0.0010 48.1659
#
#
#
# Elastic Compliance Matrix: (Units=1/GPa)
#
#
# Indices 1 2 3 4 5 6 
#
# 1 0.009143 -0.003304 -0.004289 0.000000 -0.002885 0.000000
# 2 -0.003304 0.010916 -0.001076 0.000000 0.002329 0.000000
# 3 -0.004289 -0.001076 0.014689 0.000000 0.000327 0.000000
# 4 0.000000 0.000000 0.000000 -0.012577 -0.000001 0.000776
# 5 -0.002885 0.002329 0.000327 -0.000001 0.025167 -0.000001
# 6 0.000000 0.000000 0.000000 0.000776 -0.000001 0.020714
#
#
# Mechanical properties :
#
#
# Convention : Reuss Voigt Hill
#
# Bulk Modulus (GPa) = 57.43340 64.91771 61.17556
# Shear Modulus (GPa) = 54.82823 17.26644 36.04733
#
# Velocity S-wave (km/s) = 4.85432 2.72413 3.93607
# Velocity P-wave (km/s) = 7.49022 6.14779 6.85196
#
# Compressibility (1/GPa) = 0.01741147
#
# Stress axis : x y z
#
# Youngs Moduli (GPa) = 109.37061 91.60881 68.07679
#
# Poissons Ratio (x) = 0.30271 0.29196
# Poissons Ratio (y) = 0.36140 0.07322
# Poissons Ratio (z) = 0.46905 0.09853
#
# Static dielectric constant tensor:
#      x y z
#    x 1.899430 0.000000 0.035760 
#    y 0.000000 1.835300 0.000000 
#    z 0.035760 0.000000 1.714410 
# 
# From -- ./inp_files/190152.got.cif
#   From: 2010.05.17/outbox.cif.g08.bks.cpg/sg15_96_cif.got.tgz:190152.got - 2010.06.03 18:47:42.
