data_PCOD9285883
_publ_section_title
;
Structure prediction by ZEFSAII (Michael W. Deem and Ramdas Pophale) SiO2 
 PCOD9285883
Probable space group: C 2/C
;
_chemical_formula_sum "Si O2"
_cell_formula_units_Z 44
_cell_length_a 11.557145
_cell_length_b 20.164493
_cell_length_c 12.418818
_cell_angle_alpha 90.000000
_cell_angle_beta 138.890964
_cell_angle_gamma 90.000000
_cell_volume 1902.873766
_symmetry_space_group_name_H-M "C 2/C"
_symmetry_group_IT_number 15
_symmetry_cell_setting 'monoclinic'
loop_
_space_group_symop_operation_xyz
x,y,z
-x,y,1/2-z
-x,-y,-z
x,-y,1/2+z
1/2+x,1/2+y,z
1/2-x,1/2+y,1/2-z
1/2-x,1/2-y,-z
1/2+x,1/2-y,1/2+z
loop_
_atom_site_type_symbol
_atom_site_label
_atom_site_fract_x
_atom_site_fract_y
_atom_site_fract_z
Si Si1 0.788592 0.100108 0.130246
Si Si2 0.783820 0.160410 0.470065
Si Si3 0.294440 0.475571 0.845055
Si Si4 0.811110 0.756062 0.662952
Si Si5 0.000000 0.565399 0.750000
Si Si6 0.686912 0.703902 0.788754
O O1 0.762261 0.042509 0.198119
O O2 0.763868 0.170822 0.171116
O O3 0.000000 0.097042 0.250000
O O4 0.643427 0.098684 0.932950
O O5 0.772617 0.090890 0.402255
O O6 0.694654 0.222041 0.345555
O O7 0.726364 0.159752 0.555827
O O8 0.989864 0.180400 0.625359
O O9 0.140861 0.524241 0.777217
O O10 0.500000 0.500000 0.000000
O O11 0.750000 0.750000 0.500000
O O12 0.777407 0.706032 0.735883
O O13 0.000000 0.753864 0.750000
#
# Coordination Sequence:
#
# PCOD9285883 Si02
#       6
#     8   8   8   8   4   8
#     4  11  25  50  73 106 156 199 263 328 387 475
#     4  10  23  43  71 106 148 202 242 329 397 456
#     4  12  26  51  78 110 159 204 270 329 392 477
#     4  11  24  41  68 106 149 197 245 317 396 470
#     4  12  28  48  80 112 140 220 262 318 402 454
#     4  10  21  42  68 103 146 188 254 306 391 462
#
# _framework density 23.122921999999999
#
# number of rings (size 3 to 8) (size 9 to 14) (size 15 to 20)
#    0.000    1.091    3.636    1.636    3.818    5.818 
#    6.545    0.000    0.000    0.000    0.000    0.000 
#    0.000    0.000    0.000    0.000    0.000    0.000 
#
# Total GULP energy -122485.022255 kJ/mol
# GULP energy per Si atom -5567.501012 kJ/mol
# Density = 2.307029 g / cm^3
# Si number density = 23.122922 Si / 1000 Ang^3
#
#
#
# Elastic Constant Matrix: (Units=GPa)
#
#
# Indices 1 2 3 4 5 6 
#
# 1 151.2751 -5.6420 53.4420 0.0000 -22.3941 0.0000
# 2 -5.6420 81.2737 18.9916 0.0000 -0.9009 0.0000
# 3 53.4420 18.9916 159.8661 0.0000 5.2438 0.0000
# 4 0.0000 0.0000 0.0000 55.8604 0.0000 -16.0432
# 5 -22.3941 -0.9009 5.2438 0.0000 45.9815 0.0000
# 6 0.0000 0.0000 0.0000 -16.0432 0.0000 38.1082
#
#
#
# Elastic Compliance Matrix: (Units=1/GPa)
#
#
# Indices 1 2 3 4 5 6 
#
# 1 0.008431 0.001366 -0.003128 0.000000 0.004490 0.000000
# 2 0.001366 0.012885 -0.002025 0.000000 0.001149 0.000000
# 3 -0.003128 -0.002025 0.007621 0.000000 -0.002432 0.000000
# 4 0.000000 0.000000 0.000000 0.020364 0.000000 0.008573
# 5 0.004490 0.001149 -0.002432 0.000000 0.024234 0.000000
# 6 0.000000 0.000000 0.000000 0.008573 0.000000 0.029850
#
#
# Mechanical properties :
#
#
# Convention : Reuss Voigt Hill
#
# Bulk Modulus (GPa) = 46.80953 58.44424 52.62688
# Shear Modulus (GPa) = 42.34389 49.69823 46.02106
#
# Velocity S-wave (km/s) = 4.28396 4.64109 4.46609
# Velocity P-wave (km/s) = 6.69010 7.35187 7.02878
#
# Compressibility (1/GPa) = 0.02136317
#
# Stress axis : x y z
#
# Youngs Moduli (GPa) = 118.60868 77.61051 131.21228
#
# Poissons Ratio (x) = -0.10601 0.41043
# Poissons Ratio (y) = -0.16202 0.26570
# Poissons Ratio (z) = 0.37101 0.15716
#
# Static dielectric constant tensor:
#      x y z
#    x 1.869910 0.000000 0.001840 
#    y 0.000000 1.885800 0.000000 
#    z 0.001840 0.000000 1.817710 
# 
# From -- ./inp_files/91383.got.cif
#   From: 2010.05.17/outbox.cif.g08.bks.cpg/sg15_46_cif.got.tgz:91383.got - 2010.06.03 18:47:42.
