data_PCOD9285851
_publ_section_title
;
Structure prediction by ZEFSAII (Michael W. Deem and Ramdas Pophale) SiO2 
 PCOD9285851
Probable space group: C 2/C
;
_chemical_formula_sum "Si O2"
_cell_formula_units_Z 56
_cell_length_a 5.721687
_cell_length_b 13.600100
_cell_length_c 28.827515
_cell_angle_alpha 90.000000
_cell_angle_beta 90.336275
_cell_angle_gamma 90.000000
_cell_volume 2243.189301
_symmetry_space_group_name_H-M "C 2/C"
_symmetry_group_IT_number 15
_symmetry_cell_setting 'monoclinic'
loop_
_space_group_symop_operation_xyz
x,y,z
-x,y,1/2-z
-x,-y,-z
x,-y,1/2+z
1/2+x,1/2+y,z
1/2-x,1/2+y,1/2-z
1/2-x,1/2-y,-z
1/2+x,1/2-y,1/2+z
loop_
_atom_site_type_symbol
_atom_site_label
_atom_site_fract_x
_atom_site_fract_y
_atom_site_fract_z
Si Si1 0.355094 0.128481 0.866813
Si Si2 0.766353 0.767748 0.617444
Si Si3 0.066194 0.574433 0.372243
Si Si4 0.208396 0.443400 0.972956
Si Si5 0.743134 0.441092 0.724642
Si Si6 0.471631 0.347510 0.298087
Si Si7 0.493902 0.634983 0.550459
O O1 0.471120 0.232500 0.877780
O O2 0.225242 0.122949 0.817896
O O3 0.168379 0.110920 0.906274
O O4 0.543900 0.042885 0.871181
O O5 0.695017 0.879441 0.626384
O O6 0.642918 0.713336 0.660870
O O7 0.660920 0.722262 0.569346
O O8 0.156282 0.602760 0.422919
O O9 0.206741 0.604291 0.326429
O O10 0.367419 0.536249 0.960499
O O11 0.327858 0.361193 0.005357
O O12 0.000000 0.500000 0.000000
O O13 0.500000 0.403539 0.750000
O O14 0.675373 0.555340 0.714516
O O15 0.000000 0.436817 0.750000
O O16 0.500000 0.289991 0.250000
#
# Coordination Sequence:
#
# PCOD9285851 Si02
#       7
#     8   8   8   8   8   8   8
#     4  11  21  46  66  98 146 187 242 300 369 462
#     4  11  24  41  66 104 139 185 243 303 373 444
#     4  12  23  43  74 103 145 193 243 313 379 447
#     4  11  21  41  73  98 138 195 240 300 378 452
#     4  11  24  46  77 109 143 200 255 309 388 466
#     4  10  22  41  70  96 138 188 237 299 379 440
#     4  10  21  42  67  97 139 185 240 298 362 454
#
# _framework density 24.964458
#
# number of rings (size 3 to 8) (size 9 to 14) (size 15 to 20)
#    0.000    1.143    4.286    2.571    0.000    1.143 
#   15.429    2.857    0.000    0.000    0.000    0.000 
#    0.000    0.000    0.000    0.000    0.000    0.000 
#
# Total GULP energy -156427.884450 kJ/mol
# GULP energy per Si atom -5586.710159 kJ/mol
# Density = 2.490764 g / cm^3
# Si number density = 24.964458 Si / 1000 Ang^3
#
#
#
# Elastic Constant Matrix: (Units=GPa)
#
#
# Indices 1 2 3 4 5 6 
#
# 1 118.4720 24.5902 71.3652 0.0000 -0.0392 0.0000
# 2 24.5902 76.3717 9.0094 0.0000 4.3718 0.0000
# 3 71.3652 9.0094 176.1546 0.0000 24.1421 0.0000
# 4 0.0000 0.0000 0.0000 12.2382 0.0000 -3.9551
# 5 -0.0392 4.3718 24.1421 0.0000 49.5568 0.0000
# 6 0.0000 0.0000 0.0000 -3.9551 0.0000 31.1621
#
#
#
# Elastic Compliance Matrix: (Units=1/GPa)
#
#
# Indices 1 2 3 4 5 6 
#
# 1 0.012299 -0.003510 -0.005194 0.000000 0.002850 0.000000
# 2 -0.003510 0.014212 0.000930 0.000000 -0.001709 0.000000
# 3 -0.005194 0.000930 0.008299 0.000000 -0.004129 0.000000
# 4 0.000000 0.000000 0.000000 0.085206 0.000000 0.010814
# 5 0.002850 -0.001709 -0.004129 0.000000 0.022343 0.000000
# 6 0.000000 0.000000 0.000000 0.010814 0.000000 0.033463
#
#
# Mechanical properties :
#
#
# Convention : Reuss Voigt Hill
#
# Bulk Modulus (GPa) = 51.91696 64.54753 58.23224
# Shear Modulus (GPa) = 25.27901 36.32700 30.80301
#
# Velocity S-wave (km/s) = 3.18559 3.81878 3.51647
# Velocity P-wave (km/s) = 5.86278 6.73469 6.31380
#
# Compressibility (1/GPa) = 0.01926153
#
# Stress axis : x y z
#
# Youngs Moduli (GPa) = 81.30795 70.36142 120.49245
#
# Poissons Ratio (x) = 0.24700 0.62579
# Poissons Ratio (y) = 0.28543 -0.11201
# Poissons Ratio (z) = 0.42228 -0.06541
#
# Static dielectric constant tensor:
#      x y z
#    x 2.161170 0.000000 0.122770 
#    y 0.000000 1.912800 0.000000 
#    z 0.122770 0.000000 2.042940 
# 
# From -- ./inp_files/305407.got.cif
#   From: 2010.05.17/outbox.cif.g08.bks.cpg/sg15_153_cif.got.tgz:305407.got - 2010.06.03 18:47:42.
