data_PCOD9285153
_publ_section_title
;
Structure prediction by ZEFSAII (Michael W. Deem and Ramdas Pophale) SiO2 
 PCOD9285153
Probable space group: C 2/C
;
_chemical_formula_sum "Si O2"
_cell_formula_units_Z 48
_cell_length_a 10.309695
_cell_length_b 9.552022
_cell_length_c 22.258624
_cell_angle_alpha 90.000000
_cell_angle_beta 101.806805
_cell_angle_gamma 90.000000
_cell_volume 2145.618602
_symmetry_space_group_name_H-M "C 2/C"
_symmetry_group_IT_number 15
_symmetry_cell_setting 'monoclinic'
loop_
_space_group_symop_operation_xyz
x,y,z
-x,y,1/2-z
-x,-y,-z
x,-y,1/2+z
1/2+x,1/2+y,z
1/2-x,1/2+y,1/2-z
1/2-x,1/2-y,-z
1/2+x,1/2-y,1/2+z
loop_
_atom_site_type_symbol
_atom_site_label
_atom_site_fract_x
_atom_site_fract_y
_atom_site_fract_z
Si Si1 0.318808 0.036571 0.000734
Si Si2 0.941633 0.823154 0.059589
Si Si3 0.882521 0.849182 0.194461
Si Si4 0.081618 0.461806 0.811675
Si Si5 0.251087 0.162411 0.591000
Si Si6 0.672101 0.952502 0.631749
O O1 0.164070 0.080848 0.984997
O O2 0.241181 0.818096 0.880611
O O3 0.395083 0.166403 0.037664
O O4 0.326832 0.891323 0.038304
O O5 0.922464 0.855000 0.128249
O O6 0.095132 0.847914 0.062502
O O7 0.856618 0.685011 0.204863
O O8 0.755692 0.947896 0.183485
O O9 0.000000 0.893267 0.250000
O O10 0.190979 0.556613 0.853633
O O11 0.000000 0.532129 0.750000
O O12 0.963602 0.420844 0.846807
O O13 0.140491 0.524777 0.564814
#
# Coordination Sequence:
#
# PCOD9285153 Si02
#       6
#     8   8   8   8   8   8
#     4  10  22  41  65  98 137 174 216 269 334 388
#     4  10  21  41  67  98 133 175 221 270 324 397
#     4  10  22  46  67  90 130 180 218 270 333 380
#     4  11  26  45  66  95 131 174 220 275 334 385
#     4  12  22  41  66 100 132 171 222 268 328 394
#     4  11  25  42  66  98 132 170 218 278 325 391
#
# _framework density 22.371171
#
# number of rings (size 3 to 8) (size 9 to 14) (size 15 to 20)
#    0.000    1.333    3.333    1.000    2.333    4.667 
#    6.000    0.000    0.000    0.000    0.000    0.000 
#    0.000    0.000    0.000    0.000    0.000    0.000 
#
# Total GULP energy -134029.483816 kJ/mol
# GULP energy per Si atom -5584.561826 kJ/mol
# Density = 2.232025 g / cm^3
# Si number density = 22.371171 Si / 1000 Ang^3
#
#
#
# Elastic Constant Matrix: (Units=GPa)
#
#
# Indices 1 2 3 4 5 6 
#
# 1 88.6329 46.8585 30.4423 0.0000 30.4272 0.0000
# 2 46.8585 99.4628 37.4451 0.0000 24.0269 0.0000
# 3 30.4423 37.4451 118.8195 0.0000 34.4667 0.0000
# 4 0.0000 0.0000 0.0000 30.4075 0.0000 13.2047
# 5 30.4272 24.0269 34.4667 0.0000 33.2421 0.0000
# 6 0.0000 0.0000 0.0000 13.2047 0.0000 28.3991
#
#
#
# Elastic Compliance Matrix: (Units=1/GPa)
#
#
# Indices 1 2 3 4 5 6 
#
# 1 0.018884 -0.005894 0.001140 0.000000 -0.014208 0.000000
# 2 -0.005894 0.014307 -0.002237 0.000000 -0.002627 0.000000
# 3 0.001140 -0.002237 0.012389 0.000000 -0.012272 0.000000
# 4 0.000000 0.000000 0.000000 0.041207 0.000000 -0.019160
# 5 -0.014208 -0.002627 -0.012272 0.000000 0.057710 0.000000
# 6 0.000000 0.000000 0.000000 -0.019160 0.000000 0.044121
#
#
# Mechanical properties :
#
#
# Convention : Reuss Voigt Hill
#
# Bulk Modulus (GPa) = 31.64558 59.60079 45.62319
# Shear Modulus (GPa) = 23.45960 31.22103 27.34032
#
# Velocity S-wave (km/s) = 3.24180 3.73982 3.49968
# Velocity P-wave (km/s) = 5.30931 6.73409 6.06369
#
# Compressibility (1/GPa) = 0.03159999
#
# Stress axis : x y z
#
# Youngs Moduli (GPa) = 52.95449 69.89361 80.71845
#
# Poissons Ratio (x) = 0.41195 -0.09206
# Poissons Ratio (y) = 0.31211 0.18054
# Poissons Ratio (z) = -0.06039 0.15633
#
# Static dielectric constant tensor:
#      x y z
#    x 1.843610 0.000000 -0.006080 
#    y 0.000000 1.851230 0.000000 
#    z -0.006080 0.000000 1.861530 
# 
# From -- ./inp_files/268087.got.cif
#   From: 2010.05.17/outbox.cif.g08.bks.cpg/sg15_135_cif.got.tgz:268087.got - 2010.06.03 18:47:42.
