data_PCOD9285894
_publ_section_title
;
Structure prediction by ZEFSAII (Michael W. Deem and Ramdas Pophale) SiO2 
 PCOD9285894
Probable space group: C 2/C
;
_chemical_formula_sum "Si O2"
_cell_formula_units_Z 56
_cell_length_a 7.128840
_cell_length_b 29.284596
_cell_length_c 15.421232
_cell_angle_alpha 90.000000
_cell_angle_beta 55.245186
_cell_angle_gamma 90.000000
_cell_volume 2645.069578
_symmetry_space_group_name_H-M "C 2/C"
_symmetry_group_IT_number 15
_symmetry_cell_setting 'monoclinic'
loop_
_space_group_symop_operation_xyz
x,y,z
-x,y,1/2-z
-x,-y,-z
x,-y,1/2+z
1/2+x,1/2+y,z
1/2-x,1/2+y,1/2-z
1/2-x,1/2-y,-z
1/2+x,1/2-y,1/2+z
loop_
_atom_site_type_symbol
_atom_site_label
_atom_site_fract_x
_atom_site_fract_y
_atom_site_fract_z
Si Si1 0.840781 0.007463 0.718016
Si Si2 0.000000 0.235730 0.750000
Si Si3 0.994011 0.546774 0.945600
Si Si4 0.233716 0.820706 0.341928
Si Si5 0.595462 0.580051 0.934124
Si Si6 0.500000 0.063437 0.250000
Si Si7 0.189460 0.789675 0.950363
Si Si8 0.612541 0.114952 0.064466
O O1 0.964052 0.042722 0.622865
O O2 0.000000 0.986190 0.750000
O O3 0.340312 0.037145 0.678975
O O4 0.710486 0.971584 0.693304
O O5 0.907768 0.201900 0.699579
O O6 0.791486 0.269098 0.834435
O O7 0.752197 0.557930 0.965875
O O8 0.059542 0.590215 0.987928
O O9 0.000000 0.500000 0.000000
O O10 0.500000 0.810138 0.250000
O O11 0.212568 0.875587 0.358673
O O12 0.080003 0.802284 0.465303
O O13 0.358626 0.597732 0.032183
O O14 0.450261 0.094598 0.180287
O O15 0.349358 0.831495 0.940685
O O16 0.250000 0.750000 0.000000
#
# Coordination Sequence:
#
# PCOD9285894 Si02
#       8
#     8   4   8   8   8   4   8   8
#     4  12  23  36  59  87 123 165 208 262 309 370
#     4  10  21  42  68  90 134 166 210 270 339 402
#     4  12  23  40  60  89 126 170 209 260 318 374
#     4  10  22  38  64  97 126 163 213 271 327 388
#     4  11  24  39  60  93 125 161 222 265 312 386
#     4  12  25  40  58  88 124 166 216 254 317 386
#     4   9  21  41  65  96 123 164 214 263 330 396
#     4  11  24  41  65  88 126 170 209 270 322 379
#
# _framework density 21.171467
#
# number of rings (size 3 to 8) (size 9 to 14) (size 15 to 20)
#    0.000    1.143    4.286    1.286    3.000    6.286 
#    0.000    4.286    0.000    4.286    0.000    0.000 
#    0.000    0.000    0.000    0.000    0.000    0.000 
#
# Total GULP energy -156068.918480 kJ/mol
# GULP energy per Si atom -5573.889946 kJ/mol
# Density = 2.112328 g / cm^3
# Si number density = 21.171467 Si / 1000 Ang^3
#
#
#
# Elastic Constant Matrix: (Units=GPa)
#
#
# Indices 1 2 3 4 5 6 
#
# 1 80.0171 22.1653 -2.8507 0.0000 2.2483 0.0000
# 2 22.1653 133.3435 21.5818 0.0000 16.4612 0.0000
# 3 -2.8507 21.5818 61.7004 0.0000 -0.3936 0.0000
# 4 0.0000 0.0000 0.0000 26.1216 0.0000 1.9976
# 5 2.2483 16.4612 -0.3936 0.0000 29.8023 0.0000
# 6 0.0000 0.0000 0.0000 1.9976 0.0000 16.9706
#
#
#
# Elastic Compliance Matrix: (Units=1/GPa)
#
#
# Indices 1 2 3 4 5 6 
#
# 1 0.013228 -0.002488 0.001484 0.000000 0.000396 0.000000
# 2 -0.002488 0.009048 -0.003311 0.000000 -0.004854 0.000000
# 3 0.001484 -0.003311 0.017446 0.000000 0.001947 0.000000
# 4 0.000000 0.000000 0.000000 0.038630 0.000000 -0.004547
# 5 0.000396 -0.004854 0.001947 0.000000 0.036231 0.000000
# 6 0.000000 0.000000 0.000000 -0.004547 0.000000 0.059461
#
#
# Mechanical properties :
#
#
# Convention : Reuss Voigt Hill
#
# Bulk Modulus (GPa) = 32.16145 39.65043 35.90594
# Shear Modulus (GPa) = 25.90155 30.18988 28.04571
#
# Velocity S-wave (km/s) = 3.50153 3.78030 3.64358
# Velocity P-wave (km/s) = 5.61886 6.15005 5.89044
#
# Compressibility (1/GPa) = 0.03109312
#
# Stress axis : x y z
#
# Youngs Moduli (GPa) = 75.59579 110.52148 57.31852
#
# Poissons Ratio (x) = 0.27497 -0.08506
# Poissons Ratio (y) = 0.18808 0.18977
# Poissons Ratio (z) = -0.11218 0.36591
#
# Static dielectric constant tensor:
#      x y z
#    x 1.757830 0.000000 -0.040340 
#    y 0.000000 1.784870 0.000000 
#    z -0.040340 0.000000 1.908320 
# 
# From -- ./inp_files/186679.got.cif
#   From: 2010.05.17/outbox.cif.g08.bks.cpg/sg15_94_cif.got.tgz:186679.got - 2010.06.03 18:47:42.
