data_PCOD9285192
_publ_section_title
;
Structure prediction by ZEFSAII (Michael W. Deem and Ramdas Pophale) SiO2 
 PCOD9285192
Probable space group: C 2/C
;
_chemical_formula_sum "Si O2"
_cell_formula_units_Z 40
_cell_length_a 24.120775
_cell_length_b 7.441382
_cell_length_c 19.223944
_cell_angle_alpha 90.000000
_cell_angle_beta 29.985433
_cell_angle_gamma 90.000000
_cell_volume 1724.511329
_symmetry_space_group_name_H-M "C 2/C"
_symmetry_group_IT_number 15
_symmetry_cell_setting 'monoclinic'
loop_
_space_group_symop_operation_xyz
x,y,z
-x,y,1/2-z
-x,-y,-z
x,-y,1/2+z
1/2+x,1/2+y,z
1/2-x,1/2+y,1/2-z
1/2-x,1/2-y,-z
1/2+x,1/2-y,1/2+z
loop_
_atom_site_type_symbol
_atom_site_label
_atom_site_fract_x
_atom_site_fract_y
_atom_site_fract_z
Si Si1 0.244454 0.574917 0.326653
Si Si2 0.548606 0.405439 0.793436
Si Si3 0.766110 0.957987 0.500172
Si Si4 0.076354 0.536250 0.611020
Si Si5 0.318258 0.517671 0.593180
O O1 0.356915 0.579169 0.249543
O O2 0.145629 0.455121 0.470006
O O3 0.274162 0.549007 0.214367
O O4 0.191082 0.769240 0.390337
O O5 0.612657 0.478935 0.656118
O O6 0.499752 0.205079 0.830212
O O7 0.445254 0.520582 0.934635
O O8 0.750000 0.750000 0.500000
O O9 0.681574 0.078078 0.546711
O O10 0.747173 0.971102 0.602632
O O11 0.000000 0.428481 0.750000
#
# Coordination Sequence:
#
# PCOD9285192 Si02
#       5
#     8   8   8   8   8
#     4  10  23  40  66  97 133 175 219 280 328 408
#     4  10  21  43  70  92 125 182 227 272 335 401
#     4  11  25  42  69 101 135 171 226 289 327 392
#     4  10  21  41  68  92 126 174 229 269 328 400
#     4  11  23  41  65  96 136 176 217 272 346 392
#
# _framework density 23.194977000000002
#
# number of rings (size 3 to 8) (size 9 to 14) (size 15 to 20)
#    0.000    1.600    0.000    4.800    5.600    7.200 
#    0.000    5.000    0.000    0.000    0.000    0.000 
#    0.000    0.000    0.000    0.000    0.000    0.000 
#
# Total GULP energy -111517.002807 kJ/mol
# GULP energy per Si atom -5575.850140 kJ/mol
# Density = 2.314218 g / cm^3
# Si number density = 23.194977 Si / 1000 Ang^3
#
#
#
# Elastic Constant Matrix: (Units=GPa)
#
#
# Indices 1 2 3 4 5 6 
#
# 1 105.1671 2.9666 67.8431 0.0004 41.6120 -0.0003
# 2 2.9666 47.4577 16.4226 -0.0016 4.4285 0.0007
# 3 67.8431 16.4226 176.7809 -0.0004 28.3078 0.0001
# 4 0.0004 -0.0016 -0.0004 33.2162 0.0000 6.3310
# 5 41.6120 4.4285 28.3078 0.0000 53.7302 0.0001
# 6 -0.0003 0.0007 0.0001 6.3310 0.0001 26.4970
#
#
#
# Elastic Compliance Matrix: (Units=1/GPa)
#
#
# Indices 1 2 3 4 5 6 
#
# 1 0.016812 0.001635 -0.004912 0.000000 -0.010568 0.000000
# 2 0.001635 0.021961 -0.002375 0.000001 -0.001825 -0.000001
# 3 -0.004912 -0.002375 0.007778 0.000000 -0.000098 0.000000
# 4 0.000000 0.000001 0.000000 0.031542 0.000000 -0.007536
# 5 -0.010568 -0.001825 -0.000098 0.000000 0.026998 0.000000
# 6 0.000000 -0.000001 0.000000 -0.007536 0.000000 0.039541
#
#
# Mechanical properties :
#
#
# Convention : Reuss Voigt Hill
#
# Bulk Modulus (GPa) = 28.37087 55.98558 42.17823
# Shear Modulus (GPa) = 29.81751 38.83358 34.32555
#
# Velocity S-wave (km/s) = 3.58930 4.09617 3.85108
# Velocity P-wave (km/s) = 5.42544 6.82355 6.16426
#
# Compressibility (1/GPa) = 0.03524742
#
# Stress axis : x y z
#
# Youngs Moduli (GPa) = 59.47956 45.53427 128.56606
#
# Poissons Ratio (x) = -0.07444 0.63149
# Poissons Ratio (y) = -0.09724 0.30540
# Poissons Ratio (z) = 0.29215 0.10816
#
# Static dielectric constant tensor:
#      x y z
#    x 2.795610 0.000010 1.187600 
#    y 0.000010 1.918790 0.000010 
#    z 1.187600 0.000010 3.540030 
# 
# From -- ./inp_files/109559.got.cif
#   From: 2010.05.17/outbox.cif.g08.bks.cpg/sg15_55_cif.got.tgz:109559.got - 2010.06.03 18:47:42.
