data_PCOD9285824
_publ_section_title
;
Structure prediction by ZEFSAII (Michael W. Deem and Ramdas Pophale) SiO2 
 PCOD9285824
Probable space group: C 2/C
;
_chemical_formula_sum "Si O2"
_cell_formula_units_Z 52
_cell_length_a 8.472939
_cell_length_b 15.059980
_cell_length_c 21.534852
_cell_angle_alpha 90.000000
_cell_angle_beta 126.164860
_cell_angle_gamma 90.000000
_cell_volume 2218.438329
_symmetry_space_group_name_H-M "C 2/C"
_symmetry_group_IT_number 15
_symmetry_cell_setting 'monoclinic'
loop_
_space_group_symop_operation_xyz
x,y,z
-x,y,1/2-z
-x,-y,-z
x,-y,1/2+z
1/2+x,1/2+y,z
1/2-x,1/2+y,1/2-z
1/2-x,1/2-y,-z
1/2+x,1/2-y,1/2+z
loop_
_atom_site_type_symbol
_atom_site_label
_atom_site_fract_x
_atom_site_fract_y
_atom_site_fract_z
Si Si1 0.500000 0.711620 0.250000
Si Si2 0.915631 0.481467 0.129436
Si Si3 0.803366 0.339037 0.297624
Si Si4 0.593957 0.667880 0.873500
Si Si5 0.930742 0.341459 0.891164
Si Si6 0.230342 0.352109 0.514295
Si Si7 0.983391 0.997267 0.920883
O O1 0.456264 0.773516 0.299786
O O2 0.292159 0.664156 0.188022
O O3 0.746430 0.486473 0.141107
O O4 0.118026 0.437679 0.194804
O O5 0.953601 0.578673 0.112944
O O6 0.847423 0.412335 0.060093
O O7 0.602185 0.332071 0.213826
O O8 0.762449 0.321539 0.360943
O O9 0.551623 0.751399 0.907636
O O10 0.599299 0.576441 0.913639
O O11 0.907201 0.358218 0.958289
O O12 0.250000 0.250000 0.500000
O O13 0.433157 0.402042 0.579335
O O14 0.000000 0.000000 0.000000
#
# Coordination Sequence:
#
# PCOD9285824 Si02
#       7
#     4   8   8   8   8   8   8
#     4  10  22  42  64  90 126 170 212 264 322 386
#     4  11  23  39  62  95 127 165 212 262 315 381
#     4  10  21  42  67  94 127 168 215 265 322 383
#     4  10  22  42  67  95 131 168 212 269 323 383
#     4  11  23  39  62  94 128 167 211 258 318 378
#     4  11  23  42  64  87 124 170 214 263 318 378
#     4  10  22  42  64  92 126 165 214 263 317 379
#
# _framework density 23.439912
#
# number of rings (size 3 to 8) (size 9 to 14) (size 15 to 20)
#    0.000    1.538    0.000    6.000    0.000    6.154 
#    0.000   12.308    0.000    0.000    0.000    0.000 
#    0.000    0.000    0.000    0.000    0.000    0.000 
#
# Total GULP energy -145392.833746 kJ/mol
# GULP energy per Si atom -5592.032067 kJ/mol
# Density = 2.338656 g / cm^3
# Si number density = 23.439912 Si / 1000 Ang^3
#
#
#
# Elastic Constant Matrix: (Units=GPa)
#
#
# Indices 1 2 3 4 5 6 
#
# 1 160.3498 61.3070 25.7285 0.0000 -20.7611 0.0000
# 2 61.3070 151.8905 14.6226 0.0000 -10.5490 0.0000
# 3 25.7285 14.6226 56.1082 0.0000 -14.7096 0.0000
# 4 0.0000 0.0000 0.0000 24.9160 0.0000 6.9642
# 5 -20.7611 -10.5490 -14.7096 0.0000 34.1860 0.0000
# 6 0.0000 0.0000 0.0000 6.9642 0.0000 45.3313
#
#
#
# Elastic Compliance Matrix: (Units=1/GPa)
#
#
# Indices 1 2 3 4 5 6 
#
# 1 0.008066 -0.002833 -0.002147 0.000000 0.003100 0.000000
# 2 -0.002833 0.007817 -0.000627 0.000000 0.000421 0.000000
# 3 -0.002147 -0.000627 0.020940 0.000000 0.007513 0.000000
# 4 0.000000 0.000000 0.000000 0.041936 0.000000 -0.006442
# 5 0.003100 0.000421 0.007513 0.000000 0.034497 0.000000
# 6 0.000000 0.000000 0.000000 -0.006442 0.000000 0.023050
#
#
# Mechanical properties :
#
#
# Convention : Reuss Voigt Hill
#
# Bulk Modulus (GPa) = 39.05259 63.51829 51.28544
# Shear Modulus (GPa) = 32.03955 38.66601 35.35278
#
# Velocity S-wave (km/s) = 3.70114 4.06591 3.88781
# Velocity P-wave (km/s) = 5.91283 7.01422 6.48694
#
# Compressibility (1/GPa) = 0.02560650
#
# Stress axis : x y z
#
# Youngs Moduli (GPa) = 123.98328 127.92588 47.75448
#
# Poissons Ratio (x) = 0.36247 0.10255
# Poissons Ratio (y) = 0.35130 0.02996
# Poissons Ratio (z) = 0.26624 0.08027
#
# Static dielectric constant tensor:
#      x y z
#    x 1.913680 0.000000 0.106740 
#    y 0.000000 1.829840 0.000000 
#    z 0.106740 0.000000 2.078640 
# 
# From -- ./inp_files/288120.got.cif
#   From: 2010.05.17/outbox.cif.g08.bks.cpg/sg15_145_cif.got.tgz:288120.got - 2010.06.03 18:47:42.
