data_PCOD9285992
_publ_section_title
;
Structure prediction by ZEFSAII (Michael W. Deem and Ramdas Pophale) SiO2 
 PCOD9285992
Probable space group: C 2/C
;
_chemical_formula_sum "Si O2"
_cell_formula_units_Z 60
_cell_length_a 22.138339
_cell_length_b 20.421018
_cell_length_c 8.661118
_cell_angle_alpha 90.000000
_cell_angle_beta 39.524177
_cell_angle_gamma 90.000000
_cell_volume 2491.891434
_symmetry_space_group_name_H-M "C 2/C"
_symmetry_group_IT_number 15
_symmetry_cell_setting 'monoclinic'
loop_
_space_group_symop_operation_xyz
x,y,z
-x,y,1/2-z
-x,-y,-z
x,-y,1/2+z
1/2+x,1/2+y,z
1/2-x,1/2+y,1/2-z
1/2-x,1/2-y,-z
1/2+x,1/2-y,1/2+z
loop_
_atom_site_type_symbol
_atom_site_label
_atom_site_fract_x
_atom_site_fract_y
_atom_site_fract_z
Si Si1 0.861989 0.055482 0.779642
Si Si2 0.692861 0.115991 0.232934
Si Si3 0.000000 0.986621 0.750000
Si Si4 0.697274 0.684292 0.051334
Si Si5 0.169420 0.239280 0.784201
Si Si6 0.702341 0.053552 0.534458
Si Si7 0.490216 0.109652 0.580920
Si Si8 0.980682 0.753524 0.470169
O O1 0.931072 0.055367 0.496227
O O2 0.930426 0.031249 0.782592
O O3 0.775437 0.004143 0.924436
O O4 0.796780 0.117355 0.950844
O O5 0.668230 0.186405 0.356114
O O6 0.699497 0.063513 0.355902
O O7 0.600175 0.101224 0.310672
O O8 0.748635 0.618148 0.993536
O O9 0.597605 0.692688 0.334582
O O10 0.750000 0.750000 0.000000
O O11 0.687131 0.690509 0.887953
O O12 0.250000 0.250000 0.500000
O O13 0.071983 0.228277 0.889476
O O14 0.591385 0.057555 0.802605
O O15 0.500000 0.109837 0.750000
O O16 0.457310 0.180016 0.577769
O O17 0.000000 0.751001 0.250000
#
# Coordination Sequence:
#
# PCOD9285992 Si02
#       8
#     8   8   4   8   8   8   8   8
#     4  11  23  46  69  95 131 177 232 279 347 402
#     4  10  21  42  69  96 131 173 220 282 345 408
#     4  10  24  46  68  90 130 178 224 292 336 394
#     4  12  21  40  67  95 134 178 223 271 339 413
#     4  11  24  42  65  97 132 172 224 288 336 410
#     4  11  22  40  71  97 131 178 224 278 339 411
#     4   9  19  39  68  96 130 174 214 275 346 400
#     4  11  22  39  60  94 137 176 217 272 341 402
#
# _framework density 24.078095000000001
#
# number of rings (size 3 to 8) (size 9 to 14) (size 15 to 20)
#    0.000    1.333    4.000    2.800    0.000    1.600 
#   10.800    0.000    0.000    0.000    0.000    0.000 
#    0.000    0.000    0.000    0.000    0.000    0.000 
#
# Total GULP energy -167739.125704 kJ/mol
# GULP energy per Si atom -5591.304190 kJ/mol
# Density = 2.402329 g / cm^3
# Si number density = 24.078095 Si / 1000 Ang^3
#
#
#
# Elastic Constant Matrix: (Units=GPa)
#
#
# Indices 1 2 3 4 5 6 
#
# 1 105.0281 15.0218 41.4622 0.0000 -1.6515 0.0000
# 2 15.0218 56.7611 2.7802 0.0000 -12.5046 0.0000
# 3 41.4622 2.7802 142.3963 0.0000 -16.9625 0.0000
# 4 0.0000 0.0000 0.0000 30.8629 0.0000 -7.9081
# 5 -1.6515 -12.5046 -16.9625 0.0000 47.0189 0.0000
# 6 0.0000 0.0000 0.0000 -7.9081 0.0000 22.9295
#
#
#
# Elastic Compliance Matrix: (Units=1/GPa)
#
#
# Indices 1 2 3 4 5 6 
#
# 1 0.011306 -0.003197 -0.003431 0.000000 -0.001691 0.000000
# 2 -0.003197 0.019626 0.001208 0.000000 0.005543 0.000000
# 3 -0.003431 0.001208 0.008382 0.000000 0.003225 0.000000
# 4 0.000000 0.000000 0.000000 0.035542 0.000000 0.012258
# 5 -0.001691 0.005543 0.003225 0.000000 0.023846 0.000000
# 6 0.000000 0.000000 0.000000 0.012258 0.000000 0.047840
#
#
# Mechanical properties :
#
#
# Convention : Reuss Voigt Hill
#
# Bulk Modulus (GPa) = 35.11920 46.96819 41.04370
# Shear Modulus (GPa) = 29.96279 36.49035 33.22657
#
# Velocity S-wave (km/s) = 3.53143 3.89717 3.71880
# Velocity P-wave (km/s) = 5.58974 6.30868 5.96006
#
# Compressibility (1/GPa) = 0.02847445
#
# Stress axis : x y z
#
# Youngs Moduli (GPa) = 88.44552 50.95382 119.29952
#
# Poissons Ratio (x) = 0.16288 0.40933
# Poissons Ratio (y) = 0.28273 -0.14410
# Poissons Ratio (z) = 0.30347 -0.06155
#
# Static dielectric constant tensor:
#      x y z
#    x 1.894740 0.000000 -0.007870 
#    y 0.000000 1.945280 0.000000 
#    z -0.007870 0.000000 1.988930 
# 
# From -- ./inp_files/58731.got.cif
#   From: 2010.05.17/outbox.cif.g08.bks.cpg/sg15_30_cif.got.tgz:58731.got - 2010.06.03 18:47:42.
