data_PCOD9285674
_publ_section_title
;
Structure prediction by ZEFSAII (Michael W. Deem and Ramdas Pophale) SiO2 
 PCOD9285674
Probable space group: C 2/C
;
_chemical_formula_sum "Si O2"
_cell_formula_units_Z 44
_cell_length_a 9.235930
_cell_length_b 26.918140
_cell_length_c 10.604849
_cell_angle_alpha 90.000000
_cell_angle_beta 61.081176
_cell_angle_gamma 90.000000
_cell_volume 2307.756202
_symmetry_space_group_name_H-M "C 2/C"
_symmetry_group_IT_number 15
_symmetry_cell_setting 'monoclinic'
loop_
_space_group_symop_operation_xyz
x,y,z
-x,y,1/2-z
-x,-y,-z
x,-y,1/2+z
1/2+x,1/2+y,z
1/2-x,1/2+y,1/2-z
1/2-x,1/2-y,-z
1/2+x,1/2-y,1/2+z
loop_
_atom_site_type_symbol
_atom_site_label
_atom_site_fract_x
_atom_site_fract_y
_atom_site_fract_z
Si Si1 0.673886 0.109121 0.192720
Si Si2 0.164145 0.872036 0.614069
Si Si3 0.002825 0.058851 0.984098
Si Si4 0.108896 0.291973 0.078959
Si Si5 0.000000 0.127447 0.750000
Si Si6 0.802992 0.305401 0.015962
O O1 0.500000 0.083545 0.250000
O O2 0.719368 0.115977 0.318244
O O3 0.667463 0.161329 0.120960
O O4 0.814732 0.076595 0.072222
O O5 0.095895 0.918437 0.565782
O O6 0.271998 0.839804 0.472949
O O7 0.000000 0.847693 0.750000
O O8 0.059255 0.089649 0.836272
O O9 0.000000 0.000000 0.000000
O O10 0.000000 0.284577 0.250000
O O11 0.970417 0.299045 0.027802
O O12 0.250000 0.250000 0.000000
O O13 0.846768 0.164069 0.852203
O O14 0.750000 0.250000 0.000000
#
# Coordination Sequence:
#
# PCOD9285674 Si02
#       6
#     8   8   8   8   4   8
#     4  10  21  42  65  95 127 170 221 274 329 406
#     4  10  22  42  67  93 133 170 224 271 336 405
#     4  10  23  42  71  96 130 175 220 284 347 401
#     4  12  27  40  64  96 135 177 226 277 338 404
#     4  10  24  44  64 100 138 174 234 276 338 416
#     4  11  26  40  66  93 137 179 220 274 340 403
#
# _framework density 19.066139
#
# number of rings (size 3 to 8) (size 9 to 14) (size 15 to 20)
#    0.000    1.455    1.818    1.636   17.818    0.000 
#    0.000    3.636    0.000    0.000    0.000    0.000 
#    0.000    0.000    0.000    0.000    0.000    0.000 
#
# Total GULP energy -122575.341531 kJ/mol
# GULP energy per Si atom -5571.606433 kJ/mol
# Density = 1.902274 g / cm^3
# Si number density = 19.066139 Si / 1000 Ang^3
#
#
#
# Elastic Constant Matrix: (Units=GPa)
#
#
# Indices 1 2 3 4 5 6 
#
# 1 147.6848 62.5770 47.1081 0.0000 1.7271 0.0000
# 2 62.5770 152.3955 60.3691 0.0000 -8.6247 0.0000
# 3 47.1081 60.3691 117.9603 0.0000 -5.2208 0.0000
# 4 0.0000 0.0000 0.0000 11.9169 0.0000 1.8921
# 5 1.7271 -8.6247 -5.2208 0.0000 32.1778 0.0000
# 6 0.0000 0.0000 0.0000 1.8921 0.0000 10.8836
#
#
#
# Elastic Compliance Matrix: (Units=1/GPa)
#
#
# Indices 1 2 3 4 5 6 
#
# 1 0.008645 -0.002813 -0.002082 0.000000 -0.001556 0.000000
# 2 -0.002813 0.009222 -0.003505 0.000000 0.002054 0.000000
# 3 -0.002082 -0.003505 0.011146 0.000000 0.000981 0.000000
# 4 0.000000 0.000000 0.000000 0.086297 0.000000 -0.015003
# 5 -0.001556 0.002054 0.000981 0.000000 0.031870 0.000000
# 6 0.000000 0.000000 0.000000 -0.015003 0.000000 0.094490
#
#
# Mechanical properties :
#
#
# Convention : Reuss Voigt Hill
#
# Bulk Modulus (GPa) = 81.87978 84.23875 83.05927
# Shear Modulus (GPa) = 19.04460 27.52808 23.28634
#
# Velocity S-wave (km/s) = 3.16392 3.80389 3.49857
# Velocity P-wave (km/s) = 7.50903 7.97314 7.74456
#
# Compressibility (1/GPa) = 0.01221303
#
# Stress axis : x y z
#
# Youngs Moduli (GPa) = 115.66725 108.43795 89.71891
#
# Poissons Ratio (x) = 0.30509 0.18676
# Poissons Ratio (y) = 0.32543 0.31447
# Poissons Ratio (z) = 0.24077 0.38008
#
# Static dielectric constant tensor:
#      x y z
#    x 1.659870 0.000000 -0.023210 
#    y 0.000000 0.107190 0.000000 
#    z -0.023210 0.000000 1.757140 
# 
# From -- ./inp_files/79676.got.cif
#   From: 2010.05.17/outbox.cif.g08.bks.cpg/sg15_40_cif.got.tgz:79676.got - 2010.06.03 18:47:42.
