data_PCOD9285245
_publ_section_title
;
Structure prediction by ZEFSAII (Michael W. Deem and Ramdas Pophale) SiO2 
 PCOD9285245
Probable space group: C 2/C
;
_chemical_formula_sum "Si O2"
_cell_formula_units_Z 56
_cell_length_a 20.370995
_cell_length_b 10.893767
_cell_length_c 11.600476
_cell_angle_alpha 90.000000
_cell_angle_beta 114.902540
_cell_angle_gamma 90.000000
_cell_volume 2334.992869
_symmetry_space_group_name_H-M "C 2/C"
_symmetry_group_IT_number 15
_symmetry_cell_setting 'monoclinic'
loop_
_space_group_symop_operation_xyz
x,y,z
-x,y,1/2-z
-x,-y,-z
x,-y,1/2+z
1/2+x,1/2+y,z
1/2-x,1/2+y,1/2-z
1/2-x,1/2-y,-z
1/2+x,1/2-y,1/2+z
loop_
_atom_site_type_symbol
_atom_site_label
_atom_site_fract_x
_atom_site_fract_y
_atom_site_fract_z
Si Si1 0.909664 0.706814 0.377229
Si Si2 0.173193 0.567195 0.000971
Si Si3 0.927825 0.637669 0.008492
Si Si4 0.214294 0.950618 0.755627
Si Si5 0.184192 0.334476 0.267355
Si Si6 0.914903 0.858293 0.158818
Si Si7 0.420252 0.539305 0.980035
O O1 0.850515 0.624902 0.394265
O O2 0.885369 0.777796 0.243643
O O3 0.922729 0.814967 0.477859
O O4 0.985195 0.633140 0.420171
O O5 0.253026 0.519873 0.092828
O O6 0.113542 0.461228 0.942320
O O7 0.173145 0.659968 0.896011
O O8 0.907443 0.769099 0.044615
O O9 0.889894 0.634987 0.855919
O O10 0.211582 0.800318 0.747441
O O11 0.261039 0.051128 0.715827
O O12 0.133883 0.990050 0.658827
O O13 0.000000 0.866462 0.250000
O O14 0.897358 0.987876 0.087621
O O15 0.500000 0.500000 0.000000
#
# Coordination Sequence:
#
# PCOD9285245 Si02
#       7
#     8   8   8   8   8   8   8
#     4  11  24  44  70 104 142 186 237 296 361 426
#     4  11  26  44  70 100 145 191 235 293 358 437
#     4  10  22  44  68 104 136 185 239 292 353 425
#     4  11  25  46  70 101 144 183 241 297 364 435
#     4  11  24  48  69 103 144 190 242 297 361 434
#     4  10  21  41  68  99 143 173 231 295 353 416
#     4  12  22  44  70 105 135 180 237 298 363 432
#
# _framework density 23.982942000000001
#
# number of rings (size 3 to 8) (size 9 to 14) (size 15 to 20)
#    0.000    1.143    4.286    1.714    4.000    2.857 
#    5.143    2.143    0.000    0.000    0.000    0.000 
#    0.000    0.000    0.000    0.000    0.000    0.000 
#
# Total GULP energy -156132.217617 kJ/mol
# GULP energy per Si atom -5576.150629 kJ/mol
# Density = 2.392836 g / cm^3
# Si number density = 23.982942 Si / 1000 Ang^3
#
#
#
# Elastic Constant Matrix: (Units=GPa)
#
#
# Indices 1 2 3 4 5 6 
#
# 1 107.4982 47.1066 46.5486 0.0000 9.4504 0.0000
# 2 47.1066 115.9542 12.8486 0.0000 8.8053 0.0000
# 3 46.5486 12.8486 118.7253 0.0000 8.6665 0.0000
# 4 0.0000 0.0000 0.0000 35.0409 0.0000 0.4574
# 5 9.4504 8.8053 8.6665 0.0000 31.3997 0.0000
# 6 0.0000 0.0000 0.0000 0.4574 0.0000 30.6950
#
#
#
# Elastic Compliance Matrix: (Units=1/GPa)
#
#
# Indices 1 2 3 4 5 6 
#
# 1 0.013611 -0.004900 -0.004702 0.000000 -0.001425 0.000000
# 2 -0.004900 0.010649 0.000897 0.000000 -0.001759 0.000000
# 3 -0.004702 0.000897 0.010292 0.000000 -0.001677 0.000000
# 4 0.000000 0.000000 0.000000 0.028544 0.000000 -0.000425
# 5 -0.001425 -0.001759 -0.001677 0.000000 0.033232 0.000000
# 6 0.000000 0.000000 0.000000 -0.000425 0.000000 0.032585
#
#
# Mechanical properties :
#
#
# Convention : Reuss Voigt Hill
#
# Bulk Modulus (GPa) = 58.33877 61.68724 60.01301
# Shear Modulus (GPa) = 32.88662 35.13870 34.01266
#
# Velocity S-wave (km/s) = 3.70706 3.83189 3.76999
# Velocity P-wave (km/s) = 6.53460 6.73461 6.63536
#
# Compressibility (1/GPa) = 0.01714126
#
# Stress axis : x y z
#
# Youngs Moduli (GPa) = 73.46864 93.90520 97.16546
#
# Poissons Ratio (x) = 0.46017 0.45690
# Poissons Ratio (y) = 0.36002 -0.08718
# Poissons Ratio (z) = 0.34547 -0.08426
#
# Static dielectric constant tensor:
#      x y z
#    x 2.098720 0.000000 0.002560 
#    y 0.000000 1.989230 0.000000 
#    z 0.002560 0.000000 1.966290 
# 
# From -- ./inp_files/117686.got.cif
#   From: 2010.05.17/outbox.cif.g08.bks.cpg/sg15_59_cif.got.tgz:117686.got - 2010.06.03 18:47:42.
