data_PCOD9285001
_publ_section_title
;
Structure prediction by ZEFSAII (Michael W. Deem and Ramdas Pophale) SiO2 
 PCOD9285001
Probable space group: C 2/C
;
_chemical_formula_sum "Si O2"
_cell_formula_units_Z 40
_cell_length_a 5.040422
_cell_length_b 34.163050
_cell_length_c 13.814898
_cell_angle_alpha 90.000000
_cell_angle_beta 125.375760
_cell_angle_gamma 90.000000
_cell_volume 1939.668158
_symmetry_space_group_name_H-M "C 2/C"
_symmetry_group_IT_number 15
_symmetry_cell_setting 'monoclinic'
loop_
_space_group_symop_operation_xyz
x,y,z
-x,y,1/2-z
-x,-y,-z
x,-y,1/2+z
1/2+x,1/2+y,z
1/2-x,1/2+y,1/2-z
1/2-x,1/2-y,-z
1/2+x,1/2-y,1/2+z
loop_
_atom_site_type_symbol
_atom_site_label
_atom_site_fract_x
_atom_site_fract_y
_atom_site_fract_z
Si Si1 0.692889 0.191513 0.115255
Si Si2 0.382620 0.274738 0.333035
Si Si3 0.295108 0.921359 0.112635
Si Si4 0.544797 0.341490 0.504436
Si Si5 0.284954 0.473051 0.108408
O O1 0.565955 0.236139 0.090888
O O2 0.426367 0.162707 0.105104
O O3 0.000000 0.191527 0.250000
O O4 0.819982 0.178996 0.037316
O O5 0.500000 0.265615 0.250000
O O6 0.526393 0.314874 0.404122
O O7 0.000000 0.281526 0.250000
O O8 0.500000 0.909080 0.250000
O O9 0.571696 0.935969 0.098124
O O10 0.058358 0.957467 0.091802
O O11 0.081418 0.885146 0.033575
O O12 0.500000 0.486832 0.250000
O O13 0.000000 0.500000 0.000000
#
# Coordination Sequence:
#
# PCOD9285001 Si02
#       5
#     8   8   8   8   8
#     4  11  23  39  54  78 117 162 206 251 297 351
#     4  11  22  37  58  85 113 151 204 256 302 357
#     4  10  22  39  62  92 122 150 191 247 303 352
#     4  12  22  38  61  84 115 157 199 248 305 359
#     4  10  21  41  66  93 125 160 196 242 299 367
#
# _framework density 20.622085999999999
#
# number of rings (size 3 to 8) (size 9 to 14) (size 15 to 20)
#    0.000    1.200    0.000    7.800    0.000    2.400 
#    0.000    6.000    0.000    0.000    0.000    0.000 
#    0.000    0.000    0.000    0.000    0.000    0.000 
#
# Total GULP energy -111640.161522 kJ/mol
# GULP energy per Si atom -5582.008076 kJ/mol
# Density = 2.057515 g / cm^3
# Si number density = 20.622086 Si / 1000 Ang^3
#
#
#
# Elastic Constant Matrix: (Units=GPa)
#
#
# Indices 1 2 3 4 5 6 
#
# 1 103.1070 -0.5614 13.6553 0.0000 10.9944 0.0000
# 2 -0.5614 58.6608 39.2908 0.0000 6.2160 0.0000
# 3 13.6553 39.2908 71.9135 0.0000 27.1106 0.0000
# 4 0.0000 0.0000 0.0000 28.2577 0.0000 16.8438
# 5 10.9944 6.2160 27.1106 0.0000 45.4073 0.0000
# 6 0.0000 0.0000 0.0000 16.8438 0.0000 27.1352
#
#
#
# Elastic Compliance Matrix: (Units=1/GPa)
#
#
# Indices 1 2 3 4 5 6 
#
# 1 0.010173 0.001911 -0.002515 0.000000 -0.001223 0.000000
# 2 0.001911 0.028854 -0.018665 0.000000 0.006732 0.000000
# 3 -0.002515 -0.018665 0.030182 0.000000 -0.014856 0.000000
# 4 0.000000 0.000000 0.000000 0.056173 0.000000 -0.034869
# 5 -0.001223 0.006732 -0.014856 0.000000 0.030267 0.000000
# 6 0.000000 0.000000 0.000000 -0.034869 0.000000 0.058497
#
#
# Mechanical properties :
#
#
# Convention : Reuss Voigt Hill
#
# Bulk Modulus (GPa) = 32.60429 37.60561 35.10495
# Shear Modulus (GPa) = 19.01813 32.24648 25.63231
#
# Velocity S-wave (km/s) = 3.04010 3.95864 3.52938
# Velocity P-wave (km/s) = 5.30732 6.25856 5.80247
#
# Compressibility (1/GPa) = 0.03067081
#
# Stress axis : x y z
#
# Youngs Moduli (GPa) = 98.30367 34.65701 33.13257
#
# Poissons Ratio (x) = -0.06624 0.08332
# Poissons Ratio (y) = -0.18789 0.61843
# Poissons Ratio (z) = 0.24721 0.64689
#
# Static dielectric constant tensor:
#      x y z
#    x 1.773100 0.000000 0.075300 
#    y 0.000000 1.715690 0.000000 
#    z 0.075300 0.000000 1.865770 
# 
# From -- ./inp_files/73326.got.cif
#   From: 2010.05.17/outbox.cif.g08.bks.cpg/sg15_37_cif.got.tgz:73326.got - 2010.06.03 18:47:42.
