data_PCOD9285394
_publ_section_title
;
Structure prediction by ZEFSAII (Michael W. Deem and Ramdas Pophale) SiO2 
 PCOD9285394
Probable space group: C 2/C
;
_chemical_formula_sum "Si O2"
_cell_formula_units_Z 60
_cell_length_a 11.816558
_cell_length_b 17.327647
_cell_length_c 29.429027
_cell_angle_alpha 90.000000
_cell_angle_beta 151.987794
_cell_angle_gamma 90.000000
_cell_volume 2830.021515
_symmetry_space_group_name_H-M "C 2/C"
_symmetry_group_IT_number 15
_symmetry_cell_setting 'monoclinic'
loop_
_space_group_symop_operation_xyz
x,y,z
-x,y,1/2-z
-x,-y,-z
x,-y,1/2+z
1/2+x,1/2+y,z
1/2-x,1/2+y,1/2-z
1/2-x,1/2-y,-z
1/2+x,1/2-y,1/2+z
loop_
_atom_site_type_symbol
_atom_site_label
_atom_site_fract_x
_atom_site_fract_y
_atom_site_fract_z
Si Si1 0.104273 0.556600 0.094737
Si Si2 0.880579 0.867689 0.285309
Si Si3 0.676569 0.661426 0.971410
Si Si4 0.916181 0.419528 0.081219
Si Si5 0.500000 0.262002 0.250000
Si Si6 0.767574 0.948102 0.923868
Si Si7 0.135167 0.872960 0.632055
Si Si8 0.559338 0.449357 0.700960
O O1 0.270116 0.577012 0.197332
O O2 0.283908 0.568841 0.116730
O O3 0.016604 0.468200 0.073393
O O4 0.873787 0.611480 0.013468
O O5 0.609358 0.860871 0.170027
O O6 0.039260 0.815531 0.307913
O O7 0.932300 0.846205 0.355684
O O8 0.936923 0.957973 0.299649
O O9 0.750000 0.750000 0.000000
O O10 0.678729 0.620397 0.021371
O O11 0.905638 0.490042 0.114116
O O12 0.652272 0.382229 0.981110
O O13 0.733435 0.209271 0.322322
O O14 0.722858 0.916198 0.858244
O O15 0.000000 0.000000 0.000000
O O16 0.149058 0.912195 0.686188
#
# Coordination Sequence:
#
# PCOD9285394 Si02
#       8
#     8   8   8   8   4   8   8   8
#     4   9  20  39  66  98 126 161 227 281 313 402
#     4  11  23  41  64  94 130 178 214 275 329 397
#     4  11  23  39  65  89 134 177 213 265 343 397
#     4   9  20  40  67  96 128 166 232 276 321 399
#     4  12  28  40  62 100 148 168 220 272 350 398
#     4   9  19  41  63  95 126 164 224 274 315 391
#     4  11  24  40  67  98 135 174 213 281 340 397
#     4  10  21  41  72  96 125 175 229 272 333 395
#
# _framework density 21.201252
#
# number of rings (size 3 to 8) (size 9 to 14) (size 15 to 20)
#    0.000    1.867    0.000    4.800    7.467    3.733 
#    0.000    4.667    0.000    0.000    0.000    0.000 
#    0.000    0.000    0.000    0.000    0.000    0.000 
#
# Total GULP energy -167381.539837 kJ/mol
# GULP energy per Si atom -5579.384661 kJ/mol
# Density = 2.115300 g / cm^3
# Si number density = 21.201252 Si / 1000 Ang^3
#
#
#
# Elastic Constant Matrix: (Units=GPa)
#
#
# Indices 1 2 3 4 5 6 
#
# 1 126.4225 43.8417 31.5141 -0.0013 -10.5911 0.0023
# 2 43.8417 108.7370 42.7698 0.0037 -5.4081 -0.0056
# 3 31.5141 42.7698 112.9600 0.0125 -7.2073 -0.0236
# 4 -0.0013 0.0037 0.0125 71.8867 0.0040 -130.8219
# 5 -10.5911 -5.4081 -7.2073 0.0040 41.0749 -0.0078
# 6 0.0023 -0.0056 -0.0236 -130.8219 -0.0078 315.1510
#
#
#
# Elastic Compliance Matrix: (Units=1/GPa)
#
#
# Indices 1 2 3 4 5 6 
#
# 1 0.009507 -0.003226 -0.001316 0.000001 0.001796 0.000000
# 2 -0.003226 0.011921 -0.003607 0.000000 0.000105 0.000000
# 3 -0.001316 -0.003607 0.010653 -0.000001 0.001055 0.000000
# 4 0.000001 0.000000 -0.000001 0.056878 -0.000001 0.023611
# 5 0.001796 0.000105 0.001055 -0.000001 0.025008 0.000000
# 6 0.000000 0.000000 0.000000 0.023611 0.000000 0.012974
#
#
# Mechanical properties :
#
#
# Convention : Reuss Voigt Hill
#
# Bulk Modulus (GPa) = 63.36110 64.93009 64.14560
# Shear Modulus (GPa) = 33.66972 100.95545 67.31259
#
# Velocity S-wave (km/s) = 3.98942 6.90804 5.64077
# Velocity P-wave (km/s) = 7.15340 9.71186 8.52910
#
# Compressibility (1/GPa) = 0.01578255
#
# Stress axis : x y z
#
# Youngs Moduli (GPa) = 105.18177 83.88396 93.87099
#
# Poissons Ratio (x) = 0.27063 0.12356
# Poissons Ratio (y) = 0.33934 0.33859
# Poissons Ratio (z) = 0.13845 0.30257
#
# Static dielectric constant tensor:
#      x y z
#    x 1.840250 0.000000 -0.037620 
#    y 0.000000 1.740880 0.000000 
#    z -0.037620 0.000000 1.981460 
# 
# From -- ./inp_files/311571.got.cif
#   From: 2010.05.17/outbox.cif.g08.bks.cpg/sg15_156_cif.got.tgz:311571.got - 2010.06.03 18:47:42.
