data_PCOD9285773
_publ_section_title
;
Structure prediction by ZEFSAII (Michael W. Deem and Ramdas Pophale) SiO2 
 PCOD9285773
Probable space group: C 2/C
;
_chemical_formula_sum "Si O2"
_cell_formula_units_Z 64
_cell_length_a 11.926969
_cell_length_b 19.583925
_cell_length_c 18.299970
_cell_angle_alpha 90.000000
_cell_angle_beta 48.237552
_cell_angle_gamma 90.000000
_cell_volume 3188.366230
_symmetry_space_group_name_H-M "C 2/C"
_symmetry_group_IT_number 15
_symmetry_cell_setting 'monoclinic'
loop_
_space_group_symop_operation_xyz
x,y,z
-x,y,1/2-z
-x,-y,-z
x,-y,1/2+z
1/2+x,1/2+y,z
1/2-x,1/2+y,1/2-z
1/2-x,1/2-y,-z
1/2+x,1/2-y,1/2+z
loop_
_atom_site_type_symbol
_atom_site_label
_atom_site_fract_x
_atom_site_fract_y
_atom_site_fract_z
Si Si1 0.340678 0.265941 0.532326
Si Si2 0.609205 0.183071 0.632454
Si Si3 0.606351 0.564252 0.773890
Si Si4 0.590306 0.578529 0.491624
Si Si5 0.169508 0.076950 0.171847
Si Si6 0.311179 0.193796 0.688073
Si Si7 0.815433 0.718461 0.123276
Si Si8 0.183272 0.944338 0.493854
O O1 0.250000 0.250000 0.500000
O O2 0.343702 0.346777 0.541030
O O3 0.266837 0.226844 0.631351
O O4 0.511848 0.239704 0.453613
O O5 0.500000 0.174848 0.750000
O O6 0.491566 0.191142 0.617979
O O7 0.717547 0.247394 0.600349
O O8 0.709655 0.116190 0.578749
O O9 0.500000 0.581355 0.750000
O O10 0.510630 0.569548 0.890443
O O11 0.668267 0.488729 0.725999
O O12 0.738307 0.619279 0.725108
O O13 0.712751 0.518620 0.446163
O O14 0.481604 0.570615 0.468784
O O15 0.283649 0.137878 0.139129
O O16 0.188416 0.053325 0.079439
O O17 0.000000 0.106813 0.250000
O O18 0.251530 0.243390 0.776974
#
# Coordination Sequence:
#
# PCOD9285773 Si02
#       8
#     8   8   8   8   8   8   8   8
#     4  12  26  42  64  93 129 174 226 263 322 391
#     4  10  21  42  66  97 130 169 212 270 343 382
#     4  11  21  44  66  90 130 177 215 261 321 399
#     4  11  22  41  66  93 126 177 221 257 325 391
#     4  11  23  38  67 101 128 164 217 276 329 384
#     4  11  24  40  71  92 128 179 209 272 332 391
#     4  11  24  42  66  99 132 165 219 276 326 396
#     4  11  22  38  68  95 130 166 218 270 319 391
#
# _framework density 20.072977000000002
#
# number of rings (size 3 to 8) (size 9 to 14) (size 15 to 20)
#    0.000    1.000    5.000    3.375    3.500    1.000 
#    2.250    1.250    0.000    0.000    0.000    0.000 
#    0.000    0.000    0.000    0.000    0.000    0.000 
#
# Total GULP energy -178788.386928 kJ/mol
# GULP energy per Si atom -5587.137092 kJ/mol
# Density = 2.002729 g / cm^3
# Si number density = 20.072977 Si / 1000 Ang^3
#
#
#
# Elastic Constant Matrix: (Units=GPa)
#
#
# Indices 1 2 3 4 5 6 
#
# 1 81.3064 19.9615 2.6980 0.0000 8.4392 0.0000
# 2 19.9615 108.2694 3.3060 0.0001 -2.2441 0.0000
# 3 2.6980 3.3060 32.4491 -0.0001 6.0228 -0.0001
# 4 0.0000 0.0001 -0.0001 29.0583 0.0000 -3.0014
# 5 8.4392 -2.2441 6.0228 0.0000 25.8525 0.0000
# 6 0.0000 0.0000 -0.0001 -3.0014 0.0000 22.8184
#
#
#
# Elastic Compliance Matrix: (Units=1/GPa)
#
#
# Indices 1 2 3 4 5 6 
#
# 1 0.013407 -0.002567 0.000001 0.000000 -0.004599 0.000000
# 2 -0.002567 0.009785 -0.001146 0.000000 0.001954 0.000000
# 3 0.000001 -0.001146 0.032352 0.000000 -0.007637 0.000000
# 4 0.000000 0.000000 0.000000 0.034888 0.000000 0.004589
# 5 -0.004599 0.001954 -0.007637 0.000000 0.042131 0.000000
# 6 0.000000 0.000000 0.000000 0.004589 0.000000 0.044428
#
#
# Mechanical properties :
#
#
# Convention : Reuss Voigt Hill
#
# Bulk Modulus (GPa) = 20.78234 30.43954 25.61094
# Shear Modulus (GPa) = 24.94324 28.61646 26.77985
#
# Velocity S-wave (km/s) = 3.52892 3.77984 3.65653
# Velocity P-wave (km/s) = 5.19425 5.85209 5.53295
#
# Compressibility (1/GPa) = 0.04811777
#
# Stress axis : x y z
#
# Youngs Moduli (GPa) = 74.58914 102.19691 30.91030
#
# Poissons Ratio (x) = 0.26235 -0.00002
# Poissons Ratio (y) = 0.19148 0.03543
# Poissons Ratio (z) = -0.00004 0.11714
#
# Static dielectric constant tensor:
#      x y z
#    x 1.723750 0.000000 0.031560 
#    y 0.000000 1.725870 0.000000 
#    z 0.031560 0.000000 1.699410 
# 
# From -- ./inp_files/239779.got.cif
#   From: 2010.05.17/outbox.cif.g08.bks.cpg/sg15_120_cif.got.tgz:239779.got - 2010.06.03 18:47:42.
