data_PCOD9285359
_publ_section_title
;
Structure prediction by ZEFSAII (Michael W. Deem and Ramdas Pophale) SiO2 
 PCOD9285359
Probable space group: C 2/C
;
_chemical_formula_sum "Si O2"
_cell_formula_units_Z 40
_cell_length_a 23.994626
_cell_length_b 9.213481
_cell_length_c 13.772493
_cell_angle_alpha 90.000000
_cell_angle_beta 32.600961
_cell_angle_gamma 90.000000
_cell_volume 1640.460274
_symmetry_space_group_name_H-M "C 2/C"
_symmetry_group_IT_number 15
_symmetry_cell_setting 'monoclinic'
loop_
_space_group_symop_operation_xyz
x,y,z
-x,y,1/2-z
-x,-y,-z
x,-y,1/2+z
1/2+x,1/2+y,z
1/2-x,1/2+y,1/2-z
1/2-x,1/2-y,-z
1/2+x,1/2-y,1/2+z
loop_
_atom_site_type_symbol
_atom_site_label
_atom_site_fract_x
_atom_site_fract_y
_atom_site_fract_z
Si Si1 0.618913 0.570629 0.602954
Si Si2 0.057214 0.849803 0.391775
Si Si3 0.705048 0.857576 0.795343
Si Si4 0.905556 0.612214 0.634236
Si Si5 0.882060 0.722055 0.885146
O O1 0.500000 0.593697 0.750000
O O2 0.632670 0.631558 0.690692
O O3 0.692376 0.650013 0.418917
O O4 0.630430 0.395941 0.594392
O O5 0.121918 0.764031 0.379537
O O6 0.959667 0.750104 0.509354
O O7 0.000000 0.000000 0.500000
O O8 0.673057 0.022965 0.815488
O O9 0.700924 0.841045 0.916803
O O10 0.871229 0.655354 0.793537
O O11 0.000000 0.500000 0.500000
O O12 0.000000 0.689093 0.750000
#
# Coordination Sequence:
#
# PCOD9285359 Si02
#       5
#     8   8   8   8   8
#     4  11  25  45  67  99 139 192 240 291 347 421
#     4  11  20  44  73 100 142 180 227 293 367 423
#     4  11  25  45  70 106 142 189 237 290 356 430
#     4  10  21  41  71 105 134 186 235 292 352 430
#     4  11  20  45  71  95 146 188 228 296 365 420
#
# _framework density 24.383402
#
# number of rings (size 3 to 8) (size 9 to 14) (size 15 to 20)
#    0.000    1.200    6.000    1.800    0.000    2.400 
#   21.600    0.000    0.000    0.000    0.000    0.000 
#    0.000    0.000    0.000    0.000    0.000    0.000 
#
# Total GULP energy -111881.744220 kJ/mol
# GULP energy per Si atom -5594.087211 kJ/mol
# Density = 2.432790 g / cm^3
# Si number density = 24.383402 Si / 1000 Ang^3
#
#
#
# Elastic Constant Matrix: (Units=GPa)
#
#
# Indices 1 2 3 4 5 6 
#
# 1 69.9623 42.2079 39.6121 0.0000 19.9054 0.0000
# 2 42.2079 133.1160 56.1472 -0.0001 13.7343 0.0001
# 3 39.6121 56.1472 201.4879 0.0000 37.4320 0.0000
# 4 0.0000 -0.0001 0.0000 44.1143 0.0000 15.5947
# 5 19.9054 13.7343 37.4320 0.0000 48.8396 0.0000
# 6 0.0000 0.0001 0.0000 15.5947 0.0000 21.3140
#
#
#
# Elastic Compliance Matrix: (Units=1/GPa)
#
#
# Indices 1 2 3 4 5 6 
#
# 1 0.019745 -0.005084 -0.001441 0.000000 -0.005513 0.000000
# 2 -0.005084 0.009841 -0.001881 0.000000 0.000747 0.000000
# 3 -0.001441 -0.001881 0.006487 0.000000 -0.003855 0.000000
# 4 0.000000 0.000000 0.000000 0.030577 0.000000 -0.022372
# 5 -0.005513 0.000747 -0.003855 0.000000 0.025467 0.000000
# 6 0.000000 0.000000 0.000000 -0.022372 0.000000 0.063287
#
#
# Mechanical properties :
#
#
# Convention : Reuss Voigt Hill
#
# Bulk Modulus (GPa) = 51.92112 75.61117 63.76615
# Shear Modulus (GPa) = 27.98981 40.62684 34.30832
#
# Velocity S-wave (km/s) = 3.39175 4.08630 3.75512
# Velocity P-wave (km/s) = 6.05628 7.30345 6.70891
#
# Compressibility (1/GPa) = 0.01925999
#
# Stress axis : x y z
#
# Youngs Moduli (GPa) = 50.64549 101.61725 154.15717
#
# Poissons Ratio (x) = 0.51663 0.22211
# Poissons Ratio (y) = 0.25749 0.29004
# Poissons Ratio (z) = 0.07297 0.19119
#
# Static dielectric constant tensor:
#      x y z
#    x 2.018630 0.000000 -0.041950 
#    y 0.000000 1.908870 0.000000 
#    z -0.041950 0.000000 1.934660 
# 
# From -- ./inp_files/180989.got.cif
#   From: 2010.05.17/outbox.cif.g08.bks.cpg/sg15_91_cif.got.tgz:180989.got - 2010.06.03 18:47:42.
