data_PCOD9285310
_publ_section_title
;
Structure prediction by ZEFSAII (Michael W. Deem and Ramdas Pophale) SiO2 
 PCOD9285310
Probable space group: C 2/C
;
_chemical_formula_sum "Si O2"
_cell_formula_units_Z 40
_cell_length_a 16.692893
_cell_length_b 23.948023
_cell_length_c 9.026255
_cell_angle_alpha 90.000000
_cell_angle_beta 26.117064
_cell_angle_gamma 90.000000
_cell_volume 1588.420297
_symmetry_space_group_name_H-M "C 2/C"
_symmetry_group_IT_number 15
_symmetry_cell_setting 'monoclinic'
loop_
_space_group_symop_operation_xyz
x,y,z
-x,y,1/2-z
-x,-y,-z
x,-y,1/2+z
1/2+x,1/2+y,z
1/2-x,1/2+y,1/2-z
1/2-x,1/2-y,-z
1/2+x,1/2-y,1/2+z
loop_
_atom_site_type_symbol
_atom_site_label
_atom_site_fract_x
_atom_site_fract_y
_atom_site_fract_z
Si Si1 0.674000 0.657049 0.176740
Si Si2 0.178529 0.564262 0.733680
Si Si3 0.682504 0.536070 0.675302
Si Si4 0.998128 0.264277 0.073843
Si Si5 0.196493 0.630196 0.212151
O O1 0.516690 0.702201 0.465027
O O2 0.755497 0.632902 0.193828
O O3 0.659289 0.604285 0.096089
O O4 0.817878 0.697792 0.852193
O O5 0.219749 0.552026 0.835075
O O6 0.191175 0.506862 0.624136
O O7 0.992481 0.597184 0.006730
O O8 0.660899 0.593107 0.616688
O O9 0.500000 0.500000 0.000000
O O10 0.000000 0.259654 0.250000
O O11 0.155456 0.304456 0.750307
#
# Coordination Sequence:
#
# PCOD9285310 Si02
#       5
#     8   8   8   8   8
#     4   9  18  36  66  99 133 173 227 282 333 400
#     4  11  23  41  67  96 134 181 231 282 345 418
#     4  12  26  43  64  97 138 179 228 291 353 408
#     4   8  16  33  64 101 134 176 223 276 337 401
#     4  10  21  41  70 100 133 182 237 282 336 414
#
# _framework density 25.182251999999998
#
# number of rings (size 3 to 8) (size 9 to 14) (size 15 to 20)
#    0.000    2.000    0.000    4.800    0.000    3.200 
#    0.000    0.000    0.000   55.200    0.000    0.000 
#    0.000    4.800    0.000    0.000    0.000    0.000 
#
# Total GULP energy -111796.373870 kJ/mol
# GULP energy per Si atom -5589.818694 kJ/mol
# Density = 2.512494 g / cm^3
# Si number density = 25.182252 Si / 1000 Ang^3
#
#
#
# Elastic Constant Matrix: (Units=GPa)
#
#
# Indices 1 2 3 4 5 6 
#
# 1 134.8676 86.6030 40.1555 -0.0034 16.3876 -0.0003
# 2 86.6030 211.6739 53.2070 0.0058 22.0988 0.0012
# 3 40.1555 53.2070 105.3461 -0.0141 -3.0485 -0.0001
# 4 -0.0034 0.0058 -0.0141 47.8843 0.0103 -6.4877
# 5 16.3876 22.0988 -3.0485 0.0103 32.6809 0.0014
# 6 -0.0003 0.0012 -0.0001 -6.4877 0.0014 41.6740
#
#
#
# Elastic Compliance Matrix: (Units=1/GPa)
#
#
# Indices 1 2 3 4 5 6 
#
# 1 0.010755 -0.003438 -0.002459 0.000001 -0.003298 0.000000
# 2 -0.003438 0.007064 -0.002352 -0.000001 -0.003272 0.000000
# 3 -0.002459 -0.002352 0.011731 0.000003 0.003917 0.000000
# 4 0.000001 -0.000001 0.000003 0.021334 -0.000006 0.003321
# 5 -0.003298 -0.003272 0.003917 -0.000006 0.034830 -0.000002
# 6 0.000000 0.000000 0.000000 0.003321 -0.000002 0.024513
#
#
# Mechanical properties :
#
#
# Convention : Reuss Voigt Hill
#
# Bulk Modulus (GPa) = 76.61217 90.20207 83.40712
# Shear Modulus (GPa) = 38.14643 42.57596 40.36120
#
# Velocity S-wave (km/s) = 3.89628 4.11629 4.00780
# Velocity P-wave (km/s) = 7.12253 7.64783 7.38985
#
# Compressibility (1/GPa) = 0.01305276
#
# Stress axis : x y z
#
# Youngs Moduli (GPa) = 92.97975 141.57136 85.24532
#
# Poissons Ratio (x) = 0.48672 0.20958
# Poissons Ratio (y) = 0.31966 0.20048
# Poissons Ratio (z) = 0.22860 0.33295
#
# Static dielectric constant tensor:
#      x y z
#    x 1.948970 0.000000 -0.125250 
#    y 0.000000 1.999330 0.000000 
#    z -0.125250 0.000000 2.322710 
# 
# From -- ./inp_files/52107.got.cif
#   From: 2010.05.17/outbox.cif.g08.bks.cpg/sg15_27_cif.got.tgz:52107.got - 2010.06.03 18:47:42.
