data_PCOD9285165
_publ_section_title
;
Structure prediction by ZEFSAII (Michael W. Deem and Ramdas Pophale) SiO2 
 PCOD9285165
Probable space group: C 2/C
;
_chemical_formula_sum "Si O2"
_cell_formula_units_Z 56
_cell_length_a 27.873041
_cell_length_b 8.327561
_cell_length_c 16.886360
_cell_angle_alpha 90.000000
_cell_angle_beta 143.459571
_cell_angle_gamma 90.000000
_cell_volume 2333.671114
_symmetry_space_group_name_H-M "C 2/C"
_symmetry_group_IT_number 15
_symmetry_cell_setting 'monoclinic'
loop_
_space_group_symop_operation_xyz
x,y,z
-x,y,1/2-z
-x,-y,-z
x,-y,1/2+z
1/2+x,1/2+y,z
1/2-x,1/2+y,1/2-z
1/2-x,1/2-y,-z
1/2+x,1/2-y,1/2+z
loop_
_atom_site_type_symbol
_atom_site_label
_atom_site_fract_x
_atom_site_fract_y
_atom_site_fract_z
Si Si1 0.364790 0.463133 0.657731
Si Si2 0.042126 0.677735 0.487770
Si Si3 0.132731 0.319057 0.809615
Si Si4 0.462802 0.519588 0.038479
Si Si5 0.169598 0.182409 0.551912
Si Si6 0.834621 0.349122 0.220540
Si Si7 0.915828 0.487534 0.105803
O O1 0.332643 0.638551 0.642892
O O2 0.460699 0.459378 0.803182
O O3 0.351463 0.439002 0.547365
O O4 0.330904 0.307776 0.659747
O O5 0.078401 0.651476 0.622109
O O6 0.069326 0.544229 0.462991
O O7 0.946477 0.692256 0.351077
O O8 0.076604 0.845923 0.501381
O O9 0.176437 0.480764 0.838063
O O10 0.103878 0.368562 0.859817
O O11 0.500000 0.500000 0.000000
O O12 0.393430 0.648653 0.961812
O O13 0.264194 0.165413 0.692372
O O14 0.151802 0.354334 0.489429
O O15 0.000000 0.414882 0.250000
#
# Coordination Sequence:
#
# PCOD9285165 Si02
#       7
#     8   8   8   8   8   8   8
#     4  11  23  45  74 100 138 184 237 286 348 420
#     4  10  23  43  68 100 136 180 234 289 340 414
#     4  10  23  42  74 101 132 189 237 285 346 415
#     4  11  23  44  71  96 133 180 238 283 337 409
#     4  12  26  42  69 105 139 189 227 287 358 413
#     4  12  25  45  66 106 147 176 233 289 357 420
#     4  10  21  41  68 101 136 178 240 286 341 419
#
# _framework density 23.996527
#
# number of rings (size 3 to 8) (size 9 to 14) (size 15 to 20)
#    0.000    1.143    2.857    3.000    2.000    6.286 
#    2.571    0.000    0.000    0.000    0.000    0.000 
#    0.000    0.000    0.000    0.000    0.000    0.000 
#
# Total GULP energy -156506.028399 kJ/mol
# GULP energy per Si atom -5589.501014 kJ/mol
# Density = 2.394191 g / cm^3
# Si number density = 23.996527 Si / 1000 Ang^3
#
#
#
# Elastic Constant Matrix: (Units=GPa)
#
#
# Indices 1 2 3 4 5 6 
#
# 1 88.7045 33.5505 24.6021 0.0000 0.0428 0.0000
# 2 33.5505 156.8632 27.0719 0.0000 -0.9734 0.0000
# 3 24.6021 27.0719 57.1547 0.0000 -4.8647 0.0000
# 4 0.0000 0.0000 0.0000 8.7655 0.0000 -20.8898
# 5 0.0428 -0.9734 -4.8647 0.0000 20.9454 0.0000
# 6 0.0000 0.0000 0.0000 -20.8898 0.0000 9.3908
#
#
#
# Elastic Compliance Matrix: (Units=1/GPa)
#
#
# Indices 1 2 3 4 5 6 
#
# 1 0.013404 -0.002026 -0.004918 0.000000 -0.001264 0.000000
# 2 -0.002026 0.007253 -0.002585 0.000000 -0.000259 0.000000
# 3 -0.004918 -0.002585 0.021248 0.000000 0.004825 0.000000
# 4 0.000000 0.000000 0.000000 -0.026523 0.000000 -0.058999
# 5 -0.001264 -0.000259 0.004825 0.000000 0.048854 0.000000
# 6 0.000000 0.000000 0.000000 -0.058999 0.000000 -0.024757
#
#
# Mechanical properties :
#
#
# Convention : Reuss Voigt Hill
#
# Bulk Modulus (GPa) = 43.76883 52.57459 48.17171
# Shear Modulus (GPa) = 75.58020 22.32020 48.95020
#
# Velocity S-wave (km/s) = 5.61825 3.05313 4.52141
# Velocity P-wave (km/s) = 7.76952 5.86393 6.88299
#
# Compressibility (1/GPa) = 0.02284731
#
# Stress axis : x y z
#
# Youngs Moduli (GPa) = 74.60331 137.87574 47.06224
#
# Poissons Ratio (x) = 0.27935 0.23144
# Poissons Ratio (y) = 0.15115 0.12167
# Poissons Ratio (z) = 0.36688 0.35646
#
# Static dielectric constant tensor:
#      x y z
#    x 1.897900 0.000000 0.020200 
#    y 0.000000 1.953580 0.000000 
#    z 0.020200 0.000000 1.888300 
# 
# From -- ./inp_files/222087.got.cif
#   From: 2010.05.17/outbox.cif.g08.bks.cpg/sg15_112_cif.got.tgz:222087.got - 2010.06.03 18:47:42.
