data_PCOD9285788
_publ_section_title
;
Structure prediction by ZEFSAII (Michael W. Deem and Ramdas Pophale) SiO2 
 PCOD9285788
Probable space group: C 2/C
;
_chemical_formula_sum "Si O2"
_cell_formula_units_Z 48
_cell_length_a 14.054389
_cell_length_b 19.179562
_cell_length_c 14.302724
_cell_angle_alpha 90.000000
_cell_angle_beta 148.201639
_cell_angle_gamma 90.000000
_cell_volume 2031.531500
_symmetry_space_group_name_H-M "C 2/C"
_symmetry_group_IT_number 15
_symmetry_cell_setting 'monoclinic'
loop_
_space_group_symop_operation_xyz
x,y,z
-x,y,1/2-z
-x,-y,-z
x,-y,1/2+z
1/2+x,1/2+y,z
1/2-x,1/2+y,1/2-z
1/2-x,1/2-y,-z
1/2+x,1/2-y,1/2+z
loop_
_atom_site_type_symbol
_atom_site_label
_atom_site_fract_x
_atom_site_fract_y
_atom_site_fract_z
Si Si1 0.937562 0.661451 0.939298
Si Si2 0.205973 0.122569 0.194461
Si Si3 0.514730 0.513565 0.157329
Si Si4 0.532790 0.712999 0.384756
Si Si5 0.175000 0.590905 0.832140
Si Si6 0.557657 0.351907 0.196712
O O1 0.891354 0.600059 0.828478
O O2 0.744181 0.682679 0.819819
O O3 0.023174 0.721659 0.945964
O O4 0.081664 0.634513 0.134752
O O5 0.136063 0.049662 0.179156
O O6 0.137198 0.168935 0.223422
O O7 0.093725 0.148697 0.010964
O O8 0.500000 0.546080 0.250000
O O9 0.584646 0.435487 0.228940
O O10 0.307500 0.525202 0.953186
O O11 0.500000 0.731994 0.250000
O O12 0.701831 0.660071 0.541637
O O13 0.000000 0.586784 0.750000
O O14 0.500000 0.324834 0.250000
#
# Coordination Sequence:
#
# PCOD9285788 Si02
#       6
#     8   8   8   8   8   8
#     4  12  24  40  67  97 136 180 220 265 346 397
#     4  11  23  42  70 100 133 169 226 274 344 412
#     4  10  21  42  66  99 140 171 218 283 334 406
#     4  11  23  42  68 106 146 168 210 279 341 424
#     4  11  21  38  66 109 143 174 210 266 351 422
#     4  11  26  49  66  89 133 181 235 287 321 376
#
# _framework density 23.627495
#
# number of rings (size 3 to 8) (size 9 to 14) (size 15 to 20)
#    0.000    1.000    3.333    6.000    0.000    3.333 
#    9.000    0.833    0.000    0.000    0.000    0.000 
#    0.000    0.000    0.000    0.000    0.000    0.000 
#
# Total GULP energy -134103.702753 kJ/mol
# GULP energy per Si atom -5587.654281 kJ/mol
# Density = 2.357372 g / cm^3
# Si number density = 23.627495 Si / 1000 Ang^3
#
#
#
# Elastic Constant Matrix: (Units=GPa)
#
#
# Indices 1 2 3 4 5 6 
#
# 1 150.8471 15.9266 65.2333 0.0000 -20.0580 0.0000
# 2 15.9266 31.7844 8.2355 0.0000 0.0692 0.0000
# 3 65.2333 8.2355 143.6689 -0.0001 3.8564 0.0000
# 4 0.0000 0.0000 -0.0001 58.0498 0.0000 -2.1754
# 5 -20.0580 0.0692 3.8564 0.0000 22.1617 0.0000
# 6 0.0000 0.0000 0.0000 -2.1754 0.0000 24.3878
#
#
#
# Elastic Compliance Matrix: (Units=1/GPa)
#
#
# Indices 1 2 3 4 5 6 
#
# 1 0.010522 -0.004045 -0.004824 0.000000 0.010375 0.000000
# 2 -0.004045 0.033492 0.000018 0.000000 -0.003769 0.000000
# 3 -0.004824 0.000018 0.009311 0.000000 -0.005987 0.000000
# 4 0.000000 0.000000 0.000000 0.017284 0.000000 0.001542
# 5 0.010375 -0.003769 -0.005987 0.000000 0.055567 0.000000
# 6 0.000000 0.000000 0.000000 0.001542 0.000000 0.041142
#
#
# Mechanical properties :
#
#
# Convention : Reuss Voigt Hill
#
# Bulk Modulus (GPa) = 28.07218 56.12123 42.09670
# Shear Modulus (GPa) = 25.39426 36.71352 31.05389
#
# Velocity S-wave (km/s) = 3.28193 3.94616 3.62928
# Velocity P-wave (km/s) = 5.12527 6.67585 5.95128
#
# Compressibility (1/GPa) = 0.03562246
#
# Stress axis : x y z
#
# Youngs Moduli (GPa) = 95.03754 29.85751 107.40472
#
# Poissons Ratio (x) = 0.12078 0.51815
# Poissons Ratio (y) = 0.38443 -0.00193
# Poissons Ratio (z) = 0.45848 -0.00054
#
# Static dielectric constant tensor:
#      x y z
#    x 1.886310 0.000000 0.014100 
#    y 0.000000 2.033000 0.000000 
#    z 0.014100 0.000000 1.933940 
# 
# From -- ./inp_files/156843.got.cif
#   From: 2010.05.17/outbox.cif.g08.bks.cpg/sg15_79_cif.got.tgz:156843.got - 2010.06.03 18:47:42.
