data_PCOD9285497
_publ_section_title
;
Structure prediction by ZEFSAII (Michael W. Deem and Ramdas Pophale) SiO2 
 PCOD9285497
Probable space group: C 2/C
;
_chemical_formula_sum "Si O2"
_cell_formula_units_Z 36
_cell_length_a 15.651281
_cell_length_b 12.049864
_cell_length_c 8.556517
_cell_angle_alpha 90.000000
_cell_angle_beta 100.688006
_cell_angle_gamma 90.000000
_cell_volume 1585.727784
_symmetry_space_group_name_H-M "C 2/C"
_symmetry_group_IT_number 15
_symmetry_cell_setting 'monoclinic'
loop_
_space_group_symop_operation_xyz
x,y,z
-x,y,1/2-z
-x,-y,-z
x,-y,1/2+z
1/2+x,1/2+y,z
1/2-x,1/2+y,1/2-z
1/2-x,1/2-y,-z
1/2+x,1/2-y,1/2+z
loop_
_atom_site_type_symbol
_atom_site_label
_atom_site_fract_x
_atom_site_fract_y
_atom_site_fract_z
Si Si1 0.191939 0.464700 0.295847
Si Si2 0.940253 0.075910 0.594542
Si Si3 0.801429 0.896356 0.628956
Si Si4 0.000000 0.583106 0.750000
Si Si5 0.120228 0.727177 0.632238
O O1 0.250982 0.409690 0.449299
O O2 0.233474 0.575696 0.243369
O O3 0.090903 0.478386 0.312502
O O4 0.186090 0.376498 0.148169
O O5 0.890026 0.173867 0.490302
O O6 0.000000 0.125067 0.750000
O O7 0.873060 0.992544 0.651618
O O8 0.000000 0.000000 0.500000
O O9 0.851958 0.785475 0.694096
O O10 0.972077 0.665225 0.880548
#
# Coordination Sequence:
#
# PCOD9285497 Si02
#       5
#     8   8   8   4   8
#     4  10  24  41  67  95 131 173 219 263 332 381
#     4  12  22  38  68  97 134 165 218 269 331 374
#     4  12  21  42  67  96 131 174 215 271 320 395
#     4   8  22  42  62  88 130 172 214 258 324 382
#     4  10  21  42  62  93 129 171 217 258 326 385
#
# _framework density 22.702508000000002
#
# number of rings (size 3 to 8) (size 9 to 14) (size 15 to 20)
#    1.333    0.000    4.444    2.000    0.000    1.778 
#    0.000    0.000    0.000    0.000    0.000    0.000 
#    0.000    0.000    0.000    0.000    0.000    0.000 
#
# Total GULP energy -100298.621534 kJ/mol
# GULP energy per Si atom -5572.145641 kJ/mol
# Density = 2.265084 g / cm^3
# Si number density = 22.702508 Si / 1000 Ang^3
#
#
#
# Elastic Constant Matrix: (Units=GPa)
#
#
# Indices 1 2 3 4 5 6 
#
# 1 105.1128 16.8281 5.9324 0.0000 5.7260 0.0000
# 2 16.8281 21.8741 6.2662 0.0000 6.0604 0.0000
# 3 5.9324 6.2662 69.9148 0.0000 25.8184 0.0000
# 4 0.0000 0.0000 0.0000 26.0696 0.0000 -10.1459
# 5 5.7260 6.0604 25.8184 0.0000 32.6741 0.0000
# 6 0.0000 0.0000 0.0000 -10.1459 0.0000 9.2162
#
#
#
# Elastic Compliance Matrix: (Units=1/GPa)
#
#
# Indices 1 2 3 4 5 6 
#
# 1 0.010854 -0.008243 -0.000063 0.000000 -0.000324 0.000000
# 2 -0.008243 0.054555 -0.001393 0.000000 -0.007573 0.000000
# 3 -0.000063 -0.001393 0.020240 0.000000 -0.015724 0.000000
# 4 0.000000 0.000000 0.000000 0.067112 0.000000 0.073882
# 5 -0.000324 -0.007573 -0.015724 0.000000 0.044491 0.000000
# 6 0.000000 0.000000 0.000000 0.073882 0.000000 0.189839
#
#
# Mechanical properties :
#
#
# Convention : Reuss Voigt Hill
#
# Bulk Modulus (GPa) = 15.09407 28.32836 21.71122
# Shear Modulus (GPa) = 11.66663 24.78366 18.22514
#
# Velocity S-wave (km/s) = 2.26938 3.30763 2.83641
# Velocity P-wave (km/s) = 3.67829 5.20503 4.50678
#
# Compressibility (1/GPa) = 0.06625118
#
# Stress axis : x y z
#
# Youngs Moduli (GPa) = 92.12849 18.33016 49.40764
#
# Poissons Ratio (x) = 0.15109 0.00310
# Poissons Ratio (y) = 0.75940 0.06885
# Poissons Ratio (z) = 0.00578 0.02554
#
# Static dielectric constant tensor:
#      x y z
#    x 1.838240 0.000000 -0.027600 
#    y 0.000000 1.800860 0.000000 
#    z -0.027600 0.000000 1.888380 
# 
# From -- ./inp_files/37456.got.cif
#   From: 2010.05.17/outbox.cif.g08.bks.cpg/sg15_19_cif.got.tgz:37456.got - 2010.06.03 18:47:42.
