data_PCOD9285791
_publ_section_title
;
Structure prediction by ZEFSAII (Michael W. Deem and Ramdas Pophale) SiO2 
 PCOD9285791
Probable space group: C 2/C
;
_chemical_formula_sum "Si O2"
_cell_formula_units_Z 48
_cell_length_a 20.789675
_cell_length_b 17.980624
_cell_length_c 9.226134
_cell_angle_alpha 90.000000
_cell_angle_beta 142.181050
_cell_angle_gamma 90.000000
_cell_volume 2114.715515
_symmetry_space_group_name_H-M "C 2/C"
_symmetry_group_IT_number 15
_symmetry_cell_setting 'monoclinic'
loop_
_space_group_symop_operation_xyz
x,y,z
-x,y,1/2-z
-x,-y,-z
x,-y,1/2+z
1/2+x,1/2+y,z
1/2-x,1/2+y,1/2-z
1/2-x,1/2-y,-z
1/2+x,1/2-y,1/2+z
loop_
_atom_site_type_symbol
_atom_site_label
_atom_site_fract_x
_atom_site_fract_y
_atom_site_fract_z
Si Si1 0.614503 0.376674 0.892904
Si Si2 0.737034 0.868130 0.883108
Si Si3 0.666240 0.849062 0.063637
Si Si4 0.576319 0.991197 0.500794
Si Si5 0.569690 0.461444 0.247210
Si Si6 0.176341 0.784635 0.742807
O O1 0.500000 0.356130 0.750000
O O2 0.623764 0.465791 0.913077
O O3 0.619148 0.347843 0.735038
O O4 0.714539 0.348595 0.161002
O O5 0.671281 0.938368 0.709811
O O6 0.764192 0.819381 0.790464
O O7 0.673632 0.833808 0.905303
O O8 0.843677 0.902139 0.141226
O O9 0.611486 0.783606 0.058316
O O10 0.616412 0.929520 0.009982
O O11 0.500000 0.000000 0.500000
O O12 0.500000 0.952837 0.250000
O O13 0.500000 0.426953 0.250000
O O14 0.500000 0.500000 0.000000
O O15 0.250000 0.750000 0.000000
#
# Coordination Sequence:
#
# PCOD9285791 Si02
#       6
#     8   8   8   8   8   8
#     4  10  21  42  67 100 138 177 224 285 356 430
#     4  12  24  44  74  98 143 183 231 300 348 421
#     4  11  24  46  66 102 140 182 241 293 347 425
#     4  12  27  46  72 103 136 189 250 299 347 409
#     4  11  22  36  66 105 133 167 219 277 355 424
#     4  10  25  44  69 100 144 188 232 286 366 417
#
# _framework density 22.698089
#
# number of rings (size 3 to 8) (size 9 to 14) (size 15 to 20)
#    0.000    1.000    3.333    3.500    7.000    0.000 
#    6.000    2.500    0.000    0.000    0.000    0.000 
#    0.000    0.000    0.000    0.000    0.000    0.000 
#
# Total GULP energy -134023.906919 kJ/mol
# GULP energy per Si atom -5584.329455 kJ/mol
# Density = 2.264643 g / cm^3
# Si number density = 22.698089 Si / 1000 Ang^3
#
#
#
# Elastic Constant Matrix: (Units=GPa)
#
#
# Indices 1 2 3 4 5 6 
#
# 1 120.8506 32.3659 34.0682 0.0000 -31.3582 0.0000
# 2 32.3659 62.1603 4.3541 0.0000 -5.4739 0.0000
# 3 34.0682 4.3541 98.3842 0.0000 -7.8896 0.0000
# 4 0.0000 0.0000 0.0000 11.3396 0.0000 -21.4989
# 5 -31.3582 -5.4739 -7.8896 0.0000 40.8200 0.0000
# 6 0.0000 0.0000 0.0000 -21.4989 0.0000 33.2648
#
#
#
# Elastic Compliance Matrix: (Units=1/GPa)
#
#
# Indices 1 2 3 4 5 6 
#
# 1 0.013057 -0.005794 -0.003578 0.000000 0.008562 0.000000
# 2 -0.005794 0.018880 0.001033 0.000000 -0.001719 0.000000
# 3 -0.003578 0.001033 0.011324 0.000000 -0.000422 0.000000
# 4 0.000000 0.000000 0.000000 -0.391378 0.000000 -0.252946
# 5 0.008562 -0.001719 -0.000422 0.000000 0.030763 0.000000
# 6 0.000000 0.000000 0.000000 -0.252946 0.000000 -0.133416
#
#
# Mechanical properties :
#
#
# Convention : Reuss Voigt Hill
#
# Bulk Modulus (GPa) = 37.61889 46.99682 42.30786
# Shear Modulus (GPa) = -11.75831 31.12533 9.68351
#
# Velocity S-wave (km/s) = -2.27850 3.70709 2.06772
# Velocity P-wave (km/s) = 3.11248 6.25088 4.93766
#
# Compressibility (1/GPa) = 0.02658239
#
# Stress axis : x y z
#
# Youngs Moduli (GPa) = 76.58940 52.96492 88.30981
#
# Poissons Ratio (x) = 0.30687 0.31599
# Poissons Ratio (y) = 0.44374 -0.09121
# Poissons Ratio (z) = 0.27405 -0.05470
#
# Static dielectric constant tensor:
#      x y z
#    x 1.848420 0.000000 0.026340 
#    y 0.000000 1.897410 0.000000 
#    z 0.026340 0.000000 1.869190 
# 
# From -- ./inp_files/57987.got.cif
#   From: 2010.05.17/outbox.cif.g08.bks.cpg/sg15_29_cif.got.tgz:57987.got - 2010.06.03 18:47:42.
