data_PCOD9285623
_publ_section_title
;
Structure prediction by ZEFSAII (Michael W. Deem and Ramdas Pophale) SiO2 
 PCOD9285623
Probable space group: C 2/C
;
_chemical_formula_sum "Si O2"
_cell_formula_units_Z 32
_cell_length_a 14.262911
_cell_length_b 9.517687
_cell_length_c 22.251254
_cell_angle_alpha 90.000000
_cell_angle_beta 156.917725
_cell_angle_gamma 90.000000
_cell_volume 1184.236265
_symmetry_space_group_name_H-M "C 2/C"
_symmetry_group_IT_number 15
_symmetry_cell_setting 'monoclinic'
loop_
_space_group_symop_operation_xyz
x,y,z
-x,y,1/2-z
-x,-y,-z
x,-y,1/2+z
1/2+x,1/2+y,z
1/2-x,1/2+y,1/2-z
1/2-x,1/2-y,-z
1/2+x,1/2-y,1/2+z
loop_
_atom_site_type_symbol
_atom_site_label
_atom_site_fract_x
_atom_site_fract_y
_atom_site_fract_z
Si Si1 0.022491 0.298077 0.595802
Si Si2 0.821023 0.617761 0.190128
Si Si3 0.017268 0.144581 0.412044
Si Si4 0.743042 0.429252 0.927893
O O1 0.029327 0.286908 0.673173
O O2 0.303746 0.281932 0.747699
O O3 0.841667 0.208178 0.450509
O O4 0.946557 0.457773 0.536424
O O5 0.632743 0.555362 0.127779
O O6 0.000000 0.539076 0.250000
O O7 0.162593 0.271772 0.526955
O O8 0.177864 0.063045 0.460132
O O9 0.500000 0.461094 0.750000
#
# Coordination Sequence:
#
# PCOD9285623 Si02
#       4
#     8   8   8   8
#     4  10  23  42  70 102 137 182 230 284 343 405
#     4  10  21  42  64  99 140 175 229 288 335 407
#     4   9  24  41  67 102 135 172 237 289 324 412
#     4  11  22  44  73  99 137 190 233 273 348 421
#
# _framework density 27.021635
#
# number of rings (size 3 to 8) (size 9 to 14) (size 15 to 20)
#    1.500    0.500    0.000    3.000    0.000    6.000 
#    0.000   10.000    0.000    0.000    0.000    0.000 
#    0.000    0.000    0.000    0.000    0.000    0.000 
#
# Total GULP energy -89362.125403 kJ/mol
# GULP energy per Si atom -5585.132838 kJ/mol
# Density = 2.696013 g / cm^3
# Si number density = 27.021635 Si / 1000 Ang^3
#
#
#
# Elastic Constant Matrix: (Units=GPa)
#
#
# Indices 1 2 3 4 5 6 
#
# 1 157.6605 3.3382 5.2911 -0.0017 8.8274 -0.0002
# 2 3.3382 62.8792 33.8772 0.0064 -11.4249 0.0008
# 3 5.2911 33.8772 162.2868 0.0335 -57.4160 0.0033
# 4 -0.0017 0.0064 0.0335 39.8186 0.0003 -5.8508
# 5 8.8274 -11.4249 -57.4160 0.0003 57.7886 -0.0014
# 6 -0.0002 0.0008 0.0033 -5.8508 -0.0014 -7.3116
#
#
#
# Elastic Compliance Matrix: (Units=1/GPa)
#
#
# Indices 1 2 3 4 5 6 
#
# 1 0.006479 -0.000241 -0.000814 0.000001 -0.001846 -0.000001
# 2 -0.000241 0.017930 -0.003806 0.000000 -0.000199 0.000000
# 3 -0.000814 -0.003806 0.010425 -0.000007 0.009730 0.000008
# 4 0.000001 0.000000 -0.000007 0.022472 -0.000008 -0.017982
# 5 -0.001846 -0.000199 0.009730 -0.000008 0.027214 0.000005
# 6 -0.000001 0.000000 0.000008 -0.017982 0.000005 -0.122379
#
#
# Mechanical properties :
#
#
# Convention : Reuss Voigt Hill
#
# Bulk Modulus (GPa) = 39.81961 51.98214 45.90088
# Shear Modulus (GPa) = -252.95008 40.74711 -106.10148
#
# Velocity S-wave (km/s) = -9.68573 3.88744 -6.27301
# Velocity P-wave (km/s) = 10.50316 6.27922 5.95348
#
# Compressibility (1/GPa) = 0.02511326
#
# Stress axis : x y z
#
# Youngs Moduli (GPa) = 154.35620 55.77110 95.92007
#
# Poissons Ratio (x) = 0.01343 0.07809
# Poissons Ratio (y) = 0.03716 0.36504
# Poissons Ratio (z) = 0.12566 0.21225
#
# Static dielectric constant tensor:
#      x y z
#    x 2.216230 0.000000 0.022810 
#    y 0.000000 2.043980 -0.000010 
#    z 0.022810 -0.000010 2.088890 
# 
# From -- ./inp_files/46575.got.cif
#   From: 2010.05.17/outbox.cif.g08.bks.cpg/sg15_24_cif.got.tgz:46575.got - 2010.06.03 18:47:42.
