data_PCOD9285822
_publ_section_title
;
Structure prediction by ZEFSAII (Michael W. Deem and Ramdas Pophale) SiO2 
 PCOD9285822
Probable space group: C 2/C
;
_chemical_formula_sum "Si O2"
_cell_formula_units_Z 48
_cell_length_a 13.739173
_cell_length_b 22.144722
_cell_length_c 11.758097
_cell_angle_alpha 90.000000
_cell_angle_beta 33.218408
_cell_angle_gamma 90.000000
_cell_volume 1959.815936
_symmetry_space_group_name_H-M "C 2/C"
_symmetry_group_IT_number 15
_symmetry_cell_setting 'monoclinic'
loop_
_space_group_symop_operation_xyz
x,y,z
-x,y,1/2-z
-x,-y,-z
x,-y,1/2+z
1/2+x,1/2+y,z
1/2-x,1/2+y,1/2-z
1/2-x,1/2-y,-z
1/2+x,1/2-y,1/2+z
loop_
_atom_site_type_symbol
_atom_site_label
_atom_site_fract_x
_atom_site_fract_y
_atom_site_fract_z
Si Si1 0.421635 0.607848 0.941023
Si Si2 0.901485 0.303658 0.733591
Si Si3 0.750651 0.107261 0.563508
Si Si4 0.377388 0.437001 0.725205
Si Si5 0.257042 0.684687 0.764159
Si Si6 0.963498 0.493815 0.402366
O O1 0.500000 0.580631 0.750000
O O2 0.583550 0.646641 0.835955
O O3 0.252229 0.650164 0.081007
O O4 0.361804 0.567401 0.105389
O O5 0.804938 0.252713 0.752723
O O6 0.000000 0.277869 0.750000
O O7 0.064124 0.331572 0.503396
O O8 0.786387 0.115631 0.393597
O O9 0.753166 0.167659 0.635228
O O10 0.583572 0.066231 0.760470
O O11 0.918895 0.067387 0.441113
O O12 0.250390 0.490129 0.888739
O O13 0.000000 0.531691 0.250000
O O14 0.000000 0.500000 0.500000
#
# Coordination Sequence:
#
# PCOD9285822 Si02
#       6
#     8   8   8   8   8   8
#     4  11  21  36  56  84 113 154 202 242 288 342
#     4  12  21  33  52  80 118 159 194 245 300 332
#     4   9  20  40  63  83 114 159 193 232 293 349
#     4   9  20  40  63  82 118 156 189 236 292 347
#     4  11  21  34  56  82 110 153 202 236 288 345
#     4  10  21  42  67  94 122 151 187 235 296 359
#
# _framework density 24.492096
#
# number of rings (size 3 to 8) (size 9 to 14) (size 15 to 20)
#    0.000    1.667    3.333    2.000    0.000    0.667 
#    6.000    0.833    3.667    0.000    0.000    0.000 
#    0.000    0.000    0.000    0.000    0.000    0.000 
#
# Total GULP energy -133853.593536 kJ/mol
# GULP energy per Si atom -5577.233064 kJ/mol
# Density = 2.443635 g / cm^3
# Si number density = 24.492096 Si / 1000 Ang^3
#
#
#
# Elastic Constant Matrix: (Units=GPa)
#
#
# Indices 1 2 3 4 5 6 
#
# 1 115.2934 29.4769 75.9467 -0.0007 30.4692 0.0019
# 2 29.4769 44.2894 46.8783 0.0014 5.9344 0.0000
# 3 75.9467 46.8783 198.6309 0.0043 13.0838 -0.0022
# 4 -0.0007 0.0014 0.0043 14.3275 -0.0014 2.6892
# 5 30.4692 5.9344 13.0838 -0.0014 65.2893 -0.0014
# 6 0.0019 0.0000 -0.0022 2.6892 -0.0014 29.2983
#
#
#
# Elastic Compliance Matrix: (Units=1/GPa)
#
#
# Indices 1 2 3 4 5 6 
#
# 1 0.013717 -0.004321 -0.003880 0.000002 -0.005231 -0.000002
# 2 -0.004321 0.031573 -0.005820 -0.000002 0.000313 0.000000
# 3 -0.003880 -0.005820 0.007841 -0.000002 0.000768 0.000001
# 4 0.000002 -0.000002 -0.000002 0.071019 0.000001 -0.006519
# 5 -0.005231 0.000313 0.000768 0.000001 0.017575 0.000001
# 6 -0.000002 0.000000 0.000001 -0.006519 0.000001 0.034730
#
#
# Mechanical properties :
#
#
# Convention : Reuss Voigt Hill
#
# Bulk Modulus (GPa) = 39.85976 73.64640 56.75308
# Shear Modulus (GPa) = 23.48960 35.51048 29.50004
#
# Velocity S-wave (km/s) = 3.10024 3.81185 3.47432
# Velocity P-wave (km/s) = 5.39678 7.03622 6.27031
#
# Compressibility (1/GPa) = 0.02508796
#
# Stress axis : x y z
#
# Youngs Moduli (GPa) = 72.90365 31.67284 127.53563
#
# Poissons Ratio (x) = 0.13687 0.49486
# Poissons Ratio (y) = 0.31504 0.74223
# Poissons Ratio (z) = 0.28288 0.18433
#
# Static dielectric constant tensor:
#      x y z
#    x 2.052880 0.000000 0.051610 
#    y 0.000000 1.987760 0.000000 
#    z 0.051610 0.000000 1.937590 
# 
# From -- ./inp_files/101220.got.cif
#   From: 2010.05.17/outbox.cif.g08.bks.cpg/sg15_51_cif.got.tgz:101220.got - 2010.06.03 18:47:42.
