data_PCOD9285611
_publ_section_title
;
Structure prediction by ZEFSAII (Michael W. Deem and Ramdas Pophale) SiO2 
 PCOD9285611
Probable space group: C 2/C
;
_chemical_formula_sum "Si O2"
_cell_formula_units_Z 52
_cell_length_a 23.676122
_cell_length_b 9.508524
_cell_length_c 12.086301
_cell_angle_alpha 90.000000
_cell_angle_beta 54.950730
_cell_angle_gamma 90.000000
_cell_volume 2227.511026
_symmetry_space_group_name_H-M "C 2/C"
_symmetry_group_IT_number 15
_symmetry_cell_setting 'monoclinic'
loop_
_space_group_symop_operation_xyz
x,y,z
-x,y,1/2-z
-x,-y,-z
x,-y,1/2+z
1/2+x,1/2+y,z
1/2-x,1/2+y,1/2-z
1/2-x,1/2-y,-z
1/2+x,1/2-y,1/2+z
loop_
_atom_site_type_symbol
_atom_site_label
_atom_site_fract_x
_atom_site_fract_y
_atom_site_fract_z
Si Si1 0.000000 0.807950 0.250000
Si Si2 0.177558 0.301807 0.460263
Si Si3 0.437248 0.277610 0.736489
Si Si4 0.782215 0.196880 0.642373
Si Si5 0.180952 0.421873 0.067953
Si Si6 0.875153 0.992668 0.437612
Si Si7 0.026413 0.647100 0.022338
O O1 0.052551 0.913797 0.132650
O O2 0.022144 0.704191 0.324189
O O3 0.238703 0.303878 0.302198
O O4 0.185662 0.413876 0.547172
O O5 0.172172 0.144237 0.512145
O O6 0.104810 0.352015 0.483862
O O7 0.500000 0.288811 0.750000
O O8 0.393026 0.138262 0.812886
O O9 0.384939 0.406559 0.819858
O O10 0.468134 0.260630 0.581402
O O11 0.801949 0.348518 0.569875
O O12 0.734028 0.130661 0.600517
O O13 0.849371 0.096775 0.562702
O O14 0.000000 0.500000 0.000000
#
# Coordination Sequence:
#
# PCOD9285611 Si02
#       7
#     4   8   8   8   8   8   8
#     4  10  24  46  62 104 138 170 238 270 344 412
#     4  11  22  41  66  98 134 170 233 275 334 399
#     4  11  22  43  65  95 135 177 225 267 349 395
#     4  10  21  42  64  96 133 179 218 270 348 387
#     4  10  22  39  66  94 129 172 223 276 323 414
#     4  10  23  41  66  97 137 177 218 285 329 405
#     4  11  25  40  70  97 135 183 220 291 334 407
#
# _framework density 23.344439999999999
#
# number of rings (size 3 to 8) (size 9 to 14) (size 15 to 20)
#    0.000    1.538    2.308    1.846    5.385    1.231 
#    0.000    3.077    0.000    0.000    0.000    0.000 
#    0.000    0.000    0.000    0.000    0.000    0.000 
#
# Total GULP energy -145210.733537 kJ/mol
# GULP energy per Si atom -5585.028213 kJ/mol
# Density = 2.329131 g / cm^3
# Si number density = 23.344440 Si / 1000 Ang^3
#
#
#
# Elastic Constant Matrix: (Units=GPa)
#
#
# Indices 1 2 3 4 5 6 
#
# 1 71.3103 11.1674 20.9946 0.0000 -6.0187 0.0000
# 2 11.1674 105.9550 48.5276 0.0000 -4.2598 0.0000
# 3 20.9946 48.5276 119.8617 0.0000 -7.3964 0.0000
# 4 0.0000 0.0000 0.0000 27.1524 0.0000 -8.3385
# 5 -6.0187 -4.2598 -7.3964 0.0000 31.1836 0.0000
# 6 0.0000 0.0000 0.0000 -8.3385 0.0000 23.3329
#
#
#
# Elastic Compliance Matrix: (Units=1/GPa)
#
#
# Indices 1 2 3 4 5 6 
#
# 1 0.014962 -0.000429 -0.002306 0.000000 0.002282 0.000000
# 2 -0.000429 0.011606 -0.004598 0.000000 0.000412 0.000000
# 3 -0.002306 -0.004598 0.010699 0.000000 0.001464 0.000000
# 4 0.000000 0.000000 0.000000 0.041369 0.000000 0.014784
# 5 0.002282 0.000412 0.001464 0.000000 0.032912 0.000000
# 6 0.000000 0.000000 0.000000 0.014784 0.000000 0.048141
#
#
# Mechanical properties :
#
#
# Convention : Reuss Voigt Hill
#
# Bulk Modulus (GPa) = 44.24794 50.94514 47.59654
# Shear Modulus (GPa) = 27.48923 30.76296 29.12609
#
# Velocity S-wave (km/s) = 3.43527 3.63407 3.53607
# Velocity P-wave (km/s) = 5.89324 6.28325 6.09137
#
# Compressibility (1/GPa) = 0.02259992
#
# Stress axis : x y z
#
# Youngs Moduli (GPa) = 66.83610 86.16450 93.46765
#
# Poissons Ratio (x) = 0.03696 0.21555
# Poissons Ratio (y) = 0.02867 0.42978
# Poissons Ratio (z) = 0.15414 0.39620
#
# Static dielectric constant tensor:
#      x y z
#    x 1.979350 0.000000 -0.085360 
#    y 0.000000 1.891490 0.000000 
#    z -0.085360 0.000000 1.920680 
# 
# From -- ./inp_files/121809.got.cif
#   From: 2010.05.17/outbox.cif.g08.bks.cpg/sg15_61_cif.got.tgz:121809.got - 2010.06.03 18:47:42.
