data_PCOD9285176
_publ_section_title
;
Structure prediction by ZEFSAII (Michael W. Deem and Ramdas Pophale) SiO2 
 PCOD9285176
Probable space group: C 2/C
;
_chemical_formula_sum "Si O2"
_cell_formula_units_Z 56
_cell_length_a 10.284351
_cell_length_b 11.402888
_cell_length_c 19.845928
_cell_angle_alpha 90.000000
_cell_angle_beta 90.020091
_cell_angle_gamma 90.000000
_cell_volume 2327.357685
_symmetry_space_group_name_H-M "C 2/C"
_symmetry_group_IT_number 15
_symmetry_cell_setting 'monoclinic'
loop_
_space_group_symop_operation_xyz
x,y,z
-x,y,1/2-z
-x,-y,-z
x,-y,1/2+z
1/2+x,1/2+y,z
1/2-x,1/2+y,1/2-z
1/2-x,1/2-y,-z
1/2+x,1/2-y,1/2+z
loop_
_atom_site_type_symbol
_atom_site_label
_atom_site_fract_x
_atom_site_fract_y
_atom_site_fract_z
Si Si1 0.382397 0.860491 0.926768
Si Si2 0.244334 0.870638 0.074337
Si Si3 0.534003 0.216032 0.823355
Si Si4 0.772511 0.333133 0.401441
Si Si5 0.151157 0.129765 0.766731
Si Si6 0.672304 0.905259 0.956868
Si Si7 0.761539 0.884809 0.712895
O O1 0.374933 0.717292 0.916508
O O2 0.523135 0.917716 0.934984
O O3 0.318981 0.903570 0.856515
O O4 0.307972 0.862419 0.999245
O O5 0.353994 0.838189 0.129230
O O6 0.225767 0.008741 0.078683
O O7 0.500000 0.161264 0.750000
O O8 0.402389 0.209278 0.864522
O O9 0.593519 0.343737 0.807734
O O10 0.674234 0.379527 0.346324
O O11 0.704612 0.224074 0.435305
O O12 0.812756 0.415332 0.462808
O O13 0.204893 0.261669 0.745997
O O14 0.000000 0.125823 0.750000
O O15 0.225707 0.007178 0.745580
#
# Coordination Sequence:
#
# PCOD9285176 Si02
#       7
#     8   8   8   8   8   8   8
#     4  10  21  41  68 106 134 181 239 289 355 430
#     4  10  22  39  72  98 136 183 236 288 356 426
#     4  11  22  45  67 102 137 187 232 284 354 439
#     4  11  25  45  68 104 140 184 239 290 367 422
#     4  12  27  49  70 107 147 193 242 302 362 432
#     4  11  23  44  70 101 140 179 233 305 350 422
#     4  11  26  46  75 104 149 193 242 300 363 431
#
# _framework density 24.061622
#
# number of rings (size 3 to 8) (size 9 to 14) (size 15 to 20)
#    0.000    1.143    2.857    2.571    2.000    2.286 
#    5.143    1.429    0.000    0.000    0.000    0.000 
#    0.000    0.000    0.000    0.000    0.000    0.000 
#
# Total GULP energy -156168.640022 kJ/mol
# GULP energy per Si atom -5577.451429 kJ/mol
# Density = 2.400686 g / cm^3
# Si number density = 24.061622 Si / 1000 Ang^3
#
#
#
# Elastic Constant Matrix: (Units=GPa)
#
#
# Indices 1 2 3 4 5 6 
#
# 1 56.0163 33.4278 45.1146 0.0000 19.3455 0.0000
# 2 33.4278 124.8075 40.3936 0.0000 18.3147 0.0000
# 3 45.1146 40.3936 143.1886 0.0000 29.5007 0.0000
# 4 0.0000 0.0000 0.0000 31.0847 0.0000 -7.7641
# 5 19.3455 18.3147 29.5007 0.0000 37.4562 0.0000
# 6 0.0000 0.0000 0.0000 -7.7641 0.0000 34.4470
#
#
#
# Elastic Compliance Matrix: (Units=1/GPa)
#
#
# Indices 1 2 3 4 5 6 
#
# 1 0.027930 -0.004434 -0.005997 0.000000 -0.007534 0.000000
# 2 -0.004434 0.009776 -0.001012 0.000000 -0.001693 0.000000
# 3 -0.005997 -0.001012 0.010049 0.000000 -0.004323 0.000000
# 4 0.000000 0.000000 0.000000 0.034089 0.000000 0.007683
# 5 -0.007534 -0.001693 -0.004323 0.000000 0.034821 0.000000
# 6 0.000000 0.000000 0.000000 0.007683 0.000000 0.030762
#
#
# Mechanical properties :
#
#
# Convention : Reuss Voigt Hill
#
# Bulk Modulus (GPa) = 40.21043 62.43160 51.32102
# Shear Modulus (GPa) = 27.99512 34.26937 31.13224
#
# Velocity S-wave (km/s) = 3.41468 3.77800 3.60092
# Velocity P-wave (km/s) = 5.68282 6.71073 6.21805
#
# Compressibility (1/GPa) = 0.02486917
#
# Stress axis : x y z
#
# Youngs Moduli (GPa) = 35.80434 102.29256 99.50964
#
# Poissons Ratio (x) = 0.45358 0.59673
# Poissons Ratio (y) = 0.15876 0.10070
# Poissons Ratio (z) = 0.21471 0.10351
#
# Static dielectric constant tensor:
#      x y z
#    x 1.863820 0.000000 -0.021220 
#    y 0.000000 2.071360 0.000000 
#    z -0.021220 0.000000 1.964870 
# 
# From -- ./inp_files/237117.got.cif
#   From: 2010.05.17/outbox.cif.g08.bks.cpg/sg15_119_cif.got.tgz:237117.got - 2010.06.03 18:47:42.
