data_PCOD9285946
_publ_section_title
;
Structure prediction by ZEFSAII (Michael W. Deem and Ramdas Pophale) SiO2 
 PCOD9285946
Probable space group: C 2/C
;
_chemical_formula_sum "Si O2"
_cell_formula_units_Z 52
_cell_length_a 14.839327
_cell_length_b 13.466322
_cell_length_c 11.603021
_cell_angle_alpha 90.000000
_cell_angle_beta 101.762154
_cell_angle_gamma 90.000000
_cell_volume 2269.958771
_symmetry_space_group_name_H-M "C 2/C"
_symmetry_group_IT_number 15
_symmetry_cell_setting 'monoclinic'
loop_
_space_group_symop_operation_xyz
x,y,z
-x,y,1/2-z
-x,-y,-z
x,-y,1/2+z
1/2+x,1/2+y,z
1/2-x,1/2+y,1/2-z
1/2-x,1/2-y,-z
1/2+x,1/2-y,1/2+z
loop_
_atom_site_type_symbol
_atom_site_label
_atom_site_fract_x
_atom_site_fract_y
_atom_site_fract_z
Si Si1 0.583798 0.072166 0.512182
Si Si2 0.298827 0.893530 0.003889
Si Si3 0.459865 0.757326 0.935301
Si Si4 0.341640 0.504008 0.682302
Si Si5 0.500000 0.375203 0.250000
Si Si6 0.071636 0.843525 0.662496
Si Si7 0.192981 0.657774 0.731365
O O1 0.545728 0.167451 0.436367
O O2 0.607417 0.098923 0.650865
O O3 0.500000 0.000000 0.500000
O O4 0.660513 0.005403 0.472169
O O5 0.289766 0.849318 0.128516
O O6 0.372847 0.822281 0.957425
O O7 0.207437 0.918930 0.906921
O O8 0.440562 0.694955 0.817066
O O9 0.504779 0.683465 0.040202
O O10 0.432515 0.556036 0.657160
O O11 0.380292 0.449931 0.807228
O O12 0.273220 0.594696 0.691234
O O13 0.159057 0.767770 0.689522
O O14 0.000000 0.828485 0.750000
#
# Coordination Sequence:
#
# PCOD9285946 Si02
#       7
#     8   8   8   8   4   8   8
#     4   8  18  36  61  99 130 167 218 272 340 384
#     4  10  21  42  69 100 130 173 232 285 337 392
#     4  10  23  41  70  97 133 183 223 277 340 404
#     4  11  27  43  63 100 139 179 221 279 343 402
#     4  12  28  46  60  98 148 180 224 264 348 420
#     4  11  22  45  70  99 132 179 228 280 335 398
#     4  10  22  41  67  97 133 168 231 281 327 407
#
# _framework density 22.907903999999998
#
# number of rings (size 3 to 8) (size 9 to 14) (size 15 to 20)
#    0.000    1.846    2.308    0.000    4.308    6.154 
#    0.000    2.308    0.000    0.000    0.000    0.000 
#    0.000    0.000    0.000    0.000    0.000    0.000 
#
# Total GULP energy -144807.049891 kJ/mol
# GULP energy per Si atom -5569.501919 kJ/mol
# Density = 2.285576 g / cm^3
# Si number density = 22.907904 Si / 1000 Ang^3
#
#
#
# Elastic Constant Matrix: (Units=GPa)
#
#
# Indices 1 2 3 4 5 6 
#
# 1 65.5319 34.7212 23.8572 0.0000 24.0358 0.0000
# 2 34.7212 66.3493 23.9515 0.0000 13.4196 0.0000
# 3 23.8572 23.9515 69.6526 0.0000 22.8945 0.0000
# 4 0.0000 0.0000 0.0000 17.9308 0.0000 8.5509
# 5 24.0358 13.4196 22.8945 0.0000 25.7146 0.0000
# 6 0.0000 0.0000 0.0000 8.5509 0.0000 40.3847
#
#
#
# Elastic Compliance Matrix: (Units=1/GPa)
#
#
# Indices 1 2 3 4 5 6 
#
# 1 0.028827 -0.011025 0.001248 0.000000 -0.022303 0.000000
# 2 -0.011025 0.021940 -0.004796 0.000000 0.003125 0.000000
# 3 0.001248 -0.004796 0.021403 0.000000 -0.017720 0.000000
# 4 0.000000 0.000000 0.000000 0.062034 0.000000 -0.013135
# 5 -0.022303 0.003125 -0.017720 0.000000 0.073881 0.000000
# 6 0.000000 0.000000 0.000000 -0.013135 0.000000 0.027543
#
#
# Mechanical properties :
#
#
# Convention : Reuss Voigt Hill
#
# Bulk Modulus (GPa) = 23.24205 40.73263 31.98734
# Shear Modulus (GPa) = 17.91377 24.73959 21.32668
#
# Velocity S-wave (km/s) = 2.79944 3.28984 3.05450
# Velocity P-wave (km/s) = 4.54060 5.67894 5.14137
#
# Compressibility (1/GPa) = 0.04302546
#
# Stress axis : x y z
#
# Youngs Moduli (GPa) = 34.68961 45.57796 46.72266
#
# Poissons Ratio (x) = 0.50251 -0.05832
# Poissons Ratio (y) = 0.38246 0.22406
# Poissons Ratio (z) = -0.04330 0.21857
#
# Static dielectric constant tensor:
#      x y z
#    x 1.930300 0.000000 0.037230 
#    y 0.000000 1.963500 0.000000 
#    z 0.037230 0.000000 1.870840 
# 
# From -- ./inp_files/97105.got.cif
#   From: 2010.05.17/outbox.cif.g08.bks.cpg/sg15_49_cif.got.tgz:97105.got - 2010.06.03 18:47:42.
