data_PCOD9285616
_publ_section_title
;
Structure prediction by ZEFSAII (Michael W. Deem and Ramdas Pophale) SiO2 
 PCOD9285616
Probable space group: C 2/C
;
_chemical_formula_sum "Si O2"
_cell_formula_units_Z 60
_cell_length_a 11.149935
_cell_length_b 10.993796
_cell_length_c 23.018084
_cell_angle_alpha 90.000000
_cell_angle_beta 109.783428
_cell_angle_gamma 90.000000
_cell_volume 2655.027204
_symmetry_space_group_name_H-M "C 2/C"
_symmetry_group_IT_number 15
_symmetry_cell_setting 'monoclinic'
loop_
_space_group_symop_operation_xyz
x,y,z
-x,y,1/2-z
-x,-y,-z
x,-y,1/2+z
1/2+x,1/2+y,z
1/2-x,1/2+y,1/2-z
1/2-x,1/2-y,-z
1/2+x,1/2-y,1/2+z
loop_
_atom_site_type_symbol
_atom_site_label
_atom_site_fract_x
_atom_site_fract_y
_atom_site_fract_z
Si Si1 0.830664 0.870705 0.525684
Si Si2 0.240777 0.959216 0.326739
Si Si3 0.865632 0.430285 0.471824
Si Si4 0.482945 0.702757 0.542122
Si Si5 0.155137 0.281704 0.664537
Si Si6 0.500000 0.139584 0.250000
Si Si7 0.017880 0.005118 0.360918
Si Si8 0.231573 0.460057 0.294648
O O1 0.750000 0.750000 0.500000
O O2 0.734716 0.985347 0.509664
O O3 0.940031 0.864856 0.495543
O O4 0.904857 0.881531 0.599358
O O5 0.319747 0.924737 0.397057
O O6 0.261744 0.100180 0.315762
O O7 0.093705 0.951457 0.318984
O O8 0.282835 0.903731 0.272840
O O9 0.928993 0.704707 0.406758
O O10 0.000000 0.500000 0.500000
O O11 0.379427 0.792777 0.497599
O O12 0.460472 0.599587 0.586647
O O13 0.062564 0.285837 0.706450
O O14 0.240705 0.163436 0.666166
O O15 0.614806 0.048851 0.289777
O O16 0.869580 0.025480 0.324330
#
# Coordination Sequence:
#
# PCOD9285616 Si02
#       8
#     8   8   8   8   8   4   8   8
#     4  11  22  40  64  95 141 175 224 280 334 410
#     4  10  21  42  64  97 132 173 229 280 339 414
#     4  11  21  41  66  95 128 179 222 274 350 405
#     4  11  22  40  65  98 133 174 223 275 340 408
#     4  10  22  42  69  94 135 175 219 287 341 400
#     4  10  24  46  68 102 134 176 236 290 344 412
#     4  10  23  41  68  97 137 183 225 283 352 409
#     4  10  23  45  67  97 132 174 231 285 348 411
#
# _framework density 22.59864
#
# number of rings (size 3 to 8) (size 9 to 14) (size 15 to 20)
#    0.000    1.600    2.667    1.600    3.733    4.267 
#    9.600    0.000    0.000    0.000    0.000    0.000 
#    0.000    0.000    0.000    0.000    0.000    0.000 
#
# Total GULP energy -167249.916642 kJ/mol
# GULP energy per Si atom -5574.997221 kJ/mol
# Density = 2.254720 g / cm^3
# Si number density = 22.598640 Si / 1000 Ang^3
#
#
#
# Elastic Constant Matrix: (Units=GPa)
#
#
# Indices 1 2 3 4 5 6 
#
# 1 98.6322 32.3796 10.5478 0.0000 14.0232 0.0000
# 2 32.3796 63.7022 24.9305 0.0000 14.3344 0.0000
# 3 10.5478 24.9305 80.6235 0.0000 12.4382 0.0000
# 4 0.0000 0.0000 0.0000 31.2274 0.0000 6.6079
# 5 14.0232 14.3344 12.4382 0.0000 47.3396 0.0000
# 6 0.0000 0.0000 0.0000 6.6079 0.0000 36.3733
#
#
#
# Elastic Compliance Matrix: (Units=1/GPa)
#
#
# Indices 1 2 3 4 5 6 
#
# 1 0.012345 -0.006051 0.000560 0.000000 -0.001972 0.000000
# 2 -0.006051 0.021632 -0.005382 0.000000 -0.003344 0.000000
# 3 0.000560 -0.005382 0.014350 0.000000 -0.002307 0.000000
# 4 0.000000 0.000000 0.000000 0.033303 0.000000 -0.006050
# 5 -0.001972 -0.003344 -0.002307 0.000000 0.023327 0.000000
# 6 0.000000 0.000000 0.000000 -0.006050 0.000000 0.028592
#
#
# Mechanical properties :
#
#
# Convention : Reuss Voigt Hill
#
# Bulk Modulus (GPa) = 37.61750 42.07484 39.84617
# Shear Modulus (GPa) = 30.45900 34.66140 32.56020
#
# Velocity S-wave (km/s) = 3.67526 3.92060 3.79991
# Velocity P-wave (km/s) = 5.89000 6.25728 6.07641
#
# Compressibility (1/GPa) = 0.02658337
#
# Stress axis : x y z
#
# Youngs Moduli (GPa) = 81.00120 46.22752 69.68610
#
# Poissons Ratio (x) = 0.27970 -0.03903
# Poissons Ratio (y) = 0.49011 0.37503
# Poissons Ratio (z) = -0.04537 0.24878
#
# Static dielectric constant tensor:
#      x y z
#    x 1.934560 0.000000 0.001970 
#    y 0.000000 1.922750 0.000000 
#    z 0.001970 0.000000 1.944390 
# 
# From -- ./inp_files/268945.got.cif
#   From: 2010.05.17/outbox.cif.g08.bks.cpg/sg15_135_cif.got.tgz:268945.got - 2010.06.03 18:47:42.
