data_PCOD9285855
_publ_section_title
;
Structure prediction by ZEFSAII (Michael W. Deem and Ramdas Pophale) SiO2 
 PCOD9285855
Probable space group: C 2/C
;
_chemical_formula_sum "Si O2"
_cell_formula_units_Z 48
_cell_length_a 12.897999
_cell_length_b 5.210791
_cell_length_c 25.694053
_cell_angle_alpha 90.000000
_cell_angle_beta 100.264789
_cell_angle_gamma 90.000000
_cell_volume 1699.226934
_symmetry_space_group_name_H-M "C 2/C"
_symmetry_group_IT_number 15
_symmetry_cell_setting 'monoclinic'
loop_
_space_group_symop_operation_xyz
x,y,z
-x,y,1/2-z
-x,-y,-z
x,-y,1/2+z
1/2+x,1/2+y,z
1/2-x,1/2+y,1/2-z
1/2-x,1/2-y,-z
1/2+x,1/2-y,1/2+z
loop_
_atom_site_type_symbol
_atom_site_label
_atom_site_fract_x
_atom_site_fract_y
_atom_site_fract_z
Si Si1 0.431239 0.214387 0.041135
Si Si2 0.345448 0.106951 0.131457
Si Si3 0.632507 0.449237 0.101824
Si Si4 0.276857 0.957418 0.956593
Si Si5 0.816569 0.497235 0.242900
Si Si6 0.021233 0.110240 0.696996
O O1 0.533281 0.392571 0.055704
O O2 0.330332 0.385993 0.046727
O O3 0.421498 0.020940 0.090452
O O4 0.389501 0.080675 0.985259
O O5 0.224604 0.154650 0.102858
O O6 0.201986 0.697711 0.094201
O O7 0.408403 0.345002 0.161068
O O8 0.838403 0.443798 0.183937
O O9 0.589160 0.488623 0.155262
O O10 0.250000 0.750000 0.000000
O O11 0.735087 0.739881 0.239103
O O12 0.917331 0.623795 0.281184
O O13 0.000000 0.973214 0.750000
#
# Coordination Sequence:
#
# PCOD9285855 Si02
#       6
#     8   8   8   8   8   8
#     4  10  24  43  64  98 135 174 232 288 344 427
#     4  10  21  42  67  98 133 177 237 281 347 431
#     4  11  21  43  68  95 133 183 223 287 356 405
#     4  11  23  43  66  97 135 174 229 286 350 427
#     4  11  23  42  69 101 138 187 233 289 359 421
#     4   9  21  42  65  99 139 173 233 289 345 426
#
# _framework density 28.248142000000001
#
# number of rings (size 3 to 8) (size 9 to 14) (size 15 to 20)
#    0.000    1.667    3.333    0.500    2.333    0.667 
#    6.000    7.500    0.000    0.000    0.000    0.000 
#    0.000    0.000    0.000    0.000    0.000    0.000 
#
# Total GULP energy -134000.121061 kJ/mol
# GULP energy per Si atom -5583.338378 kJ/mol
# Density = 2.818385 g / cm^3
# Si number density = 28.248142 Si / 1000 Ang^3
#
#
#
# Elastic Constant Matrix: (Units=GPa)
#
#
# Indices 1 2 3 4 5 6 
#
# 1 133.2555 18.2051 13.3794 0.0000 27.5263 0.0000
# 2 18.2051 67.9780 -7.6215 0.0000 5.9862 0.0000
# 3 13.3794 -7.6215 104.5882 0.0000 16.9831 0.0000
# 4 0.0000 0.0000 0.0000 25.3406 0.0000 5.6012
# 5 27.5263 5.9862 16.9831 0.0000 66.4969 0.0000
# 6 0.0000 0.0000 0.0000 5.6012 0.0000 33.9240
#
#
#
# Elastic Compliance Matrix: (Units=1/GPa)
#
#
# Indices 1 2 3 4 5 6 
#
# 1 0.008513 -0.002084 -0.000729 0.000000 -0.003150 0.000000
# 2 -0.002084 0.015524 0.001549 0.000000 -0.000930 0.000000
# 3 -0.000729 0.001549 0.010163 0.000000 -0.002433 0.000000
# 4 0.000000 0.000000 0.000000 0.040957 0.000000 -0.006762
# 5 -0.003150 -0.000930 -0.002433 0.000000 0.017047 0.000000
# 6 0.000000 0.000000 0.000000 -0.006762 0.000000 0.030594
#
#
# Mechanical properties :
#
#
# Convention : Reuss Voigt Hill
#
# Bulk Modulus (GPa) = 31.57492 39.30530 35.44011
# Shear Modulus (GPa) = 36.79579 43.94286 40.36933
#
# Velocity S-wave (km/s) = 3.61306 3.94839 3.78444
# Velocity P-wave (km/s) = 5.34860 5.89329 5.62754
#
# Compressibility (1/GPa) = 0.03167070
#
# Stress axis : x y z
#
# Youngs Moduli (GPa) = 117.46647 64.41463 98.40035
#
# Poissons Ratio (x) = 0.13426 0.07177
# Poissons Ratio (y) = 0.24483 -0.15242
# Poissons Ratio (z) = 0.08568 -0.09978
#
# Static dielectric constant tensor:
#      x y z
#    x 2.271580 0.000000 0.054610 
#    y 0.000000 2.289240 0.000000 
#    z 0.054610 0.000000 2.377860 
# 
# From -- ./inp_files/312152.got.cif
#   From: 2010.05.17/outbox.cif.g08.bks.cpg/sg15_157_cif.got.tgz:312152.got - 2010.06.03 18:47:42.
