data_PCOD9285527
_publ_section_title
;
Structure prediction by ZEFSAII (Michael W. Deem and Ramdas Pophale) SiO2 
 PCOD9285527
Probable space group: C 2/C
;
_chemical_formula_sum "Si O2"
_cell_formula_units_Z 36
_cell_length_a 29.436498
_cell_length_b 7.985902
_cell_length_c 18.565789
_cell_angle_alpha 90.000000
_cell_angle_beta 25.679329
_cell_angle_gamma 90.000000
_cell_volume 1891.238336
_symmetry_space_group_name_H-M "C 2/C"
_symmetry_group_IT_number 15
_symmetry_cell_setting 'monoclinic'
loop_
_space_group_symop_operation_xyz
x,y,z
-x,y,1/2-z
-x,-y,-z
x,-y,1/2+z
1/2+x,1/2+y,z
1/2-x,1/2+y,1/2-z
1/2-x,1/2-y,-z
1/2+x,1/2-y,1/2+z
loop_
_atom_site_type_symbol
_atom_site_label
_atom_site_fract_x
_atom_site_fract_y
_atom_site_fract_z
Si Si1 0.156527 0.648217 0.597657
Si Si2 0.000000 0.091370 0.250000
Si Si3 0.506677 0.044577 0.074065
Si Si4 0.884905 0.137753 0.030151
Si Si5 0.790533 0.526497 0.626796
O O1 0.250000 0.750000 0.500000
O O2 0.195422 0.546629 0.472400
O O3 0.076031 0.787745 0.685192
O O4 0.094558 0.524917 0.739925
O O5 0.936082 0.976746 0.396769
O O6 0.610388 0.967059 0.965071
O O7 0.500000 0.000000 0.000000
O O8 0.528367 0.242578 0.055892
O O9 0.806624 0.273837 0.105741
O O10 0.816657 0.033030 0.184030
#
# Coordination Sequence:
#
# PCOD9285527 Si02
#       5
#     8   4   8   8   8
#     4  12  24  42  67  93 129 173 212 264 324 382
#     4  12  22  44  64  96 130 166 214 268 314 390
#     4  10  22  41  65  93 132 162 217 264 320 377
#     4  10  22  38  67  91 127 171 208 264 323 369
#     4  10  21  42  63  92 130 164 214 257 324 373
#
# _framework density 19.035148
#
# number of rings (size 3 to 8) (size 9 to 14) (size 15 to 20)
#    1.333    0.000    2.222    4.000    3.111    0.000 
#    4.000    4.444    0.000    0.000    0.000    0.000 
#    0.000    0.000    0.000    0.000    0.000    0.000 
#
# Total GULP energy -100423.723553 kJ/mol
# GULP energy per Si atom -5579.095753 kJ/mol
# Density = 1.899182 g / cm^3
# Si number density = 19.035148 Si / 1000 Ang^3
#
#
#
# Elastic Constant Matrix: (Units=GPa)
#
#
# Indices 1 2 3 4 5 6 
#
# 1 75.1933 -2.3719 28.6921 -0.0009 10.5310 0.0009
# 2 -2.3719 79.1886 53.6065 -0.0021 12.2816 0.0017
# 3 28.6921 53.6065 175.5903 -0.0015 33.2535 0.0011
# 4 -0.0009 -0.0021 -0.0015 43.2113 0.0001 5.1738
# 5 10.5310 12.2816 33.2535 0.0001 42.7297 -0.0001
# 6 0.0009 0.0017 0.0011 5.1738 -0.0001 6.7718
#
#
#
# Elastic Compliance Matrix: (Units=1/GPa)
#
#
# Indices 1 2 3 4 5 6 
#
# 1 0.014769 0.002692 -0.002814 0.000001 -0.002224 -0.000003
# 2 0.002692 0.016440 -0.005206 0.000001 -0.001338 -0.000005
# 3 -0.002814 -0.005206 0.008596 0.000000 -0.004500 0.000000
# 4 0.000001 0.000001 0.000000 0.025472 -0.000001 -0.019461
# 5 -0.002224 -0.001338 -0.004500 -0.000001 0.027838 0.000002
# 6 -0.000003 -0.000005 0.000000 -0.019461 0.000002 0.162541
#
#
# Mechanical properties :
#
#
# Convention : Reuss Voigt Hill
#
# Bulk Modulus (GPa) = 34.30441 54.42506 44.36474
# Shear Modulus (GPa) = 18.11404 35.21224 26.66314
#
# Velocity S-wave (km/s) = 3.08816 4.30566 3.74670
# Velocity P-wave (km/s) = 5.54765 7.30563 6.48647
#
# Compressibility (1/GPa) = 0.02915077
#
# Stress axis : x y z
#
# Youngs Moduli (GPa) = 67.70827 60.82670 116.32755
#
# Poissons Ratio (x) = -0.16376 0.32736
# Poissons Ratio (y) = -0.18229 0.60556
# Poissons Ratio (z) = 0.19054 0.31664
#
# Static dielectric constant tensor:
#      x y z
#    x 1.637010 0.000000 -0.020620 
#    y 0.000000 1.625070 0.000000 
#    z -0.020620 0.000000 1.630340 
# 
# From -- ./inp_files/158635.got.cif
#   From: 2010.05.17/outbox.cif.g08.bks.cpg/sg15_80_cif.got.tgz:158635.got - 2010.06.03 18:47:42.
