data_PCOD9285213
_publ_section_title
;
Structure prediction by ZEFSAII (Michael W. Deem and Ramdas Pophale) SiO2 
 PCOD9285213
Probable space group: C 2/C
;
_chemical_formula_sum "Si O2"
_cell_formula_units_Z 60
_cell_length_a 15.583609
_cell_length_b 14.609780
_cell_length_c 21.244378
_cell_angle_alpha 90.000000
_cell_angle_beta 36.761607
_cell_angle_gamma 90.000000
_cell_volume 2894.745537
_symmetry_space_group_name_H-M "C 2/C"
_symmetry_group_IT_number 15
_symmetry_cell_setting 'monoclinic'
loop_
_space_group_symop_operation_xyz
x,y,z
-x,y,1/2-z
-x,-y,-z
x,-y,1/2+z
1/2+x,1/2+y,z
1/2-x,1/2+y,1/2-z
1/2-x,1/2-y,-z
1/2+x,1/2-y,1/2+z
loop_
_atom_site_type_symbol
_atom_site_label
_atom_site_fract_x
_atom_site_fract_y
_atom_site_fract_z
Si Si1 0.629204 0.442680 0.126818
Si Si2 0.499961 0.751409 0.820673
Si Si3 0.390576 0.406278 0.602952
Si Si4 0.142194 0.517002 0.797464
Si Si5 0.173293 0.294532 0.341258
Si Si6 0.000000 0.468979 0.250000
Si Si7 0.562627 0.114876 0.026261
Si Si8 0.684570 0.478923 0.461197
O O1 0.500000 0.467497 0.250000
O O2 0.600712 0.337252 0.123703
O O3 0.788020 0.440502 0.061928
O O4 0.639046 0.503835 0.059068
O O5 0.500000 0.793732 0.750000
O O6 0.658461 0.710492 0.740252
O O7 0.455041 0.820393 0.901878
O O8 0.303756 0.482556 0.693095
O O9 0.360554 0.310236 0.653113
O O10 0.559380 0.421659 0.501926
O O11 0.324145 0.423755 0.572078
O O12 0.143895 0.624887 0.809168
O O13 0.050765 0.492559 0.788324
O O14 0.066293 0.457411 0.895665
O O15 0.075788 0.320492 0.458403
O O16 0.840610 0.433464 0.363118
#
# Coordination Sequence:
#
# PCOD9285213 Si02
#       8
#     8   8   8   8   8   4   8   8
#     4  11  21  36  60  93 130 168 205 266 329 390
#     4  11  23  36  61  99 129 166 215 266 331 405
#     4  10  23  42  68  97 128 172 215 272 328 391
#     4  11  24  42  68  95 134 172 219 273 329 388
#     4  12  24  42  63  97 135 171 214 267 334 397
#     4  10  22  42  72  94 124 172 232 270 322 378
#     4  12  23  38  63  94 132 170 211 268 334 396
#     4  10  21  41  68  95 127 167 223 270 325 384
#
# _framework density 20.727211
#
# number of rings (size 3 to 8) (size 9 to 14) (size 15 to 20)
#    0.000    1.067    5.333    2.400    2.800    2.133 
#    0.000    0.667    1.467    0.000    0.000    0.000 
#    0.000    0.000    0.000    0.000    0.000    0.000 
#
# Total GULP energy -167220.284761 kJ/mol
# GULP energy per Si atom -5574.009492 kJ/mol
# Density = 2.068003 g / cm^3
# Si number density = 20.727211 Si / 1000 Ang^3
#
#
#
# Elastic Constant Matrix: (Units=GPa)
#
#
# Indices 1 2 3 4 5 6 
#
# 1 49.9958 13.4486 27.1591 0.0000 -7.8025 0.0000
# 2 13.4486 70.7025 21.3897 0.0000 3.3578 0.0000
# 3 27.1591 21.3897 123.8020 -0.0001 -8.9805 0.0001
# 4 0.0000 0.0000 -0.0001 19.4966 0.0000 3.5824
# 5 -7.8025 3.3578 -8.9805 0.0000 47.8514 0.0000
# 6 0.0000 0.0000 0.0001 3.5824 0.0000 19.5261
#
#
#
# Elastic Compliance Matrix: (Units=1/GPa)
#
#
# Indices 1 2 3 4 5 6 
#
# 1 0.023810 -0.003353 -0.004405 0.000000 0.003291 0.000000
# 2 -0.003353 0.015510 -0.002091 0.000000 -0.002028 0.000000
# 3 -0.004405 -0.002091 0.009493 0.000000 0.001210 0.000000
# 4 0.000000 0.000000 0.000000 0.053080 0.000000 -0.009739
# 5 0.003291 -0.002028 0.001210 0.000000 0.021804 0.000000
# 6 0.000000 0.000000 0.000000 -0.009739 0.000000 0.053000
#
#
# Mechanical properties :
#
#
# Convention : Reuss Voigt Hill
#
# Bulk Modulus (GPa) = 34.34664 40.94388 37.64526
# Shear Modulus (GPa) = 24.25982 29.54168 26.90075
#
# Velocity S-wave (km/s) = 3.42487 3.77936 3.60647
# Velocity P-wave (km/s) = 5.67859 6.23228 5.96187
#
# Compressibility (1/GPa) = 0.02911493
#
# Stress axis : x y z
#
# Youngs Moduli (GPa) = 41.99872 64.47251 105.34115
#
# Poissons Ratio (x) = 0.21615 0.46407
# Poissons Ratio (y) = 0.14080 0.22031
# Poissons Ratio (z) = 0.18502 0.13484
#
# Static dielectric constant tensor:
#      x y z
#    x 1.783350 0.000000 0.029750 
#    y 0.000000 1.755330 0.000000 
#    z 0.029750 0.000000 1.781920 
# 
# From -- ./inp_files/277561.got.cif
#   From: 2010.05.17/outbox.cif.g08.bks.cpg/sg15_139_cif.got.tgz:277561.got - 2010.06.03 18:47:42.
