data_PCOD9285714
_publ_section_title
;
Structure prediction by ZEFSAII (Michael W. Deem and Ramdas Pophale) SiO2 
 PCOD9285714
Probable space group: C 2/C
;
_chemical_formula_sum "Si O2"
_cell_formula_units_Z 48
_cell_length_a 7.510348
_cell_length_b 14.582757
_cell_length_c 19.775040
_cell_angle_alpha 90.000000
_cell_angle_beta 92.735296
_cell_angle_gamma 90.000000
_cell_volume 2163.326061
_symmetry_space_group_name_H-M "C 2/C"
_symmetry_group_IT_number 15
_symmetry_cell_setting 'monoclinic'
loop_
_space_group_symop_operation_xyz
x,y,z
-x,y,1/2-z
-x,-y,-z
x,-y,1/2+z
1/2+x,1/2+y,z
1/2-x,1/2+y,1/2-z
1/2-x,1/2-y,-z
1/2+x,1/2-y,1/2+z
loop_
_atom_site_type_symbol
_atom_site_label
_atom_site_fract_x
_atom_site_fract_y
_atom_site_fract_z
Si Si1 0.316951 0.322541 0.714027
Si Si2 0.192681 0.082156 0.908065
Si Si3 0.163610 0.154459 0.648690
Si Si4 0.205639 0.482462 0.241872
Si Si5 0.657748 0.620987 0.438753
Si Si6 0.960296 0.686796 0.537582
O O1 0.500000 0.287269 0.750000
O O2 0.180007 0.241625 0.697876
O O3 0.241204 0.409591 0.751524
O O4 0.359997 0.362431 0.641086
O O5 0.354478 0.136526 0.945679
O O6 0.019784 0.144172 0.893796
O O7 0.250451 0.051821 0.832956
O O8 0.143095 0.988234 0.947041
O O9 0.326287 0.162622 0.598037
O O10 0.184107 0.068268 0.698277
O O11 0.000000 0.461545 0.250000
O O12 0.853016 0.649654 0.470540
O O13 0.531597 0.702178 0.465313
#
# Coordination Sequence:
#
# PCOD9285714 Si02
#       6
#     8   8   8   8   8   8
#     4  10  22  41  63  87 127 161 206 270 310 377
#     4  11  22  40  63  91 129 167 208 268 312 382
#     4  11  23  40  63  96 122 167 215 250 326 383
#     4  11  21  39  60  91 123 160 211 258 319 379
#     4   9  21  41  64  94 125 169 215 261 320 374
#     4  10  21  42  66  88 132 170 209 267 314 385
#
# _framework density 22.188054000000001
#
# number of rings (size 3 to 8) (size 9 to 14) (size 15 to 20)
#    0.000    1.667    1.667    3.500    2.333    2.000 
#    3.000    7.500    0.000    0.000    0.000    0.000 
#    0.000    0.000    0.000    0.000    0.000    0.000 
#
# Total GULP energy -134106.265800 kJ/mol
# GULP energy per Si atom -5587.761075 kJ/mol
# Density = 2.213755 g / cm^3
# Si number density = 22.188054 Si / 1000 Ang^3
#
#
#
# Elastic Constant Matrix: (Units=GPa)
#
#
# Indices 1 2 3 4 5 6 
#
# 1 100.1191 68.9288 43.2036 0.0000 22.5571 0.0000
# 2 68.9288 161.7383 47.6815 0.0000 29.5160 0.0000
# 3 43.2036 47.6815 91.9449 0.0000 19.9810 0.0000
# 4 0.0000 0.0000 0.0000 31.4190 0.0000 10.2833
# 5 22.5571 29.5160 19.9810 0.0000 46.5344 0.0000
# 6 0.0000 0.0000 0.0000 10.2833 0.0000 17.4029
#
#
#
# Elastic Compliance Matrix: (Units=1/GPa)
#
#
# Indices 1 2 3 4 5 6 
#
# 1 0.015899 -0.005024 -0.004283 0.000000 -0.002681 0.000000
# 2 -0.005024 0.009381 -0.001919 0.000000 -0.002691 0.000000
# 3 -0.004283 -0.001919 0.014523 0.000000 -0.002943 0.000000
# 4 0.000000 0.000000 0.000000 0.039459 0.000000 -0.023316
# 5 -0.002681 -0.002691 -0.002943 0.000000 0.025759 0.000000
# 6 0.000000 0.000000 0.000000 -0.023316 0.000000 0.071239
#
#
# Mechanical properties :
#
#
# Convention : Reuss Voigt Hill
#
# Bulk Modulus (GPa) = 57.63290 74.82557 66.22924
# Shear Modulus (GPa) = 24.45025 32.00382 28.22703
#
# Velocity S-wave (km/s) = 3.32317 3.80200 3.57062
# Velocity P-wave (km/s) = 6.38402 7.28493 6.84930
#
# Compressibility (1/GPa) = 0.01735120
#
# Stress axis : x y z
#
# Youngs Moduli (GPa) = 62.89658 106.60137 68.85485
#
# Poissons Ratio (x) = 0.53555 0.29489
# Poissons Ratio (y) = 0.31599 0.13216
# Poissons Ratio (z) = 0.26937 0.20461
#
# Static dielectric constant tensor:
#      x y z
#    x 1.795090 0.000000 -0.027650 
#    y 0.000000 1.852280 0.000000 
#    z -0.027650 0.000000 1.816660 
# 
# From -- ./inp_files/231353.got.cif
#   From: 2010.05.17/outbox.cif.g08.bks.cpg/sg15_116_cif.got.tgz:231353.got - 2010.06.03 18:47:42.
