data_PCOD9285068
_publ_section_title
;
Structure prediction by ZEFSAII (Michael W. Deem and Ramdas Pophale) SiO2 
 PCOD9285068
Probable space group: C 2/C
;
_chemical_formula_sum "Si O2"
_cell_formula_units_Z 48
_cell_length_a 13.393251
_cell_length_b 13.477262
_cell_length_c 17.152043
_cell_angle_alpha 90.000000
_cell_angle_beta 136.642546
_cell_angle_gamma 90.000000
_cell_volume 2125.564606
_symmetry_space_group_name_H-M "C 2/C"
_symmetry_group_IT_number 15
_symmetry_cell_setting 'monoclinic'
loop_
_space_group_symop_operation_xyz
x,y,z
-x,y,1/2-z
-x,-y,-z
x,-y,1/2+z
1/2+x,1/2+y,z
1/2-x,1/2+y,1/2-z
1/2-x,1/2-y,-z
1/2+x,1/2-y,1/2+z
loop_
_atom_site_type_symbol
_atom_site_label
_atom_site_fract_x
_atom_site_fract_y
_atom_site_fract_z
Si Si1 0.706021 0.628376 0.771457
Si Si2 0.500000 0.765046 0.750000
Si Si3 0.006613 0.884589 0.489177
Si Si4 0.000000 0.596450 0.750000
Si Si5 0.336004 0.969207 0.933160
Si Si6 0.692726 0.072983 0.416947
Si Si7 0.474618 0.208747 0.575152
O O1 0.620528 0.692904 0.785252
O O2 0.618871 0.642353 0.642892
O O3 0.725268 0.513251 0.807123
O O4 0.867195 0.670638 0.860775
O O5 0.429305 0.841149 0.648197
O O6 0.163901 0.875242 0.536322
O O7 0.977170 0.822097 0.550587
O O8 0.000000 0.000000 0.500000
O O9 0.865898 0.516598 0.672871
O O10 0.029761 0.668143 0.839571
O O11 0.350313 0.852537 0.958075
O O12 0.500000 0.000000 0.000000
O O13 0.295727 0.023468 0.991624
#
# Coordination Sequence:
#
# PCOD9285068 Si02
#       7
#     8   4   8   4   8   8   8
#     4  11  23  38  63 102 134 176 224 277 350 414
#     4  11  22  36  71 102 138 174 219 288 357 402
#     4  12  26  42  64  96 141 175 233 295 342 405
#     4   9  20  44  75  94 130 190 237 268 347 442
#     4   9  21  40  67  95 136 176 226 268 339 427
#     4  10  21  41  67 100 139 177 226 289 345 410
#     4  10  22  45  68  96 131 184 231 280 348 418
#
# _framework density 22.582236000000002
#
# number of rings (size 3 to 8) (size 9 to 14) (size 15 to 20)
#    0.000    1.667    1.667    2.000    4.667    4.000 
#    0.000   10.000    0.000    0.000    0.000    0.000 
#    0.000    0.000    0.000    0.000    0.000    0.000 
#
# Total GULP energy -133950.141503 kJ/mol
# GULP energy per Si atom -5581.255896 kJ/mol
# Density = 2.253084 g / cm^3
# Si number density = 22.582236 Si / 1000 Ang^3
#
#
#
# Elastic Constant Matrix: (Units=GPa)
#
#
# Indices 1 2 3 4 5 6 
#
# 1 49.5675 29.0906 9.4427 0.0000 1.2956 0.0000
# 2 29.0906 138.8637 36.8730 0.0000 -7.4810 0.0000
# 3 9.4427 36.8730 71.4079 0.0000 1.4106 0.0000
# 4 0.0000 0.0000 0.0000 30.3511 0.0000 -1.6294
# 5 1.2956 -7.4810 1.4106 0.0000 22.7741 0.0000
# 6 0.0000 0.0000 0.0000 -1.6294 0.0000 38.6105
#
#
#
# Elastic Compliance Matrix: (Units=1/GPa)
#
#
# Indices 1 2 3 4 5 6 
#
# 1 0.023213 -0.004889 -0.000488 0.000000 -0.002897 0.000000
# 2 -0.004889 0.009587 -0.004377 0.000000 0.003699 0.000000
# 3 -0.000488 -0.004377 0.016377 0.000000 -0.002424 0.000000
# 4 0.000000 0.000000 0.000000 0.033023 0.000000 0.001394
# 5 -0.002897 0.003699 -0.002424 0.000000 0.045439 0.000000
# 6 0.000000 0.000000 0.000000 0.001394 0.000000 0.025959
#
#
# Mechanical properties :
#
#
# Convention : Reuss Voigt Hill
#
# Bulk Modulus (GPa) = 33.70597 45.62798 39.66698
# Shear Modulus (GPa) = 27.32327 30.64265 28.98296
#
# Velocity S-wave (km/s) = 3.48220 3.68766 3.58640
# Velocity P-wave (km/s) = 5.57906 6.19523 5.89520
#
# Compressibility (1/GPa) = 0.02966834
#
# Stress axis : x y z
#
# Youngs Moduli (GPa) = 43.07997 104.30703 61.06282
#
# Poissons Ratio (x) = 0.51000 0.02977
# Poissons Ratio (y) = 0.21064 0.26727
# Poissons Ratio (z) = 0.02100 0.45655
#
# Static dielectric constant tensor:
#      x y z
#    x 1.867020 0.000000 -0.015860 
#    y 0.000000 1.872050 0.000000 
#    z -0.015860 0.000000 1.903260 
# 
# From -- ./inp_files/205546.got.cif
#   From: 2010.05.17/outbox.cif.g08.bks.cpg/sg15_103_cif.got.tgz:205546.got - 2010.06.03 18:47:42.
