data_PCOD9285597
_publ_section_title
;
Structure prediction by ZEFSAII (Michael W. Deem and Ramdas Pophale) SiO2 
 PCOD9285597
Probable space group: C 2/C
;
_chemical_formula_sum "Si O2"
_cell_formula_units_Z 64
_cell_length_a 11.979363
_cell_length_b 28.155997
_cell_length_c 17.645947
_cell_angle_alpha 90.000000
_cell_angle_beta 152.482471
_cell_angle_gamma 90.000000
_cell_volume 2749.858498
_symmetry_space_group_name_H-M "C 2/C"
_symmetry_group_IT_number 15
_symmetry_cell_setting 'monoclinic'
loop_
_space_group_symop_operation_xyz
x,y,z
-x,y,1/2-z
-x,-y,-z
x,-y,1/2+z
1/2+x,1/2+y,z
1/2-x,1/2+y,1/2-z
1/2-x,1/2-y,-z
1/2+x,1/2-y,1/2+z
loop_
_atom_site_type_symbol
_atom_site_label
_atom_site_fract_x
_atom_site_fract_y
_atom_site_fract_z
Si Si1 0.389605 0.480492 0.762809
Si Si2 0.671355 0.801177 0.925692
Si Si3 0.895795 0.434016 0.487069
Si Si4 0.016073 0.810830 0.645633
Si Si5 0.987558 0.663335 0.473251
Si Si6 0.954376 0.702302 0.842672
Si Si7 0.271455 0.548527 0.447876
Si Si8 0.527730 0.359209 0.043367
O O1 0.500000 0.460507 0.750000
O O2 0.177256 0.447790 0.667360
O O3 0.244319 0.526372 0.644192
O O4 0.581649 0.500264 0.940333
O O5 0.500000 0.798675 0.750000
O O6 0.546589 0.824458 0.922924
O O7 0.750000 0.750000 0.000000
O O8 0.895570 0.831490 0.031613
O O9 0.885849 0.386072 0.434162
O O10 0.778438 0.429626 0.498751
O O11 0.108968 0.756419 0.716551
O O12 0.733254 0.807170 0.491414
O O13 0.042204 0.834482 0.578433
O O14 0.199163 0.840826 0.806783
O O15 0.077292 0.701795 0.585988
O O16 0.803372 0.658596 0.717973
O O17 0.432863 0.586450 0.496893
O O18 0.000000 0.541110 0.250000
#
# Coordination Sequence:
#
# PCOD9285597 Si02
#       8
#     8   8   8   8   8   8   8   8
#     4   9  21  41  68  94 125 170 214 275 338 425
#     4  12  25  40  61  96 134 177 217 271 327 392
#     4  10  21  42  64  94 131 162 217 271 345 404
#     4  11  23  43  60  87 129 177 223 274 327 384
#     4  12  23  39  65  94 127 170 217 273 328 393
#     4  11  25  40  62  89 126 178 228 271 321 388
#     4  11  22  41  65  95 129 167 210 270 352 411
#     4  12  23  40  63  90 130 171 219 272 333 399
#
# _framework density 23.273924999999998
#
# number of rings (size 3 to 8) (size 9 to 14) (size 15 to 20)
#    0.000    1.000    2.500    4.875    1.750    3.500 
#    0.000    1.250    0.000    0.000    0.000    0.000 
#    0.000    0.000    0.000    0.000    0.000    0.000 
#
# Total GULP energy -178696.985979 kJ/mol
# GULP energy per Si atom -5584.280812 kJ/mol
# Density = 2.322095 g / cm^3
# Si number density = 23.273925 Si / 1000 Ang^3
#
#
#
# Elastic Constant Matrix: (Units=GPa)
#
#
# Indices 1 2 3 4 5 6 
#
# 1 82.2572 17.5849 1.0835 0.0002 4.1802 0.0001
# 2 17.5849 44.0377 4.0007 -0.0004 3.8254 -0.0002
# 3 1.0835 4.0007 83.3137 -0.0025 4.6551 0.0001
# 4 0.0002 -0.0004 -0.0025 20.6891 -0.0008 7.1868
# 5 4.1802 3.8254 4.6551 -0.0008 33.1115 -0.0003
# 6 0.0001 -0.0002 0.0001 7.1868 -0.0003 24.9711
#
#
#
# Elastic Compliance Matrix: (Units=1/GPa)
#
#
# Indices 1 2 3 4 5 6 
#
# 1 0.013331 -0.005241 0.000140 0.000000 -0.001097 0.000000
# 2 -0.005241 0.025075 -0.001019 0.000000 -0.002092 0.000000
# 3 0.000140 -0.001019 0.012140 0.000002 -0.001607 -0.000001
# 4 0.000000 0.000000 0.000002 0.053704 0.000001 -0.015456
# 5 -0.001097 -0.002092 -0.001607 0.000001 0.030807 0.000000
# 6 0.000000 0.000000 -0.000001 -0.015456 0.000000 0.044495
#
#
# Mechanical properties :
#
#
# Convention : Reuss Voigt Hill
#
# Bulk Modulus (GPa) = 26.10595 28.32741 27.21668
# Shear Modulus (GPa) = 24.44269 28.21696 26.32983
#
# Velocity S-wave (km/s) = 3.24422 3.48571 3.36713
# Velocity P-wave (km/s) = 5.02737 5.32897 5.18037
#
# Compressibility (1/GPa) = 0.03830544
#
# Stress axis : x y z
#
# Youngs Moduli (GPa) = 75.01155 39.88061 82.37424
#
# Poissons Ratio (x) = 0.20900 -0.01150
# Poissons Ratio (y) = 0.39312 0.08394
# Poissons Ratio (z) = -0.01047 0.04064
#
# Static dielectric constant tensor:
#      x y z
#    x 1.905690 0.000000 0.023030 
#    y 0.000000 1.856940 0.000000 
#    z 0.023030 0.000000 1.951620 
# 
# From -- ./inp_files/201499.got.cif
#   From: 2010.05.17/outbox.cif.g08.bks.cpg/sg15_101_cif.got.tgz:201499.got - 2010.06.03 18:47:42.
