data_PCOD9285600
_publ_section_title
;
Structure prediction by ZEFSAII (Michael W. Deem and Ramdas Pophale) SiO2 
 PCOD9285600
Probable space group: C 2/C
;
_chemical_formula_sum "Si O2"
_cell_formula_units_Z 64
_cell_length_a 11.730076
_cell_length_b 25.751015
_cell_length_c 11.739495
_cell_angle_alpha 90.000000
_cell_angle_beta 46.831297
_cell_angle_gamma 90.000000
_cell_volume 2586.283209
_symmetry_space_group_name_H-M "C 2/C"
_symmetry_group_IT_number 15
_symmetry_cell_setting 'monoclinic'
loop_
_space_group_symop_operation_xyz
x,y,z
-x,y,1/2-z
-x,-y,-z
x,-y,1/2+z
1/2+x,1/2+y,z
1/2-x,1/2+y,1/2-z
1/2-x,1/2-y,-z
1/2+x,1/2-y,1/2+z
loop_
_atom_site_type_symbol
_atom_site_label
_atom_site_fract_x
_atom_site_fract_y
_atom_site_fract_z
Si Si1 0.589222 0.632803 0.417388
Si Si2 0.687474 0.204822 0.628269
Si Si3 0.077456 0.233330 0.577475
Si Si4 0.777206 0.615604 0.062861
Si Si5 0.243306 0.507297 0.939987
Si Si6 0.851678 0.603597 0.407490
Si Si7 0.904733 0.670117 0.571735
Si Si8 0.545822 0.541845 0.878482
O O1 0.577274 0.689231 0.480977
O O2 0.645293 0.628599 0.248737
O O3 0.732131 0.606233 0.387098
O O4 0.451328 0.596881 0.560975
O O5 0.500000 0.208862 0.750000
O O6 0.750000 0.250000 0.500000
O O7 0.750229 0.152378 0.526762
O O8 0.699433 0.196887 0.757405
O O9 0.250000 0.250000 0.500000
O O10 0.012708 0.283927 0.556581
O O11 0.000000 0.218175 0.750000
O O12 0.771824 0.554149 0.039958
O O13 0.952174 0.633513 0.983060
O O14 0.397203 0.532419 0.895458
O O15 0.287068 0.523584 0.782512
O O16 0.110834 0.545248 0.077029
O O17 0.804318 0.636223 0.551060
O O18 0.000000 0.630080 0.250000
O O19 0.500000 0.500000 0.000000
#
# Coordination Sequence:
#
# PCOD9285600 Si02
#       8
#     8   8   8   8   8   8   8   8
#     4  11  22  39  68  98 137 176 221 286 343 407
#     4  10  24  46  67  94 133 177 228 282 333 408
#     4  12  25  41  69 103 138 177 228 281 356 419
#     4  11  22  44  66  95 136 179 227 283 337 406
#     4  10  24  39  64  99 133 177 231 277 344 414
#     4  11  22  40  64  98 137 176 220 284 346 407
#     4  11  23  43  67  96 137 177 224 281 341 416
#     4  10  21  42  64  94 137 177 227 282 337 409
#
# _framework density 24.745936
#
# number of rings (size 3 to 8) (size 9 to 14) (size 15 to 20)
#    0.000    1.250    3.750    1.875    3.500    4.000 
#    2.250    2.500    0.000    0.000    0.000    0.000 
#    0.000    0.000    0.000    0.000    0.000    0.000 
#
# Total GULP energy -178542.347932 kJ/mol
# GULP energy per Si atom -5579.448373 kJ/mol
# Density = 2.468961 g / cm^3
# Si number density = 24.745936 Si / 1000 Ang^3
#
#
#
# Elastic Constant Matrix: (Units=GPa)
#
#
# Indices 1 2 3 4 5 6 
#
# 1 34.7993 8.7017 9.3268 0.0000 12.2366 0.0000
# 2 8.7017 192.7292 70.7117 0.0000 12.7988 0.0000
# 3 9.3268 70.7117 160.5955 0.0000 24.6489 0.0000
# 4 0.0000 0.0000 0.0000 39.2327 0.0000 9.8863
# 5 12.2366 12.7988 24.6489 0.0000 32.1370 0.0000
# 6 0.0000 0.0000 0.0000 9.8863 0.0000 23.4470
#
#
#
# Elastic Compliance Matrix: (Units=1/GPa)
#
#
# Indices 1 2 3 4 5 6 
#
# 1 0.033280 -0.000794 0.000355 0.000000 -0.012628 0.000000
# 2 -0.000794 0.006212 -0.002670 0.000000 -0.000124 0.000000
# 3 0.000355 -0.002670 0.008205 0.000000 -0.005365 0.000000
# 4 0.000000 0.000000 0.000000 0.028519 0.000000 -0.012025
# 5 -0.012628 -0.000124 -0.005365 0.000000 0.040089 0.000000
# 6 0.000000 0.000000 0.000000 -0.012025 0.000000 0.047720
#
#
# Mechanical properties :
#
#
# Convention : Reuss Voigt Hill
#
# Bulk Modulus (GPa) = 24.10858 62.84495 43.47677
# Shear Modulus (GPa) = 27.16340 38.92226 33.04283
#
# Velocity S-wave (km/s) = 3.31674 3.97025 3.65812
# Velocity P-wave (km/s) = 4.94280 6.81677 5.95398
#
# Compressibility (1/GPa) = 0.04147901
#
# Stress axis : x y z
#
# Youngs Moduli (GPa) = 30.04803 160.96796 121.87041
#
# Poissons Ratio (x) = 0.12786 -0.04328
# Poissons Ratio (y) = 0.02387 0.32543
# Poissons Ratio (z) = -0.01067 0.42983
#
# Static dielectric constant tensor:
#      x y z
#    x 1.922630 0.000000 0.032540 
#    y 0.000000 1.942880 0.000000 
#    z 0.032540 0.000000 1.893600 
# 
# From -- ./inp_files/101307.got.cif
#   From: 2010.05.17/outbox.cif.g08.bks.cpg/sg15_51_cif.got.tgz:101307.got - 2010.06.03 18:47:42.
