data_PCOD9285231
_publ_section_title
;
Structure prediction by ZEFSAII (Michael W. Deem and Ramdas Pophale) SiO2 
 PCOD9285231
Probable space group: C 2/C
;
_chemical_formula_sum "Si O2"
_cell_formula_units_Z 56
_cell_length_a 18.811037
_cell_length_b 26.353127
_cell_length_c 9.169613
_cell_angle_alpha 90.000000
_cell_angle_beta 146.249734
_cell_angle_gamma 90.000000
_cell_volume 2525.444830
_symmetry_space_group_name_H-M "C 2/C"
_symmetry_group_IT_number 15
_symmetry_cell_setting 'monoclinic'
loop_
_space_group_symop_operation_xyz
x,y,z
-x,y,1/2-z
-x,-y,-z
x,-y,1/2+z
1/2+x,1/2+y,z
1/2-x,1/2+y,1/2-z
1/2-x,1/2-y,-z
1/2+x,1/2-y,1/2+z
loop_
_atom_site_type_symbol
_atom_site_label
_atom_site_fract_x
_atom_site_fract_y
_atom_site_fract_z
Si Si1 0.087466 0.972446 0.768499
Si Si2 0.058143 0.299857 0.201002
Si Si3 0.754593 0.569403 0.145564
Si Si4 0.000472 0.447612 0.583787
Si Si5 0.224976 0.325479 0.896518
Si Si6 0.850934 0.271737 0.456092
Si Si7 0.197743 0.598228 0.965061
O O1 0.000000 0.954385 0.750000
O O2 0.163427 0.924492 0.834558
O O3 0.000000 0.000000 0.500000
O O4 0.177769 0.018090 0.984823
O O5 0.154653 0.344334 0.418607
O O6 0.000000 0.273218 0.250000
O O7 0.137717 0.274880 0.201615
O O8 0.926103 0.323085 0.908146
O O9 0.862707 0.576005 0.210240
O O10 0.694920 0.625153 0.023036
O O11 0.826182 0.568788 0.423572
O O12 0.000000 0.456896 0.750000
O O13 0.000000 0.500000 0.500000
O O14 0.886810 0.416579 0.318448
O O15 0.220276 0.314807 0.064541
O O16 0.289628 0.278707 0.920161
O O17 0.000000 0.273808 0.750000
#
# Coordination Sequence:
#
# PCOD9285231 Si02
#       7
#     8   8   8   8   8   8   8
#     4  12  28  46  65  93 135 190 234 277 341 420
#     4  11  21  39  70 101 136 172 226 287 350 408
#     4  12  24  43  69  95 135 182 232 288 347 404
#     4  12  25  37  64 103 133 169 223 285 339 396
#     4  10  21  41  68  97 136 179 231 288 346 415
#     4   9  22  41  65 100 138 182 228 284 350 427
#     4  12  24  44  67  98 139 175 229 289 340 411
#
# _framework density 22.174312
#
# number of rings (size 3 to 8) (size 9 to 14) (size 15 to 20)
#    0.000    0.857    5.714    1.286    4.000    1.143 
#    0.000    0.000    3.143    0.000    0.000    0.000 
#    0.000    0.000    0.000    0.000    0.000    0.000 
#
# Total GULP energy -155911.064293 kJ/mol
# GULP energy per Si atom -5568.252296 kJ/mol
# Density = 2.212384 g / cm^3
# Si number density = 22.174312 Si / 1000 Ang^3
#
#
#
# Elastic Constant Matrix: (Units=GPa)
#
#
# Indices 1 2 3 4 5 6 
#
# 1 176.5497 28.4027 30.2189 0.0000 -27.7073 0.0000
# 2 28.4027 32.8208 -6.9893 0.0000 -4.5917 0.0000
# 3 30.2189 -6.9893 43.4243 0.0000 -26.9154 0.0000
# 4 0.0000 0.0000 0.0000 26.9756 0.0000 -0.6380
# 5 -27.7073 -4.5917 -26.9154 0.0000 37.4967 0.0000
# 6 0.0000 0.0000 0.0000 -0.6380 0.0000 29.4892
#
#
#
# Elastic Compliance Matrix: (Units=1/GPa)
#
#
# Indices 1 2 3 4 5 6 
#
# 1 0.008292 -0.008753 -0.007288 0.000000 -0.000176 0.000000
# 2 -0.008753 0.045120 0.023004 0.000000 0.015570 0.000000
# 3 -0.007288 0.023004 0.054426 0.000000 0.036499 0.000000
# 4 0.000000 0.000000 0.000000 0.037089 0.000000 0.000802
# 5 -0.000176 0.015570 0.036499 0.000000 0.054644 0.000000
# 6 0.000000 0.000000 0.000000 0.000802 0.000000 0.033928
#
#
# Mechanical properties :
#
#
# Convention : Reuss Voigt Hill
#
# Bulk Modulus (GPa) = 8.21267 39.56215 23.88741
# Shear Modulus (GPa) = 19.21878 32.20313 25.71095
#
# Velocity S-wave (km/s) = 2.94719 3.81500 3.40883
# Velocity P-wave (km/s) = 3.91063 6.10621 5.12732
#
# Compressibility (1/GPa) = 0.12176313
#
# Stress axis : x y z
#
# Youngs Moduli (GPa) = 120.59700 22.16314 18.37363
#
# Poissons Ratio (x) = 0.19399 0.13392
# Poissons Ratio (y) = 1.05554 -0.42266
# Poissons Ratio (z) = 0.87897 -0.50984
#
# Static dielectric constant tensor:
#      x y z
#    x 1.745750 0.000000 0.045970 
#    y 0.000000 2.652240 0.000000 
#    z 0.045970 0.000000 1.830330 
# 
# From -- ./inp_files/52667.got.cif
#   From: 2010.05.17/outbox.cif.g08.bks.cpg/sg15_27_cif.got.tgz:52667.got - 2010.06.03 18:47:42.
