data_PCOD9285398
_publ_section_title
;
Structure prediction by ZEFSAII (Michael W. Deem and Ramdas Pophale) SiO2 
 PCOD9285398
Probable space group: C 2/C
;
_chemical_formula_sum "Si O2"
_cell_formula_units_Z 40
_cell_length_a 8.843900
_cell_length_b 18.521767
_cell_length_c 16.441224
_cell_angle_alpha 90.000000
_cell_angle_beta 35.698777
_cell_angle_gamma 90.000000
_cell_volume 1571.516762
_symmetry_space_group_name_H-M "C 2/C"
_symmetry_group_IT_number 15
_symmetry_cell_setting 'monoclinic'
loop_
_space_group_symop_operation_xyz
x,y,z
-x,y,1/2-z
-x,-y,-z
x,-y,1/2+z
1/2+x,1/2+y,z
1/2-x,1/2+y,1/2-z
1/2-x,1/2-y,-z
1/2+x,1/2-y,1/2+z
loop_
_atom_site_type_symbol
_atom_site_label
_atom_site_fract_x
_atom_site_fract_y
_atom_site_fract_z
Si Si1 0.786207 0.955140 0.044350
Si Si2 0.452062 0.102634 0.363661
Si Si3 0.282741 0.793048 0.167058
Si Si4 0.882658 0.420758 0.540310
Si Si5 0.423904 0.682317 0.574948
O O1 0.847195 0.933693 0.924083
O O2 0.764638 0.880849 0.101235
O O3 0.564440 0.015479 0.136472
O O4 0.000000 0.000000 0.000000
O O5 0.500000 0.127740 0.250000
O O6 0.631770 0.114337 0.363764
O O7 0.177039 0.141391 0.503276
O O8 0.413828 0.870777 0.097024
O O9 0.000000 0.791477 0.250000
O O10 0.232608 0.780673 0.284202
O O11 0.467813 0.736740 0.040085
O O12 0.000000 0.500000 0.500000
#
# Coordination Sequence:
#
# PCOD9285398 Si02
#       5
#     8   8   8   8   8
#     4   9  22  45  67 103 139 186 232 297 357 425
#     4  10  21  41  73 103 138 179 233 297 360 425
#     4  12  25  44  72 102 141 189 240 293 355 431
#     4  10  23  43  71 104 136 181 238 294 360 427
#     4  11  25  43  70 100 143 189 237 289 360 424
#
# _framework density 25.453118
#
# number of rings (size 3 to 8) (size 9 to 14) (size 15 to 20)
#    0.000    1.600    2.000    1.200    8.400    0.800 
#    0.000    4.000    0.000    0.000    0.000    0.000 
#    0.000    0.000    0.000    0.000    0.000    0.000 
#
# Total GULP energy -111711.558727 kJ/mol
# GULP energy per Si atom -5585.577936 kJ/mol
# Density = 2.539519 g / cm^3
# Si number density = 25.453118 Si / 1000 Ang^3
#
#
#
# Elastic Constant Matrix: (Units=GPa)
#
#
# Indices 1 2 3 4 5 6 
#
# 1 156.0879 19.6207 65.2415 -0.0003 61.0631 0.0027
# 2 19.6207 177.0729 68.8802 0.0002 5.1656 0.0011
# 3 65.2415 68.8802 171.8883 0.0005 41.7897 -0.0009
# 4 -0.0003 0.0002 0.0005 32.9621 -0.0002 4.8480
# 5 61.0631 5.1656 41.7897 -0.0002 55.2810 -0.0003
# 6 0.0027 0.0011 -0.0009 4.8480 -0.0003 5.7354
#
#
#
# Elastic Compliance Matrix: (Units=1/GPa)
#
#
# Indices 1 2 3 4 5 6 
#
# 1 0.011646 -0.000404 -0.001397 0.000001 -0.011770 -0.000007
# 2 -0.000404 0.006840 -0.003113 0.000000 0.002160 -0.000002
# 3 -0.001397 -0.003113 0.008759 -0.000001 -0.004788 0.000003
# 4 0.000001 0.000000 -0.000001 0.034645 -0.000001 -0.029285
# 5 -0.011770 0.002160 -0.004788 -0.000001 0.034508 0.000007
# 6 -0.000007 -0.000002 0.000003 -0.029285 0.000007 0.199109
#
#
# Mechanical properties :
#
#
# Convention : Reuss Voigt Hill
#
# Bulk Modulus (GPa) = 57.41076 90.28155 73.84616
# Shear Modulus (GPa) = 16.06988 42.21616 29.14302
#
# Velocity S-wave (km/s) = 2.51540 4.07699 3.38741
# Velocity P-wave (km/s) = 5.57142 7.59666 6.66146
#
# Compressibility (1/GPa) = 0.01741834
#
# Stress axis : x y z
#
# Youngs Moduli (GPa) = 85.86679 146.19883 114.16362
#
# Poissons Ratio (x) = 0.05902 0.15948
# Poissons Ratio (y) = 0.03466 0.35538
# Poissons Ratio (z) = 0.11995 0.45510
#
# Static dielectric constant tensor:
#      x y z
#    x 2.091010 0.000000 0.016110 
#    y 0.000000 1.981050 0.000000 
#    z 0.016110 0.000000 2.112100 
# 
# From -- ./inp_files/135763.got.cif
#   From: 2010.05.17/outbox.cif.g08.bks.cpg/sg15_68_cif.got.tgz:135763.got - 2010.06.03 18:47:42.
