data_PCOD9285057
_publ_section_title
;
Structure prediction by ZEFSAII (Michael W. Deem and Ramdas Pophale) SiO2 
 PCOD9285057
Probable space group: C 2/C
;
_chemical_formula_sum "Si O2"
_cell_formula_units_Z 48
_cell_length_a 25.613722
_cell_length_b 9.034703
_cell_length_c 9.825672
_cell_angle_alpha 90.000000
_cell_angle_beta 76.617340
_cell_angle_gamma 90.000000
_cell_volume 2212.039708
_symmetry_space_group_name_H-M "C 2/C"
_symmetry_group_IT_number 15
_symmetry_cell_setting 'monoclinic'
loop_
_space_group_symop_operation_xyz
x,y,z
-x,y,1/2-z
-x,-y,-z
x,-y,1/2+z
1/2+x,1/2+y,z
1/2-x,1/2+y,1/2-z
1/2-x,1/2-y,-z
1/2+x,1/2-y,1/2+z
loop_
_atom_site_type_symbol
_atom_site_label
_atom_site_fract_x
_atom_site_fract_y
_atom_site_fract_z
Si Si1 0.127939 0.299735 0.270512
Si Si2 0.816779 0.588506 0.207886
Si Si3 0.990633 0.644525 0.594388
Si Si4 0.329125 0.553748 0.074695
Si Si5 0.729874 0.617897 0.666046
Si Si6 0.098190 0.802085 0.491848
O O1 0.153689 0.459553 0.225831
O O2 0.166340 0.203159 0.342110
O O3 0.116817 0.220163 0.135858
O O4 0.071332 0.313469 0.381031
O O5 0.782121 0.489212 0.121321
O O6 0.778621 0.703986 0.312973
O O7 0.864713 0.687351 0.115261
O O8 0.035773 0.761689 0.521418
O O9 0.000000 0.615909 0.750000
O O10 0.000000 0.500000 0.500000
O O11 0.290070 0.440365 0.175251
O O12 0.309847 0.578155 0.933383
O O13 0.386050 0.469252 0.052532
#
# Coordination Sequence:
#
# PCOD9285057 Si02
#       6
#     8   8   8   8   8   8
#     4  11  23  41  69  93 133 171 215 273 325 387
#     4  11  25  41  68  95 132 169 222 267 333 385
#     4  10  21  41  66  99 130 169 217 266 322 386
#     4  11  24  45  64  96 134 170 221 262 330 385
#     4  11  26  41  67  97 128 174 220 270 321 396
#     4  10  23  43  65  96 133 170 216 271 327 380
#
# _framework density 21.69943
#
# number of rings (size 3 to 8) (size 9 to 14) (size 15 to 20)
#    0.000    1.333    3.333    1.000    4.667    3.333 
#    0.000    0.000    0.000    0.000    0.000    0.000 
#    0.000    0.000    0.000    0.000    0.000    0.000 
#
# Total GULP energy -133897.417225 kJ/mol
# GULP energy per Si atom -5579.059051 kJ/mol
# Density = 2.165004 g / cm^3
# Si number density = 21.699430 Si / 1000 Ang^3
#
#
#
# Elastic Constant Matrix: (Units=GPa)
#
#
# Indices 1 2 3 4 5 6 
#
# 1 75.9865 13.3229 -6.6326 0.0000 -18.4050 0.0000
# 2 13.3229 119.1429 8.3444 0.0000 -4.6609 0.0000
# 3 -6.6326 8.3444 29.1252 0.0000 -14.5760 0.0000
# 4 0.0000 0.0000 0.0000 26.5869 0.0000 -6.1955
# 5 -18.4050 -4.6609 -14.5760 0.0000 28.2922 0.0000
# 6 0.0000 0.0000 0.0000 -6.1955 0.0000 26.5234
#
#
#
# Elastic Compliance Matrix: (Units=1/GPa)
#
#
# Indices 1 2 3 4 5 6 
#
# 1 0.019943 -0.002515 0.015559 0.000000 0.020575 0.000000
# 2 -0.002515 0.008883 -0.004317 0.000000 -0.002397 0.000000
# 3 0.015559 -0.004317 0.059050 0.000000 0.039833 0.000000
# 4 0.000000 0.000000 0.000000 0.039778 0.000000 0.009291
# 5 0.020575 -0.002397 0.039833 0.000000 0.068857 0.000000
# 6 0.000000 0.000000 0.000000 0.009291 0.000000 0.039873
#
#
# Mechanical properties :
#
#
# Convention : Reuss Voigt Hill
#
# Bulk Modulus (GPa) = 9.49397 28.25821 18.87609
# Shear Modulus (GPa) = 19.68198 30.22848 24.95523
#
# Velocity S-wave (km/s) = 3.01496 3.73641 3.39490
# Velocity P-wave (km/s) = 4.06259 5.62718 4.90764
#
# Compressibility (1/GPa) = 0.10533002
#
# Stress axis : x y z
#
# Youngs Moduli (GPa) = 50.14295 112.57321 16.93491
#
# Poissons Ratio (x) = 0.28311 -0.26350
# Poissons Ratio (y) = 0.12610 0.07311
# Poissons Ratio (z) = -0.78019 0.48601
#
# Static dielectric constant tensor:
#      x y z
#    x 1.838420 0.000000 -0.069580 
#    y 0.000000 1.802300 0.000000 
#    z -0.069580 0.000000 1.786780 
# 
# From -- ./inp_files/116429.got.cif
#   From: 2010.05.17/outbox.cif.g08.bks.cpg/sg15_59_cif.got.tgz:116429.got - 2010.06.03 18:47:42.
