data_PCOD9285985
_publ_section_title
;
Structure prediction by ZEFSAII (Michael W. Deem and Ramdas Pophale) SiO2 
 PCOD9285985
Probable space group: C 2/C
;
_chemical_formula_sum "Si O2"
_cell_formula_units_Z 40
_cell_length_a 17.262663
_cell_length_b 9.172307
_cell_length_c 15.184171
_cell_angle_alpha 90.000000
_cell_angle_beta 58.106084
_cell_angle_gamma 90.000000
_cell_volume 2041.264906
_symmetry_space_group_name_H-M "C 2/C"
_symmetry_group_IT_number 15
_symmetry_cell_setting 'monoclinic'
loop_
_space_group_symop_operation_xyz
x,y,z
-x,y,1/2-z
-x,-y,-z
x,-y,1/2+z
1/2+x,1/2+y,z
1/2-x,1/2+y,1/2-z
1/2-x,1/2-y,-z
1/2+x,1/2-y,1/2+z
loop_
_atom_site_type_symbol
_atom_site_label
_atom_site_fract_x
_atom_site_fract_y
_atom_site_fract_z
Si Si1 0.745874 0.332866 0.910667
Si Si2 0.966834 0.832605 0.511696
Si Si3 0.427159 0.359472 0.720120
Si Si4 0.634862 0.325519 0.309750
Si Si5 0.732085 0.171129 0.603310
O O1 0.639452 0.326712 0.946932
O O2 0.809535 0.260875 0.797748
O O3 0.776062 0.499023 0.906041
O O4 0.750000 0.250000 0.000000
O O5 0.975291 0.782285 0.607521
O O6 0.033550 0.769048 0.397157
O O7 0.000000 0.000000 0.500000
O O8 0.500000 0.403262 0.750000
O O9 0.376521 0.507246 0.717459
O O10 0.355966 0.247761 0.803118
O O11 0.689691 0.315432 0.368784
O O12 0.750000 0.250000 0.500000
#
# Coordination Sequence:
#
# PCOD9285985 Si02
#       5
#     8   8   8   8   8
#     4  12  26  43  68 106 137 177 231 279 339 405
#     4  10  21  42  69  95 131 178 229 266 333 408
#     4  11  23  42  73 101 135 183 229 275 342 410
#     4  11  23  44  73  97 133 183 229 281 328 411
#     4  12  23  43  69 101 139 176 223 284 342 396
#
# _framework density 19.595693000000001
#
# number of rings (size 3 to 8) (size 9 to 14) (size 15 to 20)
#    0.000    0.800    6.000    2.400    8.400    0.000 
#    3.600    1.000    0.000    0.000    0.000    0.000 
#    0.000    0.000    0.000    0.000    0.000    0.000 
#
# Total GULP energy -111628.017180 kJ/mol
# GULP energy per Si atom -5581.400859 kJ/mol
# Density = 1.955109 g / cm^3
# Si number density = 19.595693 Si / 1000 Ang^3
#
#
#
# Elastic Constant Matrix: (Units=GPa)
#
#
# Indices 1 2 3 4 5 6 
#
# 1 112.5719 45.2707 69.5358 0.0000 7.0807 0.0000
# 2 45.2707 108.6726 87.4853 0.0000 1.0044 0.0000
# 3 69.5358 87.4853 223.2509 0.0000 -11.4240 0.0000
# 4 0.0000 0.0000 0.0000 40.9537 0.0000 0.3650
# 5 7.0807 1.0044 -11.4240 0.0000 42.8161 0.0000
# 6 0.0000 0.0000 0.0000 0.3650 0.0000 29.4869
#
#
#
# Elastic Compliance Matrix: (Units=1/GPa)
#
#
# Indices 1 2 3 4 5 6 
#
# 1 0.011838 -0.002674 -0.002774 0.000000 -0.002635 0.000000
# 2 -0.002674 0.014176 -0.004782 0.000000 -0.001166 0.000000
# 3 -0.002774 -0.004782 0.007347 0.000000 0.002531 0.000000
# 4 0.000000 0.000000 0.000000 0.024421 0.000000 -0.000302
# 5 -0.002635 -0.001166 0.002531 0.000000 0.024494 0.000000
# 6 0.000000 0.000000 0.000000 -0.000302 0.000000 0.033917
#
#
# Mechanical properties :
#
#
# Convention : Reuss Voigt Hill
#
# Bulk Modulus (GPa) = 77.51424 94.34211 85.92817
# Shear Modulus (GPa) = 35.47270 38.79824 37.13547
#
# Velocity S-wave (km/s) = 4.25929 4.45448 4.35798
# Velocity P-wave (km/s) = 7.98946 8.64322 8.32276
#
# Compressibility (1/GPa) = 0.01290086
#
# Stress axis : x y z
#
# Youngs Moduli (GPa) = 84.47502 70.53986 136.11211
#
# Poissons Ratio (x) = 0.18860 0.37761
# Poissons Ratio (y) = 0.22586 0.65092
# Poissons Ratio (z) = 0.23435 0.33734
#
# Static dielectric constant tensor:
#      x y z
#    x 1.693080 0.000000 0.035350 
#    y 0.000000 0.729150 0.000000 
#    z 0.035350 0.000000 1.725140 
# 
# From -- ./inp_files/159098.got.cif
#   From: 2010.05.17/outbox.cif.g08.bks.cpg/sg15_80_cif.got.tgz:159098.got - 2010.06.03 18:47:42.
