data_PCOD9285491
_publ_section_title
;
Structure prediction by ZEFSAII (Michael W. Deem and Ramdas Pophale) SiO2 
 PCOD9285491
Probable space group: C 2/C
;
_chemical_formula_sum "Si O2"
_cell_formula_units_Z 60
_cell_length_a 7.450219
_cell_length_b 13.031474
_cell_length_c 30.015098
_cell_angle_alpha 90.000000
_cell_angle_beta 89.911753
_cell_angle_gamma 90.000000
_cell_volume 2914.082424
_symmetry_space_group_name_H-M "C 2/C"
_symmetry_group_IT_number 15
_symmetry_cell_setting 'monoclinic'
loop_
_space_group_symop_operation_xyz
x,y,z
-x,y,1/2-z
-x,-y,-z
x,-y,1/2+z
1/2+x,1/2+y,z
1/2-x,1/2+y,1/2-z
1/2-x,1/2-y,-z
1/2+x,1/2-y,1/2+z
loop_
_atom_site_type_symbol
_atom_site_label
_atom_site_fract_x
_atom_site_fract_y
_atom_site_fract_z
Si Si1 0.515754 0.172969 0.199879
Si Si2 0.037485 0.402367 0.894844
Si Si3 0.565349 0.130726 0.619066
Si Si4 0.696187 0.619893 0.792258
Si Si5 0.419376 0.602490 0.186103
Si Si6 0.187595 0.219724 0.048646
Si Si7 0.859024 0.177774 0.097867
Si Si8 0.000000 0.270822 0.250000
O O1 0.500000 0.128596 0.250000
O O2 0.418841 0.122474 0.157206
O O3 0.446914 0.289401 0.201621
O O4 0.723826 0.155005 0.189992
O O5 0.003112 0.522390 0.897208
O O6 0.848716 0.346527 0.906775
O O7 0.185957 0.363672 0.928538
O O8 0.669263 0.117215 0.665316
O O9 0.694080 0.183044 0.582369
O O10 0.402506 0.212243 0.620875
O O11 0.601106 0.509310 0.792428
O O12 0.826804 0.654953 0.751612
O O13 0.447358 0.597709 0.133117
O O14 0.540066 0.686899 0.210893
O O15 0.980741 0.182381 0.053652
O O16 0.250000 0.250000 0.000000
#
# Coordination Sequence:
#
# PCOD9285491 Si02
#       8
#     8   8   8   8   8   8   8   4
#     4  11  22  39  58  91 124 159 220 252 298 380
#     4  11  22  43  67  88 136 175 197 275 327 366
#     4  10  21  42  62  92 127 165 211 257 321 395
#     4  12  23  39  62  86 124 169 210 264 312 376
#     4  11  24  39  58  85 124 169 209 261 318 370
#     4  10  23  44  69  99 128 162 217 274 323 397
#     4   9  21  43  60  94 125 160 216 252 315 397
#     4  12  24  36  58  90 126 162 214 272 314 358
#
# _framework density 20.589672
#
# number of rings (size 3 to 8) (size 9 to 14) (size 15 to 20)
#    0.800    0.533    6.667    0.000    1.867    1.067 
#    7.200    0.667    0.000    0.000    0.000    0.000 
#    0.000    0.000    0.000    0.000    0.000    0.000 
#
# Total GULP energy -167183.198915 kJ/mol
# GULP energy per Si atom -5572.773297 kJ/mol
# Density = 2.054281 g / cm^3
# Si number density = 20.589672 Si / 1000 Ang^3
#
#
#
# Elastic Constant Matrix: (Units=GPa)
#
#
# Indices 1 2 3 4 5 6 
#
# 1 43.8724 20.3851 0.4586 0.0000 -4.4853 0.0000
# 2 20.3851 105.2638 -6.7665 0.0000 -1.2243 0.0000
# 3 0.4586 -6.7665 50.8073 0.0000 -15.1493 0.0000
# 4 0.0000 0.0000 0.0000 3.0688 0.0000 2.5811
# 5 -4.4853 -1.2243 -15.1493 0.0000 28.5620 0.0000
# 6 0.0000 0.0000 0.0000 2.5811 0.0000 31.1760
#
#
#
# Elastic Compliance Matrix: (Units=1/GPa)
#
#
# Indices 1 2 3 4 5 6 
#
# 1 0.025454 -0.004864 0.000299 0.000000 0.003948 0.000000
# 2 -0.004864 0.010552 0.001611 0.000000 0.000543 0.000000
# 3 0.000299 0.001611 0.023673 0.000000 0.012672 0.000000
# 4 0.000000 0.000000 0.000000 0.350253 0.000000 -0.028998
# 5 0.003948 0.000543 0.012672 0.000000 0.042376 0.000000
# 6 0.000000 0.000000 0.000000 -0.028998 0.000000 0.034477
#
#
# Mechanical properties :
#
#
# Convention : Reuss Voigt Hill
#
# Bulk Modulus (GPa) = 18.59734 25.34418 21.97076
# Shear Modulus (GPa) = 9.79212 24.95244 17.37228
#
# Velocity S-wave (km/s) = 2.18315 3.48500 2.90787
# Velocity P-wave (km/s) = 3.92516 5.34130 4.68702
#
# Compressibility (1/GPa) = 0.05377114
#
# Stress axis : x y z
#
# Youngs Moduli (GPa) = 39.28665 94.77052 42.24305
#
# Poissons Ratio (x) = 0.46098 -0.01265
# Poissons Ratio (y) = 0.19110 -0.06806
# Poissons Ratio (z) = -0.01177 -0.15269
#
# Static dielectric constant tensor:
#      x y z
#    x 1.749340 0.000000 0.000580 
#    y 0.000000 1.732160 0.000000 
#    z 0.000580 0.000000 1.827900 
# 
# From -- ./inp_files/307138.got.cif
#   From: 2010.05.17/outbox.cif.g08.bks.cpg/sg15_154_cif.got.tgz:307138.got - 2010.06.03 18:47:42.
