data_PCOD9285762
_publ_section_title
;
Structure prediction by ZEFSAII (Michael W. Deem and Ramdas Pophale) SiO2 
 PCOD9285762
Probable space group: C 2/C
;
_chemical_formula_sum "Si O2"
_cell_formula_units_Z 36
_cell_length_a 9.051119
_cell_length_b 14.598357
_cell_length_c 23.586241
_cell_angle_alpha 90.000000
_cell_angle_beta 147.568921
_cell_angle_gamma 90.000000
_cell_volume 1671.323032
_symmetry_space_group_name_H-M "C 2/C"
_symmetry_group_IT_number 15
_symmetry_cell_setting 'monoclinic'
loop_
_space_group_symop_operation_xyz
x,y,z
-x,y,1/2-z
-x,-y,-z
x,-y,1/2+z
1/2+x,1/2+y,z
1/2-x,1/2+y,1/2-z
1/2-x,1/2-y,-z
1/2+x,1/2-y,1/2+z
loop_
_atom_site_type_symbol
_atom_site_label
_atom_site_fract_x
_atom_site_fract_y
_atom_site_fract_z
Si Si1 0.815790 0.719550 0.436873
Si Si2 0.788409 0.273219 0.335751
Si Si3 0.000000 0.900246 0.750000
Si Si4 0.349595 0.570701 0.911461
Si Si5 0.213597 0.051147 0.733741
O O1 0.533500 0.720172 0.382878
O O2 0.736979 0.661363 0.356043
O O3 0.879016 0.823783 0.439388
O O4 0.065792 0.691616 0.559201
O O5 0.500000 0.219671 0.250000
O O6 0.700547 0.357837 0.267634
O O7 0.119557 0.965766 0.740145
O O8 0.441689 0.559861 0.876262
O O9 0.030712 0.546856 0.818251
O O10 0.500000 0.500000 0.000000
#
# Coordination Sequence:
#
# PCOD9285762 Si02
#       5
#     8   8   4   8   8
#     4  10  24  41  67  97 134 173 220 277 323 393
#     4  10  21  42  66  95 134 172 220 275 326 395
#     4  12  24  42  68 100 132 170 218 280 334 380
#     4  10  23  46  65  92 132 179 218 264 330 393
#     4  10  23  40  66  97 131 171 216 272 329 396
#
# _framework density 21.539821
#
# number of rings (size 3 to 8) (size 9 to 14) (size 15 to 20)
#    0.000    1.778    1.111    2.667    9.333    4.444 
#    0.000    3.333    0.000    0.000    0.000    0.000 
#    0.000    0.000    0.000    0.000    0.000    0.000 
#
# Total GULP energy -100544.456830 kJ/mol
# GULP energy per Si atom -5585.803157 kJ/mol
# Density = 2.149080 g / cm^3
# Si number density = 21.539821 Si / 1000 Ang^3
#
#
#
# Elastic Constant Matrix: (Units=GPa)
#
#
# Indices 1 2 3 4 5 6 
#
# 1 88.8193 32.6639 53.7428 0.0001 -20.7276 -0.0007
# 2 32.6639 80.7828 38.5506 -0.0004 -18.8807 0.0006
# 3 53.7428 38.5506 140.5450 0.0000 -28.3569 -0.0006
# 4 0.0001 -0.0004 0.0000 8.8343 0.0008 58.8169
# 5 -20.7276 -18.8807 -28.3569 0.0008 41.5418 -0.0029
# 6 -0.0007 0.0006 -0.0006 58.8169 -0.0029 -186.2182
#
#
#
# Elastic Compliance Matrix: (Units=1/GPa)
#
#
# Indices 1 2 3 4 5 6 
#
# 1 0.016068 -0.003576 -0.004492 0.000000 0.003325 0.000000
# 2 -0.003576 0.015773 -0.002172 0.000000 0.003902 0.000000
# 3 -0.004492 -0.002172 0.010179 0.000000 0.003720 0.000000
# 4 0.000000 0.000000 0.000000 0.036481 0.000000 0.011522
# 5 0.003325 0.003902 0.003720 0.000000 0.030044 0.000000
# 6 0.000000 0.000000 0.000000 0.011522 0.000000 -0.001731
#
#
# Mechanical properties :
#
#
# Convention : Reuss Voigt Hill
#
# Bulk Modulus (GPa) = 46.42465 62.22908 54.32686
# Shear Modulus (GPa) = 37.18145 -14.82243 11.17951
#
# Velocity S-wave (km/s) = 4.15923 -2.62609 2.28066
# Velocity P-wave (km/s) = 6.68321 4.44498 5.67552
#
# Compressibility (1/GPa) = 0.02154028
#
# Stress axis : x y z
#
# Youngs Moduli (GPa) = 62.23443 63.39869 98.23892
#
# Poissons Ratio (x) = 0.22671 0.44134
# Poissons Ratio (y) = 0.22255 0.21335
# Poissons Ratio (z) = 0.27959 0.13769
#
# Static dielectric constant tensor:
#      x y z
#    x 1.821250 0.000000 -0.060020 
#    y 0.000000 1.757990 0.000000 
#    z -0.060020 0.000000 1.713040 
# 
# From -- ./inp_files/134654.got.cif
#   From: 2010.05.17/outbox.cif.g08.bks.cpg/sg15_68_cif.got.tgz:134654.got - 2010.06.03 18:47:42.
