data_PCOD9285476
_publ_section_title
;
Structure prediction by ZEFSAII (Michael W. Deem and Ramdas Pophale) SiO2 
 PCOD9285476
Probable space group: C 2/C
;
_chemical_formula_sum "Si O2"
_cell_formula_units_Z 56
_cell_length_a 10.166007
_cell_length_b 27.236693
_cell_length_c 13.479724
_cell_angle_alpha 90.000000
_cell_angle_beta 38.102050
_cell_angle_gamma 90.000000
_cell_volume 2303.117057
_symmetry_space_group_name_H-M "C 2/C"
_symmetry_group_IT_number 15
_symmetry_cell_setting 'monoclinic'
loop_
_space_group_symop_operation_xyz
x,y,z
-x,y,1/2-z
-x,-y,-z
x,-y,1/2+z
1/2+x,1/2+y,z
1/2-x,1/2+y,1/2-z
1/2-x,1/2-y,-z
1/2+x,1/2-y,1/2+z
loop_
_atom_site_type_symbol
_atom_site_label
_atom_site_fract_x
_atom_site_fract_y
_atom_site_fract_z
Si Si1 0.988663 0.214544 0.544926
Si Si2 0.342941 0.533674 0.936371
Si Si3 0.612270 0.185011 0.912989
Si Si4 0.297464 0.068182 0.941954
Si Si5 0.670117 0.325885 0.559371
Si Si6 0.751627 0.618382 0.366958
Si Si7 0.470397 0.916049 0.557762
O O1 0.815574 0.199118 0.728100
O O2 0.068195 0.269868 0.512900
O O3 0.884763 0.211280 0.496322
O O4 0.166781 0.172680 0.434818
O O5 0.500000 0.535225 0.750000
O O6 0.104869 0.542875 0.034179
O O7 0.343284 0.480431 0.986481
O O8 0.375789 0.578056 0.993806
O O9 0.625439 0.131384 0.953449
O O10 0.404297 0.180851 0.966169
O O11 0.500000 0.066913 0.750000
O O12 0.385650 0.067947 0.002127
O O13 0.180105 0.120317 0.002346
O O14 0.500000 0.322875 0.750000
O O15 0.000000 0.616262 0.250000
O O16 0.773065 0.602810 0.239799
#
# Coordination Sequence:
#
# PCOD9285476 Si02
#       7
#     8   8   8   8   8   8   8
#     4  12  22  40  61  88 124 164 203 255 313 366
#     4  11  23  40  61  89 121 161 208 257 307 365
#     4  11  23  38  62  92 122 160 204 250 308 375
#     4  11  22  39  62  91 124 162 204 251 309 376
#     4  11  22  38  60  91 126 160 201 253 309 375
#     4  10  23  43  65  89 123 165 213 262 307 364
#     4  10  21  42  62  86 121 162 203 256 310 365
#
# _framework density 24.314874
#
# number of rings (size 3 to 8) (size 9 to 14) (size 15 to 20)
#    0.000    1.143    0.000    9.000    0.000    0.000 
#    0.000    9.286    0.000    0.000    0.000    0.000 
#    0.000    0.000    0.000    0.000    0.000    0.000 
#
# Total GULP energy -156916.286152 kJ/mol
# GULP energy per Si atom -5604.153077 kJ/mol
# Density = 2.425953 g / cm^3
# Si number density = 24.314874 Si / 1000 Ang^3
#
#
#
# Elastic Constant Matrix: (Units=GPa)
#
#
# Indices 1 2 3 4 5 6 
#
# 1 39.0097 -2.0146 -4.5061 0.0000 9.5088 0.0000
# 2 -2.0146 149.6047 18.9865 0.0000 -0.2074 0.0000
# 3 -4.5061 18.9865 155.7894 0.0000 9.1840 0.0000
# 4 0.0000 0.0000 0.0000 35.3660 0.0000 -0.2240
# 5 9.5088 -0.2074 9.1840 0.0000 29.3611 0.0000
# 6 0.0000 0.0000 0.0000 -0.2240 0.0000 24.0537
#
#
#
# Elastic Compliance Matrix: (Units=1/GPa)
#
#
# Indices 1 2 3 4 5 6 
#
# 1 0.028124 0.000194 0.001352 0.000000 -0.009529 0.000000
# 2 0.000194 0.006793 -0.000837 0.000000 0.000247 0.000000
# 3 0.001352 -0.000837 0.006710 0.000000 -0.002542 0.000000
# 4 0.000000 0.000000 0.000000 0.028277 0.000000 0.000263
# 5 -0.009529 0.000247 -0.002542 0.000000 0.037942 0.000000
# 6 0.000000 0.000000 0.000000 0.000263 0.000000 0.041576
#
#
# Mechanical properties :
#
#
# Convention : Reuss Voigt Hill
#
# Bulk Modulus (GPa) = 23.23186 41.03727 32.13456
# Shear Modulus (GPa) = 30.79707 39.88537 35.34122
#
# Velocity S-wave (km/s) = 3.56278 4.05454 3.81659
# Velocity P-wave (km/s) = 5.14781 6.23162 5.71546
#
# Compressibility (1/GPa) = 0.04304434
#
# Stress axis : x y z
#
# Youngs Moduli (GPa) = 35.55729 147.20069 149.03374
#
# Poissons Ratio (x) = -0.02855 -0.20143
# Poissons Ratio (y) = -0.00690 0.12472
# Poissons Ratio (z) = -0.04806 0.12319
#
# Static dielectric constant tensor:
#      x y z
#    x 1.989300 0.000000 0.003830 
#    y 0.000000 1.962270 0.000000 
#    z 0.003830 0.000000 1.869700 
# 
# From -- ./inp_files/149268.got.cif
#   From: 2010.05.17/outbox.cif.g08.bks.cpg/sg15_75_cif.got.tgz:149268.got - 2010.06.03 18:47:42.
