data_PCOD9285422
_publ_section_title
;
Structure prediction by ZEFSAII (Michael W. Deem and Ramdas Pophale) SiO2 
 PCOD9285422
Probable space group: C 2/C
;
_chemical_formula_sum "Si O2"
_cell_formula_units_Z 60
_cell_length_a 19.773664
_cell_length_b 22.856496
_cell_length_c 12.345819
_cell_angle_alpha 90.000000
_cell_angle_beta 33.346585
_cell_angle_gamma 90.000000
_cell_volume 3067.214738
_symmetry_space_group_name_H-M "C 2/C"
_symmetry_group_IT_number 15
_symmetry_cell_setting 'monoclinic'
loop_
_space_group_symop_operation_xyz
x,y,z
-x,y,1/2-z
-x,-y,-z
x,-y,1/2+z
1/2+x,1/2+y,z
1/2-x,1/2+y,1/2-z
1/2-x,1/2-y,-z
1/2+x,1/2-y,1/2+z
loop_
_atom_site_type_symbol
_atom_site_label
_atom_site_fract_x
_atom_site_fract_y
_atom_site_fract_z
Si Si1 0.105913 0.093953 0.803596
Si Si2 0.886952 0.563815 0.775242
Si Si3 0.292750 0.525995 0.647134
Si Si4 0.500000 0.474657 0.250000
Si Si5 0.414803 0.283993 0.259941
Si Si6 0.878989 0.572423 0.346752
Si Si7 0.325748 0.092154 0.089765
Si Si8 0.684162 0.825380 0.715813
O O1 0.065323 0.160803 0.845788
O O2 0.250450 0.083839 0.579990
O O3 0.020364 0.063172 0.829708
O O4 0.107827 0.061177 0.914652
O O5 0.818027 0.565340 0.751926
O O6 0.891936 0.494730 0.796547
O O7 0.026932 0.585765 0.587999
O O8 0.815728 0.592750 0.972319
O O9 0.372414 0.507487 0.436575
O O10 0.240021 0.467382 0.776549
O O11 0.500000 0.270935 0.250000
O O12 0.404320 0.228616 0.194060
O O13 0.296101 0.306495 0.487709
O O14 0.870478 0.614814 0.257122
O O15 0.000000 0.588869 0.250000
O O16 0.281744 0.151607 0.209820
#
# Coordination Sequence:
#
# PCOD9285422 Si02
#       8
#     8   8   8   4   8   8   8   8
#     4  11  22  35  59  80 119 161 196 247 301 349
#     4  11  21  34  55  89 128 150 197 240 298 374
#     4  12  21  36  55  87 121 163 195 243 303 364
#     4  12  22  38  52  84 122 154 208 240 296 380
#     4  10  21  42  58  86 115 152 205 257 288 359
#     4  11  18  33  54  89 117 150 191 243 293 363
#     4  11  21  36  58  89 124 164 188 249 309 358
#     4  10  22  35  60  86 117 153 199 247 309 347
#
# _framework density 19.561720999999999
#
# number of rings (size 3 to 8) (size 9 to 14) (size 15 to 20)
#    0.000    1.067    6.000    2.000    1.867    0.000 
#    0.000    0.000    0.000    2.400    0.000    0.000 
#    0.000    0.000    0.000    0.000    0.000    0.000 
#
# Total GULP energy -167080.196433 kJ/mol
# GULP energy per Si atom -5569.339881 kJ/mol
# Density = 1.951720 g / cm^3
# Si number density = 19.561721 Si / 1000 Ang^3
#
#
#
# Elastic Constant Matrix: (Units=GPa)
#
#
# Indices 1 2 3 4 5 6 
#
# 1 74.5158 10.5791 -3.7766 0.0004 7.9819 -0.0008
# 2 10.5791 79.2752 3.6910 0.0004 23.5634 -0.0004
# 3 -3.7766 3.6910 43.1783 0.0006 6.5620 -0.0003
# 4 0.0004 0.0004 0.0006 14.3814 -0.0002 6.6935
# 5 7.9819 23.5634 6.5620 -0.0002 29.8447 0.0004
# 6 -0.0008 -0.0004 -0.0003 6.6935 0.0004 27.5749
#
#
#
# Elastic Compliance Matrix: (Units=1/GPa)
#
#
# Indices 1 2 3 4 5 6 
#
# 1 0.014011 -0.000943 0.001823 -0.000001 -0.003404 0.000001
# 2 -0.000943 0.016560 0.000466 -0.000001 -0.012925 0.000001
# 3 0.001823 0.000466 0.024219 -0.000001 -0.006181 0.000001
# 4 -0.000001 -0.000001 -0.000001 0.078390 0.000002 -0.019028
# 5 -0.003404 -0.012925 -0.006181 0.000002 0.045981 -0.000001
# 6 0.000001 0.000001 0.000001 -0.019028 -0.000001 0.040884
#
#
# Mechanical properties :
#
#
# Convention : Reuss Voigt Hill
#
# Bulk Modulus (GPa) = 17.39649 24.21738 20.80694
# Shear Modulus (GPa) = 21.14050 26.79192 23.96621
#
# Velocity S-wave (km/s) = 3.29098 3.70484 3.50402
# Velocity P-wave (km/s) = 4.83251 5.54148 5.19909
#
# Compressibility (1/GPa) = 0.05748287
#
# Stress axis : x y z
#
# Youngs Moduli (GPa) = 71.37339 60.38560 41.29042
#
# Poissons Ratio (x) = 0.05694 -0.07529
# Poissons Ratio (y) = 0.06730 -0.01925
# Poissons Ratio (z) = -0.13014 -0.02815
#
# Static dielectric constant tensor:
#      x y z
#    x 1.805020 0.000000 0.017920 
#    y 0.000000 1.718260 0.000000 
#    z 0.017920 0.000000 1.775770 
# 
# From -- ./inp_files/108099.got.cif
#   From: 2010.05.17/outbox.cif.g08.bks.cpg/sg15_55_cif.got.tgz:108099.got - 2010.06.03 18:47:42.
