data_PCOD9285755
_publ_section_title
;
Structure prediction by ZEFSAII (Michael W. Deem and Ramdas Pophale) SiO2 
 PCOD9285755
Probable space group: C 2/C
;
_chemical_formula_sum "Si O2"
_cell_formula_units_Z 52
_cell_length_a 14.378816
_cell_length_b 13.831492
_cell_length_c 15.825314
_cell_angle_alpha 90.000000
_cell_angle_beta 135.766652
_cell_angle_gamma 90.000000
_cell_volume 2195.532718
_symmetry_space_group_name_H-M "C 2/C"
_symmetry_group_IT_number 15
_symmetry_cell_setting 'monoclinic'
loop_
_space_group_symop_operation_xyz
x,y,z
-x,y,1/2-z
-x,-y,-z
x,-y,1/2+z
1/2+x,1/2+y,z
1/2-x,1/2+y,1/2-z
1/2-x,1/2-y,-z
1/2+x,1/2-y,1/2+z
loop_
_atom_site_type_symbol
_atom_site_label
_atom_site_fract_x
_atom_site_fract_y
_atom_site_fract_z
Si Si1 0.793668 0.546339 0.406623
Si Si2 0.246738 0.589581 0.935451
Si Si3 0.959326 0.249081 0.814228
Si Si4 0.035903 0.906423 0.675901
Si Si5 0.544142 0.863707 0.995760
Si Si6 0.309673 0.787648 0.262907
Si Si7 0.000000 0.445045 0.750000
O O1 0.774595 0.610203 0.478735
O O2 0.657973 0.520035 0.269138
O O3 0.863043 0.447720 0.480003
O O4 0.892151 0.603743 0.410142
O O5 0.227390 0.673458 0.853996
O O6 0.131597 0.511277 0.840773
O O7 0.404531 0.561032 0.039985
O O8 0.819877 0.217853 0.761427
O O9 0.000000 0.203767 0.750000
O O10 0.964559 0.364660 0.797901
O O11 0.059324 0.259272 0.959517
O O12 0.108079 0.811582 0.687791
O O13 0.000000 0.883812 0.750000
O O14 0.592646 0.859729 0.124888
#
# Coordination Sequence:
#
# PCOD9285755 Si02
#       7
#     8   8   8   8   8   8   4
#     4  10  21  42  66  94 141 184 228 281 345 415
#     4  11  23  42  67 106 134 181 233 284 347 413
#     4  10  23  46  69  93 138 187 235 277 338 417
#     4  10  24  38  61  99 148 173 217 292 355 398
#     4  11  22  40  70  96 130 188 241 273 336 423
#     4  12  25  39  67 107 138 175 229 290 353 403
#     4  10  22  46  76  92 132 192 236 270 338 418
#
# _framework density 23.684456999999998
#
# number of rings (size 3 to 8) (size 9 to 14) (size 15 to 20)
#    0.462    0.923    3.077    1.846    5.385    1.846 
#    0.000    6.923    0.000    0.000    0.000    0.000 
#    0.000    0.000    0.000    0.000    0.000    0.000 
#
# Total GULP energy -144783.618271 kJ/mol
# GULP energy per Si atom -5568.600703 kJ/mol
# Density = 2.363055 g / cm^3
# Si number density = 23.684457 Si / 1000 Ang^3
#
#
#
# Elastic Constant Matrix: (Units=GPa)
#
#
# Indices 1 2 3 4 5 6 
#
# 1 44.0080 12.6156 45.4801 0.0000 49.8454 0.0000
# 2 12.6156 25.5442 5.5225 0.0000 17.0819 0.0000
# 3 45.4801 5.5225 103.9200 0.0000 18.4574 0.0000
# 4 0.0000 0.0000 0.0000 2.7485 0.0000 3.4104
# 5 49.8454 17.0819 18.4574 0.0000 16.0016 0.0000
# 6 0.0000 0.0000 0.0000 3.4104 0.0000 26.7862
#
#
#
# Elastic Compliance Matrix: (Units=1/GPa)
#
#
# Indices 1 2 3 4 5 6 
#
# 1 -0.002057 -0.017994 -0.003387 0.000000 0.029523 0.000000
# 2 -0.017994 0.047671 0.005565 0.000000 -0.001256 0.000000
# 3 -0.003387 0.005565 0.012565 0.000000 -0.009882 0.000000
# 4 0.000000 0.000000 0.000000 0.432105 0.000000 -0.055016
# 5 0.029523 -0.001256 -0.009882 0.000000 -0.016731 0.000000
# 6 0.000000 0.000000 0.000000 -0.055016 0.000000 0.044337
#
#
# Mechanical properties :
#
#
# Convention : Reuss Voigt Hill
#
# Bulk Modulus (GPa) = 37.67038 33.41206 35.54122
# Shear Modulus (GPa) = 8.95458 16.43086 12.69272
#
# Velocity S-wave (km/s) = 1.94653 2.63675 2.31748
# Velocity P-wave (km/s) = 4.58166 4.83815 4.71165
#
# Compressibility (1/GPa) = 0.02654606
#
# Stress axis : x y z
#
# Youngs Moduli (GPa) = -486.24442 20.97689 79.58829
#
# Poissons Ratio (x) = 0.37747 0.26959
# Poissons Ratio (y) = -8.74966 -0.44290
# Poissons Ratio (z) = -1.64704 -0.11673
#
# Static dielectric constant tensor:
#      x y z
#    x 2.023680 0.000000 -0.197500 
#    y 0.000000 1.955450 0.000000 
#    z -0.197500 0.000000 2.252890 
# 
# From -- ./inp_files/205785.got.cif
#   From: 2010.05.17/outbox.cif.g08.bks.cpg/sg15_103_cif.got.tgz:205785.got - 2010.06.03 18:47:42.
