data_PCOD9285470
_publ_section_title
;
Structure prediction by ZEFSAII (Michael W. Deem and Ramdas Pophale) SiO2 
 PCOD9285470
Probable space group: C 2/C
;
_chemical_formula_sum "Si O2"
_cell_formula_units_Z 56
_cell_length_a 23.970767
_cell_length_b 5.460430
_cell_length_c 19.859607
_cell_angle_alpha 90.000000
_cell_angle_beta 116.378992
_cell_angle_gamma 90.000000
_cell_volume 2328.770607
_symmetry_space_group_name_H-M "C 2/C"
_symmetry_group_IT_number 15
_symmetry_cell_setting 'monoclinic'
loop_
_space_group_symop_operation_xyz
x,y,z
-x,y,1/2-z
-x,-y,-z
x,-y,1/2+z
1/2+x,1/2+y,z
1/2-x,1/2+y,1/2-z
1/2-x,1/2-y,-z
1/2+x,1/2-y,1/2+z
loop_
_atom_site_type_symbol
_atom_site_label
_atom_site_fract_x
_atom_site_fract_y
_atom_site_fract_z
Si Si1 0.005661 0.532580 0.103519
Si Si2 0.293013 0.869405 0.211366
Si Si3 0.056622 0.171362 0.513365
Si Si4 0.608490 0.729263 0.898401
Si Si5 0.601772 0.228285 0.243836
Si Si6 0.683809 0.754426 0.427270
Si Si7 0.154377 0.023478 0.156002
O O1 0.049532 0.600343 0.063167
O O2 0.052332 0.528290 0.191263
O O3 0.952486 0.733679 0.089260
O O4 0.963856 0.295906 0.066950
O O5 0.307458 0.726013 0.149495
O O6 0.219502 0.882597 0.181768
O O7 0.322540 0.773120 0.297092
O O8 0.328115 0.123147 0.216316
O O9 0.117841 0.021337 0.567111
O O10 0.000000 0.000000 0.500000
O O11 0.584910 0.696004 0.809153
O O12 0.647519 0.485686 0.933258
O O13 0.649355 0.983003 0.922043
O O14 0.606664 0.427337 0.187735
O O15 0.750000 0.750000 0.500000
#
# Coordination Sequence:
#
# PCOD9285470 Si02
#       7
#     8   8   8   8   8   8   8
#     4  10  23  41  65  94 131 178 225 287 354 413
#     4  11  22  39  66  95 133 178 234 283 354 412
#     4  10  23  41  62  96 133 171 229 288 349 422
#     4  11  24  44  69  97 137 178 234 276 352 413
#     4  10  21  42  61  96 131 170 229 286 336 418
#     4  11  26  45  66 101 139 181 228 289 341 422
#     4  11  21  38  65  92 129 174 227 282 346 418
#
# _framework density 24.047025000000001
#
# number of rings (size 3 to 8) (size 9 to 14) (size 15 to 20)
#    0.000    1.429    2.857    1.714    4.000    0.000 
#    0.000    1.429    0.000    0.000    0.000    0.000 
#    0.000    0.000    0.000    0.000    0.000    0.000 
#
# Total GULP energy -156224.319324 kJ/mol
# GULP energy per Si atom -5579.439976 kJ/mol
# Density = 2.399229 g / cm^3
# Si number density = 24.047025 Si / 1000 Ang^3
#
#
#
# Elastic Constant Matrix: (Units=GPa)
#
#
# Indices 1 2 3 4 5 6 
#
# 1 100.2779 27.9497 26.5929 -0.0001 7.2004 0.0001
# 2 27.9497 78.8543 11.4875 -0.0006 1.8294 0.0009
# 3 26.5929 11.4875 99.2296 -0.0001 21.9556 0.0001
# 4 -0.0001 -0.0006 -0.0001 27.9484 0.0000 0.1504
# 5 7.2004 1.8294 21.9556 0.0000 47.2022 -0.0001
# 6 0.0001 0.0009 0.0001 0.1504 -0.0001 38.3071
#
#
#
# Elastic Compliance Matrix: (Units=1/GPa)
#
#
# Indices 1 2 3 4 5 6 
#
# 1 0.011749 -0.003773 -0.002617 0.000000 -0.000429 0.000000
# 2 -0.003773 0.014113 -0.000701 0.000000 0.000355 0.000000
# 3 -0.002617 -0.000701 0.012001 0.000000 -0.005156 0.000000
# 4 0.000000 0.000000 0.000000 0.035781 0.000000 -0.000140
# 5 -0.000429 0.000355 -0.005156 0.000000 0.023635 0.000000
# 6 0.000000 0.000000 0.000000 -0.000140 0.000000 0.026105
#
#
# Mechanical properties :
#
#
# Convention : Reuss Voigt Hill
#
# Bulk Modulus (GPa) = 42.22939 45.60243 43.91591
# Shear Modulus (GPa) = 34.37379 36.84701 35.61040
#
# Velocity S-wave (km/s) = 3.78490 3.91869 3.85238
# Velocity P-wave (km/s) = 6.05804 6.28330 6.17170
#
# Compressibility (1/GPa) = 0.02368019
#
# Stress axis : x y z
#
# Youngs Moduli (GPa) = 85.11574 70.85720 83.32728
#
# Poissons Ratio (x) = 0.26735 0.21806
# Poissons Ratio (y) = 0.32115 0.05842
# Poissons Ratio (z) = 0.22274 0.04968
#
# Static dielectric constant tensor:
#      x y z
#    x 1.939980 0.000000 -0.078910 
#    y 0.000000 2.517110 0.000000 
#    z -0.078910 0.000000 2.005800 
# 
# From -- ./inp_files/254384.got.cif
#   From: 2010.05.17/outbox.cif.g08.bks.cpg/sg15_128_cif.got.tgz:254384.got - 2010.06.03 18:47:42.
