data_PCOD9285700
_publ_section_title
;
Structure prediction by ZEFSAII (Michael W. Deem and Ramdas Pophale) SiO2 
 PCOD9285700
Probable space group: C 2/C
;
_chemical_formula_sum "Si O2"
_cell_formula_units_Z 44
_cell_length_a 7.551481
_cell_length_b 29.959498
_cell_length_c 8.325172
_cell_angle_alpha 90.000000
_cell_angle_beta 67.085985
_cell_angle_gamma 90.000000
_cell_volume 1734.850439
_symmetry_space_group_name_H-M "C 2/C"
_symmetry_group_IT_number 15
_symmetry_cell_setting 'monoclinic'
loop_
_space_group_symop_operation_xyz
x,y,z
-x,y,1/2-z
-x,-y,-z
x,-y,1/2+z
1/2+x,1/2+y,z
1/2-x,1/2+y,1/2-z
1/2-x,1/2-y,-z
1/2+x,1/2-y,1/2+z
loop_
_atom_site_type_symbol
_atom_site_label
_atom_site_fract_x
_atom_site_fract_y
_atom_site_fract_z
Si Si1 0.000000 0.276626 0.750000
Si Si2 0.726031 0.626124 0.926180
Si Si3 0.673740 0.050054 0.066243
Si Si4 0.233328 0.715943 0.648302
Si Si5 0.095817 0.358774 0.491124
Si Si6 0.324838 0.532411 0.689494
O O1 0.169231 0.242884 0.741563
O O2 0.072644 0.311952 0.588253
O O3 0.632956 0.674730 0.970017
O O4 0.801434 0.638110 0.717611
O O5 0.659032 0.575686 0.929492
O O6 0.882010 0.625389 0.014216
O O7 0.500000 0.045786 0.250000
O O8 0.809572 0.012973 0.097691
O O9 0.707779 0.103419 0.052946
O O10 0.650908 0.038429 0.883338
O O11 0.250000 0.750000 0.500000
O O12 0.000000 0.707592 0.750000
O O13 0.500000 0.534574 0.750000
#
# Coordination Sequence:
#
# PCOD9285700 Si02
#       6
#     4   8   8   8   8   8
#     4  12  24  42  74 106 140 184 238 290 348 416
#     4  10  22  43  65  92 141 178 224 279 348 413
#     4  11  24  41  71  95 129 179 227 274 336 415
#     4  12  25  46  71 104 144 185 234 293 352 419
#     4  10  21  42  65  99 132 179 227 280 337 418
#     4  11  26  43  65 101 138 176 223 287 350 407
#
# _framework density 25.362418000000002
#
# number of rings (size 3 to 8) (size 9 to 14) (size 15 to 20)
#    0.000    1.091    4.545    1.091    8.909    2.909 
#    3.273    0.909    0.000    0.000    0.000    0.000 
#    0.000    0.000    0.000    0.000    0.000    0.000 
#
# Total GULP energy -122476.592570 kJ/mol
# GULP energy per Si atom -5567.117844 kJ/mol
# Density = 2.530469 g / cm^3
# Si number density = 25.362418 Si / 1000 Ang^3
#
#
#
# Elastic Constant Matrix: (Units=GPa)
#
#
# Indices 1 2 3 4 5 6 
#
# 1 57.2146 57.9005 3.1186 0.0000 15.7306 0.0000
# 2 57.9005 173.4929 -1.0536 0.0000 18.1597 0.0000
# 3 3.1186 -1.0536 53.0529 0.0000 1.6234 0.0000
# 4 0.0000 0.0000 0.0000 51.4154 0.0000 27.3854
# 5 15.7306 18.1597 1.6234 0.0000 29.3640 0.0000
# 6 0.0000 0.0000 0.0000 27.3854 0.0000 48.9990
#
#
#
# Elastic Compliance Matrix: (Units=1/GPa)
#
#
# Indices 1 2 3 4 5 6 
#
# 1 0.029128 -0.008667 -0.001574 0.000000 -0.010157 0.000000
# 2 -0.008667 0.008745 0.000708 0.000000 -0.000804 0.000000
# 3 -0.001574 0.000708 0.018975 0.000000 -0.000644 0.000000
# 4 0.000000 0.000000 0.000000 0.027693 0.000000 -0.015478
# 5 -0.010157 -0.000804 -0.000644 0.000000 0.040029 0.000000
# 6 0.000000 0.000000 0.000000 -0.015478 0.000000 0.029059
#
#
# Mechanical properties :
#
#
# Convention : Reuss Voigt Hill
#
# Bulk Modulus (GPa) = 26.46776 44.85459 35.66118
# Shear Modulus (GPa) = 26.98478 40.87535 33.93006
#
# Velocity S-wave (km/s) = 3.26539 4.01889 3.66157
# Velocity P-wave (km/s) = 4.96744 6.26571 5.65397
#
# Compressibility (1/GPa) = 0.03778181
#
# Stress axis : x y z
#
# Youngs Moduli (GPa) = 34.33174 114.35151 52.69993
#
# Poissons Ratio (x) = 0.99112 0.08292
# Poissons Ratio (y) = 0.29756 -0.03730
# Poissons Ratio (z) = 0.05402 -0.08093
#
# Static dielectric constant tensor:
#      x y z
#    x 2.293530 0.000000 -0.156770 
#    y 0.000000 2.547760 0.000000 
#    z -0.156770 0.000000 2.180000 
# 
# From -- ./inp_files/25443.got.cif
#   From: 2010.05.17/outbox.cif.g08.bks.cpg/sg15_13_cif.got.tgz:25443.got - 2010.06.03 18:47:42.
