data_PCOD9285318
_publ_section_title
;
Structure prediction by ZEFSAII (Michael W. Deem and Ramdas Pophale) SiO2 
 PCOD9285318
Probable space group: C 2/C
;
_chemical_formula_sum "Si O2"
_cell_formula_units_Z 44
_cell_length_a 5.688714
_cell_length_b 19.282597
_cell_length_c 18.418279
_cell_angle_alpha 90.000000
_cell_angle_beta 73.305558
_cell_angle_gamma 90.000000
_cell_volume 1935.202167
_symmetry_space_group_name_H-M "C 2/C"
_symmetry_group_IT_number 15
_symmetry_cell_setting 'monoclinic'
loop_
_space_group_symop_operation_xyz
x,y,z
-x,y,1/2-z
-x,-y,-z
x,-y,1/2+z
1/2+x,1/2+y,z
1/2-x,1/2+y,1/2-z
1/2-x,1/2-y,-z
1/2+x,1/2-y,1/2+z
loop_
_atom_site_type_symbol
_atom_site_label
_atom_site_fract_x
_atom_site_fract_y
_atom_site_fract_z
Si Si1 0.371559 0.957325 0.434880
Si Si2 0.499707 0.286953 0.953577
Si Si3 0.000000 0.005288 0.750000
Si Si4 0.481846 0.433390 0.598029
Si Si5 0.759773 0.621705 0.798486
Si Si6 0.786377 0.153921 0.913430
O O1 0.200640 0.949587 0.521145
O O2 0.291475 0.907462 0.376773
O O3 0.633598 0.918854 0.430360
O O4 0.273306 0.031724 0.410368
O O5 0.506977 0.350712 0.898173
O O6 0.631270 0.221133 0.908352
O O7 0.250000 0.250000 0.000000
O O8 0.615970 0.323517 0.015286
O O9 0.228248 0.055811 0.747703
O O10 0.036021 0.964106 0.672577
O O11 0.000000 0.660694 0.750000
O O12 0.504934 0.653831 0.666327
#
# Coordination Sequence:
#
# PCOD9285318 Si02
#       6
#     8   8   4   8   8   8
#     4  10  21  41  70 104 132 182 247 293 360 436
#     4  11  22  42  70 108 144 181 240 297 360 447
#     4  10  24  42  70  98 138 184 226 300 374 424
#     4  10  21  44  70 105 144 182 235 306 363 438
#     4  11  22  43  65 103 137 179 236 302 353 431
#     4  11  22  40  74 103 132 196 239 300 361 446
#
# _framework density 22.736644999999999
#
# number of rings (size 3 to 8) (size 9 to 14) (size 15 to 20)
#    0.000    1.455    3.636    1.091    0.000    0.727 
#    6.545    0.000   24.000    0.000    9.455    0.000 
#    0.000    0.000    0.000    0.000    0.000    0.000 
#
# Total GULP energy -122527.581715 kJ/mol
# GULP energy per Si atom -5569.435532 kJ/mol
# Density = 2.268490 g / cm^3
# Si number density = 22.736645 Si / 1000 Ang^3
#
#
#
# Elastic Constant Matrix: (Units=GPa)
#
#
# Indices 1 2 3 4 5 6 
#
# 1 118.7813 78.0540 58.3358 0.0000 -27.7986 0.0000
# 2 78.0540 145.6394 48.3520 0.0000 -19.3947 0.0000
# 3 58.3358 48.3520 144.0374 0.0000 -7.4504 0.0000
# 4 0.0000 0.0000 0.0000 35.5816 0.0000 -2.9476
# 5 -27.7986 -19.3947 -7.4504 0.0000 54.2637 0.0000
# 6 0.0000 0.0000 0.0000 -2.9476 0.0000 33.8466
#
#
#
# Elastic Compliance Matrix: (Units=1/GPa)
#
#
# Indices 1 2 3 4 5 6 
#
# 1 0.015862 -0.006480 -0.003977 0.000000 0.005264 0.000000
# 2 -0.006480 0.010704 -0.000950 0.000000 0.000376 0.000000
# 3 -0.003977 -0.000950 0.008812 0.000000 -0.001167 0.000000
# 4 0.000000 0.000000 0.000000 0.028309 0.000000 0.002465
# 5 0.005264 0.000376 -0.001167 0.000000 0.021099 0.000000
# 6 0.000000 0.000000 0.000000 0.002465 0.000000 0.029760
#
#
# Mechanical properties :
#
#
# Convention : Reuss Voigt Hill
#
# Bulk Modulus (GPa) = 79.58085 86.43796 83.00940
# Shear Modulus (GPa) = 35.32425 39.65280 37.48852
#
# Velocity S-wave (km/s) = 3.94588 4.18066 4.06497
# Velocity P-wave (km/s) = 7.47242 7.83603 7.65639
#
# Compressibility (1/GPa) = 0.01256584
#
# Stress axis : x y z
#
# Youngs Moduli (GPa) = 63.04492 93.41989 113.48672
#
# Poissons Ratio (x) = 0.60533 0.45129
# Poissons Ratio (y) = 0.40851 0.10776
# Poissons Ratio (z) = 0.25071 0.08871
#
# Static dielectric constant tensor:
#      x y z
#    x 1.976430 0.000000 0.479470 
#    y 0.000000 1.971680 0.000000 
#    z 0.479470 0.000000 -0.000690 
# 
# From -- ./inp_files/191262.got.cif
#   From: 2010.05.17/outbox.cif.g08.bks.cpg/sg15_96_cif.got.tgz:191262.got - 2010.06.03 18:47:42.
