data_PCOD9285447
_publ_section_title
;
Structure prediction by ZEFSAII (Michael W. Deem and Ramdas Pophale) SiO2 
 PCOD9285447
Probable space group: C 2/C
;
_chemical_formula_sum "Si O2"
_cell_formula_units_Z 60
_cell_length_a 8.829153
_cell_length_b 26.030475
_cell_length_c 12.570119
_cell_angle_alpha 90.000000
_cell_angle_beta 86.583072
_cell_angle_gamma 90.000000
_cell_volume 2883.817522
_symmetry_space_group_name_H-M "C 2/C"
_symmetry_group_IT_number 15
_symmetry_cell_setting 'monoclinic'
loop_
_space_group_symop_operation_xyz
x,y,z
-x,y,1/2-z
-x,-y,-z
x,-y,1/2+z
1/2+x,1/2+y,z
1/2-x,1/2+y,1/2-z
1/2-x,1/2-y,-z
1/2+x,1/2-y,1/2+z
loop_
_atom_site_type_symbol
_atom_site_label
_atom_site_fract_x
_atom_site_fract_y
_atom_site_fract_z
Si Si1 0.752316 0.125106 0.408627
Si Si2 0.307749 0.323657 0.552407
Si Si3 0.000000 0.165569 0.250000
Si Si4 0.671330 0.406151 0.252059
Si Si5 0.599039 0.685090 0.904023
Si Si6 0.671442 0.072786 0.980855
Si Si7 0.175079 0.541511 0.553049
Si Si8 0.513676 0.794178 0.874815
O O1 0.867097 0.133457 0.308981
O O2 0.809505 0.158688 0.505517
O O3 0.756413 0.067500 0.448724
O O4 0.592142 0.150958 0.389094
O O5 0.410450 0.309158 0.652447
O O6 0.422495 0.321248 0.447361
O O7 0.238792 0.381713 0.552221
O O8 0.150502 0.291964 0.562145
O O9 0.500000 0.425857 0.250000
O O10 0.650551 0.347323 0.298168
O O11 0.749776 0.415508 0.136008
O O12 0.759523 0.436733 0.340252
O O13 0.619552 0.746139 0.901162
O O14 0.494654 0.064355 0.955330
O O15 0.697619 0.018871 0.039568
O O16 0.500000 0.787835 0.750000
#
# Coordination Sequence:
#
# PCOD9285447 Si02
#       8
#     8   8   4   8   8   8   8   8
#     4  10  21  42  61  88 126 163 208 264 316 376
#     4  11  22  41  64  91 131 166 214 261 318 375
#     4  10  22  40  56  90 128 162 198 266 316 366
#     4  11  22  43  64  96 131 161 212 263 316 379
#     4  10  23  41  64  89 132 165 204 271 315 374
#     4  11  23  43  67  93 126 172 214 260 319 377
#     4  10  24  43  66  92 127 169 212 262 317 378
#     4  12  22  38  66  92 121 170 218 252 321 377
#
# _framework density 20.805755999999999
#
# number of rings (size 3 to 8) (size 9 to 14) (size 15 to 20)
#    0.000    1.333    4.000    1.600    0.000    1.600 
#    2.400    1.333    0.000    0.000    0.000    0.000 
#    0.000    0.000    0.000    0.000    0.000    0.000 
#
# Total GULP energy -167061.888062 kJ/mol
# GULP energy per Si atom -5568.729602 kJ/mol
# Density = 2.075840 g / cm^3
# Si number density = 20.805756 Si / 1000 Ang^3
#
#
#
# Elastic Constant Matrix: (Units=GPa)
#
#
# Indices 1 2 3 4 5 6 
#
# 1 52.0747 3.3409 9.4598 0.0000 -3.6144 0.0000
# 2 3.3409 81.0315 0.1341 0.0000 14.3914 0.0000
# 3 9.4598 0.1341 70.8116 0.0000 -7.1969 0.0000
# 4 0.0000 0.0000 0.0000 -17.7220 0.0000 5.1519
# 5 -3.6144 14.3914 -7.1969 0.0000 29.6038 0.0000
# 6 0.0000 0.0000 0.0000 5.1519 0.0000 21.4640
#
#
#
# Elastic Compliance Matrix: (Units=1/GPa)
#
#
# Indices 1 2 3 4 5 6 
#
# 1 0.019891 -0.001252 -0.002406 0.000000 0.002452 0.000000
# 2 -0.001252 0.013621 -0.000561 0.000000 -0.006911 0.000000
# 3 -0.002406 -0.000561 0.014808 0.000000 0.003579 0.000000
# 4 0.000000 0.000000 0.000000 -0.052747 0.000000 0.012660
# 5 0.002452 -0.006911 0.003579 0.000000 0.038308 0.000000
# 6 0.000000 0.000000 0.000000 0.012660 0.000000 0.043551
#
#
# Mechanical properties :
#
#
# Convention : Reuss Voigt Hill
#
# Bulk Modulus (GPa) = 25.07318 25.53191 25.30255
# Shear Modulus (GPa) = 50.42204 19.40136 34.91170
#
# Velocity S-wave (km/s) = 4.92821 3.05700 4.10076
# Velocity P-wave (km/s) = 6.66785 4.97579 5.88298
#
# Compressibility (1/GPa) = 0.03988325
#
# Stress axis : x y z
#
# Youngs Moduli (GPa) = 50.27480 73.41724 67.53029
#
# Poissons Ratio (x) = 0.09189 0.16245
# Poissons Ratio (y) = 0.06292 0.03788
# Poissons Ratio (z) = 0.12094 0.04118
#
# Static dielectric constant tensor:
#      x y z
#    x 1.792840 0.000000 0.008040 
#    y 0.000000 1.772690 0.000000 
#    z 0.008040 0.000000 1.746570 
# 
# From -- ./inp_files/81367.got.cif
#   From: 2010.05.17/outbox.cif.g08.bks.cpg/sg15_41_cif.got.tgz:81367.got - 2010.06.03 18:47:42.
