data_PCOD9285743
_publ_section_title
;
Structure prediction by ZEFSAII (Michael W. Deem and Ramdas Pophale) SiO2 
 PCOD9285743
Probable space group: C 2/C
;
_chemical_formula_sum "Si O2"
_cell_formula_units_Z 40
_cell_length_a 10.787538
_cell_length_b 13.810175
_cell_length_c 15.375637
_cell_angle_alpha 90.000000
_cell_angle_beta 52.781490
_cell_angle_gamma 90.000000
_cell_volume 1824.106533
_symmetry_space_group_name_H-M "C 2/C"
_symmetry_group_IT_number 15
_symmetry_cell_setting 'monoclinic'
loop_
_space_group_symop_operation_xyz
x,y,z
-x,y,1/2-z
-x,-y,-z
x,-y,1/2+z
1/2+x,1/2+y,z
1/2-x,1/2+y,1/2-z
1/2-x,1/2-y,-z
1/2+x,1/2-y,1/2+z
loop_
_atom_site_type_symbol
_atom_site_label
_atom_site_fract_x
_atom_site_fract_y
_atom_site_fract_z
Si Si1 0.267533 0.410671 0.074306
Si Si2 0.395980 0.406957 0.611629
Si Si3 0.489448 0.900014 0.054847
Si Si4 0.257067 0.719679 0.739996
Si Si5 0.929250 0.765651 0.444927
O O1 0.292714 0.498884 0.133360
O O2 0.249273 0.315643 0.143068
O O3 0.119041 0.407811 0.074912
O O4 0.420180 0.419518 0.946476
O O5 0.318966 0.323644 0.703689
O O6 0.419867 0.361413 0.506010
O O7 0.332249 0.862669 0.167872
O O8 0.499775 0.818993 0.975424
O O9 0.500000 0.000000 0.000000
O O10 0.440276 0.722975 0.683129
O O11 0.750000 0.750000 0.500000
#
# Coordination Sequence:
#
# PCOD9285743 Si02
#       5
#     8   8   8   8   8
#     4  10  21  42  66  92 140 175 222 279 334 410
#     4   9  21  40  65  94 129 178 220 274 340 399
#     4  11  24  39  63 102 135 174 228 280 337 402
#     4  10  23  40  68  98 127 178 229 272 346 403
#     4  10  22  42  64  92 135 177 226 282 339 404
#
# _framework density 21.928543999999999
#
# number of rings (size 3 to 8) (size 9 to 14) (size 15 to 20)
#    0.000    2.000    0.000    1.800    2.800   12.000 
#    3.600    0.000    0.000    0.000    0.000    0.000 
#    0.000    0.000    0.000    0.000    0.000    0.000 
#
# Total GULP energy -111335.916152 kJ/mol
# GULP energy per Si atom -5566.795808 kJ/mol
# Density = 2.187863 g / cm^3
# Si number density = 21.928544 Si / 1000 Ang^3
#
#
#
# Elastic Constant Matrix: (Units=GPa)
#
#
# Indices 1 2 3 4 5 6 
#
# 1 112.7374 57.6977 99.3233 0.0000 -15.7784 0.0000
# 2 57.6977 144.1578 69.8074 0.0000 -10.9988 0.0000
# 3 99.3233 69.8074 105.5369 0.0000 -29.9187 0.0000
# 4 0.0000 0.0000 0.0000 35.6067 0.0000 -0.0281
# 5 -15.7784 -10.9988 -29.9187 0.0000 37.2675 0.0000
# 6 0.0000 0.0000 0.0000 -0.0281 0.0000 16.5629
#
#
#
# Elastic Compliance Matrix: (Units=1/GPa)
#
#
# Indices 1 2 3 4 5 6 
#
# 1 0.080112 0.009903 -0.092569 0.000000 -0.037475 0.000000
# 2 0.009903 0.011717 -0.019292 0.000000 -0.007837 0.000000
# 3 -0.092569 -0.019292 0.125102 0.000000 0.055547 0.000000
# 4 0.000000 0.000000 0.000000 0.028085 0.000000 0.000048
# 5 -0.037475 -0.007837 0.055547 0.000000 0.053248 0.000000
# 6 0.000000 0.000000 0.000000 0.000048 0.000000 0.060376
#
#
# Mechanical properties :
#
#
# Convention : Reuss Voigt Hill
#
# Bulk Modulus (GPa) = 76.83486 90.67652 83.75569
# Shear Modulus (GPa) = 8.82001 26.92768 17.87385
#
# Velocity S-wave (km/s) = 2.00771 3.50805 2.85808
# Velocity P-wave (km/s) = 6.36312 7.60587 7.01208
#
# Compressibility (1/GPa) = 0.01301493
#
# Stress axis : x y z
#
# Youngs Moduli (GPa) = 12.48258 85.34334 7.99350
#
# Poissons Ratio (x) = -0.84513 0.73995
# Poissons Ratio (y) = -0.12361 0.15421
# Poissons Ratio (z) = 1.15550 1.64643
#
# Static dielectric constant tensor:
#      x y z
#    x 2.044500 0.000000 -0.105390 
#    y 0.000000 2.069440 0.000000 
#    z -0.105390 0.000000 1.901120 
# 
# From -- ./inp_files/143300.got.cif
#   From: 2010.05.17/outbox.cif.g08.bks.cpg/sg15_72_cif.got.tgz:143300.got - 2010.06.03 18:47:42.
