data_PCOD9285940
_publ_section_title
;
Structure prediction by ZEFSAII (Michael W. Deem and Ramdas Pophale) SiO2 
 PCOD9285940
Probable space group: C 2/C
;
_chemical_formula_sum "Si O2"
_cell_formula_units_Z 44
_cell_length_a 25.836394
_cell_length_b 10.885515
_cell_length_c 13.873921
_cell_angle_alpha 90.000000
_cell_angle_beta 29.636873
_cell_angle_gamma 90.000000
_cell_volume 1929.512350
_symmetry_space_group_name_H-M "C 2/C"
_symmetry_group_IT_number 15
_symmetry_cell_setting 'monoclinic'
loop_
_space_group_symop_operation_xyz
x,y,z
-x,y,1/2-z
-x,-y,-z
x,-y,1/2+z
1/2+x,1/2+y,z
1/2-x,1/2+y,1/2-z
1/2-x,1/2-y,-z
1/2+x,1/2-y,1/2+z
loop_
_atom_site_type_symbol
_atom_site_label
_atom_site_fract_x
_atom_site_fract_y
_atom_site_fract_z
Si Si1 0.587608 0.217501 0.801196
Si Si2 0.445324 0.756526 0.936525
Si Si3 0.000000 0.402260 0.250000
Si Si4 0.207655 0.426278 0.392328
Si Si5 0.099208 0.004501 0.048593
Si Si6 0.716569 0.541325 0.043567
O O1 0.529169 0.174175 0.799110
O O2 0.634220 0.356618 0.718710
O O3 0.687186 0.126470 0.646333
O O4 0.526103 0.202335 0.002230
O O5 0.500000 0.802111 0.750000
O O6 0.451833 0.611500 0.920765
O O7 0.329356 0.801109 0.098272
O O8 0.892952 0.479246 0.452334
O O9 0.240263 0.443554 0.450153
O O10 0.315784 0.449149 0.162565
O O11 0.000000 0.079801 0.250000
O O12 0.166123 0.974312 0.034940
#
# Coordination Sequence:
#
# PCOD9285940 Si02
#       6
#     8   8   4   8   8   8
#     4  10  21  42  68  98 135 173 226 275 329 402
#     4  11  23  43  68 100 137 173 215 283 337 392
#     4  10  24  38  72 106 126 180 230 276 332 392
#     4  11  22  43  68  99 134 171 227 275 334 396
#     4  11  25  43  65  97 138 178 217 272 341 393
#     4  10  22  41  67  96 134 178 220 277 329 398
#
# _framework density 22.803688999999999
#
# number of rings (size 3 to 8) (size 9 to 14) (size 15 to 20)
#    0.000    1.455    4.545    0.000    1.273    3.636 
#    0.000    0.000    0.000    0.000    0.000    0.000 
#    0.000    0.000    0.000    0.000    0.000    0.000 
#
# Total GULP energy -122490.877923 kJ/mol
# GULP energy per Si atom -5567.767178 kJ/mol
# Density = 2.275179 g / cm^3
# Si number density = 22.803689 Si / 1000 Ang^3
#
#
#
# Elastic Constant Matrix: (Units=GPa)
#
#
# Indices 1 2 3 4 5 6 
#
# 1 114.3452 -6.1029 17.1788 0.0000 20.6161 0.0000
# 2 -6.1029 26.7864 0.7853 0.0000 8.7292 0.0000
# 3 17.1788 0.7853 97.2547 0.0000 32.5354 0.0000
# 4 0.0000 0.0000 0.0000 -19.3770 0.0000 -13.8106
# 5 20.6161 8.7292 32.5354 0.0000 34.0295 0.0000
# 6 0.0000 0.0000 0.0000 -13.8106 0.0000 10.1635
#
#
#
# Elastic Compliance Matrix: (Units=1/GPa)
#
#
# Indices 1 2 3 4 5 6 
#
# 1 0.010417 0.005138 0.000986 0.000000 -0.008572 0.000000
# 2 0.005138 0.044758 0.005313 0.000000 -0.019673 0.000000
# 3 0.000986 0.005313 0.015763 0.000000 -0.017031 0.000000
# 4 0.000000 0.000000 0.000000 -0.026217 0.000000 -0.035625
# 5 -0.008572 -0.019673 -0.017031 0.000000 0.055909 0.000000
# 6 0.000000 0.000000 0.000000 -0.035625 0.000000 0.049983
#
#
# Mechanical properties :
#
#
# Convention : Reuss Voigt Hill
#
# Bulk Modulus (GPa) = 10.65977 29.12317 19.89147
# Shear Modulus (GPa) = 31.44446 20.06487 25.75467
#
# Velocity S-wave (km/s) = 3.71741 2.96952 3.36431
# Velocity P-wave (km/s) = 4.80731 4.95544 4.88194
#
# Compressibility (1/GPa) = 0.09381066
#
# Stress axis : x y z
#
# Youngs Moduli (GPa) = 95.99726 22.34217 63.44122
#
# Poissons Ratio (x) = -0.11479 -0.06255
# Poissons Ratio (y) = -0.49321 -0.33703
# Poissons Ratio (z) = -0.09465 -0.11869
#
# Static dielectric constant tensor:
#      x y z
#    x 1.810730 0.000000 0.001370 
#    y 0.000000 1.870930 0.000000 
#    z 0.001370 0.000000 2.138580 
# 
# From -- ./inp_files/151776.got.cif
#   From: 2010.05.17/outbox.cif.g08.bks.cpg/sg15_76_cif.got.tgz:151776.got - 2010.06.03 18:47:42.
