data_PCOD9285467
_publ_section_title
;
Structure prediction by ZEFSAII (Michael W. Deem and Ramdas Pophale) SiO2 
 PCOD9285467
Probable space group: C 2/C
;
_chemical_formula_sum "Si O2"
_cell_formula_units_Z 56
_cell_length_a 15.479723
_cell_length_b 7.784969
_cell_length_c 26.084214
_cell_angle_alpha 90.000000
_cell_angle_beta 46.769849
_cell_angle_gamma 90.000000
_cell_volume 2290.297706
_symmetry_space_group_name_H-M "C 2/C"
_symmetry_group_IT_number 15
_symmetry_cell_setting 'monoclinic'
loop_
_space_group_symop_operation_xyz
x,y,z
-x,y,1/2-z
-x,-y,-z
x,-y,1/2+z
1/2+x,1/2+y,z
1/2-x,1/2+y,1/2-z
1/2-x,1/2-y,-z
1/2+x,1/2-y,1/2+z
loop_
_atom_site_type_symbol
_atom_site_label
_atom_site_fract_x
_atom_site_fract_y
_atom_site_fract_z
Si Si1 0.319930 0.747471 0.244056
Si Si2 0.733634 0.731378 0.626583
Si Si3 0.989036 0.415180 0.059584
Si Si4 0.099022 0.717414 0.088977
Si Si5 0.628624 0.637018 0.174435
Si Si6 0.049347 0.108780 0.099897
Si Si7 0.384908 0.879140 0.736323
O O1 0.287445 0.713219 0.316391
O O2 0.417190 0.620542 0.179410
O O3 0.200942 0.739798 0.261442
O O4 0.378819 0.931712 0.215912
O O5 0.854997 0.666634 0.605133
O O6 0.726034 0.777159 0.568556
O O7 0.650951 0.564610 0.667433
O O8 0.676203 0.881928 0.683710
O O9 0.055929 0.242481 0.050911
O O10 0.048344 0.567064 0.072059
O O11 0.000000 0.500000 0.000000
O O12 0.013284 0.691212 0.173492
O O13 0.076512 0.910625 0.077856
O O14 0.500000 0.684304 0.250000
O O15 0.631687 0.678281 0.113378
#
# Coordination Sequence:
#
# PCOD9285467 Si02
#       7
#     8   8   8   8   8   8   8
#     4  11  20  31  59  99 142 175 206 261 340 415
#     4  11  23  41  63 100 130 174 225 267 345 410
#     4  12  27  48  68  93 133 178 234 285 327 400
#     4  11  24  42  70  94 136 174 214 285 346 399
#     4   9  19  35  60  91 136 167 204 271 328 405
#     4  10  21  42  61  95 128 169 225 266 328 403
#     4  12  20  33  62 100 138 171 210 268 348 413
#
# _framework density 24.450970999999999
#
# number of rings (size 3 to 8) (size 9 to 14) (size 15 to 20)
#    0.000    1.143    2.857    5.571    2.000    2.286 
#    0.000    2.857    0.000    0.000    0.000    0.000 
#    0.000    0.000    0.000    0.000    0.000    0.000 
#
# Total GULP energy -155976.148213 kJ/mol
# GULP energy per Si atom -5570.576722 kJ/mol
# Density = 2.439532 g / cm^3
# Si number density = 24.450971 Si / 1000 Ang^3
#
#
#
# Elastic Constant Matrix: (Units=GPa)
#
#
# Indices 1 2 3 4 5 6 
#
# 1 144.7090 50.6149 31.3643 -0.0001 30.9654 -0.0002
# 2 50.6149 149.0785 36.7612 -0.0001 13.4995 -0.0004
# 3 31.3643 36.7612 38.1443 0.0001 8.8718 -0.0002
# 4 -0.0001 -0.0001 0.0001 38.9785 0.0001 31.1719
# 5 30.9654 13.4995 8.8718 0.0001 31.7582 -0.0001
# 6 -0.0002 -0.0004 -0.0002 31.1719 -0.0001 70.0645
#
#
#
# Elastic Compliance Matrix: (Units=1/GPa)
#
#
# Indices 1 2 3 4 5 6 
#
# 1 0.010240 -0.001492 -0.005141 0.000000 -0.007914 0.000000
# 2 -0.001492 0.009081 -0.007449 0.000000 -0.000324 0.000000
# 3 -0.005141 -0.007449 0.038202 0.000000 -0.002493 0.000000
# 4 0.000000 0.000000 0.000000 0.039825 0.000000 -0.017718
# 5 -0.007914 -0.000324 -0.002493 0.000000 0.040038 0.000000
# 6 0.000000 0.000000 0.000000 -0.017718 0.000000 0.022155
#
#
# Mechanical properties :
#
#
# Convention : Reuss Voigt Hill
#
# Bulk Modulus (GPa) = 34.06200 63.26807 48.66503
# Shear Modulus (GPa) = 25.31739 42.37302 33.84520
#
# Velocity S-wave (km/s) = 3.22131 4.16742 3.72453
# Velocity P-wave (km/s) = 5.27226 7.00630 6.20020
#
# Compressibility (1/GPa) = 0.02935823
#
# Stress axis : x y z
#
# Youngs Moduli (GPa) = 97.65496 110.12305 26.17643
#
# Poissons Ratio (x) = 0.16434 0.13457
# Poissons Ratio (y) = 0.14574 0.19499
# Poissons Ratio (z) = 0.50205 0.82031
#
# Static dielectric constant tensor:
#      x y z
#    x 2.037550 0.000000 -0.031290 
#    y 0.000000 1.886840 0.000000 
#    z -0.031290 0.000000 1.976060 
# 
# From -- ./inp_files/295058.got.cif
#   From: 2010.05.17/outbox.cif.g08.bks.cpg/sg15_148_cif.got.tgz:295058.got - 2010.06.03 18:47:42.
