data_PCOD9285269
_publ_section_title
;
Structure prediction by ZEFSAII (Michael W. Deem and Ramdas Pophale) SiO2 
 PCOD9285269
Probable space group: C 2/C
;
_chemical_formula_sum "Si O2"
_cell_formula_units_Z 48
_cell_length_a 14.136363
_cell_length_b 9.826372
_cell_length_c 13.534021
_cell_angle_alpha 90.000000
_cell_angle_beta 77.220920
_cell_angle_gamma 90.000000
_cell_volume 1833.432264
_symmetry_space_group_name_H-M "C 2/C"
_symmetry_group_IT_number 15
_symmetry_cell_setting 'monoclinic'
loop_
_space_group_symop_operation_xyz
x,y,z
-x,y,1/2-z
-x,-y,-z
x,-y,1/2+z
1/2+x,1/2+y,z
1/2-x,1/2+y,1/2-z
1/2-x,1/2-y,-z
1/2+x,1/2-y,1/2+z
loop_
_atom_site_type_symbol
_atom_site_label
_atom_site_fract_x
_atom_site_fract_y
_atom_site_fract_z
Si Si1 0.266414 0.069033 0.212223
Si Si2 0.291497 0.357755 0.125711
Si Si3 0.132750 0.956283 0.579367
Si Si4 0.453261 0.841036 0.582406
Si Si5 0.360312 0.737566 0.005031
Si Si6 0.006726 0.709369 0.859564
O O1 0.379709 0.061182 0.155787
O O2 0.193416 0.988797 0.157628
O O3 0.245634 0.997796 0.319758
O O4 0.209934 0.121071 0.991208
O O5 0.403149 0.306776 0.113938
O O6 0.241151 0.226345 0.188325
O O7 0.047631 0.855898 0.630249
O O8 0.103070 0.085297 0.522932
O O9 0.000000 0.655269 0.750000
O O10 0.566657 0.829813 0.578003
O O11 0.450876 0.865522 0.463879
O O12 0.389482 0.769798 0.111158
O O13 0.250000 0.750000 0.000000
#
# Coordination Sequence:
#
# PCOD9285269 Si02
#       6
#     8   8   8   8   8   8
#     4  10  21  41  69 110 148 197 245 317 382 458
#     4   9  21  39  70 104 150 192 252 307 383 449
#     4  11  22  38  70 108 148 185 258 316 375 457
#     4   7  20  40  68 107 149 187 250 318 363 458
#     4  10  22  42  69 107 153 201 242 320 390 446
#     4   9  20  38  72 103 142 194 262 310 374 451
#
# _framework density 26.180406000000001
#
# number of rings (size 3 to 8) (size 9 to 14) (size 15 to 20)
#    2.000    0.667    0.000    1.000    2.333    1.333 
#    0.000    0.833    0.000    0.000    4.333    0.000 
#    0.000    0.000    0.000    0.000    0.000    0.000 
#
# Total GULP energy -133782.604041 kJ/mol
# GULP energy per Si atom -5574.275168 kJ/mol
# Density = 2.612082 g / cm^3
# Si number density = 26.180406 Si / 1000 Ang^3
#
#
#
# Elastic Constant Matrix: (Units=GPa)
#
#
# Indices 1 2 3 4 5 6 
#
# 1 170.4197 5.0221 44.6649 0.0000 -11.5958 0.0000
# 2 5.0221 97.0045 17.3708 0.0000 -6.7205 0.0000
# 3 44.6649 17.3708 140.4614 0.0000 -9.9083 0.0000
# 4 0.0000 0.0000 0.0000 38.4980 0.0000 0.9017
# 5 -11.5958 -6.7205 -9.9083 0.0000 29.5263 0.0000
# 6 0.0000 0.0000 0.0000 0.9017 0.0000 16.5075
#
#
#
# Elastic Compliance Matrix: (Units=1/GPa)
#
#
# Indices 1 2 3 4 5 6 
#
# 1 0.006506 0.000146 -0.001951 0.000000 0.001934 0.000000
# 2 0.000146 0.010663 -0.001219 0.000000 0.002076 0.000000
# 3 -0.001951 -0.001219 0.008006 0.000000 0.001643 0.000000
# 4 0.000000 0.000000 0.000000 0.026009 0.000000 -0.001421
# 5 0.001934 0.002076 0.001643 0.000000 0.035651 0.000000
# 6 0.000000 0.000000 0.000000 -0.001421 0.000000 0.060656
#
#
# Mechanical properties :
#
#
# Convention : Reuss Voigt Hill
#
# Bulk Modulus (GPa) = 52.27431 60.22237 56.24834
# Shear Modulus (GPa) = 31.26662 39.62821 35.44741
#
# Velocity S-wave (km/s) = 3.45958 3.89480 3.68362
# Velocity P-wave (km/s) = 5.99738 6.57866 6.29473
#
# Compressibility (1/GPa) = 0.01912986
#
# Stress axis : x y z
#
# Youngs Moduli (GPa) = 153.69524 93.77970 124.90136
#
# Poissons Ratio (x) = -0.01373 0.24364
# Poissons Ratio (y) = -0.02251 0.15224
# Poissons Ratio (z) = 0.29980 0.11431
#
# Static dielectric constant tensor:
#      x y z
#    x 2.057300 0.000000 -0.048900 
#    y 0.000000 2.142740 0.000000 
#    z -0.048900 0.000000 2.061900 
# 
# From -- ./inp_files/167150.got.cif
#   From: 2010.05.17/outbox.cif.g08.bks.cpg/sg15_84_cif.got.tgz:167150.got - 2010.06.03 18:47:42.
