data_PCOD9285713
_publ_section_title
;
Structure prediction by ZEFSAII (Michael W. Deem and Ramdas Pophale) SiO2 
 PCOD9285713
Probable space group: C 2/C
;
_chemical_formula_sum "Si O2"
_cell_formula_units_Z 60
_cell_length_a 11.029038
_cell_length_b 9.165191
_cell_length_c 25.078870
_cell_angle_alpha 90.000000
_cell_angle_beta 92.283629
_cell_angle_gamma 90.000000
_cell_volume 2533.040145
_symmetry_space_group_name_H-M "C 2/C"
_symmetry_group_IT_number 15
_symmetry_cell_setting 'monoclinic'
loop_
_space_group_symop_operation_xyz
x,y,z
-x,y,1/2-z
-x,-y,-z
x,-y,1/2+z
1/2+x,1/2+y,z
1/2-x,1/2+y,1/2-z
1/2-x,1/2-y,-z
1/2+x,1/2-y,1/2+z
loop_
_atom_site_type_symbol
_atom_site_label
_atom_site_fract_x
_atom_site_fract_y
_atom_site_fract_z
Si Si1 0.245673 0.659143 0.890811
Si Si2 0.498900 0.669516 0.552887
Si Si3 0.021424 0.156176 0.430793
Si Si4 0.124527 0.323022 0.151764
Si Si5 0.940029 0.582878 0.135027
Si Si6 0.000000 0.185900 0.250000
Si Si7 0.312955 0.466650 0.213256
Si Si8 0.374123 0.794754 0.790458
O O1 0.357228 0.644522 0.933360
O O2 0.183730 0.509760 0.868009
O O3 0.303538 0.750905 0.843663
O O4 0.136889 0.749642 0.915214
O O5 0.482022 0.695482 0.490059
O O6 0.444484 0.513697 0.568366
O O7 0.449571 0.801552 0.587589
O O8 0.912091 0.194598 0.388488
O O9 0.261194 0.377939 0.161990
O O10 0.044967 0.459873 0.130865
O O11 0.080850 0.278316 0.210711
O O12 0.989386 0.662912 0.189474
O O13 0.919801 0.083388 0.210258
O O14 0.357260 0.349499 0.256261
O O15 0.200029 0.565485 0.231593
#
# Coordination Sequence:
#
# PCOD9285713 Si02
#       8
#     8   8   8   8   8   4   8   8
#     4  10  21  42  66  88 128 172 203 261 327 374
#     4  10  22  42  67  97 132 159 217 269 312 388
#     4  10  22  42  67  96 129 172 207 266 328 376
#     4  10  23  41  65  90 129 169 211 257 322 376
#     4   9  21  40  63  95 124 165 213 258 314 381
#     4  12  24  42  66  86 126 170 206 264 320 378
#     4  11  22  41  61  89 123 167 212 261 311 373
#     4  10  22  42  60  89 128 162 214 263 308 379
#
# _framework density 23.686951000000001
#
# number of rings (size 3 to 8) (size 9 to 14) (size 15 to 20)
#    0.000    1.867    1.333    2.000    3.733    2.133 
#    4.800   10.667    0.000    0.000    0.000    0.000 
#    0.000    0.000    0.000    0.000    0.000    0.000 
#
# Total GULP energy -167853.393241 kJ/mol
# GULP energy per Si atom -5595.113108 kJ/mol
# Density = 2.363304 g / cm^3
# Si number density = 23.686951 Si / 1000 Ang^3
#
#
#
# Elastic Constant Matrix: (Units=GPa)
#
#
# Indices 1 2 3 4 5 6 
#
# 1 92.0049 41.1831 31.2893 0.0000 12.8158 0.0000
# 2 41.1831 119.9905 57.3136 0.0000 -9.4407 0.0000
# 3 31.2893 57.3136 90.8157 0.0000 7.4604 0.0000
# 4 0.0000 0.0000 0.0000 39.1470 0.0000 15.1594
# 5 12.8158 -9.4407 7.4604 0.0000 23.5000 0.0000
# 6 0.0000 0.0000 0.0000 15.1594 0.0000 37.1869
#
#
#
# Elastic Compliance Matrix: (Units=1/GPa)
#
#
# Indices 1 2 3 4 5 6 
#
# 1 0.015068 -0.005574 -0.000837 0.000000 -0.010191 0.000000
# 2 -0.005574 0.015382 -0.008773 0.000000 0.012004 0.000000
# 3 -0.000837 -0.008773 0.017546 0.000000 -0.008639 0.000000
# 4 0.000000 0.000000 0.000000 0.030333 0.000000 -0.012365
# 5 -0.010191 0.012004 -0.008639 0.000000 0.055676 0.000000
# 6 0.000000 0.000000 0.000000 -0.012365 0.000000 0.031932
#
#
# Mechanical properties :
#
#
# Convention : Reuss Voigt Hill
#
# Bulk Modulus (GPa) = 56.72647 62.48701 59.60674
# Shear Modulus (GPa) = 24.73030 31.50179 28.11605
#
# Velocity S-wave (km/s) = 3.23468 3.65077 3.44900
# Velocity P-wave (km/s) = 6.16046 6.64894 6.40935
#
# Compressibility (1/GPa) = 0.01762845
#
# Stress axis : x y z
#
# Youngs Moduli (GPa) = 66.36578 65.01031 56.99272
#
# Poissons Ratio (x) = 0.36236 0.04768
# Poissons Ratio (y) = 0.36991 0.50002
# Poissons Ratio (z) = 0.05553 0.57036
#
# Static dielectric constant tensor:
#      x y z
#    x 1.921400 0.000000 0.024490 
#    y 0.000000 1.900660 0.000000 
#    z 0.024490 0.000000 1.897180 
# 
# From -- ./inp_files/310025.got.cif
#   From: 2010.05.17/outbox.cif.g08.bks.cpg/sg15_156_cif.got.tgz:310025.got - 2010.06.03 18:47:42.
