data_PCOD9285857
_publ_section_title
;
Structure prediction by ZEFSAII (Michael W. Deem and Ramdas Pophale) SiO2 
 PCOD9285857
Probable space group: C 2/C
;
_chemical_formula_sum "Si O2"
_cell_formula_units_Z 44
_cell_length_a 20.267902
_cell_length_b 13.128593
_cell_length_c 8.221176
_cell_angle_alpha 90.000000
_cell_angle_beta 87.194100
_cell_angle_gamma 90.000000
_cell_volume 2184.942132
_symmetry_space_group_name_H-M "C 2/C"
_symmetry_group_IT_number 15
_symmetry_cell_setting 'monoclinic'
loop_
_space_group_symop_operation_xyz
x,y,z
-x,y,1/2-z
-x,-y,-z
x,-y,1/2+z
1/2+x,1/2+y,z
1/2-x,1/2+y,1/2-z
1/2-x,1/2-y,-z
1/2+x,1/2-y,1/2+z
loop_
_atom_site_type_symbol
_atom_site_label
_atom_site_fract_x
_atom_site_fract_y
_atom_site_fract_z
Si Si1 0.198797 0.983926 0.401430
Si Si2 0.317277 0.123805 0.439067
Si Si3 0.027614 0.393533 0.563598
Si Si4 0.362563 0.356708 0.828954
Si Si5 0.000000 0.747734 0.750000
Si Si6 0.755736 0.279385 0.256215
O O1 0.145099 0.940684 0.531376
O O2 0.219080 0.884333 0.297371
O O3 0.268684 0.026790 0.459457
O O4 0.166950 0.080922 0.318955
O O5 0.393493 0.097251 0.427149
O O6 0.295509 0.190949 0.286239
O O7 0.301395 0.194956 0.594712
O O8 0.011584 0.316035 0.416316
O O9 0.000000 0.369991 0.750000
O O10 0.000000 0.500000 0.500000
O O11 0.434287 0.313551 0.788849
O O12 0.309304 0.267057 0.874323
#
# Coordination Sequence:
#
# PCOD9285857 Si02
#       6
#     8   8   8   8   4   8
#     4  11  23  42  71 101 130 178 232 284 350 405
#     4  10  23  42  68  99 137 173 225 287 345 405
#     4  12  28  46  72 102 142 190 226 281 353 417
#     4  11  25  43  68 100 137 179 231 287 343 416
#     4  12  28  50  66 102 148 182 240 282 334 434
#     4  10  21  42  67  98 134 171 226 292 337 405
#
# _framework density 20.137833000000001
#
# number of rings (size 3 to 8) (size 9 to 14) (size 15 to 20)
#    0.000    1.091    4.545    0.545    7.636    0.727 
#    0.000    0.000    0.000    0.000    0.000    0.000 
#    0.000    0.000    0.000    0.000    0.000    0.000 
#
# Total GULP energy -122712.397033 kJ/mol
# GULP energy per Si atom -5577.836229 kJ/mol
# Density = 2.009200 g / cm^3
# Si number density = 20.137833 Si / 1000 Ang^3
#
#
#
# Elastic Constant Matrix: (Units=GPa)
#
#
# Indices 1 2 3 4 5 6 
#
# 1 187.7072 78.4166 49.3382 0.0000 -15.0778 0.0000
# 2 78.4166 118.2059 38.4557 0.0000 -6.9128 0.0000
# 3 49.3382 38.4557 97.1052 0.0000 -11.7295 0.0000
# 4 0.0000 0.0000 0.0000 39.2175 0.0000 -5.7738
# 5 -15.0778 -6.9128 -11.7295 0.0000 19.8899 0.0000
# 6 0.0000 0.0000 0.0000 -5.7738 0.0000 30.3291
#
#
#
# Elastic Compliance Matrix: (Units=1/GPa)
#
#
# Indices 1 2 3 4 5 6 
#
# 1 0.007958 -0.004476 -0.001863 0.000000 0.003379 0.000000
# 2 -0.004476 0.012255 -0.002664 0.000000 -0.000705 0.000000
# 3 -0.001863 -0.002664 0.012939 0.000000 0.005292 0.000000
# 4 0.000000 0.000000 0.000000 0.026234 0.000000 0.004994
# 5 0.003379 -0.000705 0.005292 0.000000 0.055714 0.000000
# 6 0.000000 0.000000 0.000000 0.004994 0.000000 0.033922
#
#
# Mechanical properties :
#
#
# Convention : Reuss Voigt Hill
#
# Bulk Modulus (GPa) = 66.02331 81.71546 73.86939
# Shear Modulus (GPa) = 29.05680 33.67448 31.36564
#
# Velocity S-wave (km/s) = 3.80267 4.09369 3.95086
# Velocity P-wave (km/s) = 7.22061 7.93792 7.58775
#
# Compressibility (1/GPa) = 0.01514616
#
# Stress axis : x y z
#
# Youngs Moduli (GPa) = 125.65444 81.60265 77.28614
#
# Poissons Ratio (x) = 0.36524 0.14398
# Poissons Ratio (y) = 0.56241 0.20590
# Poissons Ratio (z) = 0.23408 0.21739
#
# Static dielectric constant tensor:
#      x y z
#    x 1.666910 0.000000 0.031110 
#    y 0.000000 1.710600 0.000000 
#    z 0.031110 0.000000 1.828240 
# 
# From -- ./inp_files/47121.got.cif
#   From: 2010.05.17/outbox.cif.g08.bks.cpg/sg15_24_cif.got.tgz:47121.got - 2010.06.03 18:47:42.
