data_PCOD9285188
_publ_section_title
;
Structure prediction by ZEFSAII (Michael W. Deem and Ramdas Pophale) SiO2 
 PCOD9285188
Probable space group: C 2/C
;
_chemical_formula_sum "Si O2"
_cell_formula_units_Z 60
_cell_length_a 14.202092
_cell_length_b 12.022530
_cell_length_c 16.934835
_cell_angle_alpha 90.000000
_cell_angle_beta 99.734179
_cell_angle_gamma 90.000000
_cell_volume 2849.909586
_symmetry_space_group_name_H-M "C 2/C"
_symmetry_group_IT_number 15
_symmetry_cell_setting 'monoclinic'
loop_
_space_group_symop_operation_xyz
x,y,z
-x,y,1/2-z
-x,-y,-z
x,-y,1/2+z
1/2+x,1/2+y,z
1/2-x,1/2+y,1/2-z
1/2-x,1/2-y,-z
1/2+x,1/2-y,1/2+z
loop_
_atom_site_type_symbol
_atom_site_label
_atom_site_fract_x
_atom_site_fract_y
_atom_site_fract_z
Si Si1 0.082602 0.958715 0.356754
Si Si2 0.500000 0.742394 0.750000
Si Si3 0.311145 0.361080 0.001366
Si Si4 0.354174 0.805638 0.030553
Si Si5 0.255238 0.448648 0.370785
Si Si6 0.349679 0.218102 0.355878
Si Si7 0.177342 0.108134 0.244145
Si Si8 0.970021 0.149578 0.409987
O O1 0.052054 0.841516 0.317291
O O2 0.178433 0.930914 0.417682
O O3 0.105508 0.042018 0.289699
O O4 0.006629 0.023759 0.400239
O O5 0.575341 0.803023 0.704069
O O6 0.279398 0.451187 0.933272
O O7 0.416864 0.330815 0.985230
O O8 0.250000 0.250000 0.000000
O O9 0.334439 0.892822 0.097885
O O10 0.435011 0.723078 0.073880
O O11 0.250000 0.750000 0.000000
O O12 0.377900 0.839381 0.943073
O O13 0.334383 0.350413 0.372036
O O14 0.256455 0.514451 0.288687
O O15 0.246636 0.182553 0.306797
O O16 0.110217 0.169653 0.169662
#
# Coordination Sequence:
#
# PCOD9285188 Si02
#       8
#     8   4   8   8   8   8   8   8
#     4  12  20  39  63  98 126 165 217 283 336 397
#     4  12  22  34  64  94 132 158 222 276 344 386
#     4  11  25  40  66  94 133 171 220 279 338 393
#     4  10  21  41  68  91 130 177 224 264 330 410
#     4  10  21  42  63  94 128 174 218 270 329 403
#     4  11  22  40  65  97 130 177 215 275 337 408
#     4  11  23  38  67  97 134 166 224 281 342 387
#     4  11  22  41  65  99 127 173 228 280 328 405
#
# _framework density 21.053298000000002
#
# number of rings (size 3 to 8) (size 9 to 14) (size 15 to 20)
#    0.000    1.067    2.667    6.000    3.733    1.067 
#    0.000    0.667    5.867    0.000    0.000    0.000 
#    0.000    0.000    0.000    0.000    0.000    0.000 
#
# Total GULP energy -167234.843527 kJ/mol
# GULP energy per Si atom -5574.494784 kJ/mol
# Density = 2.100538 g / cm^3
# Si number density = 21.053298 Si / 1000 Ang^3
#
#
#
# Elastic Constant Matrix: (Units=GPa)
#
#
# Indices 1 2 3 4 5 6 
#
# 1 96.8608 37.8816 37.4423 0.0000 -11.0076 0.0000
# 2 37.8816 58.2329 24.7189 0.0000 -1.8695 0.0000
# 3 37.4423 24.7189 99.1912 0.0000 -6.6787 0.0000
# 4 0.0000 0.0000 0.0000 27.2240 0.0000 6.5736
# 5 -11.0076 -1.8695 -6.6787 0.0000 30.3292 0.0000
# 6 0.0000 0.0000 0.0000 6.5736 0.0000 29.4239
#
#
#
# Elastic Compliance Matrix: (Units=1/GPa)
#
#
# Indices 1 2 3 4 5 6 
#
# 1 0.015450 -0.008454 -0.003434 0.000000 0.004330 0.000000
# 2 -0.008454 0.023830 -0.002898 0.000000 -0.002237 0.000000
# 3 -0.003434 -0.002898 0.012185 0.000000 0.001258 0.000000
# 4 0.000000 0.000000 0.000000 0.038827 0.000000 -0.008674
# 5 0.004330 -0.002237 0.001258 0.000000 0.034682 0.000000
# 6 0.000000 0.000000 0.000000 -0.008674 0.000000 0.035924
#
#
# Mechanical properties :
#
#
# Convention : Reuss Voigt Hill
#
# Bulk Modulus (GPa) = 45.67595 50.48561 48.08078
# Shear Modulus (GPa) = 25.28238 27.67823 26.48030
#
# Velocity S-wave (km/s) = 3.46912 3.62978 3.55036
# Velocity P-wave (km/s) = 6.14727 6.44973 6.30031
#
# Compressibility (1/GPa) = 0.02189336
#
# Stress axis : x y z
#
# Youngs Moduli (GPa) = 64.72619 41.96368 82.07082
#
# Poissons Ratio (x) = 0.35475 0.28180
# Poissons Ratio (y) = 0.54718 0.23785
# Poissons Ratio (z) = 0.22225 0.12162
#
# Static dielectric constant tensor:
#      x y z
#    x 1.567710 0.000000 -0.001610 
#    y 0.000000 1.766890 0.000000 
#    z -0.001610 0.000000 1.876100 
# 
# From -- ./inp_files/204069.got.cif
#   From: 2010.05.17/outbox.cif.g08.bks.cpg/sg15_103_cif.got.tgz:204069.got - 2010.06.03 18:47:42.
