data_PCOD9285945
_publ_section_title
;
Structure prediction by ZEFSAII (Michael W. Deem and Ramdas Pophale) SiO2 
 PCOD9285945
Probable space group: C 2/C
;
_chemical_formula_sum "Si O2"
_cell_formula_units_Z 60
_cell_length_a 13.821268
_cell_length_b 10.764171
_cell_length_c 21.977293
_cell_angle_alpha 90.000000
_cell_angle_beta 120.490757
_cell_angle_gamma 90.000000
_cell_volume 2817.502594
_symmetry_space_group_name_H-M "C 2/C"
_symmetry_group_IT_number 15
_symmetry_cell_setting 'monoclinic'
loop_
_space_group_symop_operation_xyz
x,y,z
-x,y,1/2-z
-x,-y,-z
x,-y,1/2+z
1/2+x,1/2+y,z
1/2-x,1/2+y,1/2-z
1/2-x,1/2-y,-z
1/2+x,1/2-y,1/2+z
loop_
_atom_site_type_symbol
_atom_site_label
_atom_site_fract_x
_atom_site_fract_y
_atom_site_fract_z
Si Si1 0.533270 0.735246 0.064816
Si Si2 0.000000 0.163441 0.250000
Si Si3 0.812906 0.710881 0.771683
Si Si4 0.882754 0.228713 0.541987
Si Si5 0.180074 0.373925 0.488304
Si Si6 0.416408 0.954052 0.637335
Si Si7 0.096125 0.028936 0.396748
Si Si8 0.670247 0.945578 0.759437
O O1 0.622612 0.786834 0.142446
O O2 0.437495 0.837335 0.019622
O O3 0.470179 0.618582 0.076787
O O4 0.585692 0.701951 0.017357
O O5 0.093890 0.248282 0.248062
O O6 0.057143 0.078094 0.319331
O O7 0.723565 0.823330 0.746577
O O8 0.767388 0.574500 0.738613
O O9 0.750000 0.250000 0.500000
O O10 0.926332 0.352909 0.587430
O O11 0.926059 0.113617 0.595721
O O12 0.250000 0.250000 0.500000
O O13 0.144553 0.429380 0.412295
O O14 0.269038 0.458082 0.551875
O O15 0.543456 0.974633 0.698272
O O16 0.342222 0.919245 0.672440
#
# Coordination Sequence:
#
# PCOD9285945 Si02
#       8
#     8   4   8   8   8   8   8   8
#     4  10  23  43  68  99 134 175 238 276 334 415
#     4  10  24  44  70  98 136 174 236 272 332 420
#     4  11  24  45  71 101 133 186 223 287 336 406
#     4  12  24  41  64  99 142 176 220 286 353 399
#     4  10  21  42  69 100 125 178 232 274 337 400
#     4  11  24  46  67  99 136 184 219 290 342 404
#     4  10  23  43  68 100 133 182 220 288 343 406
#     4  11  26  45  72  97 144 177 235 275 350 408
#
# _framework density 21.295455
#
# number of rings (size 3 to 8) (size 9 to 14) (size 15 to 20)
#    0.000    1.333    2.667    2.000    3.733    6.933 
#    4.800    0.000    0.000    0.000    0.000    0.000 
#    0.000    0.000    0.000    0.000    0.000    0.000 
#
# Total GULP energy -167568.182976 kJ/mol
# GULP energy per Si atom -5585.606099 kJ/mol
# Density = 2.124699 g / cm^3
# Si number density = 21.295455 Si / 1000 Ang^3
#
#
#
# Elastic Constant Matrix: (Units=GPa)
#
#
# Indices 1 2 3 4 5 6 
#
# 1 66.1216 30.8800 36.0123 0.0000 -1.3305 0.0000
# 2 30.8800 80.8006 17.8091 0.0000 -11.7902 0.0000
# 3 36.0123 17.8091 86.1291 0.0000 -2.1828 0.0000
# 4 0.0000 0.0000 0.0000 9.4222 0.0000 0.0357
# 5 -1.3305 -11.7902 -2.1828 0.0000 17.8445 0.0000
# 6 0.0000 0.0000 0.0000 0.0357 0.0000 16.7475
#
#
#
# Elastic Compliance Matrix: (Units=1/GPa)
#
#
# Indices 1 2 3 4 5 6 
#
# 1 0.023055 -0.007642 -0.008169 0.000000 -0.004330 0.000000
# 2 -0.007642 0.016841 -0.000019 0.000000 0.010555 0.000000
# 3 -0.008169 -0.000019 0.015061 0.000000 0.001220 0.000000
# 4 0.000000 0.000000 0.000000 0.106133 0.000000 -0.000226
# 5 -0.004330 0.010555 0.001220 0.000000 0.062840 0.000000
# 6 0.000000 0.000000 0.000000 -0.000226 0.000000 0.059711
#
#
# Mechanical properties :
#
#
# Convention : Reuss Voigt Hill
#
# Bulk Modulus (GPa) = 42.92670 44.71711 43.82191
# Shear Modulus (GPa) = 15.47663 18.69285 17.08474
#
# Velocity S-wave (km/s) = 2.69877 2.96596 2.83551
# Velocity P-wave (km/s) = 5.46924 5.72479 5.59847
#
# Compressibility (1/GPa) = 0.02329552
#
# Stress axis : x y z
#
# Youngs Moduli (GPa) = 43.37477 59.37789 66.39599
#
# Poissons Ratio (x) = 0.45378 0.54241
# Poissons Ratio (y) = 0.33148 0.00129
# Poissons Ratio (z) = 0.35434 0.00115
#
# Static dielectric constant tensor:
#      x y z
#    x 1.799310 0.000000 0.078040 
#    y 0.000000 1.821730 0.000000 
#    z 0.078040 0.000000 1.972700 
# 
# From -- ./inp_files/243768.got.cif
#   From: 2010.05.17/outbox.cif.g08.bks.cpg/sg15_122_cif.got.tgz:243768.got - 2010.06.03 18:47:42.
