data_PCOD9285227
_publ_section_title
;
Structure prediction by ZEFSAII (Michael W. Deem and Ramdas Pophale) SiO2 
 PCOD9285227
Probable space group: C 2/C
;
_chemical_formula_sum "Si O2"
_cell_formula_units_Z 48
_cell_length_a 13.949729
_cell_length_b 7.300058
_cell_length_c 18.942844
_cell_angle_alpha 90.000000
_cell_angle_beta 96.480579
_cell_angle_gamma 90.000000
_cell_volume 1916.696245
_symmetry_space_group_name_H-M "C 2/C"
_symmetry_group_IT_number 15
_symmetry_cell_setting 'monoclinic'
loop_
_space_group_symop_operation_xyz
x,y,z
-x,y,1/2-z
-x,-y,-z
x,-y,1/2+z
1/2+x,1/2+y,z
1/2-x,1/2+y,1/2-z
1/2-x,1/2-y,-z
1/2+x,1/2-y,1/2+z
loop_
_atom_site_type_symbol
_atom_site_label
_atom_site_fract_x
_atom_site_fract_y
_atom_site_fract_z
Si Si1 0.798509 0.195459 0.891016
Si Si2 0.391527 0.700720 0.764883
Si Si3 0.665236 0.476717 0.379439
Si Si4 0.623252 0.898475 0.276715
Si Si5 0.476671 0.256296 0.853817
Si Si6 0.603406 0.600621 0.015640
O O1 0.889498 0.158847 0.847731
O O2 0.759010 0.397802 0.904696
O O3 0.716567 0.134955 0.829766
O O4 0.820134 0.056625 0.955299
O O5 0.500000 0.671441 0.750000
O O6 0.327483 0.612329 0.697072
O O7 0.363957 0.913201 0.761663
O O8 0.568481 0.606311 0.367927
O O9 0.641307 0.338249 0.441887
O O10 0.597128 0.735109 0.219100
O O11 0.536840 0.917135 0.327579
O O12 0.417300 0.259369 0.921516
O O13 0.500000 0.500000 0.000000
#
# Coordination Sequence:
#
# PCOD9285227 Si02
#       6
#     8   8   8   8   8   8
#     4  11  24  38  69  93 132 171 224 283 332 393
#     4  12  23  39  64  99 128 174 225 277 330 398
#     4  10  23  40  67  96 133 172 226 271 339 404
#     4  10  22  39  61  99 132 167 223 281 332 382
#     4   9  19  39  65  91 133 171 210 277 331 396
#     4  10  21  41  68  97 129 181 223 268 344 407
#
# _framework density 25.043089999999999
#
# number of rings (size 3 to 8) (size 9 to 14) (size 15 to 20)
#    0.000    1.667    1.667    3.500   14.000    0.000 
#    0.000    1.667    7.333    0.000    0.000    0.000 
#    0.000    0.000    0.000    0.000    0.000    0.000 
#
# Total GULP energy -133752.313145 kJ/mol
# GULP energy per Si atom -5573.013048 kJ/mol
# Density = 2.498609 g / cm^3
# Si number density = 25.043090 Si / 1000 Ang^3
#
#
#
# Elastic Constant Matrix: (Units=GPa)
#
#
# Indices 1 2 3 4 5 6 
#
# 1 74.7078 -2.3871 18.7004 0.0000 -1.3977 0.0000
# 2 -2.3871 30.5245 20.6160 0.0000 -7.2681 0.0000
# 3 18.7004 20.6160 132.9909 0.0000 -26.4360 0.0000
# 4 0.0000 0.0000 0.0000 13.2061 0.0000 5.3349
# 5 -1.3977 -7.2681 -26.4360 0.0000 44.6927 0.0000
# 6 0.0000 0.0000 0.0000 5.3349 0.0000 30.5647
#
#
#
# Elastic Compliance Matrix: (Units=1/GPa)
#
#
# Indices 1 2 3 4 5 6 
#
# 1 0.014088 0.002654 -0.002515 0.000000 -0.000615 0.000000
# 2 0.002654 0.037436 -0.005609 0.000000 0.002853 0.000000
# 3 -0.002515 -0.005609 0.009684 0.000000 0.004737 0.000000
# 4 0.000000 0.000000 0.000000 0.081467 0.000000 -0.014220
# 5 -0.000615 0.002853 0.004737 0.000000 0.025622 0.000000
# 6 0.000000 0.000000 0.000000 -0.014220 0.000000 0.035199
#
#
# Mechanical properties :
#
#
# Convention : Reuss Voigt Hill
#
# Bulk Modulus (GPa) = 19.89352 34.67575 27.28464
# Shear Modulus (GPa) = 21.62696 31.11229 26.36962
#
# Velocity S-wave (km/s) = 2.94188 3.52852 3.24847
# Velocity P-wave (km/s) = 4.41594 5.52061 4.99888
#
# Compressibility (1/GPa) = 0.05026762
#
# Stress axis : x y z
#
# Youngs Moduli (GPa) = 70.98125 26.71238 103.26152
#
# Poissons Ratio (x) = -0.07088 0.25967
# Poissons Ratio (y) = -0.18836 0.57922
# Poissons Ratio (z) = 0.17850 0.14984
#
# Static dielectric constant tensor:
#      x y z
#    x 2.151570 0.000000 -0.031760 
#    y 0.000000 2.042130 0.000000 
#    z -0.031760 0.000000 2.045790 
# 
# From -- ./inp_files/242013.got.cif
#   From: 2010.05.17/outbox.cif.g08.bks.cpg/sg15_122_cif.got.tgz:242013.got - 2010.06.03 18:47:42.
