data_PCOD9285119
_publ_section_title
;
Structure prediction by ZEFSAII (Michael W. Deem and Ramdas Pophale) SiO2 
 PCOD9285119
Probable space group: C 2/C
;
_chemical_formula_sum "Si O2"
_cell_formula_units_Z 64
_cell_length_a 23.426161
_cell_length_b 8.824877
_cell_length_c 29.632275
_cell_angle_alpha 90.000000
_cell_angle_beta 30.862612
_cell_angle_gamma 90.000000
_cell_volume 3142.506933
_symmetry_space_group_name_H-M "C 2/C"
_symmetry_group_IT_number 15
_symmetry_cell_setting 'monoclinic'
loop_
_space_group_symop_operation_xyz
x,y,z
-x,y,1/2-z
-x,-y,-z
x,-y,1/2+z
1/2+x,1/2+y,z
1/2-x,1/2+y,1/2-z
1/2-x,1/2-y,-z
1/2+x,1/2-y,1/2+z
loop_
_atom_site_type_symbol
_atom_site_label
_atom_site_fract_x
_atom_site_fract_y
_atom_site_fract_z
Si Si1 0.161934 0.627280 0.809348
Si Si2 0.753655 0.071129 0.995389
Si Si3 0.243857 0.872286 0.592536
Si Si4 0.106088 0.275301 0.860749
Si Si5 0.449712 0.541112 0.933539
Si Si6 0.450812 0.730965 0.495733
Si Si7 0.085636 0.367963 0.155629
Si Si8 0.910588 0.172687 0.221500
O O1 0.136535 0.449789 0.831189
O O2 0.289764 0.676475 0.728030
O O3 0.135354 0.689514 0.777201
O O4 0.076762 0.714534 0.900758
O O5 0.845700 0.031093 0.970653
O O6 0.775960 0.002907 0.930662
O O7 0.750000 0.250000 0.000000
O O8 0.638617 0.992822 0.088050
O O9 0.371193 0.834951 0.517980
O O10 0.186283 0.721895 0.610988
O O11 0.178449 0.894833 0.683587
O O12 0.993893 0.208791 0.914345
O O13 0.087249 0.251589 0.927139
O O14 0.433502 0.440796 0.989732
O O15 0.546581 0.452997 0.841442
O O16 0.000000 0.434786 0.250000
O O17 0.014686 0.240862 0.177976
#
# Coordination Sequence:
#
# PCOD9285119 Si02
#       8
#     8   8   8   8   8   8   8   8
#     4  11  24  44  68  96 130 177 222 282 338 405
#     4  12  25  41  63 101 138 172 219 279 346 391
#     4  11  21  42  70  93 129 176 228 267 323 414
#     4  12  26  45  67  99 137 170 230 282 343 407
#     4  11  24  42  65  97 133 174 218 280 339 401
#     4  11  23  44  71  94 130 179 231 272 339 409
#     4  10  21  41  67  94 127 174 225 268 324 407
#     4  10  21  42  69  96 127 178 224 272 335 399
#
# _framework density 20.365905000000001
#
# number of rings (size 3 to 8) (size 9 to 14) (size 15 to 20)
#    0.000    1.000    3.750    4.125    3.500    0.000 
#    2.250    1.250    0.000    0.000    0.000    0.000 
#    0.000    0.000    0.000    0.000    0.000    0.000 
#
# Total GULP energy -178749.623425 kJ/mol
# GULP energy per Si atom -5585.925732 kJ/mol
# Density = 2.031955 g / cm^3
# Si number density = 20.365905 Si / 1000 Ang^3
#
#
#
# Elastic Constant Matrix: (Units=GPa)
#
#
# Indices 1 2 3 4 5 6 
#
# 1 55.5909 1.5043 37.6132 0.0091 0.4672 -0.0051
# 2 1.5043 88.9078 46.5676 0.0168 18.4143 -0.0070
# 3 37.6132 46.5676 114.2363 0.0013 14.1653 -0.0025
# 4 0.0091 0.0168 0.0013 -4.9837 -0.0030 -19.1317
# 5 0.4672 18.4143 14.1653 -0.0030 33.9781 0.0033
# 6 -0.0051 -0.0070 -0.0025 -19.1317 0.0033 21.7526
#
#
#
# Elastic Compliance Matrix: (Units=1/GPa)
#
#
# Indices 1 2 3 4 5 6 
#
# 1 0.024768 0.004644 -0.010222 0.000008 0.001404 0.000013
# 2 0.004644 0.016263 -0.007443 0.000009 -0.005775 0.000015
# 3 -0.010222 -0.007443 0.015434 -0.000006 -0.002260 -0.000008
# 4 0.000008 0.000009 -0.000006 -0.045850 -0.000003 -0.040326
# 5 0.001404 -0.005775 -0.002260 -0.000003 0.033483 -0.000009
# 6 0.000013 0.000015 -0.000008 -0.040326 -0.000009 0.010505
#
#
# Mechanical properties :
#
#
# Convention : Reuss Voigt Hill
#
# Bulk Modulus (GPa) = 32.86954 47.78947 40.32950
# Shear Modulus (GPa) = 55.07491 21.68603 38.38047
#
# Velocity S-wave (km/s) = 5.20590 3.26670 4.34584
# Velocity P-wave (km/s) = 7.23255 6.14368 6.71024
#
# Compressibility (1/GPa) = 0.03042331
#
# Stress axis : x y z
#
# Youngs Moduli (GPa) = 40.37547 61.48767 64.79304
#
# Poissons Ratio (x) = -0.28556 0.66233
# Poissons Ratio (y) = -0.18751 0.48224
# Poissons Ratio (z) = 0.41273 0.45764
#
# Static dielectric constant tensor:
#      x y z
#    x 1.766590 0.000000 -0.014860 
#    y 0.000000 1.699240 0.000000 
#    z -0.014860 0.000000 1.737140 
# 
# From -- ./inp_files/318604.got.cif
#   From: 2010.05.17/outbox.cif.g08.bks.cpg/sg15_160_cif.got.tgz:318604.got - 2010.06.03 18:47:42.
