data_PCOD9285557
_publ_section_title
;
Structure prediction by ZEFSAII (Michael W. Deem and Ramdas Pophale) SiO2 
 PCOD9285557
Probable space group: C 2/C
;
_chemical_formula_sum "Si O2"
_cell_formula_units_Z 48
_cell_length_a 9.361202
_cell_length_b 24.707283
_cell_length_c 16.618036
_cell_angle_alpha 90.000000
_cell_angle_beta 149.189008
_cell_angle_gamma 90.000000
_cell_volume 1968.712765
_symmetry_space_group_name_H-M "C 2/C"
_symmetry_group_IT_number 15
_symmetry_cell_setting 'monoclinic'
loop_
_space_group_symop_operation_xyz
x,y,z
-x,y,1/2-z
-x,-y,-z
x,-y,1/2+z
1/2+x,1/2+y,z
1/2-x,1/2+y,1/2-z
1/2-x,1/2-y,-z
1/2+x,1/2-y,1/2+z
loop_
_atom_site_type_symbol
_atom_site_label
_atom_site_fract_x
_atom_site_fract_y
_atom_site_fract_z
Si Si1 0.603227 0.965277 0.169643
Si Si2 0.704124 0.856993 0.774155
Si Si3 0.667650 0.920933 0.611989
Si Si4 0.142155 0.921622 0.070487
Si Si5 0.176718 0.745930 0.615870
Si Si6 0.731877 0.199871 0.802286
O O1 0.360914 0.950051 0.116240
O O2 0.877804 0.955980 0.357317
O O3 0.612630 0.024067 0.135385
O O4 0.530797 0.925696 0.061036
O O5 0.500000 0.849406 0.750000
O O6 0.586782 0.871561 0.630893
O O7 0.867903 0.800941 0.852551
O O8 0.882679 0.908250 0.889280
O O9 0.000000 0.917616 0.750000
O O10 0.213249 0.861653 0.141107
O O11 0.500000 0.737992 0.750000
O O12 0.124567 0.700980 0.658783
O O13 0.998531 0.761736 0.450788
O O14 0.500000 0.222240 0.750000
#
# Coordination Sequence:
#
# PCOD9285557 Si02
#       6
#     8   8   8   8   8   8
#     4  10  22  39  61  89 124 156 203 263 304 363
#     4  10  23  41  63  90 124 167 204 248 312 369
#     4  11  23  39  61  92 121 158 207 258 311 360
#     4  10  21  42  64  87 129 161 206 251 309 371
#     4  10  23  41  60  94 130 161 207 255 308 372
#     4  11  21  39  67  94 121 169 208 254 309 366
#
# _framework density 24.381413999999999
#
# number of rings (size 3 to 8) (size 9 to 14) (size 15 to 20)
#    0.000    1.667    3.333    1.000    2.333    5.333 
#    0.000    0.833    0.000    0.000    0.000    0.000 
#    0.000    0.000    0.000    0.000    0.000    0.000 
#
# Total GULP energy -133832.431867 kJ/mol
# GULP energy per Si atom -5576.351328 kJ/mol
# Density = 2.432592 g / cm^3
# Si number density = 24.381414 Si / 1000 Ang^3
#
#
#
# Elastic Constant Matrix: (Units=GPa)
#
#
# Indices 1 2 3 4 5 6 
#
# 1 79.3931 25.0374 5.9354 -0.0004 -17.9588 0.0009
# 2 25.0374 72.2878 8.6768 -0.0002 -15.1789 0.0003
# 3 5.9354 8.6768 54.4503 0.0026 -30.7320 -0.0047
# 4 -0.0004 -0.0002 0.0026 46.5386 0.0009 -33.9024
# 5 -17.9588 -15.1789 -30.7320 0.0009 50.7617 -0.0012
# 6 0.0009 0.0003 -0.0047 -33.9024 -0.0012 54.1295
#
#
#
# Elastic Compliance Matrix: (Units=1/GPa)
#
#
# Indices 1 2 3 4 5 6 
#
# 1 0.014995 -0.004338 0.002003 0.000000 0.005221 0.000000
# 2 -0.004338 0.016017 -0.000368 0.000000 0.003032 0.000000
# 3 0.002003 -0.000368 0.028169 0.000000 0.017652 0.000003
# 4 0.000000 0.000000 0.000000 0.039518 0.000000 0.024751
# 5 0.005221 0.003032 0.017652 0.000000 0.033141 0.000002
# 6 0.000000 0.000000 0.000003 0.024751 0.000002 0.033976
#
#
# Mechanical properties :
#
#
# Convention : Reuss Voigt Hill
#
# Bulk Modulus (GPa) = 18.59611 31.71448 25.15530
# Shear Modulus (GPa) = 26.43465 41.38474 33.90969
#
# Velocity S-wave (km/s) = 3.29631 4.12441 3.73339
# Velocity P-wave (km/s) = 4.70439 5.97636 5.37811
#
# Compressibility (1/GPa) = 0.05377469
#
# Stress axis : x y z
#
# Youngs Moduli (GPa) = 66.69043 62.43434 35.50024
#
# Poissons Ratio (x) = 0.27082 -0.07112
# Poissons Ratio (y) = 0.28929 0.01308
# Poissons Ratio (z) = -0.13360 0.02300
#
# Static dielectric constant tensor:
#      x y z
#    x 1.995960 0.000000 0.055190 
#    y 0.000000 1.977200 0.000000 
#    z 0.055190 0.000000 2.064350 
# 
# From -- ./inp_files/139648.got.cif
#   From: 2010.05.17/outbox.cif.g08.bks.cpg/sg15_70_cif.got.tgz:139648.got - 2010.06.03 18:47:42.
