data_PCOD9285902
_publ_section_title
;
Structure prediction by ZEFSAII (Michael W. Deem and Ramdas Pophale) SiO2 
 PCOD9285902
Probable space group: C 2/C
;
_chemical_formula_sum "Si O2"
_cell_formula_units_Z 64
_cell_length_a 15.037494
_cell_length_b 21.744074
_cell_length_c 18.950608
_cell_angle_alpha 90.000000
_cell_angle_beta 29.600305
_cell_angle_gamma 90.000000
_cell_volume 3060.690678
_symmetry_space_group_name_H-M "C 2/C"
_symmetry_group_IT_number 15
_symmetry_cell_setting 'monoclinic'
loop_
_space_group_symop_operation_xyz
x,y,z
-x,y,1/2-z
-x,-y,-z
x,-y,1/2+z
1/2+x,1/2+y,z
1/2-x,1/2+y,1/2-z
1/2-x,1/2-y,-z
1/2+x,1/2-y,1/2+z
loop_
_atom_site_type_symbol
_atom_site_label
_atom_site_fract_x
_atom_site_fract_y
_atom_site_fract_z
Si Si1 0.993054 0.511053 0.087075
Si Si2 0.803545 0.883120 0.565027
Si Si3 0.921371 0.372420 0.906138
Si Si4 0.339550 0.435163 0.119791
Si Si5 0.817285 0.437782 0.422180
Si Si6 0.087878 0.740393 0.995129
Si Si7 0.269851 0.200416 0.747157
Si Si8 0.106602 0.697982 0.603025
O O1 0.800143 0.484285 0.249175
O O2 0.041870 0.583133 0.054824
O O3 0.140530 0.480611 0.039151
O O4 0.000000 0.500000 0.000000
O O5 0.609141 0.884664 0.735972
O O6 0.749706 0.894162 0.521197
O O7 0.859601 0.811631 0.531397
O O8 0.954700 0.928147 0.493418
O O9 0.899857 0.302385 0.944623
O O10 0.327211 0.442544 0.042658
O O11 0.268769 0.367487 0.194360
O O12 0.808015 0.369452 0.459881
O O13 0.000000 0.444025 0.250000
O O14 0.875511 0.749947 0.125527
O O15 0.210862 0.708915 0.850333
O O16 0.466338 0.213220 0.639451
O O17 0.250000 0.750000 0.500000
O O18 0.000000 0.698968 0.750000
#
# Coordination Sequence:
#
# PCOD9285902 Si02
#       8
#     8   8   8   8   8   8   8   8
#     4  11  23  43  68  94 131 175 222 275 337 395
#     4  10  24  42  67 100 128 174 223 278 339 413
#     4  11  24  42  67  98 130 170 230 275 341 407
#     4  10  21  42  68  92 127 177 219 266 337 399
#     4   9  19  38  62  89 124 169 216 260 322 397
#     4  11  22  40  62  96 138 168 215 278 340 399
#     4  11  20  36  61  92 132 174 216 264 333 401
#     4  11  20  34  57  91 126 165 213 262 317 389
#
# _framework density 20.910312000000001
#
# number of rings (size 3 to 8) (size 9 to 14) (size 15 to 20)
#    0.000    1.500    5.000    1.875    7.000    0.500 
#    0.000    3.125    0.000    0.000    0.000    0.000 
#    0.000    0.000    0.000    0.000    0.000    0.000 
#
# Total GULP energy -178150.176742 kJ/mol
# GULP energy per Si atom -5567.193023 kJ/mol
# Density = 2.086272 g / cm^3
# Si number density = 20.910312 Si / 1000 Ang^3
#
#
#
# Elastic Constant Matrix: (Units=GPa)
#
#
# Indices 1 2 3 4 5 6 
#
# 1 135.2609 33.5936 33.5631 -0.0321 -16.6398 0.0136
# 2 33.5936 69.9806 12.7556 -0.0265 -8.5597 0.0123
# 3 33.5631 12.7556 40.3448 -0.0764 -5.9299 0.0313
# 4 -0.0321 -0.0265 -0.0764 38.7390 0.0422 0.7274
# 5 -16.6398 -8.5597 -5.9299 0.0422 34.3719 -0.0193
# 6 0.0136 0.0123 0.0313 0.7274 -0.0193 27.4981
#
#
#
# Elastic Compliance Matrix: (Units=1/GPa)
#
#
# Indices 1 2 3 4 5 6 
#
# 1 0.010346 -0.003306 -0.007128 -0.000011 0.002956 0.000007
# 2 -0.003306 0.016533 -0.002162 0.000002 0.002144 -0.000002
# 3 -0.007128 -0.002162 0.031615 0.000054 0.001465 -0.000032
# 4 -0.000011 0.000002 0.000054 0.025827 -0.000028 -0.000683
# 5 0.002956 0.002144 0.001465 -0.000028 0.031311 0.000019
# 6 0.000007 -0.000002 -0.000032 -0.000683 0.000019 0.036384
#
#
# Mechanical properties :
#
#
# Convention : Reuss Voigt Hill
#
# Bulk Modulus (GPa) = 30.02691 45.04566 37.53628
# Shear Modulus (GPa) = 26.55219 31.16673 28.85946
#
# Velocity S-wave (km/s) = 3.56731 3.86488 3.71907
# Velocity P-wave (km/s) = 5.59988 6.44248 6.03590
#
# Compressibility (1/GPa) = 0.03330346
#
# Stress axis : x y z
#
# Youngs Moduli (GPa) = 96.65151 60.48529 31.63075
#
# Poissons Ratio (x) = 0.19996 0.22545
# Poissons Ratio (y) = 0.31953 0.06838
# Poissons Ratio (z) = 0.68889 0.13075
#
# Static dielectric constant tensor:
#      x y z
#    x 1.827100 -0.000030 0.001060 
#    y -0.000030 1.822260 -0.000020 
#    z 0.001060 -0.000020 1.827480 
# 
# From -- ./inp_files/207332.got.cif
#   From: 2010.05.17/outbox.cif.g08.bks.cpg/sg15_104_cif.got.tgz:207332.got - 2010.06.03 18:47:42.
