data_PCOD9285943
_publ_section_title
;
Structure prediction by ZEFSAII (Michael W. Deem and Ramdas Pophale) SiO2 
 PCOD9285943
Probable space group: C 2/C
;
_chemical_formula_sum "Si O2"
_cell_formula_units_Z 60
_cell_length_a 28.534782
_cell_length_b 5.372567
_cell_length_c 17.436254
_cell_angle_alpha 90.000000
_cell_angle_beta 65.937713
_cell_angle_gamma 90.000000
_cell_volume 2440.783374
_symmetry_space_group_name_H-M "C 2/C"
_symmetry_group_IT_number 15
_symmetry_cell_setting 'monoclinic'
loop_
_space_group_symop_operation_xyz
x,y,z
-x,y,1/2-z
-x,-y,-z
x,-y,1/2+z
1/2+x,1/2+y,z
1/2-x,1/2+y,1/2-z
1/2-x,1/2-y,-z
1/2+x,1/2-y,1/2+z
loop_
_atom_site_type_symbol
_atom_site_label
_atom_site_fract_x
_atom_site_fract_y
_atom_site_fract_z
Si Si1 0.801813 0.278592 0.545084
Si Si2 0.124899 0.963054 0.088173
Si Si3 0.646711 0.219156 0.340108
Si Si4 0.250000 0.250000 0.500000
Si Si5 0.449741 0.984275 0.184180
Si Si6 0.627037 0.386389 0.747448
Si Si7 0.709743 0.999703 0.670921
Si Si8 0.435235 0.012360 0.876229
O O1 0.818694 0.031566 0.483586
O O2 0.847596 0.322357 0.574207
O O3 0.785668 0.499350 0.500844
O O4 0.755210 0.194263 0.629210
O O5 0.127984 0.922949 0.177258
O O6 0.090161 0.212400 0.100671
O O7 0.100232 0.714504 0.071460
O O8 0.592507 0.125050 0.340198
O O9 0.650588 0.504476 0.308960
O O10 0.694118 0.089603 0.265323
O O11 0.271783 0.220398 0.396278
O O12 0.508850 0.004482 0.122376
O O13 0.445392 0.037340 0.278397
O O14 0.430044 0.699408 0.194981
O O15 0.658116 0.157991 0.689030
#
# Coordination Sequence:
#
# PCOD9285943 Si02
#       8
#     8   8   8   4   8   8   8   8
#     4  12  29  43  70 106 145 201 248 310 380 465
#     4  11  24  43  70 107 144 191 250 312 380 451
#     4  11  25  45  69 101 148 188 246 313 380 448
#     4  12  26  46  74  96 148 190 256 298 388 456
#     4   9  21  39  71 105 137 188 244 312 380 445
#     4  10  21  42  68  99 139 191 243 311 379 450
#     4  11  26  41  69 103 136 196 242 307 372 447
#     4  10  22  41  73 108 141 188 256 313 374 460
#
# _framework density 24.582270000000001
#
# number of rings (size 3 to 8) (size 9 to 14) (size 15 to 20)
#    0.000    1.333    2.667    1.200    9.333    2.133 
#    0.000    1.333    0.000    0.000    0.000    0.000 
#    0.000    0.000    0.000    0.000    0.000    0.000 
#
# Total GULP energy -167201.844612 kJ/mol
# GULP energy per Si atom -5573.394820 kJ/mol
# Density = 2.452632 g / cm^3
# Si number density = 24.582270 Si / 1000 Ang^3
#
#
#
# Elastic Constant Matrix: (Units=GPa)
#
#
# Indices 1 2 3 4 5 6 
#
# 1 130.6000 36.7472 35.7621 0.0001 -8.7591 0.0001
# 2 36.7472 107.3345 19.9940 -0.0013 -11.2853 0.0000
# 3 35.7621 19.9940 68.9108 0.0002 6.5112 0.0000
# 4 0.0001 -0.0013 0.0002 23.0925 0.0001 -4.2355
# 5 -8.7591 -11.2853 6.5112 0.0001 39.3274 0.0000
# 6 0.0001 0.0000 0.0000 -4.2355 0.0000 29.8289
#
#
#
# Elastic Compliance Matrix: (Units=1/GPa)
#
#
# Indices 1 2 3 4 5 6 
#
# 1 0.009696 -0.002222 -0.004603 0.000000 0.002284 0.000000
# 2 -0.002222 0.010813 -0.002266 0.000001 0.002983 0.000000
# 3 -0.004603 -0.002266 0.017998 0.000000 -0.004655 0.000000
# 4 0.000000 0.000001 0.000000 0.044462 0.000000 0.006313
# 5 0.002284 0.002983 -0.004655 0.000000 0.027563 0.000000
# 6 0.000000 0.000000 0.000000 0.006313 0.000000 0.034421
#
#
# Mechanical properties :
#
#
# Convention : Reuss Voigt Hill
#
# Bulk Modulus (GPa) = 49.20134 54.65021 51.92578
# Shear Modulus (GPa) = 29.42747 32.73923 31.08335
#
# Velocity S-wave (km/s) = 3.46367 3.65337 3.55979
# Velocity P-wave (km/s) = 6.00453 6.33056 6.16970
#
# Compressibility (1/GPa) = 0.02032465
#
# Stress axis : x y z
#
# Youngs Moduli (GPa) = 103.13827 92.47995 55.56302
#
# Poissons Ratio (x) = 0.20548 0.25575
# Poissons Ratio (y) = 0.22916 0.12591
# Poissons Ratio (z) = 0.47473 0.20957
#
# Static dielectric constant tensor:
#      x y z
#    x 1.897090 0.000000 0.013730 
#    y 0.000000 1.885800 0.000000 
#    z 0.013730 0.000000 1.854280 
# 
# From -- ./inp_files/223855.got.cif
#   From: 2010.05.17/outbox.cif.g08.bks.cpg/sg15_112_cif.got.tgz:223855.got - 2010.06.03 18:47:42.
