data_PCOD9285929
_publ_section_title
;
Structure prediction by ZEFSAII (Michael W. Deem and Ramdas Pophale) SiO2 
 PCOD9285929
Probable space group: C 2/C
;
_chemical_formula_sum "Si O2"
_cell_formula_units_Z 64
_cell_length_a 7.718669
_cell_length_b 30.069047
_cell_length_c 12.462045
_cell_angle_alpha 90.000000
_cell_angle_beta 81.905938
_cell_angle_gamma 90.000000
_cell_volume 2863.540782
_symmetry_space_group_name_H-M "C 2/C"
_symmetry_group_IT_number 15
_symmetry_cell_setting 'monoclinic'
loop_
_space_group_symop_operation_xyz
x,y,z
-x,y,1/2-z
-x,-y,-z
x,-y,1/2+z
1/2+x,1/2+y,z
1/2-x,1/2+y,1/2-z
1/2-x,1/2-y,-z
1/2+x,1/2-y,1/2+z
loop_
_atom_site_type_symbol
_atom_site_label
_atom_site_fract_x
_atom_site_fract_y
_atom_site_fract_z
Si Si1 0.672822 0.377247 0.610986
Si Si2 0.185115 0.122215 0.689386
Si Si3 0.105193 0.171656 0.496930
Si Si4 0.706626 0.195885 0.232128
Si Si5 0.917427 0.455247 0.644189
Si Si6 0.099669 0.636933 0.614999
Si Si7 0.234279 0.223760 0.891133
Si Si8 0.353369 0.945357 0.084853
O O1 0.491664 0.368231 0.562931
O O2 0.697162 0.342270 0.705400
O O3 0.741723 0.426132 0.639161
O O4 0.814649 0.365008 0.508673
O O5 0.225132 0.154933 0.584499
O O6 0.283628 0.122330 0.794739
O O7 0.164841 0.074087 0.631818
O O8 0.000000 0.137690 0.750000
O O9 0.213782 0.196645 0.394685
O O10 0.948338 0.198196 0.568643
O O11 0.500000 0.184902 0.250000
O O12 0.727341 0.242335 0.293071
O O13 0.879374 0.507788 0.639343
O O14 0.000000 0.442614 0.750000
O O15 0.068192 0.448396 0.540659
O O16 0.102283 0.689907 0.634547
O O17 0.956745 0.597643 0.622740
O O18 0.250000 0.250000 0.000000
#
# Coordination Sequence:
#
# PCOD9285929 Si02
#       8
#     8   8   8   8   8   8   8   8
#     4  10  21  42  68  96 135 184 213 285 347 402
#     4  12  23  43  68  94 136 180 223 277 339 410
#     4  11  26  46  67  98 139 182 227 283 354 402
#     4  12  27  44  68  99 141 177 240 289 334 415
#     4  10  21  42  73 105 139 171 231 288 337 416
#     4  10  21  43  67  94 131 176 231 277 345 395
#     4  11  23  45  66  97 134 181 229 287 337 415
#     4  10  24  43  71 105 134 180 229 282 346 412
#
# _framework density 22.349951999999998
#
# number of rings (size 3 to 8) (size 9 to 14) (size 15 to 20)
#    0.000    1.250    5.000    1.875    7.000    0.500 
#    4.500    1.875    0.000    0.000    0.000    0.000 
#    0.000    0.000    0.000    0.000    0.000    0.000 
#
# Total GULP energy -178136.801879 kJ/mol
# GULP energy per Si atom -5566.775059 kJ/mol
# Density = 2.229908 g / cm^3
# Si number density = 22.349952 Si / 1000 Ang^3
#
#
#
# Elastic Constant Matrix: (Units=GPa)
#
#
# Indices 1 2 3 4 5 6 
#
# 1 40.3589 37.5246 15.8545 0.0000 4.6829 0.0000
# 2 37.5246 102.9612 30.7963 0.0000 -0.1182 0.0000
# 3 15.8545 30.7963 84.2054 0.0000 -15.6017 0.0000
# 4 0.0000 0.0000 0.0000-1931.3439 0.0000 -398.3559
# 5 4.6829 -0.1182 -15.6017 0.0000 38.4611 0.0000
# 6 0.0000 0.0000 0.0000 -398.3559 0.0000 -50.5517
#
#
#
# Elastic Compliance Matrix: (Units=1/GPa)
#
#
# Indices 1 2 3 4 5 6 
#
# 1 0.039248 -0.013193 -0.003739 0.000000 -0.006336 0.000000
# 2 -0.013193 0.015446 -0.003091 0.000000 0.000400 0.000000
# 3 -0.003739 -0.003091 0.014913 0.000000 0.006495 0.000000
# 4 0.000000 0.000000 0.000000 0.000828 0.000000 -0.006525
# 5 -0.006336 0.000400 0.006495 0.000000 0.029408 0.000000
# 6 0.000000 0.000000 0.000000 -0.006525 0.000000 0.031633
#
#
# Mechanical properties :
#
#
# Convention : Reuss Voigt Hill
#
# Bulk Modulus (GPa) = 33.82685 43.98624 38.90655
# Shear Modulus (GPa) = 27.56722 -379.13022 -175.78150
#
# Velocity S-wave (km/s) = 3.51584 -13.03848 -8.87808
# Velocity P-wave (km/s) = 5.62578 14.38561 9.36206
#
# Compressibility (1/GPa) = 0.02956231
#
# Stress axis : x y z
#
# Youngs Moduli (GPa) = 25.47895 64.74338 67.05351
#
# Poissons Ratio (x) = 0.85417 0.25068
# Poissons Ratio (y) = 0.33615 0.20724
# Poissons Ratio (z) = 0.09525 0.20010
#
# Static dielectric constant tensor:
#      x y z
#    x -28.535940 0.000000 11.257720 
#    y 0.000000 1.833180 0.000000 
#    z 11.257720 0.000000 -2.406180 
# 
# From -- ./inp_files/82614.got.cif
#   From: 2010.05.17/outbox.cif.g08.bks.cpg/sg15_42_cif.got.tgz:82614.got - 2010.06.03 18:47:42.
