data_PCOD9285529
_publ_section_title
;
Structure prediction by ZEFSAII (Michael W. Deem and Ramdas Pophale) SiO2 
 PCOD9285529
Probable space group: C 2/C
;
_chemical_formula_sum "Si O2"
_cell_formula_units_Z 40
_cell_length_a 5.423648
_cell_length_b 14.016841
_cell_length_c 26.582223
_cell_angle_alpha 90.000000
_cell_angle_beta 98.868327
_cell_angle_gamma 90.000000
_cell_volume 1996.685983
_symmetry_space_group_name_H-M "C 2/C"
_symmetry_group_IT_number 15
_symmetry_cell_setting 'monoclinic'
loop_
_space_group_symop_operation_xyz
x,y,z
-x,y,1/2-z
-x,-y,-z
x,-y,1/2+z
1/2+x,1/2+y,z
1/2-x,1/2+y,1/2-z
1/2-x,1/2-y,-z
1/2+x,1/2-y,1/2+z
loop_
_atom_site_type_symbol
_atom_site_label
_atom_site_fract_x
_atom_site_fract_y
_atom_site_fract_z
Si Si1 0.936195 0.585421 0.925079
Si Si2 0.630423 0.292563 0.601060
Si Si3 0.324350 0.428092 0.524979
Si Si4 0.460343 0.614801 0.192868
Si Si5 0.078458 0.457266 0.847090
O O1 0.804397 0.684226 0.908273
O O2 0.765105 0.494187 0.931694
O O3 0.094609 0.550317 0.882297
O O4 0.101761 0.598483 0.980338
O O5 0.466449 0.337528 0.551250
O O6 0.479921 0.306636 0.648918
O O7 0.859616 0.364948 0.615854
O O8 0.500000 0.500000 0.500000
O O9 0.500000 0.654149 0.250000
O O10 0.198016 0.559576 0.182494
O O11 0.698013 0.547843 0.186227
#
# Coordination Sequence:
#
# PCOD9285529 Si02
#       5
#     8   8   8   8   8
#     4  11  22  39  62  93 130 168 211 257 315 384
#     4  10  23  38  64  90 129 168 204 267 314 369
#     4  11  21  39  59  93 131 168 215 253 311 384
#     4  10  21  42  67  91 125 164 211 269 322 373
#     4  10  21  42  63  93 126 164 210 260 317 379
#
# _framework density 20.033196
#
# number of rings (size 3 to 8) (size 9 to 14) (size 15 to 20)
#    1.200    0.400    4.000    1.200    0.000    2.400 
#    0.000    2.000    0.000    0.000    0.000    0.000 
#    0.000    0.000    0.000    0.000    0.000    0.000 
#
# Total GULP energy -111444.582161 kJ/mol
# GULP energy per Si atom -5572.229108 kJ/mol
# Density = 1.998760 g / cm^3
# Si number density = 20.033196 Si / 1000 Ang^3
#
#
#
# Elastic Constant Matrix: (Units=GPa)
#
#
# Indices 1 2 3 4 5 6 
#
# 1 75.9455 5.9299 -1.2070 0.0000 7.5318 0.0000
# 2 5.9299 86.4216 13.9818 0.0000 0.6648 0.0000
# 3 -1.2070 13.9818 57.0262 0.0000 8.2981 0.0000
# 4 0.0000 0.0000 0.0000 11.9611 0.0000 2.2176
# 5 7.5318 0.6648 8.2981 0.0000 21.0153 0.0000
# 6 0.0000 0.0000 0.0000 2.2176 0.0000 16.1244
#
#
#
# Elastic Compliance Matrix: (Units=1/GPa)
#
#
# Indices 1 2 3 4 5 6 
#
# 1 0.013818 -0.001127 0.001362 0.000000 -0.005455 0.000000
# 2 -0.001127 0.012155 -0.003190 0.000000 0.001279 0.000000
# 3 0.001362 -0.003190 0.019525 0.000000 -0.008097 0.000000
# 4 0.000000 0.000000 0.000000 0.085792 0.000000 -0.011799
# 5 -0.005455 0.001279 -0.008097 0.000000 0.052696 0.000000
# 6 0.000000 0.000000 0.000000 -0.011799 0.000000 0.063641
#
#
# Mechanical properties :
#
#
# Convention : Reuss Voigt Hill
#
# Bulk Modulus (GPa) = 25.25944 28.53363 26.89654
# Shear Modulus (GPa) = 18.74547 23.19940 20.97244
#
# Velocity S-wave (km/s) = 3.06227 3.40670 3.23907
# Velocity P-wave (km/s) = 5.01393 5.45420 5.23869
#
# Compressibility (1/GPa) = 0.03958916
#
# Stress axis : x y z
#
# Youngs Moduli (GPa) = 72.36990 82.27230 51.21636
#
# Poissons Ratio (x) = 0.09269 -0.06978
# Poissons Ratio (y) = 0.08153 0.16338
# Poissons Ratio (z) = -0.09860 0.26245
#
# Static dielectric constant tensor:
#      x y z
#    x 1.778840 0.000000 -0.038620 
#    y 0.000000 1.650010 0.000000 
#    z -0.038620 0.000000 1.749380 
# 
# From -- ./inp_files/304823.got.cif
#   From: 2010.05.17/outbox.cif.g08.bks.cpg/sg15_153_cif.got.tgz:304823.got - 2010.06.03 18:47:42.
