data_PCOD9285472
_publ_section_title
;
Structure prediction by ZEFSAII (Michael W. Deem and Ramdas Pophale) SiO2 
 PCOD9285472
Probable space group: C 2/C
;
_chemical_formula_sum "Si O2"
_cell_formula_units_Z 56
_cell_length_a 21.015704
_cell_length_b 21.286194
_cell_length_c 17.242012
_cell_angle_alpha 90.000000
_cell_angle_beta 159.629644
_cell_angle_gamma 90.000000
_cell_volume 2684.836149
_symmetry_space_group_name_H-M "C 2/C"
_symmetry_group_IT_number 15
_symmetry_cell_setting 'monoclinic'
loop_
_space_group_symop_operation_xyz
x,y,z
-x,y,1/2-z
-x,-y,-z
x,-y,1/2+z
1/2+x,1/2+y,z
1/2-x,1/2+y,1/2-z
1/2-x,1/2-y,-z
1/2+x,1/2-y,1/2+z
loop_
_atom_site_type_symbol
_atom_site_label
_atom_site_fract_x
_atom_site_fract_y
_atom_site_fract_z
Si Si1 0.814308 0.067939 0.353267
Si Si2 0.439289 0.119535 0.938661
Si Si3 0.468850 0.201232 0.828760
Si Si4 0.041057 0.937090 0.952215
Si Si5 0.985692 0.823254 0.142507
Si Si6 0.314232 0.665488 0.120377
Si Si7 0.607079 0.177110 0.450669
O O1 0.916248 0.067101 0.387101
O O2 0.853347 0.131362 0.444789
O O3 0.903886 0.009067 0.500382
O O4 0.595364 0.069231 0.094122
O O5 0.467069 0.180339 0.915414
O O6 0.235033 0.095517 0.690127
O O7 0.452195 0.137355 0.043306
O O8 0.447942 0.275295 0.788391
O O9 0.294034 0.172057 0.583977
O O10 0.652131 0.174885 0.998310
O O11 0.924661 0.898351 0.756870
O O12 0.181079 0.831036 0.325703
O O13 0.000000 0.839200 0.250000
O O14 0.928409 0.750600 0.073350
O O15 0.500000 0.160513 0.250000
#
# Coordination Sequence:
#
# PCOD9285472 Si02
#       7
#     8   8   8   8   8   8   8
#     4  11  24  43  63  92 127 175 219 264 311 391
#     4  12  23  41  69  96 127 170 221 268 332 386
#     4  10  22  37  68  97 131 168 213 276 333 389
#     4  11  24  42  67  88 133 172 220 261 321 382
#     4  11  22  42  64  94 130 166 212 270 332 388
#     4  10  21  42  61  98 135 167 218 272 330 389
#     4  11  23  39  66 100 129 165 212 276 336 394
#
# _framework density 20.857883999999999
#
# number of rings (size 3 to 8) (size 9 to 14) (size 15 to 20)
#    0.000    1.143    2.857    4.714    2.000    4.000 
#    2.571    0.000    3.143    0.000    0.000    0.000 
#    0.000    0.000    0.000    0.000    0.000    0.000 
#
# Total GULP energy -156573.414664 kJ/mol
# GULP energy per Si atom -5591.907667 kJ/mol
# Density = 2.081041 g / cm^3
# Si number density = 20.857884 Si / 1000 Ang^3
#
#
#
# Elastic Constant Matrix: (Units=GPa)
#
#
# Indices 1 2 3 4 5 6 
#
# 1 62.2805 -65.2506 27.3881 0.0000 63.9701 0.0000
# 2 -65.2506 -137.6827 22.1822 0.0001 94.8442 0.0001
# 3 27.3881 22.1822 105.2283 -0.0002 30.2399 -0.0001
# 4 0.0000 0.0001 -0.0002 34.4904 -0.0001 -5.8031
# 5 63.9701 94.8442 30.2399 -0.0001 -15.9356 -0.0001
# 6 0.0000 0.0001 -0.0001 -5.8031 -0.0001 16.8832
#
#
#
# Elastic Compliance Matrix: (Units=1/GPa)
#
#
# Indices 1 2 3 4 5 6 
#
# 1 0.011645 -0.008662 0.000114 0.000000 -0.004589 0.000000
# 2 -0.008662 0.012141 -0.007169 0.000000 0.023887 0.000000
# 3 0.000114 -0.007169 0.014959 0.000000 -0.013828 0.000000
# 4 0.000000 0.000000 0.000000 0.030773 0.000000 0.010577
# 5 -0.004589 0.023887 -0.013828 0.000000 0.034753 0.000000
# 6 0.000000 0.000000 0.000000 0.010577 0.000000 0.062866
#
#
# Mechanical properties :
#
#
# Convention : Reuss Voigt Hill
#
# Bulk Modulus (GPa) = 136.79091 -0.17050 68.31021
# Shear Modulus (GPa) = 24.87453 10.12135 17.49794
#
# Velocity S-wave (km/s) = 3.45711 2.20524 2.89954
# Velocity P-wave (km/s) = 9.03660 2.53025 6.63560
#
# Compressibility (1/GPa) = 0.00731043
#
# Stress axis : x y z
#
# Youngs Moduli (GPa) = 85.87318 82.36323 66.85068
#
# Poissons Ratio (x) = 0.71340 -0.00760
# Poissons Ratio (y) = 0.74380 0.47928
# Poissons Ratio (z) = -0.00976 0.59050
#
# Static dielectric constant tensor:
#      x y z
#    x 1.745380 0.000000 0.005800 
#    y 0.000000 1.804290 0.000000 
#    z 0.005800 0.000000 1.797280 
# 
# From -- ./inp_files/216667.got.cif
#   From: 2010.05.17/outbox.cif.g08.bks.cpg/sg15_109_cif.got.tgz:216667.got - 2010.06.03 18:47:42.
