data_PCOD9285201
_publ_section_title
;
Structure prediction by ZEFSAII (Michael W. Deem and Ramdas Pophale) SiO2 
 PCOD9285201
Probable space group: C 2/C
;
_chemical_formula_sum "Si O2"
_cell_formula_units_Z 60
_cell_length_a 14.687858
_cell_length_b 9.580049
_cell_length_c 20.867682
_cell_angle_alpha 90.000000
_cell_angle_beta 101.210412
_cell_angle_gamma 90.000000
_cell_volume 2880.274803
_symmetry_space_group_name_H-M "C 2/C"
_symmetry_group_IT_number 15
_symmetry_cell_setting 'monoclinic'
loop_
_space_group_symop_operation_xyz
x,y,z
-x,y,1/2-z
-x,-y,-z
x,-y,1/2+z
1/2+x,1/2+y,z
1/2-x,1/2+y,1/2-z
1/2-x,1/2-y,-z
1/2+x,1/2-y,1/2+z
loop_
_atom_site_type_symbol
_atom_site_label
_atom_site_fract_x
_atom_site_fract_y
_atom_site_fract_z
Si Si1 0.326842 0.108400 0.386275
Si Si2 0.177572 0.250214 0.431426
Si Si3 0.308035 0.903847 0.262555
Si Si4 0.899439 0.514677 0.019569
Si Si5 0.354948 0.591953 0.274918
Si Si6 0.051622 0.039980 0.352024
Si Si7 0.000000 0.474688 0.750000
Si Si8 0.475262 0.218277 0.121925
O O1 0.245085 0.221298 0.380927
O O2 0.422294 0.193784 0.393668
O O3 0.314750 0.000575 0.327109
O O4 0.330375 0.013099 0.451089
O O5 0.250000 0.250000 0.500000
O O6 0.120163 0.391380 0.432107
O O7 0.105256 0.123960 0.414603
O O8 0.302448 0.739427 0.273554
O O9 0.216740 0.968935 0.217621
O O10 0.407921 0.931728 0.243977
O O11 0.902802 0.655349 0.060795
O O12 0.000000 0.500000 0.000000
O O13 0.446583 0.593972 0.330938
O O14 0.396339 0.565109 0.208979
O O15 0.046981 0.876045 0.364356
O O16 0.981039 0.375296 0.686699
#
# Coordination Sequence:
#
# PCOD9285201 Si02
#       8
#     8   8   8   8   8   8   4   8
#     4   9  20  41  67  92 131 172 223 267 333 395
#     4  10  21  41  68  93 132 178 217 272 331 395
#     4  11  24  41  65  96 129 174 218 274 334 409
#     4   9  20  39  68  93 124 174 223 262 324 395
#     4  11  26  40  67  94 134 172 221 272 337 400
#     4  11  24  42  63  97 135 170 220 275 336 389
#     4  10  22  36  66  96 136 174 216 262 352 402
#     4  10  22  39  65  96 134 171 219 280 328 399
#
# _framework density 20.831344999999999
#
# number of rings (size 3 to 8) (size 9 to 14) (size 15 to 20)
#    0.000    1.867    1.333    1.600   13.067    0.000 
#    0.000    8.667    2.933    0.000    0.000    0.000 
#    0.000    0.000    0.000    0.000    0.000    0.000 
#
# Total GULP energy -167374.816469 kJ/mol
# GULP energy per Si atom -5579.160549 kJ/mol
# Density = 2.078393 g / cm^3
# Si number density = 20.831345 Si / 1000 Ang^3
#
#
#
# Elastic Constant Matrix: (Units=GPa)
#
#
# Indices 1 2 3 4 5 6 
#
# 1 101.9263 40.7927 19.3993 0.0000 9.9528 0.0000
# 2 40.7927 122.5386 15.1785 0.0000 0.3549 0.0000
# 3 19.3993 15.1785 60.2058 0.0000 9.3809 0.0000
# 4 0.0000 0.0000 0.0000 22.7150 0.0000 1.8748
# 5 9.9528 0.3549 9.3809 0.0000 29.0693 0.0000
# 6 0.0000 0.0000 0.0000 1.8748 0.0000 30.6954
#
#
#
# Elastic Compliance Matrix: (Units=1/GPa)
#
#
# Indices 1 2 3 4 5 6 
#
# 1 0.012084 -0.003710 -0.002443 0.000000 -0.003303 0.000000
# 2 -0.003710 0.009573 -0.001472 0.000000 0.001628 0.000000
# 3 -0.002443 -0.001472 0.018569 0.000000 -0.005138 0.000000
# 4 0.000000 0.000000 0.000000 0.044247 0.000000 -0.002702
# 5 -0.003303 0.001628 -0.005138 0.000000 0.037170 0.000000
# 6 0.000000 0.000000 0.000000 -0.002702 0.000000 0.032743
#
#
# Mechanical properties :
#
#
# Convention : Reuss Voigt Hill
#
# Bulk Modulus (GPa) = 40.04073 48.37908 44.20991
# Shear Modulus (GPa) = 28.09601 30.44928 29.27265
#
# Velocity S-wave (km/s) = 3.67650 3.82737 3.75269
# Velocity P-wave (km/s) = 6.10617 6.54265 6.32818
#
# Compressibility (1/GPa) = 0.02497457
#
# Stress axis : x y z
#
# Youngs Moduli (GPa) = 82.75694 104.45554 53.85446
#
# Poissons Ratio (x) = 0.38757 0.13159
# Poissons Ratio (y) = 0.30706 0.07926
# Poissons Ratio (z) = 0.20221 0.15373
#
# Static dielectric constant tensor:
#      x y z
#    x 1.788070 0.000000 0.015420 
#    y 0.000000 1.714650 0.000000 
#    z 0.015420 0.000000 1.825750 
# 
# From -- ./inp_files/272796.got.cif
#   From: 2010.05.17/outbox.cif.g08.bks.cpg/sg15_137_cif.got.tgz:272796.got - 2010.06.03 18:47:42.
