data_PCOD9285029
_publ_section_title
;
Structure prediction by ZEFSAII (Michael W. Deem and Ramdas Pophale) SiO2 
 PCOD9285029
Probable space group: C 2/C
;
_chemical_formula_sum "Si O2"
_cell_formula_units_Z 52
_cell_length_a 8.360485
_cell_length_b 26.433912
_cell_length_c 11.853176
_cell_angle_alpha 90.000000
_cell_angle_beta 109.660624
_cell_angle_gamma 90.000000
_cell_volume 2466.840853
_symmetry_space_group_name_H-M "C 2/C"
_symmetry_group_IT_number 15
_symmetry_cell_setting 'monoclinic'
loop_
_space_group_symop_operation_xyz
x,y,z
-x,y,1/2-z
-x,-y,-z
x,-y,1/2+z
1/2+x,1/2+y,z
1/2-x,1/2+y,1/2-z
1/2-x,1/2-y,-z
1/2+x,1/2-y,1/2+z
loop_
_atom_site_type_symbol
_atom_site_label
_atom_site_fract_x
_atom_site_fract_y
_atom_site_fract_z
Si Si1 0.535568 0.610734 0.637395
Si Si2 0.316054 0.916649 0.554909
Si Si3 0.817133 0.677885 0.589003
Si Si4 0.476801 0.076199 0.613397
Si Si5 0.193591 0.787684 0.815151
Si Si6 0.000000 0.664686 0.250000
Si Si7 0.679916 0.484430 0.094697
O O1 0.500000 0.633345 0.750000
O O2 0.366435 0.604675 0.524930
O O3 0.665225 0.645511 0.603666
O O4 0.626113 0.555839 0.677345
O O5 0.397019 0.936982 0.457259
O O6 0.430377 0.873107 0.636508
O O7 0.281987 0.963361 0.632471
O O8 0.969818 0.637331 0.618136
O O9 0.828697 0.727745 0.667774
O O10 0.768782 0.692617 0.450850
O O11 0.500000 0.059134 0.750000
O O12 0.296389 0.050370 0.541036
O O13 0.336897 0.803241 0.756866
O O14 0.000000 0.807614 0.750000
O O15 0.500000 0.500000 0.000000
#
# Coordination Sequence:
#
# PCOD9285029 Si02
#       7
#     8   8   8   8   8   4   8
#     4  10  21  41  66  96 127 170 228 280 337 398
#     4  11  22  41  62  95 132 170 219 270 331 404
#     4  10  22  43  63  95 132 167 220 282 332 390
#     4  11  21  39  67  93 127 165 218 277 331 389
#     4  11  24  45  67  95 136 178 222 275 340 402
#     4  12  26  44  66 102 136 180 230 260 338 422
#     4   9  21  39  59  86 129 169 213 269 328 393
#
# _framework density 21.079594
#
# number of rings (size 3 to 8) (size 9 to 14) (size 15 to 20)
#    0.000    1.538    1.538    3.692    2.154    0.000 
#    5.538    2.308    0.000    0.000    0.000    0.000 
#    0.000    0.000    0.000    0.000    0.000    0.000 
#
# Total GULP energy -144880.982141 kJ/mol
# GULP energy per Si atom -5572.345467 kJ/mol
# Density = 2.103162 g / cm^3
# Si number density = 21.079594 Si / 1000 Ang^3
#
#
#
# Elastic Constant Matrix: (Units=GPa)
#
#
# Indices 1 2 3 4 5 6 
#
# 1 112.3521 21.3744 35.0909 0.0000 -9.2309 0.0000
# 2 21.3744 78.0905 20.3196 0.0000 0.7910 0.0000
# 3 35.0909 20.3196 58.6539 0.0000 0.3222 0.0000
# 4 0.0000 0.0000 0.0000 10.7823 0.0000 9.1310
# 5 -9.2309 0.7910 0.3222 0.0000 31.5873 0.0000
# 6 0.0000 0.0000 0.0000 9.1310 0.0000 34.5814
#
#
#
# Elastic Compliance Matrix: (Units=1/GPa)
#
#
# Indices 1 2 3 4 5 6 
#
# 1 0.011455 -0.001519 -0.006346 0.000000 0.003450 0.000000
# 2 -0.001519 0.014279 -0.004034 0.000000 -0.000760 0.000000
# 3 -0.006346 -0.004034 0.022254 0.000000 -0.001980 0.000000
# 4 0.000000 0.000000 0.000000 0.119455 0.000000 -0.031541
# 5 0.003450 -0.000760 -0.001980 0.000000 0.032706 0.000000
# 6 0.000000 0.000000 0.000000 -0.031541 0.000000 0.037246
#
#
# Mechanical properties :
#
#
# Convention : Reuss Voigt Hill
#
# Bulk Modulus (GPa) = 41.33845 44.74067 43.03956
# Shear Modulus (GPa) = 18.56974 26.87764 22.72369
#
# Velocity S-wave (km/s) = 2.97127 3.57466 3.28684
# Velocity P-wave (km/s) = 5.60576 6.18937 5.90478
#
# Compressibility (1/GPa) = 0.02419056
#
# Stress axis : x y z
#
# Youngs Moduli (GPa) = 87.29735 70.03423 44.93574
#
# Poissons Ratio (x) = 0.10639 0.28516
# Poissons Ratio (y) = 0.13261 0.18125
# Poissons Ratio (z) = 0.55398 0.28249
#
# Static dielectric constant tensor:
#      x y z
#    x 1.790440 0.000000 0.038950 
#    y 0.000000 1.809360 0.000000 
#    z 0.038950 0.000000 1.770040 
# 
# From -- ./inp_files/80881.got.cif
#   From: 2010.05.17/outbox.cif.g08.bks.cpg/sg15_41_cif.got.tgz:80881.got - 2010.06.03 18:47:42.
