data_PCOD9285011
_publ_section_title
;
Structure prediction by ZEFSAII (Michael W. Deem and Ramdas Pophale) SiO2 
 PCOD9285011
Probable space group: C 2/C
;
_chemical_formula_sum "Si O2"
_cell_formula_units_Z 40
_cell_length_a 10.767516
_cell_length_b 12.144659
_cell_length_c 27.254948
_cell_angle_alpha 90.000000
_cell_angle_beta 33.258503
_cell_angle_gamma 90.000000
_cell_volume 1954.597689
_symmetry_space_group_name_H-M "C 2/C"
_symmetry_group_IT_number 15
_symmetry_cell_setting 'monoclinic'
loop_
_space_group_symop_operation_xyz
x,y,z
-x,y,1/2-z
-x,-y,-z
x,-y,1/2+z
1/2+x,1/2+y,z
1/2-x,1/2+y,1/2-z
1/2-x,1/2-y,-z
1/2+x,1/2-y,1/2+z
loop_
_atom_site_type_symbol
_atom_site_label
_atom_site_fract_x
_atom_site_fract_y
_atom_site_fract_z
Si Si1 0.494370 0.671445 0.868489
Si Si2 0.253802 0.450201 0.925079
Si Si3 0.142413 0.856390 0.976785
Si Si4 0.758979 0.590267 0.958994
Si Si5 0.982531 0.744665 0.699946
O O1 0.434437 0.550791 0.867653
O O2 0.279254 0.745477 0.926224
O O3 0.713156 0.739645 0.779570
O O4 0.499759 0.656762 0.925925
O O5 0.366884 0.356328 0.853613
O O6 0.235943 0.394889 0.984788
O O7 0.000000 0.500000 0.000000
O O8 0.301372 0.961077 0.934736
O O9 0.988723 0.883569 0.981162
O O10 0.920999 0.663574 0.872981
O O11 0.000000 0.703136 0.750000
#
# Coordination Sequence:
#
# PCOD9285011 Si02
#       5
#     8   8   8   8   8
#     4  10  22  40  66  96 129 173 221 275 336 391
#     4  11  26  44  67  95 139 183 215 268 354 413
#     4   9  19  40  68  91 126 173 215 271 335 403
#     4  10  21  41  66  94 129 172 222 265 336 410
#     4  12  25  40  67 100 132 170 228 283 327 391
#
# _framework density 20.464570999999999
#
# number of rings (size 3 to 8) (size 9 to 14) (size 15 to 20)
#    0.000    1.600    2.000    1.800    8.400    0.000 
#    0.000    3.000    0.000    0.000    0.000    0.000 
#    0.000    0.000    0.000    0.000    0.000    0.000 
#
# Total GULP energy -111521.923765 kJ/mol
# GULP energy per Si atom -5576.096188 kJ/mol
# Density = 2.041799 g / cm^3
# Si number density = 20.464571 Si / 1000 Ang^3
#
#
#
# Elastic Constant Matrix: (Units=GPa)
#
#
# Indices 1 2 3 4 5 6 
#
# 1 69.4090 1.5927 19.8167 0.0001 6.7846 -0.0002
# 2 1.5927 90.4716 46.1406 0.0005 0.7878 -0.0003
# 3 19.8167 46.1406 75.2721 0.0004 -10.5978 0.0004
# 4 0.0001 0.0005 0.0004 32.5372 0.0000 -4.6888
# 5 6.7846 0.7878 -10.5978 0.0000 26.9690 0.0002
# 6 -0.0002 -0.0003 0.0004 -4.6888 0.0002 22.4650
#
#
#
# Elastic Compliance Matrix: (Units=1/GPa)
#
#
# Indices 1 2 3 4 5 6 
#
# 1 0.017345 0.003836 -0.007990 0.000000 -0.007615 0.000000
# 2 0.003836 0.017486 -0.012635 0.000000 -0.006441 0.000001
# 3 -0.007990 -0.012635 0.024843 0.000000 0.012141 -0.000001
# 4 0.000000 0.000000 0.000000 0.031687 0.000000 0.006614
# 5 -0.007615 -0.006441 0.012141 0.000000 0.043955 -0.000001
# 6 0.000000 0.000001 -0.000001 0.006614 -0.000001 0.045894
#
#
# Mechanical properties :
#
#
# Convention : Reuss Voigt Hill
#
# Bulk Modulus (GPa) = 38.32090 41.13920 39.73005
# Shear Modulus (GPa) = 22.37275 27.56773 24.97024
#
# Velocity S-wave (km/s) = 3.31001 3.67426 3.49688
# Velocity P-wave (km/s) = 5.77705 6.17629 5.98000
#
# Compressibility (1/GPa) = 0.02609542
#
# Stress axis : x y z
#
# Youngs Moduli (GPa) = 57.65412 57.18971 40.25259
#
# Poissons Ratio (x) = -0.21936 0.32161
# Poissons Ratio (y) = -0.22115 0.50860
# Poissons Ratio (z) = 0.46064 0.72260
#
# Static dielectric constant tensor:
#      x y z
#    x 1.747850 0.000000 -0.036710 
#    y 0.000000 1.763780 0.000000 
#    z -0.036710 0.000000 1.735660 
# 
# From -- ./inp_files/141759.got.cif
#   From: 2010.05.17/outbox.cif.g08.bks.cpg/sg15_71_cif.got.tgz:141759.got - 2010.06.03 18:47:42.
