data_PCOD9285489
_publ_section_title
;
Structure prediction by ZEFSAII (Michael W. Deem and Ramdas Pophale) SiO2 
 PCOD9285489
Probable space group: C 2/C
;
_chemical_formula_sum "Si O2"
_cell_formula_units_Z 40
_cell_length_a 5.091969
_cell_length_b 24.215738
_cell_length_c 14.770963
_cell_angle_alpha 90.000000
_cell_angle_beta 100.813237
_cell_angle_gamma 90.000000
_cell_volume 1789.005295
_symmetry_space_group_name_H-M "C 2/C"
_symmetry_group_IT_number 15
_symmetry_cell_setting 'monoclinic'
loop_
_space_group_symop_operation_xyz
x,y,z
-x,y,1/2-z
-x,-y,-z
x,-y,1/2+z
1/2+x,1/2+y,z
1/2-x,1/2+y,1/2-z
1/2-x,1/2-y,-z
1/2+x,1/2-y,1/2+z
loop_
_atom_site_type_symbol
_atom_site_label
_atom_site_fract_x
_atom_site_fract_y
_atom_site_fract_z
Si Si1 0.826900 0.842032 0.579155
Si Si2 0.012823 0.958627 0.859186
Si Si3 0.703279 0.745555 0.193220
Si Si4 0.718812 0.830439 0.031677
Si Si5 0.708257 0.950920 0.015617
O O1 0.532563 0.816217 0.550186
O O2 0.798564 0.905240 0.610023
O O3 0.030140 0.808502 0.655760
O O4 0.990965 0.837292 0.495589
O O5 0.000000 0.963430 0.750000
O O6 0.779779 0.940306 0.914531
O O7 0.072119 0.018536 0.907254
O O8 0.500000 0.774814 0.250000
O O9 0.727681 0.785334 0.109039
O O10 0.000000 0.734237 0.250000
O O11 0.641025 0.892700 0.056098
O O12 0.500000 0.000000 0.000000
#
# Coordination Sequence:
#
# PCOD9285489 Si02
#       5
#     8   8   8   8   8
#     4  11  22  42  68  92 127 172 222 274 324 396
#     4  10  22  39  64  96 126 172 222 275 336 385
#     4  12  25  42  63  99 134 166 220 274 331 399
#     4  11  23  42  68  89 131 177 217 262 339 397
#     4  10  21  42  62  91 134 168 220 272 325 403
#
# _framework density 22.358795000000001
#
# number of rings (size 3 to 8) (size 9 to 14) (size 15 to 20)
#    0.000    1.200    2.000    4.200    0.000    1.600 
#    3.600    0.000    0.000    0.000    0.000    0.000 
#    0.000    0.000    0.000    0.000    0.000    0.000 
#
# Total GULP energy -111423.076609 kJ/mol
# GULP energy per Si atom -5571.153830 kJ/mol
# Density = 2.230791 g / cm^3
# Si number density = 22.358795 Si / 1000 Ang^3
#
#
#
# Elastic Constant Matrix: (Units=GPa)
#
#
# Indices 1 2 3 4 5 6 
#
# 1 95.0115 27.4633 39.6869 0.0000 13.1372 0.0000
# 2 27.4633 127.1652 42.8558 0.0000 7.2540 0.0000
# 3 39.6869 42.8558 112.7473 0.0000 -11.6278 0.0000
# 4 0.0000 0.0000 0.0000 17.8412 0.0000 6.3244
# 5 13.1372 7.2540 -11.6278 0.0000 39.3423 0.0000
# 6 0.0000 0.0000 0.0000 6.3244 0.0000 32.1880
#
#
#
# Elastic Compliance Matrix: (Units=1/GPa)
#
#
# Indices 1 2 3 4 5 6 
#
# 1 0.013739 -0.000910 -0.005102 0.000000 -0.005928 0.000000
# 2 -0.000910 0.009380 -0.003499 0.000000 -0.002460 0.000000
# 3 -0.005102 -0.003499 0.012622 0.000000 0.006079 0.000000
# 4 0.000000 0.000000 0.000000 0.060246 0.000000 -0.011837
# 5 -0.005928 -0.002460 0.006079 0.000000 0.029648 0.000000
# 6 0.000000 0.000000 0.000000 -0.011837 0.000000 0.033393
#
#
# Mechanical properties :
#
#
# Convention : Reuss Voigt Hill
#
# Bulk Modulus (GPa) = 59.80740 61.65955 60.73347
# Shear Modulus (GPa) = 27.23007 32.86882 30.04945
#
# Velocity S-wave (km/s) = 3.49358 3.83830 3.66999
# Velocity P-wave (km/s) = 6.56357 6.87609 6.72165
#
# Compressibility (1/GPa) = 0.01672034
#
# Stress axis : x y z
#
# Youngs Moduli (GPa) = 72.78798 106.61361 79.22704
#
# Poissons Ratio (x) = 0.09698 0.40418
# Poissons Ratio (y) = 0.06621 0.27719
# Poissons Ratio (z) = 0.37133 0.37301
#
# Static dielectric constant tensor:
#      x y z
#    x 1.929080 0.000000 0.049800 
#    y 0.000000 1.897860 0.000000 
#    z 0.049800 0.000000 1.955790 
# 
# From -- ./inp_files/129033.got.cif
#   From: 2010.05.17/outbox.cif.g08.bks.cpg/sg15_65_cif.got.tgz:129033.got - 2010.06.03 18:47:42.
