data_PCOD9285405
_publ_section_title
;
Structure prediction by ZEFSAII (Michael W. Deem and Ramdas Pophale) SiO2 
 PCOD9285405
Probable space group: C 2/C
;
_chemical_formula_sum "Si O2"
_cell_formula_units_Z 60
_cell_length_a 17.415189
_cell_length_b 5.413120
_cell_length_c 26.395019
_cell_angle_alpha 90.000000
_cell_angle_beta 86.457709
_cell_angle_gamma 90.000000
_cell_volume 2483.517918
_symmetry_space_group_name_H-M "C 2/C"
_symmetry_group_IT_number 15
_symmetry_cell_setting 'monoclinic'
loop_
_space_group_symop_operation_xyz
x,y,z
-x,y,1/2-z
-x,-y,-z
x,-y,1/2+z
1/2+x,1/2+y,z
1/2-x,1/2+y,1/2-z
1/2-x,1/2-y,-z
1/2+x,1/2-y,1/2+z
loop_
_atom_site_type_symbol
_atom_site_label
_atom_site_fract_x
_atom_site_fract_y
_atom_site_fract_z
Si Si1 0.715797 0.908154 0.821622
Si Si2 0.302514 0.222298 0.047970
Si Si3 0.152961 0.603057 0.635715
Si Si4 0.850016 0.747472 0.282364
Si Si5 0.742945 0.215735 0.060585
Si Si6 0.000000 0.065250 0.250000
Si Si7 0.066395 0.383016 0.899275
Si Si8 0.508931 0.628894 0.133640
O O1 0.768808 0.683493 0.839293
O O2 0.686178 0.870772 0.765823
O O3 0.637750 0.913261 0.857166
O O4 0.777841 0.129009 0.814508
O O5 0.305230 0.501465 0.069799
O O6 0.390823 0.141419 0.047770
O O7 0.258240 0.994367 0.077696
O O8 0.250000 0.250000 0.000000
O O9 0.111646 0.443748 0.680482
O O10 0.170113 0.425997 0.587134
O O11 0.100899 0.837714 0.625532
O O12 0.919330 0.923587 0.262701
O O13 0.750000 0.250000 0.000000
O O14 0.013178 0.173890 0.306149
O O15 0.021162 0.637351 0.896878
O O16 0.021098 0.135138 0.884930
#
# Coordination Sequence:
#
# PCOD9285405 Si02
#       8
#     8   8   8   8   8   4   8   8
#     4  12  25  39  68 101 136 185 251 300 343 414
#     4  10  21  41  74 106 131 170 233 302 369 431
#     4  12  26  44  68 101 142 196 240 303 360 437
#     4  12  26  43  64 104 145 193 247 306 348 436
#     4  10  22  42  73 106 132 173 239 302 365 427
#     4  12  26  48  62  98 156 206 242 278 376 424
#     4  12  26  45  69 105 139 190 237 300 354 436
#     4  12  29  43  68  98 152 196 239 285 365 434
#
# _framework density 24.159279000000002
#
# number of rings (size 3 to 8) (size 9 to 14) (size 15 to 20)
#    0.000    0.533    5.333    2.400    5.600    0.533 
#    0.000    0.000    0.000   19.200    0.000    0.000 
#    0.000    0.000    0.000    0.000    0.000    0.000 
#
# Total GULP energy -167234.986460 kJ/mol
# GULP energy per Si atom -5574.499549 kJ/mol
# Density = 2.410429 g / cm^3
# Si number density = 24.159279 Si / 1000 Ang^3
#
#
#
# Elastic Constant Matrix: (Units=GPa)
#
#
# Indices 1 2 3 4 5 6 
#
# 1 108.7778 36.8496 18.9889 0.0000 16.5216 0.0000
# 2 36.8496 122.8588 15.5657 0.0000 6.6663 0.0000
# 3 18.9889 15.5657 81.7315 0.0000 18.5825 0.0000
# 4 0.0000 0.0000 0.0000 33.8321 0.0000 4.3856
# 5 16.5216 6.6663 18.5825 0.0000 35.5990 0.0000
# 6 0.0000 0.0000 0.0000 4.3856 0.0000 43.1911
#
#
#
# Elastic Compliance Matrix: (Units=1/GPa)
#
#
# Indices 1 2 3 4 5 6 
#
# 1 0.010983 -0.002941 -0.001087 0.000000 -0.003979 0.000000
# 2 -0.002941 0.009150 -0.001112 0.000000 0.000232 0.000000
# 3 -0.001087 -0.001112 0.014226 0.000000 -0.006713 0.000000
# 4 0.000000 0.000000 0.000000 0.029952 0.000000 -0.003041
# 5 -0.003979 0.000232 -0.006713 0.000000 0.033398 0.000000
# 6 0.000000 0.000000 0.000000 -0.003041 0.000000 0.023462
#
#
# Mechanical properties :
#
#
# Convention : Reuss Voigt Hill
#
# Bulk Modulus (GPa) = 41.52915 50.68629 46.10772
# Shear Modulus (GPa) = 35.84822 38.65535 37.25179
#
# Velocity S-wave (km/s) = 3.85623 4.00437 3.93099
# Velocity P-wave (km/s) = 6.08723 6.51195 6.30317
#
# Compressibility (1/GPa) = 0.02407947
#
# Stress axis : x y z
#
# Youngs Moduli (GPa) = 91.04667 109.29266 70.29477
#
# Poissons Ratio (x) = 0.32139 0.07641
# Poissons Ratio (y) = 0.26774 0.07817
# Poissons Ratio (z) = 0.09897 0.12154
#
# Static dielectric constant tensor:
#      x y z
#    x 1.975950 0.000000 0.060720 
#    y 0.000000 2.011640 0.000000 
#    z 0.060720 0.000000 2.205330 
# 
# From -- ./inp_files/314890.got.cif
#   From: 2010.05.17/outbox.cif.g08.bks.cpg/sg15_158_cif.got.tgz:314890.got - 2010.06.03 18:47:42.
