data_PCOD9285722
_publ_section_title
;
Structure prediction by ZEFSAII (Michael W. Deem and Ramdas Pophale) SiO2 
 PCOD9285722
Probable space group: C 2/C
;
_chemical_formula_sum "Si O2"
_cell_formula_units_Z 64
_cell_length_a 17.159530
_cell_length_b 12.541618
_cell_length_c 30.071844
_cell_angle_alpha 90.000000
_cell_angle_beta 30.178540
_cell_angle_gamma 90.000000
_cell_volume 3253.303785
_symmetry_space_group_name_H-M "C 2/C"
_symmetry_group_IT_number 15
_symmetry_cell_setting 'monoclinic'
loop_
_space_group_symop_operation_xyz
x,y,z
-x,y,1/2-z
-x,-y,-z
x,-y,1/2+z
1/2+x,1/2+y,z
1/2-x,1/2+y,1/2-z
1/2-x,1/2-y,-z
1/2+x,1/2-y,1/2+z
loop_
_atom_site_type_symbol
_atom_site_label
_atom_site_fract_x
_atom_site_fract_y
_atom_site_fract_z
Si Si1 0.989882 0.271245 0.850400
Si Si2 0.957312 0.351125 0.406162
Si Si3 0.334672 0.017506 0.240192
Si Si4 0.907175 0.112821 0.412192
Si Si5 0.357831 0.749881 0.009615
Si Si6 0.523048 0.475231 0.437569
Si Si7 0.393143 0.092693 0.572773
Si Si8 0.876324 0.960800 0.237341
O O1 0.826817 0.260441 0.905404
O O2 0.099341 0.366846 0.780353
O O3 0.076201 0.157203 0.803742
O O4 0.934963 0.301719 0.927571
O O5 0.978119 0.231125 0.378274
O O6 0.776223 0.374731 0.501391
O O7 0.028428 0.434639 0.336338
O O8 0.039282 0.366185 0.413498
O O9 0.206397 0.974747 0.337328
O O10 0.241021 0.017492 0.239634
O O11 0.950691 0.058286 0.437910
O O12 0.974649 0.036368 0.340458
O O13 0.390016 0.814938 0.038002
O O14 0.437751 0.635413 0.971020
O O15 0.500000 0.500000 0.500000
O O16 0.219126 0.052821 0.670386
O O17 0.500000 0.000000 0.500000
#
# Coordination Sequence:
#
# PCOD9285722 Si02
#       8
#     8   8   8   8   8   8   8   8
#     4  11  23  41  67  95 126 171 223 263 327 400
#     4  10  22  41  67  92 124 170 218 258 327 396
#     4  10  22  37  64  89 124 165 217 259 317 397
#     4  10  21  42  66  90 125 170 217 265 317 403
#     4  11  23  41  65  94 129 166 213 276 328 383
#     4  11  23  38  61  91 128 168 211 271 329 378
#     4  11  25  41  63  98 132 168 210 278 328 389
#     4  10  23  39  66  92 128 172 215 265 329 386
#
# _framework density 19.67231
#
# number of rings (size 3 to 8) (size 9 to 14) (size 15 to 20)
#    0.000    1.500    2.500    3.000   12.250    1.500 
#    0.000    1.875    0.000    3.000    0.000    0.000 
#    0.000    0.000    0.000    0.000    0.000    0.000 
#
# Total GULP energy -178707.568747 kJ/mol
# GULP energy per Si atom -5584.611523 kJ/mol
# Density = 1.962753 g / cm^3
# Si number density = 19.672310 Si / 1000 Ang^3
#
#
#
# Elastic Constant Matrix: (Units=GPa)
#
#
# Indices 1 2 3 4 5 6 
#
# 1 42.9367 16.7857 19.4527 0.0000 -2.0040 0.0000
# 2 16.7857 114.6408 45.3965 0.0000 -7.5120 0.0000
# 3 19.4527 45.3965 90.8602 -0.0005 -3.8120 0.0000
# 4 0.0000 0.0000 -0.0005 24.2307 0.0000 -11.8230
# 5 -2.0040 -7.5120 -3.8120 0.0000 22.5300 0.0000
# 6 0.0000 0.0000 0.0000 -11.8230 0.0000 16.9485
#
#
#
# Elastic Compliance Matrix: (Units=1/GPa)
#
#
# Indices 1 2 3 4 5 6 
#
# 1 0.026176 -0.001957 -0.004589 0.000000 0.000899 0.000000
# 2 -0.001957 0.011189 -0.005058 0.000000 0.002701 0.000000
# 3 -0.004589 -0.005058 0.014531 0.000000 0.000364 0.000000
# 4 0.000000 0.000000 0.000000 0.062566 0.000000 0.043645
# 5 0.000899 0.002701 0.000364 0.000000 0.045427 0.000000
# 6 0.000000 0.000000 0.000000 0.043645 0.000000 0.089448
#
#
# Mechanical properties :
#
#
# Convention : Reuss Voigt Hill
#
# Bulk Modulus (GPa) = 34.85689 45.74528 40.30108
# Shear Modulus (GPa) = 17.72369 23.86203 20.79286
#
# Velocity S-wave (km/s) = 3.00483 3.48656 3.25462
# Velocity P-wave (km/s) = 5.45856 6.28588 5.88677
#
# Compressibility (1/GPa) = 0.02868873
#
# Stress axis : x y z
#
# Youngs Moduli (GPa) = 38.20298 89.37019 68.81873
#
# Poissons Ratio (x) = 0.17486 0.31580
# Poissons Ratio (y) = 0.07475 0.34811
# Poissons Ratio (z) = 0.17531 0.45207
#
# Static dielectric constant tensor:
#      x y z
#    x 1.716690 0.000000 -0.011280 
#    y 0.000000 1.784170 0.000000 
#    z -0.011280 0.000000 1.728810 
# 
# From -- ./inp_files/316163.got.cif
#   From: 2010.05.17/outbox.cif.g08.bks.cpg/sg15_159_cif.got.tgz:316163.got - 2010.06.03 18:47:42.
