data_PCOD9285730
_publ_section_title
;
Structure prediction by ZEFSAII (Michael W. Deem and Ramdas Pophale) SiO2 
 PCOD9285730
Probable space group: C 2/C
;
_chemical_formula_sum "Si O2"
_cell_formula_units_Z 56
_cell_length_a 8.984726
_cell_length_b 18.395940
_cell_length_c 18.441724
_cell_angle_alpha 90.000000
_cell_angle_beta 123.328036
_cell_angle_gamma 90.000000
_cell_volume 2546.800138
_symmetry_space_group_name_H-M "C 2/C"
_symmetry_group_IT_number 15
_symmetry_cell_setting 'monoclinic'
loop_
_space_group_symop_operation_xyz
x,y,z
-x,y,1/2-z
-x,-y,-z
x,-y,1/2+z
1/2+x,1/2+y,z
1/2-x,1/2+y,1/2-z
1/2-x,1/2-y,-z
1/2+x,1/2-y,1/2+z
loop_
_atom_site_type_symbol
_atom_site_label
_atom_site_fract_x
_atom_site_fract_y
_atom_site_fract_z
Si Si1 0.253545 0.763780 0.630842
Si Si2 0.966263 0.574465 0.535314
Si Si3 0.485340 0.902644 0.665508
Si Si4 0.796804 0.190432 0.217121
Si Si5 0.157860 0.902390 0.346052
Si Si6 0.888705 0.265057 0.971586
Si Si7 0.325419 0.511746 0.499752
O O1 0.399323 0.822723 0.649461
O O2 0.210168 0.774648 0.704551
O O3 0.332971 0.684129 0.638861
O O4 0.072227 0.777056 0.536912
O O5 0.957951 0.650978 0.492282
O O6 0.768683 0.565796 0.512712
O O7 0.000000 0.500000 0.500000
O O8 0.143595 0.579288 0.631405
O O9 0.500000 0.934415 0.750000
O O10 0.682641 0.884790 0.689569
O O11 0.337137 0.946503 0.582860
O O12 0.709133 0.241397 0.131565
O O13 0.000000 0.176333 0.250000
O O14 0.136085 0.945957 0.415293
O O15 0.000000 0.920512 0.250000
O O16 0.750000 0.250000 0.000000
O O17 0.500000 0.500000 0.500000
#
# Coordination Sequence:
#
# PCOD9285730 Si02
#       7
#     8   8   8   8   8   8   8
#     4  10  22  41  62  99 132 166 212 276 334 397
#     4   9  21  42  61  88 130 170 217 266 323 394
#     4  10  23  41  65  94 133 166 217 276 334 389
#     4  11  21  37  62  97 131 170 217 271 329 403
#     4  10  21  42  66  91 130 173 210 261 336 390
#     4  11  22  38  66  93 128 169 219 277 334 381
#     4  11  25  43  65  94 127 172 222 269 313 395
#
# _framework density 21.988375999999999
#
# number of rings (size 3 to 8) (size 9 to 14) (size 15 to 20)
#    0.000    1.714    1.429    3.857    2.000    4.571 
#    0.000    6.429    0.000    0.000    0.000    0.000 
#    0.000    0.000    0.000    0.000    0.000    0.000 
#
# Total GULP energy -156305.676335 kJ/mol
# GULP energy per Si atom -5582.345583 kJ/mol
# Density = 2.193833 g / cm^3
# Si number density = 21.988376 Si / 1000 Ang^3
#
#
#
# Elastic Constant Matrix: (Units=GPa)
#
#
# Indices 1 2 3 4 5 6 
#
# 1 125.2176 6.7747 48.4354 0.0000 15.6611 0.0000
# 2 6.7747 48.3276 12.3929 0.0000 2.9345 0.0000
# 3 48.4354 12.3929 177.6424 0.0000 12.2815 0.0000
# 4 0.0000 0.0000 0.0000 19.7574 0.0000 5.7032
# 5 15.6611 2.9345 12.2815 0.0000 34.5551 0.0000
# 6 0.0000 0.0000 0.0000 5.7032 0.0000 16.6688
#
#
#
# Elastic Compliance Matrix: (Units=1/GPa)
#
#
# Indices 1 2 3 4 5 6 
#
# 1 0.009314 -0.000519 -0.002270 0.000000 -0.003370 0.000000
# 2 -0.000519 0.021155 -0.001257 0.000000 -0.001115 0.000000
# 3 -0.002270 -0.001257 0.006415 0.000000 -0.001144 0.000000
# 4 0.000000 0.000000 0.000000 0.056161 0.000000 -0.019215
# 5 -0.003370 -0.001115 -0.001144 0.000000 0.030968 0.000000
# 6 0.000000 0.000000 0.000000 -0.019215 0.000000 0.066567
#
#
# Mechanical properties :
#
#
# Convention : Reuss Voigt Hill
#
# Bulk Modulus (GPa) = 34.73300 54.04373 44.38837
# Shear Modulus (GPa) = 24.00742 33.10191 28.55467
#
# Velocity S-wave (km/s) = 3.30786 3.88419 3.60755
# Velocity P-wave (km/s) = 5.51540 6.68937 6.13055
#
# Compressibility (1/GPa) = 0.02879106
#
# Stress axis : x y z
#
# Youngs Moduli (GPa) = 107.36689 47.27033 155.88161
#
# Poissons Ratio (x) = 0.02452 0.35390
# Poissons Ratio (y) = 0.05570 0.19599
# Poissons Ratio (z) = 0.24375 0.05943
#
# Static dielectric constant tensor:
#      x y z
#    x 1.872740 0.000000 -0.033330 
#    y 0.000000 1.846840 0.000000 
#    z -0.033330 0.000000 1.851870 
# 
# From -- ./inp_files/233923.got.cif
#   From: 2010.05.17/outbox.cif.g08.bks.cpg/sg15_117_cif.got.tgz:233923.got - 2010.06.03 18:47:42.
