data_PCOD9285238
_publ_section_title
;
Structure prediction by ZEFSAII (Michael W. Deem and Ramdas Pophale) SiO2 
 PCOD9285238
Probable space group: C 2/C
;
_chemical_formula_sum "Si O2"
_cell_formula_units_Z 52
_cell_length_a 18.283101
_cell_length_b 15.066519
_cell_length_c 8.969704
_cell_angle_alpha 90.000000
_cell_angle_beta 120.356301
_cell_angle_gamma 90.000000
_cell_volume 2132.067958
_symmetry_space_group_name_H-M "C 2/C"
_symmetry_group_IT_number 15
_symmetry_cell_setting 'monoclinic'
loop_
_space_group_symop_operation_xyz
x,y,z
-x,y,1/2-z
-x,-y,-z
x,-y,1/2+z
1/2+x,1/2+y,z
1/2-x,1/2+y,1/2-z
1/2-x,1/2-y,-z
1/2+x,1/2-y,1/2+z
loop_
_atom_site_type_symbol
_atom_site_label
_atom_site_fract_x
_atom_site_fract_y
_atom_site_fract_z
Si Si1 0.500000 0.286064 0.250000
Si Si2 0.879280 0.726579 0.380765
Si Si3 0.258874 0.937808 0.683721
Si Si4 0.432195 0.418733 0.935191
Si Si5 0.744880 0.831880 0.107280
Si Si6 0.392265 0.917214 0.405123
Si Si7 0.500000 0.706290 0.250000
Si Si8 0.500000 0.973866 0.250000
O O1 0.443434 0.227807 0.305360
O O2 0.552279 0.354351 0.407147
O O3 0.817395 0.641803 0.312268
O O4 0.821471 0.814333 0.297848
O O5 0.933277 0.738252 0.584145
O O6 0.165830 0.946023 0.656291
O O7 0.250398 0.915020 0.499133
O O8 0.313258 0.024742 0.767208
O O9 0.450164 0.357712 0.811432
O O10 0.500000 0.500000 0.000000
O O11 0.653800 0.828184 0.093059
O O12 0.750000 0.750000 0.000000
O O13 0.456213 0.918090 0.335028
O O14 0.435621 0.963786 0.591579
#
# Coordination Sequence:
#
# PCOD9285238 Si02
#       8
#     4   8   8   8   8   8   4   4
#     4  10  21  41  68  98 138 198 240 306 361 459
#     4  10  23  45  70 104 147 190 252 300 382 453
#     4  11  24  42  74 107 141 197 252 314 371 451
#     4  11  24  41  67 103 148 192 250 313 380 451
#     4  10  22  45  72 106 137 201 257 308 369 459
#     4  11  23  44  73 108 152 199 252 315 376 464
#     4  10  25  43  64 106 148 198 234 322 391 445
#     4  10  24  44  66 110 158 196 246 302 392 438
#
# _framework density 24.389468000000001
#
# number of rings (size 3 to 8) (size 9 to 14) (size 15 to 20)
#    0.000    1.538    3.077    0.462    4.308    4.308 
#    2.769    1.538    0.000    0.000    0.000    0.000 
#    0.000    0.000    0.000    0.000    0.000    0.000 
#
# Total GULP energy -145673.284285 kJ/mol
# GULP energy per Si atom -5602.818626 kJ/mol
# Density = 2.433396 g / cm^3
# Si number density = 24.389468 Si / 1000 Ang^3
#
#
#
# Elastic Constant Matrix: (Units=GPa)
#
#
# Indices 1 2 3 4 5 6 
#
# 1 153.3211 50.6444 42.8398 0.0000 17.5169 0.0000
# 2 50.6444 86.6267 42.9981 0.0000 10.0640 0.0000
# 3 42.8398 42.9981 151.6614 0.0000 8.8780 0.0000
# 4 0.0000 0.0000 0.0000 32.4891 0.0000 11.2240
# 5 17.5169 10.0640 8.8780 0.0000 42.9171 0.0000
# 6 0.0000 0.0000 0.0000 11.2240 0.0000 52.4675
#
#
#
# Elastic Compliance Matrix: (Units=1/GPa)
#
#
# Indices 1 2 3 4 5 6 
#
# 1 0.008450 -0.004142 -0.001081 0.000000 -0.002254 0.000000
# 2 -0.004142 0.015711 -0.003207 0.000000 -0.001330 0.000000
# 3 -0.001081 -0.003207 0.007833 0.000000 -0.000427 0.000000
# 4 0.000000 0.000000 0.000000 0.033236 0.000000 -0.007110
# 5 -0.002254 -0.001330 -0.000427 0.000000 0.024621 0.000000
# 6 0.000000 0.000000 0.000000 -0.007110 0.000000 0.020580
#
#
# Mechanical properties :
#
#
# Convention : Reuss Voigt Hill
#
# Bulk Modulus (GPa) = 66.06647 73.84151 69.95399
# Shear Modulus (GPa) = 37.78294 42.58320 40.18307
#
# Velocity S-wave (km/s) = 3.94019 4.18301 4.06342
# Velocity P-wave (km/s) = 6.91716 7.32610 7.12457
#
# Compressibility (1/GPa) = 0.01513627
#
# Stress axis : x y z
#
# Youngs Moduli (GPa) = 118.34579 63.64824 127.66486
#
# Poissons Ratio (x) = 0.26361 0.13796
# Poissons Ratio (y) = 0.49016 0.40937
# Poissons Ratio (z) = 0.12789 0.20409
#
# Static dielectric constant tensor:
#      x y z
#    x 2.042720 0.000000 0.012430 
#    y 0.000000 2.019730 0.000000 
#    z 0.012430 0.000000 1.945880 
# 
# From -- ./inp_files/49257.got.cif
#   From: 2010.05.17/outbox.cif.g08.bks.cpg/sg15_25_cif.got.tgz:49257.got - 2010.06.03 18:47:42.
