data_PCOD9285111
_publ_section_title
;
Structure prediction by ZEFSAII (Michael W. Deem and Ramdas Pophale) SiO2 
 PCOD9285111
Probable space group: C 2/C
;
_chemical_formula_sum "Si O2"
_cell_formula_units_Z 48
_cell_length_a 9.269879
_cell_length_b 15.900662
_cell_length_c 27.759989
_cell_angle_alpha 90.000000
_cell_angle_beta 37.611000
_cell_angle_gamma 90.000000
_cell_volume 2497.180771
_symmetry_space_group_name_H-M "C 2/C"
_symmetry_group_IT_number 15
_symmetry_cell_setting 'monoclinic'
loop_
_space_group_symop_operation_xyz
x,y,z
-x,y,1/2-z
-x,-y,-z
x,-y,1/2+z
1/2+x,1/2+y,z
1/2-x,1/2+y,1/2-z
1/2-x,1/2-y,-z
1/2+x,1/2-y,1/2+z
loop_
_atom_site_type_symbol
_atom_site_label
_atom_site_fract_x
_atom_site_fract_y
_atom_site_fract_z
Si Si1 0.625735 0.320288 0.091989
Si Si2 0.779042 0.007064 0.420187
Si Si3 0.485083 0.649534 0.309504
Si Si4 0.609517 0.727300 0.945726
Si Si5 0.505579 0.831332 0.693504
Si Si6 0.989489 0.074842 0.042334
O O1 0.615168 0.414266 0.114189
O O2 0.485620 0.314765 0.078569
O O3 0.525950 0.248523 0.153129
O O4 0.901214 0.294699 0.011640
O O5 0.832797 0.067531 0.361364
O O6 0.890150 0.046545 0.439665
O O7 0.500000 0.000000 0.500000
O O8 0.500000 0.672718 0.250000
O O9 0.355335 0.724883 0.372306
O O10 0.750181 0.628161 0.254333
O O11 0.613924 0.656607 0.985639
O O12 0.500000 0.802663 0.750000
O O13 0.722002 0.893707 0.624180
O O14 0.000000 0.000000 0.000000
#
# Coordination Sequence:
#
# PCOD9285111 Si02
#       6
#     8   8   8   8   8   8
#     4  10  21  41  67  93 131 173 218 263 328 404
#     4  12  25  42  68 104 133 167 225 282 330 391
#     4  12  25  43  66  98 134 173 220 278 337 384
#     4  10  21  41  69  91 126 181 219 257 326 410
#     4  11  24  44  66  96 136 177 221 279 333 393
#     4  11  24  43  70  97 133 180 223 265 332 407
#
# _framework density 19.221675000000001
#
# number of rings (size 3 to 8) (size 9 to 14) (size 15 to 20)
#    0.000    1.000    6.667    0.000    2.333    2.667 
#    3.000    2.500    0.000    0.000    0.000    0.000 
#    0.000    0.000    0.000    0.000    0.000    0.000 
#
# Total GULP energy -134025.741782 kJ/mol
# GULP energy per Si atom -5584.405908 kJ/mol
# Density = 1.917793 g / cm^3
# Si number density = 19.221675 Si / 1000 Ang^3
#
#
#
# Elastic Constant Matrix: (Units=GPa)
#
#
# Indices 1 2 3 4 5 6 
#
# 1 37.9178 -1.7872 13.8086 0.0006 -12.9151 0.0000
# 2 -1.7872 93.1213 35.5675 0.0004 -14.3960 -0.0008
# 3 13.8086 35.5675 114.1565 -0.0007 -16.0159 -0.0019
# 4 0.0006 0.0004 -0.0007 11.4364 0.0000 0.2275
# 5 -12.9151 -14.3960 -16.0159 0.0000 29.6308 0.0007
# 6 0.0000 -0.0008 -0.0019 0.2275 0.0007 24.8465
#
#
#
# Elastic Compliance Matrix: (Units=1/GPa)
#
#
# Indices 1 2 3 4 5 6 
#
# 1 0.032666 0.004087 -0.003191 -0.000002 0.014499 -0.000001
# 2 0.004087 0.013200 -0.003741 -0.000001 0.006173 0.000000
# 3 -0.003191 -0.003741 0.010671 0.000001 0.002559 0.000001
# 4 -0.000002 -0.000001 0.000001 0.087456 -0.000001 -0.000801
# 5 0.014499 0.006173 0.002559 -0.000001 0.044451 -0.000001
# 6 -0.000001 0.000000 0.000001 -0.000801 -0.000001 0.040254
#
#
# Mechanical properties :
#
#
# Convention : Reuss Voigt Hill
#
# Bulk Modulus (GPa) = 19.66670 37.81926 28.74298
# Shear Modulus (GPa) = 19.89369 26.35653 23.12511
#
# Velocity S-wave (km/s) = 3.22057 3.70697 3.47230
# Velocity P-wave (km/s) = 4.90746 6.16768 5.57330
#
# Compressibility (1/GPa) = 0.05084737
#
# Stress axis : x y z
#
# Youngs Moduli (GPa) = 30.61296 75.75599 93.71607
#
# Poissons Ratio (x) = -0.30962 0.29900
# Poissons Ratio (y) = -0.12512 0.35061
# Poissons Ratio (z) = 0.09767 0.28342
#
# Static dielectric constant tensor:
#      x y z
#    x 1.778410 0.000000 0.010390 
#    y 0.000000 1.657540 0.000000 
#    z 0.010390 0.000000 1.657720 
# 
# From -- ./inp_files/182437.got.cif
#   From: 2010.05.17/outbox.cif.g08.bks.cpg/sg15_92_cif.got.tgz:182437.got - 2010.06.03 18:47:42.
