data_PCOD9285282
_publ_section_title
;
Structure prediction by ZEFSAII (Michael W. Deem and Ramdas Pophale) SiO2 
 PCOD9285282
Probable space group: C 2/C
;
_chemical_formula_sum "Si O2"
_cell_formula_units_Z 64
_cell_length_a 20.237948
_cell_length_b 22.213762
_cell_length_c 13.300906
_cell_angle_alpha 90.000000
_cell_angle_beta 29.759141
_cell_angle_gamma 90.000000
_cell_volume 2967.988573
_symmetry_space_group_name_H-M "C 2/C"
_symmetry_group_IT_number 15
_symmetry_cell_setting 'monoclinic'
loop_
_space_group_symop_operation_xyz
x,y,z
-x,y,1/2-z
-x,-y,-z
x,-y,1/2+z
1/2+x,1/2+y,z
1/2-x,1/2+y,1/2-z
1/2-x,1/2-y,-z
1/2+x,1/2-y,1/2+z
loop_
_atom_site_type_symbol
_atom_site_label
_atom_site_fract_x
_atom_site_fract_y
_atom_site_fract_z
Si Si1 0.085856 0.236791 0.543114
Si Si2 0.369041 0.333701 0.855641
Si Si3 0.340667 0.425838 0.727042
Si Si4 0.526762 0.050797 0.381115
Si Si5 0.450805 0.385795 0.200940
Si Si6 0.887772 0.286739 0.202815
Si Si7 0.797821 0.548229 0.536288
Si Si8 0.663026 0.842640 0.822329
O O1 0.113934 0.281432 0.415388
O O2 0.226006 0.200974 0.375828
O O3 0.000000 0.261854 0.750000
O O4 0.988493 0.183474 0.631856
O O5 0.500000 0.325789 0.750000
O O6 0.377947 0.395794 0.783321
O O7 0.365135 0.279033 0.780517
O O8 0.231609 0.328214 0.099337
O O9 0.463164 0.425264 0.488910
O O10 0.281474 0.491201 0.818155
O O11 0.235881 0.380399 0.812987
O O12 0.392571 0.069878 0.500793
O O13 0.601610 0.107625 0.329529
O O14 0.500000 0.000000 0.500000
O O15 0.617153 0.025726 0.171415
O O16 0.500000 0.397721 0.250000
O O17 0.299886 0.401125 0.377407
O O18 0.036686 0.307408 0.033391
#
# Coordination Sequence:
#
# PCOD9285282 Si02
#       8
#     8   8   8   8   8   8   8   8
#     4  10  21  44  69  95 130 173 217 275 333 392
#     4  11  25  42  63  99 135 170 218 273 327 395
#     4  11  23  43  67  96 131 170 218 263 334 395
#     4  11  24  42  63  92 130 170 218 269 320 386
#     4  10  21  41  69  95 130 169 212 270 331 388
#     4  11  24  42  68  95 129 177 218 275 327 391
#     4  11  24  41  67  96 128 173 215 267 326 393
#     4  11  23  44  66  95 129 175 222 266 333 384
#
# _framework density 21.563424999999999
#
# number of rings (size 3 to 8) (size 9 to 14) (size 15 to 20)
#    0.000    1.250    3.750    3.375    3.500    2.000 
#    4.500    0.000    0.000    0.000    0.000    0.000 
#    0.000    0.000    0.000    0.000    0.000    0.000 
#
# Total GULP energy -178858.751364 kJ/mol
# GULP energy per Si atom -5589.335980 kJ/mol
# Density = 2.151435 g / cm^3
# Si number density = 21.563425 Si / 1000 Ang^3
#
#
#
# Elastic Constant Matrix: (Units=GPa)
#
#
# Indices 1 2 3 4 5 6 
#
# 1 98.9262 14.8944 36.9848 0.0022 -1.3000 -0.0022
# 2 14.8944 23.6894 19.5887 0.0012 3.8140 -0.0012
# 3 36.9848 19.5887 131.5436 0.0021 7.2998 -0.0023
# 4 0.0022 0.0012 0.0021 11.3172 -0.0017 -13.8008
# 5 -1.3000 3.8140 7.2998 -0.0017 38.7435 0.0018
# 6 -0.0022 -0.0012 -0.0023 -13.8008 0.0018 23.3402
#
#
#
# Elastic Compliance Matrix: (Units=1/GPa)
#
#
# Indices 1 2 3 4 5 6 
#
# 1 0.011943 -0.005586 -0.002606 -0.000002 0.001442 0.000000
# 2 -0.005586 0.051207 -0.005826 -0.000006 -0.004131 -0.000002
# 3 -0.002606 -0.005826 0.009272 -0.000001 -0.001261 0.000000
# 4 -0.000002 -0.000006 -0.000001 0.316764 0.000006 0.187299
# 5 0.001442 -0.004131 -0.001261 0.000006 0.026503 0.000002
# 6 0.000000 -0.000002 0.000000 0.187299 0.000002 0.153593
#
#
# Mechanical properties :
#
#
# Convention : Reuss Voigt Hill
#
# Bulk Modulus (GPa) = 22.52917 44.12169 33.32543
# Shear Modulus (GPa) = 8.16842 26.85961 17.51402
#
# Velocity S-wave (km/s) = 1.94841 3.53315 2.85302
# Velocity P-wave (km/s) = 3.94110 6.09508 5.13236
#
# Compressibility (1/GPa) = 0.04438690
#
# Stress axis : x y z
#
# Youngs Moduli (GPa) = 83.73230 19.52842 107.84867
#
# Poissons Ratio (x) = 0.10909 0.28105
# Poissons Ratio (y) = 0.46774 0.62829
# Poissons Ratio (z) = 0.21821 0.11377
#
# Static dielectric constant tensor:
#      x y z
#    x 1.786980 0.000000 -0.004430 
#    y 0.000000 1.754910 0.000000 
#    z -0.004430 0.000000 1.820770 
# 
# From -- ./inp_files/108637.got.cif
#   From: 2010.05.17/outbox.cif.g08.bks.cpg/sg15_55_cif.got.tgz:108637.got - 2010.06.03 18:47:42.
