data_PCOD9285532
_publ_section_title
;
Structure prediction by ZEFSAII (Michael W. Deem and Ramdas Pophale) SiO2 
 PCOD9285532
Probable space group: C 2/C
;
_chemical_formula_sum "Si O2"
_cell_formula_units_Z 56
_cell_length_a 24.986057
_cell_length_b 13.983149
_cell_length_c 15.606900
_cell_angle_alpha 90.000000
_cell_angle_beta 30.623579
_cell_angle_gamma 90.000000
_cell_volume 2777.630961
_symmetry_space_group_name_H-M "C 2/C"
_symmetry_group_IT_number 15
_symmetry_cell_setting 'monoclinic'
loop_
_space_group_symop_operation_xyz
x,y,z
-x,y,1/2-z
-x,-y,-z
x,-y,1/2+z
1/2+x,1/2+y,z
1/2-x,1/2+y,1/2-z
1/2-x,1/2-y,-z
1/2+x,1/2-y,1/2+z
loop_
_atom_site_type_symbol
_atom_site_label
_atom_site_fract_x
_atom_site_fract_y
_atom_site_fract_z
Si Si1 0.517677 0.071516 0.861558
Si Si2 0.615977 0.492571 0.434251
Si Si3 0.124759 0.245553 0.175728
Si Si4 0.500000 0.091782 0.250000
Si Si5 0.353952 0.803516 0.831504
Si Si6 0.500000 0.407124 0.750000
Si Si7 0.004118 0.833210 0.483097
Si Si8 0.333735 0.960809 0.720975
O O1 0.576118 0.150168 0.724535
O O2 0.487280 0.978319 0.848490
O O3 0.596281 0.044215 0.831453
O O4 0.407887 0.099952 0.055068
O O5 0.539401 0.470998 0.618795
O O6 0.593184 0.403093 0.402354
O O7 0.577074 0.591913 0.447560
O O8 0.732925 0.501436 0.310081
O O9 0.090798 0.164063 0.156279
O O10 0.064578 0.218050 0.347606
O O11 0.250000 0.250000 0.000000
O O12 0.593750 0.157773 0.153335
O O13 0.438686 0.739572 0.661253
O O14 0.314316 0.891013 0.827068
O O15 0.250000 0.750000 0.000000
#
# Coordination Sequence:
#
# PCOD9285532 Si02
#       8
#     8   8   8   4   8   4   8   8
#     4  10  21  42  63  94 132 158 218 270 308 400
#     4  10  23  42  65  89 128 173 207 268 322 377
#     4  11  22  42  67  93 125 168 210 270 319 377
#     4  10  25  41  66  96 128 170 214 265 323 380
#     4  11  25  43  65  98 127 169 214 265 323 390
#     4  10  23  39  62  96 122 162 224 257 313 382
#     4  10  24  44  62  96 130 162 223 262 314 390
#     4  10  22  41  65  91 126 174 204 259 337 365
#
# _framework density 20.161066000000002
#
# number of rings (size 3 to 8) (size 9 to 14) (size 15 to 20)
#    0.000    1.714    1.429    1.286    6.000    2.286 
#    7.714    0.000    0.000    0.000    0.000    0.000 
#    0.000    0.000    0.000    0.000    0.000    0.000 
#
# Total GULP energy -156185.741870 kJ/mol
# GULP energy per Si atom -5578.062210 kJ/mol
# Density = 2.011518 g / cm^3
# Si number density = 20.161066 Si / 1000 Ang^3
#
#
#
# Elastic Constant Matrix: (Units=GPa)
#
#
# Indices 1 2 3 4 5 6 
#
# 1 125.0701 29.8548 32.0307 0.0000 -32.8947 0.0000
# 2 29.8548 66.7922 19.8660 0.0000 -15.0645 0.0000
# 3 32.0307 19.8660 54.8681 0.0000 -26.0374 0.0000
# 4 0.0000 0.0000 0.0000 13.7837 0.0000 -3.4111
# 5 -32.8947 -15.0645 -26.0374 0.0000 31.3636 0.0000
# 6 0.0000 0.0000 0.0000 -3.4111 0.0000 30.8988
#
#
#
# Elastic Compliance Matrix: (Units=1/GPa)
#
#
# Indices 1 2 3 4 5 6 
#
# 1 0.011497 -0.002582 -0.001061 0.000000 0.009937 0.000000
# 2 -0.002582 0.017843 -0.003582 0.000000 0.002888 0.000000
# 3 -0.001061 -0.003582 0.031017 0.000000 0.022916 0.000000
# 4 0.000000 0.000000 0.000000 0.074587 0.000000 0.008234
# 5 0.009937 0.002888 0.022916 0.000000 0.062718 0.000000
# 6 0.000000 0.000000 0.000000 0.008234 0.000000 0.033273
#
#
# Mechanical properties :
#
#
# Convention : Reuss Voigt Hill
#
# Bulk Modulus (GPa) = 21.78408 45.58148 33.68278
# Shear Modulus (GPa) = 19.18004 26.20781 22.69393
#
# Velocity S-wave (km/s) = 3.08773 3.60935 3.35868
# Velocity P-wave (km/s) = 4.85186 6.32674 5.63774
#
# Compressibility (1/GPa) = 0.04590509
#
# Stress axis : x y z
#
# Youngs Moduli (GPa) = 86.97719 56.04485 32.24074
#
# Poissons Ratio (x) = 0.14472 0.03422
# Poissons Ratio (y) = 0.22459 0.11550
# Poissons Ratio (z) = 0.09230 0.20078
#
# Static dielectric constant tensor:
#      x y z
#    x 1.727750 0.000000 0.023900 
#    y 0.000000 1.750210 0.000000 
#    z 0.023900 0.000000 1.672420 
# 
# From -- ./inp_files/127024.got.cif
#   From: 2010.05.17/outbox.cif.g08.bks.cpg/sg15_64_cif.got.tgz:127024.got - 2010.06.03 18:47:42.
