data_PCOD9285457
_publ_section_title
;
Structure prediction by ZEFSAII (Michael W. Deem and Ramdas Pophale) SiO2 
 PCOD9285457
Probable space group: C 2/C
;
_chemical_formula_sum "Si O2"
_cell_formula_units_Z 64
_cell_length_a 14.223506
_cell_length_b 27.585382
_cell_length_c 8.778151
_cell_angle_alpha 90.000000
_cell_angle_beta 121.109046
_cell_angle_gamma 90.000000
_cell_volume 2948.876536
_symmetry_space_group_name_H-M "C 2/C"
_symmetry_group_IT_number 15
_symmetry_cell_setting 'monoclinic'
loop_
_space_group_symop_operation_xyz
x,y,z
-x,y,1/2-z
-x,-y,-z
x,-y,1/2+z
1/2+x,1/2+y,z
1/2-x,1/2+y,1/2-z
1/2-x,1/2-y,-z
1/2+x,1/2-y,1/2+z
loop_
_atom_site_type_symbol
_atom_site_label
_atom_site_fract_x
_atom_site_fract_y
_atom_site_fract_z
Si Si1 0.705656 0.052992 0.646551
Si Si2 0.883388 0.460015 0.746052
Si Si3 0.497351 0.888255 0.066948
Si Si4 0.823870 0.862405 0.364725
Si Si5 0.572345 0.796929 0.644430
Si Si6 0.218164 0.200994 0.391071
Si Si7 0.243656 0.691970 0.507066
Si Si8 0.458422 0.694231 0.494173
O O1 0.703963 0.049097 0.462157
O O2 0.608719 0.090071 0.599742
O O3 0.806671 0.081398 0.807324
O O4 0.663546 0.004309 0.693509
O O5 0.000000 0.469996 0.750000
O O6 0.907301 0.417061 0.887757
O O7 0.500000 0.896533 0.250000
O O8 0.492048 0.832377 0.020283
O O9 0.781186 0.844665 0.494224
O O10 0.949580 0.845986 0.453174
O O11 0.760170 0.829192 0.187985
O O12 0.692130 0.799693 0.665504
O O13 0.617730 0.817681 0.844201
O O14 0.520009 0.743497 0.600653
O O15 0.250000 0.250000 0.500000
O O16 0.100670 0.205398 0.214260
O O17 0.250000 0.750000 0.500000
O O18 0.357808 0.676716 0.517521
#
# Coordination Sequence:
#
# PCOD9285457 Si02
#       8
#     8   8   8   8   8   8   8   8
#     4  11  23  38  66  91 128 159 211 267 325 403
#     4  10  21  42  61  91 131 167 205 267 348 385
#     4  11  22  35  59  95 129 168 210 262 320 388
#     4  12  23  39  61  95 122 167 219 257 314 368
#     4  11  24  37  60  88 129 177 217 249 308 373
#     4  11  23  39  57  87 128 171 217 256 303 364
#     4  11  23  42  57  84 125 174 217 257 306 367
#     4  11  24  41  60  85 129 179 210 261 308 366
#
# _framework density 21.70318
#
# number of rings (size 3 to 8) (size 9 to 14) (size 15 to 20)
#    0.000    1.000    2.500    5.625    5.250    0.000 
#    0.000    0.000    0.000    0.000    0.000   28.000 
#    0.000    0.000    0.000    0.000    0.000    0.000 
#
# Total GULP energy -178632.361251 kJ/mol
# GULP energy per Si atom -5582.261289 kJ/mol
# Density = 2.165378 g / cm^3
# Si number density = 21.703180 Si / 1000 Ang^3
#
#
#
# Elastic Constant Matrix: (Units=GPa)
#
#
# Indices 1 2 3 4 5 6 
#
# 1 42.0549 23.1958 35.9378 0.0000 1.7651 0.0000
# 2 23.1958 72.2006 26.9944 0.0000 -6.9427 0.0000
# 3 35.9378 26.9944 138.4193 0.0000 -9.3799 0.0000
# 4 0.0000 0.0000 0.0000 31.3212 0.0000 1.2484
# 5 1.7651 -6.9427 -9.3799 0.0000 34.9406 0.0000
# 6 0.0000 0.0000 0.0000 1.2484 0.0000 21.6059
#
#
#
# Elastic Compliance Matrix: (Units=1/GPa)
#
#
# Indices 1 2 3 4 5 6 
#
# 1 0.035793 -0.009094 -0.007908 0.000000 -0.005738 0.000000
# 2 -0.009094 0.017422 -0.000785 0.000000 0.003711 0.000000
# 3 -0.007908 -0.000785 0.009622 0.000000 0.002827 0.000000
# 4 0.000000 0.000000 0.000000 0.032001 0.000000 -0.001849
# 5 -0.005738 0.003711 0.002827 0.000000 0.030406 0.000000
# 6 0.000000 0.000000 0.000000 -0.001849 0.000000 0.046391
#
#
# Mechanical properties :
#
#
# Convention : Reuss Voigt Hill
#
# Bulk Modulus (GPa) = 36.68034 47.21453 41.94743
# Shear Modulus (GPa) = 23.11623 28.67667 25.89645
#
# Velocity S-wave (km/s) = 3.26714 3.63893 3.45803
# Velocity P-wave (km/s) = 5.58300 6.28153 5.94254
#
# Compressibility (1/GPa) = 0.02726256
#
# Stress axis : x y z
#
# Youngs Moduli (GPa) = 27.93820 57.39753 103.92521
#
# Poissons Ratio (x) = 0.52199 0.82187
# Poissons Ratio (y) = 0.25408 0.08159
# Poissons Ratio (z) = 0.22094 0.04506
#
# Static dielectric constant tensor:
#      x y z
#    x 2.447580 0.000000 -0.513310 
#    y 0.000000 1.793290 0.000000 
#    z -0.513310 0.000000 2.315340 
# 
# From -- ./inp_files/44868.got.cif
#   From: 2010.05.17/outbox.cif.g08.bks.cpg/sg15_23_cif.got.tgz:44868.got - 2010.06.03 18:47:42.
