data_PCOD9285579
_publ_section_title
;
Structure prediction by ZEFSAII (Michael W. Deem and Ramdas Pophale) SiO2 
 PCOD9285579
Probable space group: C 2/C
;
_chemical_formula_sum "Si O2"
_cell_formula_units_Z 60
_cell_length_a 14.968651
_cell_length_b 19.914323
_cell_length_c 14.422448
_cell_angle_alpha 90.000000
_cell_angle_beta 139.889969
_cell_angle_gamma 90.000000
_cell_volume 2769.789087
_symmetry_space_group_name_H-M "C 2/C"
_symmetry_group_IT_number 15
_symmetry_cell_setting 'monoclinic'
loop_
_space_group_symop_operation_xyz
x,y,z
-x,y,1/2-z
-x,-y,-z
x,-y,1/2+z
1/2+x,1/2+y,z
1/2-x,1/2+y,1/2-z
1/2-x,1/2-y,-z
1/2+x,1/2-y,1/2+z
loop_
_atom_site_type_symbol
_atom_site_label
_atom_site_fract_x
_atom_site_fract_y
_atom_site_fract_z
Si Si1 0.873212 0.492422 0.220526
Si Si2 0.087378 0.943608 0.450724
Si Si3 0.000000 0.176838 0.750000
Si Si4 0.935715 0.357802 0.299731
Si Si5 0.885621 0.590226 0.387819
Si Si6 0.845134 0.728564 0.269258
Si Si7 0.439556 0.577835 0.354436
Si Si8 0.536869 0.719635 0.081194
O O1 0.820443 0.416155 0.197763
O O2 0.921635 0.526551 0.354187
O O3 0.000000 0.490704 0.250000
O O4 0.747621 0.535793 0.081631
O O5 0.066214 0.876924 0.374035
O O6 0.039510 0.928903 0.517772
O O7 0.004939 0.012199 0.359601
O O8 0.897246 0.226319 0.725131
O O9 0.920477 0.283062 0.322898
O O10 0.000000 0.351945 0.250000
O O11 0.033602 0.391224 0.455489
O O12 0.904145 0.653561 0.332157
O O13 0.725807 0.580145 0.290065
O O14 0.680075 0.715219 0.135655
O O15 0.907461 0.765372 0.410941
O O16 0.489588 0.653871 0.377582
#
# Coordination Sequence:
#
# PCOD9285579 Si02
#       8
#     8   8   4   8   8   8   8   8
#     4  10  22  38  60  92 131 165 215 263 324 399
#     4  10  22  37  63  90 124 171 212 270 319 380
#     4  12  24  40  62 102 136 168 222 266 330 404
#     4  10  22  39  62  92 122 162 219 273 323 382
#     4   9  20  40  63  91 123 173 209 269 330 384
#     4  10  23  38  64  95 134 169 215 265 328 400
#     4   9  19  41  61  84 123 163 220 259 316 395
#     4  10  21  42  64  92 125 176 211 267 336 386
#
# _framework density 21.662298
#
# number of rings (size 3 to 8) (size 9 to 14) (size 15 to 20)
#    0.000    2.133    1.333    0.400    2.800    5.867 
#    1.200    6.000    0.000    0.000    0.000    0.000 
#    0.000    0.000    0.000    0.000    0.000    0.000 
#
# Total GULP energy -167174.927118 kJ/mol
# GULP energy per Si atom -5572.497571 kJ/mol
# Density = 2.161299 g / cm^3
# Si number density = 21.662298 Si / 1000 Ang^3
#
#
#
# Elastic Constant Matrix: (Units=GPa)
#
#
# Indices 1 2 3 4 5 6 
#
# 1 54.1120 39.6152 28.0652 0.0000 -8.3774 0.0000
# 2 39.6152 152.2273 25.6521 0.0000 -4.4512 0.0000
# 3 28.0652 25.6521 57.3000 0.0000 4.6856 0.0000
# 4 0.0000 0.0000 0.0000 35.7226 0.0000 -13.9244
# 5 -8.3774 -4.4512 4.6856 0.0000 14.2932 0.0000
# 6 0.0000 0.0000 0.0000 -13.9244 0.0000 46.5643
#
#
#
# Elastic Compliance Matrix: (Units=1/GPa)
#
#
# Indices 1 2 3 4 5 6 
#
# 1 0.034900 -0.005584 -0.016569 0.000000 0.024148 0.000000
# 2 -0.005584 0.008158 -0.000881 0.000000 -0.000444 0.000000
# 3 -0.016569 -0.000881 0.027516 0.000000 -0.019006 0.000000
# 4 0.000000 0.000000 0.000000 0.031687 0.000000 0.009476
# 5 0.024148 -0.000444 -0.019006 0.000000 0.090209 0.000000
# 6 0.000000 0.000000 0.000000 0.009476 0.000000 0.024309
#
#
# Mechanical properties :
#
#
# Convention : Reuss Voigt Hill
#
# Bulk Modulus (GPa) = 40.80539 50.03383 45.41961
# Shear Modulus (GPa) = 18.44914 30.66981 24.55947
#
# Velocity S-wave (km/s) = 2.92151 3.76681 3.37076
# Velocity P-wave (km/s) = 5.50075 6.48582 6.01349
#
# Compressibility (1/GPa) = 0.02450656
#
# Stress axis : x y z
#
# Youngs Moduli (GPa) = 28.65307 122.58250 36.34292
#
# Poissons Ratio (x) = 0.68453 0.60215
# Poissons Ratio (y) = 0.16001 0.03201
# Poissons Ratio (z) = 0.47474 0.10796
#
# Static dielectric constant tensor:
#      x y z
#    x 1.777540 0.000000 -0.012210 
#    y 0.000000 1.876080 0.000000 
#    z -0.012210 0.000000 1.812510 
# 
# From -- ./inp_files/156371.got.cif
#   From: 2010.05.17/outbox.cif.g08.bks.cpg/sg15_79_cif.got.tgz:156371.got - 2010.06.03 18:47:42.
