data_PCOD9285494
_publ_section_title
;
Structure prediction by ZEFSAII (Michael W. Deem and Ramdas Pophale) SiO2 
 PCOD9285494
Probable space group: C 2/C
;
_chemical_formula_sum "Si O2"
_cell_formula_units_Z 40
_cell_length_a 18.467642
_cell_length_b 20.290319
_cell_length_c 5.685643
_cell_angle_alpha 90.000000
_cell_angle_beta 126.856275
_cell_angle_gamma 90.000000
_cell_volume 1704.697484
_symmetry_space_group_name_H-M "C 2/C"
_symmetry_group_IT_number 15
_symmetry_cell_setting 'monoclinic'
loop_
_space_group_symop_operation_xyz
x,y,z
-x,y,1/2-z
-x,-y,-z
x,-y,1/2+z
1/2+x,1/2+y,z
1/2-x,1/2+y,1/2-z
1/2-x,1/2-y,-z
1/2+x,1/2-y,1/2+z
loop_
_atom_site_type_symbol
_atom_site_label
_atom_site_fract_x
_atom_site_fract_y
_atom_site_fract_z
Si Si1 0.000000 0.283111 0.750000
Si Si2 0.709228 0.395081 0.234675
Si Si3 0.000000 0.462174 0.250000
Si Si4 0.622994 0.146225 0.138881
Si Si5 0.884415 0.985527 0.140555
Si Si6 0.899724 0.775628 0.673993
O O1 0.035975 0.328854 0.614348
O O2 0.920996 0.238908 0.486900
O O3 0.803565 0.373817 0.525585
O O4 0.647185 0.414006 0.339930
O O5 0.700160 0.463621 0.073113
O O6 0.662021 0.337693 0.997901
O O7 0.000000 0.500000 0.500000
O O8 0.089703 0.416304 0.428653
O O9 0.645616 0.209958 0.025684
O O10 0.926144 0.984343 0.962321
O O11 0.000000 0.786255 0.750000
#
# Coordination Sequence:
#
# PCOD9285494 Si02
#       6
#     4   8   4   8   8   8
#     4  10  21  42  62  92 135 170 218 288 322 407
#     4  10  22  40  67  96 131 179 221 278 337 391
#     4  12  27  40  70  98 137 186 210 264 338 397
#     4  11  23  42  64  98 135 172 232 266 331 409
#     4   8  20  39  60  95 134 163 218 270 321 401
#     4  10  22  42  66  94 131 172 225 286 333 393
#
# _framework density 23.464573999999999
#
# number of rings (size 3 to 8) (size 9 to 14) (size 15 to 20)
#    1.200    0.800    3.000    1.200    2.800    5.600 
#    0.000    1.000    0.000    0.000    0.000    0.000 
#    0.000    0.000    0.000    0.000    0.000    0.000 
#
# Total GULP energy -111516.746278 kJ/mol
# GULP energy per Si atom -5575.837314 kJ/mol
# Density = 2.341117 g / cm^3
# Si number density = 23.464574 Si / 1000 Ang^3
#
#
#
# Elastic Constant Matrix: (Units=GPa)
#
#
# Indices 1 2 3 4 5 6 
#
# 1 22.5633 6.2263 8.6835 0.0000 -11.5332 0.0000
# 2 6.2263 106.1199 61.5123 0.0000 -15.6556 0.0000
# 3 8.6835 61.5123 179.7240 0.0000 -2.3430 0.0000
# 4 0.0000 0.0000 0.0000 -67.3386 0.0000 -62.1905
# 5 -11.5332 -15.6556 -2.3430 0.0000 15.9057 0.0000
# 6 0.0000 0.0000 0.0000 -62.1905 0.0000 -14.4565
#
#
#
# Elastic Compliance Matrix: (Units=1/GPa)
#
#
# Indices 1 2 3 4 5 6 
#
# 1 0.076029 0.007938 -0.005581 0.000000 0.062120 0.000000
# 2 0.007938 0.014880 -0.005220 0.000000 0.019633 0.000000
# 3 -0.005581 -0.005220 0.007515 0.000000 -0.008078 0.000000
# 4 0.000000 0.000000 0.000000 0.004995 0.000000 -0.021488
# 5 0.062120 0.019633 -0.008078 0.000000 0.126048 0.000000
# 6 0.000000 0.000000 0.000000 -0.021488 0.000000 0.023267
#
#
# Mechanical properties :
#
#
# Convention : Reuss Voigt Hill
#
# Bulk Modulus (GPa) = 10.78757 51.25016 31.01886
# Shear Modulus (GPa) = 17.27953 2.28780 9.78367
#
# Velocity S-wave (km/s) = 2.71663 0.98849 2.04416
# Velocity P-wave (km/s) = 3.80098 4.81578 4.33816
#
# Compressibility (1/GPa) = 0.09269928
#
# Stress axis : x y z
#
# Youngs Moduli (GPa) = 13.15280 67.20458 133.06468
#
# Poissons Ratio (x) = -0.53349 0.74258
# Poissons Ratio (y) = -0.10441 0.69465
# Poissons Ratio (z) = 0.07340 0.35083
#
# Static dielectric constant tensor:
#      x y z
#    x 1.905000 0.000000 -0.002100 
#    y 0.000000 1.890000 0.000000 
#    z -0.002100 0.000000 1.960990 
# 
# From -- ./inp_files/13605.got.cif
#   From: 2010.05.17/outbox.cif.g08.bks.cpg/sg15_7_cif.got.tgz:13605.got - 2010.06.03 18:47:42.
