data_PCOD9285937
_publ_section_title
;
Structure prediction by ZEFSAII (Michael W. Deem and Ramdas Pophale) SiO2 
 PCOD9285937
Probable space group: C 2/C
;
_chemical_formula_sum "Si O2"
_cell_formula_units_Z 44
_cell_length_a 13.252560
_cell_length_b 19.910108
_cell_length_c 8.742736
_cell_angle_alpha 90.000000
_cell_angle_beta 56.851090
_cell_angle_gamma 90.000000
_cell_volume 1931.421563
_symmetry_space_group_name_H-M "C 2/C"
_symmetry_group_IT_number 15
_symmetry_cell_setting 'monoclinic'
loop_
_space_group_symop_operation_xyz
x,y,z
-x,y,1/2-z
-x,-y,-z
x,-y,1/2+z
1/2+x,1/2+y,z
1/2-x,1/2+y,1/2-z
1/2-x,1/2-y,-z
1/2+x,1/2-y,1/2+z
loop_
_atom_site_type_symbol
_atom_site_label
_atom_site_fract_x
_atom_site_fract_y
_atom_site_fract_z
Si Si1 0.163048 0.756746 0.871058
Si Si2 0.000000 0.802997 0.250000
Si Si3 0.500000 0.021379 0.250000
Si Si4 0.826657 0.524368 0.634907
Si Si5 0.000000 0.698775 0.750000
Si Si6 0.767016 0.372047 0.591615
Si Si7 0.655815 0.637292 0.868045
O O1 0.228930 0.825060 0.764022
O O2 0.252669 0.695690 0.761491
O O3 0.054061 0.742510 0.842565
O O4 0.107102 0.759622 0.086447
O O5 0.039883 0.847784 0.361858
O O6 0.403254 0.058634 0.435116
O O7 0.581091 0.979142 0.300021
O O8 0.791204 0.448705 0.618727
O O9 0.711665 0.566768 0.771315
O O10 0.109908 0.656455 0.586204
O O11 0.664819 0.364260 0.544352
#
# Coordination Sequence:
#
# PCOD9285937 Si02
#       7
#     8   4   4   8   4   8   8
#     4  11  24  42  68  95 133 172 220 270 329 396
#     4  12  26  45  62  96 131 178 222 280 328 377
#     4  10  23  39  68 102 137 165 212 270 351 381
#     4  11  23  42  66 103 131 171 214 279 329 398
#     4  10  21  42  68  98 128 173 218 264 337 400
#     4  11  23  43  69  97 133 176 216 269 326 408
#     4  11  25  44  65  96 133 171 224 270 329 394
#
# _framework density 22.781147000000001
#
# number of rings (size 3 to 8) (size 9 to 14) (size 15 to 20)
#    0.000    1.091    1.818    5.455   10.182    0.727 
#    0.000    4.545    0.000    0.000    0.000    0.000 
#    0.000    0.000    0.000    0.000    0.000    0.000 
#
# Total GULP energy -122998.360650 kJ/mol
# GULP energy per Si atom -5590.834575 kJ/mol
# Density = 2.272930 g / cm^3
# Si number density = 22.781147 Si / 1000 Ang^3
#
#
#
# Elastic Constant Matrix: (Units=GPa)
#
#
# Indices 1 2 3 4 5 6 
#
# 1 91.8445 17.3018 -7.7022 0.0000 24.6854 0.0000
# 2 17.3018 105.5779 32.2420 0.0000 2.9173 0.0000
# 3 -7.7022 32.2420 105.4803 0.0000 9.8670 0.0000
# 4 0.0000 0.0000 0.0000 33.3485 0.0000 0.8403
# 5 24.6854 2.9173 9.8670 0.0000 31.5072 0.0000
# 6 0.0000 0.0000 0.0000 0.8403 0.0000 20.2511
#
#
#
# Elastic Compliance Matrix: (Units=1/GPa)
#
#
# Indices 1 2 3 4 5 6 
#
# 1 0.015127 -0.003119 0.003234 0.000000 -0.012576 0.000000
# 2 -0.003119 0.011090 -0.003863 0.000000 0.002627 0.000000
# 3 0.003234 -0.003863 0.011436 0.000000 -0.005758 0.000000
# 4 0.000000 0.000000 0.000000 0.030018 0.000000 -0.001246
# 5 -0.012576 0.002627 -0.005758 0.000000 0.043152 0.000000
# 6 0.000000 0.000000 0.000000 -0.001246 0.000000 0.049432
#
#
# Mechanical properties :
#
#
# Convention : Reuss Voigt Hill
#
# Bulk Modulus (GPa) = 33.16015 42.95399 38.05707
# Shear Modulus (GPa) = 28.12103 34.42543 31.27323
#
# Velocity S-wave (km/s) = 3.51721 3.89155 3.70911
# Velocity P-wave (km/s) = 5.57512 6.25206 5.92327
#
# Compressibility (1/GPa) = 0.03015668
#
# Stress axis : x y z
#
# Youngs Moduli (GPa) = 66.10764 90.17063 87.44215
#
# Poissons Ratio (x) = 0.28126 -0.28282
# Poissons Ratio (y) = 0.20620 0.33782
# Poissons Ratio (z) = -0.21382 0.34836
#
# Static dielectric constant tensor:
#      x y z
#    x 1.916560 0.000000 -0.001580 
#    y 0.000000 1.804220 0.000000 
#    z -0.001580 0.000000 1.891790 
# 
# From -- ./inp_files/39571.got.cif
#   From: 2010.05.17/outbox.cif.g08.bks.cpg/sg15_20_cif.got.tgz:39571.got - 2010.06.03 18:47:42.
