data_PCOD9285856
_publ_section_title
;
Structure prediction by ZEFSAII (Michael W. Deem and Ramdas Pophale) SiO2 
 PCOD9285856
Probable space group: C 2/C
;
_chemical_formula_sum "Si O2"
_cell_formula_units_Z 40
_cell_length_a 14.004515
_cell_length_b 7.535175
_cell_length_c 28.716329
_cell_angle_alpha 90.000000
_cell_angle_beta 30.372192
_cell_angle_gamma 90.000000
_cell_volume 1532.182030
_symmetry_space_group_name_H-M "C 2/C"
_symmetry_group_IT_number 15
_symmetry_cell_setting 'monoclinic'
loop_
_space_group_symop_operation_xyz
x,y,z
-x,y,1/2-z
-x,-y,-z
x,-y,1/2+z
1/2+x,1/2+y,z
1/2-x,1/2+y,1/2-z
1/2-x,1/2-y,-z
1/2+x,1/2-y,1/2+z
loop_
_atom_site_type_symbol
_atom_site_label
_atom_site_fract_x
_atom_site_fract_y
_atom_site_fract_z
Si Si1 0.698335 0.438503 0.500183
Si Si2 0.055780 0.615519 0.021832
Si Si3 0.936123 0.286368 0.328275
Si Si4 0.429793 0.647443 0.830474
Si Si5 0.840393 0.155918 0.676777
O O1 0.750000 0.250000 0.500000
O O2 0.832373 0.555137 0.477946
O O3 0.483002 0.501053 0.598774
O O4 0.757826 0.392885 0.422478
O O5 0.871489 0.700197 0.122425
O O6 0.225368 0.728392 0.927942
O O7 0.000000 0.500000 0.000000
O O8 0.119375 0.355932 0.279320
O O9 0.000000 0.333891 0.250000
O O10 0.915841 0.070961 0.340214
O O11 0.500000 0.690735 0.750000
O O12 0.571613 0.706883 0.810661
#
# Coordination Sequence:
#
# PCOD9285856 Si02
#       5
#     8   8   8   8   8
#     4  11  23  44  68  99 139 183 231 296 353 413
#     4  11  23  43  69  98 138 184 228 290 355 423
#     4  11  24  43  67  99 141 185 231 288 362 419
#     4  10  21  42  67  98 133 183 232 286 354 420
#     4  11  25  43  71 103 139 184 242 289 351 431
#
# _framework density 26.106559000000001
#
# number of rings (size 3 to 8) (size 9 to 14) (size 15 to 20)
#    0.000    1.200    4.000    4.800    5.600    0.800 
#    0.000    4.000    0.000    0.000    0.000    0.000 
#    0.000    0.000    0.000    0.000    0.000    0.000 
#
# Total GULP energy -111623.532598 kJ/mol
# GULP energy per Si atom -5581.176630 kJ/mol
# Density = 2.604714 g / cm^3
# Si number density = 26.106559 Si / 1000 Ang^3
#
#
#
# Elastic Constant Matrix: (Units=GPa)
#
#
# Indices 1 2 3 4 5 6 
#
# 1 94.8299 5.9987 7.9950 -0.0004 23.5603 -0.0034
# 2 5.9987 91.2194 3.1172 0.0003 12.5102 -0.0007
# 3 7.9950 3.1172 107.1737 -0.0020 25.8040 -0.0018
# 4 -0.0004 0.0003 -0.0020 38.7015 -0.0003 -0.7911
# 5 23.5603 12.5102 25.8040 -0.0003 72.5053 -0.0003
# 6 -0.0034 -0.0007 -0.0018 -0.7911 -0.0003 10.7920
#
#
#
# Elastic Compliance Matrix: (Units=1/GPa)
#
#
# Indices 1 2 3 4 5 6 
#
# 1 0.011477 -0.000249 0.000042 0.000000 -0.003702 0.000004
# 2 -0.000249 0.011236 0.000152 0.000000 -0.001912 0.000001
# 3 0.000042 0.000152 0.010207 0.000001 -0.003673 0.000002
# 4 0.000000 0.000000 0.000001 0.025878 0.000000 0.001897
# 5 -0.003702 -0.001912 -0.003673 0.000000 0.016632 -0.000001
# 6 0.000004 0.000001 0.000002 0.001897 -0.000001 0.092800
#
#
# Mechanical properties :
#
#
# Convention : Reuss Voigt Hill
#
# Bulk Modulus (GPa) = 30.47669 36.38276 33.42973
# Shear Modulus (GPa) = 27.89000 42.80723 35.34861
#
# Velocity S-wave (km/s) = 3.27205 4.05373 3.68368
# Velocity P-wave (km/s) = 5.09651 5.98972 5.56108
#
# Compressibility (1/GPa) = 0.03281196
#
# Stress axis : x y z
#
# Youngs Moduli (GPa) = 87.13082 89.00001 97.96877
#
# Poissons Ratio (x) = 0.02212 -0.00414
# Poissons Ratio (y) = 0.02166 -0.01490
# Poissons Ratio (z) = -0.00368 -0.01354
#
# Static dielectric constant tensor:
#      x y z
#    x 2.051700 -0.000010 0.138630 
#    y -0.000010 2.207510 -0.000010 
#    z 0.138630 -0.000010 2.043190 
# 
# From -- ./inp_files/313040.got.cif
#   From: 2010.05.17/outbox.cif.g08.bks.cpg/sg15_157_cif.got.tgz:313040.got - 2010.06.03 18:47:42.
