data_PCOD9285646
_publ_section_title
;
Structure prediction by ZEFSAII (Michael W. Deem and Ramdas Pophale) SiO2 
 PCOD9285646
Probable space group: C 2/C
;
_chemical_formula_sum "Si O2"
_cell_formula_units_Z 40
_cell_length_a 27.976317
_cell_length_b 6.967596
_cell_length_c 15.141638
_cell_angle_alpha 90.000000
_cell_angle_beta 37.898760
_cell_angle_gamma 90.000000
_cell_volume 1813.027280
_symmetry_space_group_name_H-M "C 2/C"
_symmetry_group_IT_number 15
_symmetry_cell_setting 'monoclinic'
loop_
_space_group_symop_operation_xyz
x,y,z
-x,y,1/2-z
-x,-y,-z
x,-y,1/2+z
1/2+x,1/2+y,z
1/2-x,1/2+y,1/2-z
1/2-x,1/2-y,-z
1/2+x,1/2-y,1/2+z
loop_
_atom_site_type_symbol
_atom_site_label
_atom_site_fract_x
_atom_site_fract_y
_atom_site_fract_z
Si Si1 0.915300 0.364800 0.916925
Si Si2 0.849015 0.228654 0.753273
Si Si3 0.801175 0.931459 0.494261
Si Si4 0.991473 0.881726 0.423435
Si Si5 0.603061 0.690805 0.017971
O O1 0.920676 0.259238 0.004325
O O2 0.000000 0.318178 0.750000
O O3 0.846195 0.260454 0.965197
O O4 0.910594 0.590085 0.936842
O O5 0.788955 0.401762 0.853126
O O6 0.857999 0.183188 0.636851
O O7 0.933625 0.255064 0.673854
O O8 0.815209 0.064029 0.868536
O O9 0.841544 0.098580 0.489547
O O10 0.974104 0.057214 0.380656
O O11 0.000000 0.000000 0.500000
#
# Coordination Sequence:
#
# PCOD9285646 Si02
#       5
#     8   8   8   8   8
#     4  11  22  39  64  94 129 166 216 262 311 383
#     4  10  21  42  65  90 128 164 211 262 321 382
#     4  10  23  43  62  90 134 166 203 272 320 377
#     4   9  20  41  63  92 124 164 207 266 312 376
#     4  10  24  39  68  93 125 175 212 261 327 377
#
# _framework density 22.062548
#
# number of rings (size 3 to 8) (size 9 to 14) (size 15 to 20)
#    0.000    2.000    2.000    0.000    5.600    3.200 
#    0.000    8.000    0.000    0.000    0.000    0.000 
#    0.000    0.000    0.000    0.000    0.000    0.000 
#
# Total GULP energy -111340.079815 kJ/mol
# GULP energy per Si atom -5567.003991 kJ/mol
# Density = 2.201233 g / cm^3
# Si number density = 22.062548 Si / 1000 Ang^3
#
#
#
# Elastic Constant Matrix: (Units=GPa)
#
#
# Indices 1 2 3 4 5 6 
#
# 1 81.5570 36.8156 27.9358 -0.0010 2.3230 0.0009
# 2 36.8156 141.1349 2.4732 -0.0061 -4.1249 0.0037
# 3 27.9358 2.4732 62.8953 -0.0044 12.7329 0.0007
# 4 -0.0010 -0.0061 -0.0044 6.8637 0.0048 -4.9221
# 5 2.3230 -4.1249 12.7329 0.0048 42.9132 -0.0019
# 6 0.0009 0.0037 0.0007 -4.9221 -0.0019 21.5441
#
#
#
# Elastic Compliance Matrix: (Units=1/GPa)
#
#
# Indices 1 2 3 4 5 6 
#
# 1 0.016670 -0.004192 -0.007421 -0.000008 0.000896 -0.000001
# 2 -0.004192 0.008171 0.001421 0.000008 0.000591 0.000000
# 3 -0.007421 0.001421 0.020247 0.000019 -0.005469 0.000003
# 4 -0.000008 0.000008 0.000019 0.174242 -0.000023 0.039808
# 5 0.000896 0.000591 -0.005469 -0.000023 0.024934 -0.000003
# 6 -0.000001 0.000000 0.000003 0.039808 -0.000003 0.055511
#
#
# Mechanical properties :
#
#
# Convention : Reuss Voigt Hill
#
# Bulk Modulus (GPa) = 40.47872 46.67069 43.57471
# Shear Modulus (GPa) = 15.22560 28.82169 22.02365
#
# Velocity S-wave (km/s) = 2.62985 3.61829 3.16292
# Velocity P-wave (km/s) = 5.25438 6.21737 5.75605
#
# Compressibility (1/GPa) = 0.02470434
#
# Stress axis : x y z
#
# Youngs Moduli (GPa) = 59.98753 122.37888 49.39033
#
# Poissons Ratio (x) = 0.51304 0.36652
# Poissons Ratio (y) = 0.25148 -0.07019
# Poissons Ratio (z) = 0.44516 -0.17392
#
# Static dielectric constant tensor:
#      x y z
#    x 1.808500 0.000000 0.053210 
#    y 0.000000 1.800300 0.000000 
#    z 0.053210 0.000000 1.977240 
# 
# From -- ./inp_files/223536.got.cif
#   From: 2010.05.17/outbox.cif.g08.bks.cpg/sg15_112_cif.got.tgz:223536.got - 2010.06.03 18:47:42.
