data_PCOD9285018
_publ_section_title
;
Structure prediction by ZEFSAII (Michael W. Deem and Ramdas Pophale) SiO2 
 PCOD9285018
Probable space group: C 2/C
;
_chemical_formula_sum "Si O2"
_cell_formula_units_Z 44
_cell_length_a 16.306975
_cell_length_b 8.966875
_cell_length_c 12.269657
_cell_angle_alpha 90.000000
_cell_angle_beta 85.881767
_cell_angle_gamma 90.000000
_cell_volume 1789.468822
_symmetry_space_group_name_H-M "C 2/C"
_symmetry_group_IT_number 15
_symmetry_cell_setting 'monoclinic'
loop_
_space_group_symop_operation_xyz
x,y,z
-x,y,1/2-z
-x,-y,-z
x,-y,1/2+z
1/2+x,1/2+y,z
1/2-x,1/2+y,1/2-z
1/2-x,1/2-y,-z
1/2+x,1/2-y,1/2+z
loop_
_atom_site_type_symbol
_atom_site_label
_atom_site_fract_x
_atom_site_fract_y
_atom_site_fract_z
Si Si1 0.554079 0.154209 0.919238
Si Si2 0.717455 0.913361 0.529288
Si Si3 0.000000 0.121638 0.250000
Si Si4 0.205425 0.277326 0.755775
Si Si5 0.667447 0.535392 0.143178
Si Si6 0.034005 0.330379 0.861717
O O1 0.554058 0.276468 0.826123
O O2 0.636972 0.084517 0.961718
O O3 0.512128 0.006377 0.874410
O O4 0.507093 0.229299 0.025253
O O5 0.750000 0.750000 0.500000
O O6 0.801475 0.886972 0.295189
O O7 0.695437 0.899636 0.658519
O O8 0.790844 0.019310 0.480593
O O9 0.069665 0.040846 0.170306
O O10 0.289048 0.320588 0.807878
O O11 0.130066 0.298719 0.844910
O O12 0.000000 0.274527 0.750000
#
# Coordination Sequence:
#
# PCOD9285018 Si02
#       6
#     8   8   4   8   8   8
#     4  11  23  42  67 103 137 186 222 291 347 417
#     4  10  21  41  66  94 132 180 222 279 350 405
#     4  12  26  44  68 102 150 178 240 292 354 408
#     4  11  24  45  71 100 140 180 236 288 347 421
#     4  11  26  45  69 101 141 184 229 289 355 413
#     4  11  22  40  72 102 137 179 238 278 348 418
#
# _framework density 24.588301000000001
#
# number of rings (size 3 to 8) (size 9 to 14) (size 15 to 20)
#    0.000    1.091    4.545    2.182    1.273    1.455 
#    0.000    7.273    0.000    0.000    0.000    0.000 
#    0.000    0.000    0.000    0.000    0.000    0.000 
#
# Total GULP energy -122853.971887 kJ/mol
# GULP energy per Si atom -5584.271449 kJ/mol
# Density = 2.453234 g / cm^3
# Si number density = 24.588301 Si / 1000 Ang^3
#
#
#
# Elastic Constant Matrix: (Units=GPa)
#
#
# Indices 1 2 3 4 5 6 
#
# 1 94.6552 -6.1422 16.3098 0.0000 -37.1677 0.0000
# 2 -6.1422 40.8659 -4.1990 0.0000 -5.2647 0.0000
# 3 16.3098 -4.1990 86.8881 0.0000 -23.7918 0.0000
# 4 0.0000 0.0000 0.0000 28.0647 0.0000 1.5651
# 5 -37.1677 -5.2647 -23.7918 0.0000 43.2053 0.0000
# 6 0.0000 0.0000 0.0000 1.5651 0.0000 26.9011
#
#
#
# Elastic Compliance Matrix: (Units=1/GPa)
#
#
# Indices 1 2 3 4 5 6 
#
# 1 0.016850 0.004718 0.001403 0.000000 0.015843 0.000000
# 2 0.004718 0.026611 0.002826 0.000000 0.008857 0.000000
# 3 0.001403 0.002826 0.013903 0.000000 0.009208 0.000000
# 4 0.000000 0.000000 0.000000 0.035748 0.000000 -0.002080
# 5 0.015843 0.008857 0.009208 0.000000 0.042924 0.000000
# 6 0.000000 0.000000 0.000000 -0.002080 0.000000 0.037294
#
#
# Mechanical properties :
#
#
# Convention : Reuss Voigt Hill
#
# Bulk Modulus (GPa) = 13.28769 26.03848 19.66308
# Shear Modulus (GPa) = 27.69736 34.06360 30.88048
#
# Velocity S-wave (km/s) = 3.35990 3.72608 3.54771
# Velocity P-wave (km/s) = 4.52412 5.39669 4.97956
#
# Compressibility (1/GPa) = 0.07525761
#
# Stress axis : x y z
#
# Youngs Moduli (GPa) = 59.34740 37.57876 71.92452
#
# Poissons Ratio (x) = -0.17729 -0.10093
# Poissons Ratio (y) = -0.27999 -0.20324
# Poissons Ratio (z) = -0.08328 -0.10619
#
# Static dielectric constant tensor:
#      x y z
#    x 1.650060 0.000000 -0.114990 
#    y 0.000000 1.915000 0.000000 
#    z -0.114990 0.000000 1.997320 
# 
# From -- ./inp_files/103610.got.cif
#   From: 2010.05.17/outbox.cif.g08.bks.cpg/sg15_52_cif.got.tgz:103610.got - 2010.06.03 18:47:42.
