data_PCOD9285917
_publ_section_title
;
Structure prediction by ZEFSAII (Michael W. Deem and Ramdas Pophale) SiO2 
 PCOD9285917
Probable space group: C 2/C
;
_chemical_formula_sum "Si O2"
_cell_formula_units_Z 60
_cell_length_a 16.608425
_cell_length_b 8.563545
_cell_length_c 19.258077
_cell_angle_alpha 90.000000
_cell_angle_beta 84.929286
_cell_angle_gamma 90.000000
_cell_volume 2728.298921
_symmetry_space_group_name_H-M "C 2/C"
_symmetry_group_IT_number 15
_symmetry_cell_setting 'monoclinic'
loop_
_space_group_symop_operation_xyz
x,y,z
-x,y,1/2-z
-x,-y,-z
x,-y,1/2+z
1/2+x,1/2+y,z
1/2-x,1/2+y,1/2-z
1/2-x,1/2-y,-z
1/2+x,1/2-y,1/2+z
loop_
_atom_site_type_symbol
_atom_site_label
_atom_site_fract_x
_atom_site_fract_y
_atom_site_fract_z
Si Si1 0.273628 0.308134 0.662295
Si Si2 0.260512 0.675969 0.695703
Si Si3 0.596073 0.150602 0.120872
Si Si4 0.580622 0.396382 0.493409
Si Si5 0.106923 0.281194 0.131398
Si Si6 0.432641 0.685718 0.664598
Si Si7 0.000000 0.908561 0.750000
Si Si8 0.160239 0.791660 0.984966
O O1 0.275445 0.493030 0.679560
O O2 0.285687 0.204481 0.728976
O O3 0.181431 0.281577 0.642225
O O4 0.339240 0.270031 0.597936
O O5 0.202114 0.743869 0.640978
O O6 0.348272 0.755358 0.697955
O O7 0.517439 0.224356 0.162231
O O8 0.594995 0.966780 0.133267
O O9 0.599194 0.196023 0.038498
O O10 0.500000 0.500000 0.500000
O O11 0.583079 0.280807 0.557534
O O12 0.585520 0.329983 0.416041
O O13 0.649564 0.525075 0.499137
O O14 0.055137 0.193692 0.194344
O O15 0.448771 0.523716 0.703773
O O16 0.250000 0.750000 0.000000
#
# Coordination Sequence:
#
# PCOD9285917 Si02
#       8
#     8   8   8   8   8   8   4   8
#     4  10  22  42  63  99 138 177 228 278 348 412
#     4  11  24  42  66 101 136 177 225 286 343 407
#     4  10  23  44  67 104 139 176 228 292 348 408
#     4  12  23  46  71 100 132 182 239 279 341 429
#     4  11  27  45  68 104 144 176 232 293 349 404
#     4  12  24  44  74  99 135 185 233 279 345 424
#     4  12  24  44  74  98 136 194 226 278 346 418
#     4  10  21  42  68  94 135 181 225 282 339 414
#
# _framework density 21.991726
#
# number of rings (size 3 to 8) (size 9 to 14) (size 15 to 20)
#    0.000    1.067    4.000    1.600    0.000    6.933 
#    2.400    0.000    0.000    0.000    0.000    0.000 
#    0.000    0.000    0.000    0.000    0.000    0.000 
#
# Total GULP energy -167616.968120 kJ/mol
# GULP energy per Si atom -5587.232271 kJ/mol
# Density = 2.194167 g / cm^3
# Si number density = 21.991726 Si / 1000 Ang^3
#
#
#
# Elastic Constant Matrix: (Units=GPa)
#
#
# Indices 1 2 3 4 5 6 
#
# 1 66.8239 22.5661 12.1699 0.0000 5.5321 0.0000
# 2 22.5661 41.7680 29.4495 0.0000 6.1248 0.0000
# 3 12.1699 29.4495 139.1638 0.0000 -7.4384 0.0000
# 4 0.0000 0.0000 0.0000 30.4676 0.0000 3.4068
# 5 5.5321 6.1248 -7.4384 0.0000 33.1208 0.0000
# 6 0.0000 0.0000 0.0000 3.4068 0.0000 30.2687
#
#
#
# Elastic Compliance Matrix: (Units=1/GPa)
#
#
# Indices 1 2 3 4 5 6 
#
# 1 0.018381 -0.010103 0.000472 0.000000 -0.001096 0.000000
# 2 -0.010103 0.035205 -0.006907 0.000000 -0.006374 0.000000
# 3 0.000472 -0.006907 0.008776 0.000000 0.003169 0.000000
# 4 0.000000 0.000000 0.000000 0.033240 0.000000 -0.003741
# 5 -0.001096 -0.006374 0.003169 0.000000 0.032266 0.000000
# 6 0.000000 0.000000 0.000000 -0.003741 0.000000 0.033459
#
#
# Mechanical properties :
#
#
# Convention : Reuss Voigt Hill
#
# Bulk Modulus (GPa) = 34.14677 41.79188 37.96932
# Shear Modulus (GPa) = 24.49007 31.00942 27.74975
#
# Velocity S-wave (km/s) = 3.34069 3.75914 3.55607
# Velocity P-wave (km/s) = 5.51734 6.15518 5.84497
#
# Compressibility (1/GPa) = 0.02928535
#
# Stress axis : x y z
#
# Youngs Moduli (GPa) = 54.40342 28.40517 113.95259
#
# Poissons Ratio (x) = 0.28698 -0.05378
# Poissons Ratio (y) = 0.54963 0.78709
# Poissons Ratio (z) = -0.02567 0.19620
#
# Static dielectric constant tensor:
#      x y z
#    x 1.979340 0.000000 -0.057190 
#    y 0.000000 1.823350 0.000000 
#    z -0.057190 0.000000 1.909340 
# 
# From -- ./inp_files/209604.got.cif
#   From: 2010.05.17/outbox.cif.g08.bks.cpg/sg15_105_cif.got.tgz:209604.got - 2010.06.03 18:47:42.
