data_PCOD9285307
_publ_section_title
;
Structure prediction by ZEFSAII (Michael W. Deem and Ramdas Pophale) SiO2 
 PCOD9285307
Probable space group: C 2/C
;
_chemical_formula_sum "Si O2"
_cell_formula_units_Z 52
_cell_length_a 12.153263
_cell_length_b 29.418691
_cell_length_c 8.244639
_cell_angle_alpha 90.000000
_cell_angle_beta 132.546993
_cell_angle_gamma 90.000000
_cell_volume 2171.661354
_symmetry_space_group_name_H-M "C 2/C"
_symmetry_group_IT_number 15
_symmetry_cell_setting 'monoclinic'
loop_
_space_group_symop_operation_xyz
x,y,z
-x,y,1/2-z
-x,-y,-z
x,-y,1/2+z
1/2+x,1/2+y,z
1/2-x,1/2+y,1/2-z
1/2-x,1/2-y,-z
1/2+x,1/2-y,1/2+z
loop_
_atom_site_type_symbol
_atom_site_label
_atom_site_fract_x
_atom_site_fract_y
_atom_site_fract_z
Si Si1 0.360002 0.141680 0.916501
Si Si2 0.193051 0.027381 0.082705
Si Si3 0.407250 0.746283 0.995970
Si Si4 0.106097 0.587785 0.010642
Si Si5 0.000000 0.284447 0.750000
Si Si6 0.142471 0.061300 0.688870
Si Si7 0.235683 0.325626 0.490415
O O1 0.501785 0.108157 0.050425
O O2 0.211795 0.111310 0.748463
O O3 0.388720 0.166952 0.773524
O O4 0.370225 0.179992 0.064181
O O5 0.310724 0.045805 0.327699
O O6 0.181611 0.972990 0.082994
O O7 0.221095 0.041836 0.928060
O O8 0.034249 0.052258 0.965646
O O9 0.500000 0.756286 0.250000
O O10 0.279795 0.785104 0.894433
O O11 0.465914 0.754619 0.874440
O O12 0.358979 0.694893 0.989173
O O13 0.226338 0.626562 0.074343
O O14 0.000000 0.577482 0.750000
#
# Coordination Sequence:
#
# PCOD9285307 Si02
#       7
#     8   8   8   8   4   8   8
#     4  11  22  41  66 102 131 178 233 286 350 410
#     4  10  23  45  64  96 141 181 227 285 350 421
#     4  11  22  43  64  97 134 183 233 286 358 426
#     4  10  21  41  69  99 134 180 226 292 352 412
#     4  12  22  40  70  96 144 184 224 306 356 408
#     4  10  24  42  67  97 136 184 231 281 345 427
#     4  10  22  41  66  91 136 178 229 287 351 423
#
# _framework density 23.944800999999998
#
# number of rings (size 3 to 8) (size 9 to 14) (size 15 to 20)
#    0.000    1.538    3.077    1.385    4.308    2.462 
#    1.385    1.538    0.000    0.000    0.000    0.000 
#    0.000    0.000    0.000    0.000    0.000    0.000 
#
# Total GULP energy -144823.513787 kJ/mol
# GULP energy per Si atom -5570.135146 kJ/mol
# Density = 2.389030 g / cm^3
# Si number density = 23.944801 Si / 1000 Ang^3
#
#
#
# Elastic Constant Matrix: (Units=GPa)
#
#
# Indices 1 2 3 4 5 6 
#
# 1 76.3453 34.9942 33.3311 0.0000 -23.2878 0.0000
# 2 34.9942 89.3351 28.3401 0.0000 5.5158 0.0000
# 3 33.3311 28.3401 83.9348 0.0000 -16.8124 0.0000
# 4 0.0000 0.0000 0.0000 27.9926 0.0000 3.4421
# 5 -23.2878 5.5158 -16.8124 0.0000 32.1007 0.0000
# 6 0.0000 0.0000 0.0000 3.4421 0.0000 29.2710
#
#
#
# Elastic Compliance Matrix: (Units=1/GPa)
#
#
# Indices 1 2 3 4 5 6 
#
# 1 0.024153 -0.009677 -0.002772 0.000000 0.017733 0.000000
# 2 -0.009677 0.017138 -0.004402 0.000000 -0.012270 0.000000
# 3 -0.002772 -0.004402 0.015920 0.000000 0.007083 0.000000
# 4 0.000000 0.000000 0.000000 0.036248 0.000000 -0.004263
# 5 0.017733 -0.012270 0.007083 0.000000 0.049835 0.000000
# 6 0.000000 0.000000 0.000000 -0.004263 0.000000 0.034665
#
#
# Mechanical properties :
#
#
# Convention : Reuss Voigt Hill
#
# Bulk Modulus (GPa) = 42.53475 49.21624 45.87550
# Shear Modulus (GPa) = 22.77936 28.06950 25.42443
#
# Velocity S-wave (km/s) = 3.08771 3.42754 3.26205
# Velocity P-wave (km/s) = 5.52396 6.02185 5.77827
#
# Compressibility (1/GPa) = 0.02351019
#
# Stress axis : x y z
#
# Youngs Moduli (GPa) = 41.40214 58.34872 62.81475
#
# Poissons Ratio (x) = 0.56463 0.17413
# Poissons Ratio (y) = 0.40064 0.27649
# Poissons Ratio (z) = 0.11477 0.25683
#
# Static dielectric constant tensor:
#      x y z
#    x 2.074670 0.000000 0.085020 
#    y 0.000000 2.039890 0.000000 
#    z 0.085020 0.000000 1.974580 
# 
# From -- ./inp_files/43654.got.cif
#   From: 2010.05.17/outbox.cif.g08.bks.cpg/sg15_22_cif.got.tgz:43654.got - 2010.06.03 18:47:42.
