data_PCOD9285492
_publ_section_title
;
Structure prediction by ZEFSAII (Michael W. Deem and Ramdas Pophale) SiO2 
 PCOD9285492
Probable space group: C 2/C
;
_chemical_formula_sum "Si O2"
_cell_formula_units_Z 60
_cell_length_a 16.830048
_cell_length_b 20.678652
_cell_length_c 9.901185
_cell_angle_alpha 90.000000
_cell_angle_beta 62.496488
_cell_angle_gamma 90.000000
_cell_volume 3056.397386
_symmetry_space_group_name_H-M "C 2/C"
_symmetry_group_IT_number 15
_symmetry_cell_setting 'monoclinic'
loop_
_space_group_symop_operation_xyz
x,y,z
-x,y,1/2-z
-x,-y,-z
x,-y,1/2+z
1/2+x,1/2+y,z
1/2-x,1/2+y,1/2-z
1/2-x,1/2-y,-z
1/2+x,1/2-y,1/2+z
loop_
_atom_site_type_symbol
_atom_site_label
_atom_site_fract_x
_atom_site_fract_y
_atom_site_fract_z
Si Si1 0.246860 0.498876 0.825393
Si Si2 0.877190 0.229044 0.170010
Si Si3 0.051096 0.542971 0.068743
Si Si4 0.188262 0.686139 0.558192
Si Si5 0.173089 0.929462 0.491833
Si Si6 0.000000 0.861658 0.750000
Si Si7 0.416230 0.185549 0.391613
Si Si8 0.301966 0.855969 0.725436
O O1 0.302360 0.541046 0.673515
O O2 0.217157 0.432053 0.774463
O O3 0.155857 0.527805 0.960971
O O4 0.306964 0.481069 0.906558
O O5 0.874348 0.291036 0.272487
O O6 0.789677 0.183365 0.227044
O O7 0.951738 0.182919 0.176003
O O8 0.883227 0.261563 0.020392
O O9 0.047451 0.620686 0.063811
O O10 0.000000 0.527431 0.250000
O O11 0.000000 0.500000 0.000000
O O12 0.250000 0.750000 0.500000
O O13 0.253549 0.627463 0.545199
O O14 0.143324 0.667381 0.451185
O O15 0.075614 0.901477 0.607609
O O16 0.500000 0.215796 0.250000
O O17 0.346512 0.162333 0.331675
#
# Coordination Sequence:
#
# PCOD9285492 Si02
#       8
#     8   8   8   8   8   4   8   8
#     4  11  21  41  66  93 127 181 204 263 337 383
#     4  11  23  41  67  91 127 170 217 274 320 381
#     4  11  23  42  64 100 134 162 215 269 321 401
#     4   9  18  38  63  90 114 167 206 260 325 374
#     4  11  23  40  67  92 131 170 225 268 325 391
#     4  12  24  44  64  98 128 166 238 278 302 384
#     4  11  24  39  60  96 129 166 204 265 331 392
#     4  10  21  42  62  92 128 162 217 260 324 395
#
# _framework density 19.630953999999999
#
# number of rings (size 3 to 8) (size 9 to 14) (size 15 to 20)
#    0.000    1.333    4.000    4.400    1.867    1.600 
#    1.200    2.667    0.000    0.000    0.000    0.000 
#    0.000    0.000    0.000    0.000    0.000    0.000 
#
# Total GULP energy -167224.888151 kJ/mol
# GULP energy per Si atom -5574.162938 kJ/mol
# Density = 1.958627 g / cm^3
# Si number density = 19.630954 Si / 1000 Ang^3
#
#
#
# Elastic Constant Matrix: (Units=GPa)
#
#
# Indices 1 2 3 4 5 6 
#
# 1 79.6032 15.7297 40.4600 0.0000 -4.5131 0.0000
# 2 15.7297 71.5134 62.9896 0.0000 -1.3131 0.0000
# 3 40.4600 62.9896 137.0441 0.0000 -13.3796 0.0000
# 4 0.0000 0.0000 0.0000 34.2980 0.0000 13.7955
# 5 -4.5131 -1.3131 -13.3796 0.0000 22.5286 0.0000
# 6 0.0000 0.0000 0.0000 13.7955 0.0000 -11.6461
#
#
#
# Elastic Compliance Matrix: (Units=1/GPa)
#
#
# Indices 1 2 3 4 5 6 
#
# 1 0.014823 0.000979 -0.004810 0.000000 0.000170 0.000000
# 2 0.000979 0.024185 -0.011941 0.000000 -0.005486 0.000000
# 3 -0.004810 -0.011941 0.014908 0.000000 0.007194 0.000000
# 4 0.000000 0.000000 0.000000 0.019747 0.000000 0.023392
# 5 0.000170 -0.005486 0.007194 0.000000 0.048375 0.000000
# 6 0.000000 0.000000 0.000000 0.023392 0.000000 -0.058156
#
#
# Mechanical properties :
#
#
# Convention : Reuss Voigt Hill
#
# Bulk Modulus (GPa) = 44.69691 58.50214 51.59952
# Shear Modulus (GPa) = 48.59972 20.30153 34.45062
#
# Velocity S-wave (km/s) = 4.98101 3.21932 4.19371
# Velocity P-wave (km/s) = 7.47654 6.60942 7.05631
#
# Compressibility (1/GPa) = 0.02237291
#
# Stress axis : x y z
#
# Youngs Moduli (GPa) = 67.46224 41.34839 67.08009
#
# Poissons Ratio (x) = -0.04049 0.32264
# Poissons Ratio (y) = -0.06606 0.80098
# Poissons Ratio (z) = 0.32447 0.49373
#
# Static dielectric constant tensor:
#      x y z
#    x 1.621100 0.000000 0.015560 
#    y 0.000000 1.679140 0.000000 
#    z 0.015560 0.000000 1.679510 
# 
# From -- ./inp_files/50641.got.cif
#   From: 2010.05.17/outbox.cif.g08.bks.cpg/sg15_26_cif.got.tgz:50641.got - 2010.06.03 18:47:42.
