data_PCOD9285207
_publ_section_title
;
Structure prediction by ZEFSAII (Michael W. Deem and Ramdas Pophale) SiO2 
 PCOD9285207
Probable space group: C 2/C
;
_chemical_formula_sum "Si O2"
_cell_formula_units_Z 48
_cell_length_a 14.635899
_cell_length_b 22.705555
_cell_length_c 12.569495
_cell_angle_alpha 90.000000
_cell_angle_beta 146.511634
_cell_angle_gamma 90.000000
_cell_volume 2304.759381
_symmetry_space_group_name_H-M "C 2/C"
_symmetry_group_IT_number 15
_symmetry_cell_setting 'monoclinic'
loop_
_space_group_symop_operation_xyz
x,y,z
-x,y,1/2-z
-x,-y,-z
x,-y,1/2+z
1/2+x,1/2+y,z
1/2-x,1/2+y,1/2-z
1/2-x,1/2-y,-z
1/2+x,1/2-y,1/2+z
loop_
_atom_site_type_symbol
_atom_site_label
_atom_site_fract_x
_atom_site_fract_y
_atom_site_fract_z
Si Si1 0.140017 0.974477 0.713118
Si Si2 0.425693 0.369504 0.543152
Si Si3 0.195012 0.315171 0.915114
Si Si4 0.735466 0.687075 0.430687
Si Si5 0.750752 0.397863 0.345722
Si Si6 0.122528 0.371577 0.628229
O O1 0.277649 0.932470 0.793068
O O2 0.031175 0.927723 0.671647
O O3 0.222269 0.032894 0.840451
O O4 0.000000 0.000000 0.500000
O O5 0.279470 0.357729 0.484183
O O6 0.560831 0.318451 0.696699
O O7 0.363484 0.375402 0.362640
O O8 0.211531 0.334463 0.808686
O O9 0.000000 0.318693 0.750000
O O10 0.250000 0.250000 0.000000
O O11 0.280313 0.361010 0.078031
O O12 0.750000 0.750000 0.500000
O O13 0.867688 0.665824 0.471797
O O14 0.937631 0.386403 0.486247
#
# Coordination Sequence:
#
# PCOD9285207 Si02
#       6
#     8   8   8   8   8   8
#     4   9  19  41  65  92 128 166 217 270 321 395
#     4   9  21  40  61  94 127 166 220 263 327 388
#     4  10  24  43  64  95 130 170 219 272 327 392
#     4  10  22  40  61  90 133 170 209 264 324 389
#     4  10  21  41  68  94 126 172 216 273 332 385
#     4  10  22  42  63  97 131 168 219 269 332 387
#
# _framework density 20.82647
#
# number of rings (size 3 to 8) (size 9 to 14) (size 15 to 20)
#    0.000    2.333    0.000    0.500    2.333    7.333 
#   27.000    0.000    0.000    0.000    0.000    0.000 
#    0.000    0.000    0.000    0.000    0.000    0.000 
#
# Total GULP energy -133784.762609 kJ/mol
# GULP energy per Si atom -5574.365109 kJ/mol
# Density = 2.077907 g / cm^3
# Si number density = 20.826470 Si / 1000 Ang^3
#
#
#
# Elastic Constant Matrix: (Units=GPa)
#
#
# Indices 1 2 3 4 5 6 
#
# 1 85.0315 51.7628 20.7257 0.0000 -9.6936 0.0000
# 2 51.7628 180.6602 53.8047 0.0000 -14.8662 0.0000
# 3 20.7257 53.8047 88.1148 0.0000 -9.5964 0.0000
# 4 0.0000 0.0000 0.0000 42.0778 0.0000 -1.3075
# 5 -9.6936 -14.8662 -9.5964 0.0000 23.8632 0.0000
# 6 0.0000 0.0000 0.0000 -1.3075 0.0000 22.8708
#
#
#
# Elastic Compliance Matrix: (Units=1/GPa)
#
#
# Indices 1 2 3 4 5 6 
#
# 1 0.014564 -0.003652 -0.000836 0.000000 0.003305 0.000000
# 2 -0.003652 0.007848 -0.003725 0.000000 0.001908 0.000000
# 3 -0.000836 -0.003725 0.014150 0.000000 0.003030 0.000000
# 4 0.000000 0.000000 0.000000 0.023808 0.000000 0.001361
# 5 0.003305 0.001908 0.003030 0.000000 0.045655 0.000000
# 6 0.000000 0.000000 0.000000 0.001361 0.000000 0.043802
#
#
# Mechanical properties :
#
#
# Convention : Reuss Voigt Hill
#
# Bulk Modulus (GPa) = 49.66243 67.37698 58.51971
# Shear Modulus (GPa) = 28.90756 32.92990 30.91873
#
# Velocity S-wave (km/s) = 3.72966 3.98069 3.85722
# Velocity P-wave (km/s) = 6.51496 7.31777 6.92800
#
# Compressibility (1/GPa) = 0.02013595
#
# Stress axis : x y z
#
# Youngs Moduli (GPa) = 68.66256 127.41880 70.67013
#
# Poissons Ratio (x) = 0.46534 0.05906
# Poissons Ratio (y) = 0.25076 0.26328
# Poissons Ratio (z) = 0.05738 0.47470
#
# Static dielectric constant tensor:
#      x y z
#    x 1.801270 0.000000 0.033740 
#    y 0.000000 2.063410 0.000000 
#    z 0.033740 0.000000 1.839360 
# 
# From -- ./inp_files/100059.got.cif
#   From: 2010.05.17/outbox.cif.g08.bks.cpg/sg15_51_cif.got.tgz:100059.got - 2010.06.03 18:47:42.
