data_PCOD9285560
_publ_section_title
;
Structure prediction by ZEFSAII (Michael W. Deem and Ramdas Pophale) SiO2 
 PCOD9285560
Probable space group: C 2/C
;
_chemical_formula_sum "Si O2"
_cell_formula_units_Z 52
_cell_length_a 7.205199
_cell_length_b 12.225691
_cell_length_c 26.607084
_cell_angle_alpha 90.000000
_cell_angle_beta 69.739527
_cell_angle_gamma 90.000000
_cell_volume 2198.764919
_symmetry_space_group_name_H-M "C 2/C"
_symmetry_group_IT_number 15
_symmetry_cell_setting 'monoclinic'
loop_
_space_group_symop_operation_xyz
x,y,z
-x,y,1/2-z
-x,-y,-z
x,-y,1/2+z
1/2+x,1/2+y,z
1/2-x,1/2+y,1/2-z
1/2-x,1/2-y,-z
1/2+x,1/2-y,1/2+z
loop_
_atom_site_type_symbol
_atom_site_label
_atom_site_fract_x
_atom_site_fract_y
_atom_site_fract_z
Si Si1 0.706566 0.702441 0.949059
Si Si2 0.484272 0.954806 0.057280
Si Si3 0.866641 0.798515 0.416020
Si Si4 0.211801 0.122839 0.143365
Si Si5 0.068895 0.633423 0.169737
Si Si6 0.360403 0.461156 0.177958
Si Si7 0.500000 0.685105 0.750000
O O1 0.473035 0.703825 0.959629
O O2 0.795101 0.775961 0.894944
O O3 0.807305 0.583511 0.940109
O O4 0.750000 0.750000 0.000000
O O5 0.346735 0.848798 0.066816
O O6 0.355873 0.036226 0.102425
O O7 0.500000 0.000000 0.000000
O O8 0.856421 0.681021 0.390454
O O9 0.021624 0.878552 0.370846
O O10 0.330838 0.140427 0.184071
O O11 0.004377 0.065374 0.170352
O O12 0.158030 0.517552 0.177963
O O13 0.119443 0.731310 0.203382
O O14 0.360501 0.392824 0.229525
#
# Coordination Sequence:
#
# PCOD9285560 Si02
#       7
#     8   8   8   8   8   8   4
#     4  11  21  37  56  88 121 160 211 252 294 359
#     4  11  21  37  56  88 121 160 211 252 294 359
#     4   9  22  39  58  86 123 162 204 250 307 362
#     4  10  22  40  62  88 121 168 197 247 319 360
#     4  10  21  42  64  88 124 157 198 256 314 368
#     4  10  21  42  64  88 124 157 198 256 314 368
#     4  10  24  40  66 102 116 150 218 252 302 402
#
# _framework density 23.649640000000002
#
# number of rings (size 3 to 8) (size 9 to 14) (size 15 to 20)
#    0.000    1.846    1.538    1.846    2.154    1.231 
#    2.769    1.538    0.000    0.000    0.000    0.000 
#    0.000    0.000    0.000    0.000    0.000    0.000 
#
# Total GULP energy -145191.121053 kJ/mol
# GULP energy per Si atom -5584.273887 kJ/mol
# Density = 2.359581 g / cm^3
# Si number density = 23.649640 Si / 1000 Ang^3
#
#
#
# Elastic Constant Matrix: (Units=GPa)
#
#
# Indices 1 2 3 4 5 6 
#
# 1 70.4128 18.5948 34.1833 0.0000 26.4180 0.0000
# 2 18.5948 84.5519 20.7177 0.0000 16.1598 0.0000
# 3 34.1833 20.7177 41.9379 0.0000 23.1119 0.0000
# 4 0.0000 0.0000 0.0000 41.4636 0.0000 7.3774
# 5 26.4180 16.1598 23.1119 0.0000 31.4369 0.0000
# 6 0.0000 0.0000 0.0000 7.3774 0.0000 58.6220
#
#
#
# Elastic Compliance Matrix: (Units=1/GPa)
#
#
# Indices 1 2 3 4 5 6 
#
# 1 0.025331 0.000074 -0.015015 0.000000 -0.010286 0.000000
# 2 0.000074 0.013677 -0.004889 0.000000 -0.003499 0.000000
# 3 -0.015015 -0.004889 0.050703 0.000000 -0.022145 0.000000
# 4 0.000000 0.000000 0.000000 0.024670 0.000000 -0.003105
# 5 -0.010286 -0.003499 -0.022145 0.000000 0.058532 0.000000
# 6 0.000000 0.000000 0.000000 -0.003105 0.000000 0.017449
#
#
# Mechanical properties :
#
#
# Convention : Reuss Voigt Hill
#
# Bulk Modulus (GPa) = 19.97965 38.21048 29.09506
# Shear Modulus (GPa) = 20.26702 34.53162 27.39932
#
# Velocity S-wave (km/s) = 2.93058 3.82531 3.40744
# Velocity P-wave (km/s) = 4.46291 5.97517 5.27353
#
# Compressibility (1/GPa) = 0.05005093
#
# Stress axis : x y z
#
# Youngs Moduli (GPa) = 39.47738 73.11336 19.72284
#
# Poissons Ratio (x) = -0.00543 0.29614
# Poissons Ratio (y) = -0.00293 0.09643
# Poissons Ratio (z) = 0.59276 0.35746
#
# Static dielectric constant tensor:
#      x y z
#    x 6.116670 0.000000 0.661310 
#    y 0.000000 1.946360 0.000000 
#    z 0.661310 0.000000 2.062050 
# 
# From -- ./inp_files/305330.got.cif
#   From: 2010.05.17/outbox.cif.g08.bks.cpg/sg15_153_cif.got.tgz:305330.got - 2010.06.03 18:47:42.
