data_PCOD9285535
_publ_section_title
;
Structure prediction by ZEFSAII (Michael W. Deem and Ramdas Pophale) SiO2 
 PCOD9285535
Probable space group: C 2/C
;
_chemical_formula_sum "Si O2"
_cell_formula_units_Z 36
_cell_length_a 23.312397
_cell_length_b 8.467290
_cell_length_c 9.120412
_cell_angle_alpha 90.000000
_cell_angle_beta 124.450310
_cell_angle_gamma 90.000000
_cell_volume 1484.561374
_symmetry_space_group_name_H-M "C 2/C"
_symmetry_group_IT_number 15
_symmetry_cell_setting 'monoclinic'
loop_
_space_group_symop_operation_xyz
x,y,z
-x,y,1/2-z
-x,-y,-z
x,-y,1/2+z
1/2+x,1/2+y,z
1/2-x,1/2+y,1/2-z
1/2-x,1/2-y,-z
1/2+x,1/2-y,1/2+z
loop_
_atom_site_type_symbol
_atom_site_label
_atom_site_fract_x
_atom_site_fract_y
_atom_site_fract_z
Si Si1 0.665594 0.136399 0.299391
Si Si2 0.421270 0.341691 0.123195
Si Si3 0.294295 0.860344 0.958240
Si Si4 0.000000 0.154421 0.250000
Si Si5 0.416718 0.830859 0.327636
O O1 0.628230 0.284005 0.319156
O O2 0.708986 0.039688 0.485804
O O3 0.604149 0.010122 0.165327
O O4 0.712269 0.158984 0.223659
O O5 0.500000 0.267881 0.250000
O O6 0.437370 0.526596 0.145216
O O7 0.393161 0.276152 0.928876
O O8 0.372614 0.813277 0.115208
O O9 0.250000 0.750000 0.000000
O O10 0.010499 0.261816 0.122078
#
# Coordination Sequence:
#
# PCOD9285535 Si02
#       5
#     8   8   8   4   8
#     4  10  21  43  65  94 121 169 218 258 319 382
#     4  10  23  38  62  97 137 167 208 257 326 387
#     4  10  23  45  68  93 124 168 224 270 315 371
#     4  10  24  36  62  98 138 168 208 260 326 372
#     4  10  21  42  63  95 131 170 216 258 319 384
#
# _framework density 24.249586000000001
#
# number of rings (size 3 to 8) (size 9 to 14) (size 15 to 20)
#    2.000    0.000    2.222    0.667    4.667    0.889 
#    8.000    2.222    0.000    0.000    0.000    0.000 
#    0.000    0.000    0.000    0.000    0.000    0.000 
#
# Total GULP energy -100270.465182 kJ/mol
# GULP energy per Si atom -5570.581399 kJ/mol
# Density = 2.419439 g / cm^3
# Si number density = 24.249586 Si / 1000 Ang^3
#
#
#
# Elastic Constant Matrix: (Units=GPa)
#
#
# Indices 1 2 3 4 5 6 
#
# 1 100.4549 46.3728 33.8497 0.0000 -51.0876 0.0000
# 2 46.3728 68.0667 7.7862 0.0000 -7.0955 0.0000
# 3 33.8497 7.7862 80.3155 0.0000 -37.5769 0.0000
# 4 0.0000 0.0000 0.0000 18.1525 0.0000 -15.5983
# 5 -51.0876 -7.0955 -37.5769 0.0000 47.4926 0.0000
# 6 0.0000 0.0000 0.0000 -15.5983 0.0000 44.6985
#
#
#
# Elastic Compliance Matrix: (Units=1/GPa)
#
#
# Indices 1 2 3 4 5 6 
#
# 1 0.045684 -0.026642 0.007079 0.000000 0.050763 0.000000
# 2 -0.026642 0.030482 -0.004770 0.000000 -0.027879 0.000000
# 3 0.007079 -0.004770 0.020894 0.000000 0.023433 0.000000
# 4 0.000000 0.000000 0.000000 0.078683 0.000000 0.027458
# 5 0.050763 -0.027879 0.023433 0.000000 0.090037 0.000000
# 6 0.000000 0.000000 0.000000 0.027458 0.000000 0.031954
#
#
# Mechanical properties :
#
#
# Convention : Reuss Voigt Hill
#
# Bulk Modulus (GPa) = 20.66402 47.20605 33.93503
# Shear Modulus (GPa) = 13.79194 32.79064 23.29129
#
# Velocity S-wave (km/s) = 2.38743 3.68124 3.10253
# Velocity P-wave (km/s) = 4.01742 6.13006 5.18254
#
# Compressibility (1/GPa) = 0.04839329
#
# Stress axis : x y z
#
# Youngs Moduli (GPa) = 21.88941 32.80653 47.86175
#
# Poissons Ratio (x) = 0.87403 -0.33881
# Poissons Ratio (y) = 0.58318 0.22830
# Poissons Ratio (z) = -0.15496 0.15649
#
# Static dielectric constant tensor:
#      x y z
#    x 2.041250 0.000000 0.044300 
#    y 0.000000 1.961250 0.000000 
#    z 0.044300 0.000000 1.928430 
# 
# From -- ./inp_files/64417.got.cif
#   From: 2010.05.17/outbox.cif.g08.bks.cpg/sg15_33_cif.got.tgz:64417.got - 2010.06.03 18:47:42.
