data_PCOD9285737
_publ_section_title
;
Structure prediction by ZEFSAII (Michael W. Deem and Ramdas Pophale) SiO2 
 PCOD9285737
Probable space group: C 2/C
;
_chemical_formula_sum "Si O2"
_cell_formula_units_Z 48
_cell_length_a 21.509669
_cell_length_b 15.879558
_cell_length_c 11.287710
_cell_angle_alpha 90.000000
_cell_angle_beta 144.624145
_cell_angle_gamma 90.000000
_cell_volume 2232.079970
_symmetry_space_group_name_H-M "C 2/C"
_symmetry_group_IT_number 15
_symmetry_cell_setting 'monoclinic'
loop_
_space_group_symop_operation_xyz
x,y,z
-x,y,1/2-z
-x,-y,-z
x,-y,1/2+z
1/2+x,1/2+y,z
1/2-x,1/2+y,1/2-z
1/2-x,1/2-y,-z
1/2+x,1/2-y,1/2+z
loop_
_atom_site_type_symbol
_atom_site_label
_atom_site_fract_x
_atom_site_fract_y
_atom_site_fract_z
Si Si1 0.612554 0.666134 0.246317
Si Si2 0.671357 0.412514 0.589002
Si Si3 0.163757 0.263149 0.966716
Si Si4 0.615312 0.995211 0.117740
Si Si5 0.301339 0.178785 0.718827
Si Si6 0.500000 0.447343 0.750000
Si Si7 0.000000 0.604335 0.250000
O O1 0.658304 0.609924 0.208295
O O2 0.602900 0.758180 0.171716
O O3 0.693005 0.690733 0.478127
O O4 0.522222 0.612275 0.171247
O O5 0.630104 0.330698 0.453640
O O6 0.796849 0.431647 0.755344
O O7 0.600087 0.492096 0.437960
O O8 0.212679 0.302967 0.163799
O O9 0.250000 0.250000 0.000000
O O10 0.070661 0.328823 0.784621
O O11 0.670990 0.916502 0.266940
O O12 0.584456 0.957260 0.942135
O O13 0.500000 0.000000 0.000000
#
# Coordination Sequence:
#
# PCOD9285737 Si02
#       7
#     8   8   8   8   8   4   4
#     4  10  22  44  64  93 132 174 216 267 340 411
#     4  11  24  41  68  99 134 168 225 287 338 398
#     4  10  21  42  66  92 127 179 220 267 329 403
#     4  11  23  41  63  98 130 171 215 279 333 395
#     4   9  21  44  63  89 135 167 219 269 320 415
#     4  12  23  42  67 100 126 178 218 288 339 406
#     4  10  23  40  61  94 128 168 214 268 321 398
#
# _framework density 21.504607
#
# number of rings (size 3 to 8) (size 9 to 14) (size 15 to 20)
#    0.000    1.667    1.667    2.000    2.333    2.667 
#   21.000    0.000    0.000    0.000    0.000    0.000 
#    0.000    0.000    0.000    0.000    0.000    0.000 
#
# Total GULP energy -133631.806046 kJ/mol
# GULP energy per Si atom -5567.991919 kJ/mol
# Density = 2.145566 g / cm^3
# Si number density = 21.504607 Si / 1000 Ang^3
#
#
#
# Elastic Constant Matrix: (Units=GPa)
#
#
# Indices 1 2 3 4 5 6 
#
# 1 108.2648 16.1368 2.6952 0.0000 3.7438 0.0000
# 2 16.1368 59.0910 0.1205 0.0000 3.1245 0.0000
# 3 2.6952 0.1205 64.3385 0.0000 -0.1339 0.0000
# 4 0.0000 0.0000 0.0000 26.1437 0.0000 6.7852
# 5 3.7438 3.1245 -0.1339 0.0000 27.7694 0.0000
# 6 0.0000 0.0000 0.0000 6.7852 0.0000 22.6290
#
#
#
# Elastic Compliance Matrix: (Units=1/GPa)
#
#
# Indices 1 2 3 4 5 6 
#
# 1 0.009667 -0.002585 -0.000402 0.000000 -0.001014 0.000000
# 2 -0.002585 0.017716 0.000072 0.000000 -0.001644 0.000000
# 3 -0.000402 0.000072 0.015560 0.000000 0.000121 0.000000
# 4 0.000000 0.000000 0.000000 0.041478 0.000000 -0.012437
# 5 -0.001014 -0.001644 0.000121 0.000000 0.036333 0.000000
# 6 0.000000 0.000000 0.000000 -0.012437 0.000000 0.047920
#
#
# Mechanical properties :
#
#
# Convention : Reuss Voigt Hill
#
# Bulk Modulus (GPa) = 26.94637 29.95548 28.45092
# Shear Modulus (GPa) = 26.75565 29.49119 28.12342
#
# Velocity S-wave (km/s) = 3.53112 3.70725 3.62026
# Velocity P-wave (km/s) = 5.40211 5.68198 5.54381
#
# Compressibility (1/GPa) = 0.03711075
#
# Stress axis : x y z
#
# Youngs Moduli (GPa) = 103.44402 56.44642 64.26834
#
# Poissons Ratio (x) = 0.14594 0.02585
# Poissons Ratio (y) = 0.26745 -0.00461
# Poissons Ratio (z) = 0.04161 -0.00405
#
# Static dielectric constant tensor:
#      x y z
#    x 1.824580 0.000000 -0.003120 
#    y 0.000000 1.918480 0.000000 
#    z -0.003120 0.000000 1.810400 
# 
# From -- ./inp_files/96884.got.cif
#   From: 2010.05.17/outbox.cif.g08.bks.cpg/sg15_49_cif.got.tgz:96884.got - 2010.06.03 18:47:42.
