data_PCOD9285899
_publ_section_title
;
Structure prediction by ZEFSAII (Michael W. Deem and Ramdas Pophale) SiO2 
 PCOD9285899
Probable space group: C 2/C
;
_chemical_formula_sum "Si O2"
_cell_formula_units_Z 56
_cell_length_a 10.890014
_cell_length_b 21.344403
_cell_length_c 21.619919
_cell_angle_alpha 90.000000
_cell_angle_beta 32.387279
_cell_angle_gamma 90.000000
_cell_volume 2691.776292
_symmetry_space_group_name_H-M "C 2/C"
_symmetry_group_IT_number 15
_symmetry_cell_setting 'monoclinic'
loop_
_space_group_symop_operation_xyz
x,y,z
-x,y,1/2-z
-x,-y,-z
x,-y,1/2+z
1/2+x,1/2+y,z
1/2-x,1/2+y,1/2-z
1/2-x,1/2-y,-z
1/2+x,1/2-y,1/2+z
loop_
_atom_site_type_symbol
_atom_site_label
_atom_site_fract_x
_atom_site_fract_y
_atom_site_fract_z
Si Si1 0.850256 0.243205 0.372359
Si Si2 0.612816 0.776535 0.381528
Si Si3 0.609000 0.397741 0.598732
Si Si4 0.854293 0.912039 0.579769
Si Si5 0.000000 0.989876 0.750000
Si Si6 0.500000 0.814695 0.750000
Si Si7 0.140823 0.580555 0.860581
Si Si8 0.263819 0.948671 0.322400
O O1 0.574174 0.249347 0.489197
O O2 0.882748 0.169301 0.371825
O O3 0.000000 0.261185 0.250000
O O4 0.962276 0.278272 0.382981
O O5 0.827223 0.730270 0.286704
O O6 0.691768 0.847611 0.357870
O O7 0.485689 0.389903 0.585736
O O8 0.483200 0.445893 0.697317
O O9 0.865830 0.423447 0.479676
O O10 0.658163 0.863060 0.645029
O O11 0.038166 0.918111 0.447415
O O12 0.757363 0.979782 0.642682
O O13 0.222939 0.033792 0.652885
O O14 0.222228 0.562688 0.756682
O O15 0.500000 0.922541 0.250000
#
# Coordination Sequence:
#
# PCOD9285899 Si02
#       8
#     8   8   8   8   4   4   8   8
#     4  10  21  42  68  92 120 170 226 263 308 386
#     4  10  24  41  64  93 130 171 213 266 321 383
#     4  11  21  40  65  92 123 170 220 259 319 384
#     4  11  23  39  66  97 129 170 213 272 326 378
#     4  12  23  40  64  94 131 172 204 268 324 388
#     4  12  23  44  66  94 135 168 208 272 322 380
#     4  11  24  41  62  96 132 166 213 267 322 389
#     4  11  22  40  66  98 130 168 219 270 323 383
#
# _framework density 20.804106000000001
#
# number of rings (size 3 to 8) (size 9 to 14) (size 15 to 20)
#    0.000    1.143    5.714    0.857    0.000    1.714 
#    0.000    5.714    0.000    0.000    0.000    0.000 
#    0.000    0.000    0.000    0.000    0.000    0.000 
#
# Total GULP energy -156382.486805 kJ/mol
# GULP energy per Si atom -5585.088814 kJ/mol
# Density = 2.075675 g / cm^3
# Si number density = 20.804106 Si / 1000 Ang^3
#
#
#
# Elastic Constant Matrix: (Units=GPa)
#
#
# Indices 1 2 3 4 5 6 
#
# 1 22.8604 -1.8236 6.0721 -0.0713 -3.3384 0.0633
# 2 -1.8236 90.9431 28.8166 0.0187 -11.9360 0.0003
# 3 6.0721 28.8166 94.2989 -0.1153 -6.3073 0.0015
# 4 -0.0713 0.0187 -0.1153 32.1821 0.0490 -17.2312
# 5 -3.3384 -11.9360 -6.3073 0.0490 35.0550 -0.0414
# 6 0.0633 0.0003 0.0015 -17.2312 -0.0414 30.8446
#
#
#
# Elastic Compliance Matrix: (Units=1/GPa)
#
#
# Indices 1 2 3 4 5 6 
#
# 1 0.045532 0.002601 -0.003419 0.000048 0.004607 -0.000061
# 2 0.002601 0.012768 -0.003808 -0.000030 0.003910 -0.000017
# 3 -0.003419 -0.003808 0.012025 0.000058 0.000541 0.000040
# 4 0.000048 -0.000030 0.000058 0.044335 -0.000028 0.024767
# 5 0.004607 0.003910 0.000541 -0.000028 0.030394 0.000016
# 6 -0.000061 -0.000017 0.000040 0.024767 0.000016 0.046257
#
#
# Mechanical properties :
#
#
# Convention : Reuss Voigt Hill
#
# Bulk Modulus (GPa) = 16.37360 30.47027 23.42194
# Shear Modulus (GPa) = 22.63273 31.28547 26.95910
#
# Velocity S-wave (km/s) = 3.30191 3.88211 3.60370
# Velocity P-wave (km/s) = 4.73542 5.89682 5.34774
#
# Compressibility (1/GPa) = 0.06107393
#
# Stress axis : x y z
#
# Youngs Moduli (GPa) = 21.96240 78.32256 83.16312
#
# Poissons Ratio (x) = -0.20370 0.28430
# Poissons Ratio (y) = -0.05712 0.31666
# Poissons Ratio (z) = 0.07508 0.29822
#
# Static dielectric constant tensor:
#      x y z
#    x 1.718170 -0.000010 -0.015550 
#    y -0.000010 1.784580 0.000030 
#    z -0.015550 0.000030 1.759040 
# 
# From -- ./inp_files/270931.got.cif
#   From: 2010.05.17/outbox.cif.g08.bks.cpg/sg15_136_cif.got.tgz:270931.got - 2010.06.03 18:47:42.
