data_PCOD9285964
_publ_section_title
;
Structure prediction by ZEFSAII (Michael W. Deem and Ramdas Pophale) SiO2 
 PCOD9285964
Probable space group: C 2/C
;
_chemical_formula_sum "Si O2"
_cell_formula_units_Z 64
_cell_length_a 26.451051
_cell_length_b 7.994659
_cell_length_c 14.700904
_cell_angle_alpha 90.000000
_cell_angle_beta 105.428614
_cell_angle_gamma 90.000000
_cell_volume 2996.726660
_symmetry_space_group_name_H-M "C 2/C"
_symmetry_group_IT_number 15
_symmetry_cell_setting 'monoclinic'
loop_
_space_group_symop_operation_xyz
x,y,z
-x,y,1/2-z
-x,-y,-z
x,-y,1/2+z
1/2+x,1/2+y,z
1/2-x,1/2+y,1/2-z
1/2-x,1/2-y,-z
1/2+x,1/2-y,1/2+z
loop_
_atom_site_type_symbol
_atom_site_label
_atom_site_fract_x
_atom_site_fract_y
_atom_site_fract_z
Si Si1 0.537380 0.651953 0.985920
Si Si2 0.058288 0.748174 0.792672
Si Si3 0.316774 0.412416 0.072692
Si Si4 0.303670 0.078484 0.946192
Si Si5 0.438590 0.817586 0.886592
Si Si6 0.885622 0.332549 0.351462
Si Si7 0.632218 0.735370 0.495971
Si Si8 0.423228 0.620533 0.702772
O O1 0.495151 0.798872 0.957588
O O2 0.560487 0.639271 0.895092
O O3 0.500000 0.500000 0.000000
O O4 0.583812 0.689776 0.078020
O O5 0.104471 0.681812 0.750282
O O6 0.082320 0.740333 0.904419
O O7 0.000000 0.673652 0.750000
O O8 0.054207 0.941024 0.759465
O O9 0.316244 0.235610 0.018517
O O10 0.335927 0.572630 0.022524
O O11 0.360377 0.392286 0.171398
O O12 0.258507 0.444847 0.080956
O O13 0.332844 0.904770 0.986874
O O14 0.327665 0.137841 0.861172
O O15 0.441110 0.758100 0.783197
O O16 0.417542 0.001180 0.890025
O O17 0.394888 0.708442 0.919259
#
# Coordination Sequence:
#
# PCOD9285964 Si02
#       8
#     8   8   8   8   8   8   8   8
#     4  12  22  40  64  88 126 170 217 263 323 395
#     4  11  23  39  63  93 129 173 215 264 323 391
#     4  10  21  42  69  90 121 172 209 273 331 376
#     4  10  22  42  67  93 123 163 220 270 328 383
#     4  11  24  37  61  92 128 169 205 267 326 395
#     4  11  24  39  60  92 130 162 218 267 324 389
#     4  10  23  42  66  94 131 170 219 267 322 399
#     4  11  23  39  62  95 125 167 221 266 322 396
#
# _framework density 21.356636999999999
#
# number of rings (size 3 to 8) (size 9 to 14) (size 15 to 20)
#    0.000    1.250    1.250    5.625    3.500    2.000 
#    0.000    6.250    0.000    0.000    0.000    0.000 
#    0.000    0.000    0.000    0.000    0.000    0.000 
#
# Total GULP energy -178641.142018 kJ/mol
# GULP energy per Si atom -5582.535688 kJ/mol
# Density = 2.130803 g / cm^3
# Si number density = 21.356637 Si / 1000 Ang^3
#
#
#
# Elastic Constant Matrix: (Units=GPa)
#
#
# Indices 1 2 3 4 5 6 
#
# 1 126.3529 29.3811 33.9364 0.0000 -7.6957 0.0000
# 2 29.3811 74.8351 6.7497 0.0000 -3.3223 0.0000
# 3 33.9364 6.7497 81.8981 0.0000 -19.4753 0.0000
# 4 0.0000 0.0000 0.0000 12.7874 0.0000 0.3278
# 5 -7.6957 -3.3223 -19.4753 0.0000 30.4596 0.0000
# 6 0.0000 0.0000 0.0000 0.3278 0.0000 32.6734
#
#
#
# Elastic Compliance Matrix: (Units=1/GPa)
#
#
# Indices 1 2 3 4 5 6 
#
# 1 0.009733 -0.003492 -0.003834 0.000000 -0.000373 0.000000
# 2 -0.003492 0.014736 0.000478 0.000000 0.001030 0.000000
# 3 -0.003834 0.000478 0.015970 0.000000 0.009294 0.000000
# 4 0.000000 0.000000 0.000000 0.078222 0.000000 -0.000785
# 5 -0.000373 0.001030 0.009294 0.000000 0.038791 0.000000
# 6 0.000000 0.000000 0.000000 -0.000785 0.000000 0.030614
#
#
# Mechanical properties :
#
#
# Convention : Reuss Voigt Hill
#
# Bulk Modulus (GPa) = 37.39421 47.02451 42.20936
# Shear Modulus (GPa) = 23.73281 29.38532 26.55906
#
# Velocity S-wave (km/s) = 3.33718 3.71338 3.53029
# Velocity P-wave (km/s) = 5.69178 6.36020 6.03525
#
# Compressibility (1/GPa) = 0.02674211
#
# Stress axis : x y z
#
# Youngs Moduli (GPa) = 102.73812 67.85887 62.61779
#
# Poissons Ratio (x) = 0.23698 0.24009
# Poissons Ratio (y) = 0.35878 -0.02991
# Poissons Ratio (z) = 0.39392 -0.03241
#
# Static dielectric constant tensor:
#      x y z
#    x 1.791590 0.000000 -0.066160 
#    y 0.000000 1.824290 0.000000 
#    z -0.066160 0.000000 1.819270 
# 
# From -- ./inp_files/172393.got.cif
#   From: 2010.05.17/outbox.cif.g08.bks.cpg/sg15_87_cif.got.tgz:172393.got - 2010.06.03 18:47:42.
