data_PCOD9285105
_publ_section_title
;
Structure prediction by ZEFSAII (Michael W. Deem and Ramdas Pophale) SiO2 
 PCOD9285105
Probable space group: C 2/C
;
_chemical_formula_sum "Si O2"
_cell_formula_units_Z 32
_cell_length_a 9.635337
_cell_length_b 9.041711
_cell_length_c 18.864347
_cell_angle_alpha 90.000000
_cell_angle_beta 131.833971
_cell_angle_gamma 90.000000
_cell_volume 1224.510766
_symmetry_space_group_name_H-M "C 2/C"
_symmetry_group_IT_number 15
_symmetry_cell_setting 'monoclinic'
loop_
_space_group_symop_operation_xyz
x,y,z
-x,y,1/2-z
-x,-y,-z
x,-y,1/2+z
1/2+x,1/2+y,z
1/2-x,1/2+y,1/2-z
1/2-x,1/2-y,-z
1/2+x,1/2-y,1/2+z
loop_
_atom_site_type_symbol
_atom_site_label
_atom_site_fract_x
_atom_site_fract_y
_atom_site_fract_z
Si Si1 0.316523 0.526459 0.728948
Si Si2 0.834778 0.661292 0.948711
Si Si3 0.716525 0.715413 0.645530
Si Si4 0.786057 0.018782 0.455070
O O1 0.500000 0.578158 0.750000
O O2 0.153375 0.594106 0.624685
O O3 0.315005 0.589811 0.806332
O O4 0.310787 0.350434 0.718901
O O5 0.724613 0.817956 0.907910
O O6 0.739166 0.542352 0.969315
O O7 0.030556 0.710099 0.049307
O O8 0.810322 0.623385 0.613159
O O9 0.000000 0.000000 0.500000
#
# Coordination Sequence:
#
# PCOD9285105 Si02
#       4
#     8   8   8   8
#     4  12  25  41  64  97 130 168 218 266 317 381
#     4  10  21  41  67  92 128 172 212 263 322 378
#     4  11  25  42  65  95 131 170 213 265 320 381
#     4   9  18  37  64  91 121 163 208 257 314 374
#
# _framework density 26.132885000000002
#
# number of rings (size 3 to 8) (size 9 to 14) (size 15 to 20)
#    0.000    1.500    0.000    6.750    0.000    5.000 
#    0.000    1.250    0.000    0.000    0.000    0.000 
#    0.000    0.000    0.000    0.000    0.000    0.000 
#
# Total GULP energy -89420.872499 kJ/mol
# GULP energy per Si atom -5588.804531 kJ/mol
# Density = 2.607341 g / cm^3
# Si number density = 26.132885 Si / 1000 Ang^3
#
#
#
# Elastic Constant Matrix: (Units=GPa)
#
#
# Indices 1 2 3 4 5 6 
#
# 1 94.0082 28.5624 49.1588 0.0000 -15.4126 0.0000
# 2 28.5624 135.6172 79.3891 0.0000 -3.7645 0.0000
# 3 49.1588 79.3891 150.0732 0.0000 -27.8634 0.0000
# 4 0.0000 0.0000 0.0000 60.3330 0.0000 -18.5233
# 5 -15.4126 -3.7645 -27.8634 0.0000 28.8318 0.0000
# 6 0.0000 0.0000 0.0000 -18.5233 0.0000 31.3342
#
#
#
# Elastic Compliance Matrix: (Units=1/GPa)
#
#
# Indices 1 2 3 4 5 6 
#
# 1 0.013176 -0.000815 -0.003165 0.000000 0.003878 0.000000
# 2 -0.000815 0.011346 -0.006753 0.000000 -0.005480 0.000000
# 3 -0.003165 -0.006753 0.013155 0.000000 0.010140 0.000000
# 4 0.000000 0.000000 0.000000 0.020250 0.000000 0.011971
# 5 0.003878 -0.005480 0.010140 0.000000 0.045841 0.000000
# 6 0.000000 0.000000 0.000000 0.011971 0.000000 0.038991
#
#
# Mechanical properties :
#
#
# Convention : Reuss Voigt Hill
#
# Bulk Modulus (GPa) = 61.68167 77.10215 69.39191
# Shear Modulus (GPa) = 29.47654 38.93901 34.20777
#
# Velocity S-wave (km/s) = 3.36214 3.86429 3.62193
# Velocity P-wave (km/s) = 6.22304 7.03408 6.64095
#
# Compressibility (1/GPa) = 0.01621227
#
# Stress axis : x y z
#
# Youngs Moduli (GPa) = 75.89722 88.13571 76.01718
#
# Poissons Ratio (x) = 0.07179 0.24059
# Poissons Ratio (y) = 0.06182 0.51333
# Poissons Ratio (z) = 0.24021 0.59516
#
# Static dielectric constant tensor:
#      x y z
#    x 2.160970 0.000000 0.179400 
#    y 0.000000 2.098420 0.000000 
#    z 0.179400 0.000000 2.176240 
# 
# From -- ./inp_files/194994.got.cif
#   From: 2010.05.17/outbox.cif.g08.bks.cpg/sg15_98_cif.got.tgz:194994.got - 2010.06.03 18:47:42.
