data_PCOD9285555
_publ_section_title
;
Structure prediction by ZEFSAII (Michael W. Deem and Ramdas Pophale) SiO2 
 PCOD9285555
Probable space group: C 2/C
;
_chemical_formula_sum "Si O2"
_cell_formula_units_Z 52
_cell_length_a 18.433826
_cell_length_b 23.738337
_cell_length_c 8.527162
_cell_angle_alpha 90.000000
_cell_angle_beta 46.136921
_cell_angle_gamma 90.000000
_cell_volume 2690.321729
_symmetry_space_group_name_H-M "C 2/C"
_symmetry_group_IT_number 15
_symmetry_cell_setting 'monoclinic'
loop_
_space_group_symop_operation_xyz
x,y,z
-x,y,1/2-z
-x,-y,-z
x,-y,1/2+z
1/2+x,1/2+y,z
1/2-x,1/2+y,1/2-z
1/2-x,1/2-y,-z
1/2+x,1/2-y,1/2+z
loop_
_atom_site_type_symbol
_atom_site_label
_atom_site_fract_x
_atom_site_fract_y
_atom_site_fract_z
Si Si1 0.000000 0.354824 0.750000
Si Si2 0.500000 0.545787 0.750000
Si Si3 0.500000 0.692424 0.250000
Si Si4 0.196855 0.825220 0.989415
Si Si5 0.910385 0.733873 0.161706
Si Si6 0.102930 0.889136 0.841218
Si Si7 0.707554 0.519662 0.984502
Si Si8 0.790754 0.579392 0.551377
O O1 0.984205 0.313120 0.624417
O O2 0.099155 0.393479 0.593172
O O3 0.510377 0.582019 0.574767
O O4 0.399237 0.509235 0.896319
O O5 0.446555 0.733370 0.454661
O O6 0.431211 0.650837 0.248868
O O7 0.114739 0.780845 0.170418
O O8 0.220795 0.870408 0.089654
O O9 0.302445 0.795062 0.795625
O O10 0.158283 0.854851 0.892763
O O11 0.177913 0.936333 0.663715
O O12 0.781092 0.471070 0.939019
O O13 0.751228 0.553052 0.771830
#
# Coordination Sequence:
#
# PCOD9285555 Si02
#       8
#     4   4   4   8   8   8   8   8
#     4  10  24  45  70  86 126 178 219 264 314 370
#     4  12  23  39  60  88 132 172 197 257 318 390
#     4  12  25  36  62  98 124 162 208 265 318 374
#     4  10  21  42  64  87 126 169 210 260 318 381
#     4  10  22  41  64  90 122 166 218 263 314 370
#     4  12  24  37  61  92 131 166 204 256 324 381
#     4  12  24  39  62  96 132 165 211 260 316 391
#     4  11  23  43  65  97 127 171 213 262 319 377
#
# _framework density 19.328541999999999
#
# number of rings (size 3 to 8) (size 9 to 14) (size 15 to 20)
#    0.000    0.923    3.077    3.692    2.154    2.462 
#    0.000    0.000    0.000    0.000    0.000    0.000 
#    0.000    0.000    0.000    0.000    0.000    0.000 
#
# Total GULP energy -145352.705386 kJ/mol
# GULP energy per Si atom -5590.488669 kJ/mol
# Density = 1.928455 g / cm^3
# Si number density = 19.328542 Si / 1000 Ang^3
#
#
#
# Elastic Constant Matrix: (Units=GPa)
#
#
# Indices 1 2 3 4 5 6 
#
# 1 125.1463 72.2818 58.1592 0.0000 -6.6714 0.0000
# 2 72.2818 135.0319 58.9503 0.0000 -7.5599 0.0000
# 3 58.1592 58.9503 42.3541 0.0000 -3.1901 0.0000
# 4 0.0000 0.0000 0.0000 81.2620 0.0000 -23.9472
# 5 -6.6714 -7.5599 -3.1901 0.0000 17.9287 0.0000
# 6 0.0000 0.0000 0.0000 -23.9472 0.0000 -159.9998
#
#
#
# Elastic Compliance Matrix: (Units=1/GPa)
#
#
# Indices 1 2 3 4 5 6 
#
# 1 0.023032 0.003985 -0.036895 0.000000 0.003686 0.000000
# 2 0.003985 0.019762 -0.032675 0.000000 0.004002 0.000000
# 3 -0.036895 -0.032675 0.119278 0.000000 -0.006283 0.000000
# 4 0.000000 0.000000 0.000000 0.011786 0.000000 -0.001764
# 5 0.003686 0.004002 -0.006283 0.000000 0.057717 0.000000
# 6 0.000000 0.000000 0.000000 -0.001764 0.000000 -0.005986
#
#
# Mechanical properties :
#
#
# Convention : Reuss Voigt Hill
#
# Bulk Modulus (GPa) = 32.36120 75.70166 54.03143
# Shear Modulus (GPa) = 13.62176 -4.61906 4.50135
#
# Velocity S-wave (km/s) = 2.65759 -1.54756 1.52772
# Velocity P-wave (km/s) = 5.11821 6.00479 5.57914
#
# Compressibility (1/GPa) = 0.03090120
#
# Stress axis : x y z
#
# Youngs Moduli (GPa) = 43.41827 50.60307 8.38376
#
# Poissons Ratio (x) = -0.20163 0.30932
# Poissons Ratio (y) = -0.17300 0.27394
# Poissons Ratio (z) = 1.60190 1.65346
#
# Static dielectric constant tensor:
#      x y z
#    x 1.674420 0.000000 0.000590 
#    y 0.000000 1.708530 0.000000 
#    z 0.000590 0.000000 1.653980 
# 
# From -- ./inp_files/58602.got.cif
#   From: 2010.05.17/outbox.cif.g08.bks.cpg/sg15_30_cif.got.tgz:58602.got - 2010.06.03 18:47:42.
