data_PCOD9285525
_publ_section_title
;
Structure prediction by ZEFSAII (Michael W. Deem and Ramdas Pophale) SiO2 
 PCOD9285525
Probable space group: C 2/C
;
_chemical_formula_sum "Si O2"
_cell_formula_units_Z 48
_cell_length_a 12.353696
_cell_length_b 17.588358
_cell_length_c 11.448179
_cell_angle_alpha 90.000000
_cell_angle_beta 117.279541
_cell_angle_gamma 90.000000
_cell_volume 2210.819849
_symmetry_space_group_name_H-M "C 2/C"
_symmetry_group_IT_number 15
_symmetry_cell_setting 'monoclinic'
loop_
_space_group_symop_operation_xyz
x,y,z
-x,y,1/2-z
-x,-y,-z
x,-y,1/2+z
1/2+x,1/2+y,z
1/2-x,1/2+y,1/2-z
1/2-x,1/2-y,-z
1/2+x,1/2-y,1/2+z
loop_
_atom_site_type_symbol
_atom_site_label
_atom_site_fract_x
_atom_site_fract_y
_atom_site_fract_z
Si Si1 0.141459 0.539481 0.684703
Si Si2 0.663693 0.678413 0.935760
Si Si3 0.095588 0.782791 0.139049
Si Si4 0.635114 0.519121 0.867388
Si Si5 0.246359 0.883362 0.042818
Si Si6 0.943794 0.383126 0.937269
O O1 0.270865 0.516850 0.693051
O O2 0.167593 0.573758 0.822463
O O3 0.069224 0.460370 0.642543
O O4 0.068021 0.601941 0.571249
O O5 0.540896 0.688584 0.948980
O O6 0.638393 0.683380 0.783753
O O7 0.691039 0.589722 0.969205
O O8 0.750000 0.750000 0.000000
O O9 0.184219 0.813076 0.080716
O O10 0.072415 0.693112 0.143914
O O11 0.500000 0.532146 0.750000
O O12 0.644378 0.442348 0.946678
O O13 0.335244 0.870936 0.977695
#
# Coordination Sequence:
#
# PCOD9285525 Si02
#       6
#     8   8   8   8   8   8
#     4  10  21  42  63  92 126 168 210 262 310 388
#     4  11  23  41  63  92 127 168 209 264 314 377
#     4  11  23  42  62  96 127 162 215 263 318 380
#     4  11  22  42  62  92 127 165 216 255 316 379
#     4  11  23  41  67  90 130 167 211 264 316 383
#     4  10  23  41  64  95 128 164 215 261 325 371
#
# _framework density 21.711404000000002
#
# number of rings (size 3 to 8) (size 9 to 14) (size 15 to 20)
#    0.000    1.333    3.333    2.000    2.333    2.667 
#    9.000    1.667    0.000    0.000    0.000    0.000 
#    0.000    0.000    0.000    0.000    0.000    0.000 
#
# Total GULP energy -133857.737125 kJ/mol
# GULP energy per Si atom -5577.405714 kJ/mol
# Density = 2.166199 g / cm^3
# Si number density = 21.711404 Si / 1000 Ang^3
#
#
#
# Elastic Constant Matrix: (Units=GPa)
#
#
# Indices 1 2 3 4 5 6 
#
# 1 72.4731 -1.4613 4.5962 0.0000 4.9787 0.0000
# 2 -1.4613 79.6802 20.9070 0.0000 12.9714 0.0000
# 3 4.5962 20.9070 35.1916 0.0000 12.1485 0.0000
# 4 0.0000 0.0000 0.0000 28.4927 0.0000 -0.3976
# 5 4.9787 12.9714 12.1485 0.0000 18.0455 0.0000
# 6 0.0000 0.0000 0.0000 -0.3976 0.0000 24.8866
#
#
#
# Elastic Compliance Matrix: (Units=1/GPa)
#
#
# Indices 1 2 3 4 5 6 
#
# 1 0.014173 0.001224 -0.001204 0.000000 -0.003979 0.000000
# 2 0.001224 0.015521 -0.007052 0.000000 -0.006747 0.000000
# 3 -0.001204 -0.007052 0.040253 0.000000 -0.021698 0.000000
# 4 0.000000 0.000000 0.000000 0.035105 0.000000 0.000561
# 5 -0.003979 -0.006747 -0.021698 0.000000 0.075970 0.000000
# 6 0.000000 0.000000 0.000000 0.000561 0.000000 0.040191
#
#
# Mechanical properties :
#
#
# Convention : Reuss Voigt Hill
#
# Bulk Modulus (GPa) = 17.89486 26.15874 22.02680
# Shear Modulus (GPa) = 19.69239 25.17182 22.43211
#
# Velocity S-wave (km/s) = 3.01492 3.40866 3.21782
# Velocity P-wave (km/s) = 4.51439 5.25038 4.89624
#
# Compressibility (1/GPa) = 0.05588198
#
# Stress axis : x y z
#
# Youngs Moduli (GPa) = 70.55860 64.42761 24.84296
#
# Poissons Ratio (x) = -0.07884 0.02992
# Poissons Ratio (y) = -0.08634 0.17518
# Poissons Ratio (z) = 0.08498 0.45432
#
# Static dielectric constant tensor:
#      x y z
#    x 1.805680 0.000000 0.012090 
#    y 0.000000 1.835190 0.000000 
#    z 0.012090 0.000000 1.775980 
# 
# From -- ./inp_files/87860.got.cif
#   From: 2010.05.17/outbox.cif.g08.bks.cpg/sg15_44_cif.got.tgz:87860.got - 2010.06.03 18:47:42.
