data_PCOD9285410
_publ_section_title
;
Structure prediction by ZEFSAII (Michael W. Deem and Ramdas Pophale) SiO2 
 PCOD9285410
Probable space group: C 2/C
;
_chemical_formula_sum "Si O2"
_cell_formula_units_Z 56
_cell_length_a 23.075342
_cell_length_b 10.864915
_cell_length_c 14.376922
_cell_angle_alpha 90.000000
_cell_angle_beta 142.475961
_cell_angle_gamma 90.000000
_cell_volume 2195.456743
_symmetry_space_group_name_H-M "C 2/C"
_symmetry_group_IT_number 15
_symmetry_cell_setting 'monoclinic'
loop_
_space_group_symop_operation_xyz
x,y,z
-x,y,1/2-z
-x,-y,-z
x,-y,1/2+z
1/2+x,1/2+y,z
1/2-x,1/2+y,1/2-z
1/2-x,1/2-y,-z
1/2+x,1/2-y,1/2+z
loop_
_atom_site_type_symbol
_atom_site_label
_atom_site_fract_x
_atom_site_fract_y
_atom_site_fract_z
Si Si1 0.931967 0.160855 0.254829
Si Si2 0.752527 0.397781 0.288630
Si Si3 0.056386 0.170600 0.568187
Si Si4 0.077181 0.779049 0.428199
Si Si5 0.601370 0.935499 0.280329
Si Si6 0.795233 0.014152 0.962715
Si Si7 0.899698 0.587652 0.498322
O O1 0.896901 0.292502 0.249876
O O2 0.000000 0.176556 0.250000
O O3 0.995225 0.095961 0.413814
O O4 0.842523 0.085667 0.107814
O O5 0.657069 0.385457 0.225853
O O6 0.838048 0.315520 0.437243
O O7 0.716859 0.387411 0.136705
O O8 0.800286 0.531005 0.343289
O O9 0.085353 0.291214 0.543786
O O10 0.987666 0.200345 0.564563
O O11 0.134891 0.902691 0.473262
O O12 0.000000 0.743637 0.250000
O O13 0.687948 0.017480 0.356422
O O14 0.605364 0.913033 0.396000
O O15 0.500148 0.985143 0.115129
#
# Coordination Sequence:
#
# PCOD9285410 Si02
#       7
#     8   8   8   8   8   8   8
#     4  11  19  44  78 115 152 185 268 347 394 449
#     4  12  26  46  76 109 154 216 268 319 405 491
#     4  11  25  50  79 109 161 207 267 341 392 485
#     4  12  32  52  72 117 172 215 262 327 416 493
#     4  10  21  41  76 108 146 190 265 340 384 464
#     4  12  26  45  76 117 156 208 266 330 413 482
#     4  10  22  44  75 113 141 203 273 325 394 466
#
# _framework density 25.50722
#
# number of rings (size 3 to 8) (size 9 to 14) (size 15 to 20)
#    0.000    0.857    4.286    3.429    4.000    6.857 
#    0.000    0.000    0.000    0.000    0.000    0.000 
#    0.000    0.000    0.000    0.000    0.000    0.000 
#
# Total GULP energy -156615.279999 kJ/mol
# GULP energy per Si atom -5593.402857 kJ/mol
# Density = 2.544916 g / cm^3
# Si number density = 25.507220 Si / 1000 Ang^3
#
#
#
# Elastic Constant Matrix: (Units=GPa)
#
#
# Indices 1 2 3 4 5 6 
#
# 1 107.1619 15.6842 45.1873 0.0000 16.6270 0.0000
# 2 15.6842 54.6153 32.0951 0.0000 6.8210 0.0000
# 3 45.1873 32.0951 170.9518 0.0000 15.5859 0.0000
# 4 0.0000 0.0000 0.0000 43.8442 0.0000 9.4104
# 5 16.6270 6.8210 15.5859 0.0000 56.2231 0.0000
# 6 0.0000 0.0000 0.0000 9.4104 0.0000 27.3633
#
#
#
# Elastic Compliance Matrix: (Units=1/GPa)
#
#
# Indices 1 2 3 4 5 6 
#
# 1 0.010924 -0.001427 -0.002402 0.000000 -0.002392 0.000000
# 2 -0.001427 0.020885 -0.003438 0.000000 -0.001159 0.000000
# 3 -0.002402 -0.003438 0.007209 0.000000 -0.000871 0.000000
# 4 0.000000 0.000000 0.000000 0.024626 0.000000 -0.008469
# 5 -0.002392 -0.001159 -0.000871 0.000000 0.018876 0.000000
# 6 0.000000 0.000000 0.000000 -0.008469 0.000000 0.039458
#
#
# Mechanical properties :
#
#
# Convention : Reuss Voigt Hill
#
# Bulk Modulus (GPa) = 40.84176 57.62912 49.23544
# Shear Modulus (GPa) = 34.56064 41.47028 38.01546
#
# Velocity S-wave (km/s) = 3.68494 4.03653 3.86473
# Velocity P-wave (km/s) = 5.84394 6.66086 6.26573
#
# Compressibility (1/GPa) = 0.02448474
#
# Stress axis : x y z
#
# Youngs Moduli (GPa) = 91.53870 47.88155 138.70922
#
# Poissons Ratio (x) = 0.06834 0.33312
# Poissons Ratio (y) = 0.13064 0.47690
# Poissons Ratio (z) = 0.21984 0.16462
#
# Static dielectric constant tensor:
#      x y z
#    x 2.015890 0.000000 -0.012260 
#    y 0.000000 2.103300 0.000000 
#    z -0.012260 0.000000 2.082120 
# 
# From -- ./inp_files/178452.got.cif
#   From: 2010.05.17/outbox.cif.g08.bks.cpg/sg15_90_cif.got.tgz:178452.got - 2010.06.03 18:47:42.
