data_PCOD9285484
_publ_section_title
;
Structure prediction by ZEFSAII (Michael W. Deem and Ramdas Pophale) SiO2 
 PCOD9285484
Probable space group: C 2/C
;
_chemical_formula_sum "Si O2"
_cell_formula_units_Z 52
_cell_length_a 11.717263
_cell_length_b 12.737748
_cell_length_c 27.925674
_cell_angle_alpha 90.000000
_cell_angle_beta 36.603733
_cell_angle_gamma 90.000000
_cell_volume 2485.253438
_symmetry_space_group_name_H-M "C 2/C"
_symmetry_group_IT_number 15
_symmetry_cell_setting 'monoclinic'
loop_
_space_group_symop_operation_xyz
x,y,z
-x,y,1/2-z
-x,-y,-z
x,-y,1/2+z
1/2+x,1/2+y,z
1/2-x,1/2+y,1/2-z
1/2-x,1/2-y,-z
1/2+x,1/2-y,1/2+z
loop_
_atom_site_type_symbol
_atom_site_label
_atom_site_fract_x
_atom_site_fract_y
_atom_site_fract_z
Si Si1 0.480510 0.486554 0.201058
Si Si2 0.768812 0.404356 0.963267
Si Si3 0.965928 0.253052 0.443525
Si Si4 0.549976 0.091609 0.836109
Si Si5 0.713071 0.178778 0.938896
Si Si6 0.420461 0.530028 0.115362
Si Si7 0.500000 0.935690 0.250000
O O1 0.500000 0.525509 0.250000
O O2 0.259325 0.456805 0.269671
O O3 0.625366 0.388108 0.143792
O O4 0.501603 0.547492 0.142556
O O5 0.782961 0.297417 0.927823
O O6 0.893811 0.502362 0.902573
O O7 0.834436 0.374555 0.994681
O O8 0.549337 0.441014 0.046340
O O9 0.062695 0.311425 0.367026
O O10 0.022653 0.316360 0.471385
O O11 0.042000 0.136841 0.424656
O O12 0.750000 0.250000 0.500000
O O13 0.498651 0.127166 0.799819
O O14 0.196538 0.502008 0.187842
#
# Coordination Sequence:
#
# PCOD9285484 Si02
#       7
#     8   8   8   8   8   8   4
#     4  10  21  42  62  90 123 167 207 257 306 381
#     4  10  22  43  67  95 119 171 212 264 308 375
#     4  12  24  38  62  97 124 163 205 267 308 375
#     4  11  23  40  64  90 131 159 212 258 317 365
#     4  10  23  41  68  91 127 164 218 252 313 381
#     4  10  23  41  65  90 127 163 215 252 323 367
#     4  10  24  42  62  90 124 172 202 268 312 386
#
# _framework density 20.92342
#
# number of rings (size 3 to 8) (size 9 to 14) (size 15 to 20)
#    0.000    1.538    3.077    0.923    2.154    6.769 
#    2.769    0.000    0.000    0.000    0.000    0.000 
#    0.000    0.000    0.000    0.000    0.000    0.000 
#
# Total GULP energy -144904.868457 kJ/mol
# GULP energy per Si atom -5573.264171 kJ/mol
# Density = 2.087580 g / cm^3
# Si number density = 20.923420 Si / 1000 Ang^3
#
#
#
# Elastic Constant Matrix: (Units=GPa)
#
#
# Indices 1 2 3 4 5 6 
#
# 1 147.7163 -2.9711 22.8482 0.0000 8.9414 0.0001
# 2 -2.9711 25.5908 -3.6122 0.0000 5.1578 0.0001
# 3 22.8482 -3.6122 55.4550 0.0005 -11.4252 0.0002
# 4 0.0000 0.0000 0.0005 -0.4349 0.0001 0.6699
# 5 8.9414 5.1578 -11.4252 0.0001 40.0198 0.0000
# 6 0.0001 0.0001 0.0002 0.6699 0.0000 17.5446
#
#
#
# Elastic Compliance Matrix: (Units=1/GPa)
#
#
# Indices 1 2 3 4 5 6 
#
# 1 0.007520 0.000933 -0.003622 -0.000004 -0.002834 0.000000
# 2 0.000933 0.040376 0.001201 0.000003 -0.005069 0.000000
# 3 -0.003622 0.001201 0.020971 0.000021 0.006641 -0.000001
# 4 -0.000004 0.000003 0.000021 -2.171740 0.000010 0.082918
# 5 -0.002834 -0.005069 0.006641 0.000010 0.028170 0.000000
# 6 0.000000 0.000000 -0.000001 0.082918 0.000000 0.053832
#
#
# Mechanical properties :
#
#
# Convention : Reuss Voigt Hill
#
# Bulk Modulus (GPa) = 15.17610 29.03242 22.10426
# Shear Modulus (GPa) = -2.50510 25.59238 11.54364
#
# Velocity S-wave (km/s) = -1.09538 3.50114 2.35140
# Velocity P-wave (km/s) = 2.38098 5.49997 4.23785
#
# Compressibility (1/GPa) = 0.06589310
#
# Stress axis : x y z
#
# Youngs Moduli (GPa) = 132.97429 24.76707 47.68409
#
# Poissons Ratio (x) = -0.02311 0.17269
# Poissons Ratio (y) = -0.12409 -0.05727
# Poissons Ratio (z) = 0.48158 -0.02975
#
# Static dielectric constant tensor:
#      x y z
#    x 1.789630 0.000000 0.037050 
#    y 0.000000 1.709630 0.000000 
#    z 0.037050 0.000000 1.727680 
# 
# From -- ./inp_files/310750.got.cif
#   From: 2010.05.17/outbox.cif.g08.bks.cpg/sg15_156_cif.got.tgz:310750.got - 2010.06.03 18:47:42.
