data_PCOD9285117
_publ_section_title
;
Structure prediction by ZEFSAII (Michael W. Deem and Ramdas Pophale) SiO2 
 PCOD9285117
Probable space group: C 2/C
;
_chemical_formula_sum "Si O2"
_cell_formula_units_Z 60
_cell_length_a 23.551050
_cell_length_b 9.406805
_cell_length_c 25.202806
_cell_angle_alpha 90.000000
_cell_angle_beta 30.774909
_cell_angle_gamma 90.000000
_cell_volume 2856.856533
_symmetry_space_group_name_H-M "C 2/C"
_symmetry_group_IT_number 15
_symmetry_cell_setting 'monoclinic'
loop_
_space_group_symop_operation_xyz
x,y,z
-x,y,1/2-z
-x,-y,-z
x,-y,1/2+z
1/2+x,1/2+y,z
1/2-x,1/2+y,1/2-z
1/2-x,1/2-y,-z
1/2+x,1/2-y,1/2+z
loop_
_atom_site_type_symbol
_atom_site_label
_atom_site_fract_x
_atom_site_fract_y
_atom_site_fract_z
Si Si1 0.776236 0.129303 0.570822
Si Si2 0.873385 0.960233 0.588944
Si Si3 0.500000 0.753416 0.750000
Si Si4 0.927014 0.651852 0.527201
Si Si5 0.184205 0.899744 0.052959
Si Si6 0.658472 0.951504 0.998979
Si Si7 0.150227 0.540444 0.319944
Si Si8 0.067289 0.503035 0.266920
O O1 0.821802 0.285259 0.524028
O O2 0.827134 0.074934 0.585076
O O3 0.804120 0.011187 0.504027
O O4 0.642565 0.122881 0.683822
O O5 0.878503 0.806583 0.556507
O O6 0.783539 0.945648 0.709289
O O7 0.000000 0.000000 0.500000
O O8 0.440029 0.653736 0.840058
O O9 0.422109 0.860605 0.779433
O O10 0.882370 0.537169 0.520264
O O11 0.884899 0.598493 0.618379
O O12 0.062000 0.652799 0.415824
O O13 0.230524 0.978766 0.067651
O O14 0.250000 0.750000 0.000000
O O15 0.561984 0.972466 0.120444
O O16 0.113994 0.535096 0.287784
#
# Coordination Sequence:
#
# PCOD9285117 Si02
#       8
#     8   8   4   8   8   8   8   8
#     4  11  25  44  65 101 135 172 226 278 336 398
#     4  11  26  42  68 100 135 174 234 282 327 402
#     4  12  24  40  72 102 128 176 224 268 330 406
#     4  10  23  44  68  97 134 182 223 271 342 405
#     4  12  23  43  68  97 129 173 221 270 326 402
#     4  11  24  43  70  95 138 175 218 280 337 399
#     4   9  23  41  67  92 136 175 220 270 340 388
#     4  10  21  41  67  93 136 175 213 274 343 383
#
# _framework density 21.002105
#
# number of rings (size 3 to 8) (size 9 to 14) (size 15 to 20)
#    0.000    1.333    2.667    1.200   11.200    2.133 
#    2.400    0.000    0.000    0.000    0.000    0.000 
#    0.000    0.000    0.000    0.000    0.000    0.000 
#
# Total GULP energy -167334.322981 kJ/mol
# GULP energy per Si atom -5577.810766 kJ/mol
# Density = 2.095430 g / cm^3
# Si number density = 21.002105 Si / 1000 Ang^3
#
#
#
# Elastic Constant Matrix: (Units=GPa)
#
#
# Indices 1 2 3 4 5 6 
#
# 1 75.2731 17.8899 13.2339 0.0000 2.6436 -0.0001
# 2 17.8899 131.8033 39.7486 0.0000 7.0495 -0.0002
# 3 13.2339 39.7486 120.8977 -0.0001 -2.4876 0.0000
# 4 0.0000 0.0000 -0.0001 1.4145 0.0001 1.1564
# 5 2.6436 7.0495 -2.4876 0.0001 26.9166 0.0000
# 6 -0.0001 -0.0002 0.0000 1.1564 0.0000 36.0559
#
#
#
# Elastic Compliance Matrix: (Units=1/GPa)
#
#
# Indices 1 2 3 4 5 6 
#
# 1 0.013865 -0.001511 -0.001043 0.000000 -0.001062 0.000000
# 2 -0.001511 0.008753 -0.002762 0.000000 -0.002399 0.000000
# 3 -0.001043 -0.002762 0.009328 0.000000 0.001688 0.000000
# 4 0.000000 0.000000 0.000000 0.726014 -0.000001 -0.023285
# 5 -0.001062 -0.002399 0.001688 -0.000001 0.038041 0.000000
# 6 0.000000 0.000000 0.000000 -0.023285 0.000000 0.028482
#
#
# Mechanical properties :
#
#
# Convention : Reuss Voigt Hill
#
# Bulk Modulus (GPa) = 46.91389 52.19099 49.55244
# Shear Modulus (GPa) = 5.93670 30.01750 17.97710
#
# Velocity S-wave (km/s) = 1.68311 3.78466 2.92886
# Velocity P-wave (km/s) = 5.11501 6.63344 5.92308
#
# Compressibility (1/GPa) = 0.02131565
#
# Stress axis : x y z
#
# Youngs Moduli (GPa) = 72.12598 114.24187 107.19932
#
# Poissons Ratio (x) = 0.17257 0.11180
# Poissons Ratio (y) = 0.10895 0.29608
# Poissons Ratio (z) = 0.07522 0.31553
#
# Static dielectric constant tensor:
#      x y z
#    x 1.766150 0.000000 -0.023560 
#    y 0.000000 1.577710 0.000000 
#    z -0.023560 0.000000 1.852470 
# 
# From -- ./inp_files/302055.got.cif
#   From: 2010.05.17/outbox.cif.g08.bks.cpg/sg15_152_cif.got.tgz:302055.got - 2010.06.03 18:47:42.
