data_PCOD9285442
_publ_section_title
;
Structure prediction by ZEFSAII (Michael W. Deem and Ramdas Pophale) SiO2 
 PCOD9285442
Probable space group: C 2/C
;
_chemical_formula_sum "Si O2"
_cell_formula_units_Z 40
_cell_length_a 12.307718
_cell_length_b 14.975131
_cell_length_c 9.197671
_cell_angle_alpha 90.000000
_cell_angle_beta 85.099290
_cell_angle_gamma 90.000000
_cell_volume 1689.022564
_symmetry_space_group_name_H-M "C 2/C"
_symmetry_group_IT_number 15
_symmetry_cell_setting 'monoclinic'
loop_
_space_group_symop_operation_xyz
x,y,z
-x,y,1/2-z
-x,-y,-z
x,-y,1/2+z
1/2+x,1/2+y,z
1/2-x,1/2+y,1/2-z
1/2-x,1/2-y,-z
1/2+x,1/2-y,1/2+z
loop_
_atom_site_type_symbol
_atom_site_label
_atom_site_fract_x
_atom_site_fract_y
_atom_site_fract_z
Si Si1 0.624513 0.999911 0.683088
Si Si2 0.694356 0.109383 0.417106
Si Si3 0.100620 0.209699 0.066892
Si Si4 0.680632 0.179922 0.831331
Si Si5 0.919975 0.245634 0.893265
O O1 0.500000 0.995493 0.750000
O O2 0.639782 0.029515 0.515080
O O3 0.678107 0.086167 0.753139
O O4 0.681686 0.914582 0.749594
O O5 0.818766 0.126029 0.446689
O O6 0.641062 0.204043 0.467971
O O7 0.120488 0.250972 0.226635
O O8 0.989275 0.183979 0.998055
O O9 0.804705 0.207145 0.851852
O O10 0.612163 0.176871 0.988504
O O11 0.000000 0.264618 0.750000
#
# Coordination Sequence:
#
# PCOD9285442 Si02
#       5
#     8   8   8   8   8
#     4  11  22  37  56  86 124 157 198 258 311 354
#     4  10  22  37  59  86 117 158 201 247 308 367
#     4  10  21  42  61  83 122 162 200 249 302 364
#     4  10  23  39  60  91 123 160 208 249 304 371
#     4  11  21  36  63  91 119 162 209 253 301 358
#
# _framework density 23.682337
#
# number of rings (size 3 to 8) (size 9 to 14) (size 15 to 20)
#    0.000    1.600    0.000    7.200    0.000    7.200 
#    0.000    1.000    0.000    2.400    0.000    0.000 
#    0.000    0.000    0.000    0.000    0.000    0.000 
#
# Total GULP energy -111642.348865 kJ/mol
# GULP energy per Si atom -5582.117443 kJ/mol
# Density = 2.362843 g / cm^3
# Si number density = 23.682337 Si / 1000 Ang^3
#
#
#
# Elastic Constant Matrix: (Units=GPa)
#
#
# Indices 1 2 3 4 5 6 
#
# 1 124.7889 20.4483 57.8289 0.0000 29.7148 0.0000
# 2 20.4483 49.6475 13.7244 0.0000 7.2928 0.0000
# 3 57.8289 13.7244 162.7460 0.0000 7.7979 0.0000
# 4 0.0000 0.0000 0.0000 35.9056 0.0000 13.0861
# 5 29.7148 7.2928 7.7979 0.0000 54.0231 0.0000
# 6 0.0000 0.0000 0.0000 13.0861 0.0000 21.3374
#
#
#
# Elastic Compliance Matrix: (Units=1/GPa)
#
#
# Indices 1 2 3 4 5 6 
#
# 1 0.011420 -0.002932 -0.003553 0.000000 -0.005373 0.000000
# 2 -0.002932 0.021731 -0.000732 0.000000 -0.001215 0.000000
# 3 -0.003553 -0.000732 0.007422 0.000000 0.000982 0.000000
# 4 0.000000 0.000000 0.000000 0.035868 0.000000 -0.021998
# 5 -0.005373 -0.001215 0.000982 0.000000 0.021488 0.000000
# 6 0.000000 0.000000 0.000000 -0.021998 0.000000 0.060357
#
#
# Mechanical properties :
#
#
# Convention : Reuss Voigt Hill
#
# Bulk Modulus (GPa) = 38.26010 57.90954 48.08482
# Shear Modulus (GPa) = 27.55833 38.59861 33.07847
#
# Velocity S-wave (km/s) = 3.41496 4.04152 3.74138
# Velocity P-wave (km/s) = 5.63381 6.80325 6.24596
#
# Compressibility (1/GPa) = 0.02613689
#
# Stress axis : x y z
#
# Youngs Moduli (GPa) = 87.56614 46.01806 134.73781
#
# Poissons Ratio (x) = 0.13493 0.47875
# Poissons Ratio (y) = 0.25675 0.09869
# Poissons Ratio (z) = 0.31114 0.03371
#
# Static dielectric constant tensor:
#      x y z
#    x 1.967500 0.000000 -0.014590 
#    y 0.000000 1.886780 0.000000 
#    z -0.014590 0.000000 2.004540 
# 
# From -- ./inp_files/29307.got.cif
#   From: 2010.05.17/outbox.cif.g08.bks.cpg/sg15_15_cif.got.tgz:29307.got - 2010.06.03 18:47:42.
