data_PCOD9285747
_publ_section_title
;
Structure prediction by ZEFSAII (Michael W. Deem and Ramdas Pophale) SiO2 
 PCOD9285747
Probable space group: C 2/C
;
_chemical_formula_sum "Si O2"
_cell_formula_units_Z 52
_cell_length_a 22.361315
_cell_length_b 5.044781
_cell_length_c 19.503752
_cell_angle_alpha 90.000000
_cell_angle_beta 106.733083
_cell_angle_gamma 90.000000
_cell_volume 2107.014594
_symmetry_space_group_name_H-M "C 2/C"
_symmetry_group_IT_number 15
_symmetry_cell_setting 'monoclinic'
loop_
_space_group_symop_operation_xyz
x,y,z
-x,y,1/2-z
-x,-y,-z
x,-y,1/2+z
1/2+x,1/2+y,z
1/2-x,1/2+y,1/2-z
1/2-x,1/2-y,-z
1/2+x,1/2-y,1/2+z
loop_
_atom_site_type_symbol
_atom_site_label
_atom_site_fract_x
_atom_site_fract_y
_atom_site_fract_z
Si Si1 0.634495 0.811743 0.819132
Si Si2 0.740150 0.399939 0.098807
Si Si3 0.500000 0.839149 0.750000
Si Si4 0.432417 0.825926 0.016515
Si Si5 0.496557 0.325552 0.406617
Si Si6 0.822824 0.975452 0.546045
Si Si7 0.791099 0.053881 0.771236
O O1 0.569252 0.960704 0.784593
O O2 0.634747 0.639825 0.888487
O O3 0.654099 0.617316 0.763399
O O4 0.694724 0.991477 0.850237
O O5 0.765192 0.137931 0.070658
O O6 0.694625 0.363334 0.146832
O O7 0.708304 0.589882 0.032751
O O8 0.509467 0.700776 0.677869
O O9 0.481950 0.621755 0.067684
O O10 0.366316 0.753696 0.028019
O O11 0.452380 0.119010 0.045190
O O12 0.439325 0.763160 0.937704
O O13 0.733056 0.252228 0.734602
#
# Coordination Sequence:
#
# PCOD9285747 Si02
#       7
#     8   8   4   8   8   8   8
#     4  11  23  42  63  98 137 173 225 274 339 405
#     4  10  23  40  66  94 127 175 222 281 333 395
#     4  12  24  42  70  98 142 180 226 276 348 402
#     4  10  22  44  67  93 140 170 233 268 337 394
#     4  10  23  43  65  99 131 185 217 281 322 410
#     4  11  21  40  68  94 128 172 227 278 336 394
#     4  10  21  42  66  93 135 171 218 276 335 395
#
# _framework density 24.679468
#
# number of rings (size 3 to 8) (size 9 to 14) (size 15 to 20)
#    0.000    1.538    3.077    1.385    2.154    0.615 
#    2.769    0.000    3.385    0.000    0.000    0.000 
#    0.000    0.000    0.000    0.000    0.000    0.000 
#
# Total GULP energy -145015.999710 kJ/mol
# GULP energy per Si atom -5577.538450 kJ/mol
# Density = 2.462330 g / cm^3
# Si number density = 24.679468 Si / 1000 Ang^3
#
#
#
# Elastic Constant Matrix: (Units=GPa)
#
#
# Indices 1 2 3 4 5 6 
#
# 1 116.3387 17.8881 65.2875 0.0000 2.2122 0.0000
# 2 17.8881 48.0087 4.8664 0.0001 -5.6371 0.0000
# 3 65.2875 4.8664 159.1069 0.0000 -28.4913 0.0000
# 4 0.0000 0.0001 0.0000 14.5709 0.0000 -8.6320
# 5 2.2122 -5.6371 -28.4913 0.0000 61.6479 0.0000
# 6 0.0000 0.0000 0.0000 -8.6320 0.0000 31.0905
#
#
#
# Elastic Compliance Matrix: (Units=1/GPa)
#
#
# Indices 1 2 3 4 5 6 
#
# 1 0.012501 -0.004494 -0.005610 0.000000 -0.003452 0.000000
# 2 -0.004494 0.022687 0.001691 0.000000 0.003017 0.000000
# 3 -0.005610 0.001691 0.009375 0.000000 0.004689 0.000000
# 4 0.000000 0.000000 0.000000 0.082140 0.000000 0.022806
# 5 -0.003452 0.003017 0.004689 0.000000 0.018788 0.000000
# 6 0.000000 0.000000 0.000000 0.022806 0.000000 0.038496
#
#
# Mechanical properties :
#
#
# Convention : Reuss Voigt Hill
#
# Bulk Modulus (GPa) = 36.05593 55.50425 45.78009
# Shear Modulus (GPa) = 23.80271 37.15601 30.47936
#
# Velocity S-wave (km/s) = 3.10897 3.88434 3.51808
# Velocity P-wave (km/s) = 5.24681 6.53118 5.92391
#
# Compressibility (1/GPa) = 0.02773469
#
# Stress axis : x y z
#
# Youngs Moduli (GPa) = 79.99560 44.07793 106.66574
#
# Poissons Ratio (x) = 0.19811 0.59842
# Poissons Ratio (y) = 0.35954 -0.18033
# Poissons Ratio (z) = 0.44880 -0.07452
#
# Static dielectric constant tensor:
#      x y z
#    x 1.993060 0.000000 -0.025120 
#    y 0.000000 2.000220 0.000000 
#    z -0.025120 0.000000 2.043780 
# 
# From -- ./inp_files/254096.got.cif
#   From: 2010.05.17/outbox.cif.g08.bks.cpg/sg15_128_cif.got.tgz:254096.got - 2010.06.03 18:47:42.
