data_PCOD9285195
_publ_section_title
;
Structure prediction by ZEFSAII (Michael W. Deem and Ramdas Pophale) SiO2 
 PCOD9285195
Probable space group: C 2/C
;
_chemical_formula_sum "Si O2"
_cell_formula_units_Z 56
_cell_length_a 8.779551
_cell_length_b 17.932908
_cell_length_c 17.665673
_cell_angle_alpha 90.000000
_cell_angle_beta 74.231512
_cell_angle_gamma 90.000000
_cell_volume 2676.666147
_symmetry_space_group_name_H-M "C 2/C"
_symmetry_group_IT_number 15
_symmetry_cell_setting 'monoclinic'
loop_
_space_group_symop_operation_xyz
x,y,z
-x,y,1/2-z
-x,-y,-z
x,-y,1/2+z
1/2+x,1/2+y,z
1/2-x,1/2+y,1/2-z
1/2-x,1/2-y,-z
1/2+x,1/2-y,1/2+z
loop_
_atom_site_type_symbol
_atom_site_label
_atom_site_fract_x
_atom_site_fract_y
_atom_site_fract_z
Si Si1 0.399659 0.832938 0.685574
Si Si2 0.017705 0.583268 0.031505
Si Si3 0.639715 0.723812 0.326666
Si Si4 0.106959 0.918477 0.415384
Si Si5 0.151862 0.919567 0.929389
Si Si6 0.074750 0.812284 0.157904
Si Si7 0.858490 0.304450 0.433884
O O1 0.500000 0.849658 0.750000
O O2 0.414475 0.898064 0.621760
O O3 0.230185 0.803069 0.738168
O O4 0.488761 0.761537 0.636296
O O5 0.199934 0.590346 0.034056
O O6 0.960544 0.643271 0.977056
O O7 0.000000 0.500000 0.000000
O O8 0.650846 0.649924 0.375039
O O9 0.748243 0.787551 0.350695
O O10 0.466682 0.757301 0.361725
O O11 0.247848 0.860141 0.401614
O O12 0.019834 0.921774 0.507998
O O13 0.970470 0.884819 0.381473
O O14 0.168059 0.000269 0.387279
O O15 0.000000 0.822107 0.250000
O O16 0.750000 0.250000 0.500000
#
# Coordination Sequence:
#
# PCOD9285195 Si02
#       7
#     8   8   8   8   8   8   8
#     4   9  19  39  67  91 131 174 226 276 341 411
#     4  12  23  41  67 101 138 182 232 283 344 418
#     4  10  21  41  68  93 121 180 228 265 343 407
#     4  11  23  39  61  94 137 164 217 282 338 394
#     4  11  22  40  65  88 130 182 215 266 344 405
#     4   9  19  40  67  89 122 175 221 271 332 411
#     4  12  24  37  64 103 133 168 229 293 328 397
#
# _framework density 20.921548000000001
#
# number of rings (size 3 to 8) (size 9 to 14) (size 15 to 20)
#    0.000    1.714    5.714    1.714    0.000    1.143 
#    0.000   10.714    6.286    0.000    0.000    0.000 
#    0.000    0.000    0.000    0.000    0.000    0.000 
#
# Total GULP energy -156173.489749 kJ/mol
# GULP energy per Si atom -5577.624634 kJ/mol
# Density = 2.087393 g / cm^3
# Si number density = 20.921548 Si / 1000 Ang^3
#
#
#
# Elastic Constant Matrix: (Units=GPa)
#
#
# Indices 1 2 3 4 5 6 
#
# 1 91.3181 66.4676 47.0713 0.0000 -17.5496 0.0000
# 2 66.4676 107.4917 39.2023 0.0000 7.3295 0.0000
# 3 47.0713 39.2023 67.9420 0.0000 -12.1293 0.0000
# 4 0.0000 0.0000 0.0000 22.7582 0.0000 12.5600
# 5 -17.5496 7.3295 -12.1293 0.0000 38.3345 0.0000
# 6 0.0000 0.0000 0.0000 12.5600 0.0000 28.7550
#
#
#
# Elastic Compliance Matrix: (Units=1/GPa)
#
#
# Indices 1 2 3 4 5 6 
#
# 1 0.030192 -0.016366 -0.008954 0.000000 0.014118 0.000000
# 2 -0.016366 0.021499 -0.003325 0.000000 -0.012655 0.000000
# 3 -0.008954 -0.003325 0.023552 0.000000 0.003989 0.000000
# 4 0.000000 0.000000 0.000000 0.057897 0.000000 -0.025289
# 5 0.014118 -0.012655 0.003989 0.000000 0.036231 0.000000
# 6 0.000000 0.000000 0.000000 -0.025289 0.000000 0.045823
#
#
# Mechanical properties :
#
#
# Convention : Reuss Voigt Hill
#
# Bulk Modulus (GPa) = 55.70176 63.58160 59.64168
# Shear Modulus (GPa) = 17.95538 25.57027 21.76282
#
# Velocity S-wave (km/s) = 2.93272 3.49979 3.22873
# Velocity P-wave (km/s) = 6.17655 6.84016 6.51681
#
# Compressibility (1/GPa) = 0.01795275
#
# Stress axis : x y z
#
# Youngs Moduli (GPa) = 33.12148 46.51416 42.45872
#
# Poissons Ratio (x) = 0.76127 0.38016
# Poissons Ratio (y) = 0.54208 0.14118
# Poissons Ratio (z) = 0.29656 0.15466
#
# Static dielectric constant tensor:
#      x y z
#    x 1.684150 0.000000 0.017470 
#    y 0.000000 1.775570 0.000000 
#    z 0.017470 0.000000 1.766520 
# 
# From -- ./inp_files/190931.got.cif
#   From: 2010.05.17/outbox.cif.g08.bks.cpg/sg15_96_cif.got.tgz:190931.got - 2010.06.03 18:47:42.
