data_PCOD9285888
_publ_section_title
;
Structure prediction by ZEFSAII (Michael W. Deem and Ramdas Pophale) SiO2 
 PCOD9285888
Probable space group: C 2/C
;
_chemical_formula_sum "Si O2"
_cell_formula_units_Z 40
_cell_length_a 7.279854
_cell_length_b 22.207746
_cell_length_c 14.811694
_cell_angle_alpha 90.000000
_cell_angle_beta 48.987257
_cell_angle_gamma 90.000000
_cell_volume 1806.873555
_symmetry_space_group_name_H-M "C 2/C"
_symmetry_group_IT_number 15
_symmetry_cell_setting 'monoclinic'
loop_
_space_group_symop_operation_xyz
x,y,z
-x,y,1/2-z
-x,-y,-z
x,-y,1/2+z
1/2+x,1/2+y,z
1/2-x,1/2+y,1/2-z
1/2-x,1/2-y,-z
1/2+x,1/2-y,1/2+z
loop_
_atom_site_type_symbol
_atom_site_label
_atom_site_fract_x
_atom_site_fract_y
_atom_site_fract_z
Si Si1 0.691112 0.188812 0.917565
Si Si2 0.500000 0.592905 0.750000
Si Si3 0.164772 0.823812 0.935688
Si Si4 0.321997 0.368953 0.893389
Si Si5 0.000000 0.420859 0.750000
Si Si6 0.488952 0.510599 0.111415
O O1 0.714042 0.257509 0.879611
O O2 0.772569 0.138086 0.821785
O O3 0.867616 0.184916 0.947802
O O4 0.421637 0.169870 0.035832
O O5 0.483723 0.550393 0.842095
O O6 0.373445 0.874338 0.859056
O O7 0.946598 0.848076 0.946364
O O8 0.500000 0.358935 0.750000
O O9 0.315174 0.441205 0.912906
O O10 0.779252 0.460719 0.783699
O O11 0.500000 0.500000 0.000000
#
# Coordination Sequence:
#
# PCOD9285888 Si02
#       6
#     8   4   8   8   4   8
#     4  11  24  42  68  99 139 170 226 291 335 414
#     4  12  25  40  62 102 131 180 224 276 346 396
#     4  10  22  43  67  99 129 175 226 277 352 398
#     4  11  23  43  69  99 128 182 225 273 343 407
#     4  10  21  42  68  88 131 178 214 282 330 404
#     4  11  25  42  63  98 132 181 231 272 339 408
#
# _framework density 22.137687
#
# number of rings (size 3 to 8) (size 9 to 14) (size 15 to 20)
#    0.000    1.200    1.000    6.000    2.800    2.400 
#    0.000    2.000    0.000    0.000    0.000    0.000 
#    0.000    0.000    0.000    0.000    0.000    0.000 
#
# Total GULP energy -111651.102451 kJ/mol
# GULP energy per Si atom -5582.555123 kJ/mol
# Density = 2.208730 g / cm^3
# Si number density = 22.137687 Si / 1000 Ang^3
#
#
#
# Elastic Constant Matrix: (Units=GPa)
#
#
# Indices 1 2 3 4 5 6 
#
# 1 53.8171 2.8011 18.4018 0.0000 1.5269 0.0000
# 2 2.8011 149.1207 22.1230 0.0000 -11.4421 0.0000
# 3 18.4018 22.1230 60.5238 0.0001 -3.1526 0.0000
# 4 0.0000 0.0000 0.0001 -25.8943 -0.0001 -15.0192
# 5 1.5269 -11.4421 -3.1526 -0.0001 31.2649 0.0000
# 6 0.0000 0.0000 0.0000 -15.0192 0.0000 7.9198
#
#
#
# Elastic Compliance Matrix: (Units=1/GPa)
#
#
# Indices 1 2 3 4 5 6 
#
# 1 0.020853 0.000470 -0.006591 0.000000 -0.001511 0.000000
# 2 0.000470 0.007276 -0.002679 0.000000 0.002370 0.000000
# 3 -0.006591 -0.002679 0.019574 0.000000 0.001315 0.000000
# 4 0.000000 0.000000 0.000000 -0.018390 0.000000 -0.034875
# 5 -0.001511 0.002370 0.001315 0.000000 0.033058 0.000000
# 6 0.000000 0.000000 0.000000 -0.034875 0.000000 0.060128
#
#
# Mechanical properties :
#
#
# Convention : Reuss Voigt Hill
#
# Bulk Modulus (GPa) = 33.21801 38.90149 36.05975
# Shear Modulus (GPa) = 33.30333 17.33379 25.31856
#
# Velocity S-wave (km/s) = 3.88283 2.80125 3.38551
# Velocity P-wave (km/s) = 5.92787 5.29843 5.62196
#
# Compressibility (1/GPa) = 0.03010415
#
# Stress axis : x y z
#
# Youngs Moduli (GPa) = 47.95360 137.42930 51.08771
#
# Poissons Ratio (x) = -0.06461 0.33671
# Poissons Ratio (y) = -0.02255 0.13688
# Poissons Ratio (z) = 0.31606 0.36821
#
# Static dielectric constant tensor:
#      x y z
#    x 1.826440 0.000000 -0.022560 
#    y 0.000000 1.845180 0.000000 
#    z -0.022560 0.000000 1.866530 
# 
# From -- ./inp_files/135794.got.cif
#   From: 2010.05.17/outbox.cif.g08.bks.cpg/sg15_68_cif.got.tgz:135794.got - 2010.06.03 18:47:42.
