data_PCOD9285688
_publ_section_title
;
Structure prediction by ZEFSAII (Michael W. Deem and Ramdas Pophale) SiO2 
 PCOD9285688
Probable space group: C 2/C
;
_chemical_formula_sum "Si O2"
_cell_formula_units_Z 44
_cell_length_a 15.727981
_cell_length_b 9.515720
_cell_length_c 15.120468
_cell_angle_alpha 90.000000
_cell_angle_beta 62.894330
_cell_angle_gamma 90.000000
_cell_volume 2014.427794
_symmetry_space_group_name_H-M "C 2/C"
_symmetry_group_IT_number 15
_symmetry_cell_setting 'monoclinic'
loop_
_space_group_symop_operation_xyz
x,y,z
-x,y,1/2-z
-x,-y,-z
x,-y,1/2+z
1/2+x,1/2+y,z
1/2-x,1/2+y,1/2-z
1/2-x,1/2-y,-z
1/2+x,1/2-y,1/2+z
loop_
_atom_site_type_symbol
_atom_site_label
_atom_site_fract_x
_atom_site_fract_y
_atom_site_fract_z
Si Si1 0.945702 0.624449 0.932579
Si Si2 0.141008 0.403860 0.421015
Si Si3 0.405627 0.597356 0.557895
Si Si4 0.500000 0.304518 0.750000
Si Si5 0.860576 0.051772 0.778170
Si Si6 0.163115 0.855496 0.016922
O O1 0.052937 0.565704 0.897863
O O2 0.945119 0.703091 0.841556
O O3 0.875780 0.496687 0.983587
O O4 0.917890 0.748186 0.013218
O O5 0.245076 0.443510 0.336565
O O6 0.122777 0.243397 0.458014
O O7 0.500000 0.500000 0.500000
O O8 0.385511 0.615912 0.671279
O O9 0.329369 0.506874 0.535100
O O10 0.418428 0.405263 0.748285
O O11 0.886545 0.117558 0.863412
O O12 0.250000 0.750000 0.000000
#
# Coordination Sequence:
#
# PCOD9285688 Si02
#       6
#     8   8   8   4   8   8
#     4  11  24  44  65  97 140 174 217 284 341 402
#     4  10  24  45  62 100 141 168 219 285 341 394
#     4  12  21  41  71  92 132 177 223 274 331 400
#     4  12  22  42  70 100 128 180 230 268 336 412
#     4  11  23  41  74  97 128 181 231 270 335 405
#     4  10  21  42  65  97 129 167 225 278 320 399
#
# _framework density 21.84243
#
# number of rings (size 3 to 8) (size 9 to 14) (size 15 to 20)
#    0.000    1.091    5.455    0.000    0.000    5.091 
#   13.091    0.000    0.000    0.000    0.000    0.000 
#    0.000    0.000    0.000    0.000    0.000    0.000 
#
# Total GULP energy -122472.706787 kJ/mol
# GULP energy per Si atom -5566.941218 kJ/mol
# Density = 2.179272 g / cm^3
# Si number density = 21.842430 Si / 1000 Ang^3
#
#
#
# Elastic Constant Matrix: (Units=GPa)
#
#
# Indices 1 2 3 4 5 6 
#
# 1 57.9116 11.8173 -2.6679 0.0000 -9.3574 0.0000
# 2 11.8173 78.5535 -1.5267 -0.0001 -18.3984 0.0000
# 3 -2.6679 -1.5267 115.0741 0.0000 -3.0049 0.0000
# 4 0.0000 -0.0001 0.0000-1751.7906 0.0000 -340.3070
# 5 -9.3574 -18.3984 -3.0049 0.0000 26.2181 0.0000
# 6 0.0000 0.0000 0.0000 -340.3070 0.0000 -53.0888
#
#
#
# Elastic Compliance Matrix: (Units=1/GPa)
#
#
# Indices 1 2 3 4 5 6 
#
# 1 0.018502 -0.001449 0.000557 0.000000 0.005650 0.000000
# 2 -0.001449 0.015374 0.000440 0.000000 0.010322 0.000000
# 3 0.000557 0.000440 0.008748 0.000000 0.001510 0.000000
# 4 0.000000 0.000000 0.000000 0.002328 0.000000 -0.014920
# 5 0.005650 0.010322 0.001510 0.000000 0.047575 0.000000
# 6 0.000000 0.000000 0.000000 -0.014920 0.000000 0.076805
#
#
# Mechanical properties :
#
#
# Convention : Reuss Voigt Hill
#
# Bulk Modulus (GPa) = 23.96892 29.64273 26.80583
# Shear Modulus (GPa) = 27.15290 -339.47115 -156.15913
#
# Velocity S-wave (km/s) = 3.52962 -12.48021 -8.46455
# Velocity P-wave (km/s) = 5.25437 13.93103 9.12319
#
# Compressibility (1/GPa) = 0.04172070
#
# Stress axis : x y z
#
# Youngs Moduli (GPa) = 54.04801 65.04364 114.30861
#
# Poissons Ratio (x) = 0.09426 -0.06370
# Poissons Ratio (y) = 0.07832 -0.05029
# Poissons Ratio (z) = -0.03012 -0.02861
#
# Static dielectric constant tensor:
#      x y z
#    x 1.931300 0.000000 0.010810 
#    y 0.000000 1.793910 0.000000 
#    z 0.010810 0.000000 1.768870 
# 
# From -- ./inp_files/159665.got.cif
#   From: 2010.05.17/outbox.cif.g08.bks.cpg/sg15_80_cif.got.tgz:159665.got - 2010.06.03 18:47:42.
