data_PCOD9285374
_publ_section_title
;
Structure prediction by ZEFSAII (Michael W. Deem and Ramdas Pophale) SiO2 
 PCOD9285374
Probable space group: C 2/C
;
_chemical_formula_sum "Si O2"
_cell_formula_units_Z 60
_cell_length_a 8.597674
_cell_length_b 21.485415
_cell_length_c 24.396359
_cell_angle_alpha 90.000000
_cell_angle_beta 143.422979
_cell_angle_gamma 90.000000
_cell_volume 2685.500257
_symmetry_space_group_name_H-M "C 2/C"
_symmetry_group_IT_number 15
_symmetry_cell_setting 'monoclinic'
loop_
_space_group_symop_operation_xyz
x,y,z
-x,y,1/2-z
-x,-y,-z
x,-y,1/2+z
1/2+x,1/2+y,z
1/2-x,1/2+y,1/2-z
1/2-x,1/2-y,-z
1/2+x,1/2-y,1/2+z
loop_
_atom_site_type_symbol
_atom_site_label
_atom_site_fract_x
_atom_site_fract_y
_atom_site_fract_z
Si Si1 0.564784 0.639483 0.426576
Si Si2 0.481976 0.719627 0.853938
Si Si3 0.375744 0.917189 0.853039
Si Si4 0.542877 0.426891 0.502201
Si Si5 0.414954 0.204379 0.439882
Si Si6 0.500000 0.196572 0.250000
Si Si7 0.553118 0.533052 0.343591
Si Si8 0.298261 0.411894 0.316125
O O1 0.602685 0.624086 0.501297
O O2 0.732958 0.690691 0.441114
O O3 0.622335 0.571389 0.416934
O O4 0.263859 0.657854 0.333337
O O5 0.360337 0.743813 0.877579
O O6 0.458670 0.764094 0.794570
O O7 0.351223 0.653871 0.803037
O O8 0.790804 0.712958 0.954910
O O9 0.387508 0.857429 0.895059
O O10 0.146710 0.920473 0.744200
O O11 0.302021 0.972818 0.874325
O O12 0.649533 0.920472 0.901474
O O13 0.500000 0.500000 0.500000
O O14 0.473298 0.412297 0.420312
O O15 0.402035 0.469831 0.310756
O O16 0.000000 0.420412 0.250000
#
# Coordination Sequence:
#
# PCOD9285374 Si02
#       8
#     8   8   8   8   8   4   8   8
#     4  11  24  41  73 105 133 176 243 295 349 417
#     4  11  26  47  68  98 143 189 236 293 361 422
#     4  10  21  41  71  97 136 181 234 287 346 416
#     4  12  23  41  68 102 138 179 229 289 356 426
#     4  10  23  46  73  98 135 189 244 292 346 420
#     4  12  28  42  72 106 138 180 242 298 346 424
#     4  10  22  41  67 104 134 178 227 291 355 423
#     4  12  27  43  66  99 146 186 225 293 371 432
#
# _framework density 22.342206999999998
#
# number of rings (size 3 to 8) (size 9 to 14) (size 15 to 20)
#    0.000    1.067    2.667    3.200    4.667    5.333 
#    0.000    0.000    0.000    0.000    0.000    0.000 
#    0.000    0.000    0.000    0.000    0.000    0.000 
#
# Total GULP energy -167546.670704 kJ/mol
# GULP energy per Si atom -5584.889023 kJ/mol
# Density = 2.229135 g / cm^3
# Si number density = 22.342207 Si / 1000 Ang^3
#
#
#
# Elastic Constant Matrix: (Units=GPa)
#
#
# Indices 1 2 3 4 5 6 
#
# 1 96.1500 35.3493 11.5378 -0.0006 0.7513 -0.0037
# 2 35.3493 75.4649 6.1468 -0.0002 -1.5162 -0.0018
# 3 11.5378 6.1468 47.8982 -0.0041 -11.2057 -0.0021
# 4 -0.0006 -0.0002 -0.0041 18.7059 -0.0026 -1.6962
# 5 0.7513 -1.5162 -11.2057 -0.0026 29.9564 -0.0024
# 6 -0.0037 -0.0018 -0.0021 -1.6962 -0.0024 34.6099
#
#
#
# Elastic Compliance Matrix: (Units=1/GPa)
#
#
# Indices 1 2 3 4 5 6 
#
# 1 0.012892 -0.005849 -0.002740 0.000000 -0.001644 0.000001
# 2 -0.005849 0.016045 -0.000467 0.000000 0.000784 0.000000
# 3 -0.002740 -0.000467 0.023680 0.000007 0.008903 0.000002
# 4 0.000000 0.000000 0.000007 0.053698 0.000007 0.002632
# 5 -0.001644 0.000784 0.008903 0.000007 0.036793 0.000003
# 6 0.000001 0.000000 0.000002 0.002632 0.000003 0.029022
#
#
# Mechanical properties :
#
#
# Convention : Reuss Voigt Hill
#
# Bulk Modulus (GPa) = 28.97961 36.17564 32.57762
# Shear Modulus (GPa) = 24.78396 27.75305 26.26851
#
# Velocity S-wave (km/s) = 3.33421 3.52828 3.43262
# Velocity P-wave (km/s) = 5.27462 5.72932 5.50666
#
# Compressibility (1/GPa) = 0.03450702
#
# Stress axis : x y z
#
# Youngs Moduli (GPa) = 77.56545 62.32579 42.22923
#
# Poissons Ratio (x) = 0.36454 0.11569
# Poissons Ratio (y) = 0.45367 0.01971
# Poissons Ratio (z) = 0.21250 0.02909
#
# Static dielectric constant tensor:
#      x y z
#    x 1.845220 0.000000 -0.002620 
#    y 0.000000 1.861960 0.000000 
#    z -0.002620 0.000000 1.826640 
# 
# From -- ./inp_files/266242.got.cif
#   From: 2010.05.17/outbox.cif.g08.bks.cpg/sg15_134_cif.got.tgz:266242.got - 2010.06.03 18:47:42.
