data_PCOD9285840
_publ_section_title
;
Structure prediction by ZEFSAII (Michael W. Deem and Ramdas Pophale) SiO2 
 PCOD9285840
Probable space group: C 2/C
;
_chemical_formula_sum "Si O2"
_cell_formula_units_Z 52
_cell_length_a 13.175301
_cell_length_b 8.237071
_cell_length_c 30.261715
_cell_angle_alpha 90.000000
_cell_angle_beta 135.498597
_cell_angle_gamma 90.000000
_cell_volume 2301.969229
_symmetry_space_group_name_H-M "C 2/C"
_symmetry_group_IT_number 15
_symmetry_cell_setting 'monoclinic'
loop_
_space_group_symop_operation_xyz
x,y,z
-x,y,1/2-z
-x,-y,-z
x,-y,1/2+z
1/2+x,1/2+y,z
1/2-x,1/2+y,1/2-z
1/2-x,1/2-y,-z
1/2+x,1/2-y,1/2+z
loop_
_atom_site_type_symbol
_atom_site_label
_atom_site_fract_x
_atom_site_fract_y
_atom_site_fract_z
Si Si1 0.257643 0.741541 0.222847
Si Si2 0.243473 0.900177 0.310228
Si Si3 0.971404 0.454756 0.042113
Si Si4 0.500000 0.054455 0.750000
Si Si5 0.674966 0.181577 0.358248
Si Si6 0.569006 0.727475 0.916786
Si Si7 0.504034 0.416254 0.953129
O O1 0.269708 0.776972 0.278430
O O2 0.307828 0.559796 0.229756
O O3 0.364311 0.849181 0.226728
O O4 0.093439 0.761832 0.154633
O O5 0.386637 0.941757 0.382861
O O6 0.140552 0.829698 0.315409
O O7 0.901390 0.617341 0.041971
O O8 0.920467 0.263398 0.025550
O O9 0.000000 0.500000 0.000000
O O10 0.442699 0.952393 0.690284
O O11 0.672199 0.243189 0.407003
O O12 0.832735 0.117404 0.392515
O O13 0.569655 0.552205 0.940886
O O14 0.500000 0.500000 0.000000
#
# Coordination Sequence:
#
# PCOD9285840 Si02
#       7
#     8   8   8   4   8   8   8
#     4  11  23  41  68  95 134 177 226 288 355 422
#     4  10  23  42  64  95 133 180 223 287 349 427
#     4  10  21  42  67  96 135 181 230 288 347 411
#     4  12  22  40  64 100 134 174 224 288 356 446
#     4  11  24  44  67 101 138 181 233 288 368 426
#     4  11  23  44  69  96 139 180 226 297 350 421
#     4  11  23  44  72  95 137 187 236 289 352 420
#
# _framework density 22.589355000000001
#
# number of rings (size 3 to 8) (size 9 to 14) (size 15 to 20)
#    0.000    1.231    3.077    3.692    2.154    2.462 
#    2.769    0.769    0.000    0.000    0.000    0.000 
#    0.000    0.000    0.000    0.000    0.000    0.000 
#
# Total GULP energy -145137.932778 kJ/mol
# GULP energy per Si atom -5582.228184 kJ/mol
# Density = 2.253794 g / cm^3
# Si number density = 22.589355 Si / 1000 Ang^3
#
#
#
# Elastic Constant Matrix: (Units=GPa)
#
#
# Indices 1 2 3 4 5 6 
#
# 1 90.8642 61.4808 43.0065 0.0000 -31.6113 0.0000
# 2 61.4808 184.7856 51.9071 0.0000 -36.9199 0.0000
# 3 43.0065 51.9071 118.7657 0.0000 -30.3301 0.0000
# 4 0.0000 0.0000 0.0000 44.4376 0.0000 -15.5103
# 5 -31.6113 -36.9199 -30.3301 0.0000 58.2738 0.0000
# 6 0.0000 0.0000 0.0000 -15.5103 0.0000 31.6970
#
#
#
# Elastic Compliance Matrix: (Units=1/GPa)
#
#
# Indices 1 2 3 4 5 6 
#
# 1 0.016765 -0.003666 -0.003159 0.000000 0.005127 0.000000
# 2 -0.003666 0.007423 -0.001411 0.000000 0.001980 0.000000
# 3 -0.003159 -0.001411 0.010973 0.000000 0.003104 0.000000
# 4 0.000000 0.000000 0.000000 0.027139 0.000000 0.013280
# 5 0.005127 0.001980 0.003104 0.000000 0.022812 0.000000
# 6 0.000000 0.000000 0.000000 0.013280 0.000000 0.038047
#
#
# Mechanical properties :
#
#
# Convention : Reuss Voigt Hill
#
# Bulk Modulus (GPa) = 53.50801 78.57827 66.04314
# Shear Modulus (GPa) = 34.27915 42.74977 38.51446
#
# Velocity S-wave (km/s) = 3.89972 4.35498 4.13362
# Velocity P-wave (km/s) = 6.63444 7.75557 7.21681
#
# Compressibility (1/GPa) = 0.01868879
#
# Stress axis : x y z
#
# Youngs Moduli (GPa) = 59.64791 134.70793 91.13058
#
# Poissons Ratio (x) = 0.49385 0.28789
# Poissons Ratio (y) = 0.21868 0.12861
# Poissons Ratio (z) = 0.18843 0.19011
#
# Static dielectric constant tensor:
#      x y z
#    x 1.796920 0.000000 0.024480 
#    y 0.000000 1.932870 0.000000 
#    z 0.024480 0.000000 1.869510 
# 
# From -- ./inp_files/291698.got.cif
#   From: 2010.05.17/outbox.cif.g08.bks.cpg/sg15_146_cif.got.tgz:291698.got - 2010.06.03 18:47:42.
