data_PCOD9285151
_publ_section_title
;
Structure prediction by ZEFSAII (Michael W. Deem and Ramdas Pophale) SiO2 
 PCOD9285151
Probable space group: C 2/C
;
_chemical_formula_sum "Si O2"
_cell_formula_units_Z 44
_cell_length_a 20.306697
_cell_length_b 13.874022
_cell_length_c 8.162153
_cell_angle_alpha 90.000000
_cell_angle_beta 70.135531
_cell_angle_gamma 90.000000
_cell_volume 2162.742175
_symmetry_space_group_name_H-M "C 2/C"
_symmetry_group_IT_number 15
_symmetry_cell_setting 'monoclinic'
loop_
_space_group_symop_operation_xyz
x,y,z
-x,y,1/2-z
-x,-y,-z
x,-y,1/2+z
1/2+x,1/2+y,z
1/2-x,1/2+y,1/2-z
1/2-x,1/2-y,-z
1/2+x,1/2-y,1/2+z
loop_
_atom_site_type_symbol
_atom_site_label
_atom_site_fract_x
_atom_site_fract_y
_atom_site_fract_z
Si Si1 0.500000 0.739849 0.750000
Si Si2 0.750041 0.296079 0.748222
Si Si3 0.471361 0.601509 0.457524
Si Si4 0.689296 0.395175 0.373855
Si Si5 0.147427 0.672432 0.030908
Si Si6 0.760595 0.498292 0.072522
O O1 0.484404 0.676376 0.597935
O O2 0.431354 0.802822 0.852724
O O3 0.788847 0.213342 0.612750
O O4 0.801902 0.310552 0.857468
O O5 0.746042 0.397496 0.663586
O O6 0.677567 0.246796 0.868870
O O7 0.500000 0.625701 0.250000
O O8 0.500000 0.500000 0.500000
O O9 0.388399 0.588439 0.505324
O O10 0.700069 0.421630 0.173912
O O11 0.745652 0.469383 0.399486
O O12 0.167507 0.561633 0.967022
#
# Coordination Sequence:
#
# PCOD9285151 Si02
#       6
#     4   8   8   8   8   8
#     4  12  26  48  68  94 154 184 228 280 344 422
#     4  10  21  41  67  98 128 168 236 278 339 398
#     4  12  26  40  64 102 138 183 221 275 358 416
#     4  11  23  39  65  98 130 167 222 289 330 406
#     4  10  23  42  67  99 134 184 217 284 349 401
#     4  11  22  40  69  96 129 170 226 282 338 397
#
# _framework density 20.344542000000001
#
# number of rings (size 3 to 8) (size 9 to 14) (size 15 to 20)
#    0.000    1.091    4.545    1.636    5.091    0.000 
#    0.000    0.909    2.000    0.000    0.000    0.000 
#    0.000    0.000    0.000    0.000    0.000    0.000 
#
# Total GULP energy -122559.491907 kJ/mol
# GULP energy per Si atom -5570.885996 kJ/mol
# Density = 2.029824 g / cm^3
# Si number density = 20.344542 Si / 1000 Ang^3
#
#
#
# Elastic Constant Matrix: (Units=GPa)
#
#
# Indices 1 2 3 4 5 6 
#
# 1 70.6587 37.3913 46.1362 0.0000 -35.7749 0.0000
# 2 37.3913 138.7275 52.9486 0.0000 -12.1858 0.0000
# 3 46.1362 52.9486 98.0552 0.0000 -23.0609 0.0000
# 4 0.0000 0.0000 0.0000 42.4182 0.0000 1.7567
# 5 -35.7749 -12.1858 -23.0609 0.0000 44.9711 0.0000
# 6 0.0000 0.0000 0.0000 1.7567 0.0000 17.8244
#
#
#
# Elastic Compliance Matrix: (Units=1/GPa)
#
#
# Indices 1 2 3 4 5 6 
#
# 1 0.031456 -0.003612 -0.008182 0.000000 0.019849 0.000000
# 2 -0.003612 0.009495 -0.003978 0.000000 -0.002340 0.000000
# 3 -0.008182 -0.003978 0.016388 0.000000 0.000817 0.000000
# 4 0.000000 0.000000 0.000000 0.023671 0.000000 -0.002333
# 5 0.019849 -0.002340 0.000817 0.000000 0.037811 0.000000
# 6 0.000000 0.000000 0.000000 -0.002333 0.000000 0.056333
#
#
# Mechanical properties :
#
#
# Convention : Reuss Voigt Hill
#
# Bulk Modulus (GPa) = 38.76677 64.48817 51.62747
# Shear Modulus (GPa) = 23.22382 32.44045 27.83213
#
# Velocity S-wave (km/s) = 3.38231 3.99752 3.70271
# Velocity P-wave (km/s) = 5.86088 7.28517 6.61149
#
# Compressibility (1/GPa) = 0.02579529
#
# Stress axis : x y z
#
# Youngs Moduli (GPa) = 31.79045 105.32314 61.01958
#
# Poissons Ratio (x) = 0.38043 0.49925
# Poissons Ratio (y) = 0.11483 0.24273
# Poissons Ratio (z) = 0.26010 0.41896
#
# Static dielectric constant tensor:
#      x y z
#    x 1.726520 0.000000 0.090980 
#    y 0.000000 1.801880 0.000000 
#    z 0.090980 0.000000 1.851440 
# 
# From -- ./inp_files/47222.got.cif
#   From: 2010.05.17/outbox.cif.g08.bks.cpg/sg15_24_cif.got.tgz:47222.got - 2010.06.03 18:47:42.
