data_PCOD9285649
_publ_section_title
;
Structure prediction by ZEFSAII (Michael W. Deem and Ramdas Pophale) SiO2 
 PCOD9285649
Probable space group: C 2/C
;
_chemical_formula_sum "Si O2"
_cell_formula_units_Z 60
_cell_length_a 11.037336
_cell_length_b 9.075924
_cell_length_c 28.050629
_cell_angle_alpha 90.000000
_cell_angle_beta 85.962480
_cell_angle_gamma 90.000000
_cell_volume 2802.970504
_symmetry_space_group_name_H-M "C 2/C"
_symmetry_group_IT_number 15
_symmetry_cell_setting 'monoclinic'
loop_
_space_group_symop_operation_xyz
x,y,z
-x,y,1/2-z
-x,-y,-z
x,-y,1/2+z
1/2+x,1/2+y,z
1/2-x,1/2+y,1/2-z
1/2-x,1/2-y,-z
1/2+x,1/2-y,1/2+z
loop_
_atom_site_type_symbol
_atom_site_label
_atom_site_fract_x
_atom_site_fract_y
_atom_site_fract_z
Si Si1 0.500000 0.577144 0.250000
Si Si2 0.900612 0.863834 0.170893
Si Si3 0.072225 0.473316 0.847009
Si Si4 0.965323 0.105118 0.934473
Si Si5 0.710407 0.351922 0.458103
Si Si6 0.707534 0.598906 0.107475
Si Si7 0.617121 0.197895 0.683135
Si Si8 0.939233 0.444769 0.951796
O O1 0.450137 0.471502 0.210090
O O2 0.398043 0.689707 0.272764
O O3 0.932278 0.690055 0.175510
O O4 0.971229 0.903109 0.119931
O O5 0.752291 0.872119 0.176144
O O6 0.214944 0.493892 0.856152
O O7 0.993667 0.583761 0.817333
O O8 0.013982 0.481955 0.901736
O O9 0.080205 0.073408 0.964664
O O10 0.925081 0.268778 0.950537
O O11 0.850744 0.999654 0.931667
O O12 0.750000 0.250000 0.500000
O O13 0.707165 0.226561 0.416882
O O14 0.812535 0.472636 0.448558
O O15 0.607808 0.695714 0.137254
O O16 0.000000 0.500000 0.000000
#
# Coordination Sequence:
#
# PCOD9285649 Si02
#       8
#     4   8   8   8   8   8   8   8
#     4  12  26  42  66 100 126 160 222 268 314 394
#     4  10  23  44  65  94 128 167 208 265 324 381
#     4  10  21  42  65  90 132 170 205 262 324 380
#     4  11  22  41  66  92 126 175 212 257 329 377
#     4  12  22  41  65  93 136 170 211 269 313 378
#     4  11  22  41  65  95 130 170 214 263 316 389
#     4  11  23  43  66  95 129 168 212 265 327 383
#     4  11  20  39  63  92 127 169 213 260 314 376
#
# _framework density 21.405861000000002
#
# number of rings (size 3 to 8) (size 9 to 14) (size 15 to 20)
#    0.000    1.067    8.000    0.000    0.000    5.333 
#    4.800    1.333    0.000    0.000    0.000    0.000 
#    0.000    0.000    0.000    0.000    0.000    0.000 
#
# Total GULP energy -167279.088429 kJ/mol
# GULP energy per Si atom -5575.969614 kJ/mol
# Density = 2.135714 g / cm^3
# Si number density = 21.405861 Si / 1000 Ang^3
#
#
#
# Elastic Constant Matrix: (Units=GPa)
#
#
# Indices 1 2 3 4 5 6 
#
# 1 116.7939 73.5583 13.2775 0.0000 19.1727 0.0000
# 2 73.5583 85.3177 29.3617 0.0000 14.9954 0.0000
# 3 13.2775 29.3617 68.3930 0.0000 7.9485 0.0000
# 4 0.0000 0.0000 0.0000 40.3600 0.0000 3.7301
# 5 19.1727 14.9954 7.9485 0.0000 25.8222 0.0000
# 6 0.0000 0.0000 0.0000 3.7301 0.0000 46.7984
#
#
#
# Elastic Compliance Matrix: (Units=1/GPa)
#
#
# Indices 1 2 3 4 5 6 
#
# 1 0.020462 -0.018132 0.004515 0.000000 -0.006053 0.000000
# 2 -0.018132 0.030920 -0.009575 0.000000 -0.001546 0.000000
# 3 0.004515 -0.009575 0.018252 0.000000 -0.003410 0.000000
# 4 0.000000 0.000000 0.000000 0.024961 0.000000 -0.001990
# 5 -0.006053 -0.001546 -0.003410 0.000000 0.045169 0.000000
# 6 0.000000 0.000000 0.000000 -0.001990 0.000000 0.021527
#
#
# Mechanical properties :
#
#
# Convention : Reuss Voigt Hill
#
# Bulk Modulus (GPa) = 43.00766 55.87773 49.44269
# Shear Modulus (GPa) = 23.21012 32.88325 28.04669
#
# Velocity S-wave (km/s) = 3.29643 3.92366 3.62364
# Velocity P-wave (km/s) = 5.88419 6.83282 6.37617
#
# Compressibility (1/GPa) = 0.02325167
#
# Stress axis : x y z
#
# Youngs Moduli (GPa) = 48.87091 32.34120 54.78954
#
# Poissons Ratio (x) = 0.58640 -0.24738
# Poissons Ratio (y) = 0.88611 0.52459
# Poissons Ratio (z) = -0.22066 0.30966
#
# Static dielectric constant tensor:
#      x y z
#    x 1.818230 0.000000 -0.017600 
#    y 0.000000 1.753270 0.000000 
#    z -0.017600 0.000000 1.871400 
# 
# From -- ./inp_files/291590.got.cif
#   From: 2010.05.17/outbox.cif.g08.bks.cpg/sg15_146_cif.got.tgz:291590.got - 2010.06.03 18:47:42.
