data_PCOD9285210
_publ_section_title
;
Structure prediction by ZEFSAII (Michael W. Deem and Ramdas Pophale) SiO2 
 PCOD9285210
Probable space group: C 2/C
;
_chemical_formula_sum "Si O2"
_cell_formula_units_Z 40
_cell_length_a 8.155395
_cell_length_b 14.558622
_cell_length_c 15.529362
_cell_angle_alpha 90.000000
_cell_angle_beta 109.762810
_cell_angle_gamma 90.000000
_cell_volume 1735.221266
_symmetry_space_group_name_H-M "C 2/C"
_symmetry_group_IT_number 15
_symmetry_cell_setting 'monoclinic'
loop_
_space_group_symop_operation_xyz
x,y,z
-x,y,1/2-z
-x,-y,-z
x,-y,1/2+z
1/2+x,1/2+y,z
1/2-x,1/2+y,1/2-z
1/2-x,1/2-y,-z
1/2+x,1/2-y,1/2+z
loop_
_atom_site_type_symbol
_atom_site_label
_atom_site_fract_x
_atom_site_fract_y
_atom_site_fract_z
Si Si1 0.130912 0.169627 0.941237
Si Si2 0.545612 0.322643 0.919957
Si Si3 0.305001 0.975315 0.997139
Si Si4 0.159323 0.648764 0.841502
Si Si5 0.684118 0.772526 0.780095
O O1 0.141223 0.194338 0.843478
O O2 0.201824 0.068901 0.967886
O O3 0.250000 0.250000 0.000000
O O4 0.971595 0.174126 0.979679
O O5 0.694493 0.397241 0.925101
O O6 0.593666 0.220129 0.902096
O O7 0.354448 0.331105 0.840054
O O8 0.300936 0.942112 0.095953
O O9 0.500000 0.000000 0.000000
O O10 0.273335 0.715516 0.798823
O O11 0.000000 0.624015 0.750000
O O12 0.500000 0.826958 0.750000
#
# Coordination Sequence:
#
# PCOD9285210 Si02
#       5
#     8   8   8   8   8
#     4  10  22  43  66  95 131 177 227 275 334 406
#     4  10  22  40  64  95 130 171 222 276 336 410
#     4  12  23  39  67  99 132 178 226 274 335 415
#     4  10  22  43  65  97 138 175 223 286 339 397
#     4  10  21  41  68  94 133 181 227 287 348 394
#
# _framework density 23.051817
#
# number of rings (size 3 to 8) (size 9 to 14) (size 15 to 20)
#    0.000    1.600    0.000    6.000    0.000    3.200 
#    0.000   23.000    0.000    0.000    0.000    0.000 
#    0.000    0.000    0.000    0.000    0.000    0.000 
#
# Total GULP energy -111424.447143 kJ/mol
# GULP energy per Si atom -5571.222357 kJ/mol
# Density = 2.299935 g / cm^3
# Si number density = 23.051817 Si / 1000 Ang^3
#
#
#
# Elastic Constant Matrix: (Units=GPa)
#
#
# Indices 1 2 3 4 5 6 
#
# 1 122.3581 3.7345 35.4667 0.0000 13.0747 0.0000
# 2 3.7345 88.7119 35.9606 0.0000 19.4052 0.0000
# 3 35.4667 35.9606 122.7775 0.0000 -3.7809 0.0000
# 4 0.0000 0.0000 0.0000 16.4411 0.0000 -3.5078
# 5 13.0747 19.4052 -3.7809 0.0000 46.8471 0.0000
# 6 0.0000 0.0000 0.0000 -3.5078 0.0000 31.4682
#
#
#
# Elastic Compliance Matrix: (Units=1/GPa)
#
#
# Indices 1 2 3 4 5 6 
#
# 1 0.009486 0.001765 -0.003369 0.000000 -0.003650 0.000000
# 2 0.001765 0.014784 -0.005056 0.000000 -0.007025 0.000000
# 3 -0.003369 -0.005056 0.010719 0.000000 0.003900 0.000000
# 4 0.000000 0.000000 0.000000 0.062305 0.000000 0.006945
# 5 -0.003650 -0.007025 0.003900 0.000000 0.025589 0.000000
# 6 0.000000 0.000000 0.000000 0.006945 0.000000 0.032552
#
#
# Mechanical properties :
#
#
# Convention : Reuss Voigt Hill
#
# Bulk Modulus (GPa) = 46.15190 53.79678 49.97434
# Shear Modulus (GPa) = 28.41225 36.19698 32.30461
#
# Velocity S-wave (km/s) = 3.51456 3.96693 3.74758
# Velocity P-wave (km/s) = 6.04433 6.66108 6.36019
#
# Compressibility (1/GPa) = 0.02166758
#
# Stress axis : x y z
#
# Youngs Moduli (GPa) = 105.42277 67.63850 93.29001
#
# Poissons Ratio (x) = -0.11939 0.31434
# Poissons Ratio (y) = -0.18608 0.47172
# Poissons Ratio (z) = 0.35522 0.34201
#
# Static dielectric constant tensor:
#      x y z
#    x 2.166040 0.000000 0.128340 
#    y 0.000000 1.773940 0.000000 
#    z 0.128340 0.000000 1.945910 
# 
# From -- ./inp_files/133297.got.cif
#   From: 2010.05.17/outbox.cif.g08.bks.cpg/sg15_67_cif.got.tgz:133297.got - 2010.06.03 18:47:42.
