data_PCOD9285830
_publ_section_title
;
Structure prediction by ZEFSAII (Michael W. Deem and Ramdas Pophale) SiO2 
 PCOD9285830
Probable space group: C 2/C
;
_chemical_formula_sum "Si O2"
_cell_formula_units_Z 52
_cell_length_a 6.667723
_cell_length_b 27.235518
_cell_length_c 17.279664
_cell_angle_alpha 90.000000
_cell_angle_beta 129.162907
_cell_angle_gamma 90.000000
_cell_volume 2433.034312
_symmetry_space_group_name_H-M "C 2/C"
_symmetry_group_IT_number 15
_symmetry_cell_setting 'monoclinic'
loop_
_space_group_symop_operation_xyz
x,y,z
-x,y,1/2-z
-x,-y,-z
x,-y,1/2+z
1/2+x,1/2+y,z
1/2-x,1/2+y,1/2-z
1/2-x,1/2-y,-z
1/2+x,1/2-y,1/2+z
loop_
_atom_site_type_symbol
_atom_site_label
_atom_site_fract_x
_atom_site_fract_y
_atom_site_fract_z
Si Si1 0.993876 0.278771 0.658317
Si Si2 0.064309 0.377080 0.353476
Si Si3 0.487913 0.692552 0.949531
Si Si4 0.703721 0.105561 0.562455
Si Si5 0.195695 0.385791 0.664639
Si Si6 0.407652 0.528406 0.902197
Si Si7 0.000000 0.545898 0.250000
O O1 0.695805 0.286546 0.560001
O O2 0.095974 0.235191 0.629195
O O3 0.000000 0.267186 0.750000
O O4 0.140423 0.329514 0.675518
O O5 0.249394 0.334580 0.430961
O O6 0.216283 0.428239 0.382774
O O7 0.000000 0.362873 0.250000
O O8 0.833291 0.384959 0.356187
O O9 0.635683 0.649967 0.937137
O O10 0.427444 0.105054 0.450198
O O11 0.858477 0.055606 0.583865
O O12 0.500000 0.395969 0.750000
O O13 0.029343 0.419667 0.682458
O O14 0.247468 0.489526 0.813393
O O15 0.500000 0.500000 0.000000
#
# Coordination Sequence:
#
# PCOD9285830 Si02
#       7
#     8   8   8   8   8   8   4
#     4  10  21  42  67  95 134 180 225 283 342 401
#     4  11  25  43  66  97 132 179 225 280 337 405
#     4   9  23  43  64  96 134 177 227 282 338 403
#     4  10  24  44  68  97 135 177 226 282 342 403
#     4  11  25  40  67 102 134 176 226 279 347 405
#     4  11  24  44  68  98 135 174 225 278 336 407
#     4  12  24  46  66 102 136 180 222 280 340 408
#
# _framework density 21.372489999999999
#
# number of rings (size 3 to 8) (size 9 to 14) (size 15 to 20)
#    0.000    1.538    3.077    0.000    6.462    4.308 
#    0.000    2.308    0.000    0.000    0.000    0.000 
#    0.000    0.000    0.000    0.000    0.000    0.000 
#
# Total GULP energy -145397.664645 kJ/mol
# GULP energy per Si atom -5592.217871 kJ/mol
# Density = 2.132384 g / cm^3
# Si number density = 21.372490 Si / 1000 Ang^3
#
#
#
# Elastic Constant Matrix: (Units=GPa)
#
#
# Indices 1 2 3 4 5 6 
#
# 1 83.2826 25.4615 32.5408 0.0000 -6.3608 0.0000
# 2 25.4615 109.3745 28.4907 0.0000 3.7611 0.0000
# 3 32.5408 28.4907 77.9540 0.0000 -10.9563 0.0000
# 4 0.0000 0.0000 0.0000 19.0746 0.0000 -5.8800
# 5 -6.3608 3.7611 -10.9563 0.0000 31.5073 0.0000
# 6 0.0000 0.0000 0.0000 -5.8800 0.0000 13.2744
#
#
#
# Elastic Compliance Matrix: (Units=1/GPa)
#
#
# Indices 1 2 3 4 5 6 
#
# 1 0.014801 -0.002142 -0.005194 0.000000 0.001438 0.000000
# 2 -0.002142 0.010625 -0.003394 0.000000 -0.002881 0.000000
# 3 -0.005194 -0.003394 0.016976 0.000000 0.005260 0.000000
# 4 0.000000 0.000000 0.000000 0.060716 0.000000 0.026895
# 5 0.001438 -0.002881 0.005260 0.000000 0.034202 0.000000
# 6 0.000000 0.000000 0.000000 0.026895 0.000000 0.087247
#
#
# Mechanical properties :
#
#
# Convention : Reuss Voigt Hill
#
# Bulk Modulus (GPa) = 47.74972 49.28856 48.51914
# Shear Modulus (GPa) = 19.76234 25.04581 22.40407
#
# Velocity S-wave (km/s) = 3.04413 3.42697 3.24121
# Velocity P-wave (km/s) = 5.89455 6.22661 6.06285
#
# Compressibility (1/GPa) = 0.02094253
#
# Stress axis : x y z
#
# Youngs Moduli (GPa) = 67.56153 94.12040 58.90783
#
# Poissons Ratio (x) = 0.20163 0.30594
# Poissons Ratio (y) = 0.14473 0.19992
# Poissons Ratio (z) = 0.35089 0.31942
#
# Static dielectric constant tensor:
#      x y z
#    x 1.776750 0.000000 0.006640 
#    y 0.000000 1.743240 0.000000 
#    z 0.006640 0.000000 1.845890 
# 
# From -- ./inp_files/186309.got.cif
#   From: 2010.05.17/outbox.cif.g08.bks.cpg/sg15_94_cif.got.tgz:186309.got - 2010.06.03 18:47:42.
