data_PCOD9285690
_publ_section_title
;
Structure prediction by ZEFSAII (Michael W. Deem and Ramdas Pophale) SiO2 
 PCOD9285690
Probable space group: C 2/C
;
_chemical_formula_sum "Si O2"
_cell_formula_units_Z 40
_cell_length_a 22.963675
_cell_length_b 7.844037
_cell_length_c 14.025831
_cell_angle_alpha 90.000000
_cell_angle_beta 143.837037
_cell_angle_gamma 90.000000
_cell_volume 1490.813787
_symmetry_space_group_name_H-M "C 2/C"
_symmetry_group_IT_number 15
_symmetry_cell_setting 'monoclinic'
loop_
_space_group_symop_operation_xyz
x,y,z
-x,y,1/2-z
-x,-y,-z
x,-y,1/2+z
1/2+x,1/2+y,z
1/2-x,1/2+y,1/2-z
1/2-x,1/2-y,-z
1/2+x,1/2-y,1/2+z
loop_
_atom_site_type_symbol
_atom_site_label
_atom_site_fract_x
_atom_site_fract_y
_atom_site_fract_z
Si Si1 0.010958 0.215380 0.111576
Si Si2 0.109421 0.356023 0.068833
Si Si3 0.741981 0.383132 0.635401
Si Si4 0.129224 0.365439 0.447451
Si Si5 0.828610 0.038333 0.666168
O O1 0.023110 0.312415 0.028235
O O2 0.079642 0.312454 0.282428
O O3 0.904164 0.224575 0.019042
O O4 0.063645 0.034422 0.172830
O O5 0.187516 0.474631 0.227993
O O6 0.162544 0.184576 0.105419
O O7 0.087769 0.462300 0.943786
O O8 0.803739 0.215795 0.683840
O O9 0.687859 0.441171 0.468038
O O10 0.243829 0.403444 0.584861
#
# Coordination Sequence:
#
# PCOD9285690 Si02
#       5
#     8   8   8   8   8
#     4  11  22  40  67  92 136 177 220 271 338 393
#     4  11  21  38  64 101 130 173 223 273 331 401
#     4  10  22  36  67  99 129 170 228 272 337 393
#     4  10  22  38  65  95 130 174 220 270 327 399
#     4  10  21  42  65  97 132 178 221 274 331 400
#
# _framework density 26.830984000000001
#
# number of rings (size 3 to 8) (size 9 to 14) (size 15 to 20)
#    0.000    1.600    2.000    3.600    2.800    0.000 
#    0.000    1.000   30.800    0.000    0.000    0.000 
#    0.000    0.000    0.000    0.000    0.000    0.000 
#
# Total GULP energy -112206.563059 kJ/mol
# GULP energy per Si atom -5610.328153 kJ/mol
# Density = 2.676992 g / cm^3
# Si number density = 26.830984 Si / 1000 Ang^3
#
#
#
# Elastic Constant Matrix: (Units=GPa)
#
#
# Indices 1 2 3 4 5 6 
#
# 1 181.3552 54.0002 35.2829 0.0000 -4.2171 0.0000
# 2 54.0002 100.4456 40.9216 0.0000 15.4654 0.0000
# 3 35.2829 40.9216 111.1537 0.0000 -12.2305 0.0000
# 4 0.0000 0.0000 0.0000 54.1193 0.0000 2.0022
# 5 -4.2171 15.4654 -12.2305 0.0000 43.7579 0.0000
# 6 0.0000 0.0000 0.0000 2.0022 0.0000 43.4373
#
#
#
# Elastic Compliance Matrix: (Units=1/GPa)
#
#
# Indices 1 2 3 4 5 6 
#
# 1 0.006764 -0.003665 -0.000602 0.000000 0.001779 0.000000
# 2 -0.003665 0.015147 -0.005201 0.000000 -0.007160 0.000000
# 3 -0.000602 -0.005201 0.011657 0.000000 0.005038 0.000000
# 4 0.000000 0.000000 0.000000 0.018509 0.000000 -0.000853
# 5 0.001779 -0.007160 0.005038 0.000000 0.026963 0.000000
# 6 0.000000 0.000000 0.000000 -0.000853 0.000000 0.023061
#
#
# Mechanical properties :
#
#
# Convention : Reuss Voigt Hill
#
# Bulk Modulus (GPa) = 68.34363 72.59598 70.46981
# Shear Modulus (GPa) = 39.70937 45.77956 42.74446
#
# Velocity S-wave (km/s) = 3.85123 4.13512 3.99570
# Velocity P-wave (km/s) = 6.73076 7.06502 6.89991
#
# Compressibility (1/GPa) = 0.01463194
#
# Stress axis : x y z
#
# Youngs Moduli (GPa) = 147.84623 66.01833 85.78670
#
# Poissons Ratio (x) = 0.24195 0.05165
# Poissons Ratio (y) = 0.54184 0.44618
# Poissons Ratio (z) = 0.08901 0.34337
#
# Static dielectric constant tensor:
#      x y z
#    x 2.055990 0.000000 0.003620 
#    y 0.000000 2.140840 0.000000 
#    z 0.003620 0.000000 2.079700 
# 
# From -- ./inp_files/172132.got.cif
#   From: 2010.05.17/outbox.cif.g08.bks.cpg/sg15_87_cif.got.tgz:172132.got - 2010.06.03 18:47:42.
