data_PCOD9285328
_publ_section_title
;
Structure prediction by ZEFSAII (Michael W. Deem and Ramdas Pophale) SiO2 
 PCOD9285328
Probable space group: C 2/C
;
_chemical_formula_sum "Si O2"
_cell_formula_units_Z 52
_cell_length_a 15.527828
_cell_length_b 18.350845
_cell_length_c 15.125085
_cell_angle_alpha 90.000000
_cell_angle_beta 37.495246
_cell_angle_gamma 90.000000
_cell_volume 2623.401516
_symmetry_space_group_name_H-M "C 2/C"
_symmetry_group_IT_number 15
_symmetry_cell_setting 'monoclinic'
loop_
_space_group_symop_operation_xyz
x,y,z
-x,y,1/2-z
-x,-y,-z
x,-y,1/2+z
1/2+x,1/2+y,z
1/2-x,1/2+y,1/2-z
1/2-x,1/2-y,-z
1/2+x,1/2-y,1/2+z
loop_
_atom_site_type_symbol
_atom_site_label
_atom_site_fract_x
_atom_site_fract_y
_atom_site_fract_z
Si Si1 0.874005 0.101575 0.561243
Si Si2 0.000000 0.412401 0.750000
Si Si3 0.427176 0.164801 0.720536
Si Si4 0.841089 0.960728 0.711503
Si Si5 0.423369 0.979657 0.469892
Si Si6 0.968459 0.754393 0.510881
Si Si7 0.694053 0.833354 0.714189
O O1 0.730391 0.132604 0.635812
O O2 0.942954 0.171094 0.553165
O O3 0.999938 0.066997 0.399873
O O4 0.840888 0.036083 0.656417
O O5 0.041889 0.461607 0.632631
O O6 0.130324 0.364486 0.676522
O O7 0.500000 0.193187 0.750000
O O8 0.517006 0.096432 0.612863
O O9 0.434430 0.223355 0.636269
O O10 0.742277 0.972590 0.875765
O O11 0.766362 0.898458 0.712003
O O12 0.500000 0.000000 0.500000
O O13 0.064649 0.699170 0.376974
O O14 0.815388 0.774238 0.597195
#
# Coordination Sequence:
#
# PCOD9285328 Si02
#       7
#     8   4   8   8   8   8   8
#     4  10  22  41  66  96 133 179 228 274 342 407
#     4  12  24  38  70 110 134 174 242 282 326 416
#     4  12  23  39  67  97 132 176 230 281 335 416
#     4  10  21  41  70  93 132 186 220 277 343 398
#     4  12  21  40  71  99 134 180 228 278 340 397
#     4  11  23  43  66  93 135 186 217 279 356 393
#     4  11  23  42  68  96 134 178 229 276 338 407
#
# _framework density 19.821594000000001
#
# number of rings (size 3 to 8) (size 9 to 14) (size 15 to 20)
#    0.000    0.923    6.923    0.000    0.000    1.231 
#    0.000    0.769    0.000    1.846    0.000    0.000 
#    0.000    0.000    0.000    0.000    0.000    0.000 
#
# Total GULP energy -145242.786937 kJ/mol
# GULP energy per Si atom -5586.261036 kJ/mol
# Density = 1.977648 g / cm^3
# Si number density = 19.821594 Si / 1000 Ang^3
#
#
#
# Elastic Constant Matrix: (Units=GPa)
#
#
# Indices 1 2 3 4 5 6 
#
# 1 81.2387 35.1388 55.0591 0.0005 -2.2919 -0.0004
# 2 35.1388 92.9637 29.8275 0.0001 -2.3329 -0.0001
# 3 55.0591 29.8275 119.0725 0.0004 -24.4372 -0.0001
# 4 0.0005 0.0001 0.0004 23.7542 -0.0002 -23.5891
# 5 -2.2919 -2.3329 -24.4372 -0.0002 25.6621 0.0001
# 6 -0.0004 -0.0001 -0.0001 -23.5891 0.0001 8.3958
#
#
#
# Elastic Compliance Matrix: (Units=1/GPa)
#
#
# Indices 1 2 3 4 5 6 
#
# 1 0.021153 -0.004913 -0.010259 0.000000 -0.008327 0.000000
# 2 -0.004913 0.012934 -0.001016 0.000000 -0.000230 0.000000
# 3 -0.010259 -0.001016 0.016393 0.000000 0.014602 0.000000
# 4 0.000000 0.000000 0.000000 -0.023517 0.000000 -0.066074
# 5 -0.008327 -0.000230 0.014602 0.000000 0.052109 0.000000
# 6 0.000000 0.000000 0.000000 -0.066074 0.000000 -0.066536
#
#
# Mechanical properties :
#
#
# Convention : Reuss Voigt Hill
#
# Bulk Modulus (GPa) = 55.23366 59.25841 57.24604
# Shear Modulus (GPa) = 98.14514 23.11238 60.62876
#
# Velocity S-wave (km/s) = 7.04427 3.41841 5.53657
# Velocity P-wave (km/s) = 9.69991 6.74844 8.35553
#
# Compressibility (1/GPa) = 0.01810490
#
# Stress axis : x y z
#
# Youngs Moduli (GPa) = 47.27561 77.31658 61.00034
#
# Poissons Ratio (x) = 0.37982 0.62582
# Poissons Ratio (y) = 0.23225 0.06195
# Poissons Ratio (z) = 0.48501 0.07852
#
# Static dielectric constant tensor:
#      x y z
#    x 1.708590 0.000000 -0.021260 
#    y 0.000000 1.703270 0.000000 
#    z -0.021260 0.000000 1.724610 
# 
# From -- ./inp_files/155422.got.cif
#   From: 2010.05.17/outbox.cif.g08.bks.cpg/sg15_78_cif.got.tgz:155422.got - 2010.06.03 18:47:42.
