data_PCOD9285298
_publ_section_title
;
Structure prediction by ZEFSAII (Michael W. Deem and Ramdas Pophale) SiO2 
 PCOD9285298
Probable space group: C 2/C
;
_chemical_formula_sum "Si O2"
_cell_formula_units_Z 32
_cell_length_a 7.877061
_cell_length_b 18.814311
_cell_length_c 8.241879
_cell_angle_alpha 90.000000
_cell_angle_beta 88.891653
_cell_angle_gamma 90.000000
_cell_volume 1221.230099
_symmetry_space_group_name_H-M "C 2/C"
_symmetry_group_IT_number 15
_symmetry_cell_setting 'monoclinic'
loop_
_space_group_symop_operation_xyz
x,y,z
-x,y,1/2-z
-x,-y,-z
x,-y,1/2+z
1/2+x,1/2+y,z
1/2-x,1/2+y,1/2-z
1/2-x,1/2-y,-z
1/2+x,1/2-y,1/2+z
loop_
_atom_site_type_symbol
_atom_site_label
_atom_site_fract_x
_atom_site_fract_y
_atom_site_fract_z
Si Si1 0.207064 0.858879 0.932901
Si Si2 0.685273 0.989919 0.741609
Si Si3 0.174094 0.897867 0.468626
Si Si4 0.793530 0.226030 0.747650
O O1 0.316072 0.927951 0.894032
O O2 0.220550 0.804006 0.781979
O O3 0.264571 0.817708 0.092190
O O4 0.015479 0.884018 0.966403
O O5 0.500000 0.023109 0.750000
O O6 0.816905 0.050527 0.688647
O O7 0.733053 0.944759 0.898451
O O8 0.249836 0.822419 0.406651
O O9 0.000000 0.230779 0.750000
#
# Coordination Sequence:
#
# PCOD9285298 Si02
#       4
#     8   8   8   8
#     4  10  21  41  69  98 132 172 216 270 328 395
#     4  12  25  43  65  95 134 175 223 277 330 389
#     4  11  24  43  69  97 130 175 223 272 331 395
#     4   9  20  41  69 101 135 172 216 270 330 393
#
# _framework density 26.203088000000001
#
# number of rings (size 3 to 8) (size 9 to 14) (size 15 to 20)
#    0.000    1.500    0.000    4.500    0.000    5.000 
#    0.000    7.500    0.000    0.000    0.000    0.000 
#    0.000    0.000    0.000    0.000    0.000    0.000 
#
# Total GULP energy -89683.188794 kJ/mol
# GULP energy per Si atom -5605.199300 kJ/mol
# Density = 2.614345 g / cm^3
# Si number density = 26.203088 Si / 1000 Ang^3
#
#
#
# Elastic Constant Matrix: (Units=GPa)
#
#
# Indices 1 2 3 4 5 6 
#
# 1 85.9471 34.6335 32.7182 0.0000 -12.6735 0.0000
# 2 34.6335 168.8632 50.9041 0.0000 -19.6153 0.0000
# 3 32.7182 50.9041 105.3930 0.0000 -17.0341 0.0000
# 4 0.0000 0.0000 0.0000 72.0102 0.0000 -27.7292
# 5 -12.6735 -19.6153 -17.0341 0.0000 29.0850 0.0000
# 6 0.0000 0.0000 0.0000 -27.7292 0.0000 45.7481
#
#
#
# Elastic Compliance Matrix: (Units=1/GPa)
#
#
# Indices 1 2 3 4 5 6 
#
# 1 0.013896 -0.001559 -0.003040 0.000000 0.003223 0.000000
# 2 -0.001559 0.007351 -0.002623 0.000000 0.002742 0.000000
# 3 -0.003040 -0.002623 0.012370 0.000000 0.004151 0.000000
# 4 0.000000 0.000000 0.000000 0.018115 0.000000 0.010980
# 5 0.003223 0.002742 0.004151 0.000000 0.040067 0.000000
# 6 0.000000 0.000000 0.000000 0.010980 0.000000 0.028514
#
#
# Mechanical properties :
#
#
# Convention : Reuss Voigt Hill
#
# Bulk Modulus (GPa) = 52.15916 66.30163 59.23040
# Shear Modulus (GPa) = 35.42387 45.49851 40.46119
#
# Velocity S-wave (km/s) = 3.68080 4.17151 3.93382
# Velocity P-wave (km/s) = 6.16550 6.96849 6.57926
#
# Compressibility (1/GPa) = 0.01917209
#
# Stress axis : x y z
#
# Youngs Moduli (GPa) = 71.96401 136.03502 80.84153
#
# Poissons Ratio (x) = 0.21211 0.24574
# Poissons Ratio (y) = 0.11221 0.21207
# Poissons Ratio (z) = 0.21875 0.35686
#
# Static dielectric constant tensor:
#      x y z
#    x 1.933980 0.000000 0.001290 
#    y 0.000000 2.022680 0.000000 
#    z 0.001290 0.000000 2.198790 
# 
# From -- ./inp_files/22245.got.cif
#   From: 2010.05.17/outbox.cif.g08.bks.cpg/sg15_12_cif.got.tgz:22245.got - 2010.06.03 18:47:42.
