data_PCOD9285196
_publ_section_title
;
Structure prediction by ZEFSAII (Michael W. Deem and Ramdas Pophale) SiO2 
 PCOD9285196
Probable space group: C 2/C
;
_chemical_formula_sum "Si O2"
_cell_formula_units_Z 48
_cell_length_a 8.567115
_cell_length_b 18.896952
_cell_length_c 14.190545
_cell_angle_alpha 90.000000
_cell_angle_beta 75.587181
_cell_angle_gamma 90.000000
_cell_volume 2225.037766
_symmetry_space_group_name_H-M "C 2/C"
_symmetry_group_IT_number 15
_symmetry_cell_setting 'monoclinic'
loop_
_space_group_symop_operation_xyz
x,y,z
-x,y,1/2-z
-x,-y,-z
x,-y,1/2+z
1/2+x,1/2+y,z
1/2-x,1/2+y,1/2-z
1/2-x,1/2-y,-z
1/2+x,1/2-y,1/2+z
loop_
_atom_site_type_symbol
_atom_site_label
_atom_site_fract_x
_atom_site_fract_y
_atom_site_fract_z
Si Si1 0.259062 0.310551 0.609894
Si Si2 0.808435 0.099911 0.280751
Si Si3 0.668029 0.961170 0.276495
Si Si4 0.720807 0.346575 0.101323
Si Si5 0.423283 0.438000 0.075765
Si Si6 0.645083 0.685417 0.049132
O O1 0.242154 0.370112 0.691856
O O2 0.204345 0.336302 0.514742
O O3 0.186072 0.233340 0.640978
O O4 0.453593 0.298682 0.576048
O O5 0.801790 0.163681 0.354938
O O6 0.000000 0.081616 0.250000
O O7 0.708818 0.031975 0.328483
O O8 0.500000 0.965647 0.250000
O O9 0.678822 0.891384 0.338736
O O10 0.804096 0.963041 0.174743
O O11 0.562831 0.393342 0.106170
O O12 0.500000 0.500000 0.000000
O O13 0.335155 0.383024 0.019948
O O14 0.750000 0.750000 0.000000
#
# Coordination Sequence:
#
# PCOD9285196 Si02
#       6
#     8   8   8   8   8   8
#     4   9  21  41  68  95 128 176 225 275 344 408
#     4  10  21  44  68  88 133 179 222 269 342 417
#     4  12  26  41  65 104 134 178 232 291 337 402
#     4  10  21  41  68  93 129 173 223 280 337 414
#     4  11  23  45  69  94 135 186 234 268 355 426
#     4  10  22  38  65 101 130 174 219 285 341 410
#
# _framework density 21.572666999999999
#
# number of rings (size 3 to 8) (size 9 to 14) (size 15 to 20)
#    0.000    1.667    0.000    5.500    4.667    0.667 
#   12.000    4.167    0.000    0.000    0.000    0.000 
#    0.000    0.000    0.000    0.000    0.000    0.000 
#
# Total GULP energy -134170.253584 kJ/mol
# GULP energy per Si atom -5590.427233 kJ/mol
# Density = 2.152357 g / cm^3
# Si number density = 21.572667 Si / 1000 Ang^3
#
#
#
# Elastic Constant Matrix: (Units=GPa)
#
#
# Indices 1 2 3 4 5 6 
#
# 1 48.1818 46.1606 27.3637 0.0000 10.7997 0.0000
# 2 46.1606 135.8910 37.3762 0.0000 2.1796 0.0000
# 3 27.3637 37.3762 56.7736 0.0000 12.8329 0.0000
# 4 0.0000 0.0000 0.0000 35.5814 0.0000 5.0774
# 5 10.7997 2.1796 12.8329 0.0000 23.0334 0.0000
# 6 0.0000 0.0000 0.0000 5.0774 0.0000 33.9520
#
#
#
# Elastic Compliance Matrix: (Units=1/GPa)
#
#
# Indices 1 2 3 4 5 6 
#
# 1 0.038564 -0.010434 -0.008985 0.000000 -0.012088 0.000000
# 2 -0.010434 0.011970 -0.004234 0.000000 0.006119 0.000000
# 3 -0.008985 -0.004234 0.027102 0.000000 -0.010486 0.000000
# 4 0.000000 0.000000 0.000000 0.028717 0.000000 -0.004295
# 5 -0.012088 0.006119 -0.010486 0.000000 0.054346 0.000000
# 6 0.000000 0.000000 0.000000 -0.004295 0.000000 0.030096
#
#
# Mechanical properties :
#
#
# Convention : Reuss Voigt Hill
#
# Bulk Modulus (GPa) = 32.97243 51.40527 42.18885
# Shear Modulus (GPa) = 20.14409 27.17641 23.66025
#
# Velocity S-wave (km/s) = 3.05909 3.55316 3.31534
# Velocity P-wave (km/s) = 5.27209 6.38074 5.85273
#
# Compressibility (1/GPa) = 0.03032837
#
# Stress axis : x y z
#
# Youngs Moduli (GPa) = 25.93100 83.54436 36.89743
#
# Poissons Ratio (x) = 0.87174 0.33153
# Poissons Ratio (y) = 0.27058 0.15622
# Poissons Ratio (z) = 0.23300 0.35372
#
# Static dielectric constant tensor:
#      x y z
#    x 1.772520 0.000000 -0.001600 
#    y 0.000000 1.786080 0.000000 
#    z -0.001600 0.000000 1.831260 
# 
# From -- ./inp_files/135901.got.cif
#   From: 2010.05.17/outbox.cif.g08.bks.cpg/sg15_68_cif.got.tgz:135901.got - 2010.06.03 18:47:42.
