data_PCOD9285444
_publ_section_title
;
Structure prediction by ZEFSAII (Michael W. Deem and Ramdas Pophale) SiO2 
 PCOD9285444
Probable space group: C 2/C
;
_chemical_formula_sum "Si O2"
_cell_formula_units_Z 60
_cell_length_a 17.349158
_cell_length_b 14.427622
_cell_length_c 13.008686
_cell_angle_alpha 90.000000
_cell_angle_beta 108.867069
_cell_angle_gamma 90.000000
_cell_volume 3081.217044
_symmetry_space_group_name_H-M "C 2/C"
_symmetry_group_IT_number 15
_symmetry_cell_setting 'monoclinic'
loop_
_space_group_symop_operation_xyz
x,y,z
-x,y,1/2-z
-x,-y,-z
x,-y,1/2+z
1/2+x,1/2+y,z
1/2-x,1/2+y,1/2-z
1/2-x,1/2-y,-z
1/2+x,1/2-y,1/2+z
loop_
_atom_site_type_symbol
_atom_site_label
_atom_site_fract_x
_atom_site_fract_y
_atom_site_fract_z
Si Si1 0.896666 0.920155 0.853098
Si Si2 0.396831 0.225943 0.390424
Si Si3 0.183836 0.910787 0.076359
Si Si4 0.373094 0.706042 0.660009
Si Si5 0.500000 0.455390 0.250000
Si Si6 0.253068 0.592315 0.127036
Si Si7 0.785864 0.387430 0.321751
Si Si8 0.072323 0.274450 0.032950
O O1 0.827070 0.895137 0.739322
O O2 0.929182 0.826844 0.916426
O O3 0.854979 0.989154 0.917130
O O4 0.965205 0.979859 0.824576
O O5 0.380164 0.330382 0.422842
O O6 0.403996 0.234530 0.270476
O O7 0.318588 0.165322 0.384580
O O8 0.480906 0.191483 0.474308
O O9 0.255736 0.895796 0.191108
O O10 0.213688 0.900754 0.973840
O O11 0.427587 0.612476 0.682490
O O12 0.281691 0.675576 0.649197
O O13 0.384706 0.759297 0.559164
O O14 0.219262 0.489332 0.132455
O O15 0.872795 0.341547 0.375138
#
# Coordination Sequence:
#
# PCOD9285444 Si02
#       8
#     8   8   8   8   4   8   8   8
#     4  11  24  37  65  95 122 154 203 250 323 373
#     4  11  23  38  61  90 124 163 207 247 309 370
#     4  10  21  42  61  86 125 159 196 260 315 372
#     4  11  20  42  62  92 127 154 197 264 318 356
#     4  12  20  40  64  96 128 144 196 266 308 374
#     4  11  23  42  63  84 122 174 203 249 308 363
#     4  10  23  41  60  90 121 159 216 248 297 369
#     4  12  24  38  62  92 124 163 203 258 298 368
#
# _framework density 19.472825
#
# number of rings (size 3 to 8) (size 9 to 14) (size 15 to 20)
#    0.000    1.067    5.333    3.200    1.867    3.733 
#    0.000    0.000    0.000    0.000    0.000    0.000 
#    0.000    0.000    0.000    0.000    0.000    0.000 
#
# Total GULP energy -167806.560709 kJ/mol
# GULP energy per Si atom -5593.552024 kJ/mol
# Density = 1.942850 g / cm^3
# Si number density = 19.472825 Si / 1000 Ang^3
#
#
#
# Elastic Constant Matrix: (Units=GPa)
#
#
# Indices 1 2 3 4 5 6 
#
# 1 65.5389 5.7250 41.8240 0.0000 3.5002 0.0000
# 2 5.7250 10.2231 12.6955 0.0000 2.9751 0.0000
# 3 41.8240 12.6955 68.6244 0.0000 -5.6516 0.0000
# 4 0.0000 0.0000 0.0000 13.7071 0.0000 -7.6040
# 5 3.5002 2.9751 -5.6516 0.0000 30.8432 0.0000
# 6 0.0000 0.0000 0.0000 -7.6040 0.0000 3.1154
#
#
#
# Elastic Compliance Matrix: (Units=1/GPa)
#
#
# Indices 1 2 3 4 5 6 
#
# 1 0.026816 0.010707 -0.018946 0.000000 -0.007548 0.000000
# 2 0.010707 0.140473 -0.034246 0.000000 -0.021040 0.000000
# 3 -0.018946 -0.034246 0.033408 0.000000 0.011575 0.000000
# 4 0.000000 0.000000 0.000000 -0.206076 0.000000 -0.502983
# 5 -0.007548 -0.021040 0.011575 0.000000 0.037429 0.000000
# 6 0.000000 0.000000 0.000000 -0.502983 0.000000 -0.906679
#
#
# Mechanical properties :
#
#
# Convention : Reuss Voigt Hill
#
# Bulk Modulus (GPa) = 8.64097 29.43060 19.03578
# Shear Modulus (GPa) = -6.65705 15.14258 4.24276
#
# Velocity S-wave (km/s) = -1.85096 2.79162 1.47768
# Velocity P-wave (km/s) = 0.34784 5.05345 3.56485
#
# Compressibility (1/GPa) = 0.11572774
#
# Stress axis : x y z
#
# Youngs Moduli (GPa) = 37.29048 7.11880 29.93313
#
# Poissons Ratio (x) = -0.07622 0.56712
# Poissons Ratio (y) = -0.39928 1.02509
# Poissons Ratio (z) = 0.70651 0.24379
#
# Static dielectric constant tensor:
#      x y z
#    x 1.667440 0.000000 0.012780 
#    y 0.000000 1.663650 0.000000 
#    z 0.012780 0.000000 1.681140 
# 
# From -- ./inp_files/105760.got.cif
#   From: 2010.05.17/outbox.cif.g08.bks.cpg/sg15_53_cif.got.tgz:105760.got - 2010.06.03 18:47:42.
