data_PCOD9285663
_publ_section_title
;
Structure prediction by ZEFSAII (Michael W. Deem and Ramdas Pophale) SiO2 
 PCOD9285663
Probable space group: C 2/C
;
_chemical_formula_sum "Si O2"
_cell_formula_units_Z 60
_cell_length_a 14.713226
_cell_length_b 9.091695
_cell_length_c 19.824457
_cell_angle_alpha 90.000000
_cell_angle_beta 86.109399
_cell_angle_gamma 90.000000
_cell_volume 2645.769736
_symmetry_space_group_name_H-M "C 2/C"
_symmetry_group_IT_number 15
_symmetry_cell_setting 'monoclinic'
loop_
_space_group_symop_operation_xyz
x,y,z
-x,y,1/2-z
-x,-y,-z
x,-y,1/2+z
1/2+x,1/2+y,z
1/2-x,1/2+y,1/2-z
1/2-x,1/2-y,-z
1/2+x,1/2-y,1/2+z
loop_
_atom_site_type_symbol
_atom_site_label
_atom_site_fract_x
_atom_site_fract_y
_atom_site_fract_z
Si Si1 0.866886 0.049649 0.550439
Si Si2 0.274084 0.162462 0.832358
Si Si3 0.710593 0.368149 0.056031
Si Si4 0.478862 0.047716 0.828963
Si Si5 0.135978 0.247166 0.370211
Si Si6 0.692283 0.563479 0.241035
Si Si7 0.013683 0.234564 0.611387
Si Si8 0.000000 0.070372 0.750000
O O1 0.789556 0.113241 0.603518
O O2 0.822210 0.015401 0.480305
O O3 0.890772 0.885880 0.577606
O O4 0.952737 0.157655 0.556369
O O5 0.376693 0.108866 0.838945
O O6 0.242379 0.079599 0.765555
O O7 0.267007 0.335676 0.818921
O O8 0.795165 0.367171 0.102492
O O9 0.619631 0.304030 0.094818
O O10 0.750000 0.250000 0.000000
O O11 0.500000 0.005195 0.750000
O O12 0.493027 0.908431 0.877165
O O13 0.547796 0.174934 0.846086
O O14 0.187543 0.163840 0.307894
O O15 0.588558 0.524396 0.229256
O O16 0.980559 0.163650 0.683866
#
# Coordination Sequence:
#
# PCOD9285663 Si02
#       8
#     8   8   8   8   8   8   8   4
#     4  10  23  45  66  93 125 177 231 266 320 391
#     4  11  24  39  66  93 137 169 217 266 334 395
#     4  10  23  46  70  89 128 182 229 270 322 384
#     4  12  24  37  62 102 138 166 209 270 340 394
#     4  10  21  42  65  93 132 174 217 266 335 390
#     4  11  23  39  63  96 134 173 209 269 337 399
#     4  12  24  41  69  99 135 171 222 274 328 398
#     4  12  24  40  66 104 134 172 216 268 344 396
#
# _framework density 22.677709
#
# number of rings (size 3 to 8) (size 9 to 14) (size 15 to 20)
#    0.000    1.067    4.667    3.600    5.600    0.000 
#    0.000    6.667    0.000    0.000    0.000    0.000 
#    0.000    0.000    0.000    0.000    0.000    0.000 
#
# Total GULP energy -167802.027362 kJ/mol
# GULP energy per Si atom -5593.400912 kJ/mol
# Density = 2.262609 g / cm^3
# Si number density = 22.677709 Si / 1000 Ang^3
#
#
#
# Elastic Constant Matrix: (Units=GPa)
#
#
# Indices 1 2 3 4 5 6 
#
# 1 116.6751 23.3034 5.4558 0.0000 8.0883 0.0000
# 2 23.3034 67.8467 4.0678 0.0000 -3.7005 0.0000
# 3 5.4558 4.0678 31.3165 0.0000 -2.8304 0.0000
# 4 0.0000 0.0000 0.0000 16.6200 0.0000 -3.8604
# 5 8.0883 -3.7005 -2.8304 0.0000 36.6606 0.0000
# 6 0.0000 0.0000 0.0000 -3.8604 0.0000 30.7148
#
#
#
# Elastic Compliance Matrix: (Units=1/GPa)
#
#
# Indices 1 2 3 4 5 6 
#
# 1 0.009475 -0.003306 -0.001450 0.000000 -0.002536 0.000000
# 2 -0.003306 0.016076 -0.001309 0.000000 0.002251 0.000000
# 3 -0.001450 -0.001309 0.032599 0.000000 0.002705 0.000000
# 4 0.000000 0.000000 0.000000 0.061978 0.000000 0.007790
# 5 -0.002536 0.002251 0.002705 0.000000 0.028273 0.000000
# 6 0.000000 0.000000 0.000000 0.007790 0.000000 0.033537
#
#
# Mechanical properties :
#
#
# Convention : Reuss Voigt Hill
#
# Bulk Modulus (GPa) = 21.72975 31.27692 26.50333
# Shear Modulus (GPa) = 23.87699 28.99982 26.43841
#
# Velocity S-wave (km/s) = 3.24834 3.57988 3.41813
# Velocity P-wave (km/s) = 4.86536 5.55961 5.22403
#
# Compressibility (1/GPa) = 0.04601986
#
# Stress axis : x y z
#
# Youngs Moduli (GPa) = 105.54461 62.20554 30.67561
#
# Poissons Ratio (x) = 0.20563 0.04449
# Poissons Ratio (y) = 0.34889 0.04015
# Poissons Ratio (z) = 0.15309 0.08141
#
# Static dielectric constant tensor:
#      x y z
#    x 1.810130 0.000000 0.018690 
#    y 0.000000 1.839040 0.000000 
#    z 0.018690 0.000000 1.885860 
# 
# From -- ./inp_files/272760.got.cif
#   From: 2010.05.17/outbox.cif.g08.bks.cpg/sg15_137_cif.got.tgz:272760.got - 2010.06.03 18:47:42.
