data_PCOD9285488
_publ_section_title
;
Structure prediction by ZEFSAII (Michael W. Deem and Ramdas Pophale) SiO2 
 PCOD9285488
Probable space group: C 2/C
;
_chemical_formula_sum "Si O2"
_cell_formula_units_Z 60
_cell_length_a 14.334809
_cell_length_b 16.894362
_cell_length_c 11.709306
_cell_angle_alpha 90.000000
_cell_angle_beta 61.018070
_cell_angle_gamma 90.000000
_cell_volume 2480.618711
_symmetry_space_group_name_H-M "C 2/C"
_symmetry_group_IT_number 15
_symmetry_cell_setting 'monoclinic'
loop_
_space_group_symop_operation_xyz
x,y,z
-x,y,1/2-z
-x,-y,-z
x,-y,1/2+z
1/2+x,1/2+y,z
1/2-x,1/2+y,1/2-z
1/2-x,1/2-y,-z
1/2+x,1/2-y,1/2+z
loop_
_atom_site_type_symbol
_atom_site_label
_atom_site_fract_x
_atom_site_fract_y
_atom_site_fract_z
Si Si1 0.710959 0.554556 0.745562
Si Si2 0.322107 0.654273 0.531264
Si Si3 0.685824 0.826180 0.491359
Si Si4 0.000000 0.915545 0.250000
Si Si5 0.211268 0.801677 0.696852
Si Si6 0.582159 0.973993 0.605560
Si Si7 0.620011 0.919865 0.902501
Si Si8 0.046437 0.196085 0.503142
O O1 0.687827 0.574706 0.890093
O O2 0.757393 0.632634 0.651421
O O3 0.600876 0.537709 0.743076
O O4 0.800847 0.488130 0.690914
O O5 0.230464 0.714269 0.632841
O O6 0.325459 0.650061 0.393330
O O7 0.434362 0.689238 0.507314
O O8 0.750000 0.750000 0.500000
O O9 0.664890 0.903595 0.581770
O O10 0.574891 0.782769 0.531423
O O11 0.958230 0.861977 0.382819
O O12 0.326693 0.837626 0.658841
O O13 0.135535 0.814442 0.850301
O O14 0.500000 0.993316 0.750000
O O15 0.501131 0.934114 0.561709
O O16 0.626102 0.055957 0.532203
#
# Coordination Sequence:
#
# PCOD9285488 Si02
#       8
#     8   8   8   4   8   8   8   8
#     4  10  21  42  62  91 134 161 219 273 339 394
#     4  10  23  41  63  94 129 170 219 277 328 407
#     4  11  21  35  64  98 129 167 207 278 340 395
#     4  10  22  38  60  96 126 164 208 282 332 400
#     4  11  23  42  66  91 128 177 219 268 334 399
#     4  10  24  40  64  95 133 170 220 271 335 397
#     4  10  24  43  63  95 126 176 225 270 328 405
#     4  11  22  39  63  95 131 161 220 269 336 401
#
# _framework density 24.187512000000002
#
# number of rings (size 3 to 8) (size 9 to 14) (size 15 to 20)
#    0.000    1.600    2.667    1.200    4.667    0.000 
#    2.400    1.333    0.000    0.000    0.000    0.000 
#    0.000    0.000    0.000    0.000    0.000    0.000 
#
# Total GULP energy -167365.514624 kJ/mol
# GULP energy per Si atom -5578.850487 kJ/mol
# Density = 2.413246 g / cm^3
# Si number density = 24.187512 Si / 1000 Ang^3
#
#
#
# Elastic Constant Matrix: (Units=GPa)
#
#
# Indices 1 2 3 4 5 6 
#
# 1 71.8029 -0.6102 6.6092 0.0000 9.9377 0.0000
# 2 -0.6102 58.2664 27.5758 0.0000 -6.3009 0.0000
# 3 6.6092 27.5758 138.6068 0.0000 2.5362 0.0000
# 4 0.0000 0.0000 0.0000 -1.4484 0.0000 -6.4856
# 5 9.9377 -6.3009 2.5362 0.0000 33.8211 0.0000
# 6 0.0000 0.0000 0.0000 -6.4856 0.0000 29.8809
#
#
#
# Elastic Compliance Matrix: (Units=1/GPa)
#
#
# Indices 1 2 3 4 5 6 
#
# 1 0.014570 -0.000015 -0.000614 0.000000 -0.004238 0.000000
# 2 -0.000015 0.019452 -0.003941 0.000000 0.003924 0.000000
# 3 -0.000614 -0.003941 0.008049 0.000000 -0.001157 0.000000
# 4 0.000000 0.000000 0.000000 -0.350132 0.000000 -0.075996
# 5 -0.004238 0.003924 -0.001157 0.000000 0.031630 0.000000
# 6 0.000000 0.000000 0.000000 -0.075996 0.000000 0.016971
#
#
# Mechanical properties :
#
#
# Convention : Reuss Voigt Hill
#
# Bulk Modulus (GPa) = 30.36695 37.31395 33.84045
# Shear Modulus (GPa) = -20.89061 28.12414 3.61677
#
# Velocity S-wave (km/s) = -2.94206 3.41362 1.22415
# Velocity P-wave (km/s) = 1.02036 5.56754 4.00241
#
# Compressibility (1/GPa) = 0.03293054
#
# Stress axis : x y z
#
# Youngs Moduli (GPa) = 68.63438 51.40891 124.23621
#
# Poissons Ratio (x) = 0.00077 0.07631
# Poissons Ratio (y) = 0.00103 0.48962
# Poissons Ratio (z) = 0.04216 0.20260
#
# Static dielectric constant tensor:
#      x y z
#    x 2.013840 0.000000 0.064540 
#    y 0.000000 1.926560 0.000000 
#    z 0.064540 0.000000 1.968590 
# 
# From -- ./inp_files/99738.got.cif
#   From: 2010.05.17/outbox.cif.g08.bks.cpg/sg15_50_cif.got.tgz:99738.got - 2010.06.03 18:47:42.
