data_PCOD9285161
_publ_section_title
;
Structure prediction by ZEFSAII (Michael W. Deem and Ramdas Pophale) SiO2 
 PCOD9285161
Probable space group: C 2/C
;
_chemical_formula_sum "Si O2"
_cell_formula_units_Z 60
_cell_length_a 12.536137
_cell_length_b 18.054038
_cell_length_c 17.774159
_cell_angle_alpha 90.000000
_cell_angle_beta 143.542082
_cell_angle_gamma 90.000000
_cell_volume 2390.470218
_symmetry_space_group_name_H-M "C 2/C"
_symmetry_group_IT_number 15
_symmetry_cell_setting 'monoclinic'
loop_
_space_group_symop_operation_xyz
x,y,z
-x,y,1/2-z
-x,-y,-z
x,-y,1/2+z
1/2+x,1/2+y,z
1/2-x,1/2+y,1/2-z
1/2-x,1/2-y,-z
1/2+x,1/2-y,1/2+z
loop_
_atom_site_type_symbol
_atom_site_label
_atom_site_fract_x
_atom_site_fract_y
_atom_site_fract_z
Si Si1 0.262848 0.699623 0.333401
Si Si2 0.050802 0.416569 0.004971
Si Si3 0.517479 0.402995 0.637381
Si Si4 0.368077 0.229941 0.400641
Si Si5 0.778614 0.606363 0.057689
Si Si6 0.380445 0.433521 0.292025
Si Si7 0.300517 0.949031 0.147999
Si Si8 0.500000 0.278058 0.750000
O O1 0.326404 0.623366 0.329838
O O2 0.450776 0.737585 0.462716
O O3 0.158291 0.738671 0.204913
O O4 0.183493 0.677532 0.369290
O O5 0.095468 0.405311 0.942677
O O6 0.238374 0.399560 0.153788
O O7 0.000000 0.500000 0.000000
O O8 0.894333 0.357835 0.934323
O O9 0.571411 0.481643 0.703684
O O10 0.341053 0.415302 0.489267
O O11 0.480664 0.334112 0.669722
O O12 0.188444 0.260763 0.338229
O O13 0.570954 0.606246 0.912380
O O14 0.802966 0.534335 0.123063
O O15 0.277679 0.438837 0.313301
O O16 0.500000 0.919490 0.250000
#
# Coordination Sequence:
#
# PCOD9285161 Si02
#       8
#     8   8   8   8   8   8   8   4
#     4  11  24  51  70 101 145 194 255 296 372 444
#     4  12  27  44  70 113 143 183 250 308 373 449
#     4  10  21  41  67  99 143 193 224 302 376 441
#     4  11  29  46  76 106 146 200 248 315 365 451
#     4  11  24  43  71  96 147 194 231 309 363 434
#     4  11  22  41  66 107 141 187 236 293 375 444
#     4  11  22  35  65 109 138 189 235 289 366 439
#     4  10  24  44  68 100 144 186 232 300 382 416
#
# _framework density 25.099664000000001
#
# number of rings (size 3 to 8) (size 9 to 14) (size 15 to 20)
#    0.000    1.067    2.667    3.600   13.067    2.667 
#    1.200    0.000    0.000    0.000    0.000    0.000 
#    0.000    0.000    0.000    0.000    0.000    0.000 
#
# Total GULP energy -167975.144347 kJ/mol
# GULP energy per Si atom -5599.171478 kJ/mol
# Density = 2.504254 g / cm^3
# Si number density = 25.099664 Si / 1000 Ang^3
#
#
#
# Elastic Constant Matrix: (Units=GPa)
#
#
# Indices 1 2 3 4 5 6 
#
# 1 125.4747 9.4712 39.3618 -0.0001 7.8950 -0.0001
# 2 9.4712 58.9034 35.9773 0.0000 8.5513 0.0000
# 3 39.3618 35.9773 169.7012 0.0005 2.9420 0.0002
# 4 -0.0001 0.0000 0.0005 25.8879 0.0001 6.4049
# 5 7.8950 8.5513 2.9420 0.0001 37.8949 0.0000
# 6 -0.0001 0.0000 0.0002 6.4049 0.0000 6.3527
#
#
#
# Elastic Compliance Matrix: (Units=1/GPa)
#
#
# Indices 1 2 3 4 5 6 
#
# 1 0.008698 0.000067 -0.002003 0.000000 -0.001672 0.000000
# 2 0.000067 0.020156 -0.004215 0.000000 -0.004235 0.000000
# 3 -0.002003 -0.004215 0.007237 0.000000 0.000807 0.000000
# 4 0.000000 0.000000 0.000000 0.051466 0.000000 -0.051889
# 5 -0.001672 -0.004235 0.000807 0.000000 0.027630 0.000000
# 6 0.000000 0.000000 0.000000 -0.051889 0.000000 0.209729
#
#
# Mechanical properties :
#
#
# Convention : Reuss Voigt Hill
#
# Bulk Modulus (GPa) = 42.03577 58.18887 50.11232
# Shear Modulus (GPa) = 14.48659 31.97836 23.23247
#
# Velocity S-wave (km/s) = 2.40503 3.57326 3.04568
# Velocity P-wave (km/s) = 4.94935 6.34490 5.69007
#
# Compressibility (1/GPa) = 0.02378926
#
# Stress axis : x y z
#
# Youngs Moduli (GPa) = 114.96726 49.61411 138.18011
#
# Poissons Ratio (x) = -0.00334 0.27675
# Poissons Ratio (y) = -0.00775 0.58247
# Poissons Ratio (z) = 0.23026 0.20914
#
# Static dielectric constant tensor:
#      x y z
#    x 2.045600 0.000000 0.004120 
#    y 0.000000 2.088780 0.000000 
#    z 0.004120 0.000000 1.983350 
# 
# From -- ./inp_files/200538.got.cif
#   From: 2010.05.17/outbox.cif.g08.bks.cpg/sg15_101_cif.got.tgz:200538.got - 2010.06.03 18:47:42.
