data_PCOD9285380
_publ_section_title
;
Structure prediction by ZEFSAII (Michael W. Deem and Ramdas Pophale) SiO2 
 PCOD9285380
Probable space group: C 2/C
;
_chemical_formula_sum "Si O2"
_cell_formula_units_Z 52
_cell_length_a 14.591418
_cell_length_b 34.782448
_cell_length_c 5.039769
_cell_angle_alpha 90.000000
_cell_angle_beta 72.376552
_cell_angle_gamma 90.000000
_cell_volume 2437.763868
_symmetry_space_group_name_H-M "C 2/C"
_symmetry_group_IT_number 15
_symmetry_cell_setting 'monoclinic'
loop_
_space_group_symop_operation_xyz
x,y,z
-x,y,1/2-z
-x,-y,-z
x,-y,1/2+z
1/2+x,1/2+y,z
1/2-x,1/2+y,1/2-z
1/2-x,1/2-y,-z
1/2+x,1/2-y,1/2+z
loop_
_atom_site_type_symbol
_atom_site_label
_atom_site_fract_x
_atom_site_fract_y
_atom_site_fract_z
Si Si1 0.500000 0.119619 0.750000
Si Si2 0.794823 0.475942 0.988068
Si Si3 0.635599 0.666268 0.722153
Si Si4 0.685604 0.405288 0.836817
Si Si5 0.307524 0.844302 0.451012
Si Si6 0.000000 0.127800 0.250000
Si Si7 0.264750 0.721976 0.229705
Si Si8 0.500000 0.935353 0.750000
O O1 0.589554 0.146264 0.752109
O O2 0.517940 0.091886 0.486037
O O3 0.780781 0.512362 0.805516
O O4 0.722410 0.444075 0.935693
O O5 0.904050 0.460620 0.868917
O O6 0.667686 0.625281 0.582959
O O7 0.722587 0.674469 0.851078
O O8 0.643223 0.696539 0.469340
O O9 0.542361 0.655812 0.981868
O O10 0.767027 0.385114 0.586981
O O11 0.585885 0.400345 0.766377
O O12 0.313554 0.812300 0.675232
O O13 0.250000 0.750000 0.500000
O O14 0.250000 0.750000 0.000000
#
# Coordination Sequence:
#
# PCOD9285380 Si02
#       8
#     4   8   8   8   8   4   8   4
#     4  12  24  39  71 102 132 176 238 278 330 404
#     4  12  26  43  67  99 141 182 223 280 354 421
#     4  10  21  41  72 101 130 180 235 287 344 406
#     4  10  22  42  66  99 131 180 231 288 337 405
#     4  10  22  40  69  95 133 180 228 277 337 404
#     4  10  22  40  73 100 132 175 246 299 334 402
#     4  11  22  41  68  98 141 183 220 281 353 414
#     4  12  24  43  66 100 138 179 228 287 338 412
#
# _framework density 21.331022999999998
#
# number of rings (size 3 to 8) (size 9 to 14) (size 15 to 20)
#    0.000    1.231    3.077    2.769    6.462    0.000 
#    0.000    1.538    6.769    0.000    0.000    0.000 
#    0.000    0.000    0.000    0.000    0.000    0.000 
#
# Total GULP energy -144790.041609 kJ/mol
# GULP energy per Si atom -5568.847754 kJ/mol
# Density = 2.128247 g / cm^3
# Si number density = 21.331023 Si / 1000 Ang^3
#
#
#
# Elastic Constant Matrix: (Units=GPa)
#
#
# Indices 1 2 3 4 5 6 
#
# 1 102.0496 33.5371 17.5602 0.0000 -11.3938 0.0000
# 2 33.5371 67.9070 -15.9874 0.0000 1.4220 0.0000
# 3 17.5602 -15.9874 61.6722 0.0000 10.3713 0.0000
# 4 0.0000 0.0000 0.0000 36.8389 0.0000 13.4773
# 5 -11.3938 1.4220 10.3713 0.0000 30.3916 0.0000
# 6 0.0000 0.0000 0.0000 13.4773 0.0000 15.2478
#
#
#
# Elastic Compliance Matrix: (Units=1/GPa)
#
#
# Indices 1 2 3 4 5 6 
#
# 1 0.015540 -0.009876 -0.008532 0.000000 0.009200 0.000000
# 2 -0.009876 0.022106 0.009908 0.000000 -0.008118 0.000000
# 3 -0.008532 0.009908 0.023157 0.000000 -0.011565 0.000000
# 4 0.000000 0.000000 0.000000 0.040118 0.000000 -0.035459
# 5 0.009200 -0.008118 -0.011565 0.000000 0.040679 0.000000
# 6 0.000000 0.000000 0.000000 -0.035459 0.000000 0.096925
#
#
# Mechanical properties :
#
#
# Convention : Reuss Voigt Hill
#
# Bulk Modulus (GPa) = 22.82951 33.53873 28.18412
# Shear Modulus (GPa) = 18.50980 29.59693 24.05336
#
# Velocity S-wave (km/s) = 2.94894 3.72897 3.36165
# Velocity P-wave (km/s) = 4.72448 5.85640 5.32062
#
# Compressibility (1/GPa) = 0.04380295
#
# Stress axis : x y z
#
# Youngs Moduli (GPa) = 64.34965 45.23630 43.18270
#
# Poissons Ratio (x) = 0.44676 0.36844
# Poissons Ratio (y) = 0.63552 -0.42785
# Poissons Ratio (z) = 0.54904 -0.44820
#
# Static dielectric constant tensor:
#      x y z
#    x 2.084190 0.000000 0.009870 
#    y 0.000000 1.766650 0.000000 
#    z 0.009870 0.000000 2.261560 
# 
# From -- ./inp_files/9037.got.cif
#   From: 2010.05.17/outbox.cif.g08.bks.cpg/sg15_5_cif.got.tgz:9037.got - 2010.06.03 18:47:42.
