data_PCOD9285023
_publ_section_title
;
Structure prediction by ZEFSAII (Michael W. Deem and Ramdas Pophale) SiO2 
 PCOD9285023
Probable space group: C 2/C
;
_chemical_formula_sum "Si O2"
_cell_formula_units_Z 56
_cell_length_a 16.738056
_cell_length_b 13.693558
_cell_length_c 10.901802
_cell_angle_alpha 90.000000
_cell_angle_beta 101.168110
_cell_angle_gamma 90.000000
_cell_volume 2451.413416
_symmetry_space_group_name_H-M "C 2/C"
_symmetry_group_IT_number 15
_symmetry_cell_setting 'monoclinic'
loop_
_space_group_symop_operation_xyz
x,y,z
-x,y,1/2-z
-x,-y,-z
x,-y,1/2+z
1/2+x,1/2+y,z
1/2-x,1/2+y,1/2-z
1/2-x,1/2-y,-z
1/2+x,1/2-y,1/2+z
loop_
_atom_site_type_symbol
_atom_site_label
_atom_site_fract_x
_atom_site_fract_y
_atom_site_fract_z
Si Si1 0.871909 0.320170 0.985844
Si Si2 0.064211 0.014859 0.176375
Si Si3 0.775082 0.257593 0.194667
Si Si4 0.500539 0.658112 0.514415
Si Si5 0.656726 0.754878 0.018122
Si Si6 0.743687 0.476250 0.250881
Si Si7 0.840169 0.469038 0.534584
O O1 0.799764 0.313785 0.862012
O O2 0.891296 0.431332 0.031246
O O3 0.832376 0.267906 0.093104
O O4 0.948741 0.256912 0.968679
O O5 0.843527 0.025186 0.259084
O O6 0.000000 0.970774 0.250000
O O7 0.058699 0.931012 0.071701
O O8 0.026709 0.117095 0.124759
O O9 0.828556 0.242722 0.331999
O O10 0.734611 0.363721 0.205750
O O11 0.410810 0.677362 0.547509
O O12 0.623149 0.861237 0.968311
O O13 0.750000 0.750000 0.000000
O O14 0.782956 0.472877 0.396939
O O15 0.794008 0.522374 0.151643
#
# Coordination Sequence:
#
# PCOD9285023 Si02
#       7
#     8   8   8   8   8   8   8
#     4  10  21  41  66  95 127 168 224 262 331 387
#     4  11  26  39  62  94 133 173 212 280 341 391
#     4   9  21  39  64  91 125 169 215 269 311 405
#     4  11  26  42  63  97 132 170 219 281 334 395
#     4  11  25  42  63  95 134 171 220 266 337 392
#     4  10  21  43  66  96 132 167 227 263 332 394
#     4  10  24  41  71  97 128 180 218 276 319 406
#
# _framework density 22.843964
#
# number of rings (size 3 to 8) (size 9 to 14) (size 15 to 20)
#    0.000    1.714    1.429    0.857   14.000    0.571 
#    0.000    0.000    0.000    1.714    0.000    0.000 
#    0.000    0.000    0.000    0.000    0.000    0.000 
#
# Total GULP energy -156123.181431 kJ/mol
# GULP energy per Si atom -5575.827908 kJ/mol
# Density = 2.279197 g / cm^3
# Si number density = 22.843964 Si / 1000 Ang^3
#
#
#
# Elastic Constant Matrix: (Units=GPa)
#
#
# Indices 1 2 3 4 5 6 
#
# 1 63.8994 6.0713 3.8983 0.0000 6.5650 0.0000
# 2 6.0713 81.6306 -3.8502 0.0000 7.1476 0.0000
# 3 3.8983 -3.8502 76.3959 0.0000 -1.2971 0.0000
# 4 0.0000 0.0000 0.0000 22.4264 0.0000 3.0865
# 5 6.5650 7.1476 -1.2971 0.0000 12.6986 0.0000
# 6 0.0000 0.0000 0.0000 3.0865 0.0000 27.7322
#
#
#
# Elastic Compliance Matrix: (Units=1/GPa)
#
#
# Indices 1 2 3 4 5 6 
#
# 1 0.016626 -0.000550 -0.001019 0.000000 -0.008390 0.000000
# 2 -0.000550 0.012925 0.000562 0.000000 -0.006933 0.000000
# 3 -0.001019 0.000562 0.013196 0.000000 0.001558 0.000000
# 4 0.000000 0.000000 0.000000 0.045284 0.000000 -0.005040
# 5 -0.008390 -0.006933 0.001558 0.000000 0.087147 0.000000
# 6 0.000000 0.000000 0.000000 -0.005040 0.000000 0.036620
#
#
# Mechanical properties :
#
#
# Convention : Reuss Voigt Hill
#
# Bulk Modulus (GPa) = 24.54979 26.01832 25.28405
# Shear Modulus (GPa) = 21.98864 26.95854 24.47359
#
# Velocity S-wave (km/s) = 3.10588 3.43901 3.27668
# Velocity P-wave (km/s) = 4.86128 5.21377 5.04060
#
# Compressibility (1/GPa) = 0.04073354
#
# Stress axis : x y z
#
# Youngs Moduli (GPa) = 60.14697 77.37073 75.77794
#
# Poissons Ratio (x) = 0.04255 0.07718
# Poissons Ratio (y) = 0.03308 -0.04257
# Poissons Ratio (z) = 0.06126 -0.04346
#
# Static dielectric constant tensor:
#      x y z
#    x 1.880180 0.000000 -0.027820 
#    y 0.000000 1.925140 0.000000 
#    z -0.027820 0.000000 2.040410 
# 
# From -- ./inp_files/97013.got.cif
#   From: 2010.05.17/outbox.cif.g08.bks.cpg/sg15_49_cif.got.tgz:97013.got - 2010.06.03 18:47:42.
