data_PCOD9285009
_publ_section_title
;
Structure prediction by ZEFSAII (Michael W. Deem and Ramdas Pophale) SiO2 
 PCOD9285009
Probable space group: C 2/C
;
_chemical_formula_sum "Si O2"
_cell_formula_units_Z 44
_cell_length_a 16.986050
_cell_length_b 8.246603
_cell_length_c 13.708807
_cell_angle_alpha 90.000000
_cell_angle_beta 95.752146
_cell_angle_gamma 90.000000
_cell_volume 1910.622331
_symmetry_space_group_name_H-M "C 2/C"
_symmetry_group_IT_number 15
_symmetry_cell_setting 'monoclinic'
loop_
_space_group_symop_operation_xyz
x,y,z
-x,y,1/2-z
-x,-y,-z
x,-y,1/2+z
1/2+x,1/2+y,z
1/2-x,1/2+y,1/2-z
1/2-x,1/2-y,-z
1/2+x,1/2-y,1/2+z
loop_
_atom_site_type_symbol
_atom_site_label
_atom_site_fract_x
_atom_site_fract_y
_atom_site_fract_z
Si Si1 0.851952 0.155267 0.694957
Si Si2 0.912521 0.189868 0.280801
Si Si3 0.570397 0.057714 0.577790
Si Si4 0.747474 0.000014 0.527103
Si Si5 0.000000 0.636145 0.250000
Si Si6 0.270507 0.186599 0.656167
O O1 0.931993 0.254765 0.691476
O O2 0.793634 0.228113 0.769463
O O3 0.876663 0.984089 0.748501
O O4 0.801943 0.131479 0.589045
O O5 0.922237 0.252266 0.392529
O O6 0.853809 0.317859 0.221091
O O7 0.000000 0.192356 0.250000
O O8 0.500000 0.000000 0.500000
O O9 0.655706 0.013090 0.545434
O O10 0.545031 0.966229 0.673802
O O11 0.751235 0.969757 0.411680
O O12 0.777423 0.834941 0.582250
#
# Coordination Sequence:
#
# PCOD9285009 Si02
#       6
#     8   8   8   8   4   8
#     4  11  23  44  69  98 130 174 222 269 326 388
#     4  11  22  41  66  97 134 170 217 270 329 382
#     4  12  25  42  65  99 132 173 219 272 333 390
#     4  10  22  40  66  95 126 174 214 260 334 386
#     4  12  26  46  68  96 136 170 224 276 324 394
#     4  10  21  41  66  93 133 169 213 270 320 392
#
# _framework density 23.029147999999999
#
# number of rings (size 3 to 8) (size 9 to 14) (size 15 to 20)
#    0.000    1.091    5.455    1.091    0.000    1.455 
#    0.000    3.636    0.000    0.000    0.000    0.000 
#    0.000    0.000    0.000    0.000    0.000    0.000 
#
# Total GULP energy -122920.198195 kJ/mol
# GULP energy per Si atom -5587.281736 kJ/mol
# Density = 2.297673 g / cm^3
# Si number density = 23.029148 Si / 1000 Ang^3
#
#
#
# Elastic Constant Matrix: (Units=GPa)
#
#
# Indices 1 2 3 4 5 6 
#
# 1 138.9864 6.7095 45.6024 0.0000 24.9169 0.0000
# 2 6.7095 48.2812 15.5575 0.0000 12.2586 0.0000
# 3 45.6024 15.5575 46.9365 0.0000 15.2849 0.0000
# 4 0.0000 0.0000 0.0000 14.8448 0.0000 13.0452
# 5 24.9169 12.2586 15.2849 0.0000 45.2122 0.0000
# 6 0.0000 0.0000 0.0000 13.0452 0.0000 -7.3345
#
#
#
# Elastic Compliance Matrix: (Units=1/GPa)
#
#
# Indices 1 2 3 4 5 6 
#
# 1 0.011152 0.002720 -0.010669 0.000000 -0.003276 0.000000
# 2 0.002720 0.024565 -0.009133 0.000000 -0.005072 0.000000
# 3 -0.010669 -0.009133 0.035934 0.000000 -0.003792 0.000000
# 4 0.000000 0.000000 0.000000 0.026283 0.000000 0.046747
# 5 -0.003276 -0.005072 -0.003792 0.000000 0.026580 0.000000
# 6 0.000000 0.000000 0.000000 0.046747 0.000000 -0.053196
#
#
# Mechanical properties :
#
#
# Convention : Reuss Voigt Hill
#
# Bulk Modulus (GPa) = 26.67757 41.10477 33.89117
# Shear Modulus (GPa) = 42.38076 21.63347 32.00711
#
# Velocity S-wave (km/s) = 4.29454 3.06828 3.73212
# Velocity P-wave (km/s) = 6.01666 5.51727 5.77236
#
# Compressibility (1/GPa) = 0.03748468
#
# Stress axis : x y z
#
# Youngs Moduli (GPa) = 89.67232 40.70878 27.82904
#
# Poissons Ratio (x) = -0.11073 0.29692
# Poissons Ratio (y) = -0.24392 0.25417
# Poissons Ratio (z) = 0.95675 0.37181
#
# Static dielectric constant tensor:
#      x y z
#    x 1.800980 0.000000 0.012130 
#    y 0.000000 1.982100 0.000000 
#    z 0.012130 0.000000 1.899750 
# 
# From -- ./inp_files/159440.got.cif
#   From: 2010.05.17/outbox.cif.g08.bks.cpg/sg15_80_cif.got.tgz:159440.got - 2010.06.03 18:47:42.
