data_PCOD9285848
_publ_section_title
;
Structure prediction by ZEFSAII (Michael W. Deem and Ramdas Pophale) SiO2 
 PCOD9285848
Probable space group: C 2/C
;
_chemical_formula_sum "Si O2"
_cell_formula_units_Z 60
_cell_length_a 9.106563
_cell_length_b 28.769026
_cell_length_c 11.178838
_cell_angle_alpha 90.000000
_cell_angle_beta 94.062067
_cell_angle_gamma 90.000000
_cell_volume 2921.352434
_symmetry_space_group_name_H-M "C 2/C"
_symmetry_group_IT_number 15
_symmetry_cell_setting 'monoclinic'
loop_
_space_group_symop_operation_xyz
x,y,z
-x,y,1/2-z
-x,-y,-z
x,-y,1/2+z
1/2+x,1/2+y,z
1/2-x,1/2+y,1/2-z
1/2-x,1/2-y,-z
1/2+x,1/2-y,1/2+z
loop_
_atom_site_type_symbol
_atom_site_label
_atom_site_fract_x
_atom_site_fract_y
_atom_site_fract_z
Si Si1 0.221009 0.400172 0.809350
Si Si2 0.050850 0.969812 0.386893
Si Si3 0.208078 0.800968 0.954337
Si Si4 0.405873 0.370273 0.349601
Si Si5 0.626124 0.922420 0.344883
Si Si6 0.830942 0.511456 0.024851
Si Si7 0.000000 0.843135 0.750000
Si Si8 0.950805 0.628526 0.421504
O O1 0.198636 0.447294 0.882298
O O2 0.381673 0.377804 0.806494
O O3 0.148030 0.403870 0.673155
O O4 0.110281 0.366074 0.873932
O O5 0.227603 0.976211 0.407184
O O6 0.000000 0.984819 0.250000
O O7 0.999247 0.915917 0.396875
O O8 0.000000 0.000000 0.500000
O O9 0.360678 0.824511 0.923786
O O10 0.093999 0.809567 0.840710
O O11 0.250000 0.750000 0.000000
O O12 0.137985 0.833827 0.052574
O O13 0.500000 0.348139 0.250000
O O14 0.249882 0.390150 0.293775
O O15 0.500000 0.938940 0.250000
O O16 0.549044 0.894519 0.448661
O O17 0.713383 0.964443 0.410299
O O18 0.000000 0.500000 0.000000
#
# Coordination Sequence:
#
# PCOD9285848 Si02
#       8
#     8   8   8   8   8   8   4   8
#     4  10  21  42  67  97 134 175 228 282 342 399
#     4  11  25  45  63  96 139 188 240 282 343 415
#     4  10  22  46  72 100 132 169 225 287 350 424
#     4  10  23  46  66  94 140 183 227 283 355 411
#     4  11  24  38  60  94 138 181 229 277 329 404
#     4  12  25  39  65  96 131 180 234 282 333 399
#     4  10  22  44  74 100 132 174 228 282 350 412
#     4   9  21  42  63  93 134 175 219 281 349 396
#
# _framework density 20.538433000000001
#
# number of rings (size 3 to 8) (size 9 to 14) (size 15 to 20)
#    0.000    1.600    2.667    0.800    5.600    2.133 
#   15.600    0.667    0.000    0.000    0.000    0.000 
#    0.000    0.000    0.000    0.000    0.000    0.000 
#
# Total GULP energy -167468.085687 kJ/mol
# GULP energy per Si atom -5582.269523 kJ/mol
# Density = 2.049169 g / cm^3
# Si number density = 20.538433 Si / 1000 Ang^3
#
#
#
# Elastic Constant Matrix: (Units=GPa)
#
#
# Indices 1 2 3 4 5 6 
#
# 1 149.3656 55.3328 54.9733 0.0000 -10.5931 0.0000
# 2 55.3328 86.7691 38.1734 0.0000 6.6095 0.0000
# 3 54.9733 38.1734 88.9221 0.0000 0.7575 0.0000
# 4 0.0000 0.0000 0.0000 22.9595 0.0000 1.0457
# 5 -10.5931 6.6095 0.7575 0.0000 39.4407 0.0000
# 6 0.0000 0.0000 0.0000 1.0457 0.0000 20.0650
#
#
#
# Elastic Compliance Matrix: (Units=1/GPa)
#
#
# Indices 1 2 3 4 5 6 
#
# 1 0.010405 -0.005024 -0.004308 0.000000 0.003719 0.000000
# 2 -0.005024 0.016839 -0.004088 0.000000 -0.004093 0.000000
# 3 -0.004308 -0.004088 0.015671 0.000000 -0.000773 0.000000
# 4 0.000000 0.000000 0.000000 0.043659 0.000000 -0.002275
# 5 0.003719 -0.004093 -0.000773 0.000000 0.027054 0.000000
# 6 0.000000 0.000000 0.000000 -0.002275 0.000000 0.049957
#
#
# Mechanical properties :
#
#
# Convention : Reuss Voigt Hill
#
# Bulk Modulus (GPa) = 62.20688 69.11284 65.65986
# Shear Modulus (GPa) = 25.53872 28.26486 26.90179
#
# Velocity S-wave (km/s) = 3.53010 3.71373 3.62308
# Velocity P-wave (km/s) = 6.85341 7.21891 7.03853
#
# Compressibility (1/GPa) = 0.01607539
#
# Stress axis : x y z
#
# Youngs Moduli (GPa) = 96.10577 59.38713 63.81393
#
# Poissons Ratio (x) = 0.29833 0.27490
# Poissons Ratio (y) = 0.48279 0.26088
# Poissons Ratio (z) = 0.41401 0.24278
#
# Static dielectric constant tensor:
#      x y z
#    x 1.817200 0.000000 -0.030220 
#    y 0.000000 1.727020 0.000000 
#    z -0.030220 0.000000 1.779700 
# 
# From -- ./inp_files/81364.got.cif
#   From: 2010.05.17/outbox.cif.g08.bks.cpg/sg15_41_cif.got.tgz:81364.got - 2010.06.03 18:47:42.
