data_PCOD9285487
_publ_section_title
;
Structure prediction by ZEFSAII (Michael W. Deem and Ramdas Pophale) SiO2 
 PCOD9285487
Probable space group: C 2/C
;
_chemical_formula_sum "Si O2"
_cell_formula_units_Z 48
_cell_length_a 15.463465
_cell_length_b 28.970134
_cell_length_c 9.217826
_cell_angle_alpha 90.000000
_cell_angle_beta 144.405415
_cell_angle_gamma 90.000000
_cell_volume 2403.495014
_symmetry_space_group_name_H-M "C 2/C"
_symmetry_group_IT_number 15
_symmetry_cell_setting 'monoclinic'
loop_
_space_group_symop_operation_xyz
x,y,z
-x,y,1/2-z
-x,-y,-z
x,-y,1/2+z
1/2+x,1/2+y,z
1/2-x,1/2+y,1/2-z
1/2-x,1/2-y,-z
1/2+x,1/2-y,1/2+z
loop_
_atom_site_type_symbol
_atom_site_label
_atom_site_fract_x
_atom_site_fract_y
_atom_site_fract_z
Si Si1 0.329532 0.127621 0.256609
Si Si2 0.971556 0.807035 0.902293
Si Si3 0.500000 0.189199 0.250000
Si Si4 0.500000 0.650883 0.750000
Si Si5 0.710669 0.220864 0.772373
Si Si6 0.030914 0.451640 0.122499
Si Si7 0.279577 0.133826 0.526259
O O1 0.408636 0.159839 0.245636
O O2 0.414929 0.079905 0.377257
O O3 0.338568 0.140237 0.441529
O O4 0.155101 0.124022 0.981099
O O5 0.843498 0.768356 0.731950
O O6 0.894900 0.853143 0.731998
O O7 0.015533 0.819393 0.125802
O O8 0.115563 0.785808 0.022691
O O9 0.621730 0.218723 0.500332
O O10 0.661880 0.174985 0.792554
O O11 0.173001 0.415278 0.337143
O O12 0.000000 0.460297 0.250000
O O13 0.000000 0.500000 0.000000
#
# Coordination Sequence:
#
# PCOD9285487 Si02
#       7
#     8   8   4   4   8   8   8
#     4  10  22  41  68  91 129 171 213 272 330 392
#     4  11  25  39  63  95 135 180 228 269 322 383
#     4  12  23  38  66  94 128 180 230 264 323 380
#     4  10  21  42  62  90 136 174 216 270 329 378
#     4  12  25  39  63  95 134 181 231 270 321 382
#     4  10  22  40  70 101 125 162 216 271 335 402
#     4  10  23  43  63  90 131 170 214 273 331 381
#
# _framework density 19.970918000000001
#
# number of rings (size 3 to 8) (size 9 to 14) (size 15 to 20)
#    0.000    1.333    3.333    1.500    5.833    1.333 
#    0.000    0.000    3.667    3.000    0.000    0.000 
#    0.000    0.000    0.000    0.000    0.000    0.000 
#
# Total GULP energy -133659.601791 kJ/mol
# GULP energy per Si atom -5569.150075 kJ/mol
# Density = 1.992546 g / cm^3
# Si number density = 19.970918 Si / 1000 Ang^3
#
#
#
# Elastic Constant Matrix: (Units=GPa)
#
#
# Indices 1 2 3 4 5 6 
#
# 1 84.0279 38.3479 40.6533 0.0000 16.9269 0.0000
# 2 38.3479 112.1629 54.5469 0.0000 7.9022 0.0000
# 3 40.6533 54.5469 155.5864 0.0000 12.8334 0.0000
# 4 0.0000 0.0000 0.0000 41.9089 0.0000 -12.5196
# 5 16.9269 7.9022 12.8334 0.0000 40.9810 0.0000
# 6 0.0000 0.0000 0.0000 -12.5196 0.0000 23.4109
#
#
#
# Elastic Compliance Matrix: (Units=1/GPa)
#
#
# Indices 1 2 3 4 5 6 
#
# 1 0.015843 -0.003918 -0.002349 0.000000 -0.005053 0.000000
# 2 -0.003918 0.011751 -0.003123 0.000000 0.000331 0.000000
# 3 -0.002349 -0.003123 0.008219 0.000000 -0.001001 0.000000
# 4 0.000000 0.000000 0.000000 0.028398 0.000000 0.015187
# 5 -0.005053 0.000331 -0.001001 0.000000 0.026738 0.000000
# 6 0.000000 0.000000 0.000000 0.015187 0.000000 0.050837
#
#
# Mechanical properties :
#
#
# Convention : Reuss Voigt Hill
#
# Bulk Modulus (GPa) = 58.71487 68.76369 63.73928
# Shear Modulus (GPa) = 30.07620 35.80878 32.94249
#
# Velocity S-wave (km/s) = 3.88493 4.23903 4.06584
# Velocity P-wave (km/s) = 7.04185 7.64630 7.35029
#
# Compressibility (1/GPa) = 0.01703146
#
# Stress axis : x y z
#
# Youngs Moduli (GPa) = 63.11759 85.10053 121.67439
#
# Poissons Ratio (x) = 0.33345 0.28584
# Poissons Ratio (y) = 0.24731 0.38001
# Poissons Ratio (z) = 0.14828 0.26578
#
# Static dielectric constant tensor:
#      x y z
#    x 1.813210 0.000000 -0.021860 
#    y 0.000000 1.708950 0.000000 
#    z -0.021860 0.000000 1.789390 
# 
# From -- ./inp_files/44681.got.cif
#   From: 2010.05.17/outbox.cif.g08.bks.cpg/sg15_23_cif.got.tgz:44681.got - 2010.06.03 18:47:42.
