data_PCOD9285930
_publ_section_title
;
Structure prediction by ZEFSAII (Michael W. Deem and Ramdas Pophale) SiO2 
 PCOD9285930
Probable space group: C 2/C
;
_chemical_formula_sum "Si O2"
_cell_formula_units_Z 64
_cell_length_a 8.896338
_cell_length_b 14.177624
_cell_length_c 30.025975
_cell_angle_alpha 90.000000
_cell_angle_beta 130.812197
_cell_angle_gamma 90.000000
_cell_volume 2866.322623
_symmetry_space_group_name_H-M "C 2/C"
_symmetry_group_IT_number 15
_symmetry_cell_setting 'monoclinic'
loop_
_space_group_symop_operation_xyz
x,y,z
-x,y,1/2-z
-x,-y,-z
x,-y,1/2+z
1/2+x,1/2+y,z
1/2-x,1/2+y,1/2-z
1/2-x,1/2-y,-z
1/2+x,1/2-y,1/2+z
loop_
_atom_site_type_symbol
_atom_site_label
_atom_site_fract_x
_atom_site_fract_y
_atom_site_fract_z
Si Si1 0.808175 0.659381 0.610505
Si Si2 0.587903 0.211160 0.003472
Si Si3 0.746302 0.542454 0.420988
Si Si4 0.177085 0.477456 0.747810
Si Si5 0.881659 0.816573 0.830183
Si Si6 0.510351 0.018834 0.384928
Si Si7 0.558802 0.389714 0.145165
Si Si8 0.816616 0.289107 0.614482
O O1 0.644509 0.731093 0.559106
O O2 0.855854 0.574824 0.585755
O O3 0.721204 0.615116 0.638078
O O4 0.009080 0.718484 0.658309
O O5 0.614642 0.099981 0.018029
O O6 0.750000 0.250000 0.000000
O O7 0.375798 0.240712 0.944408
O O8 0.561605 0.614579 0.379286
O O9 0.633831 0.445950 0.410522
O O10 0.863282 0.529585 0.397634
O O11 0.267747 0.372050 0.769593
O O12 0.345709 0.551113 0.796037
O O13 0.000000 0.483899 0.750000
O O14 0.105870 0.494420 0.684221
O O15 0.738455 0.808176 0.844902
O O16 0.634682 0.114123 0.401383
O O17 0.494174 0.285260 0.145741
#
# Coordination Sequence:
#
# PCOD9285930 Si02
#       8
#     8   8   8   8   8   8   8   8
#     4  11  23  43  66 100 133 176 225 281 334 404
#     4  11  24  45  72  97 138 185 226 280 353 403
#     4  10  23  44  66 100 137 173 227 283 330 403
#     4  11  22  47  70  98 134 185 221 279 351 404
#     4  10  21  42  68  96 136 170 226 279 334 401
#     4  12  25  43  71  99 140 175 229 285 339 407
#     4  11  25  43  70 100 141 175 230 282 333 411
#     4  12  23  43  69 102 137 181 227 286 336 408
#
# _framework density 22.328261000000001
#
# number of rings (size 3 to 8) (size 9 to 14) (size 15 to 20)
#    0.000    1.000    5.000    3.000    0.000    6.000 
#    0.000    0.000    0.000    0.000    0.000    0.000 
#    0.000    0.000    0.000    0.000    0.000    0.000 
#
# Total GULP energy -179049.887902 kJ/mol
# GULP energy per Si atom -5595.308997 kJ/mol
# Density = 2.227744 g / cm^3
# Si number density = 22.328261 Si / 1000 Ang^3
#
#
#
# Elastic Constant Matrix: (Units=GPa)
#
#
# Indices 1 2 3 4 5 6 
#
# 1 105.1068 31.3269 -7.4129 0.0000 -12.6237 0.0000
# 2 31.3269 123.4497 6.6424 0.0000 6.2021 0.0000
# 3 -7.4129 6.6424 61.4400 0.0000 -1.1320 0.0000
# 4 0.0000 0.0000 0.0000 33.0518 0.0000 7.1815
# 5 -12.6237 6.2021 -1.1320 0.0000 31.2205 0.0000
# 6 0.0000 0.0000 0.0000 7.1815 0.0000 45.5573
#
#
#
# Elastic Compliance Matrix: (Units=1/GPa)
#
#
# Indices 1 2 3 4 5 6 
#
# 1 0.011227 -0.003209 0.001798 0.000000 0.005242 0.000000
# 2 -0.003209 0.009151 -0.001435 0.000000 -0.003168 0.000000
# 3 0.001798 -0.001435 0.016678 0.000000 0.001617 0.000000
# 4 0.000000 0.000000 0.000000 0.031329 0.000000 -0.004939
# 5 0.005242 -0.003168 0.001617 0.000000 0.034838 0.000000
# 6 0.000000 0.000000 0.000000 -0.004939 0.000000 0.022729
#
#
# Mechanical properties :
#
#
# Convention : Reuss Voigt Hill
#
# Bulk Modulus (GPa) = 31.88341 39.01213 35.44777
# Shear Modulus (GPa) = 35.18700 39.26191 37.22445
#
# Velocity S-wave (km/s) = 3.97406 4.19787 4.08750
# Velocity P-wave (km/s) = 5.94710 6.40361 6.17957
#
# Compressibility (1/GPa) = 0.03136427
#
# Stress axis : x y z
#
# Youngs Moduli (GPa) = 89.07073 109.27568 59.95957
#
# Poissons Ratio (x) = 0.35068 -0.10781
# Poissons Ratio (y) = 0.28584 0.08604
# Poissons Ratio (z) = -0.16016 0.15680
#
# Static dielectric constant tensor:
#      x y z
#    x 1.765630 0.000000 0.015630 
#    y 0.000000 1.880650 0.000000 
#    z 0.015630 0.000000 1.874720 
# 
# From -- ./inp_files/308285.got.cif
#   From: 2010.05.17/outbox.cif.g08.bks.cpg/sg15_155_cif.got.tgz:308285.got - 2010.06.03 18:47:42.
