data_PCOD9285864
_publ_section_title
;
Structure prediction by ZEFSAII (Michael W. Deem and Ramdas Pophale) SiO2 
 PCOD9285864
Probable space group: C 2/C
;
_chemical_formula_sum "Si O2"
_cell_formula_units_Z 44
_cell_length_a 10.768290
_cell_length_b 15.981008
_cell_length_c 14.866226
_cell_angle_alpha 90.000000
_cell_angle_beta 126.587321
_cell_angle_gamma 90.000000
_cell_volume 2054.186248
_symmetry_space_group_name_H-M "C 2/C"
_symmetry_group_IT_number 15
_symmetry_cell_setting 'monoclinic'
loop_
_space_group_symop_operation_xyz
x,y,z
-x,y,1/2-z
-x,-y,-z
x,-y,1/2+z
1/2+x,1/2+y,z
1/2-x,1/2+y,1/2-z
1/2-x,1/2-y,-z
1/2+x,1/2-y,1/2+z
loop_
_atom_site_type_symbol
_atom_site_label
_atom_site_fract_x
_atom_site_fract_y
_atom_site_fract_z
Si Si1 0.965548 0.064281 0.407183
Si Si2 0.251025 0.825301 0.296083
Si Si3 0.870659 0.364251 0.768327
Si Si4 0.590522 0.159635 0.012305
Si Si5 0.500000 0.543675 0.750000
Si Si6 0.740376 0.667530 0.585297
O O1 0.788533 0.089487 0.322466
O O2 0.070250 0.142201 0.479172
O O3 0.000000 0.000000 0.500000
O O4 0.021373 0.018206 0.342160
O O5 0.162879 0.736040 0.253723
O O6 0.413494 0.814704 0.416958
O O7 0.145113 0.895187 0.297019
O O8 0.274813 0.855119 0.203007
O O9 0.909680 0.384019 0.890094
O O10 0.000000 0.385135 0.750000
O O11 0.723812 0.231577 0.080202
O O12 0.645494 0.125949 0.938266
#
# Coordination Sequence:
#
# PCOD9285864 Si02
#       6
#     8   8   8   8   4   8
#     4  12  25  46  65  95 139 180 220 280 354 408
#     4  11  22  42  70 103 131 178 229 284 334 404
#     4  11  25  43  69 100 136 180 233 279 337 403
#     4  10  22  39  71  99 132 168 229 285 323 402
#     4  12  26  42  68 102 134 182 226 278 356 402
#     4  10  21  42  67  99 130 179 219 272 344 405
#
# _framework density 21.419675000000002
#
# number of rings (size 3 to 8) (size 9 to 14) (size 15 to 20)
#    0.000    1.091    4.545    1.636    2.545    0.727 
#    3.273    1.818    0.000    0.000    0.000    0.000 
#    0.000    0.000    0.000    0.000    0.000    0.000 
#
# Total GULP energy -122716.396282 kJ/mol
# GULP energy per Si atom -5578.018013 kJ/mol
# Density = 2.137092 g / cm^3
# Si number density = 21.419675 Si / 1000 Ang^3
#
#
#
# Elastic Constant Matrix: (Units=GPa)
#
#
# Indices 1 2 3 4 5 6 
#
# 1 112.4142 6.6116 63.7263 0.0000 -30.3862 0.0000
# 2 6.6116 35.7806 20.0804 0.0000 -12.9597 0.0000
# 3 63.7263 20.0804 130.3008 0.0000 -19.3232 0.0000
# 4 0.0000 0.0000 0.0000 20.9003 0.0000 3.6021
# 5 -30.3862 -12.9597 -19.3232 0.0000 42.0651 0.0000
# 6 0.0000 0.0000 0.0000 3.6021 0.0000 23.3261
#
#
#
# Elastic Compliance Matrix: (Units=1/GPa)
#
#
# Indices 1 2 3 4 5 6 
#
# 1 0.014783 0.004188 -0.006546 0.000000 0.008962 0.000000
# 2 0.004188 0.034360 -0.005714 0.000000 0.010986 0.000000
# 3 -0.006546 -0.005714 0.011584 0.000000 -0.001168 0.000000
# 4 0.000000 0.000000 0.000000 0.049154 0.000000 -0.007591
# 5 0.008962 0.010986 -0.001168 0.000000 0.033094 0.000000
# 6 0.000000 0.000000 0.000000 -0.007591 0.000000 0.044043
#
#
# Mechanical properties :
#
#
# Convention : Reuss Voigt Hill
#
# Bulk Modulus (GPa) = 22.43065 51.03691 36.73378
# Shear Modulus (GPa) = 22.93333 29.79678 26.36506
#
# Velocity S-wave (km/s) = 3.27565 3.73378 3.51220
# Velocity P-wave (km/s) = 4.98009 6.51667 5.79950
#
# Compressibility (1/GPa) = 0.04458186
#
# Stress axis : x y z
#
# Youngs Moduli (GPa) = 67.64650 29.10330 86.32965
#
# Poissons Ratio (x) = -0.12189 0.56513
# Poissons Ratio (y) = -0.28331 0.49331
# Poissons Ratio (z) = 0.44283 0.16630
#
# Static dielectric constant tensor:
#      x y z
#    x 1.773270 0.000000 -0.043860 
#    y 0.000000 1.771790 0.000000 
#    z -0.043860 0.000000 1.739420 
# 
# From -- ./inp_files/87165.got.cif
#   From: 2010.05.17/outbox.cif.g08.bks.cpg/sg15_44_cif.got.tgz:87165.got - 2010.06.03 18:47:42.
