data_PCOD9285259
_publ_section_title
;
Structure prediction by ZEFSAII (Michael W. Deem and Ramdas Pophale) SiO2 
 PCOD9285259
Probable space group: C 2/C
;
_chemical_formula_sum "Si O2"
_cell_formula_units_Z 52
_cell_length_a 20.982157
_cell_length_b 20.452825
_cell_length_c 5.078163
_cell_angle_alpha 90.000000
_cell_angle_beta 104.906427
_cell_angle_gamma 90.000000
_cell_volume 2105.926830
_symmetry_space_group_name_H-M "C 2/C"
_symmetry_group_IT_number 15
_symmetry_cell_setting 'monoclinic'
loop_
_space_group_symop_operation_xyz
x,y,z
-x,y,1/2-z
-x,-y,-z
x,-y,1/2+z
1/2+x,1/2+y,z
1/2-x,1/2+y,1/2-z
1/2-x,1/2-y,-z
1/2+x,1/2-y,1/2+z
loop_
_atom_site_type_symbol
_atom_site_label
_atom_site_fract_x
_atom_site_fract_y
_atom_site_fract_z
Si Si1 0.632140 0.128945 0.347105
Si Si2 0.233757 0.895757 0.338987
Si Si3 0.397093 0.535030 0.772710
Si Si4 0.000000 0.453379 0.750000
Si Si5 0.423044 0.663835 0.134643
Si Si6 0.741296 0.820298 0.631257
Si Si7 0.919780 0.236073 0.635665
O O1 0.689661 0.086308 0.544114
O O2 0.564273 0.091106 0.275195
O O3 0.666999 0.152322 0.110589
O O4 0.615750 0.196967 0.477170
O O5 0.230129 0.835067 0.544792
O O6 0.181497 0.952247 0.337599
O O7 0.223668 0.869762 0.034394
O O8 0.418580 0.477101 0.995861
O O9 0.418690 0.597501 0.963641
O O10 0.000000 0.500000 0.500000
O O11 0.500000 0.676220 0.250000
O O12 0.401135 0.680062 0.405985
O O13 0.395824 0.716102 0.899237
O O14 0.750000 0.750000 0.500000
O O15 0.000000 0.243997 0.750000
#
# Coordination Sequence:
#
# PCOD9285259 Si02
#       7
#     8   8   8   4   8   8   8
#     4  10  26  45  73 105 145 189 241 302 377 434
#     4  10  25  41  65  99 140 180 241 290 365 433
#     4  12  26  45  67  94 136 190 239 290 341 429
#     4  12  30  48  74 106 150 204 264 304 356 448
#     4  10  24  42  67 104 134 175 228 287 365 428
#     4  10  23  42  67 106 141 185 227 303 378 445
#     4  10  21  41  69 101 140 172 217 296 359 435
#
# _framework density 24.692216999999999
#
# number of rings (size 3 to 8) (size 9 to 14) (size 15 to 20)
#    0.923    0.615    0.769    2.308    6.462    1.846 
#    0.000    0.000    0.000    0.000    0.000    0.000 
#    0.000    0.000    0.000    0.000    0.000    0.000 
#
# Total GULP energy -145029.084312 kJ/mol
# GULP energy per Si atom -5578.041704 kJ/mol
# Density = 2.463602 g / cm^3
# Si number density = 24.692217 Si / 1000 Ang^3
#
#
#
# Elastic Constant Matrix: (Units=GPa)
#
#
# Indices 1 2 3 4 5 6 
#
# 1 96.8601 0.2436 37.1974 0.0000 -14.2615 0.0000
# 2 0.2436 62.4783 27.0667 0.0000 -10.9549 0.0000
# 3 37.1974 27.0667 143.3325 0.0000 -7.0096 0.0000
# 4 0.0000 0.0000 0.0000 33.0517 0.0000 -0.1136
# 5 -14.2615 -10.9549 -7.0096 0.0000 24.7737 0.0000
# 6 0.0000 0.0000 0.0000 -0.1136 0.0000 34.6486
#
#
#
# Elastic Compliance Matrix: (Units=1/GPa)
#
#
# Indices 1 2 3 4 5 6 
#
# 1 0.012768 0.002785 -0.003468 0.000000 0.007601 0.000000
# 2 0.002785 0.019275 -0.003922 0.000000 0.009017 0.000000
# 3 -0.003468 -0.003922 0.008553 0.000000 -0.001310 0.000000
# 4 0.000000 0.000000 0.000000 0.030256 0.000000 0.000099
# 5 0.007601 0.009017 -0.001310 0.000000 0.048357 0.000000
# 6 0.000000 0.000000 0.000000 0.000099 0.000000 0.028862
#
#
# Mechanical properties :
#
#
# Convention : Reuss Voigt Hill
#
# Bulk Modulus (GPa) = 31.85990 47.96515 39.91253
# Shear Modulus (GPa) = 29.80776 34.37235 32.09005
#
# Velocity S-wave (km/s) = 3.47821 3.73504 3.60891
# Velocity P-wave (km/s) = 5.39086 6.16993 5.79351
#
# Compressibility (1/GPa) = 0.03138742
#
# Stress axis : x y z
#
# Youngs Moduli (GPa) = 78.32081 51.88161 116.91516
#
# Poissons Ratio (x) = -0.14450 0.40544
# Poissons Ratio (y) = -0.21814 0.45850
# Poissons Ratio (z) = 0.27160 0.20346
#
# Static dielectric constant tensor:
#      x y z
#    x 2.010740 0.000000 0.049510 
#    y 0.000000 2.141770 0.000000 
#    z 0.049510 0.000000 1.952220 
# 
# From -- ./inp_files/15891.got.cif
#   From: 2010.05.17/outbox.cif.g08.bks.cpg/sg15_8_cif.got.tgz:15891.got - 2010.06.03 18:47:42.
