data_PCOD9285852
_publ_section_title
;
Structure prediction by ZEFSAII (Michael W. Deem and Ramdas Pophale) SiO2 
 PCOD9285852
Probable space group: C 2/C
;
_chemical_formula_sum "Si O2"
_cell_formula_units_Z 40
_cell_length_a 14.889918
_cell_length_b 22.139138
_cell_length_c 8.144834
_cell_angle_alpha 90.000000
_cell_angle_beta 41.207684
_cell_angle_gamma 90.000000
_cell_volume 1768.815305
_symmetry_space_group_name_H-M "C 2/C"
_symmetry_group_IT_number 15
_symmetry_cell_setting 'monoclinic'
loop_
_space_group_symop_operation_xyz
x,y,z
-x,y,1/2-z
-x,-y,-z
x,-y,1/2+z
1/2+x,1/2+y,z
1/2-x,1/2+y,1/2-z
1/2-x,1/2-y,-z
1/2+x,1/2-y,1/2+z
loop_
_atom_site_type_symbol
_atom_site_label
_atom_site_fract_x
_atom_site_fract_y
_atom_site_fract_z
Si Si1 0.651796 0.045323 0.974052
Si Si2 0.364427 0.241872 0.538591
Si Si3 0.152246 0.586338 0.593872
Si Si4 0.675865 0.650172 0.648894
Si Si5 0.416813 0.333662 0.698650
O O1 0.654159 0.066515 0.782379
O O2 0.749258 0.086697 0.952077
O O3 0.500000 0.053668 0.250000
O O4 0.683459 0.974683 0.948478
O O5 0.311248 0.302931 0.519850
O O6 0.253983 0.189987 0.680277
O O7 0.400175 0.263602 0.670591
O O8 0.500000 0.223538 0.250000
O O9 0.272710 0.633522 0.400839
O O10 0.000000 0.606540 0.750000
O O11 0.520367 0.641786 0.916007
O O12 0.500000 0.342232 0.750000
#
# Coordination Sequence:
#
# PCOD9285852 Si02
#       5
#     8   8   8   8   8
#     4  11  23  41  69  94 129 173 225 271 321 395
#     4   9  21  40  67  96 133 174 218 264 328 392
#     4  11  25  44  65  97 131 177 221 270 330 393
#     4  10  21  42  67  98 127 173 220 271 321 393
#     4  11  23  44  63 100 139 163 218 271 329 391
#
# _framework density 22.614006
#
# number of rings (size 3 to 8) (size 9 to 14) (size 15 to 20)
#    0.000    1.600    2.000    3.000    5.600    1.600 
#    0.000    0.000    0.000    0.000    0.000    0.000 
#    0.000    0.000    0.000    0.000    0.000    0.000 
#
# Total GULP energy -111826.349022 kJ/mol
# GULP energy per Si atom -5591.317451 kJ/mol
# Density = 2.256254 g / cm^3
# Si number density = 22.614006 Si / 1000 Ang^3
#
#
#
# Elastic Constant Matrix: (Units=GPa)
#
#
# Indices 1 2 3 4 5 6 
#
# 1 72.2228 40.0825 32.9238 0.0000 -17.7704 0.0000
# 2 40.0825 61.3012 54.8868 0.0000 -21.9426 0.0000
# 3 32.9238 54.8868 101.9492 0.0000 -9.9921 0.0000
# 4 0.0000 0.0000 0.0000 24.4490 0.0000 -7.2626
# 5 -17.7704 -21.9426 -9.9921 0.0000 46.2912 0.0000
# 6 0.0000 0.0000 0.0000 -7.2626 0.0000 38.5519
#
#
#
# Elastic Compliance Matrix: (Units=1/GPa)
#
#
# Indices 1 2 3 4 5 6 
#
# 1 0.021919 -0.014536 0.000916 0.000000 0.001722 0.000000
# 2 -0.014536 0.048554 -0.020164 0.000000 0.013083 0.000000
# 3 0.000916 -0.020164 0.019887 0.000000 -0.004914 0.000000
# 4 0.000000 0.000000 0.000000 0.043326 0.000000 0.008162
# 5 0.001722 0.013083 -0.004914 0.000000 0.027404 0.000000
# 6 0.000000 0.000000 0.000000 0.008162 0.000000 0.027477
#
#
# Mechanical properties :
#
#
# Convention : Reuss Voigt Hill
#
# Bulk Modulus (GPa) = 43.87310 54.58437 49.22874
# Shear Modulus (GPa) = 18.95855 29.03043 23.99449
#
# Velocity S-wave (km/s) = 2.89858 3.58681 3.26090
# Velocity P-wave (km/s) = 5.53582 6.42989 5.99953
#
# Compressibility (1/GPa) = 0.02279301
#
# Stress axis : x y z
#
# Youngs Moduli (GPa) = 45.62158 20.59551 50.28376
#
# Poissons Ratio (x) = 0.29937 -0.04605
# Poissons Ratio (y) = 0.66315 1.01391
# Poissons Ratio (z) = -0.04178 0.41528
#
# Static dielectric constant tensor:
#      x y z
#    x 1.959790 0.000000 0.042200 
#    y 0.000000 1.856730 0.000000 
#    z 0.042200 0.000000 1.829880 
# 
# From -- ./inp_files/41945.got.cif
#   From: 2010.05.17/outbox.cif.g08.bks.cpg/sg15_21_cif.got.tgz:41945.got - 2010.06.03 18:47:42.
