data_PCOD9285531
_publ_section_title
;
Structure prediction by ZEFSAII (Michael W. Deem and Ramdas Pophale) SiO2 
 PCOD9285531
Probable space group: C 2/C
;
_chemical_formula_sum "Si O2"
_cell_formula_units_Z 64
_cell_length_a 16.016368
_cell_length_b 28.607227
_cell_length_c 11.769185
_cell_angle_alpha 90.000000
_cell_angle_beta 35.842082
_cell_angle_gamma 90.000000
_cell_volume 3157.566917
_symmetry_space_group_name_H-M "C 2/C"
_symmetry_group_IT_number 15
_symmetry_cell_setting 'monoclinic'
loop_
_space_group_symop_operation_xyz
x,y,z
-x,y,1/2-z
-x,-y,-z
x,-y,1/2+z
1/2+x,1/2+y,z
1/2-x,1/2+y,1/2-z
1/2-x,1/2-y,-z
1/2+x,1/2-y,1/2+z
loop_
_atom_site_type_symbol
_atom_site_label
_atom_site_fract_x
_atom_site_fract_y
_atom_site_fract_z
Si Si1 0.645568 0.267608 0.518873
Si Si2 0.173232 0.642826 0.746440
Si Si3 0.650246 0.831277 0.915250
Si Si4 0.277579 0.590109 0.830936
Si Si5 0.530711 0.977550 0.591187
Si Si6 0.216821 0.596546 0.150907
Si Si7 0.344755 0.390155 0.872974
Si Si8 0.062926 0.948766 0.928435
O O1 0.500000 0.273970 0.750000
O O2 0.750000 0.250000 0.500000
O O3 0.719193 0.313758 0.388398
O O4 0.642236 0.224820 0.432717
O O5 0.184846 0.626701 0.862090
O O6 0.239908 0.602286 0.594076
O O7 0.013258 0.653013 0.883517
O O8 0.694877 0.856662 0.749091
O O9 0.761457 0.852266 0.885731
O O10 0.431772 0.585524 0.604067
O O11 0.192924 0.540942 0.915440
O O12 0.285115 0.604495 0.953152
O O13 0.500000 0.001649 0.750000
O O14 0.429167 0.931807 0.706065
O O15 0.500000 0.000000 0.500000
O O16 0.316649 0.561707 0.112386
O O17 0.500000 0.376353 0.750000
O O18 0.373022 0.434579 0.763375
O O19 0.000000 0.000000 0.000000
#
# Coordination Sequence:
#
# PCOD9285531 Si02
#       8
#     8   8   8   8   8   8   8   8
#     4  12  23  37  63  98 135 164 207 272 341 401
#     4  12  23  41  65  97 131 167 214 261 339 395
#     4  11  23  42  65  95 131 168 212 264 332 399
#     4  11  23  42  65  89 127 176 216 262 328 388
#     4  10  21  42  63  94 127 167 219 275 328 389
#     4  10  23  43  66  87 127 177 219 261 325 391
#     4  11  22  38  63  96 127 164 211 269 324 400
#     4  11  24  42  63  92 129 168 221 273 330 381
#
# _framework density 20.268771000000001
#
# number of rings (size 3 to 8) (size 9 to 14) (size 15 to 20)
#    0.000    1.000    5.000    1.875    0.000    1.000 
#    9.000    0.625    0.000    0.000    0.000    0.000 
#    0.000    0.000    0.000    0.000    0.000    0.000 
#
# Total GULP energy -178595.457673 kJ/mol
# GULP energy per Si atom -5581.108052 kJ/mol
# Density = 2.022264 g / cm^3
# Si number density = 20.268771 Si / 1000 Ang^3
#
#
#
# Elastic Constant Matrix: (Units=GPa)
#
#
# Indices 1 2 3 4 5 6 
#
# 1 120.9899 35.3402 49.4805 0.0000 6.4532 0.0000
# 2 35.3402 87.7366 39.9626 0.0000 15.9994 0.0000
# 3 49.4805 39.9626 81.8697 0.0001 -2.4234 -0.0001
# 4 0.0000 0.0000 0.0001 32.9776 0.0000 -0.3589
# 5 6.4532 15.9994 -2.4234 0.0000 50.9930 0.0000
# 6 0.0000 0.0000 -0.0001 -0.3589 0.0000 24.5581
#
#
#
# Elastic Compliance Matrix: (Units=1/GPa)
#
#
# Indices 1 2 3 4 5 6 
#
# 1 0.011275 -0.001538 -0.006100 0.000000 -0.001234 0.000000
# 2 -0.001538 0.016227 -0.007146 0.000000 -0.005236 0.000000
# 3 -0.006100 -0.007146 0.019506 0.000000 0.003941 0.000000
# 4 0.000000 0.000000 0.000000 0.030328 0.000000 0.000443
# 5 -0.001234 -0.005236 0.003941 0.000000 0.021597 0.000000
# 6 0.000000 0.000000 0.000000 0.000443 0.000000 0.040726
#
#
# Mechanical properties :
#
#
# Convention : Reuss Voigt Hill
#
# Bulk Modulus (GPa) = 57.34122 60.01810 58.67966
# Shear Modulus (GPa) = 28.56450 32.75994 30.66222
#
# Velocity S-wave (km/s) = 3.75812 4.02466 3.89367
# Velocity P-wave (km/s) = 6.86900 7.16048 7.01625
#
# Compressibility (1/GPa) = 0.01743946
#
# Stress axis : x y z
#
# Youngs Moduli (GPa) = 88.69207 61.62497 51.26527
#
# Poissons Ratio (x) = 0.09477 0.31273
# Poissons Ratio (y) = 0.13640 0.36636
# Poissons Ratio (z) = 0.54104 0.44040
#
# Static dielectric constant tensor:
#      x y z
#    x 1.750750 0.000000 -0.003440 
#    y 0.000000 1.768940 0.000000 
#    z -0.003440 0.000000 1.737690 
# 
# From -- ./inp_files/101323.got.cif
#   From: 2010.05.17/outbox.cif.g08.bks.cpg/sg15_51_cif.got.tgz:101323.got - 2010.06.03 18:47:42.
