data_PCOD9285046
_publ_section_title
;
Structure prediction by ZEFSAII (Michael W. Deem and Ramdas Pophale) SiO2 
 PCOD9285046
Probable space group: C 2/C
;
_chemical_formula_sum "Si O2"
_cell_formula_units_Z 64
_cell_length_a 11.400781
_cell_length_b 19.121612
_cell_length_c 15.047036
_cell_angle_alpha 90.000000
_cell_angle_beta 89.557053
_cell_angle_gamma 90.000000
_cell_volume 3280.175546
_symmetry_space_group_name_H-M "C 2/C"
_symmetry_group_IT_number 15
_symmetry_cell_setting 'monoclinic'
loop_
_space_group_symop_operation_xyz
x,y,z
-x,y,1/2-z
-x,-y,-z
x,-y,1/2+z
1/2+x,1/2+y,z
1/2-x,1/2+y,1/2-z
1/2-x,1/2-y,-z
1/2+x,1/2-y,1/2+z
loop_
_atom_site_type_symbol
_atom_site_label
_atom_site_fract_x
_atom_site_fract_y
_atom_site_fract_z
Si Si1 0.191842 0.175525 0.998099
Si Si2 0.492253 0.663599 0.145887
Si Si3 0.390833 0.626626 0.686131
Si Si4 0.557649 0.109058 0.508792
Si Si5 0.760549 0.917837 0.344063
Si Si6 0.001514 0.997994 0.606060
Si Si7 0.028972 0.497696 0.852491
Si Si8 0.647756 0.212859 0.945437
O O1 0.122080 0.168105 0.905344
O O2 0.303664 0.123976 0.998839
O O3 0.250000 0.250000 0.000000
O O4 0.107801 0.169644 0.083319
O O5 0.500000 0.677208 0.250000
O O6 0.471055 0.580372 0.135499
O O7 0.401804 0.722296 0.112133
O O8 0.500000 0.647701 0.750000
O O9 0.279430 0.621829 0.750380
O O10 0.407539 0.547778 0.652178
O O11 0.538324 0.061749 0.597525
O O12 0.471760 0.176648 0.515096
O O13 0.518770 0.065870 0.421711
O O14 0.878561 0.960883 0.367474
O O15 0.661599 0.975738 0.347166
O O16 0.716313 0.854696 0.405915
O O17 0.000000 0.000000 0.500000
O O18 0.000000 0.482872 0.750000
O O19 0.750000 0.250000 0.000000
#
# Coordination Sequence:
#
# PCOD9285046 Si02
#       8
#     8   8   8   8   8   8   8   8
#     4  12  24  43  69  96 139 176 220 279 333 412
#     4  12  26  44  69 103 137 177 230 281 343 405
#     4  10  23  40  69 101 130 177 230 274 337 406
#     4  10  23  43  66  97 131 179 226 270 345 410
#     4  10  22  40  67  97 132 174 227 278 337 407
#     4  11  21  42  67  99 131 173 226 290 336 396
#     4  10  21  41  66  97 133 168 227 282 334 403
#     4  11  25  45  66  94 140 183 222 277 346 413
#
# _framework density 19.511150000000001
#
# number of rings (size 3 to 8) (size 9 to 14) (size 15 to 20)
#    0.000    1.250    2.500    3.375    3.500    2.000 
#   11.250    0.625    0.000    0.000    0.000    0.000 
#    0.000    0.000    0.000    0.000    0.000    0.000 
#
# Total GULP energy -178213.689326 kJ/mol
# GULP energy per Si atom -5569.177791 kJ/mol
# Density = 1.946674 g / cm^3
# Si number density = 19.511150 Si / 1000 Ang^3
#
#
#
# Elastic Constant Matrix: (Units=GPa)
#
#
# Indices 1 2 3 4 5 6 
#
# 1 37.0278 25.2104 44.0398 0.0000 10.5121 0.0000
# 2 25.2104 103.3260 42.9347 0.0000 27.4363 0.0000
# 3 44.0398 42.9347 155.2454 0.0000 13.7797 0.0000
# 4 0.0000 0.0000 0.0000 289.5076 0.0000 -140.5550
# 5 10.5121 27.4363 13.7797 0.0000 24.2512 0.0000
# 6 0.0000 0.0000 0.0000 -140.5550 0.0000 106.0617
#
#
#
# Elastic Compliance Matrix: (Units=1/GPa)
#
#
# Indices 1 2 3 4 5 6 
#
# 1 0.045333 -0.004220 -0.010924 0.000000 -0.008670 0.000000
# 2 -0.004220 0.015271 -0.001743 0.000000 -0.014457 0.000000
# 3 -0.010924 -0.001743 0.009928 0.000000 0.001066 0.000000
# 4 0.000000 0.000000 0.000000 0.009686 0.000000 0.012836
# 5 -0.008670 -0.014457 0.001066 0.000000 0.060743 0.000000
# 6 0.000000 0.000000 0.000000 0.012836 0.000000 0.026439
#
#
# Mechanical properties :
#
#
# Convention : Reuss Voigt Hill
#
# Bulk Modulus (GPa) = 27.20424 57.77433 42.48928
# Shear Modulus (GPa) = 23.42742 96.19173 59.80958
#
# Velocity S-wave (km/s) = 3.46890 7.02908 5.54262
# Velocity P-wave (km/s) = 5.47883 9.77509 7.92370
#
# Compressibility (1/GPa) = 0.03675898
#
# Stress axis : x y z
#
# Youngs Moduli (GPa) = 22.05886 65.48510 100.72901
#
# Poissons Ratio (x) = 0.27633 1.10032
# Poissons Ratio (y) = 0.09308 0.17557
# Poissons Ratio (z) = 0.24096 0.11414
#
# Static dielectric constant tensor:
#      x y z
#    x 1.499510 0.000000 -0.178900 
#    y 0.000000 1.703520 0.000000 
#    z -0.178900 0.000000 1.558330 
# 
# From -- ./inp_files/146075.got.cif
#   From: 2010.05.17/outbox.cif.g08.bks.cpg/sg15_74_cif.got.tgz:146075.got - 2010.06.03 18:47:42.
