data_PCOD9285506
_publ_section_title
;
Structure prediction by ZEFSAII (Michael W. Deem and Ramdas Pophale) SiO2 
 PCOD9285506
Probable space group: C 2/C
;
_chemical_formula_sum "Si O2"
_cell_formula_units_Z 56
_cell_length_a 6.836934
_cell_length_b 25.885083
_cell_length_c 17.572533
_cell_angle_alpha 90.000000
_cell_angle_beta 66.704804
_cell_angle_gamma 90.000000
_cell_volume 2856.372247
_symmetry_space_group_name_H-M "C 2/C"
_symmetry_group_IT_number 15
_symmetry_cell_setting 'monoclinic'
loop_
_space_group_symop_operation_xyz
x,y,z
-x,y,1/2-z
-x,-y,-z
x,-y,1/2+z
1/2+x,1/2+y,z
1/2-x,1/2+y,1/2-z
1/2-x,1/2-y,-z
1/2+x,1/2-y,1/2+z
loop_
_atom_site_type_symbol
_atom_site_label
_atom_site_fract_x
_atom_site_fract_y
_atom_site_fract_z
Si Si1 0.854010 0.789413 0.386788
Si Si2 0.562937 0.602561 0.826389
Si Si3 0.000000 0.546219 0.750000
Si Si4 0.500000 0.213425 0.250000
Si Si5 0.731481 0.645254 0.178145
Si Si6 0.410200 0.783450 0.526279
Si Si7 0.173890 0.027848 0.525733
Si Si8 0.100965 0.467646 0.872420
O O1 0.617235 0.805243 0.449682
O O2 0.003220 0.837551 0.343142
O O3 0.835484 0.751056 0.317939
O O4 0.978730 0.756159 0.431236
O O5 0.500000 0.586470 0.750000
O O6 0.803109 0.583160 0.801314
O O7 0.427265 0.574553 0.912232
O O8 0.930334 0.509038 0.690698
O O9 0.390469 0.176777 0.206782
O O10 0.500000 0.652670 0.250000
O O11 0.776552 0.671591 0.089208
O O12 0.789100 0.585017 0.170321
O O13 0.250000 0.750000 0.500000
O O14 0.368221 0.044332 0.442214
O O15 0.264967 0.990744 0.577919
O O16 0.000000 0.000000 0.500000
#
# Coordination Sequence:
#
# PCOD9285506 Si02
#       8
#     8   8   4   4   8   8   8   8
#     4  10  22  41  67  93 130 171 211 269 330 389
#     4  12  24  42  66  98 131 175 223 277 337 397
#     4  12  25  42  66 100 130 172 227 276 326 396
#     4  10  21  42  62  96 126 164 213 266 322 388
#     4  11  24  39  65  95 126 168 214 263 325 386
#     4  10  22  42  65  95 131 167 215 267 323 394
#     4  11  24  43  65  90 133 173 217 273 331 390
#     4  11  25  42  64  96 130 173 223 271 326 399
#
# _framework density 19.605288999999999
#
# number of rings (size 3 to 8) (size 9 to 14) (size 15 to 20)
#    0.000    1.143    3.571    2.143    2.000    3.429 
#    5.143    0.000    0.000    0.000    0.000    0.000 
#    0.000    0.000    0.000    0.000    0.000    0.000 
#
# Total GULP energy -156349.645624 kJ/mol
# GULP energy per Si atom -5583.915915 kJ/mol
# Density = 1.956067 g / cm^3
# Si number density = 19.605289 Si / 1000 Ang^3
#
#
#
# Elastic Constant Matrix: (Units=GPa)
#
#
# Indices 1 2 3 4 5 6 
#
# 1 72.9305 15.4501 19.8013 0.0000 -8.2356 0.0000
# 2 15.4501 69.1366 14.3694 0.0000 -13.1591 0.0000
# 3 19.8013 14.3694 74.2929 0.0000 -12.8547 0.0000
# 4 0.0000 0.0000 0.0000 54.0517 0.0000 -9.2950
# 5 -8.2356 -13.1591 -12.8547 0.0000 41.4142 0.0000
# 6 0.0000 0.0000 0.0000 -9.2950 0.0000 22.1894
#
#
#
# Elastic Compliance Matrix: (Units=1/GPa)
#
#
# Indices 1 2 3 4 5 6 
#
# 1 0.015294 -0.002485 -0.003388 0.000000 0.001200 0.000000
# 2 -0.002485 0.016164 -0.001755 0.000000 0.004097 0.000000
# 3 -0.003388 -0.001755 0.015312 0.000000 0.003521 0.000000
# 4 0.000000 0.000000 0.000000 0.019937 0.000000 0.008351
# 5 0.001200 0.004097 0.003521 0.000000 0.026780 0.000000
# 6 0.000000 0.000000 0.000000 0.008351 0.000000 0.048565
#
#
# Mechanical properties :
#
#
# Convention : Reuss Voigt Hill
#
# Bulk Modulus (GPa) = 31.73263 35.06685 33.39974
# Shear Modulus (GPa) = 29.79529 34.64702 32.22116
#
# Velocity S-wave (km/s) = 3.90264 4.20840 4.05840
# Velocity P-wave (km/s) = 6.04387 6.44511 6.24771
#
# Compressibility (1/GPa) = 0.03151330
#
# Stress axis : x y z
#
# Youngs Moduli (GPa) = 65.38720 61.86558 65.30839
#
# Poissons Ratio (x) = 0.15374 0.22126
# Poissons Ratio (y) = 0.16249 0.11462
# Poissons Ratio (z) = 0.22152 0.10858
#
# Static dielectric constant tensor:
#      x y z
#    x 1.666860 0.000000 0.005940 
#    y 0.000000 1.661950 0.000000 
#    z 0.005940 0.000000 1.739700 
# 
# From -- ./inp_files/186139.got.cif
#   From: 2010.05.17/outbox.cif.g08.bks.cpg/sg15_94_cif.got.tgz:186139.got - 2010.06.03 18:47:42.
