data_PCOD9285731
_publ_section_title
;
Structure prediction by ZEFSAII (Michael W. Deem and Ramdas Pophale) SiO2 
 PCOD9285731
Probable space group: C 2/C
;
_chemical_formula_sum "Si O2"
_cell_formula_units_Z 56
_cell_length_a 18.395098
_cell_length_b 7.061318
_cell_length_c 23.744987
_cell_angle_alpha 90.000000
_cell_angle_beta 127.058183
_cell_angle_gamma 90.000000
_cell_volume 2461.363439
_symmetry_space_group_name_H-M "C 2/C"
_symmetry_group_IT_number 15
_symmetry_cell_setting 'monoclinic'
loop_
_space_group_symop_operation_xyz
x,y,z
-x,y,1/2-z
-x,-y,-z
x,-y,1/2+z
1/2+x,1/2+y,z
1/2-x,1/2+y,1/2-z
1/2-x,1/2-y,-z
1/2+x,1/2-y,1/2+z
loop_
_atom_site_type_symbol
_atom_site_label
_atom_site_fract_x
_atom_site_fract_y
_atom_site_fract_z
Si Si1 0.087173 0.751607 0.036058
Si Si2 0.136784 0.637869 0.175053
Si Si3 0.070703 0.613539 0.382584
Si Si4 0.144287 0.202772 0.442643
Si Si5 0.759087 0.310014 0.324976
Si Si6 0.900286 0.063184 0.681942
Si Si7 0.384501 0.802119 0.477593
O O1 0.138338 0.771803 0.119962
O O2 0.107703 0.530897 0.029273
O O3 0.110435 0.857413 0.989210
O O4 0.981027 0.773565 0.000808
O O5 0.158837 0.427092 0.164339
O O6 0.211642 0.683640 0.256391
O O7 0.035841 0.647130 0.153414
O O8 0.093481 0.393109 0.397710
O O9 0.093512 0.718065 0.335481
O O10 0.124480 0.710372 0.459802
O O11 0.250000 0.250000 0.500000
O O12 0.127682 0.053462 0.385878
O O13 0.678650 0.450008 0.308629
O O14 0.802905 0.223573 0.401814
O O15 0.000000 0.005967 0.750000
#
# Coordination Sequence:
#
# PCOD9285731 Si02
#       7
#     8   8   8   8   8   8   8
#     4   8  16  36  60  90 123 165 217 272 335 390
#     4  10  21  42  66  91 134 176 223 281 348 403
#     4  10  22  46  67  93 139 185 214 278 369 404
#     4  11  23  41  70 101 132 181 234 282 339 413
#     4  11  22  40  64  98 129 170 231 283 328 404
#     4  12  26  44  65 101 144 179 225 286 349 419
#     4   8  16  34  65  87 120 170 217 271 327 394
#
# _framework density 22.751618000000001
#
# number of rings (size 3 to 8) (size 9 to 14) (size 15 to 20)
#    0.000    2.000    1.429    5.143    0.000    5.143 
#    7.714    1.429    0.000    0.000    0.000    0.000 
#    0.000    0.000    0.000    0.000    0.000    0.000 
#
# Total GULP energy -156454.299585 kJ/mol
# GULP energy per Si atom -5587.653557 kJ/mol
# Density = 2.269983 g / cm^3
# Si number density = 22.751618 Si / 1000 Ang^3
#
#
#
# Elastic Constant Matrix: (Units=GPa)
#
#
# Indices 1 2 3 4 5 6 
#
# 1 48.5919 -11.0844 -10.3634 0.0000 -2.0080 0.0000
# 2 -11.0844 41.4137 -1.2607 0.0000 -9.7145 0.0000
# 3 -10.3634 -1.2607 110.6639 0.0000 13.1668 0.0000
# 4 0.0000 0.0000 0.0000 39.6512 0.0000 -5.7802
# 5 -2.0080 -9.7145 13.1668 0.0000 26.7269 0.0000
# 6 0.0000 0.0000 0.0000 -5.7802 0.0000 17.2423
#
#
#
# Elastic Compliance Matrix: (Units=1/GPa)
#
#
# Indices 1 2 3 4 5 6 
#
# 1 0.022677 0.006904 0.001807 0.000000 0.003323 0.000000
# 2 0.006904 0.028583 -0.000346 0.000000 0.011078 0.000000
# 3 0.001807 -0.000346 0.009773 0.000000 -0.004805 0.000000
# 4 0.000000 0.000000 0.000000 0.026516 0.000000 0.008889
# 5 0.003323 0.011078 -0.004805 0.000000 0.044059 0.000000
# 6 0.000000 0.000000 0.000000 0.008889 0.000000 0.060977
#
#
# Mechanical properties :
#
#
# Convention : Reuss Voigt Hill
#
# Bulk Modulus (GPa) = 12.85953 17.25026 15.05489
# Shear Modulus (GPa) = 24.78005 31.61594 28.19800
#
# Velocity S-wave (km/s) = 3.30382 3.73180 3.52431
# Velocity P-wave (km/s) = 4.49644 5.11535 4.81585
#
# Compressibility (1/GPa) = 0.07776336
#
# Stress axis : x y z
#
# Youngs Moduli (GPa) = 44.09718 34.98631 102.31950
#
# Poissons Ratio (x) = -0.24155 -0.18488
# Poissons Ratio (y) = -0.30445 0.03539
# Poissons Ratio (z) = -0.07968 0.01210
#
# Static dielectric constant tensor:
#      x y z
#    x 1.836740 0.000000 -0.053040 
#    y 0.000000 1.884990 0.000000 
#    z -0.053040 0.000000 1.883450 
# 
# From -- ./inp_files/276635.got.cif
#   From: 2010.05.17/outbox.cif.g08.bks.cpg/sg15_139_cif.got.tgz:276635.got - 2010.06.03 18:47:42.
