data_PCOD9285321
_publ_section_title
;
Structure prediction by ZEFSAII (Michael W. Deem and Ramdas Pophale) SiO2 
 PCOD9285321
Probable space group: C 2/C
;
_chemical_formula_sum "Si O2"
_cell_formula_units_Z 36
_cell_length_a 11.051990
_cell_length_b 26.282070
_cell_length_c 10.562699
_cell_angle_alpha 90.000000
_cell_angle_beta 26.738887
_cell_angle_gamma 90.000000
_cell_volume 1380.432909
_symmetry_space_group_name_H-M "C 2/C"
_symmetry_group_IT_number 15
_symmetry_cell_setting 'monoclinic'
loop_
_space_group_symop_operation_xyz
x,y,z
-x,y,1/2-z
-x,-y,-z
x,-y,1/2+z
1/2+x,1/2+y,z
1/2-x,1/2+y,1/2-z
1/2-x,1/2-y,-z
1/2+x,1/2-y,1/2+z
loop_
_atom_site_type_symbol
_atom_site_label
_atom_site_fract_x
_atom_site_fract_y
_atom_site_fract_z
Si Si1 0.499903 0.871764 0.098537
Si Si2 0.500000 0.838753 0.750000
Si Si3 0.298618 0.717127 0.174801
Si Si4 0.183814 0.911936 0.206541
Si Si5 0.227981 0.476356 0.932016
O O1 0.500000 0.867908 0.250000
O O2 0.192020 0.882363 0.333416
O O3 0.677068 0.824803 0.882996
O O4 0.637572 0.926781 0.941965
O O5 0.275667 0.803543 0.896322
O O6 0.571814 0.877898 0.573469
O O7 0.107385 0.765921 0.383390
O O8 0.000000 0.908078 0.250000
O O9 0.215703 0.971873 0.196789
O O10 0.500000 0.463957 0.750000
O O11 0.000000 0.488984 0.250000
#
# Coordination Sequence:
#
# PCOD9285321 Si02
#       5
#     8   4   8   8   8
#     4  10  24  45  69 101 140 186 229 282 344 411
#     4  10  22  40  70 104 138 172 228 286 356 396
#     4  11  26  44  70  98 133 180 236 290 339 398
#     4  10  21  41  70 105 142 179 226 280 343 417
#     4  10  21  42  67 103 141 182 225 277 338 413
#
# _framework density 26.078776000000001
#
# number of rings (size 3 to 8) (size 9 to 14) (size 15 to 20)
#    0.000    1.778    1.111    1.333    6.222    4.444 
#    8.000   10.000    0.000    0.000    0.000    0.000 
#    0.000    0.000    0.000    0.000    0.000    0.000 
#
# Total GULP energy -100408.439797 kJ/mol
# GULP energy per Si atom -5578.246655 kJ/mol
# Density = 2.601942 g / cm^3
# Si number density = 26.078776 Si / 1000 Ang^3
#
#
#
# Elastic Constant Matrix: (Units=GPa)
#
#
# Indices 1 2 3 4 5 6 
#
# 1 119.9588 33.9304 20.2334 0.0001 6.6378 0.0002
# 2 33.9304 161.8202 14.8195 0.0000 9.7352 0.0002
# 3 20.2334 14.8195 74.8872 0.0003 -12.8973 0.0012
# 4 0.0001 0.0000 0.0003 24.3663 -0.0001 -12.1259
# 5 6.6378 9.7352 -12.8973 -0.0001 25.7291 -0.0004
# 6 0.0002 0.0002 0.0012 -12.1259 -0.0004 -14.6613
#
#
#
# Elastic Compliance Matrix: (Units=1/GPa)
#
#
# Indices 1 2 3 4 5 6 
#
# 1 0.009420 -0.001522 -0.002806 0.000000 -0.003261 0.000000
# 2 -0.001522 0.006805 -0.001435 0.000000 -0.002901 0.000000
# 3 -0.002806 -0.001435 0.015994 0.000000 0.009284 0.000001
# 4 0.000000 0.000000 0.000000 0.029074 0.000000 -0.024046
# 5 -0.003261 -0.002901 0.009284 0.000000 0.045460 0.000000
# 6 0.000000 0.000000 0.000001 -0.024046 0.000000 -0.048319
#
#
# Mechanical properties :
#
#
# Convention : Reuss Voigt Hill
#
# Bulk Modulus (GPa) = 48.32312 54.95919 51.64116
# Shear Modulus (GPa) = 65.05527 26.26566 45.66047
#
# Velocity S-wave (km/s) = 4.99998 3.17703 4.18888
# Velocity P-wave (km/s) = 7.20437 5.88031 6.57575
#
# Compressibility (1/GPa) = 0.02069403
#
# Stress axis : x y z
#
# Youngs Moduli (GPa) = 106.15269 146.95437 62.52183
#
# Poissons Ratio (x) = 0.22369 0.17541
# Poissons Ratio (y) = 0.16158 0.08972
# Poissons Ratio (z) = 0.29782 0.21089
#
# Static dielectric constant tensor:
#      x y z
#    x 2.461850 0.000000 0.186730 
#    y 0.000000 2.009680 0.000000 
#    z 0.186730 0.000000 2.256980 
# 
# From -- ./inp_files/4679.got.cif
#   From: 2010.05.17/outbox.cif.g08.bks.cpg/sg15_3_cif.got.tgz:4679.got - 2010.06.03 18:47:42.
