data_PCOD9285003
_publ_section_title
;
Structure prediction by ZEFSAII (Michael W. Deem and Ramdas Pophale) SiO2 
 PCOD9285003
Probable space group: C 2/C
;
_chemical_formula_sum "Si O2"
_cell_formula_units_Z 48
_cell_length_a 6.383564
_cell_length_b 28.724314
_cell_length_c 14.391469
_cell_angle_alpha 90.000000
_cell_angle_beta 119.094519
_cell_angle_gamma 90.000000
_cell_volume 2305.894135
_symmetry_space_group_name_H-M "C 2/C"
_symmetry_group_IT_number 15
_symmetry_cell_setting 'monoclinic'
loop_
_space_group_symop_operation_xyz
x,y,z
-x,y,1/2-z
-x,-y,-z
x,-y,1/2+z
1/2+x,1/2+y,z
1/2-x,1/2+y,1/2-z
1/2-x,1/2-y,-z
1/2+x,1/2-y,1/2+z
loop_
_atom_site_type_symbol
_atom_site_label
_atom_site_fract_x
_atom_site_fract_y
_atom_site_fract_z
Si Si1 0.982763 0.687058 0.998979
Si Si2 0.717856 0.768139 0.852510
Si Si3 0.225606 0.904274 0.364980
Si Si4 0.376419 0.436764 0.949759
Si Si5 0.605196 0.979107 0.428435
Si Si6 0.012402 0.147552 0.151505
O O1 0.927352 0.732191 0.923875
O O2 0.838588 0.644543 0.921320
O O3 0.877765 0.705165 0.075560
O O4 0.252194 0.667184 0.065357
O O5 0.500000 0.744332 0.750000
O O6 0.819717 0.807589 0.807375
O O7 0.147310 0.927228 0.445725
O O8 0.419682 0.938999 0.358962
O O9 0.000000 0.898165 0.250000
O O10 0.181843 0.476466 0.882749
O O11 0.368450 0.388820 0.892850
O O12 0.642423 0.455839 0.991262
O O13 0.500000 0.000000 0.500000
O O14 0.000000 0.124838 0.250000
#
# Coordination Sequence:
#
# PCOD9285003 Si02
#       6
#     8   8   8   8   8   8
#     4  11  23  41  65  95 136 169 215 275 320 389
#     4  11  23  42  65  94 132 175 216 266 328 390
#     4  11  22  40  68  95 130 175 215 266 331 388
#     4  10  21  41  66  93 128 166 212 272 323 382
#     4   9  20  41  67  87 130 166 211 272 322 377
#     4  12  23  41  68  98 130 173 218 268 329 392
#
# _framework density 20.816220999999999
#
# number of rings (size 3 to 8) (size 9 to 14) (size 15 to 20)
#    0.000    1.333    5.000    1.000    0.000    0.667 
#    0.000    9.167    3.667    0.000    0.000    0.000 
#    0.000    0.000    0.000    0.000    0.000    0.000 
#
# Total GULP energy -133893.291700 kJ/mol
# GULP energy per Si atom -5578.887154 kJ/mol
# Density = 2.076884 g / cm^3
# Si number density = 20.816221 Si / 1000 Ang^3
#
#
#
# Elastic Constant Matrix: (Units=GPa)
#
#
# Indices 1 2 3 4 5 6 
#
# 1 66.3810 31.4251 19.2753 0.0000 9.1533 0.0000
# 2 31.4251 103.8050 34.6715 0.0000 12.6530 0.0000
# 3 19.2753 34.6715 95.7471 0.0000 14.2184 0.0000
# 4 0.0000 0.0000 0.0000 -13.3887 0.0000 2.0569
# 5 9.1533 12.6530 14.2184 0.0000 28.0616 0.0000
# 6 0.0000 0.0000 0.0000 2.0569 0.0000 33.1350
#
#
#
# Elastic Compliance Matrix: (Units=1/GPa)
#
#
# Indices 1 2 3 4 5 6 
#
# 1 0.018107 -0.004599 -0.001525 0.000000 -0.003060 0.000000
# 2 -0.004599 0.012394 -0.003196 0.000000 -0.002469 0.000000
# 3 -0.001525 -0.003196 0.012566 0.000000 -0.004429 0.000000
# 4 0.000000 0.000000 0.000000 -0.073984 0.000000 0.004593
# 5 -0.003060 -0.002469 -0.004429 0.000000 0.039991 0.000000
# 6 0.000000 0.000000 0.000000 0.004593 0.000000 0.029894
#
#
# Mechanical properties :
#
#
# Convention : Reuss Voigt Hill
#
# Bulk Modulus (GPa) = 40.93872 48.51966 44.72919
# Shear Modulus (GPa) = 76.04515 21.59898 48.82206
#
# Velocity S-wave (km/s) = 6.05070 3.22468 4.84817
# Velocity P-wave (km/s) = 8.27793 6.10114 7.27145
#
# Compressibility (1/GPa) = 0.02442675
#
# Stress axis : x y z
#
# Youngs Moduli (GPa) = 55.22856 80.68402 79.57932
#
# Poissons Ratio (x) = 0.37107 0.12139
# Poissons Ratio (y) = 0.25400 0.25430
# Poissons Ratio (z) = 0.08425 0.25783
#
# Static dielectric constant tensor:
#      x y z
#    x 1.767500 0.000000 -0.013210 
#    y 0.000000 1.773890 0.000000 
#    z -0.013210 0.000000 1.709800 
# 
# From -- ./inp_files/130030.got.cif
#   From: 2010.05.17/outbox.cif.g08.bks.cpg/sg15_66_cif.got.tgz:130030.got - 2010.06.03 18:47:42.
