data_PCOD9285932
_publ_section_title
;
Structure prediction by ZEFSAII (Michael W. Deem and Ramdas Pophale) SiO2 
 PCOD9285932
Probable space group: C 2/C
;
_chemical_formula_sum "Si O2"
_cell_formula_units_Z 64
_cell_length_a 8.782064
_cell_length_b 14.285020
_cell_length_c 31.050014
_cell_angle_alpha 90.000000
_cell_angle_beta 130.132816
_cell_angle_gamma 90.000000
_cell_volume 2978.149406
_symmetry_space_group_name_H-M "C 2/C"
_symmetry_group_IT_number 15
_symmetry_cell_setting 'monoclinic'
loop_
_space_group_symop_operation_xyz
x,y,z
-x,y,1/2-z
-x,-y,-z
x,-y,1/2+z
1/2+x,1/2+y,z
1/2-x,1/2+y,1/2-z
1/2-x,1/2-y,-z
1/2+x,1/2-y,1/2+z
loop_
_atom_site_type_symbol
_atom_site_label
_atom_site_fract_x
_atom_site_fract_y
_atom_site_fract_z
Si Si1 0.708593 0.646195 0.612582
Si Si2 0.055364 0.270265 0.994317
Si Si3 0.863555 0.560911 0.416774
Si Si4 0.331248 0.462305 0.755552
Si Si5 0.006065 0.801440 0.834033
Si Si6 0.575773 0.037975 0.367358
Si Si7 0.442395 0.402188 0.141355
Si Si8 0.712259 0.270521 0.617204
O O1 0.614190 0.700460 0.554838
O O2 0.909864 0.700362 0.663054
O O3 0.759043 0.539676 0.611577
O O4 0.548406 0.648990 0.621301
O O5 0.977892 0.375751 0.972015
O O6 0.250000 0.250000 0.000000
O O7 0.099214 0.252752 0.052134
O O8 0.699631 0.631672 0.366540
O O9 0.731314 0.472484 0.406157
O O10 0.011860 0.533827 0.405519
O O11 0.500000 0.471323 0.750000
O O12 0.344367 0.356072 0.776170
O O13 0.396550 0.534365 0.804599
O O14 0.119110 0.482438 0.696500
O O15 0.928410 0.795203 0.868592
O O16 0.652834 0.140206 0.369002
O O17 0.341146 0.321847 0.151607
#
# Coordination Sequence:
#
# PCOD9285932 Si02
#       8
#     8   8   8   8   8   8   8   8
#     4  11  25  43  69 100 140 173 228 282 337 407
#     4  11  22  47  70 100 135 188 225 279 349 400
#     4  10  21  42  68  96 139 171 225 279 331 399
#     4  11  24  45  72  95 134 181 225 277 350 404
#     4  10  23  44  66 100 132 173 224 281 334 401
#     4  12  23  43  68  99 135 178 224 288 332 406
#     4  11  23  43  67 103 137 175 227 283 335 403
#     4  12  25  43  72  99 141 175 229 282 335 408
#
# _framework density 21.489857000000001
#
# number of rings (size 3 to 8) (size 9 to 14) (size 15 to 20)
#    0.000    1.000    5.000    3.000    0.000    6.000 
#    0.000    0.000    0.000    0.000    0.000    0.000 
#    0.000    0.000    0.000    0.000    0.000    0.000 
#
# Total GULP energy -178937.416094 kJ/mol
# GULP energy per Si atom -5591.794253 kJ/mol
# Density = 2.144094 g / cm^3
# Si number density = 21.489857 Si / 1000 Ang^3
#
#
#
# Elastic Constant Matrix: (Units=GPa)
#
#
# Indices 1 2 3 4 5 6 
#
# 1 58.3990 -7.4950 -0.1776 0.0000 -7.9995 0.0000
# 2 -7.4950 90.6848 29.8096 0.0000 10.7845 0.0000
# 3 -0.1776 29.8096 54.1820 0.0000 11.2284 0.0000
# 4 0.0000 0.0000 0.0000 22.3809 0.0000 4.6450
# 5 -7.9995 10.7845 11.2284 0.0000 23.9593 0.0000
# 6 0.0000 0.0000 0.0000 4.6450 0.0000 44.6336
#
#
#
# Elastic Compliance Matrix: (Units=1/GPa)
#
#
# Indices 1 2 3 4 5 6 
#
# 1 0.018174 0.001414 -0.002042 0.000000 0.006389 0.000000
# 2 0.001414 0.013752 -0.007062 0.000000 -0.002408 0.000000
# 3 -0.002042 -0.007062 0.024164 0.000000 -0.008828 0.000000
# 4 0.000000 0.000000 0.000000 0.045667 0.000000 -0.004753
# 5 0.006389 -0.002408 -0.008828 0.000000 0.049092 0.000000
# 6 0.000000 0.000000 0.000000 -0.004753 0.000000 0.022899
#
#
# Mechanical properties :
#
#
# Convention : Reuss Voigt Hill
#
# Bulk Modulus (GPa) = 24.56474 27.50442 26.03458
# Shear Modulus (GPa) = 24.66706 30.27003 27.46854
#
# Velocity S-wave (km/s) = 3.39166 3.75717 3.57908
# Velocity P-wave (km/s) = 5.17625 5.62568 5.40564
#
# Compressibility (1/GPa) = 0.04070876
#
# Stress axis : x y z
#
# Youngs Moduli (GPa) = 55.02392 72.71712 41.38305
#
# Poissons Ratio (x) = -0.10279 0.08451
# Poissons Ratio (y) = -0.07778 0.29226
# Poissons Ratio (z) = 0.11236 0.51355
#
# Static dielectric constant tensor:
#      x y z
#    x 1.730890 0.000000 0.014710 
#    y 0.000000 1.790850 0.000000 
#    z 0.014710 0.000000 1.817010 
# 
# From -- ./inp_files/308286.got.cif
#   From: 2010.05.17/outbox.cif.g08.bks.cpg/sg15_155_cif.got.tgz:308286.got - 2010.06.03 18:47:42.
