data_PCOD9285479
_publ_section_title
;
Structure prediction by ZEFSAII (Michael W. Deem and Ramdas Pophale) SiO2 
 PCOD9285479
Probable space group: C 2/C
;
_chemical_formula_sum "Si O2"
_cell_formula_units_Z 40
_cell_length_a 11.950836
_cell_length_b 12.557543
_cell_length_c 30.633110
_cell_angle_alpha 90.000000
_cell_angle_beta 157.979078
_cell_angle_gamma 90.000000
_cell_volume 1723.700375
_symmetry_space_group_name_H-M "C 2/C"
_symmetry_group_IT_number 15
_symmetry_cell_setting 'monoclinic'
loop_
_space_group_symop_operation_xyz
x,y,z
-x,y,1/2-z
-x,-y,-z
x,-y,1/2+z
1/2+x,1/2+y,z
1/2-x,1/2+y,1/2-z
1/2-x,1/2-y,-z
1/2+x,1/2-y,1/2+z
loop_
_atom_site_type_symbol
_atom_site_label
_atom_site_fract_x
_atom_site_fract_y
_atom_site_fract_z
Si Si1 0.500000 0.431489 0.750000
Si Si2 0.514099 0.591723 0.469416
Si Si3 0.342204 0.589111 0.856544
Si Si4 0.429899 0.379310 0.288879
Si Si5 0.445485 0.227402 0.459388
Si Si6 0.000000 0.284673 0.750000
O O1 0.612324 0.511244 0.752621
O O2 0.269792 0.355393 0.641981
O O3 0.500000 0.500000 0.500000
O O4 0.532553 0.520526 0.432423
O O5 0.684818 0.696037 0.548811
O O6 0.186255 0.640986 0.348377
O O7 0.315447 0.613574 0.796154
O O8 0.502321 0.683716 0.941881
O O9 0.000000 0.581010 0.750000
O O10 0.303785 0.290493 0.210097
O O11 0.774883 0.340102 0.420845
#
# Coordination Sequence:
#
# PCOD9285479 Si02
#       6
#     4   8   8   8   8   4
#     4  11  22  43  64  90 120 157 208 253 296 366
#     4   9  19  35  62  86 121 155 197 250 296 357
#     4  11  21  40  62  93 122 160 203 250 300 363
#     4  10  23  39  64  87 124 164 198 251 307 358
#     4  10  21  42  62  88 121 160 204 251 302 357
#     4   9  18  39  60  84 122 163 198 239 310 358
#
# _framework density 23.205891000000001
#
# number of rings (size 3 to 8) (size 9 to 14) (size 15 to 20)
#    0.000    2.000    2.000    1.200    0.000    1.600 
#   10.800    1.000    0.000    0.000    0.000    0.000 
#    0.000    0.000    0.000    0.000    0.000    0.000 
#
# Total GULP energy -111341.719489 kJ/mol
# GULP energy per Si atom -5567.085974 kJ/mol
# Density = 2.315307 g / cm^3
# Si number density = 23.205891 Si / 1000 Ang^3
#
#
#
# Elastic Constant Matrix: (Units=GPa)
#
#
# Indices 1 2 3 4 5 6 
#
# 1 86.2237 24.9946 21.3365 -0.0103 -32.9701 0.0100
# 2 24.9946 153.6245 50.4308 0.0089 -8.1202 -0.0042
# 3 21.3365 50.4308 109.9955 0.0217 -15.8190 -0.0061
# 4 -0.0103 0.0089 0.0217 -53.0888 -0.0047 60.9206
# 5 -32.9701 -8.1202 -15.8190 -0.0047 28.2838 0.0051
# 6 0.0100 -0.0042 -0.0061 60.9206 0.0051 -60.0187
#
#
#
# Elastic Compliance Matrix: (Units=1/GPa)
#
#
# Indices 1 2 3 4 5 6 
#
# 1 0.021664 -0.002360 0.000450 -0.000001 0.024828 0.000005
# 2 -0.002360 0.007922 -0.003526 0.000002 -0.002449 0.000001
# 3 0.000450 -0.003526 0.011473 -0.000019 0.005930 -0.000020
# 4 -0.000001 0.000002 -0.000019 0.114321 -0.000013 0.116039
# 5 0.024828 -0.002449 0.005930 -0.000013 0.066911 -0.000004
# 6 0.000005 0.000001 -0.000020 0.116039 -0.000004 0.101122
#
#
# Mechanical properties :
#
#
# Convention : Reuss Voigt Hill
#
# Bulk Modulus (GPa) = 33.12707 60.37417 46.75062
# Shear Modulus (GPa) = 14.52024 -0.09260 7.21382
#
# Velocity S-wave (km/s) = 2.50414 -0.19997 1.76504
# Velocity P-wave (km/s) = 4.76101 5.10097 4.93392
#
# Compressibility (1/GPa) = 0.03018679
#
# Stress axis : x y z
#
# Youngs Moduli (GPa) = 46.15940 126.23863 87.15793
#
# Poissons Ratio (x) = 0.29796 -0.03926
# Poissons Ratio (y) = 0.10895 0.30734
# Poissons Ratio (z) = -0.02079 0.44515
#
# Static dielectric constant tensor:
#      x y z
#    x 1.926380 0.000000 -0.027180 
#    y 0.000000 1.940030 0.000000 
#    z -0.027180 0.000000 1.966700 
# 
# From -- ./inp_files/141858.got.cif
#   From: 2010.05.17/outbox.cif.g08.bks.cpg/sg15_71_cif.got.tgz:141858.got - 2010.06.03 18:47:42.
