data_PCOD9285898
_publ_section_title
;
Structure prediction by ZEFSAII (Michael W. Deem and Ramdas Pophale) SiO2 
 PCOD9285898
Probable space group: C 2/C
;
_chemical_formula_sum "Si O2"
_cell_formula_units_Z 40
_cell_length_a 12.415491
_cell_length_b 20.475159
_cell_length_c 11.700321
_cell_angle_alpha 90.000000
_cell_angle_beta 39.025881
_cell_angle_gamma 90.000000
_cell_volume 1872.849618
_symmetry_space_group_name_H-M "C 2/C"
_symmetry_group_IT_number 15
_symmetry_cell_setting 'monoclinic'
loop_
_space_group_symop_operation_xyz
x,y,z
-x,y,1/2-z
-x,-y,-z
x,-y,1/2+z
1/2+x,1/2+y,z
1/2-x,1/2+y,1/2-z
1/2-x,1/2-y,-z
1/2+x,1/2-y,1/2+z
loop_
_atom_site_type_symbol
_atom_site_label
_atom_site_fract_x
_atom_site_fract_y
_atom_site_fract_z
Si Si1 0.309439 0.694641 0.864967
Si Si2 0.306787 0.930324 0.924694
Si Si3 0.831964 0.192186 0.592330
Si Si4 0.000000 0.972780 0.750000
Si Si5 0.569444 0.573614 0.420402
Si Si6 0.500000 0.776243 0.250000
O O1 0.500000 0.676231 0.750000
O O2 0.302428 0.723156 0.742203
O O3 0.250000 0.750000 0.000000
O O4 0.197586 0.630031 0.983123
O O5 0.500000 0.954940 0.750000
O O6 0.231806 0.909439 0.862665
O O7 0.159172 0.981182 0.083345
O O8 0.655317 0.181872 0.671535
O O9 0.921896 0.126017 0.559828
O O10 0.940017 0.232615 0.408929
O O11 0.089027 0.926682 0.769237
O O12 0.500000 0.500000 0.500000
#
# Coordination Sequence:
#
# PCOD9285898 Si02
#       6
#     8   8   8   4   8   4
#     4  12  22  39  64  95 134 179 221 279 344 404
#     4  11  23  42  65  98 137 176 233 285 341 422
#     4  11  22  45  66  98 141 180 236 290 353 427
#     4  10  21  44  68  94 132 187 226 288 352 400
#     4  10  21  42  68  91 137 180 224 295 347 405
#     4  10  25  42  70 100 136 185 234 292 356 434
#
# _framework density 21.357828000000001
#
# number of rings (size 3 to 8) (size 9 to 14) (size 15 to 20)
#    0.000    1.200    3.000    3.600    0.000    0.800 
#   14.400    0.000    0.000    0.000    0.000    0.000 
#    0.000    0.000    0.000    0.000    0.000    0.000 
#
# Total GULP energy -111476.626982 kJ/mol
# GULP energy per Si atom -5573.831349 kJ/mol
# Density = 2.130922 g / cm^3
# Si number density = 21.357828 Si / 1000 Ang^3
#
#
#
# Elastic Constant Matrix: (Units=GPa)
#
#
# Indices 1 2 3 4 5 6 
#
# 1 156.7913 14.7116 53.9981 -0.0003 2.6293 0.0001
# 2 14.7116 30.3241 13.3715 -0.0005 -3.0148 0.0003
# 3 53.9981 13.3715 102.9118 -0.0007 -2.0878 0.0006
# 4 -0.0003 -0.0005 -0.0007 4.1214 0.0005 19.7491
# 5 2.6293 -3.0148 -2.0878 0.0005 62.0495 -0.0003
# 6 0.0001 0.0003 0.0006 19.7491 -0.0003 -9.7792
#
#
#
# Elastic Compliance Matrix: (Units=1/GPa)
#
#
# Indices 1 2 3 4 5 6 
#
# 1 0.007932 -0.002190 -0.003889 0.000000 -0.000573 0.000000
# 2 -0.002190 0.035735 -0.003459 0.000000 0.001713 0.000001
# 3 -0.003889 -0.003459 0.012215 0.000000 0.000408 0.000000
# 4 0.000000 0.000000 0.000000 0.022725 0.000000 0.045893
# 5 -0.000573 0.001713 0.000408 0.000000 0.016237 0.000000
# 6 0.000000 0.000001 0.000000 0.045893 0.000000 -0.009577
#
#
# Mechanical properties :
#
#
# Convention : Reuss Voigt Hill
#
# Bulk Modulus (GPa) = 27.16964 50.46549 38.81757
# Shear Modulus (GPa) = 42.87648 25.14143 34.00895
#
# Velocity S-wave (km/s) = 4.48541 3.43469 3.99474
# Velocity P-wave (km/s) = 6.29078 6.27768 6.28424
#
# Compressibility (1/GPa) = 0.03680579
#
# Stress axis : x y z
#
# Youngs Moduli (GPa) = 126.06401 27.98353 81.86351
#
# Poissons Ratio (x) = 0.06130 0.31838
# Poissons Ratio (y) = 0.27614 0.28317
# Poissons Ratio (z) = 0.49029 0.09680
#
# Static dielectric constant tensor:
#      x y z
#    x 2.348160 0.000010 0.635550 
#    y 0.000010 1.721890 0.000010 
#    z 0.635550 0.000010 2.498040 
# 
# From -- ./inp_files/89364.got.cif
#   From: 2010.05.17/outbox.cif.g08.bks.cpg/sg15_45_cif.got.tgz:89364.got - 2010.06.03 18:47:42.
