data_PCOD9285051
_publ_section_title
;
Structure prediction by ZEFSAII (Michael W. Deem and Ramdas Pophale) SiO2 
 PCOD9285051
Probable space group: C 2/C
;
_chemical_formula_sum "Si O2"
_cell_formula_units_Z 60
_cell_length_a 20.372772
_cell_length_b 24.115709
_cell_length_c 7.962409
_cell_angle_alpha 90.000000
_cell_angle_beta 138.971279
_cell_angle_gamma 90.000000
_cell_volume 2567.957716
_symmetry_space_group_name_H-M "C 2/C"
_symmetry_group_IT_number 15
_symmetry_cell_setting 'monoclinic'
loop_
_space_group_symop_operation_xyz
x,y,z
-x,y,1/2-z
-x,-y,-z
x,-y,1/2+z
1/2+x,1/2+y,z
1/2-x,1/2+y,1/2-z
1/2-x,1/2-y,-z
1/2+x,1/2-y,1/2+z
loop_
_atom_site_type_symbol
_atom_site_label
_atom_site_fract_x
_atom_site_fract_y
_atom_site_fract_z
Si Si1 0.959220 0.166735 0.939183
Si Si2 0.272292 0.715693 0.712615
Si Si3 0.840826 0.812131 0.860262
Si Si4 0.706832 0.483784 0.070336
Si Si5 0.980022 0.566296 0.953776
Si Si6 0.341526 0.900735 0.505499
Si Si7 0.787180 0.580508 0.401007
Si Si8 0.500000 0.436325 0.750000
O O1 0.890670 0.202642 0.934992
O O2 0.896827 0.171621 0.644213
O O3 0.968991 0.105744 0.039504
O O4 0.070902 0.186240 0.106634
O O5 0.250000 0.750000 0.500000
O O6 0.217262 0.754115 0.741743
O O7 0.216260 0.656915 0.606294
O O8 0.756952 0.858597 0.673977
O O9 0.762181 0.449305 0.324558
O O10 0.744790 0.546085 0.162903
O O11 0.739434 0.452307 0.966265
O O12 0.590354 0.475012 0.869137
O O13 0.912911 0.588547 0.981177
O O14 0.906100 0.576829 0.655705
O O15 0.000000 0.500000 0.000000
O O16 0.085855 0.594929 0.194373
#
# Coordination Sequence:
#
# PCOD9285051 Si02
#       8
#     8   8   8   8   8   8   8   4
#     4  10  22  42  69  96 144 179 230 296 356 421
#     4  10  22  43  74 102 139 195 237 301 362 432
#     4  10  23  45  70 103 143 187 245 292 359 433
#     4  11  24  39  66  97 140 181 235 286 365 424
#     4  10  21  41  67  97 134 183 238 294 362 432
#     4  10  21  41  66  97 136 185 231 289 365 424
#     4  11  24  42  67 103 138 189 231 302 356 432
#     4  12  22  40  64 102 130 186 232 280 358 430
#
# _framework density 23.364868999999999
#
# number of rings (size 3 to 8) (size 9 to 14) (size 15 to 20)
#    0.000    1.600    4.000    0.000    1.867    5.867 
#    0.000    8.667    0.000    0.000    0.000    0.000 
#    0.000    0.000    0.000    0.000    0.000    0.000 
#
# Total GULP energy -167723.294316 kJ/mol
# GULP energy per Si atom -5590.776477 kJ/mol
# Density = 2.331169 g / cm^3
# Si number density = 23.364869 Si / 1000 Ang^3
#
#
#
# Elastic Constant Matrix: (Units=GPa)
#
#
# Indices 1 2 3 4 5 6 
#
# 1 109.9722 35.5696 43.2859 0.0000 22.1748 0.0000
# 2 35.5696 123.9224 17.2364 0.0000 37.1078 0.0000
# 3 43.2859 17.2364 71.6103 0.0000 24.4648 0.0000
# 4 0.0000 0.0000 0.0000 16.5092 0.0000 2.5842
# 5 22.1748 37.1078 24.4648 0.0000 59.8005 0.0000
# 6 0.0000 0.0000 0.0000 2.5842 0.0000 31.2262
#
#
#
# Elastic Compliance Matrix: (Units=1/GPa)
#
#
# Indices 1 2 3 4 5 6 
#
# 1 0.012737 -0.002611 -0.006987 0.000000 -0.000244 0.000000
# 2 -0.002611 0.010453 0.001101 0.000000 -0.005969 0.000000
# 3 -0.006987 0.001101 0.020077 0.000000 -0.006306 0.000000
# 4 0.000000 0.000000 0.000000 0.061367 0.000000 -0.005079
# 5 -0.000244 -0.005969 -0.006306 0.000000 0.023097 0.000000
# 6 0.000000 0.000000 0.000000 -0.005079 0.000000 0.032445
#
#
# Mechanical properties :
#
#
# Convention : Reuss Voigt Hill
#
# Bulk Modulus (GPa) = 38.06029 55.29876 46.67952
# Shear Modulus (GPa) = 26.89210 35.46803 31.18007
#
# Velocity S-wave (km/s) = 3.39627 3.90039 3.65702
# Velocity P-wave (km/s) = 5.63066 6.63347 6.15253
#
# Compressibility (1/GPa) = 0.02627411
#
# Stress axis : x y z
#
# Youngs Moduli (GPa) = 78.51005 95.66511 49.80726
#
# Poissons Ratio (x) = 0.24977 0.34802
# Poissons Ratio (y) = 0.20498 -0.05486
# Poissons Ratio (z) = 0.54857 -0.10536
#
# Static dielectric constant tensor:
#      x y z
#    x 4.141850 0.000000 -0.989560 
#    y 0.000000 1.804050 0.000000 
#    z -0.989560 0.000000 2.307210 
# 
# From -- ./inp_files/58774.got.cif
#   From: 2010.05.17/outbox.cif.g08.bks.cpg/sg15_30_cif.got.tgz:58774.got - 2010.06.03 18:47:42.
