data_PCOD9285503
_publ_section_title
;
Structure prediction by ZEFSAII (Michael W. Deem and Ramdas Pophale) SiO2 
 PCOD9285503
Probable space group: C 2/C
;
_chemical_formula_sum "Si O2"
_cell_formula_units_Z 64
_cell_length_a 18.680291
_cell_length_b 8.170407
_cell_length_c 19.103611
_cell_angle_alpha 90.000000
_cell_angle_beta 92.235389
_cell_angle_gamma 90.000000
_cell_volume 2913.480913
_symmetry_space_group_name_H-M "C 2/C"
_symmetry_group_IT_number 15
_symmetry_cell_setting 'monoclinic'
loop_
_space_group_symop_operation_xyz
x,y,z
-x,y,1/2-z
-x,-y,-z
x,-y,1/2+z
1/2+x,1/2+y,z
1/2-x,1/2+y,1/2-z
1/2-x,1/2-y,-z
1/2+x,1/2-y,1/2+z
loop_
_atom_site_type_symbol
_atom_site_label
_atom_site_fract_x
_atom_site_fract_y
_atom_site_fract_z
Si Si1 0.781730 0.409261 0.963055
Si Si2 0.285730 0.459839 0.913663
Si Si3 0.055119 0.737171 0.393426
Si Si4 0.162518 0.827408 0.197574
Si Si5 0.412500 0.050848 0.382353
Si Si6 0.018371 0.029278 0.178051
Si Si7 0.069559 0.197502 0.054449
Si Si8 0.211403 0.836763 0.355851
O O1 0.863837 0.377523 0.944335
O O2 0.737931 0.499727 0.898084
O O3 0.750000 0.250000 0.000000
O O4 0.771234 0.537106 0.025945
O O5 0.285356 0.619185 0.863968
O O6 0.364032 0.428319 0.949240
O O7 0.270832 0.302087 0.866553
O O8 0.043223 0.772632 0.475302
O O9 0.139838 0.750079 0.384237
O O10 0.996644 0.593336 0.379748
O O11 0.030140 0.871744 0.335967
O O12 0.128106 0.646612 0.182993
O O13 0.197791 0.857900 0.273271
O O14 0.098004 0.957311 0.187175
O O15 0.407246 0.861175 0.402702
O O16 0.011760 0.124464 0.105451
O O17 0.000000 0.116360 0.250000
#
# Coordination Sequence:
#
# PCOD9285503 Si02
#       8
#     8   8   8   8   8   8   8   8
#     4  12  24  43  67  97 128 172 222 279 327 390
#     4  11  23  40  67  94 132 169 223 274 335 386
#     4  11  23  42  70  96 131 180 223 272 335 409
#     4  10  24  42  65  96 131 177 214 274 335 398
#     4  11  24  44  67  99 139 165 224 288 335 387
#     4  10  21  42  62  95 133 174 220 271 333 403
#     4  11  22  41  68  95 130 176 223 278 331 399
#     4  12  24  42  70  95 133 179 225 265 338 411
#
# _framework density 21.966849
#
# number of rings (size 3 to 8) (size 9 to 14) (size 15 to 20)
#    0.000    1.000    5.000    1.875    1.750    1.000 
#    2.250    1.250    0.000    0.000    0.000    0.000 
#    0.000    0.000    0.000    0.000    0.000    0.000 
#
# Total GULP energy -178145.062428 kJ/mol
# GULP energy per Si atom -5567.033201 kJ/mol
# Density = 2.191685 g / cm^3
# Si number density = 21.966849 Si / 1000 Ang^3
#
#
#
# Elastic Constant Matrix: (Units=GPa)
#
#
# Indices 1 2 3 4 5 6 
#
# 1 65.7764 1.9380 3.9923 0.0000 -4.6015 0.0000
# 2 1.9380 57.2302 3.3832 0.0000 8.9119 0.0000
# 3 3.9923 3.3832 113.9924 0.0000 12.1421 0.0000
# 4 0.0000 0.0000 0.0000 9.6414 0.0000 -12.3170
# 5 -4.6015 8.9119 12.1421 0.0000 37.7671 0.0000
# 6 0.0000 0.0000 0.0000 -12.3170 0.0000 4.1923
#
#
#
# Elastic Compliance Matrix: (Units=1/GPa)
#
#
# Indices 1 2 3 4 5 6 
#
# 1 0.015437 -0.000840 -0.000763 0.000000 0.002324 0.000000
# 2 -0.000840 0.018186 -0.000044 0.000000 -0.004380 0.000000
# 3 -0.000763 -0.000044 0.009122 0.000000 -0.003015 0.000000
# 4 0.000000 0.000000 0.000000 -0.037671 0.000000 -0.110677
# 5 0.002324 -0.004380 -0.003015 0.000000 0.028764 0.000000
# 6 0.000000 0.000000 0.000000 -0.110677 0.000000 -0.086635
#
#
# Mechanical properties :
#
#
# Convention : Reuss Voigt Hill
#
# Bulk Modulus (GPa) = 25.34769 28.40289 26.87529
# Shear Modulus (GPa) = -137.53991 25.49920 -56.02036
#
# Velocity S-wave (km/s) = -7.92139 3.41075 -5.05545
# Velocity P-wave (km/s) = 8.49120 5.33563 4.67073
#
# Compressibility (1/GPa) = 0.03945133
#
# Stress axis : x y z
#
# Youngs Moduli (GPa) = 64.78071 54.98648 109.62831
#
# Poissons Ratio (x) = 0.04616 0.08368
# Poissons Ratio (y) = 0.05439 0.00481
# Poissons Ratio (z) = 0.04945 0.00241
#
# Static dielectric constant tensor:
#      x y z
#    x 1.954130 0.000000 -0.032230 
#    y 0.000000 1.902490 0.000000 
#    z -0.032230 0.000000 1.821680 
# 
# From -- ./inp_files/213901.got.cif
#   From: 2010.05.17/outbox.cif.g08.bks.cpg/sg15_107_cif.got.tgz:213901.got - 2010.06.03 18:47:42.
