data_PCOD9285399
_publ_section_title
;
Structure prediction by ZEFSAII (Michael W. Deem and Ramdas Pophale) SiO2 
 PCOD9285399
Probable space group: C 2/C
;
_chemical_formula_sum "Si O2"
_cell_formula_units_Z 36
_cell_length_a 13.303459
_cell_length_b 22.315971
_cell_length_c 13.052887
_cell_angle_alpha 90.000000
_cell_angle_beta 158.438472
_cell_angle_gamma 90.000000
_cell_volume 1424.113075
_symmetry_space_group_name_H-M "C 2/C"
_symmetry_group_IT_number 15
_symmetry_cell_setting 'monoclinic'
loop_
_space_group_symop_operation_xyz
x,y,z
-x,y,1/2-z
-x,-y,-z
x,-y,1/2+z
1/2+x,1/2+y,z
1/2-x,1/2+y,1/2-z
1/2-x,1/2-y,-z
1/2+x,1/2-y,1/2+z
loop_
_atom_site_type_symbol
_atom_site_label
_atom_site_fract_x
_atom_site_fract_y
_atom_site_fract_z
Si Si1 0.206191 0.086459 0.643355
Si Si2 0.563116 0.785945 0.689521
Si Si3 0.500000 0.993386 0.250000
Si Si4 0.508132 0.714382 0.134527
Si Si5 0.674194 0.918460 0.746914
O O1 0.390306 0.056396 0.729713
O O2 0.128342 0.153694 0.534982
O O3 0.905621 0.060860 0.386099
O O4 0.381506 0.077576 0.913113
O O5 0.500000 0.790776 0.750000
O O6 0.269464 0.768842 0.367467
O O7 0.703641 0.847961 0.794008
O O8 0.321238 0.045084 0.142981
O O9 0.500000 0.711265 0.250000
O O10 0.826914 0.729843 0.421942
#
# Coordination Sequence:
#
# PCOD9285399 Si02
#       5
#     8   8   4   8   8
#     4  12  29  46  80 109 145 195 257 299 375 443
#     4  10  21  41  73 107 145 189 232 297 376 439
#     4  12  30  54  74 102 156 202 248 326 352 436
#     4  10  23  44  75 110 149 190 234 299 380 443
#     4  12  27  50  74 113 144 198 252 304 373 442
#
# _framework density 25.278894000000001
#
# number of rings (size 3 to 8) (size 9 to 14) (size 15 to 20)
#    0.000    0.889    1.111    4.000    7.778    8.000 
#    0.000    0.000    0.000    0.000    0.000    0.000 
#    0.000    0.000    0.000    0.000    0.000    0.000 
#
# Total GULP energy -100210.802951 kJ/mol
# GULP energy per Si atom -5567.266831 kJ/mol
# Density = 2.522136 g / cm^3
# Si number density = 25.278894 Si / 1000 Ang^3
#
#
#
# Elastic Constant Matrix: (Units=GPa)
#
#
# Indices 1 2 3 4 5 6 
#
# 1 190.1459 82.1114 37.1487 0.0008 23.5542 0.0016
# 2 82.1114 237.5451 64.5913 0.0006 14.4591 0.0009
# 3 37.1487 64.5913 133.9816 0.0025 14.9314 0.0040
# 4 0.0008 0.0006 0.0025 -10.7651 -0.0001 22.7132
# 5 23.5542 14.4591 14.9314 -0.0001 34.3754 0.0023
# 6 0.0016 0.0009 0.0040 22.7132 0.0023 26.3053
#
#
#
# Elastic Compliance Matrix: (Units=1/GPa)
#
#
# Indices 1 2 3 4 5 6 
#
# 1 0.006631 -0.001939 -0.000513 0.000000 -0.003505 0.000000
# 2 -0.001939 0.005450 -0.002083 0.000000 -0.000059 0.000000
# 3 -0.000513 -0.002083 0.008904 0.000000 -0.002640 -0.000001
# 4 0.000000 0.000000 0.000000 -0.032920 -0.000002 0.028425
# 5 -0.003505 -0.000059 -0.002640 -0.000002 0.032664 0.000000
# 6 0.000000 0.000000 -0.000001 0.028425 0.000000 0.013472
#
#
# Mechanical properties :
#
#
# Convention : Reuss Voigt Hill
#
# Bulk Modulus (GPa) = 83.93109 103.26394 93.59751
# Shear Modulus (GPa) = 105.83378 35.17119 70.50248
#
# Velocity S-wave (km/s) = 6.47745 3.73410 5.28681
# Velocity P-wave (km/s) = 9.44549 7.71556 8.62401
#
# Compressibility (1/GPa) = 0.01191454
#
# Stress axis : x y z
#
# Youngs Moduli (GPa) = 150.80747 183.48342 112.30329
#
# Poissons Ratio (x) = 0.35582 0.05762
# Poissons Ratio (y) = 0.29245 0.23395
# Poissons Ratio (z) = 0.07737 0.38223
#
# Static dielectric constant tensor:
#      x y z
#    x 2.038770 0.000000 -0.027920 
#    y 0.000000 1.985920 0.000000 
#    z -0.027920 0.000000 1.930780 
# 
# From -- ./inp_files/156875.got.cif
#   From: 2010.05.17/outbox.cif.g08.bks.cpg/sg15_79_cif.got.tgz:156875.got - 2010.06.03 18:47:42.
