data_PCOD9285366
_publ_section_title
;
Structure prediction by ZEFSAII (Michael W. Deem and Ramdas Pophale) SiO2 
 PCOD9285366
Probable space group: C 2/C
;
_chemical_formula_sum "Si O2"
_cell_formula_units_Z 44
_cell_length_a 20.605966
_cell_length_b 21.209721
_cell_length_c 10.625097
_cell_angle_alpha 90.000000
_cell_angle_beta 156.152633
_cell_angle_gamma 90.000000
_cell_volume 1877.440838
_symmetry_space_group_name_H-M "C 2/C"
_symmetry_group_IT_number 15
_symmetry_cell_setting 'monoclinic'
loop_
_space_group_symop_operation_xyz
x,y,z
-x,y,1/2-z
-x,-y,-z
x,-y,1/2+z
1/2+x,1/2+y,z
1/2-x,1/2+y,1/2-z
1/2-x,1/2-y,-z
1/2+x,1/2-y,1/2+z
loop_
_atom_site_type_symbol
_atom_site_label
_atom_site_fract_x
_atom_site_fract_y
_atom_site_fract_z
Si Si1 0.886390 0.782983 0.433006
Si Si2 0.183039 0.621831 0.676738
Si Si3 0.740775 0.577231 0.428346
Si Si4 0.000000 0.338163 0.250000
Si Si5 0.443945 0.637171 0.786266
Si Si6 0.330166 0.065573 0.098371
O O1 0.713148 0.808682 0.172367
O O2 0.917605 0.708719 0.501491
O O3 0.928973 0.810655 0.371438
O O4 0.000000 0.806088 0.750000
O O5 0.246225 0.578972 0.674522
O O6 0.004130 0.597930 0.393314
O O7 0.279351 0.610071 0.973347
O O8 0.817738 0.508938 0.589938
O O9 0.867382 0.618980 0.577412
O O10 0.573166 0.584174 0.059081
O O11 0.500000 0.661249 0.750000
O O12 0.274428 0.601036 0.483796
#
# Coordination Sequence:
#
# PCOD9285366 Si02
#       6
#     8   8   8   4   8   8
#     4   9  20  46  69  97 129 178 239 281 338 407
#     4  10  21  41  71  94 136 176 226 287 345 407
#     4  12  23  41  70 101 139 184 229 280 348 424
#     4  10  24  40  76 102 128 178 250 282 334 422
#     4  11  25  42  68 103 145 183 230 287 351 409
#     4  10  24  41  66 108 141 176 223 289 357 420
#
# _framework density 23.436157000000001
#
# number of rings (size 3 to 8) (size 9 to 14) (size 15 to 20)
#    0.545    1.091    1.818    2.182    5.091    2.909 
#    0.000    0.909   12.000    0.000    0.000    0.000 
#    0.000    0.000    0.000    0.000    0.000    0.000 
#
# Total GULP energy -122794.497183 kJ/mol
# GULP energy per Si atom -5581.568054 kJ/mol
# Density = 2.338281 g / cm^3
# Si number density = 23.436157 Si / 1000 Ang^3
#
#
#
# Elastic Constant Matrix: (Units=GPa)
#
#
# Indices 1 2 3 4 5 6 
#
# 1 155.2361 59.4315 34.6696 0.0000 2.9844 0.0000
# 2 59.4315 124.9414 47.8873 0.0000 27.5010 0.0000
# 3 34.6696 47.8873 61.2213 0.0000 11.0272 0.0000
# 4 0.0000 0.0000 0.0000 18.8290 0.0000 -5.8918
# 5 2.9844 27.5010 11.0272 0.0000 36.6073 0.0000
# 6 0.0000 0.0000 0.0000 -5.8918 0.0000 14.3053
#
#
#
# Elastic Compliance Matrix: (Units=1/GPa)
#
#
# Indices 1 2 3 4 5 6 
#
# 1 0.008317 -0.003673 -0.002339 0.000000 0.002786 0.000000
# 2 -0.003673 0.014577 -0.007828 0.000000 -0.008293 0.000000
# 3 -0.002339 -0.007828 0.023990 0.000000 -0.001155 0.000000
# 4 0.000000 0.000000 0.000000 0.060967 0.000000 0.025110
# 5 0.002786 -0.008293 -0.001155 0.000000 0.033668 0.000000
# 6 0.000000 0.000000 0.000000 0.025110 0.000000 0.080246
#
#
# Mechanical properties :
#
#
# Convention : Reuss Voigt Hill
#
# Bulk Modulus (GPa) = 52.07285 69.48618 60.77951
# Shear Modulus (GPa) = 19.54317 27.24233 23.39275
#
# Velocity S-wave (km/s) = 2.89085 3.41311 3.16278
# Velocity P-wave (km/s) = 5.78013 6.72651 6.27120
#
# Compressibility (1/GPa) = 0.01920387
#
# Stress axis : x y z
#
# Youngs Moduli (GPa) = 120.24046 68.60318 41.68457
#
# Poissons Ratio (x) = 0.25197 0.09748
# Poissons Ratio (y) = 0.44163 0.32631
# Poissons Ratio (z) = 0.28119 0.53703
#
# Static dielectric constant tensor:
#      x y z
#    x 1.889070 0.000000 0.014390 
#    y 0.000000 1.937300 0.000000 
#    z 0.014390 0.000000 2.071370 
# 
# From -- ./inp_files/114147.got.cif
#   From: 2010.05.17/outbox.cif.g08.bks.cpg/sg15_58_cif.got.tgz:114147.got - 2010.06.03 18:47:42.
