data_PCOD9285680
_publ_section_title
;
Structure prediction by ZEFSAII (Michael W. Deem and Ramdas Pophale) SiO2 
 PCOD9285680
Probable space group: C 2/C
;
_chemical_formula_sum "Si O2"
_cell_formula_units_Z 48
_cell_length_a 24.505015
_cell_length_b 16.427404
_cell_length_c 5.094768
_cell_angle_alpha 90.000000
_cell_angle_beta 67.208598
_cell_angle_gamma 90.000000
_cell_volume 1890.785089
_symmetry_space_group_name_H-M "C 2/C"
_symmetry_group_IT_number 15
_symmetry_cell_setting 'monoclinic'
loop_
_space_group_symop_operation_xyz
x,y,z
-x,y,1/2-z
-x,-y,-z
x,-y,1/2+z
1/2+x,1/2+y,z
1/2-x,1/2+y,1/2-z
1/2-x,1/2-y,-z
1/2+x,1/2-y,1/2+z
loop_
_atom_site_type_symbol
_atom_site_label
_atom_site_fract_x
_atom_site_fract_y
_atom_site_fract_z
Si Si1 0.000000 0.674796 0.750000
Si Si2 0.390176 0.188103 0.274442
Si Si3 0.163127 0.453376 0.292328
Si Si4 0.943373 0.185076 0.029519
Si Si5 0.806594 0.951042 0.042619
Si Si6 0.291199 0.733962 0.671846
Si Si7 0.500000 0.558786 0.250000
O O1 0.960784 0.732375 0.641352
O O2 0.049740 0.645726 0.448928
O O3 0.360587 0.128922 0.539496
O O4 0.397874 0.277804 0.400862
O O5 0.344926 0.205007 0.121975
O O6 0.143886 0.477810 0.038345
O O7 0.234623 0.453584 0.164256
O O8 0.945515 0.118643 0.261572
O O9 0.000000 0.159706 0.750000
O O10 0.816572 0.857035 0.091431
O O11 0.828032 0.013885 0.225270
O O12 0.250000 0.750000 0.500000
O O13 0.250000 0.750000 0.000000
O O14 0.500000 0.500000 0.500000
#
# Coordination Sequence:
#
# PCOD9285680 Si02
#       7
#     4   8   8   8   8   8   4
#     4   9  22  40  70  96 135 184 238 291 350 410
#     4  11  24  43  71 100 145 182 250 291 360 438
#     4  10  23  39  66  99 134 182 228 286 357 419
#     4   9  20  41  65  97 128 187 229 287 344 412
#     4  10  21  42  65  95 140 182 226 288 360 424
#     4  12  26  42  70 110 138 184 243 299 359 434
#     4  11  20  38  68 102 133 170 234 295 362 434
#
# _framework density 25.386281
#
# number of rings (size 3 to 8) (size 9 to 14) (size 15 to 20)
#    0.000    1.667    2.500    1.000    9.333    0.000 
#    0.000    2.500    0.000    0.000    0.000    0.000 
#    0.000    0.000    0.000    0.000    0.000    0.000 
#
# Total GULP energy -133978.959727 kJ/mol
# GULP energy per Si atom -5582.456655 kJ/mol
# Density = 2.532850 g / cm^3
# Si number density = 25.386281 Si / 1000 Ang^3
#
#
#
# Elastic Constant Matrix: (Units=GPa)
#
#
# Indices 1 2 3 4 5 6 
#
# 1 101.7022 27.5026 42.1862 0.0000 14.2995 0.0000
# 2 27.5026 112.4820 8.8369 0.0000 12.3701 0.0000
# 3 42.1862 8.8369 110.4332 0.0000 21.3581 0.0000
# 4 0.0000 0.0000 0.0000 33.4943 0.0000 21.5031
# 5 14.2995 12.3701 21.3581 0.0000 37.0266 0.0000
# 6 0.0000 0.0000 0.0000 21.5031 0.0000 22.0241
#
#
#
# Elastic Compliance Matrix: (Units=1/GPa)
#
#
# Indices 1 2 3 4 5 6 
#
# 1 0.012513 -0.002557 -0.004284 0.000000 -0.001507 0.000000
# 2 -0.002557 0.009755 0.000715 0.000000 -0.002684 0.000000
# 3 -0.004284 0.000715 0.011662 0.000000 -0.005311 0.000000
# 4 0.000000 0.000000 0.000000 0.080000 0.000000 -0.078108
# 5 -0.001507 -0.002684 -0.005311 0.000000 0.031550 0.000000
# 6 0.000000 0.000000 0.000000 -0.078108 0.000000 0.121665
#
#
# Mechanical properties :
#
#
# Convention : Reuss Voigt Hill
#
# Bulk Modulus (GPa) = 46.13031 53.51876 49.82454
# Shear Modulus (GPa) = 17.44456 34.91511 26.17984
#
# Velocity S-wave (km/s) = 2.62423 3.71260 3.21481
# Velocity P-wave (km/s) = 5.23382 6.28533 5.78352
#
# Compressibility (1/GPa) = 0.02167772
#
# Stress axis : x y z
#
# Youngs Moduli (GPa) = 79.91659 102.51643 85.75044
#
# Poissons Ratio (x) = 0.26216 0.36735
# Poissons Ratio (y) = 0.20437 -0.06135
# Poissons Ratio (z) = 0.34236 -0.07334
#
# Static dielectric constant tensor:
#      x y z
#    x 1.767410 0.000000 -0.335490 
#    y 0.000000 2.042270 0.000000 
#    z -0.335490 0.000000 1.966960 
# 
# From -- ./inp_files/15433.got.cif
#   From: 2010.05.17/outbox.cif.g08.bks.cpg/sg15_8_cif.got.tgz:15433.got - 2010.06.03 18:47:42.
