data_PCOD9285417
_publ_section_title
;
Structure prediction by ZEFSAII (Michael W. Deem and Ramdas Pophale) SiO2 
 PCOD9285417
Probable space group: C 2/C
;
_chemical_formula_sum "Si O2"
_cell_formula_units_Z 36
_cell_length_a 10.371612
_cell_length_b 27.867603
_cell_length_c 14.863970
_cell_angle_alpha 90.000000
_cell_angle_beta 27.467240
_cell_angle_gamma 90.000000
_cell_volume 1981.567869
_symmetry_space_group_name_H-M "C 2/C"
_symmetry_group_IT_number 15
_symmetry_cell_setting 'monoclinic'
loop_
_space_group_symop_operation_xyz
x,y,z
-x,y,1/2-z
-x,-y,-z
x,-y,1/2+z
1/2+x,1/2+y,z
1/2-x,1/2+y,1/2-z
1/2-x,1/2-y,-z
1/2+x,1/2-y,1/2+z
loop_
_atom_site_type_symbol
_atom_site_label
_atom_site_fract_x
_atom_site_fract_y
_atom_site_fract_z
Si Si1 0.276025 0.063906 0.314067
Si Si2 0.694582 0.113343 0.396793
Si Si3 0.352467 0.950968 0.246465
Si Si4 0.500000 0.782952 0.750000
Si Si5 0.687184 0.188855 0.943915
O O1 0.500000 0.078923 0.250000
O O2 0.277989 0.093727 0.221495
O O3 0.969213 0.064902 0.548039
O O4 0.346874 0.008742 0.242988
O O5 0.522680 0.075123 0.562847
O O6 0.514313 0.161861 0.499182
O O7 0.000000 0.120214 0.250000
O O8 0.500000 0.939303 0.250000
O O9 0.430455 0.811913 0.882058
O O10 0.753350 0.745279 0.612385
O O11 0.000000 0.166802 0.750000
#
# Coordination Sequence:
#
# PCOD9285417 Si02
#       5
#     8   8   8   4   8
#     4  10  23  38  61  82 113 165 208 239 285 345
#     4  12  24  37  57  93 124 150 194 249 297 346
#     4  10  21  42  56  80 124 164 196 243 295 336
#     4   8  18  42  64  84 116 144 194 244 286 356
#     4   9  20  38  64  86 111 151 191 238 295 348
#
# _framework density 18.167432000000002
#
# number of rings (size 3 to 8) (size 9 to 14) (size 15 to 20)
#    0.667    1.333    2.222    0.667    4.667    0.000 
#    0.000    1.111    0.000    0.000    0.000    0.000 
#    0.000    0.000    0.000    0.000    0.000    0.000 
#
# Total GULP energy -100378.997813 kJ/mol
# GULP energy per Si atom -5576.610990 kJ/mol
# Density = 1.812608 g / cm^3
# Si number density = 18.167432 Si / 1000 Ang^3
#
#
#
# Elastic Constant Matrix: (Units=GPa)
#
#
# Indices 1 2 3 4 5 6 
#
# 1 122.0368 40.2301 66.7834 0.0000 -23.0962 0.0000
# 2 40.2301 54.5668 41.7834 0.0000 -7.5252 0.0000
# 3 66.7834 41.7834 110.5642 0.0000 -14.2530 0.0000
# 4 0.0000 0.0000 0.0000 -9.6532 0.0000 -8.8907
# 5 -23.0962 -7.5252 -14.2530 0.0000 38.4532 0.0000
# 6 0.0000 0.0000 0.0000 -8.8907 0.0000 17.3626
#
#
#
# Elastic Compliance Matrix: (Units=1/GPa)
#
#
# Indices 1 2 3 4 5 6 
#
# 1 0.014126 -0.005170 -0.005897 0.000000 0.005287 0.000000
# 2 -0.005170 0.027764 -0.007424 0.000000 -0.000424 0.000000
# 3 -0.005897 -0.007424 0.015510 0.000000 0.000754 0.000000
# 4 0.000000 0.000000 0.000000 -0.070394 0.000000 -0.036046
# 5 0.005287 -0.000424 0.000754 0.000000 0.029378 0.000000
# 6 0.000000 0.000000 0.000000 -0.036046 0.000000 0.039137
#
#
# Mechanical properties :
#
#
# Convention : Reuss Voigt Hill
#
# Bulk Modulus (GPa) = 48.97853 64.97351 56.97602
# Shear Modulus (GPa) = 50.34719 18.45725 34.40222
#
# Velocity S-wave (km/s) = 5.27001 3.19086 4.35630
# Velocity P-wave (km/s) = 8.00305 7.02971 7.53212
#
# Compressibility (1/GPa) = 0.02041711
#
# Stress axis : x y z
#
# Youngs Moduli (GPa) = 70.78913 36.01736 64.47660
#
# Poissons Ratio (x) = 0.18621 0.38024
# Poissons Ratio (y) = 0.36598 0.47869
# Poissons Ratio (z) = 0.41747 0.26740
#
# Static dielectric constant tensor:
#      x y z
#    x 1.583920 0.000000 0.000540 
#    y 0.000000 1.647160 0.000000 
#    z 0.000540 0.000000 1.629440 
# 
# From -- ./inp_files/138861.got.cif
#   From: 2010.05.17/outbox.cif.g08.bks.cpg/sg15_70_cif.got.tgz:138861.got - 2010.06.03 18:47:42.
