data_PCOD9285114
_publ_section_title
;
Structure prediction by ZEFSAII (Michael W. Deem and Ramdas Pophale) SiO2 
 PCOD9285114
Probable space group: C 2/C
;
_chemical_formula_sum "Si O2"
_cell_formula_units_Z 56
_cell_length_a 16.159914
_cell_length_b 8.273341
_cell_length_c 22.373694
_cell_angle_alpha 90.000000
_cell_angle_beta 129.498755
_cell_angle_gamma 90.000000
_cell_volume 2308.189700
_symmetry_space_group_name_H-M "C 2/C"
_symmetry_group_IT_number 15
_symmetry_cell_setting 'monoclinic'
loop_
_space_group_symop_operation_xyz
x,y,z
-x,y,1/2-z
-x,-y,-z
x,-y,1/2+z
1/2+x,1/2+y,z
1/2-x,1/2+y,1/2-z
1/2-x,1/2-y,-z
1/2+x,1/2-y,1/2+z
loop_
_atom_site_type_symbol
_atom_site_label
_atom_site_fract_x
_atom_site_fract_y
_atom_site_fract_z
Si Si1 0.542298 0.514632 0.453851
Si Si2 0.101986 0.420304 0.256948
Si Si3 0.571050 0.546119 0.208529
Si Si4 0.579682 0.981572 0.611671
Si Si5 0.373235 0.824918 0.483879
Si Si6 0.834682 0.035796 0.636889
Si Si7 0.206076 0.222983 0.588182
O O1 0.500000 0.500000 0.500000
O O2 0.438286 0.542495 0.365864
O O3 0.595586 0.341242 0.471322
O O4 0.632232 0.651548 0.501965
O O5 0.112671 0.499225 0.195974
O O6 0.214762 0.409232 0.344875
O O7 0.000000 0.481412 0.250000
O O8 0.076286 0.231203 0.231350
O O9 0.658887 0.453600 0.287625
O O10 0.455630 0.469894 0.171354
O O11 0.451254 0.954474 0.551366
O O12 0.634577 0.823460 0.604707
O O13 0.602485 0.129202 0.575498
O O14 0.246288 0.840570 0.428077
O O15 0.783926 0.861803 0.599388
#
# Coordination Sequence:
#
# PCOD9285114 Si02
#       7
#     8   8   8   8   8   8   8
#     4  12  24  39  63  97 133 168 223 271 327 402
#     4  11  22  42  69 103 130 173 233 276 329 406
#     4  10  21  41  67  93 133 171 217 277 335 398
#     4  10  22  41  67  94 134 172 217 280 326 392
#     4  10  22  41  64  96 129 172 223 267 336 389
#     4   9  20  43  67  91 126 174 222 267 337 386
#     4  10  22  42  65  98 127 172 220 269 335 391
#
# _framework density 24.261434999999999
#
# number of rings (size 3 to 8) (size 9 to 14) (size 15 to 20)
#    0.000    1.714    4.286    0.857    4.000    6.857 
#    2.571    0.000    0.000    0.000    0.000    0.000 
#    0.000    0.000    0.000    0.000    0.000    0.000 
#
# Total GULP energy -156205.877620 kJ/mol
# GULP energy per Si atom -5578.781344 kJ/mol
# Density = 2.420622 g / cm^3
# Si number density = 24.261435 Si / 1000 Ang^3
#
#
#
# Elastic Constant Matrix: (Units=GPa)
#
#
# Indices 1 2 3 4 5 6 
#
# 1 53.6849 -0.5699 13.5361 0.0000 -2.1420 0.0000
# 2 -0.5699 52.5860 17.4863 0.0000 4.4494 0.0000
# 3 13.5361 17.4863 63.0475 0.0000 6.3452 0.0000
# 4 0.0000 0.0000 0.0000 34.7685 0.0000 4.6458
# 5 -2.1420 4.4494 6.3452 0.0000 45.9772 0.0000
# 6 0.0000 0.0000 0.0000 4.6458 0.0000 -3.2715
#
#
#
# Elastic Compliance Matrix: (Units=1/GPa)
#
#
# Indices 1 2 3 4 5 6 
#
# 1 0.019939 0.001725 -0.004904 0.000000 0.001439 0.000000
# 2 0.001725 0.021168 -0.006128 0.000000 -0.001122 0.000000
# 3 -0.004904 -0.006128 0.018839 0.000000 -0.002235 0.000000
# 4 0.000000 0.000000 0.000000 0.024175 0.000000 0.034330
# 5 0.001439 -0.001122 -0.002235 0.000000 0.022234 0.000000
# 6 0.000000 0.000000 0.000000 0.034330 0.000000 -0.256918
#
#
# Mechanical properties :
#
#
# Convention : Reuss Voigt Hill
#
# Bulk Modulus (GPa) = 24.19480 25.58038 24.88759
# Shear Modulus (GPa) = -42.31134 24.75256 -8.77939
#
# Velocity S-wave (km/s) = -4.18062 3.19759 -1.90434
# Velocity P-wave (km/s) = 3.64819 4.91928 2.33345
#
# Compressibility (1/GPa) = 0.04133119
#
# Stress axis : x y z
#
# Youngs Moduli (GPa) = 50.15173 47.24111 53.08231
#
# Poissons Ratio (x) = -0.08150 0.26033
# Poissons Ratio (y) = -0.08652 0.32531
# Poissons Ratio (z) = 0.24596 0.28951
#
# Static dielectric constant tensor:
#      x y z
#    x 2.314420 0.000000 0.462510 
#    y 0.000000 1.538120 0.000000 
#    z 0.462510 0.000000 1.324030 
# 
# From -- ./inp_files/276621.got.cif
#   From: 2010.05.17/outbox.cif.g08.bks.cpg/sg15_139_cif.got.tgz:276621.got - 2010.06.03 18:47:42.
