data_PCOD9285101
_publ_section_title
;
Structure prediction by ZEFSAII (Michael W. Deem and Ramdas Pophale) SiO2 
 PCOD9285101
Probable space group: C 2/C
;
_chemical_formula_sum "Si O2"
_cell_formula_units_Z 40
_cell_length_a 9.825894
_cell_length_b 11.281930
_cell_length_c 23.614494
_cell_angle_alpha 90.000000
_cell_angle_beta 140.568875
_cell_angle_gamma 90.000000
_cell_volume 1662.687206
_symmetry_space_group_name_H-M "C 2/C"
_symmetry_group_IT_number 15
_symmetry_cell_setting 'monoclinic'
loop_
_space_group_symop_operation_xyz
x,y,z
-x,y,1/2-z
-x,-y,-z
x,-y,1/2+z
1/2+x,1/2+y,z
1/2-x,1/2+y,1/2-z
1/2-x,1/2-y,-z
1/2+x,1/2-y,1/2+z
loop_
_atom_site_type_symbol
_atom_site_label
_atom_site_fract_x
_atom_site_fract_y
_atom_site_fract_z
Si Si1 0.731496 0.134474 0.036399
Si Si2 0.532061 0.979101 0.139441
Si Si3 0.330948 0.664759 0.910944
Si Si4 0.787474 0.291400 0.576503
Si Si5 0.036358 0.926441 0.167043
O O1 0.692116 0.195685 0.083953
O O2 0.750000 0.250000 0.000000
O O3 0.549527 0.054237 0.949335
O O4 0.928124 0.046205 0.109032
O O5 0.371727 0.901919 0.127809
O O6 0.777469 0.951751 0.229043
O O7 0.473267 0.112491 0.137318
O O8 0.353173 0.630823 0.853138
O O9 0.561333 0.643506 0.016975
O O10 0.750000 0.250000 0.500000
O O11 0.863889 0.172141 0.631650
#
# Coordination Sequence:
#
# PCOD9285101 Si02
#       5
#     8   8   8   8   8
#     4  10  23  40  68  94 136 177 223 281 338 403
#     4  11  22  41  67  97 133 179 233 277 341 411
#     4  10  22  43  69  93 128 185 226 270 349 404
#     4  10  21  41  67  91 136 177 223 282 345 397
#     4  11  24  43  65 104 136 178 229 286 337 407
#
# _framework density 24.05744
#
# number of rings (size 3 to 8) (size 9 to 14) (size 15 to 20)
#    0.000    1.600    4.000    1.200    8.400    0.800 
#    0.000    1.000    0.000    0.000    0.000    0.000 
#    0.000    0.000    0.000    0.000    0.000    0.000 
#
# Total GULP energy -111722.744468 kJ/mol
# GULP energy per Si atom -5586.137223 kJ/mol
# Density = 2.400268 g / cm^3
# Si number density = 24.057440 Si / 1000 Ang^3
#
#
#
# Elastic Constant Matrix: (Units=GPa)
#
#
# Indices 1 2 3 4 5 6 
#
# 1 54.3323 18.8453 11.8186 0.0000 -1.2741 0.0000
# 2 18.8453 121.2713 47.4285 0.0000 7.5678 0.0000
# 3 11.8186 47.4285 170.1975 0.0000 19.0871 0.0000
# 4 0.0000 0.0000 0.0000 20.6621 0.0000 2.9565
# 5 -1.2741 7.5678 19.0871 0.0000 25.3214 0.0000
# 6 0.0000 0.0000 0.0000 2.9565 0.0000 27.5763
#
#
#
# Elastic Compliance Matrix: (Units=1/GPa)
#
#
# Indices 1 2 3 4 5 6 
#
# 1 0.019645 -0.002879 -0.000840 0.000000 0.002482 0.000000
# 2 -0.002879 0.009695 -0.002360 0.000000 -0.001263 0.000000
# 3 -0.000840 -0.002360 0.007119 0.000000 -0.004703 0.000000
# 4 0.000000 0.000000 0.000000 0.049152 0.000000 -0.005270
# 5 0.002482 -0.001263 -0.004703 0.000000 0.043540 0.000000
# 6 0.000000 0.000000 0.000000 -0.005270 0.000000 0.036828
#
#
# Mechanical properties :
#
#
# Convention : Reuss Voigt Hill
#
# Bulk Modulus (GPa) = 41.15187 55.77622 48.46404
# Shear Modulus (GPa) = 26.84739 32.55920 29.70330
#
# Velocity S-wave (km/s) = 3.34424 3.68284 3.51762
# Velocity P-wave (km/s) = 5.66169 6.42801 6.05698
#
# Compressibility (1/GPa) = 0.02430023
#
# Stress axis : x y z
#
# Youngs Moduli (GPa) = 50.90397 103.14321 140.46885
#
# Poissons Ratio (x) = 0.29696 0.11803
# Poissons Ratio (y) = 0.14656 0.33153
# Poissons Ratio (z) = 0.04277 0.24343
#
# Static dielectric constant tensor:
#      x y z
#    x 2.060430 0.000000 0.060160 
#    y 0.000000 1.957210 0.000000 
#    z 0.060160 0.000000 1.897250 
# 
# From -- ./inp_files/225052.got.cif
#   From: 2010.05.17/outbox.cif.g08.bks.cpg/sg15_113_cif.got.tgz:225052.got - 2010.06.03 18:47:42.
