data_PCOD9285551
_publ_section_title
;
Structure prediction by ZEFSAII (Michael W. Deem and Ramdas Pophale) SiO2 
 PCOD9285551
Probable space group: C 2/C
;
_chemical_formula_sum "Si O2"
_cell_formula_units_Z 52
_cell_length_a 26.742989
_cell_length_b 6.648383
_cell_length_c 13.545522
_cell_angle_alpha 90.000000
_cell_angle_beta 96.930849
_cell_angle_gamma 90.000000
_cell_volume 2390.762686
_symmetry_space_group_name_H-M "C 2/C"
_symmetry_group_IT_number 15
_symmetry_cell_setting 'monoclinic'
loop_
_space_group_symop_operation_xyz
x,y,z
-x,y,1/2-z
-x,-y,-z
x,-y,1/2+z
1/2+x,1/2+y,z
1/2-x,1/2+y,1/2-z
1/2-x,1/2-y,-z
1/2+x,1/2-y,1/2+z
loop_
_atom_site_type_symbol
_atom_site_label
_atom_site_fract_x
_atom_site_fract_y
_atom_site_fract_z
Si Si1 0.965450 0.291240 0.604625
Si Si2 0.500000 0.434395 0.750000
Si Si3 0.772796 0.973344 0.396865
Si Si4 0.054543 0.377388 0.124295
Si Si5 0.124477 0.485388 0.793056
Si Si6 0.282104 0.677111 0.680429
Si Si7 0.317671 0.711504 0.070793
O O1 0.946962 0.288749 0.486570
O O2 0.922280 0.384918 0.662666
O O3 0.014052 0.439294 0.618024
O O4 0.978067 0.079652 0.659308
O O5 0.462080 0.288881 0.799495
O O6 0.768384 0.881443 0.287682
O O7 0.724643 0.885980 0.443887
O O8 0.821685 0.887635 0.463736
O O9 0.764473 0.210012 0.383171
O O10 0.107508 0.458816 0.178302
O O11 0.171438 0.333135 0.804904
O O12 0.137661 0.682444 0.860757
O O13 0.298251 0.476238 0.629600
#
# Coordination Sequence:
#
# PCOD9285551 Si02
#       7
#     8   4   8   8   8   8   8
#     4  11  24  44  67  95 132 179 214 266 325 387
#     4  12  20  44  70  96 124 178 216 262 316 396
#     4  10  21  42  64  86 121 165 210 255 321 390
#     4  11  24  44  69  92 135 178 214 263 329 387
#     4  11  24  42  60 100 130 160 219 272 312 379
#     4  11  22  40  65  91 124 164 210 264 319 380
#     4  10  23  40  63  90 122 164 207 262 320 378
#
# _framework density 21.75038
#
# number of rings (size 3 to 8) (size 9 to 14) (size 15 to 20)
#    0.000    1.231    4.615    0.923    4.308    0.000 
#    2.769    0.000    0.000    0.000    0.000    0.000 
#    0.000    0.000    0.000    0.000    0.000    0.000 
#
# Total GULP energy -145189.859700 kJ/mol
# GULP energy per Si atom -5584.225373 kJ/mol
# Density = 2.170088 g / cm^3
# Si number density = 21.750380 Si / 1000 Ang^3
#
#
#
# Elastic Constant Matrix: (Units=GPa)
#
#
# Indices 1 2 3 4 5 6 
#
# 1 15.1689 7.2003 3.7697 0.0000 13.3024 0.0000
# 2 7.2003 94.2814 13.9445 0.0000 9.3657 0.0000
# 3 3.7697 13.9445 92.6878 0.0000 7.4556 0.0000
# 4 0.0000 0.0000 0.0000 39.0447 0.0000 -1.7767
# 5 13.3024 9.3657 7.4556 0.0000 27.4266 0.0000
# 6 0.0000 0.0000 0.0000 -1.7767 0.0000 11.5375
#
#
#
# Elastic Compliance Matrix: (Units=1/GPa)
#
#
# Indices 1 2 3 4 5 6 
#
# 1 0.115752 -0.003407 0.000232 0.000000 -0.055042 0.000000
# 2 -0.003407 0.011255 -0.001409 0.000000 -0.001808 0.000000
# 3 0.000232 -0.001409 0.011207 0.000000 -0.002678 0.000000
# 4 0.000000 0.000000 0.000000 0.025792 0.000000 0.003972
# 5 -0.055042 -0.001808 -0.002678 0.000000 0.064502 0.000000
# 6 0.000000 0.000000 0.000000 0.003972 0.000000 0.087285
#
#
# Mechanical properties :
#
#
# Convention : Reuss Voigt Hill
#
# Bulk Modulus (GPa) = 7.74915 27.99635 17.87275
# Shear Modulus (GPa) = 13.58780 27.41668 20.50224
#
# Velocity S-wave (km/s) = 2.50214 3.55422 3.07353
# Velocity P-wave (km/s) = 3.45226 5.45371 4.56405
#
# Compressibility (1/GPa) = 0.12904645
#
# Stress axis : x y z
#
# Youngs Moduli (GPa) = 8.63913 88.85140 89.23090
#
# Poissons Ratio (x) = 0.30269 -0.02072
# Poissons Ratio (y) = 0.02943 0.12575
# Poissons Ratio (z) = -0.00201 0.12521
#
# Static dielectric constant tensor:
#      x y z
#    x 1.802100 0.000000 0.064470 
#    y 0.000000 1.802840 0.000000 
#    z 0.064470 0.000000 1.883860 
# 
# From -- ./inp_files/180180.got.cif
#   From: 2010.05.17/outbox.cif.g08.bks.cpg/sg15_91_cif.got.tgz:180180.got - 2010.06.03 18:47:42.
