data_PCOD9285993
_publ_section_title
;
Structure prediction by ZEFSAII (Michael W. Deem and Ramdas Pophale) SiO2 
 PCOD9285993
Probable space group: C 2/C
;
_chemical_formula_sum "Si O2"
_cell_formula_units_Z 48
_cell_length_a 9.655260
_cell_length_b 15.366170
_cell_length_c 17.814201
_cell_angle_alpha 90.000000
_cell_angle_beta 121.234736
_cell_angle_gamma 90.000000
_cell_volume 2259.890982
_symmetry_space_group_name_H-M "C 2/C"
_symmetry_group_IT_number 15
_symmetry_cell_setting 'monoclinic'
loop_
_space_group_symop_operation_xyz
x,y,z
-x,y,1/2-z
-x,-y,-z
x,-y,1/2+z
1/2+x,1/2+y,z
1/2-x,1/2+y,1/2-z
1/2-x,1/2-y,-z
1/2+x,1/2-y,1/2+z
loop_
_atom_site_type_symbol
_atom_site_label
_atom_site_fract_x
_atom_site_fract_y
_atom_site_fract_z
Si Si1 0.113769 0.376642 0.842940
Si Si2 0.321326 0.788944 0.234799
Si Si3 0.317554 0.465181 0.364658
Si Si4 0.631458 0.570821 0.446207
Si Si5 0.583355 0.264370 0.577194
Si Si6 0.385558 0.142166 0.408388
O O1 0.188663 0.457668 0.818671
O O2 0.266013 0.319421 0.913180
O O3 0.000000 0.328626 0.750000
O O4 0.006822 0.402425 0.884017
O O5 0.500000 0.793244 0.250000
O O6 0.227193 0.875929 0.186509
O O7 0.344591 0.782885 0.330143
O O8 0.229554 0.706332 0.172761
O O9 0.491595 0.501545 0.388213
O O10 0.317107 0.450250 0.454407
O O11 0.545358 0.665104 0.427803
O O12 0.775014 0.578889 0.427226
O O13 0.492253 0.202103 0.494095
#
# Coordination Sequence:
#
# PCOD9285993 Si02
#       6
#     8   8   8   8   8   8
#     4  11  24  42  65  95 141 176 213 281 349 386
#     4  12  22  39  73 100 127 174 229 279 318 403
#     4  10  23  42  67  96 138 174 218 272 339 399
#     4  10  21  42  69  96 132 177 217 272 337 394
#     4  11  22  41  70 100 129 176 225 274 335 393
#     4  12  23  41  72  97 131 176 229 271 325 409
#
# _framework density 21.239961999999998
#
# number of rings (size 3 to 8) (size 9 to 14) (size 15 to 20)
#    0.000    1.000    5.000    2.500    0.000    0.667 
#    0.000    0.000    7.333    0.000    0.000    0.000 
#    0.000    0.000    0.000    0.000    0.000    0.000 
#
# Total GULP energy -134218.841364 kJ/mol
# GULP energy per Si atom -5592.451724 kJ/mol
# Density = 2.119162 g / cm^3
# Si number density = 21.239962 Si / 1000 Ang^3
#
#
#
# Elastic Constant Matrix: (Units=GPa)
#
#
# Indices 1 2 3 4 5 6 
#
# 1 142.4752 10.9094 14.8760 0.0000 -12.9001 0.0000
# 2 10.9094 37.3506 -2.4256 0.0000 0.4410 0.0000
# 3 14.8760 -2.4256 70.1356 0.0000 3.9450 0.0000
# 4 0.0000 0.0000 0.0000 29.4355 0.0000 2.3789
# 5 -12.9001 0.4410 3.9450 0.0000 23.4767 0.0000
# 6 0.0000 0.0000 0.0000 2.3789 0.0000 11.8279
#
#
#
# Elastic Compliance Matrix: (Units=1/GPa)
#
#
# Indices 1 2 3 4 5 6 
#
# 1 0.007844 -0.002477 -0.002013 0.000000 0.004695 0.000000
# 2 -0.002477 0.027626 0.001602 0.000000 -0.002149 0.000000
# 3 -0.002013 0.001602 0.014946 0.000000 -0.003648 0.000000
# 4 0.000000 0.000000 0.000000 0.034534 0.000000 -0.006946
# 5 0.004695 -0.002149 -0.003648 0.000000 0.045829 0.000000
# 6 0.000000 0.000000 0.000000 -0.006946 0.000000 0.085943
#
#
# Mechanical properties :
#
#
# Convention : Reuss Voigt Hill
#
# Bulk Modulus (GPa) = 22.40241 32.96456 27.68349
# Shear Modulus (GPa) = 21.06342 28.05479 24.55910
#
# Velocity S-wave (km/s) = 3.15252 3.63829 3.40408
# Velocity P-wave (km/s) = 4.88072 5.76223 5.33970
#
# Compressibility (1/GPa) = 0.04463805
#
# Stress axis : x y z
#
# Youngs Moduli (GPa) = 127.48986 36.19736 66.90874
#
# Poissons Ratio (x) = 0.08967 0.13472
# Poissons Ratio (y) = 0.31582 -0.10717
# Poissons Ratio (z) = 0.25669 -0.05798
#
# Static dielectric constant tensor:
#      x y z
#    x 1.766140 0.000000 0.022970 
#    y 0.000000 1.778430 0.000000 
#    z 0.022970 0.000000 1.787280 
# 
# From -- ./inp_files/190271.got.cif
#   From: 2010.05.17/outbox.cif.g08.bks.cpg/sg15_96_cif.got.tgz:190271.got - 2010.06.03 18:47:42.
