data_PCOD9285025
_publ_section_title
;
Structure prediction by ZEFSAII (Michael W. Deem and Ramdas Pophale) SiO2 
 PCOD9285025
Probable space group: C 2/C
;
_chemical_formula_sum "Si O2"
_cell_formula_units_Z 48
_cell_length_a 11.454231
_cell_length_b 28.069276
_cell_length_c 20.487628
_cell_angle_alpha 90.000000
_cell_angle_beta 158.851559
_cell_angle_gamma 90.000000
_cell_volume 2376.500130
_symmetry_space_group_name_H-M "C 2/C"
_symmetry_group_IT_number 15
_symmetry_cell_setting 'monoclinic'
loop_
_space_group_symop_operation_xyz
x,y,z
-x,y,1/2-z
-x,-y,-z
x,-y,1/2+z
1/2+x,1/2+y,z
1/2-x,1/2+y,1/2-z
1/2-x,1/2-y,-z
1/2+x,1/2-y,1/2+z
loop_
_atom_site_type_symbol
_atom_site_label
_atom_site_fract_x
_atom_site_fract_y
_atom_site_fract_z
Si Si1 0.123989 0.436751 0.886899
Si Si2 0.254946 0.844964 0.744768
Si Si3 0.888001 0.458144 0.268659
Si Si4 0.815001 0.230634 0.959956
Si Si5 0.622771 0.180129 0.550745
Si Si6 0.256773 0.600254 0.072342
O O1 0.000000 0.428660 0.750000
O O2 0.974436 0.391213 0.844702
O O3 0.955408 0.486349 0.819438
O O4 0.511664 0.444463 0.084148
O O5 0.055514 0.815155 0.587513
O O6 0.979153 0.861622 0.651212
O O7 0.493089 0.812158 0.910068
O O8 0.000000 0.450734 0.250000
O O9 0.095285 0.429550 0.430227
O O10 0.500000 0.220626 0.750000
O O11 0.750000 0.250000 0.000000
O O12 0.992199 0.275332 0.021502
O O13 0.492699 0.130898 0.514872
O O14 0.000000 0.178018 0.750000
O O15 0.500000 0.573880 0.250000
#
# Coordination Sequence:
#
# PCOD9285025 Si02
#       6
#     8   8   8   8   8   8
#     4  11  23  41  65 100 135 173 222 277 329 395
#     4  11  23  42  67  94 133 171 225 268 331 399
#     4  11  22  42  69  96 135 177 221 277 333 384
#     4  12  23  46  71  97 131 176 218 271 335 397
#     4  11  23  42  64  94 135 172 216 278 333 391
#     4  10  21  41  66  95 131 178 220 270 331 392
#
# _framework density 20.197769000000001
#
# number of rings (size 3 to 8) (size 9 to 14) (size 15 to 20)
#    0.000    1.000    3.333    5.500    0.000    3.333 
#    3.000    9.167    0.000    0.000    0.000    0.000 
#    0.000    0.000    0.000    0.000    0.000    0.000 
#
# Total GULP energy -133805.519066 kJ/mol
# GULP energy per Si atom -5575.229961 kJ/mol
# Density = 2.015180 g / cm^3
# Si number density = 20.197769 Si / 1000 Ang^3
#
#
#
# Elastic Constant Matrix: (Units=GPa)
#
#
# Indices 1 2 3 4 5 6 
#
# 1 11.9046 48.5789 107.0402 -0.0847 -22.0957 -0.0137
# 2 48.5789 72.1672 67.5164 0.0076 -4.4728 -0.0183
# 3 107.0402 67.5164 179.6305 0.0812 7.7269 0.0375
# 4 -0.0847 0.0076 0.0812 22.6018 0.0432 0.7565
# 5 -22.0957 -4.4728 7.7269 0.0432 30.2292 -0.0006
# 6 -0.0137 -0.0183 0.0375 0.7565 -0.0006 42.4752
#
#
#
# Elastic Compliance Matrix: (Units=1/GPa)
#
#
# Indices 1 2 3 4 5 6 
#
# 1 -0.013194 0.000516 0.008170 -0.000056 -0.011656 -0.000010
# 2 0.000516 0.022217 -0.008914 0.000015 0.005943 0.000017
# 3 0.008170 -0.008914 0.003892 0.000013 0.003658 -0.000005
# 4 -0.000056 0.000015 0.000013 0.044271 -0.000106 -0.000788
# 5 -0.011656 0.005943 0.003658 -0.000106 0.024506 -0.000002
# 6 -0.000010 0.000017 -0.000005 -0.000788 -0.000002 0.023557
#
#
# Mechanical properties :
#
#
# Convention : Reuss Voigt Hill
#
# Bulk Modulus (GPa) = 80.26573 78.88591 79.57582
# Shear Modulus (GPa) = 45.51343 21.76570 33.63957
#
# Velocity S-wave (km/s) = 4.75214 3.28629 4.08549
# Velocity P-wave (km/s) = 8.36281 7.31718 7.85741
#
# Compressibility (1/GPa) = 0.01245862
#
# Stress axis : x y z
#
# Youngs Moduli (GPa) = -75.79397 45.01074 256.95309
#
# Poissons Ratio (x) = -0.02322 -2.09918
# Poissons Ratio (y) = 0.03909 2.29035
# Poissons Ratio (z) = 0.61920 0.40120
#
# Static dielectric constant tensor:
#      x y z
#    x 1.816620 0.000210 0.009610 
#    y 0.000210 1.881960 0.000110 
#    z 0.009610 0.000110 1.763060 
# 
# From -- ./inp_files/241060.got.cif
#   From: 2010.05.17/outbox.cif.g08.bks.cpg/sg15_121_cif.got.tgz:241060.got - 2010.06.03 18:47:42.
