data_PCOD9285844
_publ_section_title
;
Structure prediction by ZEFSAII (Michael W. Deem and Ramdas Pophale) SiO2 
 PCOD9285844
Probable space group: C 2/C
;
_chemical_formula_sum "Si O2"
_cell_formula_units_Z 52
_cell_length_a 12.275309
_cell_length_b 25.799168
_cell_length_c 10.445555
_cell_angle_alpha 90.000000
_cell_angle_beta 49.226641
_cell_angle_gamma 90.000000
_cell_volume 2505.168376
_symmetry_space_group_name_H-M "C 2/C"
_symmetry_group_IT_number 15
_symmetry_cell_setting 'monoclinic'
loop_
_space_group_symop_operation_xyz
x,y,z
-x,y,1/2-z
-x,-y,-z
x,-y,1/2+z
1/2+x,1/2+y,z
1/2-x,1/2+y,1/2-z
1/2-x,1/2-y,-z
1/2+x,1/2-y,1/2+z
loop_
_atom_site_type_symbol
_atom_site_label
_atom_site_fract_x
_atom_site_fract_y
_atom_site_fract_z
Si Si1 0.673128 0.548236 0.462780
Si Si2 0.673207 0.456294 0.262233
Si Si3 0.105028 0.298955 0.523080
Si Si4 0.035554 0.209701 0.427872
Si Si5 0.812735 0.656427 0.269733
Si Si6 0.000000 0.297483 0.250000
Si Si7 0.257435 0.652119 0.681387
O O1 0.704247 0.503789 0.334178
O O2 0.499310 0.554455 0.598221
O O3 0.710971 0.535656 0.582797
O O4 0.753799 0.600188 0.354562
O O5 0.749784 0.405542 0.259395
O O6 0.164645 0.312627 0.614982
O O7 0.224955 0.309604 0.325020
O O8 0.050368 0.240311 0.550668
O O9 0.973200 0.338579 0.591257
O O10 0.987567 0.256823 0.375133
O O11 0.916842 0.165647 0.513410
O O12 0.190918 0.185114 0.280745
O O13 0.860936 0.332614 0.332404
#
# Coordination Sequence:
#
# PCOD9285844 Si02
#       7
#     8   8   8   8   8   4   8
#     4  10  21  42  67  97 128 159 218 274 320 386
#     4  10  21  42  68  98 121 166 217 272 323 382
#     4  10  22  36  60  93 133 157 203 259 316 378
#     4  11  22  40  62  90 122 178 216 253 305 382
#     4  11  21  39  61  94 128 162 205 263 318 368
#     4  10  24  40  56  92 136 162 218 262 312 384
#     4  11  21  41  65  87 126 172 209 262 318 377
#
# _framework density 20.757088
#
# number of rings (size 3 to 8) (size 9 to 14) (size 15 to 20)
#    0.000    1.538    3.077    2.769    0.000    3.077 
#    8.308    2.308    0.000    0.000    0.000    0.000 
#    0.000    0.000    0.000    0.000    0.000    0.000 
#
# Total GULP energy -145080.078853 kJ/mol
# GULP energy per Si atom -5580.003033 kJ/mol
# Density = 2.070984 g / cm^3
# Si number density = 20.757088 Si / 1000 Ang^3
#
#
#
# Elastic Constant Matrix: (Units=GPa)
#
#
# Indices 1 2 3 4 5 6 
#
# 1 112.3719 57.6617 27.9096 0.0000 -1.2609 0.0000
# 2 57.6617 99.4044 19.8648 0.0000 14.0695 0.0000
# 3 27.9096 19.8648 46.9156 0.0000 -3.8657 0.0000
# 4 0.0000 0.0000 0.0000 20.5401 0.0000 -3.6440
# 5 -1.2609 14.0695 -3.8657 0.0000 29.0280 0.0000
# 6 0.0000 0.0000 0.0000 -3.6440 0.0000 23.1865
#
#
#
# Elastic Compliance Matrix: (Units=1/GPa)
#
#
# Indices 1 2 3 4 5 6 
#
# 1 0.014114 -0.007755 -0.004805 0.000000 0.003732 0.000000
# 2 -0.007755 0.016397 -0.003045 0.000000 -0.008690 0.000000
# 3 -0.004805 -0.003045 0.025851 0.000000 0.004710 0.000000
# 4 0.000000 0.000000 0.000000 0.050082 0.000000 0.007871
# 5 0.003732 -0.008690 0.004710 0.000000 0.039451 0.000000
# 6 0.000000 0.000000 0.000000 0.007871 0.000000 0.044365
#
#
# Mechanical properties :
#
#
# Convention : Reuss Voigt Hill
#
# Bulk Modulus (GPa) = 39.76022 52.17378 45.96700
# Shear Modulus (GPa) = 21.75302 24.76797 23.26050
#
# Velocity S-wave (km/s) = 3.24076 3.45806 3.35118
# Velocity P-wave (km/s) = 5.76194 6.41360 6.09648
#
# Compressibility (1/GPa) = 0.02515076
#
# Stress axis : x y z
#
# Youngs Moduli (GPa) = 70.85380 60.98752 38.68340
#
# Poissons Ratio (x) = 0.47295 0.18587
# Poissons Ratio (y) = 0.54946 0.11781
# Poissons Ratio (z) = 0.34045 0.18573
#
# Static dielectric constant tensor:
#      x y z
#    x 1.794820 0.000000 0.023740 
#    y 0.000000 1.721080 0.000000 
#    z 0.023740 0.000000 1.775050 
# 
# From -- ./inp_files/52230.got.cif
#   From: 2010.05.17/outbox.cif.g08.bks.cpg/sg15_27_cif.got.tgz:52230.got - 2010.06.03 18:47:42.
