data_PCOD9285625
_publ_section_title
;
Structure prediction by ZEFSAII (Michael W. Deem and Ramdas Pophale) SiO2 
 PCOD9285625
Probable space group: C 2/C
;
_chemical_formula_sum "Si O2"
_cell_formula_units_Z 36
_cell_length_a 11.080664
_cell_length_b 19.847153
_cell_length_c 14.444708
_cell_angle_alpha 90.000000
_cell_angle_beta 149.696794
_cell_angle_gamma 90.000000
_cell_volume 1602.873703
_symmetry_space_group_name_H-M "C 2/C"
_symmetry_group_IT_number 15
_symmetry_cell_setting 'monoclinic'
loop_
_space_group_symop_operation_xyz
x,y,z
-x,y,1/2-z
-x,-y,-z
x,-y,1/2+z
1/2+x,1/2+y,z
1/2-x,1/2+y,1/2-z
1/2-x,1/2-y,-z
1/2+x,1/2-y,1/2+z
loop_
_atom_site_type_symbol
_atom_site_label
_atom_site_fract_x
_atom_site_fract_y
_atom_site_fract_z
Si Si1 0.826286 0.835300 0.052875
Si Si2 0.475231 0.200579 0.630325
Si Si3 0.000000 0.034340 0.750000
Si Si4 0.266218 0.404906 0.648904
Si Si5 0.232212 0.312305 0.784291
O O1 0.879864 0.915054 0.097411
O O2 0.000000 0.807802 0.250000
O O3 0.853792 0.814449 0.964985
O O4 0.554383 0.816567 0.896380
O O5 0.500000 0.171132 0.750000
O O6 0.250000 0.250000 0.500000
O O7 0.441308 0.138572 0.536798
O O8 0.670128 0.251064 0.714207
O O9 0.204644 0.984516 0.846205
O O10 0.500000 0.377920 0.750000
O O11 0.292221 0.381135 0.770202
#
# Coordination Sequence:
#
# PCOD9285625 Si02
#       5
#     8   8   4   8   8
#     4   9  23  46  63  99 142 187 240 276 334 431
#     4  12  21  41  67 105 142 167 228 302 362 421
#     4   8  20  48  62 102 140 180 242 276 350 416
#     4  10  21  42  65 100 135 172 227 291 355 410
#     4  11  21  41  74  97 139 187 231 290 357 414
#
# _framework density 22.45966
#
# number of rings (size 3 to 8) (size 9 to 14) (size 15 to 20)
#    1.333    0.444    4.444    0.000    0.000    3.556 
#    8.000    4.444    0.000    0.000    0.000    0.000 
#    0.000    0.000    0.000    0.000    0.000    0.000 
#
# Total GULP energy -100368.455488 kJ/mol
# GULP energy per Si atom -5576.025305 kJ/mol
# Density = 2.240854 g / cm^3
# Si number density = 22.459660 Si / 1000 Ang^3
#
#
#
# Elastic Constant Matrix: (Units=GPa)
#
#
# Indices 1 2 3 4 5 6 
#
# 1 136.7725 37.4020 59.8249 -0.0125 -22.2288 -0.0010
# 2 37.4020 167.5749 47.2895 -0.0087 -11.8008 -0.0010
# 3 59.8249 47.2895 112.2481 -0.0052 -12.4317 0.0004
# 4 -0.0125 -0.0087 -0.0052 -37.8942 -0.0082 -14.7576
# 5 -22.2288 -11.8008 -12.4317 -0.0082 39.8464 -0.0002
# 6 -0.0010 -0.0010 0.0004 -14.7576 -0.0002 10.0384
#
#
#
# Elastic Compliance Matrix: (Units=1/GPa)
#
#
# Indices 1 2 3 4 5 6 
#
# 1 0.010210 -0.000664 -0.004716 -0.000002 0.004028 -0.000002
# 2 -0.000664 0.006868 -0.002439 -0.000001 0.000902 -0.000001
# 3 -0.004716 -0.002439 0.012511 0.000000 0.000550 -0.000001
# 4 -0.000002 -0.000001 0.000000 -0.016781 -0.000005 -0.024671
# 5 0.004028 0.000902 0.000550 -0.000005 0.027782 -0.000006
# 6 -0.000002 -0.000001 -0.000001 -0.024671 -0.000006 0.063349
#
#
# Mechanical properties :
#
#
# Convention : Reuss Voigt Hill
#
# Bulk Modulus (GPa) = 71.68542 78.40314 75.04428
# Shear Modulus (GPa) = 40.24879 20.53674 30.39277
#
# Velocity S-wave (km/s) = 4.23785 3.02716 3.68260
# Velocity P-wave (km/s) = 7.47881 6.87040 7.18105
#
# Compressibility (1/GPa) = 0.01394984
#
# Stress axis : x y z
#
# Youngs Moduli (GPa) = 97.93849 145.60967 79.93095
#
# Poissons Ratio (x) = 0.09675 0.37694
# Poissons Ratio (y) = 0.06508 0.19497
# Poissons Ratio (z) = 0.46186 0.35518
#
# Static dielectric constant tensor:
#      x y z
#    x 1.893220 0.000000 -0.019260 
#    y 0.000000 1.828690 0.000000 
#    z -0.019260 0.000000 1.949470 
# 
# From -- ./inp_files/147949.got.cif
#   From: 2010.05.17/outbox.cif.g08.bks.cpg/sg15_74_cif.got.tgz:147949.got - 2010.06.03 18:47:42.
