data_PCOD9285493
_publ_section_title
;
Structure prediction by ZEFSAII (Michael W. Deem and Ramdas Pophale) SiO2 
 PCOD9285493
Probable space group: C 2/C
;
_chemical_formula_sum "Si O2"
_cell_formula_units_Z 56
_cell_length_a 16.764878
_cell_length_b 15.307239
_cell_length_c 12.935817
_cell_angle_alpha 90.000000
_cell_angle_beta 125.392200
_cell_angle_gamma 90.000000
_cell_volume 2706.193439
_symmetry_space_group_name_H-M "C 2/C"
_symmetry_group_IT_number 15
_symmetry_cell_setting 'monoclinic'
loop_
_space_group_symop_operation_xyz
x,y,z
-x,y,1/2-z
-x,-y,-z
x,-y,1/2+z
1/2+x,1/2+y,z
1/2-x,1/2+y,1/2-z
1/2-x,1/2-y,-z
1/2+x,1/2-y,1/2+z
loop_
_atom_site_type_symbol
_atom_site_label
_atom_site_fract_x
_atom_site_fract_y
_atom_site_fract_z
Si Si1 0.635054 0.106939 0.017382
Si Si2 0.231919 0.054059 0.227370
Si Si3 0.133317 0.762716 0.692304
Si Si4 0.951838 0.259021 0.904766
Si Si5 0.789646 0.541540 0.042585
Si Si6 0.500000 0.114477 0.250000
Si Si7 0.293957 0.368064 0.217850
Si Si8 0.500000 0.829926 0.250000
O O1 0.539168 0.112092 0.874244
O O2 0.712866 0.059671 0.998526
O O3 0.659859 0.048474 0.137108
O O4 0.622990 0.200406 0.065216
O O5 0.181588 0.141094 0.234623
O O6 0.237589 0.061142 0.110060
O O7 0.185052 0.961731 0.216042
O O8 0.210868 0.689932 0.712099
O O9 0.085236 0.729593 0.763711
O O10 0.047133 0.767186 0.541576
O O11 0.978563 0.328535 0.836490
O O12 0.893543 0.185204 0.800214
O O13 0.902971 0.561878 0.148412
O O14 0.746367 0.606648 0.924900
#
# Coordination Sequence:
#
# PCOD9285493 Si02
#       8
#     8   8   8   8   8   4   8   4
#     4  10  21  42  62  92 129 164 219 265 315 384
#     4  11  24  43  67  96 130 174 214 268 323 382
#     4  11  23  45  67  94 135 166 219 269 317 389
#     4  11  24  41  66  96 128 177 213 263 330 379
#     4  11  23  38  65  99 127 169 217 267 331 378
#     4  12  21  36  65  96 132 170 206 275 325 380
#     4  11  24  44  66  94 133 172 220 265 320 389
#     4  10  23  40  65 100 122 176 214 261 327 380
#
# _framework density 20.693273000000001
#
# number of rings (size 3 to 8) (size 9 to 14) (size 15 to 20)
#    0.000    1.143    4.286    1.286    2.000    4.000 
#   10.286    0.714    0.000    0.000    0.000    0.000 
#    0.000    0.000    0.000    0.000    0.000    0.000 
#
# Total GULP energy -155870.594124 kJ/mol
# GULP energy per Si atom -5566.806933 kJ/mol
# Density = 2.064617 g / cm^3
# Si number density = 20.693273 Si / 1000 Ang^3
#
#
#
# Elastic Constant Matrix: (Units=GPa)
#
#
# Indices 1 2 3 4 5 6 
#
# 1 43.7208 16.0184 14.6310 0.0000 -9.4782 0.0000
# 2 16.0184 63.2879 9.6638 0.0000 0.6863 0.0000
# 3 14.6310 9.6638 102.5814 0.0000 2.0589 0.0000
# 4 0.0000 0.0000 0.0000 12.9624 0.0000 -2.0881
# 5 -9.4782 0.6863 2.0589 0.0000 27.9049 0.0000
# 6 0.0000 0.0000 0.0000 -2.0881 0.0000 10.5061
#
#
#
# Elastic Compliance Matrix: (Units=1/GPa)
#
#
# Indices 1 2 3 4 5 6 
#
# 1 0.028828 -0.006847 -0.003672 0.000000 0.010231 0.000000
# 2 -0.006847 0.017660 -0.000633 0.000000 -0.002713 0.000000
# 3 -0.003672 -0.000633 0.010372 0.000000 -0.001997 0.000000
# 4 0.000000 0.000000 0.000000 0.079697 0.000000 0.015840
# 5 0.010231 -0.002713 -0.001997 0.000000 0.039525 0.000000
# 6 0.000000 0.000000 0.000000 0.015840 0.000000 0.098330
#
#
# Mechanical properties :
#
#
# Convention : Reuss Voigt Hill
#
# Bulk Modulus (GPa) = 28.93805 32.24628 30.59217
# Shear Modulus (GPa) = 16.22147 21.55984 18.89065
#
# Velocity S-wave (km/s) = 2.80286 3.23131 3.02468
# Velocity P-wave (km/s) = 4.94867 5.43495 5.19750
#
# Compressibility (1/GPa) = 0.03455658
#
# Stress axis : x y z
#
# Youngs Moduli (GPa) = 34.68893 56.62600 96.41560
#
# Poissons Ratio (x) = 0.38770 0.35404
# Poissons Ratio (y) = 0.23750 0.06100
# Poissons Ratio (z) = 0.12738 0.03583
#
# Static dielectric constant tensor:
#      x y z
#    x 1.774290 0.000000 0.012400 
#    y 0.000000 1.766890 0.000000 
#    z 0.012400 0.000000 1.777600 
# 
# From -- ./inp_files/98702.got.cif
#   From: 2010.05.17/outbox.cif.g08.bks.cpg/sg15_50_cif.got.tgz:98702.got - 2010.06.03 18:47:42.
