data_PCOD9285953
_publ_section_title
;
Structure prediction by ZEFSAII (Michael W. Deem and Ramdas Pophale) SiO2 
 PCOD9285953
Probable space group: C 2/C
;
_chemical_formula_sum "Si O2"
_cell_formula_units_Z 60
_cell_length_a 8.761212
_cell_length_b 26.842375
_cell_length_c 12.658006
_cell_angle_alpha 90.000000
_cell_angle_beta 84.447921
_cell_angle_gamma 90.000000
_cell_volume 2962.840089
_symmetry_space_group_name_H-M "C 2/C"
_symmetry_group_IT_number 15
_symmetry_cell_setting 'monoclinic'
loop_
_space_group_symop_operation_xyz
x,y,z
-x,y,1/2-z
-x,-y,-z
x,-y,1/2+z
1/2+x,1/2+y,z
1/2-x,1/2+y,1/2-z
1/2-x,1/2-y,-z
1/2+x,1/2-y,1/2+z
loop_
_atom_site_type_symbol
_atom_site_label
_atom_site_fract_x
_atom_site_fract_y
_atom_site_fract_z
Si Si1 0.160066 0.220651 0.094300
Si Si2 0.148623 0.374646 0.404196
Si Si3 0.319503 0.444115 0.778890
Si Si4 0.826132 0.801110 0.535136
Si Si5 0.320730 0.156591 0.250584
Si Si6 0.177990 0.543714 0.724359
Si Si7 0.596453 0.947300 0.996446
Si Si8 0.500000 0.797938 0.250000
O O1 0.253218 0.176269 0.144010
O O2 0.120285 0.260850 0.187718
O O3 0.005347 0.202572 0.047793
O O4 0.250000 0.250000 0.000000
O O5 0.278489 0.345714 0.459973
O O6 0.203314 0.415189 0.313459
O O7 0.062617 0.333242 0.338819
O O8 0.032229 0.403455 0.491759
O O9 0.500000 0.432913 0.750000
O O10 0.229963 0.399915 0.727747
O O11 0.288891 0.497708 0.731367
O O12 0.227466 0.446375 0.897729
O O13 0.750000 0.750000 0.500000
O O14 0.752827 0.811447 0.652785
O O15 0.500000 0.161593 0.250000
O O16 0.180262 0.560770 0.603402
O O17 0.000000 0.526754 0.750000
O O18 0.500000 0.000000 0.000000
#
# Coordination Sequence:
#
# PCOD9285953 Si02
#       8
#     8   8   8   8   8   8   8   4
#     4  12  26  45  70 104 145 186 235 300 369 433
#     4  11  22  41  74 106 137 193 244 296 352 432
#     4  12  26  42  65 105 146 178 233 304 363 426
#     4  12  23  43  70 104 144 185 239 299 360 431
#     4  12  26  45  70 101 137 189 243 298 361 438
#     4  10  21  42  69 101 136 185 242 285 351 433
#     4  11  22  42  73 103 137 194 246 287 356 437
#     4  12  22  46  70 100 148 182 244 294 350 442
#
# _framework density 20.250841000000001
#
# number of rings (size 3 to 8) (size 9 to 14) (size 15 to 20)
#    0.000    0.533    7.333    2.800    3.733    0.533 
#    0.000    2.667    0.000    0.000    0.000    0.000 
#    0.000    0.000    0.000    0.000    0.000    0.000 
#
# Total GULP energy -167530.693330 kJ/mol
# GULP energy per Si atom -5584.356444 kJ/mol
# Density = 2.020475 g / cm^3
# Si number density = 20.250841 Si / 1000 Ang^3
#
#
#
# Elastic Constant Matrix: (Units=GPa)
#
#
# Indices 1 2 3 4 5 6 
#
# 1 148.0730 43.1752 61.8932 0.0000 6.5731 0.0000
# 2 43.1752 90.8524 31.5668 0.0000 7.6893 0.0000
# 3 61.8932 31.5668 97.0864 0.0000 -1.6765 0.0000
# 4 0.0000 0.0000 0.0000 23.7307 0.0000 25.9695
# 5 6.5731 7.6893 -1.6765 0.0000 41.1589 0.0000
# 6 0.0000 0.0000 0.0000 25.9695 0.0000 26.4656
#
#
#
# Elastic Compliance Matrix: (Units=1/GPa)
#
#
# Indices 1 2 3 4 5 6 
#
# 1 0.009869 -0.002691 -0.005439 0.000000 -0.001295 0.000000
# 2 -0.002691 0.013401 -0.002680 0.000000 -0.002183 0.000000
# 3 -0.005439 -0.002680 0.014673 0.000000 0.001967 0.000000
# 4 0.000000 0.000000 0.000000 -0.570819 0.000000 0.560118
# 5 -0.001295 -0.002183 0.001967 0.000000 0.024991 0.000000
# 6 0.000000 0.000000 0.000000 0.560118 0.000000 -0.511832
#
#
# Mechanical properties :
#
#
# Convention : Reuss Voigt Hill
#
# Bulk Modulus (GPa) = 61.25840 67.69802 64.47821
# Shear Modulus (GPa) = -5.03698 31.56283 13.26292
#
# Velocity S-wave (km/s) = -1.57883 3.95219 2.56194
# Velocity P-wave (km/s) = 5.19537 7.37080 6.37654
#
# Compressibility (1/GPa) = 0.01632429
#
# Stress axis : x y z
#
# Youngs Moduli (GPa) = 101.32857 74.61949 68.15327
#
# Poissons Ratio (x) = 0.20076 0.37069
# Poissons Ratio (y) = 0.27263 0.18264
# Poissons Ratio (z) = 0.55113 0.19997
#
# Static dielectric constant tensor:
#      x y z
#    x 1.609020 0.000000 0.019910 
#    y 0.000000 1.740920 0.000000 
#    z 0.019910 0.000000 1.722320 
# 
# From -- ./inp_files/81393.got.cif
#   From: 2010.05.17/outbox.cif.g08.bks.cpg/sg15_41_cif.got.tgz:81393.got - 2010.06.03 18:47:42.
