data_PCOD9285630
_publ_section_title
;
Structure prediction by ZEFSAII (Michael W. Deem and Ramdas Pophale) SiO2 
 PCOD9285630
Probable space group: C 2/C
;
_chemical_formula_sum "Si O2"
_cell_formula_units_Z 40
_cell_length_a 12.575704
_cell_length_b 11.460555
_cell_length_c 25.522940
_cell_angle_alpha 90.000000
_cell_angle_beta 27.912827
_cell_angle_gamma 90.000000
_cell_volume 1721.999231
_symmetry_space_group_name_H-M "C 2/C"
_symmetry_group_IT_number 15
_symmetry_cell_setting 'monoclinic'
loop_
_space_group_symop_operation_xyz
x,y,z
-x,y,1/2-z
-x,-y,-z
x,-y,1/2+z
1/2+x,1/2+y,z
1/2-x,1/2+y,1/2-z
1/2-x,1/2-y,-z
1/2+x,1/2-y,1/2+z
loop_
_atom_site_type_symbol
_atom_site_label
_atom_site_fract_x
_atom_site_fract_y
_atom_site_fract_z
Si Si1 0.993844 0.930594 0.860414
Si Si2 0.087536 0.839343 0.264181
Si Si3 0.218535 0.033599 0.865347
Si Si4 0.177495 0.273737 0.828637
Si Si5 0.509321 0.023729 0.557877
O O1 0.072554 0.810701 0.800344
O O2 0.993391 0.030442 0.815223
O O3 0.156065 0.967967 0.837586
O O4 0.736119 0.938664 0.988695
O O5 0.044026 0.774006 0.336407
O O6 0.346549 0.868679 0.141174
O O7 0.000000 0.780879 0.250000
O O8 0.500000 0.015913 0.750000
O O9 0.187118 0.172273 0.867044
O O10 0.000000 0.000000 0.000000
O O11 0.069889 0.397844 0.887855
O O12 0.500000 0.000000 0.500000
#
# Coordination Sequence:
#
# PCOD9285630 Si02
#       5
#     8   8   8   8   8
#     4  10  24  46  69 103 145 187 253 305 362 458
#     4  10  21  42  65 102 140 181 238 304 369 443
#     4  11  28  50  75 109 157 200 251 314 379 447
#     4  10  26  45  73 103 146 194 249 303 388 437
#     4  11  23  42  72 102 138 187 246 308 367 448
#
# _framework density 23.228815000000001
#
# number of rings (size 3 to 8) (size 9 to 14) (size 15 to 20)
#    0.000    1.600    2.000    0.000   11.200    6.400 
#    0.000    0.000    0.000    0.000    0.000    0.000 
#    0.000    0.000    0.000    0.000    0.000    0.000 
#
# Total GULP energy -111376.915094 kJ/mol
# GULP energy per Si atom -5568.845755 kJ/mol
# Density = 2.317595 g / cm^3
# Si number density = 23.228815 Si / 1000 Ang^3
#
#
#
# Elastic Constant Matrix: (Units=GPa)
#
#
# Indices 1 2 3 4 5 6 
#
# 1 116.3528 33.4604 56.5952 0.0008 -10.5244 0.0002
# 2 33.4604 102.1614 42.9855 0.0004 6.2918 0.0001
# 3 56.5952 42.9855 113.8649 -0.0028 -24.1566 -0.0008
# 4 0.0008 0.0004 -0.0028 29.6629 -0.0002 17.0858
# 5 -10.5244 6.2918 -24.1566 -0.0002 50.3480 0.0001
# 6 0.0002 0.0001 -0.0008 17.0858 0.0001 19.1264
#
#
#
# Elastic Compliance Matrix: (Units=1/GPa)
#
#
# Indices 1 2 3 4 5 6 
#
# 1 0.011559 -0.001660 -0.005079 -0.000001 0.000187 0.000001
# 2 -0.001660 0.012633 -0.004846 -0.000001 -0.004251 0.000001
# 3 -0.005079 -0.004846 0.014517 0.000003 0.006509 -0.000002
# 4 -0.000001 -0.000001 0.000003 0.069445 0.000001 -0.062036
# 5 0.000187 -0.004251 0.006509 0.000001 0.023555 -0.000001
# 6 0.000001 0.000001 -0.000002 -0.062036 -0.000001 0.107701
#
#
# Mechanical properties :
#
#
# Convention : Reuss Voigt Hill
#
# Bulk Modulus (GPa) = 64.35311 66.49572 65.42441
# Shear Modulus (GPa) = 18.67348 33.11664 25.89506
#
# Velocity S-wave (km/s) = 2.83838 3.77990 3.34246
# Velocity P-wave (km/s) = 6.20532 6.90932 6.56676
#
# Compressibility (1/GPa) = 0.01553927
#
# Stress axis : x y z
#
# Youngs Moduli (GPa) = 86.50932 79.15850 68.88516
#
# Poissons Ratio (x) = 0.13144 0.34987
# Poissons Ratio (y) = 0.14365 0.33378
# Poissons Ratio (z) = 0.43938 0.38356
#
# Static dielectric constant tensor:
#      x y z
#    x 2.100840 0.000000 0.037830 
#    y 0.000000 1.841170 0.000000 
#    z 0.037830 0.000000 2.284520 
# 
# From -- ./inp_files/292359.got.cif
#   From: 2010.05.17/outbox.cif.g08.bks.cpg/sg15_147_cif.got.tgz:292359.got - 2010.06.03 18:47:42.
