data_PCOD9285130
_publ_section_title
;
Structure prediction by ZEFSAII (Michael W. Deem and Ramdas Pophale) SiO2 
 PCOD9285130
Probable space group: C 2/C
;
_chemical_formula_sum "Si O2"
_cell_formula_units_Z 52
_cell_length_a 15.605142
_cell_length_b 11.195231
_cell_length_c 17.918007
_cell_angle_alpha 90.000000
_cell_angle_beta 47.152984
_cell_angle_gamma 90.000000
_cell_volume 2295.072470
_symmetry_space_group_name_H-M "C 2/C"
_symmetry_group_IT_number 15
_symmetry_cell_setting 'monoclinic'
loop_
_space_group_symop_operation_xyz
x,y,z
-x,y,1/2-z
-x,-y,-z
x,-y,1/2+z
1/2+x,1/2+y,z
1/2-x,1/2+y,1/2-z
1/2-x,1/2-y,-z
1/2+x,1/2-y,1/2+z
loop_
_atom_site_type_symbol
_atom_site_label
_atom_site_fract_x
_atom_site_fract_y
_atom_site_fract_z
Si Si1 0.527643 0.732685 0.899203
Si Si2 0.247757 0.094392 0.231969
Si Si3 0.368290 0.241868 0.813953
Si Si4 0.686939 0.466985 0.567134
Si Si5 0.500000 0.367560 0.250000
Si Si6 0.666337 0.452296 0.412798
Si Si7 0.880544 0.562871 0.545157
O O1 0.639051 0.821705 0.835952
O O2 0.513399 0.702941 0.819968
O O3 0.566992 0.622894 0.928687
O O4 0.417632 0.804072 0.999663
O O5 0.149152 0.167679 0.245519
O O6 0.203566 0.060171 0.338566
O O7 0.291173 0.971849 0.165038
O O8 0.500000 0.202001 0.750000
O O9 0.332664 0.328708 0.902873
O O10 0.278378 0.135285 0.856131
O O11 0.608617 0.546759 0.668266
O O12 0.643484 0.492578 0.510207
O O13 0.819788 0.501220 0.509103
O O14 0.000000 0.500000 0.500000
#
# Coordination Sequence:
#
# PCOD9285130 Si02
#       7
#     8   8   8   8   4   8   8
#     4  10  23  42  67  97 133 176 226 273 338 409
#     4   9  21  43  65  97 139 171 215 281 334 392
#     4  10  21  41  67  94 133 176 213 272 330 395
#     4  11  24  43  67  94 137 175 222 279 336 393
#     4  12  26  46  66  94 140 180 220 282 340 398
#     4  11  24  41  66 101 129 175 227 274 334 400
#     4   9  20  42  67  92 132 174 211 275 331 392
#
# _framework density 22.657236000000001
#
# number of rings (size 3 to 8) (size 9 to 14) (size 15 to 20)
#    0.000    1.846    0.769    3.231    2.154    4.923 
#    5.538    0.000    0.000    0.000    0.000    0.000 
#    0.000    0.000    0.000    0.000    0.000    0.000 
#
# Total GULP energy -145278.277846 kJ/mol
# GULP energy per Si atom -5587.626071 kJ/mol
# Density = 2.260567 g / cm^3
# Si number density = 22.657236 Si / 1000 Ang^3
#
#
#
# Elastic Constant Matrix: (Units=GPa)
#
#
# Indices 1 2 3 4 5 6 
#
# 1 145.3171 20.7639 42.2702 0.0000 0.4124 0.0000
# 2 20.7639 42.5872 28.0956 0.0000 -3.3404 0.0000
# 3 42.2702 28.0956 66.0330 0.0000 24.9747 0.0000
# 4 0.0000 0.0000 0.0000 43.1653 0.0000 6.3703
# 5 0.4124 -3.3404 24.9747 0.0000 37.7037 0.0000
# 6 0.0000 0.0000 0.0000 6.3703 0.0000 23.6700
#
#
#
# Elastic Compliance Matrix: (Units=1/GPa)
#
#
# Indices 1 2 3 4 5 6 
#
# 1 0.009204 0.001908 -0.008978 0.000000 0.006016 0.000000
# 2 0.001908 0.042536 -0.027669 0.000000 0.022075 0.000000
# 3 -0.008978 -0.027669 0.044770 0.000000 -0.032008 0.000000
# 4 0.000000 0.000000 0.000000 0.024125 0.000000 -0.006493
# 5 0.006016 0.022075 -0.032008 0.000000 0.049615 0.000000
# 6 0.000000 0.000000 0.000000 -0.006493 0.000000 0.043995
#
#
# Mechanical properties :
#
#
# Convention : Reuss Voigt Hill
#
# Bulk Modulus (GPa) = 36.99463 48.46630 42.73047
# Shear Modulus (GPa) = 17.08040 31.76163 24.42101
#
# Velocity S-wave (km/s) = 2.74863 3.74817 3.28662
# Velocity P-wave (km/s) = 5.14166 6.33792 5.77087
#
# Compressibility (1/GPa) = 0.02703095
#
# Stress axis : x y z
#
# Youngs Moduli (GPa) = 108.65426 23.50941 22.33643
#
# Poissons Ratio (x) = -0.04485 0.20055
# Poissons Ratio (y) = -0.20730 0.61802
# Poissons Ratio (z) = 0.97555 0.65047
#
# Static dielectric constant tensor:
#      x y z
#    x 1.866470 0.000000 0.005030 
#    y 0.000000 1.848780 0.000000 
#    z 0.005030 0.000000 1.844070 
# 
# From -- ./inp_files/203909.got.cif
#   From: 2010.05.17/outbox.cif.g08.bks.cpg/sg15_102_cif.got.tgz:203909.got - 2010.06.03 18:47:42.
