data_PCOD9285416
_publ_section_title
;
Structure prediction by ZEFSAII (Michael W. Deem and Ramdas Pophale) SiO2 
 PCOD9285416
Probable space group: C 2/C
;
_chemical_formula_sum "Si O2"
_cell_formula_units_Z 44
_cell_length_a 5.325458
_cell_length_b 23.993613
_cell_length_c 13.929024
_cell_angle_alpha 90.000000
_cell_angle_beta 72.187184
_cell_angle_gamma 90.000000
_cell_volume 1694.486336
_symmetry_space_group_name_H-M "C 2/C"
_symmetry_group_IT_number 15
_symmetry_cell_setting 'monoclinic'
loop_
_space_group_symop_operation_xyz
x,y,z
-x,y,1/2-z
-x,-y,-z
x,-y,1/2+z
1/2+x,1/2+y,z
1/2-x,1/2+y,1/2-z
1/2-x,1/2-y,-z
1/2+x,1/2-y,1/2+z
loop_
_atom_site_type_symbol
_atom_site_label
_atom_site_fract_x
_atom_site_fract_y
_atom_site_fract_z
Si Si1 0.306457 0.954968 0.140904
Si Si2 0.635129 0.713308 0.924186
Si Si3 0.307842 0.409056 0.129405
Si Si4 0.754331 0.644829 0.422778
Si Si5 0.320194 0.415269 0.863599
Si Si6 0.500000 0.221355 0.250000
O O1 0.616836 0.947687 0.088999
O O2 0.251199 0.929999 0.253807
O O3 0.121401 0.919915 0.092176
O O4 0.235051 0.019112 0.139329
O O5 0.777325 0.654264 0.882790
O O6 0.618125 0.744902 0.825594
O O7 0.750000 0.750000 0.000000
O O8 0.346191 0.689441 0.987398
O O9 0.512252 0.603843 0.426261
O O10 0.782470 0.682930 0.324361
O O11 0.500000 0.403096 0.750000
O O12 0.041410 0.382926 0.899882
#
# Coordination Sequence:
#
# PCOD9285416 Si02
#       6
#     8   8   8   8   8   4
#     4  10  21  41  79 112 149 218 262 313 417 495
#     4  12  30  53  79 120 167 216 285 345 405 490
#     4  10  22  42  70 109 154 199 265 325 386 476
#     4  12  28  46  79 121 155 211 278 335 411 498
#     4  12  22  46  80 114 161 207 263 335 412 492
#     4  12  26  52  84 108 162 224 270 344 422 468
#
# _framework density 25.966571999999999
#
# number of rings (size 3 to 8) (size 9 to 14) (size 15 to 20)
#    0.000    0.727    3.636    3.818    2.545    7.273 
#    0.000    5.455    0.000    0.000    0.000    0.000 
#    0.000    0.000    0.000    0.000    0.000    0.000 
#
# Total GULP energy -123105.167450 kJ/mol
# GULP energy per Si atom -5595.689430 kJ/mol
# Density = 2.590747 g / cm^3
# Si number density = 25.966572 Si / 1000 Ang^3
#
#
#
# Elastic Constant Matrix: (Units=GPa)
#
#
# Indices 1 2 3 4 5 6 
#
# 1 197.0420 51.5246 50.7097 0.0000 27.1728 0.0000
# 2 51.5246 152.8579 60.0306 0.0000 31.5542 0.0000
# 3 50.7097 60.0306 149.9924 0.0000 26.8029 0.0000
# 4 0.0000 0.0000 0.0000 -30.8648 0.0000 35.7714
# 5 27.1728 31.5542 26.8029 0.0000 57.2841 0.0000
# 6 0.0000 0.0000 0.0000 35.7714 0.0000 26.1662
#
#
#
# Elastic Compliance Matrix: (Units=1/GPa)
#
#
# Indices 1 2 3 4 5 6 
#
# 1 0.005922 -0.001181 -0.001248 0.000000 -0.001575 0.000000
# 2 -0.001181 0.008530 -0.002483 0.000000 -0.002977 0.000000
# 3 -0.001248 -0.002483 0.008438 0.000000 -0.001988 0.000000
# 4 0.000000 0.000000 0.000000 -0.012536 0.000000 0.017138
# 5 -0.001575 -0.002977 -0.001988 0.000000 0.020774 0.000000
# 6 0.000000 0.000000 0.000000 0.017138 0.000000 0.014788
#
#
# Mechanical properties :
#
#
# Convention : Reuss Voigt Hill
#
# Bulk Modulus (GPa) = 76.53300 91.60247 84.06773
# Shear Modulus (GPa) = 83.20378 33.02560 58.11469
#
# Velocity S-wave (km/s) = 5.66676 3.57017 4.73594
# Velocity P-wave (km/s) = 8.50611 7.23523 7.89628
#
# Compressibility (1/GPa) = 0.01306626
#
# Stress axis : x y z
#
# Youngs Moduli (GPa) = 168.85465 117.24003 118.51311
#
# Poissons Ratio (x) = 0.13846 0.14792
# Poissons Ratio (y) = 0.19942 0.29421
# Poissons Ratio (z) = 0.21076 0.29105
#
# Static dielectric constant tensor:
#      x y z
#    x 2.126820 0.000000 -0.121700 
#    y 0.000000 2.023450 0.000000 
#    z -0.121700 0.000000 2.236480 
# 
# From -- ./inp_files/184940.got.cif
#   From: 2010.05.17/outbox.cif.g08.bks.cpg/sg15_93_cif.got.tgz:184940.got - 2010.06.03 18:47:42.
