data_PCOD9285190
_publ_section_title
;
Structure prediction by ZEFSAII (Michael W. Deem and Ramdas Pophale) SiO2 
 PCOD9285190
Probable space group: C 2/C
;
_chemical_formula_sum "Si O2"
_cell_formula_units_Z 56
_cell_length_a 14.560626
_cell_length_b 18.516490
_cell_length_c 14.942465
_cell_angle_alpha 90.000000
_cell_angle_beta 39.009425
_cell_angle_gamma 90.000000
_cell_volume 2535.834870
_symmetry_space_group_name_H-M "C 2/C"
_symmetry_group_IT_number 15
_symmetry_cell_setting 'monoclinic'
loop_
_space_group_symop_operation_xyz
x,y,z
-x,y,1/2-z
-x,-y,-z
x,-y,1/2+z
1/2+x,1/2+y,z
1/2-x,1/2+y,1/2-z
1/2-x,1/2-y,-z
1/2+x,1/2-y,1/2+z
loop_
_atom_site_type_symbol
_atom_site_label
_atom_site_fract_x
_atom_site_fract_y
_atom_site_fract_z
Si Si1 0.058173 0.000494 0.093168
Si Si2 0.500000 0.357122 0.750000
Si Si3 0.730278 0.618444 0.531362
Si Si4 0.500000 0.733960 0.750000
Si Si5 0.820425 0.081171 0.658219
Si Si6 0.023058 0.797207 0.922079
Si Si7 0.440401 0.864228 0.038011
Si Si8 0.330019 0.149303 0.267127
O O1 0.019093 0.078539 0.159994
O O2 0.146224 0.956600 0.100879
O O3 0.162129 0.020768 0.931011
O O4 0.929316 0.950216 0.151970
O O5 0.532938 0.300291 0.806312
O O6 0.614875 0.683135 0.612828
O O7 0.827697 0.638701 0.540926
O O8 0.815809 0.611681 0.373865
O O9 0.580292 0.780146 0.766144
O O10 0.655677 0.093176 0.816396
O O11 0.890257 0.156148 0.567047
O O12 0.016790 0.713839 0.956402
O O13 0.171678 0.830000 0.850646
O O14 0.585038 0.891478 0.876884
#
# Coordination Sequence:
#
# PCOD9285190 Si02
#       8
#     8   4   8   4   8   8   8   8
#     4  10  21  41  68  92 124 169 234 268 295 377
#     4  10  23  44  68  92 119 180 226 268 300 368
#     4  12  22  36  64  94 134 172 210 261 327 388
#     4  12  21  34  58 100 133 170 200 258 336 396
#     4  10  22  41  68  95 126 171 223 269 311 378
#     4  11  23  41  65  94 131 166 220 271 318 377
#     4  12  23  38  63  98 133 169 204 266 340 390
#     4  12  23  36  57  97 141 163 201 267 340 393
#
# _framework density 22.083456999999999
#
# number of rings (size 3 to 8) (size 9 to 14) (size 15 to 20)
#    0.000    0.857    4.286    4.286    0.000    0.000 
#    0.000    7.143    3.143    0.000    0.000    0.000 
#    0.000    0.000    0.000    0.000    0.000    0.000 
#
# Total GULP energy -155897.780783 kJ/mol
# GULP energy per Si atom -5567.777885 kJ/mol
# Density = 2.203319 g / cm^3
# Si number density = 22.083457 Si / 1000 Ang^3
#
#
#
# Elastic Constant Matrix: (Units=GPa)
#
#
# Indices 1 2 3 4 5 6 
#
# 1 79.8004 16.6510 6.4352 0.0021 33.3368 -0.0014
# 2 16.6510 64.6278 9.2598 0.0012 8.8284 -0.0012
# 3 6.4352 9.2598 110.7433 0.0025 7.8650 -0.0018
# 4 0.0021 0.0012 0.0025 14.6331 -0.0019 13.3346
# 5 33.3368 8.8284 7.8650 -0.0019 38.2146 0.0012
# 6 -0.0014 -0.0012 -0.0018 13.3346 0.0012 4.6592
#
#
#
# Elastic Compliance Matrix: (Units=1/GPa)
#
#
# Indices 1 2 3 4 5 6 
#
# 1 0.020235 -0.002927 0.000279 0.000009 -0.017034 -0.000015
# 2 -0.002927 0.016531 -0.001139 0.000002 -0.001032 -0.000004
# 3 0.000279 -0.001139 0.009243 0.000003 -0.001882 -0.000006
# 4 0.000009 0.000002 0.000003 -0.042498 -0.000015 0.121629
# 5 -0.017034 -0.001032 -0.001882 -0.000015 0.041653 0.000025
# 6 -0.000015 -0.000004 -0.000006 0.121629 0.000025 -0.133472
#
#
# Mechanical properties :
#
#
# Convention : Reuss Voigt Hill
#
# Bulk Modulus (GPa) = 26.01767 35.54040 30.77903
# Shear Modulus (GPa) = -73.61375 26.35641 -23.62867
#
# Velocity S-wave (km/s) = -5.77985 3.45844 -3.27459
# Velocity P-wave (km/s) = 5.72147 5.66360 0.57394
#
# Compressibility (1/GPa) = 0.03843542
#
# Stress axis : x y z
#
# Youngs Moduli (GPa) = 49.41858 60.49115 108.19460
#
# Poissons Ratio (x) = 0.17703 -0.03014
# Poissons Ratio (y) = 0.14463 0.12323
# Poissons Ratio (z) = -0.01377 0.06890
#
# Static dielectric constant tensor:
#      x y z
#    x 1.821330 0.000000 0.028810 
#    y 0.000000 1.798330 0.000000 
#    z 0.028810 0.000000 1.963110 
# 
# From -- ./inp_files/156185.got.cif
#   From: 2010.05.17/outbox.cif.g08.bks.cpg/sg15_79_cif.got.tgz:156185.got - 2010.06.03 18:47:42.
