data_PCOD9285372
_publ_section_title
;
Structure prediction by ZEFSAII (Michael W. Deem and Ramdas Pophale) SiO2 
 PCOD9285372
Probable space group: C 2/C
;
_chemical_formula_sum "Si O2"
_cell_formula_units_Z 56
_cell_length_a 15.043238
_cell_length_b 17.991050
_cell_length_c 21.257060
_cell_angle_alpha 90.000000
_cell_angle_beta 151.350231
_cell_angle_gamma 90.000000
_cell_volume 2758.343024
_symmetry_space_group_name_H-M "C 2/C"
_symmetry_group_IT_number 15
_symmetry_cell_setting 'monoclinic'
loop_
_space_group_symop_operation_xyz
x,y,z
-x,y,1/2-z
-x,-y,-z
x,-y,1/2+z
1/2+x,1/2+y,z
1/2-x,1/2+y,1/2-z
1/2-x,1/2-y,-z
1/2+x,1/2-y,1/2+z
loop_
_atom_site_type_symbol
_atom_site_label
_atom_site_fract_x
_atom_site_fract_y
_atom_site_fract_z
Si Si1 0.202394 0.745050 0.896568
Si Si2 0.796413 0.854321 0.878201
Si Si3 0.490883 0.087794 0.098468
Si Si4 0.314300 0.584971 0.921552
Si Si5 0.767730 0.447862 0.274461
Si Si6 0.655797 0.553236 0.971941
Si Si7 0.555708 0.191242 0.546183
O O1 0.217259 0.659257 0.884905
O O2 0.000000 0.772830 0.750000
O O3 0.250000 0.750000 0.000000
O O4 0.361377 0.787445 0.957187
O O5 0.608536 0.885217 0.731862
O O6 0.819626 0.877026 0.965309
O O7 0.826050 0.766940 0.885510
O O8 0.966522 0.896196 0.948267
O O9 0.287996 0.063004 0.994863
O O10 0.600875 0.019039 0.135455
O O11 0.478010 0.155717 0.042621
O O12 0.252782 0.563277 0.813386
O O13 0.281065 0.517953 0.948286
O O14 0.849477 0.372625 0.353762
O O15 0.562233 0.457603 0.175294
#
# Coordination Sequence:
#
# PCOD9285372 Si02
#       7
#     8   8   8   8   8   8   8
#     4  11  26  42  70 108 138 182 235 288 362 424
#     4  10  22  43  67  96 135 172 229 279 337 405
#     4  12  25  43  70 100 135 177 228 281 347 412
#     4  10  21  41  71  97 129 177 227 291 332 413
#     4  11  23  47  68  96 141 174 231 282 343 412
#     4  11  23  42  70 102 121 183 235 279 334 411
#     4  11  28  44  66  97 144 181 212 291 355 404
#
# _framework density 20.302043000000001
#
# number of rings (size 3 to 8) (size 9 to 14) (size 15 to 20)
#    0.000    1.143    2.857    2.571   14.000    1.143 
#    2.571    0.000    0.000    0.000    0.000    0.000 
#    0.000    0.000    0.000    0.000    0.000    0.000 
#
# Total GULP energy -156624.125725 kJ/mol
# GULP energy per Si atom -5593.718776 kJ/mol
# Density = 2.025583 g / cm^3
# Si number density = 20.302043 Si / 1000 Ang^3
#
#
#
# Elastic Constant Matrix: (Units=GPa)
#
#
# Indices 1 2 3 4 5 6 
#
# 1 86.7177 9.3356 39.2448 -0.0013 21.3171 0.0003
# 2 9.3356 67.2424 25.9163 0.0023 1.4903 0.0016
# 3 39.2448 25.9163 71.8655 0.0024 19.5725 0.0000
# 4 -0.0013 0.0023 0.0024 30.2926 -0.0012 -9.6090
# 5 21.3171 1.4903 19.5725 -0.0012 23.1796 0.0001
# 6 0.0003 0.0016 0.0000 -9.6090 0.0001 28.6076
#
#
#
# Elastic Compliance Matrix: (Units=1/GPa)
#
#
# Indices 1 2 3 4 5 6 
#
# 1 0.016973 0.000454 -0.006718 0.000001 -0.009966 0.000000
# 2 0.000454 0.017819 -0.008114 -0.000001 0.005288 -0.000001
# 3 -0.006718 -0.008114 0.024265 -0.000002 -0.013789 0.000000
# 4 0.000001 -0.000001 -0.000002 0.036948 0.000003 0.012411
# 5 -0.009966 0.005288 -0.013789 0.000003 0.063610 0.000001
# 6 0.000000 -0.000001 0.000000 0.012411 0.000001 0.039124
#
#
# Mechanical properties :
#
#
# Convention : Reuss Voigt Hill
#
# Bulk Modulus (GPa) = 33.00330 41.64656 37.32493
# Shear Modulus (GPa) = 21.04419 26.50454 23.77437
#
# Velocity S-wave (km/s) = 3.22305 3.61711 3.42575
# Velocity P-wave (km/s) = 5.49019 6.16463 5.83716
#
# Compressibility (1/GPa) = 0.03030000
#
# Stress axis : x y z
#
# Youngs Moduli (GPa) = 58.91716 56.12125 41.21148
#
# Poissons Ratio (x) = -0.02546 0.27687
# Poissons Ratio (y) = -0.02673 0.33438
# Poissons Ratio (z) = 0.39582 0.45536
#
# Static dielectric constant tensor:
#      x y z
#    x 1.708890 0.000000 0.012740 
#    y 0.000000 1.697990 0.000000 
#    z 0.012740 0.000000 1.743990 
# 
# From -- ./inp_files/245172.got.cif
#   From: 2010.05.17/outbox.cif.g08.bks.cpg/sg15_123_cif.got.tgz:245172.got - 2010.06.03 18:47:42.
