data_PCOD9285833
_publ_section_title
;
Structure prediction by ZEFSAII (Michael W. Deem and Ramdas Pophale) SiO2 
 PCOD9285833
Probable space group: C 2/C
;
_chemical_formula_sum "Si O2"
_cell_formula_units_Z 48
_cell_length_a 11.354324
_cell_length_b 7.611165
_cell_length_c 24.549141
_cell_angle_alpha 90.000000
_cell_angle_beta 101.418222
_cell_angle_gamma 90.000000
_cell_volume 2079.539047
_symmetry_space_group_name_H-M "C 2/C"
_symmetry_group_IT_number 15
_symmetry_cell_setting 'monoclinic'
loop_
_space_group_symop_operation_xyz
x,y,z
-x,y,1/2-z
-x,-y,-z
x,-y,1/2+z
1/2+x,1/2+y,z
1/2-x,1/2+y,1/2-z
1/2-x,1/2-y,-z
1/2+x,1/2-y,1/2+z
loop_
_atom_site_type_symbol
_atom_site_label
_atom_site_fract_x
_atom_site_fract_y
_atom_site_fract_z
Si Si1 0.853970 0.697519 0.966641
Si Si2 0.378943 0.759214 0.744087
Si Si3 0.939359 0.373432 0.190795
Si Si4 0.122920 0.282021 0.520383
Si Si5 0.159042 0.760929 0.655897
Si Si6 0.326875 0.329003 0.353874
O O1 0.874737 0.491097 0.973599
O O2 0.801299 0.739806 0.902470
O O3 0.750000 0.750000 0.000000
O O4 0.991131 0.774320 0.984496
O O5 0.500000 0.646979 0.750000
O O6 0.256197 0.688732 0.708000
O O7 0.367504 0.790632 0.807169
O O8 0.403874 0.932034 0.709338
O O9 0.815568 0.298715 0.158113
O O10 0.000000 0.288489 0.250000
O O11 0.036896 0.345002 0.153380
O O12 0.250000 0.250000 0.500000
O O13 0.125834 0.203514 0.581667
O O14 0.144223 0.970801 0.662019
#
# Coordination Sequence:
#
# PCOD9285833 Si02
#       6
#     8   8   8   8   8   8
#     4  11  27  46  73 101 136 185 231 286 347 406
#     4  10  24  41  65 100 140 174 219 271 341 405
#     4  10  21  42  67  95 142 177 218 270 339 403
#     4  11  26  48  71 100 140 181 233 286 347 408
#     4  11  24  44  71 101 136 179 227 280 340 403
#     4  11  24  42  71 102 133 179 229 278 337 406
#
# _framework density 23.082039000000002
#
# number of rings (size 3 to 8) (size 9 to 14) (size 15 to 20)
#    0.000    1.333    1.667    2.000    7.000    7.333 
#    0.000    0.000    0.000    0.000    0.000    0.000 
#    0.000    0.000    0.000    0.000    0.000    0.000 
#
# Total GULP energy -133895.987024 kJ/mol
# GULP energy per Si atom -5578.999459 kJ/mol
# Density = 2.302950 g / cm^3
# Si number density = 23.082039 Si / 1000 Ang^3
#
#
#
# Elastic Constant Matrix: (Units=GPa)
#
#
# Indices 1 2 3 4 5 6 
#
# 1 128.8409 18.2655 28.6599 0.0000 -12.9643 0.0000
# 2 18.2655 75.9741 4.5257 0.0000 -6.9919 0.0000
# 3 28.6599 4.5257 120.7911 0.0000 -14.6854 0.0000
# 4 0.0000 0.0000 0.0000 25.5962 0.0000 -7.3839
# 5 -12.9643 -6.9919 -14.6854 0.0000 46.2383 0.0000
# 6 0.0000 0.0000 0.0000 -7.3839 0.0000 20.5535
#
#
#
# Elastic Compliance Matrix: (Units=1/GPa)
#
#
# Indices 1 2 3 4 5 6 
#
# 1 0.008571 -0.001811 -0.001775 0.000000 0.001565 0.000000
# 2 -0.001811 0.013739 0.000110 0.000000 0.001605 0.000000
# 3 -0.001775 0.000110 0.008984 0.000000 0.002372 0.000000
# 4 0.000000 0.000000 0.000000 0.043585 0.000000 0.015658
# 5 0.001565 0.001605 0.002372 0.000000 0.023062 0.000000
# 6 0.000000 0.000000 0.000000 0.015658 0.000000 0.054279
#
#
# Mechanical properties :
#
#
# Convention : Reuss Voigt Hill
#
# Bulk Modulus (GPa) = 41.08206 47.61204 44.34705
# Shear Modulus (GPa) = 29.88891 36.75461 33.32176
#
# Velocity S-wave (km/s) = 3.60237 3.99475 3.80363
# Velocity P-wave (km/s) = 5.92788 6.47684 6.20843
#
# Compressibility (1/GPa) = 0.02434152
#
# Stress axis : x y z
#
# Youngs Moduli (GPa) = 116.67730 72.78633 111.30540
#
# Poissons Ratio (x) = 0.13180 0.19761
# Poissons Ratio (y) = 0.21127 -0.01224
# Poissons Ratio (z) = 0.20715 -0.00800
#
# Static dielectric constant tensor:
#      x y z
#    x 1.961460 0.000000 -0.014110 
#    y 0.000000 1.933490 0.000000 
#    z -0.014110 0.000000 1.888520 
# 
# From -- ./inp_files/267745.got.cif
#   From: 2010.05.17/outbox.cif.g08.bks.cpg/sg15_134_cif.got.tgz:267745.got - 2010.06.03 18:47:42.
