data_PCOD9285097
_publ_section_title
;
Structure prediction by ZEFSAII (Michael W. Deem and Ramdas Pophale) SiO2 
 PCOD9285097
Probable space group: C 2/C
;
_chemical_formula_sum "Si O2"
_cell_formula_units_Z 52
_cell_length_a 25.022977
_cell_length_b 16.586566
_cell_length_c 19.992164
_cell_angle_alpha 90.000000
_cell_angle_beta 16.886781
_cell_angle_gamma 90.000000
_cell_volume 2410.314117
_symmetry_space_group_name_H-M "C 2/C"
_symmetry_group_IT_number 15
_symmetry_cell_setting 'monoclinic'
loop_
_space_group_symop_operation_xyz
x,y,z
-x,y,1/2-z
-x,-y,-z
x,-y,1/2+z
1/2+x,1/2+y,z
1/2-x,1/2+y,1/2-z
1/2-x,1/2-y,-z
1/2+x,1/2-y,1/2+z
loop_
_atom_site_type_symbol
_atom_site_label
_atom_site_fract_x
_atom_site_fract_y
_atom_site_fract_z
Si Si1 0.147196 0.350126 0.804583
Si Si2 0.618105 0.128424 0.493888
Si Si3 0.755350 0.315843 0.212878
Si Si4 0.582735 0.722343 0.281245
Si Si5 0.000000 0.877273 0.750000
Si Si6 0.348043 0.523940 0.738326
Si Si7 0.099202 0.967617 0.068859
O O1 0.168975 0.377501 0.854898
O O2 0.262393 0.267489 0.663467
O O3 0.224127 0.419975 0.666133
O O4 0.939056 0.330087 0.034911
O O5 0.431910 0.181705 0.713784
O O6 0.742841 0.190815 0.386917
O O7 0.680815 0.040779 0.444891
O O8 0.586824 0.303943 0.466964
O O9 0.722068 0.390041 0.203355
O O10 0.571955 0.676433 0.224180
O O11 0.862759 0.942897 0.948778
O O12 0.500000 0.500000 0.500000
O O13 0.458230 0.526581 0.675915
O O14 0.000000 0.924869 0.250000
#
# Coordination Sequence:
#
# PCOD9285097 Si02
#       7
#     8   8   8   8   4   8   8
#     4  11  22  41  64  99 124 165 213 273 321 384
#     4  11  21  37  64  87 127 161 219 262 313 369
#     4  11  23  39  69  96 129 157 223 273 319 375
#     4  11  21  40  60  96 123 174 207 266 323 383
#     4  10  22  40  66  84 134 172 212 248 334 394
#     4  12  20  41  64  91 127 174 216 265 321 371
#     4  10  21  41  67  91 127 173 211 254 335 388
#
# _framework density 21.573951999999998
#
# number of rings (size 3 to 8) (size 9 to 14) (size 15 to 20)
#    0.462    0.615    4.615    4.615    0.000    1.231 
#    2.769    3.846    0.000    0.000    0.000    0.000 
#    0.000    0.000    0.000    0.000    0.000    0.000 
#
# Total GULP energy -145186.635789 kJ/mol
# GULP energy per Si atom -5584.101377 kJ/mol
# Density = 2.152485 g / cm^3
# Si number density = 21.573952 Si / 1000 Ang^3
#
#
#
# Elastic Constant Matrix: (Units=GPa)
#
#
# Indices 1 2 3 4 5 6 
#
# 1 115.6898 31.4978 30.3160 -0.0032 1.3073 -0.0009
# 2 31.4978 109.8157 36.7050 0.0043 -0.2755 -0.0041
# 3 30.3160 36.7050 42.9272 -0.0142 -1.0731 0.0056
# 4 -0.0032 0.0043 -0.0142 32.6202 0.0028 -5.1834
# 5 1.3073 -0.2755 -1.0731 0.0028 25.2892 0.0004
# 6 -0.0009 -0.0041 0.0056 -5.1834 0.0004 39.0610
#
#
#
# Elastic Compliance Matrix: (Units=1/GPa)
#
#
# Indices 1 2 3 4 5 6 
#
# 1 0.010670 -0.000752 -0.006914 -0.000002 -0.000853 0.000001
# 2 -0.000752 0.012806 -0.010425 -0.000006 -0.000264 0.000002
# 3 -0.006914 -0.010425 0.037138 0.000016 0.001820 -0.000004
# 4 -0.000002 -0.000006 0.000016 0.031316 -0.000003 0.004156
# 5 -0.000853 -0.000264 0.001820 -0.000003 0.039661 -0.000001
# 6 0.000001 0.000002 -0.000004 0.004156 -0.000001 0.026152
#
#
# Mechanical properties :
#
#
# Convention : Reuss Voigt Hill
#
# Bulk Modulus (GPa) = 40.93075 51.71891 46.32483
# Shear Modulus (GPa) = 24.74411 30.72165 27.73288
#
# Velocity S-wave (km/s) = 3.39033 3.77771 3.58925
# Velocity P-wave (km/s) = 5.85997 6.56148 6.22062
#
# Compressibility (1/GPa) = 0.02443151
#
# Stress axis : x y z
#
# Youngs Moduli (GPa) = 93.72221 78.09055 26.92688
#
# Poissons Ratio (x) = 0.05869 0.18617
# Poissons Ratio (y) = 0.07044 0.28072
# Poissons Ratio (z) = 0.64799 0.81412
#
# Static dielectric constant tensor:
#      x y z
#    x 1.747420 0.000000 -0.003990 
#    y 0.000000 1.807900 -0.000010 
#    z -0.003990 -0.000010 1.852890 
# 
# From -- ./inp_files/255828.got.cif
#   From: 2010.05.17/outbox.cif.g08.bks.cpg/sg15_128_cif.got.tgz:255828.got - 2010.06.03 18:47:42.
