data_PCOD9285564
_publ_section_title
;
Structure prediction by ZEFSAII (Michael W. Deem and Ramdas Pophale) SiO2 
 PCOD9285564
Probable space group: C 2/C
;
_chemical_formula_sum "Si O2"
_cell_formula_units_Z 48
_cell_length_a 17.147603
_cell_length_b 10.417833
_cell_length_c 23.818030
_cell_angle_alpha 90.000000
_cell_angle_beta 148.703862
_cell_angle_gamma 90.000000
_cell_volume 2210.243023
_symmetry_space_group_name_H-M "C 2/C"
_symmetry_group_IT_number 15
_symmetry_cell_setting 'monoclinic'
loop_
_space_group_symop_operation_xyz
x,y,z
-x,y,1/2-z
-x,-y,-z
x,-y,1/2+z
1/2+x,1/2+y,z
1/2-x,1/2+y,1/2-z
1/2-x,1/2-y,-z
1/2+x,1/2-y,1/2+z
loop_
_atom_site_type_symbol
_atom_site_label
_atom_site_fract_x
_atom_site_fract_y
_atom_site_fract_z
Si Si1 0.016749 0.998862 0.168918
Si Si2 0.302946 0.956328 0.478149
Si Si3 0.598032 0.401482 0.095708
Si Si4 0.376197 0.049425 0.287491
Si Si5 0.802788 0.625603 0.367043
Si Si6 0.148718 0.758718 0.314737
O O1 0.039995 0.934982 0.122407
O O2 0.088965 0.892123 0.253475
O O3 0.120533 0.123478 0.245040
O O4 0.844110 0.007833 0.080147
O O5 0.333007 0.047167 0.442544
O O6 0.445373 0.955953 0.606453
O O7 0.268090 0.810676 0.433691
O O8 0.775007 0.434777 0.203355
O O9 0.601311 0.256273 0.075985
O O10 0.500000 0.500000 0.000000
O O11 0.350364 0.057667 0.338343
O O12 0.308412 0.170513 0.211322
O O13 0.000000 0.695687 0.250000
#
# Coordination Sequence:
#
# PCOD9285564 Si02
#       6
#     8   8   8   8   8   8
#     4   9  20  43  64  92 127 171 215 267 328 389
#     4  10  22  40  69  93 126 175 223 267 328 398
#     4  11  25  41  62  93 132 170 215 278 327 389
#     4  11  23  37  64  96 128 167 222 267 329 393
#     4  10  21  42  64  89 127 174 220 265 326 394
#     4   9  19  36  61  93 126 159 206 270 326 382
#
# _framework density 21.717068999999999
#
# number of rings (size 3 to 8) (size 9 to 14) (size 15 to 20)
#    0.000    2.000    1.667    2.000    2.333    6.667 
#    0.000    6.667    0.000    0.000    0.000    0.000 
#    0.000    0.000    0.000    0.000    0.000    0.000 
#
# Total GULP energy -133729.020784 kJ/mol
# GULP energy per Si atom -5572.042533 kJ/mol
# Density = 2.166764 g / cm^3
# Si number density = 21.717069 Si / 1000 Ang^3
#
#
#
# Elastic Constant Matrix: (Units=GPa)
#
#
# Indices 1 2 3 4 5 6 
#
# 1 81.3795 26.5743 37.1394 0.0000 1.3970 0.0000
# 2 26.5743 59.5741 22.2013 0.0001 -2.6969 0.0001
# 3 37.1394 22.2013 100.2747 0.0002 17.2963 0.0001
# 4 0.0000 0.0001 0.0002 30.9531 0.0001 -6.8928
# 5 1.3970 -2.6969 17.2963 0.0001 31.9385 0.0000
# 6 0.0000 0.0001 0.0001 -6.8928 0.0000 18.0150
#
#
#
# Elastic Compliance Matrix: (Units=1/GPa)
#
#
# Indices 1 2 3 4 5 6 
#
# 1 0.016345 -0.005293 -0.005164 0.000000 0.001635 0.000000
# 2 -0.005293 0.020515 -0.003222 0.000000 0.003708 0.000000
# 3 -0.005164 -0.003222 0.013905 0.000000 -0.007577 0.000000
# 4 0.000000 0.000000 0.000000 0.035316 0.000000 0.013512
# 5 0.001635 0.003708 -0.007577 0.000000 0.035655 0.000000
# 6 0.000000 0.000000 0.000000 0.013512 0.000000 0.060679
#
#
# Mechanical properties :
#
#
# Convention : Reuss Voigt Hill
#
# Bulk Modulus (GPa) = 42.71812 45.89536 44.30674
# Shear Modulus (GPa) = 22.98057 26.53555 24.75806
#
# Velocity S-wave (km/s) = 3.25650 3.49933 3.38009
# Velocity P-wave (km/s) = 5.81831 6.12423 5.97323
#
# Compressibility (1/GPa) = 0.02340927
#
# Stress axis : x y z
#
# Youngs Moduli (GPa) = 61.18069 48.74445 71.91460
#
# Poissons Ratio (x) = 0.25798 0.37137
# Poissons Ratio (y) = 0.32380 0.23168
# Poissons Ratio (z) = 0.31594 0.15703
#
# Static dielectric constant tensor:
#      x y z
#    x 1.928600 0.000000 -0.003510 
#    y 0.000000 1.809440 0.000000 
#    z -0.003510 0.000000 1.910840 
# 
# From -- ./inp_files/277315.got.cif
#   From: 2010.05.17/outbox.cif.g08.bks.cpg/sg15_139_cif.got.tgz:277315.got - 2010.06.03 18:47:42.
