data_PCOD9285662
_publ_section_title
;
Structure prediction by ZEFSAII (Michael W. Deem and Ramdas Pophale) SiO2 
 PCOD9285662
Probable space group: C 2/C
;
_chemical_formula_sum "Si O2"
_cell_formula_units_Z 56
_cell_length_a 8.184085
_cell_length_b 14.273217
_cell_length_c 23.830220
_cell_angle_alpha 90.000000
_cell_angle_beta 55.791758
_cell_angle_gamma 90.000000
_cell_volume 2302.106488
_symmetry_space_group_name_H-M "C 2/C"
_symmetry_group_IT_number 15
_symmetry_cell_setting 'monoclinic'
loop_
_space_group_symop_operation_xyz
x,y,z
-x,y,1/2-z
-x,-y,-z
x,-y,1/2+z
1/2+x,1/2+y,z
1/2-x,1/2+y,1/2-z
1/2-x,1/2-y,-z
1/2+x,1/2-y,1/2+z
loop_
_atom_site_type_symbol
_atom_site_label
_atom_site_fract_x
_atom_site_fract_y
_atom_site_fract_z
Si Si1 0.079947 0.299288 0.647829
Si Si2 0.503727 0.616667 0.887609
Si Si3 0.148843 0.088013 0.978538
Si Si4 0.825535 0.789933 0.713977
Si Si5 0.651021 0.916979 0.265811
Si Si6 0.516457 0.029397 0.393086
Si Si7 0.351617 0.589825 0.402083
O O1 0.118008 0.209330 0.602473
O O2 0.842991 0.306103 0.706564
O O3 0.126947 0.397622 0.610690
O O4 0.197617 0.286565 0.682047
O O5 0.619984 0.634698 0.923272
O O6 0.649300 0.599604 0.806684
O O7 0.385845 0.519740 0.910158
O O8 0.372192 0.051021 0.942179
O O9 0.112811 0.139778 0.044648
O O10 0.000000 0.000000 0.000000
O O11 0.919767 0.687842 0.705186
O O12 0.990270 0.868415 0.672310
O O13 0.500000 0.961673 0.250000
O O14 0.657662 0.979940 0.319748
O O15 0.638031 0.087831 0.414953
#
# Coordination Sequence:
#
# PCOD9285662 Si02
#       7
#     8   8   8   8   8   8   8
#     4  10  22  39  65  93 128 162 209 258 319 380
#     4  10  21  42  65  93 128 169 207 260 320 370
#     4  10  22  43  64  87 126 170 215 258 307 379
#     4  10  23  40  61  94 129 163 205 259 320 383
#     4  11  23  39  67  93 129 157 209 266 321 375
#     4  12  24  39  65  95 124 167 211 263 319 372
#     4  11  24  41  64  93 130 169 213 255 312 378
#
# _framework density 24.325548000000001
#
# number of rings (size 3 to 8) (size 9 to 14) (size 15 to 20)
#    0.000    1.429    1.429    3.857    6.000    2.857 
#    0.000   10.714    0.000    0.000    0.000    0.000 
#    0.000    0.000    0.000    0.000    0.000    0.000 
#
# Total GULP energy -156513.073411 kJ/mol
# GULP energy per Si atom -5589.752622 kJ/mol
# Density = 2.427018 g / cm^3
# Si number density = 24.325548 Si / 1000 Ang^3
#
#
#
# Elastic Constant Matrix: (Units=GPa)
#
#
# Indices 1 2 3 4 5 6 
#
# 1 78.7264 -5.3903 16.7445 0.0001 16.1469 0.0001
# 2 -5.3903 60.9881 9.9293 0.0000 13.5678 0.0001
# 3 16.7445 9.9293 66.7087 0.0001 12.6294 0.0001
# 4 0.0001 0.0000 0.0001 7.6853 -0.0001 5.0873
# 5 16.1469 13.5678 12.6294 -0.0001 27.4750 -0.0001
# 6 0.0001 0.0001 0.0001 5.0873 -0.0001 23.2569
#
#
#
# Elastic Compliance Matrix: (Units=1/GPa)
#
#
# Indices 1 2 3 4 5 6 
#
# 1 0.015571 0.004012 -0.002627 0.000000 -0.009925 0.000000
# 2 0.004012 0.019530 -0.001798 0.000000 -0.011176 0.000000
# 3 -0.002627 -0.001798 0.016931 0.000000 -0.005351 0.000000
# 4 0.000000 0.000000 0.000000 0.152149 0.000001 -0.033282
# 5 -0.009925 -0.011176 -0.005351 0.000001 0.050208 0.000000
# 6 0.000000 0.000000 0.000000 -0.033282 0.000000 0.050278
#
#
# Mechanical properties :
#
#
# Convention : Reuss Voigt Hill
#
# Bulk Modulus (GPa) = 19.52904 27.66558 23.59731
# Shear Modulus (GPa) = 15.50089 24.02607 19.76348
#
# Velocity S-wave (km/s) = 2.52707 3.14616 2.85346
# Velocity P-wave (km/s) = 4.06945 4.95939 4.53630
#
# Compressibility (1/GPa) = 0.05120579
#
# Stress axis : x y z
#
# Youngs Moduli (GPa) = 64.22127 51.20282 59.06484
#
# Poissons Ratio (x) = -0.20542 0.15514
# Poissons Ratio (y) = -0.25764 0.10621
# Poissons Ratio (z) = 0.16869 0.09207
#
# Static dielectric constant tensor:
#      x y z
#    x 1.912820 0.000000 0.001040 
#    y 0.000000 1.934030 0.000000 
#    z 0.001040 0.000000 2.004140 
# 
# From -- ./inp_files/264607.got.cif
#   From: 2010.05.17/outbox.cif.g08.bks.cpg/sg15_133_cif.got.tgz:264607.got - 2010.06.03 18:47:42.
