data_PCOD9285911
_publ_section_title
;
Structure prediction by ZEFSAII (Michael W. Deem and Ramdas Pophale) SiO2 
 PCOD9285911
Probable space group: C 2/C
;
_chemical_formula_sum "Si O2"
_cell_formula_units_Z 60
_cell_length_a 28.040829
_cell_length_b 14.528539
_cell_length_c 18.579433
_cell_angle_alpha 90.000000
_cell_angle_beta 22.894989
_cell_angle_gamma 90.000000
_cell_volume 2944.715091
_symmetry_space_group_name_H-M "C 2/C"
_symmetry_group_IT_number 15
_symmetry_cell_setting 'monoclinic'
loop_
_space_group_symop_operation_xyz
x,y,z
-x,y,1/2-z
-x,-y,-z
x,-y,1/2+z
1/2+x,1/2+y,z
1/2-x,1/2+y,1/2-z
1/2-x,1/2-y,-z
1/2+x,1/2-y,1/2+z
loop_
_atom_site_type_symbol
_atom_site_label
_atom_site_fract_x
_atom_site_fract_y
_atom_site_fract_z
Si Si1 0.053924 0.897359 0.434698
Si Si2 0.996333 0.453538 0.427697
Si Si3 0.863584 0.809334 0.909275
Si Si4 0.500000 0.809324 0.750000
Si Si5 0.895148 0.263266 0.216361
Si Si6 0.751910 0.010551 0.494791
Si Si7 0.365775 0.317431 0.330134
Si Si8 0.809035 0.457237 0.079273
O O1 0.086036 0.844071 0.315864
O O2 0.187589 0.913687 0.283863
O O3 0.958590 0.831648 0.607077
O O4 0.000000 0.000000 0.500000
O O5 0.011468 0.346231 0.425545
O O6 0.117136 0.485088 0.216201
O O7 0.000000 0.500000 0.500000
O O8 0.883942 0.482861 0.532696
O O9 0.874867 0.734569 0.830442
O O10 0.000000 0.816406 0.750000
O O11 0.742158 0.780881 0.123936
O O12 0.826839 0.905339 0.923455
O O13 0.533735 0.739960 0.766990
O O14 0.606171 0.876798 0.572795
O O15 0.819849 0.916318 0.422153
O O16 0.735365 0.011643 0.430974
O O17 0.250000 0.250000 0.500000
#
# Coordination Sequence:
#
# PCOD9285911 Si02
#       8
#     8   8   8   4   8   8   8   8
#     4  11  25  46  69  98 142 180 232 295 354 425
#     4  11  24  39  65 100 138 175 227 290 344 411
#     4  10  23  44  68  97 132 178 227 280 347 423
#     4  12  22  40  72 102 124 190 236 286 338 434
#     4  10  24  42  66  96 135 178 226 288 345 423
#     4  10  21  42  68  93 134 177 227 279 346 423
#     4  11  22  41  69  97 132 179 233 285 340 412
#     4  11  22  44  69  93 136 186 232 281 354 421
#
# _framework density 20.375485999999999
#
# number of rings (size 3 to 8) (size 9 to 14) (size 15 to 20)
#    0.000    1.333    4.000    1.600    4.667    6.400 
#    4.800    0.000    0.000    0.000    0.000    0.000 
#    0.000    0.000    0.000    0.000    0.000    0.000 
#
# Total GULP energy -167299.522155 kJ/mol
# GULP energy per Si atom -5576.650738 kJ/mol
# Density = 2.032911 g / cm^3
# Si number density = 20.375486 Si / 1000 Ang^3
#
#
#
# Elastic Constant Matrix: (Units=GPa)
#
#
# Indices 1 2 3 4 5 6 
#
# 1 71.3965 24.5934 48.2822 0.0000 -17.8758 0.0000
# 2 24.5934 121.3435 62.6894 0.0000 -7.8664 0.0000
# 3 48.2822 62.6894 134.1339 0.0000 -24.9394 0.0000
# 4 0.0000 0.0000 0.0000 33.0417 0.0000 -10.9061
# 5 -17.8758 -7.8664 -24.9394 0.0000 36.4256 0.0000
# 6 0.0000 0.0000 0.0000 -10.9061 0.0000 21.9895
#
#
#
# Elastic Compliance Matrix: (Units=1/GPa)
#
#
# Indices 1 2 3 4 5 6 
#
# 1 0.019447 -0.000656 -0.005667 0.000000 0.005522 0.000000
# 2 -0.000656 0.010940 -0.005153 0.000000 -0.001488 0.000000
# 3 -0.005667 -0.005153 0.012810 0.000000 0.004877 0.000000
# 4 0.000000 0.000000 0.000000 0.036189 0.000000 0.017949
# 5 0.005522 -0.001488 0.004877 0.000000 0.033181 0.000000
# 6 0.000000 0.000000 0.000000 0.017949 0.000000 0.054378
#
#
# Mechanical properties :
#
#
# Convention : Reuss Voigt Hill
#
# Bulk Modulus (GPa) = 49.39484 66.44487 57.91986
# Shear Modulus (GPa) = 25.42640 31.04531 28.23585
#
# Velocity S-wave (km/s) = 3.53638 3.90764 3.72664
# Velocity P-wave (km/s) = 6.40075 7.28290 6.85602
#
# Compressibility (1/GPa) = 0.02024503
#
# Stress axis : x y z
#
# Youngs Moduli (GPa) = 51.42194 91.40784 78.06193
#
# Poissons Ratio (x) = 0.05995 0.44236
# Poissons Ratio (y) = 0.03372 0.40229
# Poissons Ratio (z) = 0.29140 0.47107
#
# Static dielectric constant tensor:
#      x y z
#    x 1.868300 0.000000 0.019170 
#    y 0.000000 1.768250 0.000000 
#    z 0.019170 0.000000 1.814620 
# 
# From -- ./inp_files/259387.got.cif
#   From: 2010.05.17/outbox.cif.g08.bks.cpg/sg15_130_cif.got.tgz:259387.got - 2010.06.03 18:47:42.
