data_PCOD9285765
_publ_section_title
;
Structure prediction by ZEFSAII (Michael W. Deem and Ramdas Pophale) SiO2 
 PCOD9285765
Probable space group: C 2/C
;
_chemical_formula_sum "Si O2"
_cell_formula_units_Z 56
_cell_length_a 8.796556
_cell_length_b 22.880287
_cell_length_c 14.486315
_cell_angle_alpha 90.000000
_cell_angle_beta 117.384637
_cell_angle_gamma 90.000000
_cell_volume 2588.898791
_symmetry_space_group_name_H-M "C 2/C"
_symmetry_group_IT_number 15
_symmetry_cell_setting 'monoclinic'
loop_
_space_group_symop_operation_xyz
x,y,z
-x,y,1/2-z
-x,-y,-z
x,-y,1/2+z
1/2+x,1/2+y,z
1/2-x,1/2+y,1/2-z
1/2-x,1/2-y,-z
1/2+x,1/2-y,1/2+z
loop_
_atom_site_type_symbol
_atom_site_label
_atom_site_fract_x
_atom_site_fract_y
_atom_site_fract_z
Si Si1 0.251885 0.894428 0.575962
Si Si2 0.367186 0.819316 0.298720
Si Si3 0.799777 0.191498 0.289003
Si Si4 0.651900 0.980561 0.365948
Si Si5 0.014506 0.414190 0.484392
Si Si6 0.371538 0.638045 0.913319
Si Si7 0.183899 0.837245 0.904603
O O1 0.305725 0.847478 0.669038
O O2 0.389557 0.904158 0.534522
O O3 0.072621 0.872706 0.482673
O O4 0.241712 0.959895 0.614157
O O5 0.500000 0.814170 0.250000
O O6 0.342741 0.756057 0.337217
O O7 0.439867 0.867665 0.387968
O O8 0.188688 0.836406 0.200557
O O9 0.751088 0.198485 0.167013
O O10 0.980982 0.157261 0.337338
O O11 0.500000 0.979312 0.250000
O O12 0.551445 0.971733 0.434645
O O13 0.774416 0.924376 0.391836
O O14 0.202847 0.394987 0.570862
O O15 0.304773 0.677326 0.982353
#
# Coordination Sequence:
#
# PCOD9285765 Si02
#       7
#     8   8   8   8   8   8   8
#     4  11  26  41  61  97 141 169 208 272 343 398
#     4  12  20  41  71  94 127 170 235 275 307 405
#     4  10  23  39  62  98 126 175 218 271 326 377
#     4  11  21  43  70  91 125 173 224 271 324 390
#     4  11  23  40  66  95 129 175 217 264 340 389
#     4  10  21  42  66  96 127 169 221 274 323 387
#     4   9  19  36  62  89 124 161 222 257 314 386
#
# _framework density 21.63082
#
# number of rings (size 3 to 8) (size 9 to 14) (size 15 to 20)
#    0.000    1.429    5.714    0.857    2.000    4.571 
#    0.000    1.429    0.000    0.000    0.000    0.000 
#    0.000    0.000    0.000    0.000    0.000    0.000 
#
# Total GULP energy -155944.192991 kJ/mol
# GULP energy per Si atom -5569.435464 kJ/mol
# Density = 2.158159 g / cm^3
# Si number density = 21.630820 Si / 1000 Ang^3
#
#
#
# Elastic Constant Matrix: (Units=GPa)
#
#
# Indices 1 2 3 4 5 6 
#
# 1 76.6130 24.3287 17.7804 0.0000 1.4303 0.0000
# 2 24.3287 92.0710 25.0138 0.0000 -10.5235 0.0000
# 3 17.7804 25.0138 55.1223 0.0000 10.0394 0.0000
# 4 0.0000 0.0000 0.0000 3.8455 0.0000 -21.8835
# 5 1.4303 -10.5235 10.0394 0.0000 35.9615 0.0000
# 6 0.0000 0.0000 0.0000 -21.8835 0.0000 0.6430
#
#
#
# Elastic Compliance Matrix: (Units=1/GPa)
#
#
# Indices 1 2 3 4 5 6 
#
# 1 0.014803 -0.003090 -0.003267 0.000000 -0.000581 0.000000
# 2 -0.003090 0.014148 -0.006532 0.000000 0.006087 0.000000
# 3 -0.003267 -0.006532 0.023688 0.000000 -0.008395 0.000000
# 4 0.000000 0.000000 0.000000 -0.001350 0.000000 -0.045934
# 5 -0.000581 0.006087 -0.008395 0.000000 0.031955 0.000000
# 6 0.000000 0.000000 0.000000 -0.045934 0.000000 -0.008072
#
#
# Mechanical properties :
#
#
# Convention : Reuss Voigt Hill
#
# Bulk Modulus (GPa) = 37.22835 39.78355 38.50595
# Shear Modulus (GPa) = 45.49389 18.53555 32.01472
#
# Velocity S-wave (km/s) = 4.59104 2.93047 3.85132
# Velocity P-wave (km/s) = 6.73436 5.46646 6.13326
#
# Compressibility (1/GPa) = 0.02686125
#
# Stress axis : x y z
#
# Youngs Moduli (GPa) = 67.55398 70.68107 42.21518
#
# Poissons Ratio (x) = 0.21844 0.13790
# Poissons Ratio (y) = 0.20877 0.27575
# Poissons Ratio (z) = 0.22067 0.46168
#
# Static dielectric constant tensor:
#      x y z
#    x 1.823570 0.000000 -0.048230 
#    y 0.000000 1.793280 0.000000 
#    z -0.048230 0.000000 1.847690 
# 
# From -- ./inp_files/137953.got.cif
#   From: 2010.05.17/outbox.cif.g08.bks.cpg/sg15_69_cif.got.tgz:137953.got - 2010.06.03 18:47:42.
