data_PCOD9285244
_publ_section_title
;
Structure prediction by ZEFSAII (Michael W. Deem and Ramdas Pophale) SiO2 
 PCOD9285244
Probable space group: C 2/C
;
_chemical_formula_sum "Si O2"
_cell_formula_units_Z 60
_cell_length_a 26.135959
_cell_length_b 21.364608
_cell_length_c 5.056669
_cell_angle_alpha 90.000000
_cell_angle_beta 72.299267
_cell_angle_gamma 90.000000
_cell_volume 2689.891286
_symmetry_space_group_name_H-M "C 2/C"
_symmetry_group_IT_number 15
_symmetry_cell_setting 'monoclinic'
loop_
_space_group_symop_operation_xyz
x,y,z
-x,y,1/2-z
-x,-y,-z
x,-y,1/2+z
1/2+x,1/2+y,z
1/2-x,1/2+y,1/2-z
1/2-x,1/2-y,-z
1/2+x,1/2-y,1/2+z
loop_
_atom_site_type_symbol
_atom_site_label
_atom_site_fract_x
_atom_site_fract_y
_atom_site_fract_z
Si Si1 0.000000 0.545364 0.750000
Si Si2 0.173795 0.545811 0.973819
Si Si3 0.558756 0.744825 0.067868
Si Si4 0.208257 0.781051 0.863143
Si Si5 0.064745 0.963174 0.149025
Si Si6 0.594977 0.325103 0.039222
Si Si7 0.707731 0.848870 0.097191
Si Si8 0.896525 0.378504 0.580096
O O1 0.053975 0.587045 0.639715
O O2 0.000000 0.500000 0.500000
O O3 0.178515 0.498052 0.722799
O O4 0.213450 0.602962 0.832182
O O5 0.118734 0.416110 0.628454
O O6 0.500000 0.765334 0.250000
O O7 0.585216 0.711866 0.281471
O O8 0.588268 0.806212 0.909433
O O9 0.554906 0.696514 0.833060
O O10 0.238685 0.834944 0.651487
O O11 0.192345 0.720929 0.712198
O O12 0.250000 0.750000 0.000000
O O13 0.153687 0.808277 0.061311
O O14 0.088946 0.898515 0.012691
O O15 0.000000 0.957176 0.250000
O O16 0.080196 0.982361 0.420186
O O17 0.658736 0.875855 0.000791
#
# Coordination Sequence:
#
# PCOD9285244 Si02
#       8
#     4   8   8   8   8   8   8   8
#     4  12  30  46  70 104 148 202 252 308 366 446
#     4  12  25  43  70  99 135 187 244 299 356 435
#     4  12  25  43  68 109 150 187 236 306 376 437
#     4  11  25  46  74 108 143 187 247 309 382 445
#     4  10  21  41  68  99 138 183 224 272 347 442
#     4  12  25  44  73 107 145 189 242 300 367 445
#     4  11  24  46  73 101 140 189 242 308 378 441
#     4  12  25  47  69 104 143 193 247 310 373 441
#
# _framework density 22.305734999999999
#
# number of rings (size 3 to 8) (size 9 to 14) (size 15 to 20)
#    0.000    0.533    3.333    5.200    3.733    1.067 
#    0.000    1.333    0.000    0.000    0.000    0.000 
#    0.000    0.000    0.000    0.000    0.000    0.000 
#
# Total GULP energy -167667.758443 kJ/mol
# GULP energy per Si atom -5588.925281 kJ/mol
# Density = 2.225497 g / cm^3
# Si number density = 22.305735 Si / 1000 Ang^3
#
#
#
# Elastic Constant Matrix: (Units=GPa)
#
#
# Indices 1 2 3 4 5 6 
#
# 1 60.4438 34.6064 27.4356 0.0000 4.1609 0.0000
# 2 34.6064 111.0858 43.6724 0.0000 -3.0472 0.0000
# 3 27.4356 43.6724 124.4499 0.0000 6.0437 0.0000
# 4 0.0000 0.0000 0.0000 44.3595 0.0000 -4.0250
# 5 4.1609 -3.0472 6.0437 0.0000 28.6625 0.0000
# 6 0.0000 0.0000 0.0000 -4.0250 0.0000 14.6015
#
#
#
# Elastic Compliance Matrix: (Units=1/GPa)
#
#
# Indices 1 2 3 4 5 6 
#
# 1 0.021160 -0.005689 -0.002516 0.000000 -0.003146 0.000000
# 2 -0.005689 0.012076 -0.003118 0.000000 0.002767 0.000000
# 3 -0.002516 -0.003118 0.009783 0.000000 -0.002029 0.000000
# 4 0.000000 0.000000 0.000000 0.023121 0.000000 0.006374
# 5 -0.003146 0.002767 -0.002029 0.000000 0.036068 0.000000
# 6 0.000000 0.000000 0.000000 0.006374 0.000000 0.070243
#
#
# Mechanical properties :
#
#
# Convention : Reuss Voigt Hill
#
# Bulk Modulus (GPa) = 49.08405 56.37870 52.73138
# Shear Modulus (GPa) = 24.76628 30.20904 27.48766
#
# Velocity S-wave (km/s) = 3.33575 3.68410 3.51424
# Velocity P-wave (km/s) = 6.07365 6.58992 6.33704
#
# Compressibility (1/GPa) = 0.02037322
#
# Stress axis : x y z
#
# Youngs Moduli (GPa) = 47.25891 82.80801 102.22207
#
# Poissons Ratio (x) = 0.47112 0.25714
# Poissons Ratio (y) = 0.26887 0.31872
# Poissons Ratio (z) = 0.11888 0.25819
#
# Static dielectric constant tensor:
#      x y z
#    x 1.853640 0.000000 0.038550 
#    y 0.000000 1.815900 0.000000 
#    z 0.038550 0.000000 1.785940 
# 
# From -- ./inp_files/18585.got.cif
#   From: 2010.05.17/outbox.cif.g08.bks.cpg/sg15_10_cif.got.tgz:18585.got - 2010.06.03 18:47:42.
