data_PCOD9285789
_publ_section_title
;
Structure prediction by ZEFSAII (Michael W. Deem and Ramdas Pophale) SiO2 
 PCOD9285789
Probable space group: C 2/C
;
_chemical_formula_sum "Si O2"
_cell_formula_units_Z 48
_cell_length_a 12.184893
_cell_length_b 15.696537
_cell_length_c 10.694280
_cell_angle_alpha 90.000000
_cell_angle_beta 103.152248
_cell_angle_gamma 90.000000
_cell_volume 1991.741669
_symmetry_space_group_name_H-M "C 2/C"
_symmetry_group_IT_number 15
_symmetry_cell_setting 'monoclinic'
loop_
_space_group_symop_operation_xyz
x,y,z
-x,y,1/2-z
-x,-y,-z
x,-y,1/2+z
1/2+x,1/2+y,z
1/2-x,1/2+y,1/2-z
1/2-x,1/2-y,-z
1/2+x,1/2-y,1/2+z
loop_
_atom_site_type_symbol
_atom_site_label
_atom_site_fract_x
_atom_site_fract_y
_atom_site_fract_z
Si Si1 0.647777 0.544081 0.209953
Si Si2 0.807341 0.695221 0.620245
Si Si3 0.000000 0.637562 0.250000
Si Si4 0.000000 0.179009 0.250000
Si Si5 0.351238 0.941331 0.933963
Si Si6 0.298031 0.110305 0.034706
Si Si7 0.627086 0.649328 0.781509
O O1 0.546700 0.610614 0.161509
O O2 0.724577 0.573203 0.347358
O O3 0.730093 0.550695 0.114112
O O4 0.612034 0.449468 0.234959
O O5 0.750000 0.750000 0.500000
O O6 0.859931 0.612858 0.563888
O O7 0.710869 0.681816 0.696988
O O8 0.901030 0.756305 0.699063
O O9 0.066555 0.588572 0.155465
O O10 0.111646 0.665249 0.362626
O O11 0.360588 0.042376 0.960673
O O12 0.200766 0.153978 0.927222
O O13 0.500000 0.687206 0.750000
#
# Coordination Sequence:
#
# PCOD9285789 Si02
#       7
#     8   8   4   4   8   8   8
#     4  10  21  43  71 106 133 193 246 311 360 431
#     4  12  27  47  67 107 150 196 237 307 387 444
#     4  10  22  39  66 101 144 188 240 306 366 433
#     4  12  26  43  74 103 150 196 240 304 382 441
#     4  10  21  42  66  99 145 189 241 301 369 447
#     4  10  22  40  70 104 140 184 255 310 360 428
#     4  11  25  44  74 109 144 189 258 306 363 446
#
# _framework density 24.099509999999999
#
# number of rings (size 3 to 8) (size 9 to 14) (size 15 to 20)
#    0.000    1.333    4.167    0.500    4.667    1.333 
#    1.500    0.833    0.000    0.000    0.000    0.000 
#    0.000    0.000    0.000    0.000    0.000    0.000 
#
# Total GULP energy -133932.465266 kJ/mol
# GULP energy per Si atom -5580.519386 kJ/mol
# Density = 2.404466 g / cm^3
# Si number density = 24.099510 Si / 1000 Ang^3
#
#
#
# Elastic Constant Matrix: (Units=GPa)
#
#
# Indices 1 2 3 4 5 6 
#
# 1 150.3758 36.9374 63.0244 0.0000 23.6677 0.0000
# 2 36.9374 64.7969 31.9629 0.0000 22.7106 0.0000
# 3 63.0244 31.9629 116.4848 0.0000 12.1571 0.0000
# 4 0.0000 0.0000 0.0000 17.2230 0.0000 -1.1148
# 5 23.6677 22.7106 12.1571 0.0000 30.0882 0.0000
# 6 0.0000 0.0000 0.0000 -1.1148 0.0000 14.4548
#
#
#
# Elastic Compliance Matrix: (Units=1/GPa)
#
#
# Indices 1 2 3 4 5 6 
#
# 1 0.009561 -0.001813 -0.004211 0.000000 -0.004451 0.000000
# 2 -0.001813 0.023599 -0.003951 0.000000 -0.014790 0.000000
# 3 -0.004211 -0.003951 0.011787 0.000000 0.001532 0.000000
# 4 0.000000 0.000000 0.000000 0.058353 0.000000 0.004500
# 5 -0.004451 -0.014790 0.001532 0.000000 0.047281 0.000000
# 6 0.000000 0.000000 0.000000 0.004500 0.000000 0.069528
#
#
# Mechanical properties :
#
#
# Convention : Reuss Voigt Hill
#
# Bulk Modulus (GPa) = 40.00414 66.16743 53.08578
# Shear Modulus (GPa) = 20.12950 25.66872 22.89911
#
# Velocity S-wave (km/s) = 2.89323 3.26715 3.08586
# Velocity P-wave (km/s) = 5.27225 6.46126 5.89680
#
# Compressibility (1/GPa) = 0.02499741
#
# Stress axis : x y z
#
# Youngs Moduli (GPa) = 104.59553 42.37464 84.83676
#
# Poissons Ratio (x) = 0.07683 0.35723
# Poissons Ratio (y) = 0.18963 0.33519
# Poissons Ratio (z) = 0.44043 0.16742
#
# Static dielectric constant tensor:
#      x y z
#    x 3.747440 0.000000 -1.736250 
#    y 0.000000 1.974810 0.000000 
#    z -1.736250 0.000000 3.650770 
# 
# From -- ./inp_files/87922.got.cif
#   From: 2010.05.17/outbox.cif.g08.bks.cpg/sg15_44_cif.got.tgz:87922.got - 2010.06.03 18:47:42.
