data_PCOD9285440
_publ_section_title
;
Structure prediction by ZEFSAII (Michael W. Deem and Ramdas Pophale) SiO2 
 PCOD9285440
Probable space group: C 2/C
;
_chemical_formula_sum "Si O2"
_cell_formula_units_Z 56
_cell_length_a 13.405749
_cell_length_b 26.186397
_cell_length_c 8.545771
_cell_angle_alpha 90.000000
_cell_angle_beta 116.628516
_cell_angle_gamma 90.000000
_cell_volume 2681.774242
_symmetry_space_group_name_H-M "C 2/C"
_symmetry_group_IT_number 15
_symmetry_cell_setting 'monoclinic'
loop_
_space_group_symop_operation_xyz
x,y,z
-x,y,1/2-z
-x,-y,-z
x,-y,1/2+z
1/2+x,1/2+y,z
1/2-x,1/2+y,1/2-z
1/2-x,1/2-y,-z
1/2+x,1/2-y,1/2+z
loop_
_atom_site_type_symbol
_atom_site_label
_atom_site_fract_x
_atom_site_fract_y
_atom_site_fract_z
Si Si1 0.764794 0.554857 0.214158
Si Si2 0.474906 0.719684 0.049831
Si Si3 0.500000 0.093393 0.250000
Si Si4 0.733884 0.055561 0.908674
Si Si5 0.967070 0.670776 0.967639
Si Si6 0.223422 0.162107 0.707460
Si Si7 0.500000 0.095942 0.750000
Si Si8 0.603989 0.363193 0.431626
O O1 0.895010 0.563425 0.251632
O O2 0.757120 0.557311 0.397094
O O3 0.729144 0.498688 0.131195
O O4 0.681206 0.595585 0.074341
O O5 0.500000 0.726634 0.250000
O O6 0.485163 0.773881 0.969437
O O7 0.350594 0.699065 0.946765
O O8 0.552331 0.677426 0.018152
O O9 0.557556 0.133120 0.408453
O O10 0.790097 0.104473 0.867010
O O11 0.603223 0.062312 0.770244
O O12 0.851488 0.677611 0.795783
O O13 0.043146 0.634378 0.913852
O O14 0.179945 0.164393 0.854728
O O15 0.500000 0.383415 0.250000
#
# Coordination Sequence:
#
# PCOD9285440 Si02
#       8
#     8   8   4   8   8   8   4   8
#     4  12  24  42  65  99 125 173 209 266 324 376
#     4  11  24  42  66  95 127 172 215 261 319 371
#     4  12  25  38  68  98 136 160 219 258 318 394
#     4  11  24  40  67  91 133 166 212 262 327 377
#     4  11  23  41  64  95 131 171 209 260 319 381
#     4  10  23  44  63  93 130 165 215 269 308 384
#     4  10  21  42  60  96 132 170 207 258 318 388
#     4  10  23  44  66  92 130 167 218 265 308 376
#
# _framework density 20.881699000000001
#
# number of rings (size 3 to 8) (size 9 to 14) (size 15 to 20)
#    0.000    1.143    3.571    2.143    5.000    3.429 
#    0.000    7.143    0.000    0.000    0.000    0.000 
#    0.000    0.000    0.000    0.000    0.000    0.000 
#
# Total GULP energy -156251.105954 kJ/mol
# GULP energy per Si atom -5580.396641 kJ/mol
# Density = 2.083417 g / cm^3
# Si number density = 20.881699 Si / 1000 Ang^3
#
#
#
# Elastic Constant Matrix: (Units=GPa)
#
#
# Indices 1 2 3 4 5 6 
#
# 1 46.4463 3.3100 7.5556 0.0000 -6.0813 0.0000
# 2 3.3100 103.6218 12.0836 0.0000 6.9677 0.0000
# 3 7.5556 12.0836 55.9396 0.0000 -6.0705 0.0000
# 4 0.0000 0.0000 0.0000 143.1186 0.0000 -44.4421
# 5 -6.0813 6.9677 -6.0705 0.0000 28.3571 0.0000
# 6 0.0000 0.0000 0.0000 -44.4421 0.0000 36.0507
#
#
#
# Elastic Compliance Matrix: (Units=1/GPa)
#
#
# Indices 1 2 3 4 5 6 
#
# 1 0.022564 -0.000744 -0.002398 0.000000 0.004509 0.000000
# 2 -0.000744 0.010173 -0.002442 0.000000 -0.003182 0.000000
# 3 -0.002398 -0.002442 0.019183 0.000000 0.004192 0.000000
# 4 0.000000 0.000000 0.000000 0.011321 0.000000 0.013956
# 5 0.004509 -0.003182 0.004192 0.000000 0.037911 0.000000
# 6 0.000000 0.000000 0.000000 0.013956 0.000000 0.044943
#
#
# Mechanical properties :
#
#
# Convention : Reuss Voigt Hill
#
# Bulk Modulus (GPa) = 24.53921 27.98956 26.26438
# Shear Modulus (GPa) = 29.26601 53.70916 41.48759
#
# Velocity S-wave (km/s) = 3.74774 5.07706 4.46218
# Velocity P-wave (km/s) = 5.52309 6.91387 6.25724
#
# Compressibility (1/GPa) = 0.04075112
#
# Stress axis : x y z
#
# Youngs Moduli (GPa) = 44.31915 98.29916 52.13007
#
# Poissons Ratio (x) = 0.07317 0.12498
# Poissons Ratio (y) = 0.03299 0.12732
# Poissons Ratio (z) = 0.10626 0.24007
#
# Static dielectric constant tensor:
#      x y z
#    x 1.787810 0.000000 -0.047310 
#    y 0.000000 1.725080 0.000000 
#    z -0.047310 0.000000 1.851610 
# 
# From -- ./inp_files/42779.got.cif
#   From: 2010.05.17/outbox.cif.g08.bks.cpg/sg15_22_cif.got.tgz:42779.got - 2010.06.03 18:47:42.
