data_PCOD9285158
_publ_section_title
;
Structure prediction by ZEFSAII (Michael W. Deem and Ramdas Pophale) SiO2 
 PCOD9285158
Probable space group: C 2/C
;
_chemical_formula_sum "Si O2"
_cell_formula_units_Z 44
_cell_length_a 8.169901
_cell_length_b 23.739235
_cell_length_c 10.899145
_cell_angle_alpha 90.000000
_cell_angle_beta 73.392584
_cell_angle_gamma 90.000000
_cell_volume 2025.680283
_symmetry_space_group_name_H-M "C 2/C"
_symmetry_group_IT_number 15
_symmetry_cell_setting 'monoclinic'
loop_
_space_group_symop_operation_xyz
x,y,z
-x,y,1/2-z
-x,-y,-z
x,-y,1/2+z
1/2+x,1/2+y,z
1/2-x,1/2+y,1/2-z
1/2-x,1/2-y,-z
1/2+x,1/2-y,1/2+z
loop_
_atom_site_type_symbol
_atom_site_label
_atom_site_fract_x
_atom_site_fract_y
_atom_site_fract_z
Si Si1 0.130284 0.692515 0.901256
Si Si2 0.889338 0.585588 0.938564
Si Si3 0.380645 0.371068 0.174478
Si Si4 0.367474 0.680788 0.078895
Si Si5 0.000000 0.504791 0.250000
Si Si6 0.307061 0.423810 0.764046
O O1 0.279932 0.676178 0.773839
O O2 0.079141 0.756874 0.891012
O O3 0.988051 0.644957 0.915120
O O4 0.203392 0.687435 0.024238
O O5 0.750888 0.587748 0.860183
O O6 0.007484 0.534388 0.869948
O O7 0.793693 0.580072 0.086636
O O8 0.500000 0.399829 0.250000
O O9 0.489054 0.344593 0.041377
O O10 0.331856 0.637061 0.194615
O O11 0.826364 0.541543 0.291781
O O12 0.500000 0.445614 0.750000
#
# Coordination Sequence:
#
# PCOD9285158 Si02
#       6
#     8   8   8   8   4   8
#     4  10  22  41  72 101 143 187 226 291 350 425
#     4  12  24  47  70 101 134 187 236 289 359 415
#     4  10  21  41  67  99 137 181 231 284 350 422
#     4  10  23  43  66 106 143 180 234 288 356 420
#     4  12  28  50  70 102 140 186 248 294 348 422
#     4  12  27  47  72 106 140 186 235 298 357 416
#
# _framework density 21.721097
#
# number of rings (size 3 to 8) (size 9 to 14) (size 15 to 20)
#    0.000    1.091    3.636    1.636    2.545    3.636 
#    1.636    0.000    0.000    0.000    0.000    0.000 
#    0.000    0.000    0.000    0.000    0.000    0.000 
#
# Total GULP energy -122933.479657 kJ/mol
# GULP energy per Si atom -5587.885439 kJ/mol
# Density = 2.167166 g / cm^3
# Si number density = 21.721097 Si / 1000 Ang^3
#
#
#
# Elastic Constant Matrix: (Units=GPa)
#
#
# Indices 1 2 3 4 5 6 
#
# 1 86.6960 42.5694 13.3935 0.0000 -3.5548 0.0000
# 2 42.5694 114.7465 39.4537 0.0000 -7.2755 0.0000
# 3 13.3935 39.4537 125.5694 0.0000 -14.9262 0.0000
# 4 0.0000 0.0000 0.0000 5.8488 0.0000 9.7541
# 5 -3.5548 -7.2755 -14.9262 0.0000 31.6457 0.0000
# 6 0.0000 0.0000 0.0000 9.7541 0.0000 23.9807
#
#
#
# Elastic Compliance Matrix: (Units=1/GPa)
#
#
# Indices 1 2 3 4 5 6 
#
# 1 0.014113 -0.005278 0.000209 0.000000 0.000470 0.000000
# 2 -0.005278 0.011765 -0.003054 0.000000 0.000672 0.000000
# 3 0.000209 -0.003054 0.009344 0.000000 0.003729 0.000000
# 4 0.000000 0.000000 0.000000 0.531528 0.000000 -0.216198
# 5 0.000470 0.000672 0.003729 0.000000 0.033566 0.000000
# 6 0.000000 0.000000 0.000000 -0.216198 0.000000 0.129638
#
#
# Mechanical properties :
#
#
# Convention : Reuss Voigt Hill
#
# Bulk Modulus (GPa) = 52.69503 57.53835 55.11669
# Shear Modulus (GPa) = 6.64429 27.73473 17.18951
#
# Velocity S-wave (km/s) = 1.75087 3.57719 2.81619
# Velocity P-wave (km/s) = 5.32916 6.60370 6.00036
#
# Compressibility (1/GPa) = 0.01897712
#
# Stress axis : x y z
#
# Youngs Moduli (GPa) = 70.85640 84.99462 107.01814
#
# Poissons Ratio (x) = 0.44858 -0.02235
# Poissons Ratio (y) = 0.37396 0.32682
# Poissons Ratio (z) = -0.01480 0.25957
#
# Static dielectric constant tensor:
#      x y z
#    x 1.850060 0.000000 0.031430 
#    y 0.000000 1.793460 0.000000 
#    z 0.031430 0.000000 1.757210 
# 
# From -- ./inp_files/78105.got.cif
#   From: 2010.05.17/outbox.cif.g08.bks.cpg/sg15_40_cif.got.tgz:78105.got - 2010.06.03 18:47:42.
