data_PCOD9285558
_publ_section_title
;
Structure prediction by ZEFSAII (Michael W. Deem and Ramdas Pophale) SiO2 
 PCOD9285558
Probable space group: C 2/C
;
_chemical_formula_sum "Si O2"
_cell_formula_units_Z 56
_cell_length_a 12.434374
_cell_length_b 16.995116
_cell_length_c 13.266900
_cell_angle_alpha 90.000000
_cell_angle_beta 123.805994
_cell_angle_gamma 90.000000
_cell_volume 2329.592734
_symmetry_space_group_name_H-M "C 2/C"
_symmetry_group_IT_number 15
_symmetry_cell_setting 'monoclinic'
loop_
_space_group_symop_operation_xyz
x,y,z
-x,y,1/2-z
-x,-y,-z
x,-y,1/2+z
1/2+x,1/2+y,z
1/2-x,1/2+y,1/2-z
1/2-x,1/2-y,-z
1/2+x,1/2-y,1/2+z
loop_
_atom_site_type_symbol
_atom_site_label
_atom_site_fract_x
_atom_site_fract_y
_atom_site_fract_z
Si Si1 0.109126 0.261645 0.600552
Si Si2 0.500000 0.958250 0.250000
Si Si3 0.157953 0.144610 0.322263
Si Si4 0.373416 0.396381 0.486168
Si Si5 0.858999 0.034434 0.362936
Si Si6 0.500000 0.777934 0.750000
Si Si7 0.188830 0.592254 0.436956
Si Si8 0.552731 0.913234 0.058328
O O1 0.262480 0.278588 0.668973
O O2 0.075005 0.189260 0.512105
O O3 0.036872 0.341938 0.530447
O O4 0.065135 0.237051 0.689007
O O5 0.549686 0.910780 0.178128
O O6 0.607613 0.017927 0.350916
O O7 0.210192 0.116175 0.458243
O O8 0.199699 0.078914 0.262731
O O9 0.000000 0.154479 0.250000
O O10 0.323449 0.444204 0.364118
O O11 0.489996 0.453504 0.579016
O O12 0.820672 0.082529 0.444094
O O13 0.386890 0.832580 0.645084
O O14 0.180835 0.593924 0.553653
O O15 0.500000 0.000000 0.000000
#
# Coordination Sequence:
#
# PCOD9285558 Si02
#       8
#     8   4   8   8   8   4   8   8
#     4  11  21  42  67  93 133 165 212 272 324 385
#     4   9  18  32  52  94 121 158 216 254 317 382
#     4  10  22  42  70  90 127 174 209 268 327 379
#     4  10  24  41  63  97 121 173 217 264 323 378
#     4  10  21  42  64  87 129 166 220 257 316 390
#     4   9  18  36  64  90 119 166 198 254 333 368
#     4   9  17  33  61  84 122 164 205 260 312 374
#     4   9  20  34  58  94 127 167 207 263 324 378
#
# _framework density 24.038536000000001
#
# number of rings (size 3 to 8) (size 9 to 14) (size 15 to 20)
#    0.000    2.286    1.429    1.286    4.000    0.000 
#   10.286    2.857    1.571    0.000    0.000    0.000 
#    0.000    0.000    0.000    0.000    0.000    0.000 
#
# Total GULP energy -156108.755035 kJ/mol
# GULP energy per Si atom -5575.312680 kJ/mol
# Density = 2.398382 g / cm^3
# Si number density = 24.038536 Si / 1000 Ang^3
#
#
#
# Elastic Constant Matrix: (Units=GPa)
#
#
# Indices 1 2 3 4 5 6 
#
# 1 115.7760 13.3452 38.9916 0.0000 -36.9616 0.0000
# 2 13.3452 74.0593 20.3464 0.0000 -10.7451 0.0000
# 3 38.9916 20.3464 83.9009 0.0000 -46.2782 0.0000
# 4 0.0000 0.0000 0.0000 17.6356 0.0000 -2.6395
# 5 -36.9616 -10.7451 -46.2782 0.0000 62.0446 0.0000
# 6 0.0000 0.0000 0.0000 -2.6395 0.0000 5.4519
#
#
#
# Elastic Compliance Matrix: (Units=1/GPa)
#
#
# Indices 1 2 3 4 5 6 
#
# 1 0.011004 -0.000651 -0.002383 0.000000 0.004666 0.000000
# 2 -0.000651 0.014506 -0.003472 0.000000 -0.000465 0.000000
# 3 -0.002383 -0.003472 0.021668 0.000000 0.014141 0.000000
# 4 0.000000 0.000000 0.000000 0.061133 0.000000 0.029597
# 5 0.004666 -0.000465 0.014141 0.000000 0.029364 0.000000
# 6 0.000000 0.000000 0.000000 0.029597 0.000000 0.197753
#
#
# Mechanical properties :
#
#
# Convention : Reuss Voigt Hill
#
# Bulk Modulus (GPa) = 29.26802 46.56696 37.91749
# Shear Modulus (GPa) = 13.89544 30.42993 22.16269
#
# Velocity S-wave (km/s) = 2.40687 3.56178 3.03968
# Velocity P-wave (km/s) = 4.46385 6.02735 5.30353
#
# Compressibility (1/GPa) = 0.03416699
#
# Stress axis : x y z
#
# Youngs Moduli (GPa) = 90.87271 68.93516 46.15071
#
# Poissons Ratio (x) = 0.04491 0.10996
# Poissons Ratio (y) = 0.05920 0.16023
# Poissons Ratio (z) = 0.21652 0.23933
#
# Static dielectric constant tensor:
#      x y z
#    x 2.005980 0.000000 0.022370 
#    y 0.000000 1.912130 0.000000 
#    z 0.022370 0.000000 2.028710 
# 
# From -- ./inp_files/145778.got.cif
#   From: 2010.05.17/outbox.cif.g08.bks.cpg/sg15_73_cif.got.tgz:145778.got - 2010.06.03 18:47:42.
