data_PCOD9285650
_publ_section_title
;
Structure prediction by ZEFSAII (Michael W. Deem and Ramdas Pophale) SiO2 
 PCOD9285650
Probable space group: C 2/C
;
_chemical_formula_sum "Si O2"
_cell_formula_units_Z 56
_cell_length_a 15.654052
_cell_length_b 17.965847
_cell_length_c 19.459209
_cell_angle_alpha 90.000000
_cell_angle_beta 32.150872
_cell_angle_gamma 90.000000
_cell_volume 2912.286782
_symmetry_space_group_name_H-M "C 2/C"
_symmetry_group_IT_number 15
_symmetry_cell_setting 'monoclinic'
loop_
_space_group_symop_operation_xyz
x,y,z
-x,y,1/2-z
-x,-y,-z
x,-y,1/2+z
1/2+x,1/2+y,z
1/2-x,1/2+y,1/2-z
1/2-x,1/2-y,-z
1/2+x,1/2-y,1/2+z
loop_
_atom_site_type_symbol
_atom_site_label
_atom_site_fract_x
_atom_site_fract_y
_atom_site_fract_z
Si Si1 0.956880 0.298026 0.562755
Si Si2 0.334068 0.956789 0.627298
Si Si3 0.106601 0.692762 0.112093
Si Si4 0.735452 0.827089 0.268333
Si Si5 0.943467 0.059814 0.715780
Si Si6 0.288499 0.022730 0.437843
Si Si7 0.397891 0.032077 0.716393
O O1 0.863037 0.370231 0.598932
O O2 0.835877 0.229591 0.653499
O O3 0.015003 0.313773 0.601543
O O4 0.111445 0.289730 0.407277
O O5 0.500000 0.000000 0.500000
O O6 0.192383 0.997039 0.683660
O O7 0.310465 0.975408 0.723902
O O8 0.168622 0.610543 0.089855
O O9 0.000000 0.717627 0.250000
O O10 0.250000 0.750000 0.000000
O O11 0.863689 0.875897 0.224532
O O12 0.639313 0.886402 0.287268
O O13 0.000000 0.091494 0.750000
O O14 0.100037 0.020829 0.578579
O O15 0.412297 0.985206 0.407140
O O16 0.329381 0.984777 0.337876
#
# Coordination Sequence:
#
# PCOD9285650 Si02
#       7
#     8   8   8   8   8   8   8
#     4  12  23  41  64  95 134 179 210 265 338 387
#     4  11  20  40  66  86 126 173 216 264 321 391
#     4  12  23  38  61  96 139 172 205 266 335 405
#     4  11  26  41  66  94 137 171 219 273 329 402
#     4  11  23  38  65  99 125 171 221 267 314 400
#     4  11  21  39  67  92 127 168 222 272 323 388
#     4  10  21  42  65  91 125 178 218 267 324 384
#
# _framework density 19.228874999999999
#
# number of rings (size 3 to 8) (size 9 to 14) (size 15 to 20)
#    0.000    0.857    5.714    3.429    0.000    5.714 
#    0.000    0.000    3.143    4.286    0.000    0.000 
#    0.000    0.000    0.000    0.000    0.000    0.000 
#
# Total GULP energy -156389.830854 kJ/mol
# GULP energy per Si atom -5585.351102 kJ/mol
# Density = 1.918511 g / cm^3
# Si number density = 19.228875 Si / 1000 Ang^3
#
#
#
# Elastic Constant Matrix: (Units=GPa)
#
#
# Indices 1 2 3 4 5 6 
#
# 1 75.8341 45.8510 43.6006 -0.0012 2.0774 0.0009
# 2 45.8510 122.1897 69.0290 0.0008 -12.7640 0.0007
# 3 43.6006 69.0290 165.5789 0.0023 -5.0346 0.0008
# 4 -0.0012 0.0008 0.0023 32.9968 -0.0001 2.4334
# 5 2.0774 -12.7640 -5.0346 -0.0001 28.8262 -0.0007
# 6 0.0009 0.0007 0.0008 2.4334 -0.0007 19.3680
#
#
#
# Elastic Compliance Matrix: (Units=1/GPa)
#
#
# Indices 1 2 3 4 5 6 
#
# 1 0.018320 -0.005927 -0.002486 0.000001 -0.004379 -0.000001
# 2 -0.005927 0.013098 -0.003730 0.000000 0.005575 0.000000
# 3 -0.002486 -0.003730 0.008248 -0.000001 -0.000032 0.000000
# 4 0.000001 0.000000 -0.000001 0.030589 0.000000 -0.003843
# 5 -0.004379 0.005575 -0.000032 0.000000 0.037469 0.000001
# 6 -0.000001 0.000000 0.000000 -0.003843 0.000001 0.052114
#
#
# Mechanical properties :
#
#
# Convention : Reuss Voigt Hill
#
# Bulk Modulus (GPa) = 65.02487 75.61821 70.32154
# Shear Modulus (GPa) = 26.41975 29.91301 28.16638
#
# Velocity S-wave (km/s) = 3.71072 3.94843 3.83142
# Velocity P-wave (km/s) = 7.22834 7.75870 7.49821
#
# Compressibility (1/GPa) = 0.01537873
#
# Stress axis : x y z
#
# Youngs Moduli (GPa) = 54.58564 76.34833 121.23936
#
# Poissons Ratio (x) = 0.45255 0.30141
# Poissons Ratio (y) = 0.32355 0.45223
# Poissons Ratio (z) = 0.13570 0.28479
#
# Static dielectric constant tensor:
#      x y z
#    x 1.700050 0.000000 0.033200 
#    y 0.000000 1.657270 0.000000 
#    z 0.033200 0.000000 1.732420 
# 
# From -- ./inp_files/245124.got.cif
#   From: 2010.05.17/outbox.cif.g08.bks.cpg/sg15_123_cif.got.tgz:245124.got - 2010.06.03 18:47:42.
