data_PCOD9285667
_publ_section_title
;
Structure prediction by ZEFSAII (Michael W. Deem and Ramdas Pophale) SiO2 
 PCOD9285667
Probable space group: C 2/C
;
_chemical_formula_sum "Si O2"
_cell_formula_units_Z 52
_cell_length_a 17.345940
_cell_length_b 20.300776
_cell_length_c 7.413548
_cell_angle_alpha 90.000000
_cell_angle_beta 125.456297
_cell_angle_gamma 90.000000
_cell_volume 2126.467321
_symmetry_space_group_name_H-M "C 2/C"
_symmetry_group_IT_number 15
_symmetry_cell_setting 'monoclinic'
loop_
_space_group_symop_operation_xyz
x,y,z
-x,y,1/2-z
-x,-y,-z
x,-y,1/2+z
1/2+x,1/2+y,z
1/2-x,1/2+y,1/2-z
1/2-x,1/2-y,-z
1/2+x,1/2-y,1/2+z
loop_
_atom_site_type_symbol
_atom_site_label
_atom_site_fract_x
_atom_site_fract_y
_atom_site_fract_z
Si Si1 0.000000 0.557805 0.750000
Si Si2 0.492851 0.577645 0.955722
Si Si3 0.219895 0.663173 0.351313
Si Si4 0.082195 0.796315 0.518945
Si Si5 0.209447 0.453755 0.552019
Si Si6 0.989760 0.329062 0.947031
Si Si7 0.283465 0.590038 0.772849
O O1 0.899682 0.521793 0.607117
O O2 0.004977 0.606453 0.585753
O O3 0.500000 0.578793 0.750000
O O4 0.568092 0.634791 0.106242
O O5 0.394760 0.602848 0.905776
O O6 0.500000 0.500000 0.000000
O O7 0.313461 0.702348 0.422533
O O8 0.118631 0.694761 0.174863
O O9 0.229752 0.641007 0.571683
O O10 0.219193 0.596230 0.231090
O O11 0.000000 0.793334 0.250000
O O12 0.060414 0.729662 0.596005
O O13 0.272403 0.517384 0.670290
O O14 0.240410 0.417001 0.412170
O O15 0.000000 0.345643 0.750000
#
# Coordination Sequence:
#
# PCOD9285667 Si02
#       7
#     4   8   8   8   8   8   8
#     4  10  24  48  60  96 136 162 224 278 308 386
#     4  11  21  38  60  91 131 161 205 264 317 385
#     4  11  22  44  65  92 137 167 216 273 318 388
#     4  10  21  42  65  94 128 170 216 262 325 380
#     4  11  24  40  67  96 131 173 216 264 328 387
#     4  10  23  44  68  92 126 173 219 268 325 375
#     4  12  21  40  65  97 129 171 212 262 327 389
#
# _framework density 24.453704999999999
#
# number of rings (size 3 to 8) (size 9 to 14) (size 15 to 20)
#    0.000    1.231    4.615    2.769    0.000    3.077 
#    8.308    1.538    0.000    0.000    0.000    0.000 
#    0.000    0.000    0.000    0.000    0.000    0.000 
#
# Total GULP energy -145490.410933 kJ/mol
# GULP energy per Si atom -5595.785036 kJ/mol
# Density = 2.439805 g / cm^3
# Si number density = 24.453705 Si / 1000 Ang^3
#
#
#
# Elastic Constant Matrix: (Units=GPa)
#
#
# Indices 1 2 3 4 5 6 
#
# 1 113.8088 12.6185 32.1460 0.0000 10.3208 0.0000
# 2 12.6185 58.2807 -0.6210 0.0000 -9.8948 0.0000
# 3 32.1460 -0.6210 54.5955 0.0000 -2.8530 0.0000
# 4 0.0000 0.0000 0.0000 13.9025 0.0000 -0.2651
# 5 10.3208 -9.8948 -2.8530 0.0000 51.1754 0.0000
# 6 0.0000 0.0000 0.0000 -0.2651 0.0000 31.2045
#
#
#
# Elastic Compliance Matrix: (Units=1/GPa)
#
#
# Indices 1 2 3 4 5 6 
#
# 1 0.011377 -0.003093 -0.006905 0.000000 -0.003278 0.000000
# 2 -0.003093 0.018590 0.002260 0.000000 0.004344 0.000000
# 3 -0.006905 0.002260 0.022570 0.000000 0.003088 0.000000
# 4 0.000000 0.000000 0.000000 0.071941 0.000000 0.000611
# 5 -0.003278 0.004344 0.003088 0.000000 0.021214 0.000000
# 6 0.000000 0.000000 0.000000 0.000611 0.000000 0.032052
#
#
# Mechanical properties :
#
#
# Convention : Reuss Voigt Hill
#
# Bulk Modulus (GPa) = 26.98427 34.99689 30.99058
# Shear Modulus (GPa) = 24.32212 31.42592 27.87402
#
# Velocity S-wave (km/s) = 3.15718 3.58874 3.37986
# Velocity P-wave (km/s) = 4.93449 5.61379 5.28507
#
# Compressibility (1/GPa) = 0.03705863
#
# Stress axis : x y z
#
# Youngs Moduli (GPa) = 87.89376 53.79313 44.30741
#
# Poissons Ratio (x) = 0.16640 0.30596
# Poissons Ratio (y) = 0.27189 -0.10013
# Poissons Ratio (z) = 0.60695 -0.12157
#
# Static dielectric constant tensor:
#      x y z
#    x 1.905650 0.000000 0.006220 
#    y 0.000000 2.017040 0.000000 
#    z 0.006220 0.000000 1.982290 
# 
# From -- ./inp_files/42320.got.cif
#   From: 2010.05.17/outbox.cif.g08.bks.cpg/sg15_22_cif.got.tgz:42320.got - 2010.06.03 18:47:42.
