data_PCOD9285921
_publ_section_title
;
Structure prediction by ZEFSAII (Michael W. Deem and Ramdas Pophale) SiO2 
 PCOD9285921
Probable space group: C 2/C
;
_chemical_formula_sum "Si O2"
_cell_formula_units_Z 40
_cell_length_a 8.594656
_cell_length_b 12.588522
_cell_length_c 17.079014
_cell_angle_alpha 90.000000
_cell_angle_beta 96.359772
_cell_angle_gamma 90.000000
_cell_volume 1836.475350
_symmetry_space_group_name_H-M "C 2/C"
_symmetry_group_IT_number 15
_symmetry_cell_setting 'monoclinic'
loop_
_space_group_symop_operation_xyz
x,y,z
-x,y,1/2-z
-x,-y,-z
x,-y,1/2+z
1/2+x,1/2+y,z
1/2-x,1/2+y,1/2-z
1/2-x,1/2-y,-z
1/2+x,1/2-y,1/2+z
loop_
_atom_site_type_symbol
_atom_site_label
_atom_site_fract_x
_atom_site_fract_y
_atom_site_fract_z
Si Si1 0.425844 0.479357 0.910298
Si Si2 0.889948 0.552262 0.811765
Si Si3 0.635024 0.678262 0.701733
Si Si4 0.283101 0.361475 0.607061
Si Si5 0.879357 0.558455 0.549189
O O1 0.436949 0.580814 0.853247
O O2 0.530107 0.383550 0.882230
O O3 0.240222 0.475061 0.916852
O O4 0.500000 0.500000 0.000000
O O5 0.769400 0.630948 0.764553
O O6 0.793013 0.463015 0.852458
O O7 0.000000 0.504581 0.750000
O O8 0.011149 0.607855 0.878281
O O9 0.500000 0.723729 0.750000
O O10 0.713410 0.761172 0.647425
O O11 0.220456 0.367647 0.514059
O O12 0.000000 0.500000 0.500000
#
# Coordination Sequence:
#
# PCOD9285921 Si02
#       5
#     8   8   8   8   8
#     4  10  21  42  68  95 135 181 228 287 349 423
#     4  11  21  42  64  95 139 179 229 294 349 411
#     4  12  24  44  69 107 142 184 241 292 356 426
#     4  10  23  43  70  95 138 185 230 289 357 419
#     4   9  20  40  69  94 128 184 228 283 352 416
#
# _framework density 21.780853
#
# number of rings (size 3 to 8) (size 9 to 14) (size 15 to 20)
#    0.000    1.600    4.000    0.600    0.000    3.200 
#    3.600    1.000    0.000    0.000    0.000    0.000 
#    0.000    0.000    0.000    0.000    0.000    0.000 
#
# Total GULP energy -111616.168355 kJ/mol
# GULP energy per Si atom -5580.808418 kJ/mol
# Density = 2.173128 g / cm^3
# Si number density = 21.780853 Si / 1000 Ang^3
#
#
#
# Elastic Constant Matrix: (Units=GPa)
#
#
# Indices 1 2 3 4 5 6 
#
# 1 145.9715 42.2404 54.8468 0.0000 -8.7547 0.0000
# 2 42.2404 73.5088 48.2918 0.0000 11.7973 0.0000
# 3 54.8468 48.2918 137.7780 0.0000 16.0970 0.0000
# 4 0.0000 0.0000 0.0000 27.5253 0.0000 -21.0852
# 5 -8.7547 11.7973 16.0970 0.0000 52.3646 0.0000
# 6 0.0000 0.0000 0.0000 -21.0852 0.0000 31.9759
#
#
#
# Elastic Compliance Matrix: (Units=1/GPa)
#
#
# Indices 1 2 3 4 5 6 
#
# 1 0.009216 -0.004104 -0.002612 0.000000 0.003268 0.000000
# 2 -0.004104 0.019739 -0.004860 0.000000 -0.003639 0.000000
# 3 -0.002612 -0.004860 0.010294 0.000000 -0.002506 0.000000
# 4 0.000000 0.000000 0.000000 0.073414 0.000000 0.048410
# 5 0.003268 -0.003639 -0.002506 0.000000 0.021234 0.000000
# 6 0.000000 0.000000 0.000000 0.048410 0.000000 0.063195
#
#
# Mechanical properties :
#
#
# Convention : Reuss Voigt Hill
#
# Bulk Modulus (GPa) = 62.12312 72.00181 67.06246
# Shear Modulus (GPa) = 22.16233 36.49844 29.33039
#
# Velocity S-wave (km/s) = 3.19331 4.09799 3.67360
# Velocity P-wave (km/s) = 6.49462 7.45121 6.98930
#
# Compressibility (1/GPa) = 0.01609707
#
# Stress axis : x y z
#
# Youngs Moduli (GPa) = 108.51028 50.66164 97.14505
#
# Poissons Ratio (x) = 0.20793 0.25373
# Poissons Ratio (y) = 0.44536 0.47208
# Poissons Ratio (z) = 0.28342 0.24619
#
# Static dielectric constant tensor:
#      x y z
#    x 1.826760 0.000000 -0.007740 
#    y 0.000000 1.788170 0.000000 
#    z -0.007740 0.000000 1.821620 
# 
# From -- ./inp_files/187977.got.cif
#   From: 2010.05.17/outbox.cif.g08.bks.cpg/sg15_94_cif.got.tgz:187977.got - 2010.06.03 18:47:42.
