data_PCOD9285801
_publ_section_title
;
Structure prediction by ZEFSAII (Michael W. Deem and Ramdas Pophale) SiO2 
 PCOD9285801
Probable space group: C 2/C
;
_chemical_formula_sum "Si O2"
_cell_formula_units_Z 48
_cell_length_a 26.209242
_cell_length_b 12.045584
_cell_length_c 13.659762
_cell_angle_alpha 90.000000
_cell_angle_beta 151.414192
_cell_angle_gamma 90.000000
_cell_volume 2063.403356
_symmetry_space_group_name_H-M "C 2/C"
_symmetry_group_IT_number 15
_symmetry_cell_setting 'monoclinic'
loop_
_space_group_symop_operation_xyz
x,y,z
-x,y,1/2-z
-x,-y,-z
x,-y,1/2+z
1/2+x,1/2+y,z
1/2-x,1/2+y,1/2-z
1/2-x,1/2-y,-z
1/2+x,1/2-y,1/2+z
loop_
_atom_site_type_symbol
_atom_site_label
_atom_site_fract_x
_atom_site_fract_y
_atom_site_fract_z
Si Si1 0.900004 0.924270 0.805165
Si Si2 0.190118 0.494651 0.961507
Si Si3 0.866453 0.713953 0.235996
Si Si4 0.891734 0.741933 0.628704
Si Si5 0.055443 0.169765 0.933648
Si Si6 0.252450 0.312541 0.219575
O O1 0.803359 0.992581 0.597307
O O2 0.912882 0.817651 0.759410
O O3 0.868511 0.890671 0.862047
O O4 0.000000 0.000000 0.000000
O O5 0.223817 0.427606 0.116914
O O6 0.120187 0.413417 0.775553
O O7 0.143190 0.616807 0.900949
O O8 0.842751 0.746361 0.308172
O O9 0.962560 0.779260 0.345722
O O10 0.750000 0.750000 0.000000
O O11 0.801582 0.804496 0.410924
O O12 0.000000 0.736510 0.750000
O O13 0.000000 0.105891 0.750000
O O14 0.135847 0.256298 0.021020
#
# Coordination Sequence:
#
# PCOD9285801 Si02
#       6
#     8   8   8   8   8   8
#     4  12  27  48  70 104 148 193 243 306 372 437
#     4  11  24  43  74 103 147 190 244 310 365 432
#     4  10  21  42  67 104 144 187 244 305 362 442
#     4  12  27  49  71 108 151 189 250 309 369 448
#     4  12  23  43  75 102 142 187 247 296 364 446
#     4  11  25  47  73 109 146 195 250 303 373 450
#
# _framework density 23.262537999999999
#
# number of rings (size 3 to 8) (size 9 to 14) (size 15 to 20)
#    0.000    0.667    5.000    4.500    2.333    3.333 
#    0.000    1.667    0.000    0.000    0.000    0.000 
#    0.000    0.000    0.000    0.000    0.000    0.000 
#
# Total GULP energy -133843.178801 kJ/mol
# GULP energy per Si atom -5576.799117 kJ/mol
# Density = 2.320959 g / cm^3
# Si number density = 23.262538 Si / 1000 Ang^3
#
#
#
# Elastic Constant Matrix: (Units=GPa)
#
#
# Indices 1 2 3 4 5 6 
#
# 1 85.5433 35.0585 19.7409 0.0000 -13.6824 0.0000
# 2 35.0585 143.6681 18.0017 0.0000 -17.5470 0.0000
# 3 19.7409 18.0017 67.7411 0.0000 -16.5375 0.0000
# 4 0.0000 0.0000 0.0000 36.7428 0.0000 -0.2961
# 5 -13.6824 -17.5470 -16.5375 0.0000 51.7122 0.0000
# 6 0.0000 0.0000 0.0000 -0.2961 0.0000 36.0250
#
#
#
# Elastic Compliance Matrix: (Units=1/GPa)
#
#
# Indices 1 2 3 4 5 6 
#
# 1 0.013773 -0.002787 -0.002836 0.000000 0.001792 0.000000
# 2 -0.002787 0.007957 -0.000893 0.000000 0.001677 0.000000
# 3 -0.002836 -0.000893 0.016887 0.000000 0.004347 0.000000
# 4 0.000000 0.000000 0.000000 0.027218 0.000000 0.000224
# 5 0.001792 0.001677 0.004347 0.000000 0.021771 0.000000
# 6 0.000000 0.000000 0.000000 0.000224 0.000000 0.027760
#
#
# Mechanical properties :
#
#
# Convention : Reuss Voigt Hill
#
# Bulk Modulus (GPa) = 39.08349 49.17275 44.12812
# Shear Modulus (GPa) = 36.51583 39.83940 38.17762
#
# Velocity S-wave (km/s) = 3.96628 4.14285 4.05552
# Velocity P-wave (km/s) = 6.14920 6.63840 6.39847
#
# Compressibility (1/GPa) = 0.02558625
#
# Stress axis : x y z
#
# Youngs Moduli (GPa) = 72.60530 125.67125 59.21696
#
# Poissons Ratio (x) = 0.35022 0.16792
# Poissons Ratio (y) = 0.20234 0.05288
# Poissons Ratio (z) = 0.20589 0.11223
#
# Static dielectric constant tensor:
#      x y z
#    x 1.981300 0.000000 0.001840 
#    y 0.000000 2.100730 0.000000 
#    z 0.001840 0.000000 1.937540 
# 
# From -- ./inp_files/177902.got.cif
#   From: 2010.05.17/outbox.cif.g08.bks.cpg/sg15_89_cif.got.tgz:177902.got - 2010.06.03 18:47:42.
