data_PCOD9285924
_publ_section_title
;
Structure prediction by ZEFSAII (Michael W. Deem and Ramdas Pophale) SiO2 
 PCOD9285924
Probable space group: C 2/C
;
_chemical_formula_sum "Si O2"
_cell_formula_units_Z 36
_cell_length_a 7.345962
_cell_length_b 19.142168
_cell_length_c 10.816734
_cell_angle_alpha 90.000000
_cell_angle_beta 85.287908
_cell_angle_gamma 90.000000
_cell_volume 1515.882643
_symmetry_space_group_name_H-M "C 2/C"
_symmetry_group_IT_number 15
_symmetry_cell_setting 'monoclinic'
loop_
_space_group_symop_operation_xyz
x,y,z
-x,y,1/2-z
-x,-y,-z
x,-y,1/2+z
1/2+x,1/2+y,z
1/2-x,1/2+y,1/2-z
1/2-x,1/2-y,-z
1/2+x,1/2-y,1/2+z
loop_
_atom_site_type_symbol
_atom_site_label
_atom_site_fract_x
_atom_site_fract_y
_atom_site_fract_z
Si Si1 0.651098 0.823338 0.998279
Si Si2 0.709704 0.545742 0.703486
Si Si3 0.000000 0.301551 0.750000
Si Si4 0.797572 0.033076 0.526308
Si Si5 0.780765 0.297430 0.123809
O O1 0.543210 0.839463 0.876013
O O2 0.797584 0.883861 0.007672
O O3 0.750000 0.750000 0.000000
O O4 0.493969 0.815945 0.109496
O O5 0.500000 0.526071 0.750000
O O6 0.795862 0.502665 0.586347
O O7 0.699228 0.625630 0.655234
O O8 0.793435 0.528394 0.833353
O O9 0.178520 0.252787 0.724828
O O10 0.000000 0.000000 0.500000
O O11 0.750000 0.250000 0.000000
#
# Coordination Sequence:
#
# PCOD9285924 Si02
#       5
#     8   8   4   8   8
#     4  11  25  43  68 109 145 194 254 308 383 452
#     4  10  21  42  68  95 145 188 240 297 375 445
#     4  10  22  44  68 104 148 192 252 320 370 454
#     4  10  24  43  69 102 142 196 241 305 375 453
#     4  10  22  40  71 101 140 195 242 311 371 444
#
# _framework density 23.748539000000001
#
# number of rings (size 3 to 8) (size 9 to 14) (size 15 to 20)
#    0.000    1.778    1.111    1.333    9.333    8.000 
#    8.000    0.000    0.000    0.000    0.000    0.000 
#    0.000    0.000    0.000    0.000    0.000    0.000 
#
# Total GULP energy -100219.210003 kJ/mol
# GULP energy per Si atom -5567.733889 kJ/mol
# Density = 2.369449 g / cm^3
# Si number density = 23.748539 Si / 1000 Ang^3
#
#
#
# Elastic Constant Matrix: (Units=GPa)
#
#
# Indices 1 2 3 4 5 6 
#
# 1 88.7646 25.4080 18.6644 0.0000 -4.4492 0.0000
# 2 25.4080 113.9348 60.3234 0.0000 3.2611 0.0000
# 3 18.6644 60.3234 207.1821 0.0000 8.7779 0.0000
# 4 0.0000 0.0000 0.0000 25.1984 0.0000 -8.8969
# 5 -4.4492 3.2611 8.7779 0.0000 29.0555 0.0000
# 6 0.0000 0.0000 0.0000 -8.8969 0.0000 31.6414
#
#
#
# Elastic Compliance Matrix: (Units=1/GPa)
#
#
# Indices 1 2 3 4 5 6 
#
# 1 0.012205 -0.002546 -0.000455 0.000000 0.002292 0.000000
# 2 -0.002546 0.010910 -0.002916 0.000000 -0.000733 0.000000
# 3 -0.000455 -0.002916 0.005780 0.000000 -0.001489 0.000000
# 4 0.000000 0.000000 0.000000 0.044059 0.000000 0.012389
# 5 0.002292 -0.000733 -0.001489 0.000000 0.035300 0.000000
# 6 0.000000 0.000000 0.000000 0.012389 0.000000 0.035088
#
#
# Mechanical properties :
#
#
# Convention : Reuss Voigt Hill
#
# Bulk Modulus (GPa) = 58.61864 68.74144 63.68004
# Shear Modulus (GPa) = 31.08228 37.54476 34.31352
#
# Velocity S-wave (km/s) = 3.62167 3.98040 3.80527
# Velocity P-wave (km/s) = 6.49810 7.08048 6.79553
#
# Compressibility (1/GPa) = 0.01705942
#
# Stress axis : x y z
#
# Youngs Moduli (GPa) = 81.93192 91.66153 173.01703
#
# Poissons Ratio (x) = 0.23341 0.07876
# Poissons Ratio (y) = 0.20863 0.50452
# Poissons Ratio (z) = 0.03730 0.26729
#
# Static dielectric constant tensor:
#      x y z
#    x 2.092720 0.000000 0.209510 
#    y 0.000000 1.872210 0.000000 
#    z 0.209510 0.000000 2.057500 
# 
# From -- ./inp_files/76345.got.cif
#   From: 2010.05.17/outbox.cif.g08.bks.cpg/sg15_39_cif.got.tgz:76345.got - 2010.06.03 18:47:42.
