data_PCOD9285314
_publ_section_title
;
Structure prediction by ZEFSAII (Michael W. Deem and Ramdas Pophale) SiO2 
 PCOD9285314
Probable space group: C 2/C
;
_chemical_formula_sum "Si O2"
_cell_formula_units_Z 48
_cell_length_a 7.481655
_cell_length_b 28.134971
_cell_length_c 10.534033
_cell_angle_alpha 90.000000
_cell_angle_beta 115.117285
_cell_angle_gamma 90.000000
_cell_volume 2007.700270
_symmetry_space_group_name_H-M "C 2/C"
_symmetry_group_IT_number 15
_symmetry_cell_setting 'monoclinic'
loop_
_space_group_symop_operation_xyz
x,y,z
-x,y,1/2-z
-x,-y,-z
x,-y,1/2+z
1/2+x,1/2+y,z
1/2-x,1/2+y,1/2-z
1/2-x,1/2-y,-z
1/2+x,1/2-y,1/2+z
loop_
_atom_site_type_symbol
_atom_site_label
_atom_site_fract_x
_atom_site_fract_y
_atom_site_fract_z
Si Si1 0.172385 0.302729 0.695903
Si Si2 0.566975 0.742434 0.041302
Si Si3 0.219430 0.397595 0.130754
Si Si4 0.918788 0.861327 0.423596
Si Si5 0.363394 0.000758 0.333461
Si Si6 0.725512 0.900058 0.610059
O O1 0.330814 0.265022 0.793369
O O2 0.262043 0.354720 0.709500
O O3 0.000000 0.305015 0.750000
O O4 0.080373 0.284847 0.536189
O O5 0.750000 0.750000 0.000000
O O6 0.464723 0.692489 0.976553
O O7 0.255004 0.364066 0.262841
O O8 0.382617 0.382624 0.078251
O O9 0.251393 0.451147 0.193017
O O10 0.004355 0.395857 0.003071
O O11 0.849111 0.892918 0.520141
O O12 0.500000 0.001217 0.250000
O O13 0.246564 0.050043 0.311045
O O14 0.500000 0.000000 0.500000
#
# Coordination Sequence:
#
# PCOD9285314 Si02
#       6
#     8   8   8   8   8   8
#     4  10  22  40  66  95 133 181 228 287 358 421
#     4  10  23  41  66  97 134 179 233 289 358 423
#     4  10  22  41  68 101 140 183 238 287 353 421
#     4  11  24  40  68 101 136 181 238 293 353 425
#     4  10  21  41  70 100 141 189 235 288 357 427
#     4  11  23  42  68  99 141 182 235 292 357 425
#
# _framework density 23.90795
#
# number of rings (size 3 to 8) (size 9 to 14) (size 15 to 20)
#    0.000    1.667    0.000    5.000    9.333    3.333 
#    0.000    5.000    0.000    0.000    0.000    0.000 
#    0.000    0.000    0.000    0.000    0.000    0.000 
#
# Total GULP energy -134374.459791 kJ/mol
# GULP energy per Si atom -5598.935825 kJ/mol
# Density = 2.385353 g / cm^3
# Si number density = 23.907950 Si / 1000 Ang^3
#
#
#
# Elastic Constant Matrix: (Units=GPa)
#
#
# Indices 1 2 3 4 5 6 
#
# 1 103.6182 15.8889 19.4894 0.0000 -24.6948 0.0000
# 2 15.8889 110.5296 -7.6955 0.0000 -1.8818 0.0000
# 3 19.4894 -7.6955 67.9348 0.0000 7.3710 0.0000
# 4 0.0000 0.0000 0.0000 36.2897 0.0000 -6.0611
# 5 -24.6948 -1.8818 7.3710 0.0000 42.3891 0.0000
# 6 0.0000 0.0000 0.0000 -6.0611 0.0000 24.4464
#
#
#
# Elastic Compliance Matrix: (Units=1/GPa)
#
#
# Indices 1 2 3 4 5 6 
#
# 1 0.012824 -0.002038 -0.004801 0.000000 0.008216 0.000000
# 2 -0.002038 0.009445 0.001771 0.000000 -0.001076 0.000000
# 3 -0.004801 0.001771 0.016912 0.000000 -0.005659 0.000000
# 4 0.000000 0.000000 0.000000 0.028746 0.000000 0.007127
# 5 0.008216 -0.001076 -0.005659 0.000000 0.029314 0.000000
# 6 0.000000 0.000000 0.000000 0.007127 0.000000 0.042673
#
#
# Mechanical properties :
#
#
# Convention : Reuss Voigt Hill
#
# Bulk Modulus (GPa) = 34.42829 37.49424 35.96126
# Shear Modulus (GPa) = 31.30233 37.58502 34.44368
#
# Velocity S-wave (km/s) = 3.62233 3.96924 3.79975
# Velocity P-wave (km/s) = 5.65037 6.05997 5.85875
#
# Compressibility (1/GPa) = 0.02904588
#
# Stress axis : x y z
#
# Youngs Moduli (GPa) = 77.97652 105.87256 59.12914
#
# Poissons Ratio (x) = 0.21576 0.28390
# Poissons Ratio (y) = 0.15891 -0.10474
# Poissons Ratio (z) = 0.37439 -0.18754
#
# Static dielectric constant tensor:
#      x y z
#    x 1.409880 0.000000 -0.350270 
#    y 0.000000 1.975830 0.000000 
#    z -0.350270 0.000000 1.628780 
# 
# From -- ./inp_files/80907.got.cif
#   From: 2010.05.17/outbox.cif.g08.bks.cpg/sg15_41_cif.got.tgz:80907.got - 2010.06.03 18:47:42.
