data_PCOD9285423
_publ_section_title
;
Structure prediction by ZEFSAII (Michael W. Deem and Ramdas Pophale) SiO2 
 PCOD9285423
Probable space group: C 2/C
;
_chemical_formula_sum "Si O2"
_cell_formula_units_Z 60
_cell_length_a 11.991140
_cell_length_b 15.492664
_cell_length_c 17.199549
_cell_angle_alpha 90.000000
_cell_angle_beta 118.456830
_cell_angle_gamma 90.000000
_cell_volume 2809.180518
_symmetry_space_group_name_H-M "C 2/C"
_symmetry_group_IT_number 15
_symmetry_cell_setting 'monoclinic'
loop_
_space_group_symop_operation_xyz
x,y,z
-x,y,1/2-z
-x,-y,-z
x,-y,1/2+z
1/2+x,1/2+y,z
1/2-x,1/2+y,1/2-z
1/2-x,1/2-y,-z
1/2+x,1/2-y,1/2+z
loop_
_atom_site_type_symbol
_atom_site_label
_atom_site_fract_x
_atom_site_fract_y
_atom_site_fract_z
Si Si1 0.670444 0.008038 0.667464
Si Si2 0.538133 0.404948 0.986866
Si Si3 0.343958 0.203021 0.835032
Si Si4 0.050572 0.406929 0.855617
Si Si5 0.000000 0.785244 0.750000
Si Si6 0.770301 0.880874 0.832954
Si Si7 0.028503 0.274566 0.541475
Si Si8 0.274639 0.381043 0.584531
O O1 0.519523 0.988934 0.628634
O O2 0.731219 0.946859 0.753424
O O3 0.719600 0.968700 0.603383
O O4 0.705207 0.106529 0.690917
O O5 0.420788 0.381459 0.891647
O O6 0.666399 0.397335 0.980188
O O7 0.500000 0.500000 0.000000
O O8 0.538878 0.328879 0.050982
O O9 0.437911 0.225799 0.795659
O O10 0.242224 0.280806 0.803927
O O11 0.421077 0.204716 0.941702
O O12 0.200435 0.407588 0.889552
O O13 0.000000 0.399822 0.750000
O O14 0.008216 0.326316 0.893543
O O15 0.888146 0.843057 0.675714
O O16 0.160061 0.312860 0.552069
#
# Coordination Sequence:
#
# PCOD9285423 Si02
#       8
#     8   8   8   8   4   8   8   8
#     4  10  22  40  65  96 123 167 221 264 320 382
#     4  11  24  38  60  93 125 171 215 256 329 387
#     4  11  24  38  67  99 123 175 218 263 330 380
#     4   9  21  40  64  88 129 162 207 271 320 376
#     4  12  22  40  68  92 132 174 212 270 320 384
#     4  10  21  42  58  90 133 163 211 268 318 384
#     4  10  23  42  65  93 128 170 220 267 323 377
#     4  11  21  43  66  89 137 165 212 270 320 383
#
# _framework density 21.358543000000001
#
# number of rings (size 3 to 8) (size 9 to 14) (size 15 to 20)
#    0.000    1.600    4.000    0.400    2.800    8.533 
#    0.000    0.000    5.867    0.000    0.000    0.000 
#    0.000    0.000    0.000    0.000    0.000    0.000 
#
# Total GULP energy -167488.066138 kJ/mol
# GULP energy per Si atom -5582.935538 kJ/mol
# Density = 2.130993 g / cm^3
# Si number density = 21.358543 Si / 1000 Ang^3
#
#
#
# Elastic Constant Matrix: (Units=GPa)
#
#
# Indices 1 2 3 4 5 6 
#
# 1 62.2590 -2.0955 -10.0990 0.0000 -2.9993 0.0000
# 2 -2.0955 146.3432 5.6669 0.0000 0.4082 0.0000
# 3 -10.0990 5.6669 35.5678 0.0000 -4.8522 0.0000
# 4 0.0000 0.0000 0.0000 22.8939 0.0000 3.5504
# 5 -2.9993 0.4082 -4.8522 0.0000 29.7875 0.0000
# 6 0.0000 0.0000 0.0000 3.5504 0.0000 16.6636
#
#
#
# Elastic Compliance Matrix: (Units=1/GPa)
#
#
# Indices 1 2 3 4 5 6 
#
# 1 0.017026 0.000036 0.005177 0.000000 0.002557 0.000000
# 2 0.000036 0.006878 -0.001123 0.000000 -0.000274 0.000000
# 3 0.005177 -0.001123 0.030516 0.000000 0.005508 0.000000
# 4 0.000000 0.000000 0.000000 0.045172 0.000000 -0.009624
# 5 0.002557 -0.000274 0.005508 0.000000 0.034730 0.000000
# 6 0.000000 0.000000 0.000000 -0.009624 0.000000 0.062062
#
#
# Mechanical properties :
#
#
# Convention : Reuss Voigt Hill
#
# Bulk Modulus (GPa) = 15.97412 25.67943 20.82678
# Shear Modulus (GPa) = 23.91553 30.58216 27.24884
#
# Velocity S-wave (km/s) = 3.34985 3.78808 3.57568
# Velocity P-wave (km/s) = 4.73891 5.58407 5.17876
#
# Compressibility (1/GPa) = 0.06260126
#
# Stress axis : x y z
#
# Youngs Moduli (GPa) = 58.73308 145.39078 32.77010
#
# Poissons Ratio (x) = -0.00526 -0.16967
# Poissons Ratio (y) = -0.00212 0.03680
# Poissons Ratio (z) = -0.30409 0.16326
#
# Static dielectric constant tensor:
#      x y z
#    x 1.830060 0.000000 0.027150 
#    y 0.000000 1.822200 0.000000 
#    z 0.027150 0.000000 1.818580 
# 
# From -- ./inp_files/198380.got.cif
#   From: 2010.05.17/outbox.cif.g08.bks.cpg/sg15_100_cif.got.tgz:198380.got - 2010.06.03 18:47:42.
