data_PCOD9285581
_publ_section_title
;
Structure prediction by ZEFSAII (Michael W. Deem and Ramdas Pophale) SiO2 
 PCOD9285581
Probable space group: C 2/C
;
_chemical_formula_sum "Si O2"
_cell_formula_units_Z 44
_cell_length_a 9.065727
_cell_length_b 11.222305
_cell_length_c 26.684827
_cell_angle_alpha 90.000000
_cell_angle_beta 55.431113
_cell_angle_gamma 90.000000
_cell_volume 2235.545339
_symmetry_space_group_name_H-M "C 2/C"
_symmetry_group_IT_number 15
_symmetry_cell_setting 'monoclinic'
loop_
_space_group_symop_operation_xyz
x,y,z
-x,y,1/2-z
-x,-y,-z
x,-y,1/2+z
1/2+x,1/2+y,z
1/2-x,1/2+y,1/2-z
1/2-x,1/2-y,-z
1/2+x,1/2-y,1/2+z
loop_
_atom_site_type_symbol
_atom_site_label
_atom_site_fract_x
_atom_site_fract_y
_atom_site_fract_z
Si Si1 0.000000 0.557587 0.250000
Si Si2 0.819131 0.885940 0.158022
Si Si3 0.374174 0.114559 0.014939
Si Si4 0.597251 0.549435 0.154554
Si Si5 0.115214 0.879755 0.471900
Si Si6 0.760704 0.137932 0.277667
O O1 0.835247 0.479285 0.300081
O O2 0.919583 0.627750 0.219031
O O3 0.839560 0.876908 0.095057
O O4 0.751650 0.762011 0.192282
O O5 0.000553 0.933397 0.149946
O O6 0.218109 0.106252 0.087586
O O7 0.463083 0.246503 0.001499
O O8 0.280182 0.107829 0.978788
O O9 0.500000 0.000000 0.000000
O O10 0.429827 0.627762 0.207583
O O11 0.712999 0.538487 0.183560
O O12 0.000000 0.000000 0.500000
#
# Coordination Sequence:
#
# PCOD9285581 Si02
#       6
#     4   8   8   8   8   8
#     4  10  24  38  64  98 116 172 214 264 334 390
#     4  11  22  41  67  93 130 167 217 275 326 390
#     4  11  25  44  67  98 133 180 219 271 333 390
#     4  10  21  42  64  92 131 168 214 272 328 387
#     4  11  24  44  68  96 132 177 223 272 328 394
#     4  10  22  41  64  91 131 163 215 269 331 381
#
# _framework density 19.681998
#
# number of rings (size 3 to 8) (size 9 to 14) (size 15 to 20)
#    0.000    1.455    3.636    1.091    2.545    3.636 
#    3.273    0.000    0.000    0.000    0.000    0.000 
#    0.000    0.000    0.000    0.000    0.000    0.000 
#
# Total GULP energy -122637.610672 kJ/mol
# GULP energy per Si atom -5574.436849 kJ/mol
# Density = 1.963720 g / cm^3
# Si number density = 19.681998 Si / 1000 Ang^3
#
#
#
# Elastic Constant Matrix: (Units=GPa)
#
#
# Indices 1 2 3 4 5 6 
#
# 1 106.4174 42.9613 39.6432 0.0000 26.8393 0.0000
# 2 42.9613 127.1911 49.3022 0.0000 6.8011 0.0000
# 3 39.6432 49.3022 104.5243 0.0000 26.2697 0.0000
# 4 0.0000 0.0000 0.0000 31.7487 0.0000 5.2795
# 5 26.8393 6.8011 26.2697 0.0000 22.2592 0.0000
# 6 0.0000 0.0000 0.0000 5.2795 0.0000 36.2448
#
#
#
# Elastic Compliance Matrix: (Units=1/GPa)
#
#
# Indices 1 2 3 4 5 6 
#
# 1 0.015578 -0.004628 0.000910 0.000000 -0.018443 0.000000
# 2 -0.004628 0.011185 -0.005778 0.000000 0.008982 0.000000
# 3 0.000910 -0.005778 0.016746 0.000000 -0.019096 0.000000
# 4 0.000000 0.000000 0.000000 0.032279 0.000000 -0.004702
# 5 -0.018443 0.008982 -0.019096 0.000000 0.086955 0.000000
# 6 0.000000 0.000000 0.000000 -0.004702 0.000000 0.028275
#
#
# Mechanical properties :
#
#
# Convention : Reuss Voigt Hill
#
# Bulk Modulus (GPa) = 40.78745 66.88293 53.83519
# Shear Modulus (GPa) = 22.91655 31.79895 27.35775
#
# Velocity S-wave (km/s) = 3.41595 4.02386 3.73230
# Velocity P-wave (km/s) = 6.02714 7.45950 6.78125
#
# Compressibility (1/GPa) = 0.02451735
#
# Stress axis : x y z
#
# Youngs Moduli (GPa) = 64.19344 89.40734 59.71409
#
# Poissons Ratio (x) = 0.41381 -0.05434
# Poissons Ratio (y) = 0.29711 0.34501
# Poissons Ratio (z) = -0.05842 0.51656
#
# Static dielectric constant tensor:
#      x y z
#    x 1.748980 0.000000 0.016770 
#    y 0.000000 1.704590 0.000000 
#    z 0.016770 0.000000 1.675610 
# 
# From -- ./inp_files/230284.got.cif
#   From: 2010.05.17/outbox.cif.g08.bks.cpg/sg15_116_cif.got.tgz:230284.got - 2010.06.03 18:47:42.
