data_PCOD9285330
_publ_section_title
;
Structure prediction by ZEFSAII (Michael W. Deem and Ramdas Pophale) SiO2 
 PCOD9285330
Probable space group: C 2/C
;
_chemical_formula_sum "Si O2"
_cell_formula_units_Z 32
_cell_length_a 18.121109
_cell_length_b 7.817318
_cell_length_c 11.681247
_cell_angle_alpha 90.000000
_cell_angle_beta 52.908777
_cell_angle_gamma 90.000000
_cell_volume 1319.952979
_symmetry_space_group_name_H-M "C 2/C"
_symmetry_group_IT_number 15
_symmetry_cell_setting 'monoclinic'
loop_
_space_group_symop_operation_xyz
x,y,z
-x,y,1/2-z
-x,-y,-z
x,-y,1/2+z
1/2+x,1/2+y,z
1/2-x,1/2+y,1/2-z
1/2-x,1/2-y,-z
1/2+x,1/2-y,1/2+z
loop_
_atom_site_type_symbol
_atom_site_label
_atom_site_fract_x
_atom_site_fract_y
_atom_site_fract_z
Si Si1 0.125296 0.709038 0.824283
Si Si2 0.712745 0.847681 0.663713
Si Si3 0.825536 0.896319 0.937550
Si Si4 0.559174 0.327987 0.440554
O O1 0.202167 0.789064 0.836104
O O2 0.165954 0.525960 0.750596
O O3 0.114699 0.842770 0.728263
O O4 0.024230 0.692129 0.973547
O O5 0.627363 0.719345 0.772207
O O6 0.768662 0.923381 0.499477
O O7 0.750000 0.750000 0.000000
O O8 0.879062 0.851620 0.003801
O O9 0.500000 0.500000 0.500000
#
# Coordination Sequence:
#
# PCOD9285330 Si02
#       4
#     8   8   8   8
#     4  11  22  41  69  98 140 190 239 294 365 424
#     4  11  21  41  68  98 139 187 239 295 356 430
#     4  10  21  41  70  93 139 191 230 290 368 422
#     4  12  22  41  70 100 138 188 238 297 356 432
#
# _framework density 24.243289999999998
#
# number of rings (size 3 to 8) (size 9 to 14) (size 15 to 20)
#    0.000    1.000    7.500    1.500    0.000    0.000 
#    0.000    5.000    0.000    0.000    0.000    0.000 
#    0.000    0.000    0.000    0.000    0.000    0.000 
#
# Total GULP energy -89186.682306 kJ/mol
# GULP energy per Si atom -5574.167644 kJ/mol
# Density = 2.418811 g / cm^3
# Si number density = 24.243290 Si / 1000 Ang^3
#
#
#
# Elastic Constant Matrix: (Units=GPa)
#
#
# Indices 1 2 3 4 5 6 
#
# 1 104.9750 17.5813 41.9466 0.0000 -38.9181 0.0000
# 2 17.5813 108.6275 38.7506 0.0000 -15.7021 0.0000
# 3 41.9466 38.7506 212.1148 0.0000 -45.5640 0.0000
# 4 0.0000 0.0000 0.0000 37.5308 0.0000 -23.3417
# 5 -38.9181 -15.7021 -45.5640 0.0000 36.5621 0.0000
# 6 0.0000 0.0000 0.0000 -23.3417 0.0000 35.9458
#
#
#
# Elastic Compliance Matrix: (Units=1/GPa)
#
#
# Indices 1 2 3 4 5 6 
#
# 1 0.015812 -0.000266 0.000700 0.000000 0.017589 0.000000
# 2 -0.000266 0.010053 -0.001253 0.000000 0.002473 0.000000
# 3 0.000700 -0.001253 0.006622 0.000000 0.008460 0.000000
# 4 0.000000 0.000000 0.000000 0.044695 0.000000 0.029023
# 5 0.017589 0.002473 0.008460 0.000000 0.057677 0.000000
# 6 0.000000 0.000000 0.000000 0.029023 0.000000 0.046666
#
#
# Mechanical properties :
#
#
# Convention : Reuss Voigt Hill
#
# Bulk Modulus (GPa) = 32.41635 69.14160 50.77897
# Shear Modulus (GPa) = 25.84697 43.83701 34.84199
#
# Velocity S-wave (km/s) = 3.26874 4.25692 3.79513
# Velocity P-wave (km/s) = 5.25799 7.26248 6.33996
#
# Compressibility (1/GPa) = 0.03084864
#
# Stress axis : x y z
#
# Youngs Moduli (GPa) = 63.24434 99.47068 151.01097
#
# Poissons Ratio (x) = 0.02650 -0.10571
# Poissons Ratio (y) = 0.01685 0.18918
# Poissons Ratio (z) = -0.04427 0.12461
#
# Static dielectric constant tensor:
#      x y z
#    x 1.804510 0.000000 -0.008140 
#    y 0.000000 107.795360 0.000000 
#    z -0.008140 0.000000 2.147840 
# 
# From -- ./inp_files/109471.got.cif
#   From: 2010.05.17/outbox.cif.g08.bks.cpg/sg15_55_cif.got.tgz:109471.got - 2010.06.03 18:47:42.
