data_PCOD9285941
_publ_section_title
;
Structure prediction by ZEFSAII (Michael W. Deem and Ramdas Pophale) SiO2 
 PCOD9285941
Probable space group: C 2/C
;
_chemical_formula_sum "Si O2"
_cell_formula_units_Z 44
_cell_length_a 12.152630
_cell_length_b 11.141899
_cell_length_c 14.239379
_cell_angle_alpha 90.000000
_cell_angle_beta 108.158189
_cell_angle_gamma 90.000000
_cell_volume 1832.042065
_symmetry_space_group_name_H-M "C 2/C"
_symmetry_group_IT_number 15
_symmetry_cell_setting 'monoclinic'
loop_
_space_group_symop_operation_xyz
x,y,z
-x,y,1/2-z
-x,-y,-z
x,-y,1/2+z
1/2+x,1/2+y,z
1/2-x,1/2+y,1/2-z
1/2-x,1/2-y,-z
1/2+x,1/2-y,1/2+z
loop_
_atom_site_type_symbol
_atom_site_label
_atom_site_fract_x
_atom_site_fract_y
_atom_site_fract_z
Si Si1 0.469743 0.166964 0.550874
Si Si2 0.404086 0.367512 0.150028
Si Si3 0.527047 0.408193 0.645053
Si Si4 0.000000 0.479461 0.250000
Si Si5 0.282346 0.118837 0.137449
Si Si6 0.309051 0.980437 0.445711
O O1 0.460853 0.306323 0.568484
O O2 0.588917 0.117237 0.538741
O O3 0.475565 0.101620 0.653336
O O4 0.368526 0.109779 0.461269
O O5 0.500000 0.330754 0.250000
O O6 0.481575 0.458093 0.107427
O O7 0.333697 0.245615 0.113505
O O8 0.296826 0.453763 0.151004
O O9 0.500000 0.395100 0.750000
O O10 0.661018 0.378445 0.658970
O O11 0.884748 0.559912 0.226433
O O12 0.261555 0.041372 0.037965
#
# Coordination Sequence:
#
# PCOD9285941 Si02
#       6
#     8   8   8   4   8   8
#     4  10  21  42  68  99 133 180 230 282 347 413
#     4  11  24  42  67 101 134 180 226 283 347 411
#     4  11  25  41  69 103 139 179 229 291 337 421
#     4  10  22  40  72  94 126 198 220 276 368 404
#     4  11  23  45  69  99 140 179 233 285 347 419
#     4  10  23  43  70  97 139 179 230 289 341 416
#
# _framework density 24.016914
#
# number of rings (size 3 to 8) (size 9 to 14) (size 15 to 20)
#    0.000    1.455    3.636    0.545    5.091    1.455 
#    0.000    0.000    0.000    0.000    0.000    0.000 
#    0.000    0.000    0.000    0.000    0.000    0.000 
#
# Total GULP energy -122739.916798 kJ/mol
# GULP energy per Si atom -5579.087127 kJ/mol
# Density = 2.396225 g / cm^3
# Si number density = 24.016914 Si / 1000 Ang^3
#
#
#
# Elastic Constant Matrix: (Units=GPa)
#
#
# Indices 1 2 3 4 5 6 
#
# 1 142.2614 46.4540 40.7229 0.0000 12.3085 0.0000
# 2 46.4540 123.8636 15.7751 0.0000 2.0280 0.0000
# 3 40.7229 15.7751 48.8119 0.0000 6.4052 0.0000
# 4 0.0000 0.0000 0.0000 23.7151 0.0000 6.5863
# 5 12.3085 2.0280 6.4052 0.0000 48.9617 0.0000
# 6 0.0000 0.0000 0.0000 6.5863 0.0000 27.5096
#
#
#
# Elastic Compliance Matrix: (Units=1/GPa)
#
#
# Indices 1 2 3 4 5 6 
#
# 1 0.010210 -0.002863 -0.007399 0.000000 -0.001480 0.000000
# 2 -0.002863 0.009223 -0.000648 0.000000 0.000422 0.000000
# 3 -0.007399 -0.000648 0.027086 0.000000 -0.001657 0.000000
# 4 0.000000 0.000000 0.000000 0.045171 0.000000 -0.010815
# 5 -0.001480 0.000422 -0.001657 0.000000 0.020995 0.000000
# 6 0.000000 0.000000 0.000000 -0.010815 0.000000 0.038940
#
#
# Mechanical properties :
#
#
# Convention : Reuss Voigt Hill
#
# Bulk Modulus (GPa) = 40.48482 57.87122 49.17802
# Shear Modulus (GPa) = 27.52142 34.16962 30.84552
#
# Velocity S-wave (km/s) = 3.38881 3.77600 3.58764
# Velocity P-wave (km/s) = 5.67499 6.56957 6.13860
#
# Compressibility (1/GPa) = 0.02470062
#
# Stress axis : x y z
#
# Youngs Moduli (GPa) = 97.94269 108.42932 36.91936
#
# Poissons Ratio (x) = 0.31040 0.27315
# Poissons Ratio (y) = 0.28038 0.02391
# Poissons Ratio (z) = 0.72464 0.07023
#
# Static dielectric constant tensor:
#      x y z
#    x 1.915390 0.000000 0.002890 
#    y 0.000000 1.951130 0.000000 
#    z 0.002890 0.000000 1.950870 
# 
# From -- ./inp_files/196296.got.cif
#   From: 2010.05.17/outbox.cif.g08.bks.cpg/sg15_99_cif.got.tgz:196296.got - 2010.06.03 18:47:42.
