data_PCOD9285293
_publ_section_title
;
Structure prediction by ZEFSAII (Michael W. Deem and Ramdas Pophale) SiO2 
 PCOD9285293
Probable space group: C 2/C
;
_chemical_formula_sum "Si O2"
_cell_formula_units_Z 40
_cell_length_a 13.054060
_cell_length_b 9.215632
_cell_length_c 29.246551
_cell_angle_alpha 90.000000
_cell_angle_beta 151.386842
_cell_angle_gamma 90.000000
_cell_volume 1684.939477
_symmetry_space_group_name_H-M "C 2/C"
_symmetry_group_IT_number 15
_symmetry_cell_setting 'monoclinic'
loop_
_space_group_symop_operation_xyz
x,y,z
-x,y,1/2-z
-x,-y,-z
x,-y,1/2+z
1/2+x,1/2+y,z
1/2-x,1/2+y,1/2-z
1/2-x,1/2-y,-z
1/2+x,1/2-y,1/2+z
loop_
_atom_site_type_symbol
_atom_site_label
_atom_site_fract_x
_atom_site_fract_y
_atom_site_fract_z
Si Si1 0.186586 0.121009 0.608012
Si Si2 0.518023 0.450640 0.858320
Si Si3 0.000000 0.865690 0.750000
Si Si4 0.606167 0.228709 0.196462
Si Si5 0.259267 0.000332 0.040652
Si Si6 0.000000 0.366575 0.750000
O O1 0.297287 0.257099 0.675556
O O2 0.935126 0.105800 0.517950
O O3 0.255148 0.115912 0.580864
O O4 0.298114 0.974812 0.670272
O O5 0.555210 0.448075 0.818331
O O6 0.418125 0.608822 0.830392
O O7 0.347261 0.322904 0.797278
O O8 0.701713 0.437558 0.968434
O O9 0.502558 0.226448 0.206097
O O10 0.470709 0.098879 0.119837
#
# Coordination Sequence:
#
# PCOD9285293 Si02
#       6
#     8   8   4   8   8   4
#     4   9  19  40  67  97 123 170 214 268 316 392
#     4  12  25  43  64  98 133 176 214 271 324 386
#     4  11  25  42  64  92 142 168 218 268 328 370
#     4  11  24  41  67  95 132 169 219 268 327 384
#     4  10  21  41  69  97 125 173 221 263 325 390
#     4   9  17  38  66  90 126 166 208 262 324 376
#
# _framework density 23.739725
#
# number of rings (size 3 to 8) (size 9 to 14) (size 15 to 20)
#    0.000    1.600    2.000    2.400    5.600    0.800 
#    0.000    2.000    0.000    0.000    0.000    0.000 
#    0.000    0.000    0.000    0.000    0.000    0.000 
#
# Total GULP energy -111741.592602 kJ/mol
# GULP energy per Si atom -5587.079630 kJ/mol
# Density = 2.368569 g / cm^3
# Si number density = 23.739725 Si / 1000 Ang^3
#
#
#
# Elastic Constant Matrix: (Units=GPa)
#
#
# Indices 1 2 3 4 5 6 
#
# 1 69.5972 9.6141 15.8985 0.0000 -30.0488 0.0000
# 2 9.6141 57.9946 9.9391 0.0000 -20.5309 0.0000
# 3 15.8985 9.9391 102.5806 0.0001 -31.7159 0.0000
# 4 0.0000 0.0000 0.0001 22.3546 0.0000 -3.8696
# 5 -30.0488 -20.5309 -31.7159 0.0000 57.2628 0.0000
# 6 0.0000 0.0000 0.0000 -3.8696 0.0000 32.4188
#
#
#
# Elastic Compliance Matrix: (Units=1/GPa)
#
#
# Indices 1 2 3 4 5 6 
#
# 1 0.018589 0.000430 0.000170 0.000000 0.010003 0.000000
# 2 0.000430 0.019769 0.000337 0.000000 0.007500 0.000000
# 3 0.000170 0.000337 0.011770 0.000000 0.006729 0.000000
# 4 0.000000 0.000000 0.000000 0.045677 0.000000 0.005452
# 5 0.010003 0.007500 0.006729 0.000000 0.029129 0.000000
# 6 0.000000 0.000000 0.000000 0.005452 0.000000 0.031497
#
#
# Mechanical properties :
#
#
# Convention : Reuss Voigt Hill
#
# Bulk Modulus (GPa) = 19.22976 33.45288 26.34132
# Shear Modulus (GPa) = 29.08827 35.38862 32.23845
#
# Velocity S-wave (km/s) = 3.50423 3.86514 3.68910
# Velocity P-wave (km/s) = 4.94880 5.83448 5.40980
#
# Compressibility (1/GPa) = 0.05200272
#
# Stress axis : x y z
#
# Youngs Moduli (GPa) = 53.79536 50.58383 84.96257
#
# Poissons Ratio (x) = -0.02178 -0.01445
# Poissons Ratio (y) = -0.02316 -0.02862
# Poissons Ratio (z) = -0.00915 -0.01704
#
# Static dielectric constant tensor:
#      x y z
#    x 2.026160 0.000000 -0.051940 
#    y 0.000000 1.854640 0.000000 
#    z -0.051940 0.000000 1.906970 
# 
# From -- ./inp_files/150646.got.cif
#   From: 2010.05.17/outbox.cif.g08.bks.cpg/sg15_76_cif.got.tgz:150646.got - 2010.06.03 18:47:42.
