data_PCOD9285086
_publ_section_title
;
Structure prediction by ZEFSAII (Michael W. Deem and Ramdas Pophale) SiO2 
 PCOD9285086
Probable space group: C 2/C
;
_chemical_formula_sum "Si O2"
_cell_formula_units_Z 48
_cell_length_a 26.488258
_cell_length_b 8.255143
_cell_length_c 16.194962
_cell_angle_alpha 90.000000
_cell_angle_beta 144.877763
_cell_angle_gamma 90.000000
_cell_volume 2037.367959
_symmetry_space_group_name_H-M "C 2/C"
_symmetry_group_IT_number 15
_symmetry_cell_setting 'monoclinic'
loop_
_space_group_symop_operation_xyz
x,y,z
-x,y,1/2-z
-x,-y,-z
x,-y,1/2+z
1/2+x,1/2+y,z
1/2-x,1/2+y,1/2-z
1/2-x,1/2-y,-z
1/2+x,1/2-y,1/2+z
loop_
_atom_site_type_symbol
_atom_site_label
_atom_site_fract_x
_atom_site_fract_y
_atom_site_fract_z
Si Si1 0.600184 0.825113 0.451853
Si Si2 0.917309 0.888207 0.913251
Si Si3 0.192389 0.188898 0.727597
Si Si4 0.899855 0.690446 0.726044
Si Si5 0.603776 0.795432 0.954824
Si Si6 0.849868 0.692768 0.156433
O O1 0.665237 0.791015 0.612543
O O2 0.636198 0.757049 0.412764
O O3 0.503262 0.770143 0.349083
O O4 0.583265 0.015663 0.421131
O O5 0.883963 0.780505 0.791122
O O6 0.940643 0.785748 0.025971
O O7 0.838328 0.007684 0.831723
O O8 0.000000 0.000000 0.000000
O O9 0.293294 0.207430 0.884076
O O10 0.138076 0.240855 0.735945
O O11 0.869807 0.501057 0.690413
O O12 0.595887 0.737043 0.849362
O O13 0.750000 0.750000 0.000000
#
# Coordination Sequence:
#
# PCOD9285086 Si02
#       6
#     8   8   8   8   8   8
#     4  10  21  41  67  90 129 178 226 272 345 410
#     4  12  25  40  63 103 135 171 222 287 348 406
#     4  11  22  41  64  95 134 173 227 280 345 418
#     4  10  22  41  65  95 131 173 224 284 342 413
#     4  10  23  42  63  92 129 181 225 274 340 415
#     4   9  21  42  67  95 128 176 230 278 339 416
#
# _framework density 23.559809000000001
#
# number of rings (size 3 to 8) (size 9 to 14) (size 15 to 20)
#    0.000    1.667    1.667    2.000    2.333    4.000 
#    0.000   13.333    0.000    0.000    0.000    0.000 
#    0.000    0.000    0.000    0.000    0.000    0.000 
#
# Total GULP energy -133953.451281 kJ/mol
# GULP energy per Si atom -5581.393803 kJ/mol
# Density = 2.350619 g / cm^3
# Si number density = 23.559809 Si / 1000 Ang^3
#
#
#
# Elastic Constant Matrix: (Units=GPa)
#
#
# Indices 1 2 3 4 5 6 
#
# 1 93.2625 20.8549 32.4708 0.0000 -18.0492 0.0000
# 2 20.8549 57.2315 17.7884 0.0000 -9.4677 0.0000
# 3 32.4708 17.7884 122.1161 0.0000 -25.7890 0.0000
# 4 0.0000 0.0000 0.0000 35.4564 0.0000 0.8109
# 5 -18.0492 -9.4677 -25.7890 0.0000 44.6060 0.0000
# 6 0.0000 0.0000 0.0000 0.8109 0.0000 58.2673
#
#
#
# Elastic Compliance Matrix: (Units=1/GPa)
#
#
# Indices 1 2 3 4 5 6 
#
# 1 0.012899 -0.003474 -0.002252 0.000000 0.003180 0.000000
# 2 -0.003474 0.019521 -0.001528 0.000000 0.001854 0.000000
# 3 -0.002252 -0.001528 0.009966 0.000000 0.004526 0.000000
# 4 0.000000 0.000000 0.000000 0.028213 0.000000 -0.000393
# 5 0.003180 0.001854 0.004526 0.000000 0.026716 0.000000
# 6 0.000000 0.000000 0.000000 -0.000393 0.000000 0.017168
#
#
# Mechanical properties :
#
#
# Convention : Reuss Voigt Hill
#
# Bulk Modulus (GPa) = 35.87258 46.09312 40.98285
# Shear Modulus (GPa) = 36.15773 41.09902 38.62838
#
# Velocity S-wave (km/s) = 3.92180 4.18120 4.05358
# Velocity P-wave (km/s) = 5.98052 6.55108 6.27229
#
# Compressibility (1/GPa) = 0.02787645
#
# Stress axis : x y z
#
# Youngs Moduli (GPa) = 77.52638 51.22807 100.33817
#
# Poissons Ratio (x) = 0.17798 0.22598
# Poissons Ratio (y) = 0.26934 0.15334
# Poissons Ratio (z) = 0.17461 0.07829
#
# Static dielectric constant tensor:
#      x y z
#    x 1.997020 0.000000 0.021230 
#    y 0.000000 1.894590 0.000000 
#    z 0.021230 0.000000 1.926850 
# 
# From -- ./inp_files/176884.got.cif
#   From: 2010.05.17/outbox.cif.g08.bks.cpg/sg15_89_cif.got.tgz:176884.got - 2010.06.03 18:47:42.
