data_PCOD9285658
_publ_section_title
;
Structure prediction by ZEFSAII (Michael W. Deem and Ramdas Pophale) SiO2 
 PCOD9285658
Probable space group: C 2/C
;
_chemical_formula_sum "Si O2"
_cell_formula_units_Z 60
_cell_length_a 10.338967
_cell_length_b 22.699013
_cell_length_c 15.418093
_cell_angle_alpha 90.000000
_cell_angle_beta 122.575329
_cell_angle_gamma 90.000000
_cell_volume 3049.156326
_symmetry_space_group_name_H-M "C 2/C"
_symmetry_group_IT_number 15
_symmetry_cell_setting 'monoclinic'
loop_
_space_group_symop_operation_xyz
x,y,z
-x,y,1/2-z
-x,-y,-z
x,-y,1/2+z
1/2+x,1/2+y,z
1/2-x,1/2+y,1/2-z
1/2-x,1/2-y,-z
1/2+x,1/2-y,1/2+z
loop_
_atom_site_type_symbol
_atom_site_label
_atom_site_fract_x
_atom_site_fract_y
_atom_site_fract_z
Si Si1 0.209598 0.749654 0.088346
Si Si2 0.369542 0.118149 0.384354
Si Si3 0.143497 0.547014 0.416824
Si Si4 0.500000 0.179041 0.750000
Si Si5 0.094413 0.415584 0.406182
Si Si6 0.426598 0.368160 0.467803
Si Si7 0.556708 0.548282 0.867444
Si Si8 0.365240 0.569564 0.333981
O O1 0.162557 0.686895 0.109280
O O2 0.356269 0.778353 0.187481
O O3 0.080910 0.799283 0.052982
O O4 0.250000 0.750000 0.000000
O O5 0.521387 0.098980 0.386333
O O6 0.394072 0.091012 0.487554
O O7 0.225432 0.089141 0.283558
O O8 0.060876 0.483756 0.376271
O O9 0.262913 0.543000 0.541665
O O10 0.244987 0.556067 0.367573
O O11 0.516642 0.133357 0.675655
O O12 0.259070 0.396086 0.425991
O O13 0.495537 0.403246 0.412390
O O14 0.526363 0.379581 0.589351
O O15 0.500000 0.562769 0.750000
O O16 0.472956 0.486797 0.859261
#
# Coordination Sequence:
#
# PCOD9285658 Si02
#       8
#     8   8   8   4   8   8   8   8
#     4  11  24  44  62  94 130 172 226 271 318 385
#     4  12  26  37  64  99 132 169 222 270 323 398
#     4  11  23  43  60 100 140 165 208 275 345 392
#     4  10  24  38  68  88 132 178 214 276 326 374
#     4  11  21  40  64  97 129 164 214 276 335 381
#     4  10  21  42  65  92 129 169 220 271 321 388
#     4  11  22  41  69  96 127 177 219 265 327 412
#     4  11  23  40  68  93 131 174 208 270 334 400
#
# _framework density 19.677574
#
# number of rings (size 3 to 8) (size 9 to 14) (size 15 to 20)
#    0.000    1.067    5.333    2.400    3.733    2.133 
#    0.000    4.000    0.000    0.000    0.000    0.000 
#    0.000    0.000    0.000    0.000    0.000    0.000 
#
# Total GULP energy -167585.912355 kJ/mol
# GULP energy per Si atom -5586.197079 kJ/mol
# Density = 1.963279 g / cm^3
# Si number density = 19.677574 Si / 1000 Ang^3
#
#
#
# Elastic Constant Matrix: (Units=GPa)
#
#
# Indices 1 2 3 4 5 6 
#
# 1 45.1452 30.4737 15.9843 0.0000 10.7990 0.0000
# 2 30.4737 119.7255 30.3145 0.0000 11.2508 0.0000
# 3 15.9843 30.3145 117.2408 0.0000 11.0990 0.0000
# 4 0.0000 0.0000 0.0000 34.2379 0.0000 4.4680
# 5 10.7990 11.2508 11.0990 0.0000 22.6500 0.0000
# 6 0.0000 0.0000 0.0000 4.4680 0.0000 35.7985
#
#
#
# Elastic Compliance Matrix: (Units=1/GPa)
#
#
# Indices 1 2 3 4 5 6 
#
# 1 0.029227 -0.006117 -0.001438 0.000000 -0.010191 0.000000
# 2 -0.006117 0.010485 -0.001741 0.000000 -0.001439 0.000000
# 3 -0.001438 -0.001741 0.009468 0.000000 -0.003089 0.000000
# 4 0.000000 0.000000 0.000000 0.029691 0.000000 -0.003706
# 5 -0.010191 -0.001439 -0.003089 0.000000 0.051238 0.000000
# 6 0.000000 0.000000 0.000000 -0.003706 0.000000 0.028397
#
#
# Mechanical properties :
#
#
# Convention : Reuss Voigt Hill
#
# Bulk Modulus (GPa) = 32.69286 48.40629 40.54958
# Shear Modulus (GPa) = 26.69590 32.22655 29.46122
#
# Velocity S-wave (km/s) = 3.68729 4.05128 3.87356
# Velocity P-wave (km/s) = 5.89733 6.82180 6.37634
#
# Compressibility (1/GPa) = 0.03058772
#
# Stress axis : x y z
#
# Youngs Moduli (GPa) = 34.21484 95.36992 105.61739
#
# Poissons Ratio (x) = 0.58341 0.15190
# Poissons Ratio (y) = 0.20930 0.18388
# Poissons Ratio (z) = 0.04921 0.16604
#
# Static dielectric constant tensor:
#      x y z
#    x 1.719400 0.000000 0.020080 
#    y 0.000000 1.678370 0.000000 
#    z 0.020080 0.000000 1.734510 
# 
# From -- ./inp_files/147201.got.cif
#   From: 2010.05.17/outbox.cif.g08.bks.cpg/sg15_74_cif.got.tgz:147201.got - 2010.06.03 18:47:42.
