data_PCOD9285047
_publ_section_title
;
Structure prediction by ZEFSAII (Michael W. Deem and Ramdas Pophale) SiO2 
 PCOD9285047
Probable space group: C 2/C
;
_chemical_formula_sum "Si O2"
_cell_formula_units_Z 60
_cell_length_a 27.775136
_cell_length_b 16.138607
_cell_length_c 10.862835
_cell_angle_alpha 90.000000
_cell_angle_beta 30.787863
_cell_angle_gamma 90.000000
_cell_volume 2492.397910
_symmetry_space_group_name_H-M "C 2/C"
_symmetry_group_IT_number 15
_symmetry_cell_setting 'monoclinic'
loop_
_space_group_symop_operation_xyz
x,y,z
-x,y,1/2-z
-x,-y,-z
x,-y,1/2+z
1/2+x,1/2+y,z
1/2-x,1/2+y,1/2-z
1/2-x,1/2-y,-z
1/2+x,1/2-y,1/2+z
loop_
_atom_site_type_symbol
_atom_site_label
_atom_site_fract_x
_atom_site_fract_y
_atom_site_fract_z
Si Si1 0.611953 0.743598 0.385243
Si Si2 0.281701 0.709596 0.099859
Si Si3 0.382643 0.078949 0.080060
Si Si4 0.449910 0.237718 0.069022
Si Si5 0.205045 0.886003 0.312058
Si Si6 0.765301 0.116476 0.490113
Si Si7 0.150272 0.499360 0.101478
Si Si8 0.000000 0.137759 0.250000
O O1 0.643868 0.713040 0.449944
O O2 0.511375 0.773653 0.558278
O O3 0.639939 0.664625 0.243149
O O4 0.682669 0.816905 0.191645
O O5 0.218584 0.627709 0.215923
O O6 0.211952 0.785671 0.292356
O O7 0.347356 0.730282 0.838203
O O8 0.443167 0.154555 0.003286
O O9 0.400925 0.035520 0.907076
O O10 0.392392 0.010741 0.168405
O O11 0.499192 0.303476 0.871218
O O12 0.224530 0.926788 0.402013
O O13 0.098434 0.910073 0.517103
O O14 0.297508 0.913745 0.035847
O O15 0.736748 0.061722 0.439011
#
# Coordination Sequence:
#
# PCOD9285047 Si02
#       8
#     8   8   8   8   8   8   8   4
#     4  10  22  40  71  99 136 174 244 290 350 409
#     4  11  22  44  72 100 133 184 243 296 346 418
#     4  12  25  43  72 103 141 191 235 286 360 428
#     4  12  24  40  68 107 132 173 240 301 339 409
#     4  11  22  43  69  98 135 183 235 292 350 424
#     4  10  21  41  66  97 133 188 225 284 352 425
#     4  12  24  43  69 102 143 192 230 281 361 443
#     4  12  24  38  68 102 130 170 236 300 346 404
#
# _framework density 24.073204
#
# number of rings (size 3 to 8) (size 9 to 14) (size 15 to 20)
#    0.000    0.800    6.667    1.600    1.867    0.000 
#    0.000    2.667    5.867    0.000    0.000    0.000 
#    0.000    0.000    0.000    0.000    0.000    0.000 
#
# Total GULP energy -167288.071473 kJ/mol
# GULP energy per Si atom -5576.269049 kJ/mol
# Density = 2.401841 g / cm^3
# Si number density = 24.073204 Si / 1000 Ang^3
#
#
#
# Elastic Constant Matrix: (Units=GPa)
#
#
# Indices 1 2 3 4 5 6 
#
# 1 178.1846 23.1742 30.7872 0.0000 -0.2933 0.0000
# 2 23.1742 54.2133 6.3030 0.0000 6.3645 0.0000
# 3 30.7872 6.3030 82.5462 0.0000 0.4062 0.0000
# 4 0.0000 0.0000 0.0000 9.6073 0.0000 -3.5560
# 5 -0.2933 6.3645 0.4062 0.0000 34.8219 0.0000
# 6 0.0000 0.0000 0.0000 -3.5560 0.0000 22.3117
#
#
#
# Elastic Compliance Matrix: (Units=1/GPa)
#
#
# Indices 1 2 3 4 5 6 
#
# 1 0.006314 -0.002510 -0.002166 0.000000 0.000537 0.000000
# 2 -0.002510 0.020017 -0.000574 0.000000 -0.003673 0.000000
# 3 -0.002166 -0.000574 0.012966 0.000000 -0.000065 0.000000
# 4 0.000000 0.000000 0.000000 0.110612 0.000000 0.017629
# 5 0.000537 -0.003673 -0.000065 0.000000 0.029394 0.000000
# 6 0.000000 0.000000 0.000000 0.017629 0.000000 0.047629
#
#
# Mechanical properties :
#
#
# Convention : Reuss Voigt Hill
#
# Bulk Modulus (GPa) = 34.72639 48.38585 41.55612
# Shear Modulus (GPa) = 20.24034 30.32685 25.28360
#
# Velocity S-wave (km/s) = 2.90277 3.55318 3.24432
# Velocity P-wave (km/s) = 5.06867 6.08084 5.59768
#
# Compressibility (1/GPa) = 0.02879654
#
# Stress axis : x y z
#
# Youngs Moduli (GPa) = 158.38534 49.95856 77.12264
#
# Poissons Ratio (x) = 0.12540 0.16703
# Poissons Ratio (y) = 0.39757 0.04428
# Poissons Ratio (z) = 0.34303 0.02868
#
# Static dielectric constant tensor:
#      x y z
#    x 1.977300 0.000000 0.009500 
#    y 0.000000 1.955730 0.000000 
#    z 0.009500 0.000000 2.046900 
# 
# From -- ./inp_files/127216.got.cif
#   From: 2010.05.17/outbox.cif.g08.bks.cpg/sg15_64_cif.got.tgz:127216.got - 2010.06.03 18:47:42.
