data_PCOD9285384
_publ_section_title
;
Structure prediction by ZEFSAII (Michael W. Deem and Ramdas Pophale) SiO2 
 PCOD9285384
Probable space group: C 2/C
;
_chemical_formula_sum "Si O2"
_cell_formula_units_Z 40
_cell_length_a 8.585830
_cell_length_b 16.621289
_cell_length_c 18.964794
_cell_angle_alpha 90.000000
_cell_angle_beta 144.113934
_cell_angle_gamma 90.000000
_cell_volume 1586.436382
_symmetry_space_group_name_H-M "C 2/C"
_symmetry_group_IT_number 15
_symmetry_cell_setting 'monoclinic'
loop_
_space_group_symop_operation_xyz
x,y,z
-x,y,1/2-z
-x,-y,-z
x,-y,1/2+z
1/2+x,1/2+y,z
1/2-x,1/2+y,1/2-z
1/2-x,1/2-y,-z
1/2+x,1/2-y,1/2+z
loop_
_atom_site_type_symbol
_atom_site_label
_atom_site_fract_x
_atom_site_fract_y
_atom_site_fract_z
Si Si1 0.082196 0.656108 0.080583
Si Si2 0.500000 0.529019 0.250000
Si Si3 0.788030 0.656166 0.530455
Si Si4 0.895733 0.934943 0.072434
Si Si5 0.268378 0.551542 0.372922
Si Si6 0.000000 0.702679 0.750000
O O1 0.264770 0.589571 0.187125
O O2 0.237800 0.739189 0.152380
O O3 0.110170 0.628717 0.008666
O O4 0.769015 0.648146 0.982442
O O5 0.390052 0.474867 0.146625
O O6 0.750000 0.750000 0.500000
O O7 0.508782 0.613758 0.446693
O O8 0.979820 0.656415 0.668417
O O9 0.748389 0.969072 0.948215
O O10 0.180630 0.968157 0.150078
O O11 0.000000 0.591346 0.250000
#
# Coordination Sequence:
#
# PCOD9285384 Si02
#       6
#     8   4   8   8   8   4
#     4  10  21  41  72 101 139 177 236 295 345 415
#     4  11  20  36  64 104 140 174 221 284 350 427
#     4  10  22  44  72 101 135 196 234 290 348 413
#     4  11  24  40  69 107 136 186 228 289 365 415
#     4  11  25  45  67 103 149 185 227 292 359 427
#     4   9  22  42  74 102 140 184 239 296 352 409
#
# _framework density 25.213743000000001
#
# number of rings (size 3 to 8) (size 9 to 14) (size 15 to 20)
#    0.000    1.600    2.000    1.800    5.600    1.600 
#    7.200    4.000    8.800    0.000    0.000    0.000 
#    0.000    0.000    0.000    0.000    0.000    0.000 
#
# Total GULP energy -111365.107789 kJ/mol
# GULP energy per Si atom -5568.255389 kJ/mol
# Density = 2.515636 g / cm^3
# Si number density = 25.213743 Si / 1000 Ang^3
#
#
#
# Elastic Constant Matrix: (Units=GPa)
#
#
# Indices 1 2 3 4 5 6 
#
# 1 87.6344 31.3461 76.6408 0.0001 7.4586 0.0001
# 2 31.3461 64.7837 77.3253 0.0000 10.3958 0.0001
# 3 76.6408 77.3253 137.8088 0.0002 -33.1786 0.0005
# 4 0.0001 0.0000 0.0002 61.7678 -0.0001 3.4686
# 5 7.4586 10.3958 -33.1786 -0.0001 31.7746 0.0001
# 6 0.0001 0.0001 0.0005 3.4686 0.0001 17.4801
#
#
#
# Elastic Compliance Matrix: (Units=1/GPa)
#
#
# Indices 1 2 3 4 5 6 
#
# 1 0.006642 -0.020538 0.012119 0.000000 0.017815 0.000000
# 2 -0.020538 -0.007970 0.023621 0.000000 0.032093 -0.000001
# 3 0.012119 0.023621 -0.020415 0.000000 -0.031890 0.000000
# 4 0.000000 0.000000 0.000000 0.016372 0.000000 -0.003249
# 5 0.017815 0.032093 -0.031890 0.000000 -0.016510 0.000001
# 6 0.000000 -0.000001 0.000000 -0.003249 0.000001 0.057852
#
#
# Mechanical properties :
#
#
# Convention : Reuss Voigt Hill
#
# Bulk Modulus (GPa) = 115.46333 73.42793 94.44563
# Shear Modulus (GPa) = 591.38628 29.19884 310.29256
#
# Velocity S-wave (km/s) = 15.33161 3.40671 11.10549
# Velocity P-wave (km/s) = 18.95533 6.68279 14.21204
#
# Compressibility (1/GPa) = 0.00866076
#
# Stress axis : x y z
#
# Youngs Moduli (GPa) = 150.55481 -125.47088 -48.98297
#
# Poissons Ratio (x) = -2.57696 0.59364
# Poissons Ratio (y) = 3.09214 1.15702
# Poissons Ratio (z) = -1.82464 2.96372
#
# Static dielectric constant tensor:
#      x y z
#    x 2.083110 0.000000 0.023900 
#    y 0.000000 2.043410 0.000000 
#    z 0.023900 0.000000 2.070780 
# 
# From -- ./inp_files/232947.got.cif
#   From: 2010.05.17/outbox.cif.g08.bks.cpg/sg15_117_cif.got.tgz:232947.got - 2010.06.03 18:47:42.
