data_PCOD9285685
_publ_section_title
;
Structure prediction by ZEFSAII (Michael W. Deem and Ramdas Pophale) SiO2 
 PCOD9285685
Probable space group: C 2/C
;
_chemical_formula_sum "Si O2"
_cell_formula_units_Z 52
_cell_length_a 9.760896
_cell_length_b 28.137854
_cell_length_c 14.194740
_cell_angle_alpha 90.000000
_cell_angle_beta 40.976274
_cell_angle_gamma 90.000000
_cell_volume 2556.489701
_symmetry_space_group_name_H-M "C 2/C"
_symmetry_group_IT_number 15
_symmetry_cell_setting 'monoclinic'
loop_
_space_group_symop_operation_xyz
x,y,z
-x,y,1/2-z
-x,-y,-z
x,-y,1/2+z
1/2+x,1/2+y,z
1/2-x,1/2+y,1/2-z
1/2-x,1/2-y,-z
1/2+x,1/2-y,1/2+z
loop_
_atom_site_type_symbol
_atom_site_label
_atom_site_fract_x
_atom_site_fract_y
_atom_site_fract_z
Si Si1 0.086462 0.560257 0.543906
Si Si2 0.500000 0.600707 0.750000
Si Si3 0.794302 0.356287 0.248902
Si Si4 0.334909 0.956961 0.987244
Si Si5 0.500000 0.390536 0.750000
Si Si6 0.076795 0.839471 0.909794
Si Si7 0.994173 0.746848 0.859954
Si Si8 0.500000 0.112353 0.250000
O O1 0.151377 0.510513 0.558270
O O2 0.295060 0.579674 0.385538
O O3 0.966848 0.601554 0.663117
O O4 0.922657 0.545538 0.547665
O O5 0.334549 0.633021 0.780130
O O6 0.607063 0.566374 0.616877
O O7 0.624367 0.352940 0.421590
O O8 0.911923 0.305822 0.182923
O O9 0.471295 0.921866 0.853927
O O10 0.551677 0.361812 0.818632
O O11 0.289068 0.857920 0.846532
O O12 0.092094 0.783143 0.883484
O O13 0.000000 0.764151 0.750000
O O14 0.750000 0.750000 0.000000
#
# Coordination Sequence:
#
# PCOD9285685 Si02
#       8
#     8   4   8   8   4   8   8   4
#     4  10  23  40  66  98 135 181 227 271 344 401
#     4  10  21  43  70  96 138 182 221 281 344 402
#     4  11  25  44  68  98 138 180 225 286 346 411
#     4  10  21  42  65  96 139 178 222 280 334 405
#     4  12  23  40  68  99 133 180 228 281 328 402
#     4  12  26  45  69 100 137 178 226 286 342 406
#     4  12  25  44  69  99 135 172 226 284 342 403
#     4  12  24  45  68 103 135 178 227 290 338 406
#
# _framework density 20.340391
#
# number of rings (size 3 to 8) (size 9 to 14) (size 15 to 20)
#    0.000    0.923    5.385    1.385    0.000    1.846 
#    0.000    3.077    0.000    0.000    0.000    0.000 
#    0.000    0.000    0.000    0.000    0.000    0.000 
#
# Total GULP energy -145102.683056 kJ/mol
# GULP energy per Si atom -5580.872425 kJ/mol
# Density = 2.029410 g / cm^3
# Si number density = 20.340391 Si / 1000 Ang^3
#
#
#
# Elastic Constant Matrix: (Units=GPa)
#
#
# Indices 1 2 3 4 5 6 
#
# 1 66.8297 45.5955 27.4331 0.0000 -11.4759 0.0000
# 2 45.5955 167.3398 74.5901 0.0000 -16.6564 0.0000
# 3 27.4331 74.5901 149.0702 0.0000 -21.4381 0.0000
# 4 0.0000 0.0000 0.0000 0.4546 0.0000 10.2506
# 5 -11.4759 -16.6564 -21.4381 0.0000 34.5103 0.0000
# 6 0.0000 0.0000 0.0000 10.2506 0.0000 13.3159
#
#
#
# Elastic Compliance Matrix: (Units=1/GPa)
#
#
# Indices 1 2 3 4 5 6 
#
# 1 0.018945 -0.004475 -0.000716 0.000000 0.003695 0.000000
# 2 -0.004475 0.008815 -0.003502 0.000000 0.000591 0.000000
# 3 -0.000716 -0.003502 0.009131 0.000000 0.003744 0.000000
# 4 0.000000 0.000000 0.000000 -0.134476 0.000000 0.103520
# 5 0.003695 0.000591 0.003744 0.000000 0.032816 0.000000
# 6 0.000000 0.000000 0.000000 0.103520 0.000000 -0.004591
#
#
# Mechanical properties :
#
#
# Convention : Reuss Voigt Hill
#
# Bulk Modulus (GPa) = 51.27007 75.38635 63.32821
# Shear Modulus (GPa) = -109.95805 25.36423 -42.29691
#
# Velocity S-wave (km/s) = -7.36046 3.53510 -4.56505
# Velocity P-wave (km/s) = 6.85378 7.33522 1.84812
#
# Compressibility (1/GPa) = 0.01950456
#
# Stress axis : x y z
#
# Youngs Moduli (GPa) = 52.78440 113.44120 109.51927
#
# Poissons Ratio (x) = 0.50766 0.07839
# Poissons Ratio (y) = 0.23622 0.38357
# Poissons Ratio (z) = 0.03778 0.39731
#
# Static dielectric constant tensor:
#      x y z
#    x 1.435620 0.000000 0.027920 
#    y 0.000000 1.751470 0.000000 
#    z 0.027920 0.000000 1.708900 
# 
# From -- ./inp_files/148070.got.cif
#   From: 2010.05.17/outbox.cif.g08.bks.cpg/sg15_75_cif.got.tgz:148070.got - 2010.06.03 18:47:42.
