data_PCOD9285510
_publ_section_title
;
Structure prediction by ZEFSAII (Michael W. Deem and Ramdas Pophale) SiO2 
 PCOD9285510
Probable space group: C 2/C
;
_chemical_formula_sum "Si O2"
_cell_formula_units_Z 32
_cell_length_a 6.861059
_cell_length_b 35.259080
_cell_length_c 5.416213
_cell_angle_alpha 90.000000
_cell_angle_beta 102.595915
_cell_angle_gamma 90.000000
_cell_volume 1278.726198
_symmetry_space_group_name_H-M "C 2/C"
_symmetry_group_IT_number 15
_symmetry_cell_setting 'monoclinic'
loop_
_space_group_symop_operation_xyz
x,y,z
-x,y,1/2-z
-x,-y,-z
x,-y,1/2+z
1/2+x,1/2+y,z
1/2-x,1/2+y,1/2-z
1/2-x,1/2-y,-z
1/2+x,1/2-y,1/2+z
loop_
_atom_site_type_symbol
_atom_site_label
_atom_site_fract_x
_atom_site_fract_y
_atom_site_fract_z
Si Si1 0.236337 0.484535 0.265381
Si Si2 0.219442 0.824937 0.541553
Si Si3 0.630544 0.095048 0.537918
Si Si4 0.764958 0.794306 0.451929
O O1 0.312819 0.488378 0.566539
O O2 0.246851 0.442998 0.146561
O O3 0.000000 0.491868 0.250000
O O4 0.230901 0.869051 0.479684
O O5 0.311416 0.817807 0.834948
O O6 0.995647 0.808344 0.497293
O O7 0.317349 0.802516 0.341882
O O8 0.500000 0.103442 0.750000
O O9 0.500000 0.088670 0.250000
O O10 0.750000 0.750000 0.500000
#
# Coordination Sequence:
#
# PCOD9285510 Si02
#       4
#     8   8   8   8
#     4   9  16  28  49  77 112 156 194 228 272 324
#     4  10  22  40  58  85 109 148 189 236 298 342
#     4  11  21  35  53  85 126 153 186 237 289 351
#     4  10  21  42  63  79 104 140 200 243 285 345
#
# _framework density 25.024901
#
# number of rings (size 3 to 8) (size 9 to 14) (size 15 to 20)
#    0.000    2.000    0.000    6.000    0.000    0.000 
#   27.000    0.000    0.000    0.000    0.000   21.000 
#    0.000    0.000    0.000    0.000    0.000    0.000 
#
# Total GULP energy -89460.601590 kJ/mol
# GULP energy per Si atom -5591.287599 kJ/mol
# Density = 2.496794 g / cm^3
# Si number density = 25.024901 Si / 1000 Ang^3
#
#
#
# Elastic Constant Matrix: (Units=GPa)
#
#
# Indices 1 2 3 4 5 6 
#
# 1 97.0475 23.6626 54.0913 0.0000 -1.3035 0.0000
# 2 23.6626 199.5556 81.2283 0.0000 -12.1878 0.0000
# 3 54.0913 81.2283 266.4898 0.0000 -16.8150 0.0000
# 4 0.0000 0.0000 0.0000 18.3977 0.0000 -210.7547
# 5 -1.3035 -12.1878 -16.8150 0.0000 47.6725 0.0000
# 6 0.0000 0.0000 0.0000 -210.7547 0.0000-1122.3423
#
#
#
# Elastic Compliance Matrix: (Units=1/GPa)
#
#
# Indices 1 2 3 4 5 6 
#
# 1 0.011676 -0.000504 -0.002254 0.000000 -0.000605 0.000000
# 2 -0.000504 0.005778 -0.001602 0.000000 0.000898 0.000000
# 3 -0.002254 -0.001602 0.004775 0.000000 0.001213 0.000000
# 4 0.000000 0.000000 0.000000 0.017249 0.000000 -0.003239
# 5 -0.000605 0.000898 0.001213 0.000000 0.021617 0.000000
# 6 0.000000 0.000000 0.000000 -0.003239 0.000000 -0.000283
#
#
# Mechanical properties :
#
#
# Convention : Reuss Voigt Hill
#
# Bulk Modulus (GPa) = 74.03246 97.89525 85.96385
# Shear Modulus (GPa) = 67.53496 -184.31373 -58.38939
#
# Velocity S-wave (km/s) = 5.20055 -8.59139 -4.83561
# Velocity P-wave (km/s) = 8.10609 7.69493 1.80232
#
# Compressibility (1/GPa) = 0.01350759
#
# Stress axis : x y z
#
# Youngs Moduli (GPa) = 85.64940 173.07311 209.42366
#
# Poissons Ratio (x) = 0.08718 0.47214
# Poissons Ratio (y) = 0.04314 0.33555
# Poissons Ratio (z) = 0.19310 0.27730
#
# Static dielectric constant tensor:
#      x y z
#    x 2.022580 0.000000 0.026050 
#    y 0.000000 1.913380 0.000000 
#    z 0.026050 0.000000 2.026020 
# 
# From -- ./inp_files/2393.got.cif
#   From: 2010.05.17/outbox.cif.g08.bks.cpg/sg15_2_cif.got.tgz:2393.got - 2010.06.03 18:47:42.
