data_PCOD9285999
_publ_section_title
;
Structure prediction by ZEFSAII (Michael W. Deem and Ramdas Pophale) SiO2 
 PCOD9285999
Probable space group: C 2/C
;
_chemical_formula_sum "Si O2"
_cell_formula_units_Z 40
_cell_length_a 19.872609
_cell_length_b 5.325637
_cell_length_c 23.037000
_cell_angle_alpha 90.000000
_cell_angle_beta 131.966727
_cell_angle_gamma 90.000000
_cell_volume 1812.812066
_symmetry_space_group_name_H-M "C 2/C"
_symmetry_group_IT_number 15
_symmetry_cell_setting 'monoclinic'
loop_
_space_group_symop_operation_xyz
x,y,z
-x,y,1/2-z
-x,-y,-z
x,-y,1/2+z
1/2+x,1/2+y,z
1/2-x,1/2+y,1/2-z
1/2-x,1/2-y,-z
1/2+x,1/2-y,1/2+z
loop_
_atom_site_type_symbol
_atom_site_label
_atom_site_fract_x
_atom_site_fract_y
_atom_site_fract_z
Si Si1 0.199645 0.671211 0.556354
Si Si2 0.166847 0.941426 0.950650
Si Si3 0.535760 0.546376 0.152090
Si Si4 0.767714 0.079059 0.722444
Si Si5 0.493332 0.968204 0.564232
O O1 0.292206 0.628821 0.574695
O O2 0.212982 0.628823 0.631776
O O3 0.114213 0.507167 0.484449
O O4 0.168043 0.944150 0.516566
O O5 0.061459 0.911129 0.873299
O O6 0.250000 0.750000 0.000000
O O7 0.628929 0.482755 0.237614
O O8 0.523537 0.304960 0.103141
O O9 0.547804 0.808499 0.125581
O O10 0.763519 0.331228 0.759649
O O11 0.500000 0.000000 0.500000
#
# Coordination Sequence:
#
# PCOD9285999 Si02
#       5
#     8   8   8   8   8
#     4  10  23  40  67  97 132 174 222 278 330 388
#     4  10  21  42  69  97 128 172 229 280 321 390
#     4  11  23  40  64  93 130 170 217 269 330 392
#     4  12  27  45  65  98 141 177 216 275 344 405
#     4  11  21  38  63  94 125 170 223 268 317 390
#
# _framework density 22.065166999999999
#
# number of rings (size 3 to 8) (size 9 to 14) (size 15 to 20)
#    0.000    1.200    2.000    4.200    2.800    2.400 
#    0.000    0.000    0.000    0.000    0.000    0.000 
#    0.000    0.000    0.000    0.000    0.000    0.000 
#
# Total GULP energy -111439.969813 kJ/mol
# GULP energy per Si atom -5571.998491 kJ/mol
# Density = 2.201495 g / cm^3
# Si number density = 22.065167 Si / 1000 Ang^3
#
#
#
# Elastic Constant Matrix: (Units=GPa)
#
#
# Indices 1 2 3 4 5 6 
#
# 1 69.0986 8.9810 21.5194 0.0000 28.1785 -0.0001
# 2 8.9810 127.1159 23.5129 0.0006 -1.9137 -0.0028
# 3 21.5194 23.5129 96.4715 0.0000 13.7524 0.0000
# 4 0.0000 0.0006 0.0000 25.2213 -0.0001 8.3059
# 5 28.1785 -1.9137 13.7524 -0.0001 42.0957 0.0002
# 6 -0.0001 -0.0028 0.0000 8.3059 0.0002 -1.6760
#
#
#
# Elastic Compliance Matrix: (Units=1/GPa)
#
#
# Indices 1 2 3 4 5 6 
#
# 1 0.020756 -0.001209 -0.002461 0.000000 -0.013145 0.000000
# 2 -0.001209 0.008356 -0.002031 0.000002 0.001853 -0.000006
# 3 -0.002461 -0.002031 0.011735 0.000000 -0.002278 0.000001
# 4 0.000000 0.000002 0.000000 0.015064 0.000000 0.074654
# 5 -0.013145 0.001853 -0.002278 0.000000 0.033383 0.000001
# 6 0.000000 -0.000006 0.000001 0.074654 0.000001 -0.226692
#
#
# Mechanical properties :
#
#
# Convention : Reuss Voigt Hill
#
# Bulk Modulus (GPa) = 33.96306 44.52363 39.24334
# Shear Modulus (GPa) = -43.03630 29.03972 -6.99829
#
# Velocity S-wave (km/s) = -4.42114 3.63173 -1.78284
# Velocity P-wave (km/s) = 3.26136 6.14882 3.68589
#
# Compressibility (1/GPa) = 0.02944375
#
# Stress axis : x y z
#
# Youngs Moduli (GPa) = 48.17810 119.67705 85.21807
#
# Poissons Ratio (x) = 0.14470 0.20976
# Poissons Ratio (y) = 0.05825 0.17307
# Poissons Ratio (z) = 0.11859 0.24306
#
# Static dielectric constant tensor:
#      x y z
#    x 1.912580 0.000000 0.109690 
#    y 0.000000 1.906620 0.000000 
#    z 0.109690 0.000000 1.864460 
# 
# From -- ./inp_files/212634.got.cif
#   From: 2010.05.17/outbox.cif.g08.bks.cpg/sg15_107_cif.got.tgz:212634.got - 2010.06.03 18:47:42.
