data_PCOD9285322
_publ_section_title
;
Structure prediction by ZEFSAII (Michael W. Deem and Ramdas Pophale) SiO2 
 PCOD9285322
Probable space group: C 2/C
;
_chemical_formula_sum "Si O2"
_cell_formula_units_Z 32
_cell_length_a 5.305703
_cell_length_b 17.844846
_cell_length_c 13.632627
_cell_angle_alpha 90.000000
_cell_angle_beta 105.903108
_cell_angle_gamma 90.000000
_cell_volume 1241.328857
_symmetry_space_group_name_H-M "C 2/C"
_symmetry_group_IT_number 15
_symmetry_cell_setting 'monoclinic'
loop_
_space_group_symop_operation_xyz
x,y,z
-x,y,1/2-z
-x,-y,-z
x,-y,1/2+z
1/2+x,1/2+y,z
1/2-x,1/2+y,1/2-z
1/2-x,1/2-y,-z
1/2+x,1/2-y,1/2+z
loop_
_atom_site_type_symbol
_atom_site_label
_atom_site_fract_x
_atom_site_fract_y
_atom_site_fract_z
Si Si1 0.233788 0.319673 0.223878
Si Si2 0.818419 0.077381 0.052974
Si Si3 0.807026 0.661944 0.004627
Si Si4 0.253188 0.477480 0.334736
O O1 0.500000 0.273983 0.250000
O O2 0.173984 0.349936 0.110509
O O3 0.279210 0.392600 0.296967
O O4 0.000000 0.276212 0.250000
O O5 0.585588 0.128833 0.069813
O O6 0.710770 0.029711 0.947979
O O7 0.972440 0.021600 0.141644
O O8 0.058454 0.125728 0.032256
O O9 0.750000 0.750000 0.000000
O O10 0.000000 0.508555 0.250000
#
# Coordination Sequence:
#
# PCOD9285322 Si02
#       4
#     8   8   8   8
#     4  11  20  39  65  99 132 187 234 283 364 430
#     4  11  24  40  69 107 137 187 241 295 373 425
#     4  12  24  44  67 102 146 193 244 291 352 446
#     4  10  21  41  70 105 143 178 237 307 371 438
#
# _framework density 25.778827
#
# number of rings (size 3 to 8) (size 9 to 14) (size 15 to 20)
#    0.000    1.000    7.500    0.750    0.000    8.000 
#    0.000    1.250    0.000    1.500    0.000    0.000 
#    0.000    0.000    0.000    0.000    0.000    0.000 
#
# Total GULP energy -89494.941585 kJ/mol
# GULP energy per Si atom -5593.433849 kJ/mol
# Density = 2.572015 g / cm^3
# Si number density = 25.778827 Si / 1000 Ang^3
#
#
#
# Elastic Constant Matrix: (Units=GPa)
#
#
# Indices 1 2 3 4 5 6 
#
# 1 241.1787 55.1847 33.8518 0.0000 28.7518 0.0000
# 2 55.1847 107.5438 24.2209 0.0000 14.1994 0.0000
# 3 33.8518 24.2209 122.8810 0.0000 20.3528 0.0000
# 4 0.0000 0.0000 0.0000 9.3134 0.0000 0.8059
# 5 28.7518 14.1994 20.3528 0.0000 50.5538 0.0000
# 6 0.0000 0.0000 0.0000 0.8059 0.0000 23.2269
#
#
#
# Elastic Compliance Matrix: (Units=1/GPa)
#
#
# Indices 1 2 3 4 5 6 
#
# 1 0.004959 -0.002145 -0.000617 0.000000 -0.001969 0.000000
# 2 -0.002145 0.010872 -0.001337 0.000000 -0.001295 0.000000
# 3 -0.000617 -0.001337 0.009055 0.000000 -0.002919 0.000000
# 4 0.000000 0.000000 0.000000 0.107696 0.000000 -0.003736
# 5 -0.001969 -0.001295 -0.002919 0.000000 0.022440 0.000000
# 6 0.000000 0.000000 0.000000 -0.003736 0.000000 0.043183
#
#
# Mechanical properties :
#
#
# Convention : Reuss Voigt Hill
#
# Bulk Modulus (GPa) = 59.93201 77.56869 68.75035
# Shear Modulus (GPa) = 23.58878 40.50856 32.04867
#
# Velocity S-wave (km/s) = 3.02825 3.96838 3.52975
# Velocity P-wave (km/s) = 5.96038 7.15211 6.58327
#
# Compressibility (1/GPa) = 0.01668557
#
# Stress axis : x y z
#
# Youngs Moduli (GPa) = 201.67156 91.98248 110.43627
#
# Poissons Ratio (x) = 0.19735 0.06814
# Poissons Ratio (y) = 0.43268 0.14769
# Poissons Ratio (z) = 0.12442 0.12301
#
# Static dielectric constant tensor:
#      x y z
#    x 2.269480 0.000000 -0.002160 
#    y 0.000000 2.029320 0.000000 
#    z -0.002160 0.000000 2.146520 
# 
# From -- ./inp_files/128386.got.cif
#   From: 2010.05.17/outbox.cif.g08.bks.cpg/sg15_65_cif.got.tgz:128386.got - 2010.06.03 18:47:42.
