data_PCOD9285421
_publ_section_title
;
Structure prediction by ZEFSAII (Michael W. Deem and Ramdas Pophale) SiO2 
 PCOD9285421
Probable space group: C 2/C
;
_chemical_formula_sum "Si O2"
_cell_formula_units_Z 32
_cell_length_a 24.246398
_cell_length_b 10.247968
_cell_length_c 11.995202
_cell_angle_alpha 90.000000
_cell_angle_beta 153.731867
_cell_angle_gamma 90.000000
_cell_volume 1319.097787
_symmetry_space_group_name_H-M "C 2/C"
_symmetry_group_IT_number 15
_symmetry_cell_setting 'monoclinic'
loop_
_space_group_symop_operation_xyz
x,y,z
-x,y,1/2-z
-x,-y,-z
x,-y,1/2+z
1/2+x,1/2+y,z
1/2-x,1/2+y,1/2-z
1/2-x,1/2-y,-z
1/2+x,1/2-y,1/2+z
loop_
_atom_site_type_symbol
_atom_site_label
_atom_site_fract_x
_atom_site_fract_y
_atom_site_fract_z
Si Si1 0.914735 0.830415 0.272496
Si Si2 0.829622 0.292914 0.252223
Si Si3 0.663301 0.918854 0.758924
Si Si4 0.386372 0.313515 0.467956
O O1 0.863724 0.679781 0.187155
O O2 0.898590 0.881753 0.370333
O O3 0.060531 0.807283 0.516817
O O4 0.814909 0.910592 0.020665
O O5 0.880479 0.434940 0.310272
O O6 0.740935 0.320942 0.195906
O O7 0.750000 0.250000 0.000000
O O8 0.602944 0.839458 0.547743
O O9 0.500000 0.353694 0.750000
#
# Coordination Sequence:
#
# PCOD9285421 Si02
#       4
#     8   8   8   8
#     4   9  21  44  60  89 125 161 210 255 315 371
#     4  12  22  38  67  93 119 171 208 250 330 373
#     4   9  22  43  61  90 130 158 210 269 302 379
#     4  10  21  42  57  91 123 154 206 256 311 377
#
# _framework density 24.259004000000001
#
# number of rings (size 3 to 8) (size 9 to 14) (size 15 to 20)
#    1.500    0.500    2.500    0.750    0.000    4.000 
#    9.000    0.000    0.000    0.000    0.000    0.000 
#    0.000    0.000    0.000    0.000    0.000    0.000 
#
# Total GULP energy -89226.727607 kJ/mol
# GULP energy per Si atom -5576.670475 kJ/mol
# Density = 2.420379 g / cm^3
# Si number density = 24.259004 Si / 1000 Ang^3
#
#
#
# Elastic Constant Matrix: (Units=GPa)
#
#
# Indices 1 2 3 4 5 6 
#
# 1 93.4992 -8.6319 4.0786 0.0000 29.3146 0.0000
# 2 -8.6319 92.5989 -11.9178 0.0000 -0.4063 0.0000
# 3 4.0786 -11.9178 82.3220 0.0000 26.5560 0.0000
# 4 0.0000 0.0000 0.0000 29.2850 0.0000 2.4709
# 5 29.3146 -0.4063 26.5560 0.0000 39.2110 0.0000
# 6 0.0000 0.0000 0.0000 2.4709 0.0000 20.6020
#
#
#
# Elastic Compliance Matrix: (Units=1/GPa)
#
#
# Indices 1 2 3 4 5 6 
#
# 1 0.015075 0.001863 0.004034 0.000000 -0.013983 0.000000
# 2 0.001863 0.011281 0.002498 0.000000 -0.002968 0.000000
# 3 0.004034 0.002498 0.016984 0.000000 -0.014492 0.000000
# 4 0.000000 0.000000 0.000000 0.034496 0.000000 -0.004137
# 5 -0.013983 -0.002968 -0.014492 0.000000 0.045741 0.000000
# 6 0.000000 0.000000 0.000000 -0.004137 0.000000 0.049035
#
#
# Mechanical properties :
#
#
# Convention : Reuss Voigt Hill
#
# Bulk Modulus (GPa) = 16.63033 26.16422 21.39728
# Shear Modulus (GPa) = 28.43046 36.81235 32.62141
#
# Velocity S-wave (km/s) = 3.42710 3.89970 3.67101
# Velocity P-wave (km/s) = 4.74660 5.57545 5.17764
#
# Compressibility (1/GPa) = 0.06013110
#
# Stress axis : x y z
#
# Youngs Moduli (GPa) = 66.33337 88.64106 58.87773
#
# Poissons Ratio (x) = -0.16514 -0.23749
# Poissons Ratio (y) = -0.12358 -0.14710
# Poissons Ratio (z) = -0.26756 -0.22146
#
# Static dielectric constant tensor:
#      x y z
#    x 2.110030 0.000000 -0.036120 
#    y 0.000000 1.938120 0.000000 
#    z -0.036120 0.000000 2.103980 
# 
# From -- ./inp_files/117794.got.cif
#   From: 2010.05.17/outbox.cif.g08.bks.cpg/sg15_59_cif.got.tgz:117794.got - 2010.06.03 18:47:42.
