data_PCOD9285166
_publ_section_title
;
Structure prediction by ZEFSAII (Michael W. Deem and Ramdas Pophale) SiO2 
 PCOD9285166
Probable space group: C 2/C
;
_chemical_formula_sum "Si O2"
_cell_formula_units_Z 36
_cell_length_a 11.172318
_cell_length_b 29.747727
_cell_length_c 5.198452
_cell_angle_alpha 90.000000
_cell_angle_beta 72.275778
_cell_angle_gamma 90.000000
_cell_volume 1645.701569
_symmetry_space_group_name_H-M "C 2/C"
_symmetry_group_IT_number 15
_symmetry_cell_setting 'monoclinic'
loop_
_space_group_symop_operation_xyz
x,y,z
-x,y,1/2-z
-x,-y,-z
x,-y,1/2+z
1/2+x,1/2+y,z
1/2-x,1/2+y,1/2-z
1/2-x,1/2-y,-z
1/2+x,1/2-y,1/2+z
loop_
_atom_site_type_symbol
_atom_site_label
_atom_site_fract_x
_atom_site_fract_y
_atom_site_fract_z
Si Si1 0.886487 0.259228 0.008166
Si Si2 0.500000 0.687514 0.250000
Si Si3 0.859049 0.982030 0.029240
Si Si4 0.298139 0.381819 0.977904
Si Si5 0.134790 0.636508 0.071053
O O1 0.896028 0.312843 0.013585
O O2 0.000000 0.244067 0.750000
O O3 0.750000 0.250000 0.000000
O O4 0.898348 0.224670 0.231789
O O5 0.412261 0.652728 0.465450
O O6 0.853740 0.931857 0.924325
O O7 0.798436 0.986754 0.350327
O O8 0.000000 0.000000 0.000000
O O9 0.202308 0.383882 0.278771
O O10 0.228186 0.366397 0.758750
O O11 0.000000 0.617553 0.250000
#
# Coordination Sequence:
#
# PCOD9285166 Si02
#       5
#     8   4   8   8   8
#     4  11  24  43  63  94 144 194 243 296 347 403
#     4  12  26  38  70 102 144 184 246 292 350 404
#     4  10  21  41  68 101 138 166 208 279 372 418
#     4  12  25  44  72 105 139 179 236 290 349 425
#     4  11  26  45  68  96 141 195 236 281 339 412
#
# _framework density 21.875171000000002
#
# number of rings (size 3 to 8) (size 9 to 14) (size 15 to 20)
#    0.000    0.889    2.222    4.667    6.222    3.556 
#    0.000    0.000    0.000   13.333    0.000    0.000 
#    0.000    0.000    0.000    0.000    0.000    0.000 
#
# Total GULP energy -100228.442854 kJ/mol
# GULP energy per Si atom -5568.246825 kJ/mol
# Density = 2.182538 g / cm^3
# Si number density = 21.875171 Si / 1000 Ang^3
#
#
#
# Elastic Constant Matrix: (Units=GPa)
#
#
# Indices 1 2 3 4 5 6 
#
# 1 96.1017 33.9739 18.7714 0.0000 -0.6613 0.0000
# 2 33.9739 135.1114 18.6951 0.0000 12.5878 0.0000
# 3 18.7714 18.6951 91.7436 0.0000 7.6942 0.0000
# 4 0.0000 0.0000 0.0000 29.0501 0.0000 -10.0758
# 5 -0.6613 12.5878 7.6942 0.0000 45.4045 0.0000
# 6 0.0000 0.0000 0.0000 -10.0758 0.0000 36.2506
#
#
#
# Elastic Compliance Matrix: (Units=1/GPa)
#
#
# Indices 1 2 3 4 5 6 
#
# 1 0.011790 -0.002815 -0.001946 0.000000 0.001282 0.000000
# 2 -0.002815 0.008449 -0.000960 0.000000 -0.002221 0.000000
# 3 -0.001946 -0.000960 0.011639 0.000000 -0.001735 0.000000
# 4 0.000000 0.000000 0.000000 0.038096 0.000000 0.010589
# 5 0.001282 -0.002221 -0.001735 0.000000 0.022953 0.000000
# 6 0.000000 0.000000 0.000000 0.010589 0.000000 0.030529
#
#
# Mechanical properties :
#
#
# Convention : Reuss Voigt Hill
#
# Bulk Modulus (GPa) = 48.93131 51.75972 50.34552
# Shear Modulus (GPa) = 35.28389 38.90880 37.09635
#
# Velocity S-wave (km/s) = 4.02053 4.22201 4.12250
# Velocity P-wave (km/s) = 6.63098 6.89057 6.76202
#
# Compressibility (1/GPa) = 0.02043681
#
# Stress axis : x y z
#
# Youngs Moduli (GPa) = 84.82015 118.36132 85.91689
#
# Poissons Ratio (x) = 0.33315 0.16721
# Poissons Ratio (y) = 0.23874 0.08244
# Poissons Ratio (z) = 0.16508 0.11357
#
# Static dielectric constant tensor:
#      x y z
#    x 1.790780 0.000000 -0.018980 
#    y 0.000000 0.693110 0.000000 
#    z -0.018980 0.000000 1.985520 
# 
# From -- ./inp_files/4835.got.cif
#   From: 2010.05.17/outbox.cif.g08.bks.cpg/sg15_3_cif.got.tgz:4835.got - 2010.06.03 18:47:42.
