data_PCOD9285961
_publ_section_title
;
Structure prediction by ZEFSAII (Michael W. Deem and Ramdas Pophale) SiO2 
 PCOD9285961
Probable space group: C 2/C
;
_chemical_formula_sum "Si O2"
_cell_formula_units_Z 48
_cell_length_a 31.360837
_cell_length_b 12.033070
_cell_length_c 10.495259
_cell_angle_alpha 90.000000
_cell_angle_beta 146.675838
_cell_angle_gamma 90.000000
_cell_volume 2175.836845
_symmetry_space_group_name_H-M "C 2/C"
_symmetry_group_IT_number 15
_symmetry_cell_setting 'monoclinic'
loop_
_space_group_symop_operation_xyz
x,y,z
-x,y,1/2-z
-x,-y,-z
x,-y,1/2+z
1/2+x,1/2+y,z
1/2-x,1/2+y,1/2-z
1/2-x,1/2-y,-z
1/2+x,1/2-y,1/2+z
loop_
_atom_site_type_symbol
_atom_site_label
_atom_site_fract_x
_atom_site_fract_y
_atom_site_fract_z
Si Si1 0.859669 0.606531 0.911351
Si Si2 0.827185 0.476479 0.076621
Si Si3 0.813809 0.212270 0.008494
Si Si4 0.928342 0.916172 0.314984
Si Si5 0.152085 0.951432 0.114527
Si Si6 0.956157 0.200508 0.531140
O O1 0.866899 0.548378 0.065442
O O2 0.861318 0.515894 0.803073
O O3 0.774512 0.668846 0.693050
O O4 0.924369 0.694358 0.030817
O O5 0.824033 0.344550 0.037868
O O6 0.739014 0.514783 0.864253
O O7 0.843448 0.163695 0.950625
O O8 0.875134 0.163467 0.265069
O O9 0.890519 0.925745 0.359207
O O10 0.974796 0.800657 0.400899
O O11 0.000000 0.000000 0.500000
O O12 0.874773 0.959188 0.063176
O O13 0.000000 0.129283 0.750000
#
# Coordination Sequence:
#
# PCOD9285961 Si02
#       6
#     8   8   8   8   8   8
#     4  10  23  43  65  94 127 169 220 260 319 374
#     4  10  21  42  69  88 129 170 214 262 314 376
#     4  10  22  41  67  90 134 167 211 261 320 378
#     4  12  24  35  63  93 140 158 207 255 334 386
#     4  11  23  41  60 104 124 169 205 265 317 387
#     4  11  23  39  63  93 125 172 207 258 319 385
#
# _framework density 22.060479000000001
#
# number of rings (size 3 to 8) (size 9 to 14) (size 15 to 20)
#    0.000    1.333    1.667    5.500    7.000    0.000 
#    3.000    5.833    0.000    0.000    0.000    0.000 
#    0.000    0.000    0.000    0.000    0.000    0.000 
#
# Total GULP energy -133702.318376 kJ/mol
# GULP energy per Si atom -5570.929932 kJ/mol
# Density = 2.201027 g / cm^3
# Si number density = 22.060479 Si / 1000 Ang^3
#
#
#
# Elastic Constant Matrix: (Units=GPa)
#
#
# Indices 1 2 3 4 5 6 
#
# 1 214.4003 54.5754 53.9506 0.0000 -27.8149 0.0000
# 2 54.5754 49.9922 2.6157 0.0000 -3.4772 0.0000
# 3 53.9506 2.6157 75.7107 0.0000 -8.8288 0.0000
# 4 0.0000 0.0000 0.0000 26.6452 0.0000 -3.2658
# 5 -27.8149 -3.4772 -8.8288 0.0000 24.6428 0.0000
# 6 0.0000 0.0000 0.0000 -3.2658 0.0000 40.7811
#
#
#
# Elastic Compliance Matrix: (Units=1/GPa)
#
#
# Indices 1 2 3 4 5 6 
#
# 1 0.009419 -0.009484 -0.005532 0.000000 0.007311 0.000000
# 2 -0.009484 0.029762 0.005188 0.000000 -0.004647 0.000000
# 3 -0.005532 0.005188 0.017040 0.000000 0.000593 0.000000
# 4 0.000000 0.000000 0.000000 0.037902 0.000000 0.003035
# 5 0.007311 -0.004647 0.000593 0.000000 0.048389 0.000000
# 6 0.000000 0.000000 0.000000 0.003035 0.000000 0.024764
#
#
# Mechanical properties :
#
#
# Convention : Reuss Voigt Hill
#
# Bulk Modulus (GPa) = 27.34790 62.48739 44.91765
# Shear Modulus (GPa) = 25.11045 33.67792 29.39418
#
# Velocity S-wave (km/s) = 3.37746 3.91143 3.65422
# Velocity P-wave (km/s) = 5.25675 6.98470 6.18140
#
# Compressibility (1/GPa) = 0.03656588
#
# Stress axis : x y z
#
# Youngs Moduli (GPa) = 106.17018 33.59948 58.68612
#
# Poissons Ratio (x) = 0.31867 0.32462
# Poissons Ratio (y) = 1.00696 -0.30448
# Poissons Ratio (z) = 0.58728 -0.17433
#
# Static dielectric constant tensor:
#      x y z
#    x 1.873740 0.000000 -0.042450 
#    y 0.000000 1.934030 0.000000 
#    z -0.042450 0.000000 1.895490 
# 
# From -- ./inp_files/70003.got.cif
#   From: 2010.05.17/outbox.cif.g08.bks.cpg/sg15_36_cif.got.tgz:70003.got - 2010.06.03 18:47:42.
