data_PCOD9285344
_publ_section_title
;
Structure prediction by ZEFSAII (Michael W. Deem and Ramdas Pophale) SiO2 
 PCOD9285344
Probable space group: C 2/C
;
_chemical_formula_sum "Si O2"
_cell_formula_units_Z 56
_cell_length_a 9.129185
_cell_length_b 22.955085
_cell_length_c 14.417823
_cell_angle_alpha 90.000000
_cell_angle_beta 116.731870
_cell_angle_gamma 90.000000
_cell_volume 2698.491540
_symmetry_space_group_name_H-M "C 2/C"
_symmetry_group_IT_number 15
_symmetry_cell_setting 'monoclinic'
loop_
_space_group_symop_operation_xyz
x,y,z
-x,y,1/2-z
-x,-y,-z
x,-y,1/2+z
1/2+x,1/2+y,z
1/2-x,1/2+y,1/2-z
1/2-x,1/2-y,-z
1/2+x,1/2-y,1/2+z
loop_
_atom_site_type_symbol
_atom_site_label
_atom_site_fract_x
_atom_site_fract_y
_atom_site_fract_z
Si Si1 0.259940 0.317934 0.809854
Si Si2 0.969831 0.681460 0.086676
Si Si3 0.068214 0.773203 0.965671
Si Si4 0.825692 0.096606 0.961684
Si Si5 0.417826 0.566775 0.318942
Si Si6 0.486248 0.931104 0.468902
Si Si7 0.671052 0.437748 0.251310
O O1 0.132424 0.305904 0.692990
O O2 0.288152 0.387168 0.817212
O O3 0.179306 0.305727 0.886553
O O4 0.432808 0.285349 0.847948
O O5 0.981471 0.726135 0.006059
O O6 0.970441 0.614948 0.049142
O O7 0.101703 0.838290 0.012369
O O8 0.250000 0.750000 0.000000
O O9 0.648908 0.088264 0.959053
O O10 0.816407 0.082163 0.851081
O O11 0.949307 0.058574 0.061462
O O12 0.500000 0.593675 0.250000
O O13 0.340295 0.507564 0.261180
O O14 0.326310 0.922825 0.358749
O O15 0.500000 0.000000 0.500000
O O16 0.500000 0.418011 0.250000
#
# Coordination Sequence:
#
# PCOD9285344 Si02
#       7
#     8   8   8   8   8   8   8
#     4  10  24  41  70  99 130 177 228 281 338 407
#     4  11  24  45  66 101 134 177 227 278 344 403
#     4  11  24  45  68  95 132 178 229 284 338 405
#     4  11  24  44  68  97 136 181 228 277 342 407
#     4  10  21  41  70  98 136 178 226 271 338 416
#     4  12  25  42  69 100 139 173 226 284 341 408
#     4  11  25  42  65 101 138 182 222 275 345 406
#
# _framework density 20.752334000000001
#
# number of rings (size 3 to 8) (size 9 to 14) (size 15 to 20)
#    0.000    1.143    1.429    4.714    8.000    1.143 
#    5.143    0.000    0.000    0.000    0.000    0.000 
#    0.000    0.000    0.000    0.000    0.000    0.000 
#
# Total GULP energy -156319.372293 kJ/mol
# GULP energy per Si atom -5582.834725 kJ/mol
# Density = 2.070510 g / cm^3
# Si number density = 20.752334 Si / 1000 Ang^3
#
#
#
# Elastic Constant Matrix: (Units=GPa)
#
#
# Indices 1 2 3 4 5 6 
#
# 1 41.4697 9.1821 28.8115 0.0000 10.5878 0.0000
# 2 9.1821 71.7594 12.6344 0.0000 -2.2993 0.0000
# 3 28.8115 12.6344 78.5584 0.0000 -6.6276 0.0000
# 4 0.0000 0.0000 0.0000 30.0270 0.0000 -0.9924
# 5 10.5878 -2.2993 -6.6276 0.0000 29.8878 0.0000
# 6 0.0000 0.0000 0.0000 -0.9924 0.0000 32.3454
#
#
#
# Elastic Compliance Matrix: (Units=1/GPa)
#
#
# Indices 1 2 3 4 5 6 
#
# 1 0.040401 -0.002955 -0.015866 0.000000 -0.018058 0.000000
# 2 -0.002955 0.014568 -0.001097 0.000000 0.001924 0.000000
# 3 -0.015866 -0.001097 0.019557 0.000000 0.009873 0.000000
# 4 0.000000 0.000000 0.000000 0.033337 0.000000 0.001023
# 5 -0.018058 0.001924 0.009873 0.000000 0.042193 0.000000
# 6 0.000000 0.000000 0.000000 0.001023 0.000000 0.030948
#
#
# Mechanical properties :
#
#
# Convention : Reuss Voigt Hill
#
# Bulk Modulus (GPa) = 28.82469 32.56040 30.69254
# Shear Modulus (GPa) = 21.51425 27.86266 24.68846
#
# Velocity S-wave (km/s) = 3.22330 3.66816 3.45290
# Velocity P-wave (km/s) = 5.27000 5.80212 5.54245
#
# Compressibility (1/GPa) = 0.03469249
#
# Stress axis : x y z
#
# Youngs Moduli (GPa) = 24.75157 68.64198 51.13131
#
# Poissons Ratio (x) = 0.20283 0.81123
# Poissons Ratio (y) = 0.07314 0.05609
# Poissons Ratio (z) = 0.39270 0.07530
#
# Static dielectric constant tensor:
#      x y z
#    x 1.791920 0.000000 -0.019510 
#    y 0.000000 1.783700 0.000000 
#    z -0.019510 0.000000 1.798720 
# 
# From -- ./inp_files/137972.got.cif
#   From: 2010.05.17/outbox.cif.g08.bks.cpg/sg15_69_cif.got.tgz:137972.got - 2010.06.03 18:47:42.
