data_PCOD9285378
_publ_section_title
;
Structure prediction by ZEFSAII (Michael W. Deem and Ramdas Pophale) SiO2 
 PCOD9285378
Probable space group: C 2/C
;
_chemical_formula_sum "Si O2"
_cell_formula_units_Z 52
_cell_length_a 17.158631
_cell_length_b 15.436907
_cell_length_c 9.660775
_cell_angle_alpha 90.000000
_cell_angle_beta 115.443591
_cell_angle_gamma 90.000000
_cell_volume 2310.717333
_symmetry_space_group_name_H-M "C 2/C"
_symmetry_group_IT_number 15
_symmetry_cell_setting 'monoclinic'
loop_
_space_group_symop_operation_xyz
x,y,z
-x,y,1/2-z
-x,-y,-z
x,-y,1/2+z
1/2+x,1/2+y,z
1/2-x,1/2+y,1/2-z
1/2-x,1/2-y,-z
1/2+x,1/2-y,1/2+z
loop_
_atom_site_type_symbol
_atom_site_label
_atom_site_fract_x
_atom_site_fract_y
_atom_site_fract_z
Si Si1 0.000000 0.950437 0.250000
Si Si2 0.958472 0.192850 0.945498
Si Si3 0.589099 0.851039 0.793073
Si Si4 0.269199 0.337103 0.430803
Si Si5 0.682713 0.507826 0.348271
Si Si6 0.635990 0.230097 0.622606
Si Si7 0.766561 0.905736 0.874101
O O1 0.005967 0.887590 0.120053
O O2 0.082303 0.011355 0.305872
O O3 0.932612 0.268843 0.818878
O O4 0.867805 0.168803 0.948621
O O5 0.040733 0.232454 0.092611
O O6 0.500000 0.900446 0.750000
O O7 0.664457 0.905107 0.782534
O O8 0.621834 0.814132 0.963691
O O9 0.250000 0.250000 0.500000
O O10 0.266053 0.416657 0.534730
O O11 0.191469 0.334418 0.260268
O O12 0.709649 0.420614 0.447577
O O13 0.695994 0.519498 0.196054
O O14 0.694723 0.315197 0.645923
#
# Coordination Sequence:
#
# PCOD9285378 Si02
#       7
#     4   8   8   8   8   8   8
#     4  12  24  42  66 112 142 182 228 288 366 430
#     4  11  21  41  71 105 135 175 236 290 349 423
#     4  10  21  41  72 100 126 177 242 286 338 419
#     4  12  26  43  64  99 143 189 234 288 352 424
#     4  12  28  41  67 100 148 184 227 289 361 426
#     4  11  22  40  72  98 133 185 232 289 340 421
#     4  12  24  45  65 100 136 184 228 288 352 415
#
# _framework density 22.503834000000001
#
# number of rings (size 3 to 8) (size 9 to 14) (size 15 to 20)
#    0.000    0.615    6.923    1.385    6.462    1.846 
#    0.000    0.769    3.385    0.000    0.000    0.000 
#    0.000    0.000    0.000    0.000    0.000    0.000 
#
# Total GULP energy -145336.919859 kJ/mol
# GULP energy per Si atom -5589.881533 kJ/mol
# Density = 2.245261 g / cm^3
# Si number density = 22.503834 Si / 1000 Ang^3
#
#
#
# Elastic Constant Matrix: (Units=GPa)
#
#
# Indices 1 2 3 4 5 6 
#
# 1 134.7997 10.3074 50.4669 0.0000 21.5665 0.0000
# 2 10.3074 30.4784 10.0121 0.0000 5.8307 0.0000
# 3 50.4669 10.0121 59.1641 0.0000 16.2524 0.0000
# 4 0.0000 0.0000 0.0000 26.7923 0.0000 3.1451
# 5 21.5665 5.8307 16.2524 0.0000 36.8754 0.0000
# 6 0.0000 0.0000 0.0000 3.1451 0.0000 39.0387
#
#
#
# Elastic Compliance Matrix: (Units=1/GPa)
#
#
# Indices 1 2 3 4 5 6 
#
# 1 0.011126 -0.000404 -0.008706 0.000000 -0.002606 0.000000
# 2 -0.000404 0.035113 -0.004707 0.000000 -0.003241 0.000000
# 3 -0.008706 -0.004707 0.026762 0.000000 -0.005959 0.000000
# 4 0.000000 0.000000 0.000000 0.037681 0.000000 -0.003036
# 5 -0.002606 -0.003241 -0.005959 0.000000 0.031781 0.000000
# 6 0.000000 0.000000 0.000000 -0.003036 0.000000 0.025860
#
#
# Mechanical properties :
#
#
# Convention : Reuss Voigt Hill
#
# Bulk Modulus (GPa) = 22.04275 40.66833 31.35554
# Shear Modulus (GPa) = 23.68788 30.78499 27.23643
#
# Velocity S-wave (km/s) = 3.24792 3.70265 3.48271
# Velocity P-wave (km/s) = 4.88689 6.03245 5.48963
#
# Compressibility (1/GPa) = 0.04536638
#
# Stress axis : x y z
#
# Youngs Moduli (GPa) = 89.88297 28.47946 37.36680
#
# Poissons Ratio (x) = 0.01151 0.32531
# Poissons Ratio (y) = 0.03632 0.17588
# Poissons Ratio (z) = 0.78251 0.13405
#
# Static dielectric constant tensor:
#      x y z
#    x 1.887020 0.000000 0.004190 
#    y 0.000000 1.833370 0.000000 
#    z 0.004190 0.000000 1.882560 
# 
# From -- ./inp_files/49218.got.cif
#   From: 2010.05.17/outbox.cif.g08.bks.cpg/sg15_25_cif.got.tgz:49218.got - 2010.06.03 18:47:42.
