data_PCOD9285395
_publ_section_title
;
Structure prediction by ZEFSAII (Michael W. Deem and Ramdas Pophale) SiO2 
 PCOD9285395
Probable space group: C 2/C
;
_chemical_formula_sum "Si O2"
_cell_formula_units_Z 52
_cell_length_a 10.606193
_cell_length_b 26.797672
_cell_length_c 8.101025
_cell_angle_alpha 90.000000
_cell_angle_beta 62.080567
_cell_angle_gamma 90.000000
_cell_volume 2034.490423
_symmetry_space_group_name_H-M "C 2/C"
_symmetry_group_IT_number 15
_symmetry_cell_setting 'monoclinic'
loop_
_space_group_symop_operation_xyz
x,y,z
-x,y,1/2-z
-x,-y,-z
x,-y,1/2+z
1/2+x,1/2+y,z
1/2-x,1/2+y,1/2-z
1/2-x,1/2-y,-z
1/2+x,1/2-y,1/2+z
loop_
_atom_site_type_symbol
_atom_site_label
_atom_site_fract_x
_atom_site_fract_y
_atom_site_fract_z
Si Si1 0.703524 0.348377 0.551269
Si Si2 0.005612 0.770520 0.482692
Si Si3 0.000000 0.063762 0.250000
Si Si4 0.399363 0.035541 0.955741
Si Si5 0.716424 0.544581 0.368786
Si Si6 0.211042 0.151346 0.441641
Si Si7 0.000000 0.308933 0.750000
Si Si8 0.500000 0.191796 0.750000
O O1 0.614177 0.306367 0.510119
O O2 0.612128 0.399594 0.584749
O O3 0.696950 0.342600 0.751894
O O4 0.866908 0.341205 0.394901
O O5 0.896126 0.804738 0.445822
O O6 0.078559 0.729065 0.323691
O O7 0.937548 0.731430 0.654846
O O8 0.083525 0.032099 0.333703
O O9 0.500000 0.058051 0.750000
O O10 0.285624 0.999846 0.930032
O O11 0.328000 0.063721 0.155553
O O12 0.500000 0.000000 0.000000
O O13 0.676776 0.593585 0.498392
O O14 0.372490 0.159269 0.402864
#
# Coordination Sequence:
#
# PCOD9285395 Si02
#       8
#     8   8   4   8   8   8   4   4
#     4  11  20  40  64  91 123 182 235 274 334 390
#     4  12  21  41  63  89 132 184 234 275 337 387
#     4  10  21  42  68  95 138 180 219 278 346 416
#     4   9  20  40  70 106 132 169 211 277 344 422
#     4  10  21  41  72  96 135 176 218 273 350 415
#     4  11  22  40  62  95 135 184 217 279 340 399
#     4  12  26  34  60  97 135 179 229 280 328 386
#     4  12  21  34  68  90 123 179 246 288 316 390
#
# _framework density 25.559225999999999
#
# number of rings (size 3 to 8) (size 9 to 14) (size 15 to 20)
#    0.000    1.231    6.154    1.846    3.231    0.615 
#    5.538    0.000   13.538    0.000    0.000    0.000 
#    0.000    0.000    0.000    0.000    0.000    0.000 
#
# Total GULP energy -145009.340769 kJ/mol
# GULP energy per Si atom -5577.282337 kJ/mol
# Density = 2.550105 g / cm^3
# Si number density = 25.559226 Si / 1000 Ang^3
#
#
#
# Elastic Constant Matrix: (Units=GPa)
#
#
# Indices 1 2 3 4 5 6 
#
# 1 137.0320 38.5418 -7.2418 0.0000 -8.4324 0.0000
# 2 38.5418 83.2870 12.7344 0.0000 0.3033 0.0000
# 3 -7.2418 12.7344 62.4467 0.0000 -18.7455 0.0000
# 4 0.0000 0.0000 0.0000 30.1435 0.0000 -10.2321
# 5 -8.4324 0.3033 -18.7455 0.0000 39.0501 0.0000
# 6 0.0000 0.0000 0.0000 -10.2321 0.0000 42.5046
#
#
#
# Elastic Compliance Matrix: (Units=1/GPa)
#
#
# Indices 1 2 3 4 5 6 
#
# 1 0.008967 -0.004622 0.003008 0.000000 0.003416 0.000000
# 2 -0.004622 0.014854 -0.004556 0.000000 -0.003300 0.000000
# 3 0.003008 -0.004556 0.020443 0.000000 0.010498 0.000000
# 4 0.000000 0.000000 0.000000 0.036127 0.000000 0.008697
# 5 0.003416 -0.003300 0.010498 0.000000 0.031411 0.000000
# 6 0.000000 0.000000 0.000000 0.008697 0.000000 0.025620
#
#
# Mechanical properties :
#
#
# Convention : Reuss Voigt Hill
#
# Bulk Modulus (GPa) = 31.32434 41.20383 36.26409
# Shear Modulus (GPa) = 31.17161 38.25507 34.71334
#
# Velocity S-wave (km/s) = 3.49604 3.87295 3.68931
# Velocity P-wave (km/s) = 5.34590 6.01295 5.68921
#
# Compressibility (1/GPa) = 0.03192406
#
# Stress axis : x y z
#
# Youngs Moduli (GPa) = 111.52468 67.32200 48.91675
#
# Poissons Ratio (x) = 0.31114 -0.14713
# Poissons Ratio (y) = 0.51543 0.22285
# Poissons Ratio (z) = -0.33544 0.30670
#
# Static dielectric constant tensor:
#      x y z
#    x 2.048610 0.000000 -0.044680 
#    y 0.000000 1.992890 0.000000 
#    z -0.044680 0.000000 2.127350 
# 
# From -- ./inp_files/34146.got.cif
#   From: 2010.05.17/outbox.cif.g08.bks.cpg/sg15_18_cif.got.tgz:34146.got - 2010.06.03 18:47:42.
