data_PCOD9285787
_publ_section_title
;
Structure prediction by ZEFSAII (Michael W. Deem and Ramdas Pophale) SiO2 
 PCOD9285787
Probable space group: C 2/C
;
_chemical_formula_sum "Si O2"
_cell_formula_units_Z 56
_cell_length_a 19.367550
_cell_length_b 18.588668
_cell_length_c 13.672107
_cell_angle_alpha 90.000000
_cell_angle_beta 146.998480
_cell_angle_gamma 90.000000
_cell_volume 2680.926519
_symmetry_space_group_name_H-M "C 2/C"
_symmetry_group_IT_number 15
_symmetry_cell_setting 'monoclinic'
loop_
_space_group_symop_operation_xyz
x,y,z
-x,y,1/2-z
-x,-y,-z
x,-y,1/2+z
1/2+x,1/2+y,z
1/2-x,1/2+y,1/2-z
1/2-x,1/2-y,-z
1/2+x,1/2-y,1/2+z
loop_
_atom_site_type_symbol
_atom_site_label
_atom_site_fract_x
_atom_site_fract_y
_atom_site_fract_z
Si Si1 0.400008 0.108060 0.775871
Si Si2 0.500000 0.996856 0.250000
Si Si3 0.094322 0.877401 0.135900
Si Si4 0.171530 0.478629 0.128756
Si Si5 0.200944 0.773569 0.103756
Si Si6 0.500000 0.210234 0.750000
Si Si7 0.304252 0.628072 0.322637
Si Si8 0.143856 0.808546 0.402149
O O1 0.406922 0.056969 0.876517
O O2 0.293324 0.163320 0.680415
O O3 0.501489 0.162465 0.849765
O O4 0.394760 0.052512 0.679835
O O5 0.583133 0.035416 0.429902
O O6 0.193551 0.938156 0.220676
O O7 0.119190 0.808278 0.095338
O O8 0.128092 0.858111 0.287976
O O9 0.945497 0.895386 0.956642
O O10 0.206847 0.562486 0.187664
O O11 0.268877 0.701789 0.224002
O O12 0.121071 0.757803 0.911550
O O13 0.314091 0.649439 0.449528
O O14 0.250000 0.750000 0.500000
O O15 0.000000 0.778579 0.250000
#
# Coordination Sequence:
#
# PCOD9285787 Si02
#       8
#     8   4   8   8   8   4   8   8
#     4  10  23  42  61  92 127 165 213 263 319 394
#     4  11  24  44  64  92 132 169 216 271 328 394
#     4  10  23  43  63  96 128 168 220 270 327 394
#     4  11  25  43  65  94 130 172 218 264 331 389
#     4  11  22  40  67  94 128 164 215 268 330 385
#     4  11  22  40  66  96 130 165 214 267 326 382
#     4  11  22  40  69  89 132 173 216 273 325 391
#     4  10  21  42  66  99 132 174 225 275 336 397
#
# _framework density 20.888300999999998
#
# number of rings (size 3 to 8) (size 9 to 14) (size 15 to 20)
#    0.000    1.429    1.429    3.857    2.000    1.143 
#    1.286    0.000    1.571    0.000    0.000    0.000 
#    0.000    0.000    0.000    0.000    0.000    0.000 
#
# Total GULP energy -156037.863806 kJ/mol
# GULP energy per Si atom -5572.780850 kJ/mol
# Density = 2.084076 g / cm^3
# Si number density = 20.888301 Si / 1000 Ang^3
#
#
#
# Elastic Constant Matrix: (Units=GPa)
#
#
# Indices 1 2 3 4 5 6 
#
# 1 112.0632 39.5748 41.8051 0.0000 -0.2497 0.0000
# 2 39.5748 99.1241 53.7178 0.0000 4.2538 0.0000
# 3 41.8051 53.7178 106.9569 0.0000 -4.5065 0.0000
# 4 0.0000 0.0000 0.0000 -16.6464 0.0000 20.7136
# 5 -0.2497 4.2538 -4.5065 0.0000 31.8218 0.0000
# 6 0.0000 0.0000 0.0000 20.7136 0.0000 23.4290
#
#
#
# Elastic Compliance Matrix: (Units=1/GPa)
#
#
# Indices 1 2 3 4 5 6 
#
# 1 0.010996 -0.002837 -0.002871 0.000000 0.000059 0.000000
# 2 -0.002837 0.014856 -0.006475 0.000000 -0.002925 0.000000
# 3 -0.002871 -0.006475 0.013842 0.000000 0.002803 0.000000
# 4 0.000000 0.000000 0.000000 -0.028605 0.000000 0.025289
# 5 0.000059 -0.002925 0.002803 0.000000 0.032213 0.000000
# 6 0.000000 0.000000 0.000000 0.025289 0.000000 0.020324
#
#
# Mechanical properties :
#
#
# Convention : Reuss Voigt Hill
#
# Bulk Modulus (GPa) = 65.24151 65.37106 65.30628
# Shear Modulus (GPa) = 53.70419 19.92398 36.81409
#
# Velocity S-wave (km/s) = 5.07602 3.09177 4.20268
# Velocity P-wave (km/s) = 8.10284 6.64145 7.40827
#
# Compressibility (1/GPa) = 0.01532767
#
# Stress axis : x y z
#
# Youngs Moduli (GPa) = 90.93807 67.31367 72.24419
#
# Poissons Ratio (x) = 0.19098 0.20739
# Poissons Ratio (y) = 0.25800 0.46782
# Poissons Ratio (z) = 0.26105 0.43589
#
# Static dielectric constant tensor:
#      x y z
#    x 1.765770 0.000000 0.025980 
#    y 0.000000 1.771410 0.000000 
#    z 0.025980 0.000000 1.744500 
# 
# From -- ./inp_files/169189.got.cif
#   From: 2010.05.17/outbox.cif.g08.bks.cpg/sg15_85_cif.got.tgz:169189.got - 2010.06.03 18:47:42.
