data_PCOD9285729
_publ_section_title
;
Structure prediction by ZEFSAII (Michael W. Deem and Ramdas Pophale) SiO2 
 PCOD9285729
Probable space group: C 2/C
;
_chemical_formula_sum "Si O2"
_cell_formula_units_Z 48
_cell_length_a 6.226442
_cell_length_b 30.796217
_cell_length_c 14.734457
_cell_angle_alpha 90.000000
_cell_angle_beta 60.831739
_cell_angle_gamma 90.000000
_cell_volume 2467.069010
_symmetry_space_group_name_H-M "C 2/C"
_symmetry_group_IT_number 15
_symmetry_cell_setting 'monoclinic'
loop_
_space_group_symop_operation_xyz
x,y,z
-x,y,1/2-z
-x,-y,-z
x,-y,1/2+z
1/2+x,1/2+y,z
1/2-x,1/2+y,1/2-z
1/2-x,1/2-y,-z
1/2+x,1/2-y,1/2+z
loop_
_atom_site_type_symbol
_atom_site_label
_atom_site_fract_x
_atom_site_fract_y
_atom_site_fract_z
Si Si1 0.323890 0.394543 0.094579
Si Si2 0.436007 0.184591 0.944519
Si Si3 0.130970 0.376826 0.548216
Si Si4 0.500000 0.425120 0.250000
Si Si5 0.484079 0.044889 0.556885
Si Si6 0.500000 0.834879 0.750000
Si Si7 0.531363 0.277168 0.850958
O O1 0.153261 0.353456 0.104849
O O2 0.389254 0.398303 0.187692
O O3 0.192435 0.438383 0.084633
O O4 0.584955 0.387525 0.990338
O O5 0.548580 0.226769 0.874438
O O6 0.617911 0.162794 0.979561
O O7 0.198324 0.201723 0.049118
O O8 0.970446 0.364699 0.668109
O O9 0.020450 0.417538 0.518052
O O10 0.724337 0.452347 0.162600
O O11 0.500000 0.000000 0.500000
O O12 0.273585 0.804313 0.822609
O O13 0.500000 0.280288 0.750000
#
# Coordination Sequence:
#
# PCOD9285729 Si02
#       7
#     8   8   8   4   8   4   8
#     4  10  21  42  66  91 129 166 213 267 315 390
#     4  10  22  40  60  88 123 171 214 266 323 372
#     4  10  22  39  65  89 126 166 212 263 329 386
#     4  10  22  40  69  96 126 174 204 264 321 380
#     4  10  23  45  65  99 130 166 208 264 317 390
#     4  12  22  40  59  94 124 168 212 266 323 390
#     4  11  23  37  60  86 126 166 218 270 315 383
#
# _framework density 19.456285000000001
#
# number of rings (size 3 to 8) (size 9 to 14) (size 15 to 20)
#    0.000    1.667    3.333    0.500    0.000    8.667 
#    6.000    3.333    0.000    0.000    0.000    0.000 
#    0.000    0.000    0.000    0.000    0.000    0.000 
#
# Total GULP energy -133973.396448 kJ/mol
# GULP energy per Si atom -5582.224852 kJ/mol
# Density = 1.941200 g / cm^3
# Si number density = 19.456285 Si / 1000 Ang^3
#
#
#
# Elastic Constant Matrix: (Units=GPa)
#
#
# Indices 1 2 3 4 5 6 
#
# 1 82.5015 31.4813 30.3993 0.0000 3.1170 0.0000
# 2 31.4813 102.3550 43.8069 0.0000 8.5420 0.0000
# 3 30.3993 43.8069 90.0350 0.0000 5.8363 0.0000
# 4 0.0000 0.0000 0.0000 29.0519 0.0000 0.7750
# 5 3.1170 8.5420 5.8363 0.0000 33.2042 0.0000
# 6 0.0000 0.0000 0.0000 0.7750 0.0000 17.8131
#
#
#
# Elastic Compliance Matrix: (Units=1/GPa)
#
#
# Indices 1 2 3 4 5 6 
#
# 1 0.014535 -0.002994 -0.003451 0.000000 0.000013 0.000000
# 2 -0.002994 0.013109 -0.005226 0.000000 -0.002173 0.000000
# 3 -0.003451 -0.005226 0.014876 0.000000 -0.000946 0.000000
# 4 0.000000 0.000000 0.000000 0.034461 0.000000 -0.001499
# 5 0.000013 -0.002173 -0.000946 0.000000 0.030841 0.000000
# 6 0.000000 0.000000 0.000000 -0.001499 0.000000 0.056204
#
#
# Mechanical properties :
#
#
# Convention : Reuss Voigt Hill
#
# Bulk Modulus (GPa) = 52.14874 54.02963 53.08919
# Shear Modulus (GPa) = 25.80479 27.29409 26.54944
#
# Velocity S-wave (km/s) = 3.64579 3.74952 3.69801
# Velocity P-wave (km/s) = 6.67709 6.82460 6.75125
#
# Compressibility (1/GPa) = 0.01917592
#
# Stress axis : x y z
#
# Youngs Moduli (GPa) = 68.80008 76.28306 67.22049
#
# Poissons Ratio (x) = 0.22842 0.23201
# Poissons Ratio (y) = 0.20601 0.35132
# Poissons Ratio (z) = 0.23746 0.39869
#
# Static dielectric constant tensor:
#      x y z
#    x 1.726220 0.000000 0.012540 
#    y 0.000000 1.663770 0.000000 
#    z 0.012540 0.000000 1.693900 
# 
# From -- ./inp_files/130612.got.cif
#   From: 2010.05.17/outbox.cif.g08.bks.cpg/sg15_66_cif.got.tgz:130612.got - 2010.06.03 18:47:42.
