data_PCOD9285749
_publ_section_title
;
Structure prediction by ZEFSAII (Michael W. Deem and Ramdas Pophale) SiO2 
 PCOD9285749
Probable space group: C 2/C
;
_chemical_formula_sum "Si O2"
_cell_formula_units_Z 44
_cell_length_a 20.783875
_cell_length_b 8.315627
_cell_length_c 11.107402
_cell_angle_alpha 90.000000
_cell_angle_beta 123.753478
_cell_angle_gamma 90.000000
_cell_volume 1596.109851
_symmetry_space_group_name_H-M "C 2/C"
_symmetry_group_IT_number 15
_symmetry_cell_setting 'monoclinic'
loop_
_space_group_symop_operation_xyz
x,y,z
-x,y,1/2-z
-x,-y,-z
x,-y,1/2+z
1/2+x,1/2+y,z
1/2-x,1/2+y,1/2-z
1/2-x,1/2-y,-z
1/2+x,1/2-y,1/2+z
loop_
_atom_site_type_symbol
_atom_site_label
_atom_site_fract_x
_atom_site_fract_y
_atom_site_fract_z
Si Si1 0.158054 0.712882 0.264254
Si Si2 0.500000 0.520172 0.250000
Si Si3 0.584027 0.065527 0.405949
Si Si4 0.139720 0.222185 0.377039
Si Si5 0.751873 0.604592 0.687678
Si Si6 0.984264 0.182274 0.530380
O O1 0.145405 0.665061 0.389257
O O2 0.200196 0.557163 0.254193
O O3 0.212709 0.854563 0.273860
O O4 0.072093 0.750704 0.125847
O O5 0.560641 0.639924 0.250340
O O6 0.546789 0.392329 0.375783
O O7 0.500000 0.060667 0.250000
O O8 0.566413 0.152119 0.516158
O O9 0.615514 0.883439 0.424057
O O10 0.192165 0.263883 0.317490
O O11 0.183931 0.107707 0.516467
O O12 0.000000 0.000000 0.500000
#
# Coordination Sequence:
#
# PCOD9285749 Si02
#       6
#     8   4   8   8   8   8
#     4  10  21  42  66  93 138 183 226 282 347 415
#     4  12  22  40  70 100 142 172 234 302 330 408
#     4   9  18  42  66  95 138 176 223 288 347 399
#     4  10  22  42  68 101 136 182 231 287 347 413
#     4  10  23  42  67  97 139 185 231 275 358 424
#     4  11  23  42  70 104 136 180 232 287 353 406
#
# _framework density 27.567027
#
# number of rings (size 3 to 8) (size 9 to 14) (size 15 to 20)
#    0.000    1.818    3.636    1.091    2.545    0.000 
#    6.545    3.636    0.000    0.000    0.000    0.000 
#    0.000    0.000    0.000    0.000    0.000    0.000 
#
# Total GULP energy -122624.332606 kJ/mol
# GULP energy per Si atom -5573.833300 kJ/mol
# Density = 2.750428 g / cm^3
# Si number density = 27.567027 Si / 1000 Ang^3
#
#
#
# Elastic Constant Matrix: (Units=GPa)
#
#
# Indices 1 2 3 4 5 6 
#
# 1 173.5332 78.0158 14.3350 0.0000 10.8141 0.0000
# 2 78.0158 162.4736 25.2267 0.0000 7.3453 0.0000
# 3 14.3350 25.2267 52.2916 0.0000 20.5490 0.0000
# 4 0.0000 0.0000 0.0000 71.2616 0.0000 -10.8892
# 5 10.8141 7.3453 20.5490 0.0000 23.7666 0.0000
# 6 0.0000 0.0000 0.0000 -10.8892 0.0000 91.4818
#
#
#
# Elastic Compliance Matrix: (Units=1/GPa)
#
#
# Indices 1 2 3 4 5 6 
#
# 1 0.007499 -0.003600 0.000885 0.000000 -0.003065 0.000000
# 2 -0.003600 0.008400 -0.004073 0.000000 0.002563 0.000000
# 3 0.000885 -0.004073 0.031064 0.000000 -0.026002 0.000000
# 4 0.000000 0.000000 0.000000 0.014293 0.000000 0.001701
# 5 -0.003065 0.002563 -0.026002 0.000000 0.065160 0.000000
# 6 0.000000 0.000000 0.000000 0.001701 0.000000 0.011134
#
#
# Mechanical properties :
#
#
# Convention : Reuss Voigt Hill
#
# Bulk Modulus (GPa) = 29.95061 69.27258 49.61160
# Shear Modulus (GPa) = 30.81616 55.35007 43.08311
#
# Velocity S-wave (km/s) = 3.34707 4.48575 3.95758
# Velocity P-wave (km/s) = 5.08187 7.21198 6.23851
#
# Compressibility (1/GPa) = 0.03338830
#
# Stress axis : x y z
#
# Youngs Moduli (GPa) = 133.35575 119.05100 32.19181
#
# Poissons Ratio (x) = 0.42854 -0.02850
# Poissons Ratio (y) = 0.48003 0.13111
# Poissons Ratio (z) = -0.11806 0.48486
#
# Static dielectric constant tensor:
#      x y z
#    x 2.161040 0.000000 -0.275730 
#    y 0.000000 2.344250 0.000000 
#    z -0.275730 0.000000 3.026720 
# 
# From -- ./inp_files/110188.got.cif
#   From: 2010.05.17/outbox.cif.g08.bks.cpg/sg15_56_cif.got.tgz:110188.got - 2010.06.03 18:47:42.
