data_PCOD9285533
_publ_section_title
;
Structure prediction by ZEFSAII (Michael W. Deem and Ramdas Pophale) SiO2 
 PCOD9285533
Probable space group: C 2/C
;
_chemical_formula_sum "Si O2"
_cell_formula_units_Z 48
_cell_length_a 22.043070
_cell_length_b 8.303202
_cell_length_c 11.051435
_cell_angle_alpha 90.000000
_cell_angle_beta 80.818621
_cell_angle_gamma 90.000000
_cell_volume 1996.807969
_symmetry_space_group_name_H-M "C 2/C"
_symmetry_group_IT_number 15
_symmetry_cell_setting 'monoclinic'
loop_
_space_group_symop_operation_xyz
x,y,z
-x,y,1/2-z
-x,-y,-z
x,-y,1/2+z
1/2+x,1/2+y,z
1/2-x,1/2+y,1/2-z
1/2-x,1/2-y,-z
1/2+x,1/2-y,1/2+z
loop_
_atom_site_type_symbol
_atom_site_label
_atom_site_fract_x
_atom_site_fract_y
_atom_site_fract_z
Si Si1 0.385320 0.328901 0.579501
Si Si2 0.808131 0.307977 0.900596
Si Si3 0.010380 0.608688 0.876375
Si Si4 0.300041 0.122323 0.024716
Si Si5 0.096559 0.852841 0.543450
Si Si6 0.194487 0.994468 0.710324
O O1 0.366736 0.241827 0.462371
O O2 0.423553 0.196549 0.639319
O O3 0.419437 0.496166 0.536815
O O4 0.324500 0.396930 0.665582
O O5 0.810758 0.187772 0.786616
O O6 0.750000 0.250000 0.000000
O O7 0.807969 0.499407 0.909623
O O8 0.000000 0.522808 0.750000
O O9 0.962587 0.758281 0.892842
O O10 0.000000 0.500000 0.000000
O O11 0.362766 0.212748 0.031157
O O12 0.263993 0.036062 0.144891
O O13 0.250000 0.250000 0.000000
O O14 0.143535 0.927575 0.629538
#
# Coordination Sequence:
#
# PCOD9285533 Si02
#       6
#     8   8   8   8   8   8
#     4  11  22  41  69  98 135 184 241 293 358 426
#     4   9  19  37  61  93 138 175 226 285 346 422
#     4  12  26  49  73 102 144 186 242 302 364 434
#     4   9  18  35  61  92 137 178 224 288 346 423
#     4  10  21  42  63  94 135 180 232 292 350 417
#     4   9  19  37  63  94 133 183 224 290 345 419
#
# _framework density 24.038364999999999
#
# number of rings (size 3 to 8) (size 9 to 14) (size 15 to 20)
#    0.000    2.000    1.667    2.500    0.000    2.667 
#    9.000    1.667    0.000    0.000    0.000    0.000 
#    0.000    0.000    0.000    0.000    0.000    0.000 
#
# Total GULP energy -133937.425050 kJ/mol
# GULP energy per Si atom -5580.726044 kJ/mol
# Density = 2.398365 g / cm^3
# Si number density = 24.038365 Si / 1000 Ang^3
#
#
#
# Elastic Constant Matrix: (Units=GPa)
#
#
# Indices 1 2 3 4 5 6 
#
# 1 52.3374 18.4347 5.7160 0.0000 -0.1515 0.0000
# 2 18.4347 144.3839 36.1014 0.0000 9.0062 0.0000
# 3 5.7160 36.1014 83.4803 0.0000 10.1016 0.0000
# 4 0.0000 0.0000 0.0000 40.4786 0.0000 -5.3974
# 5 -0.1515 9.0062 10.1016 0.0000 30.4911 0.0000
# 6 0.0000 0.0000 0.0000 -5.3974 0.0000 28.2640
#
#
#
# Elastic Compliance Matrix: (Units=1/GPa)
#
#
# Indices 1 2 3 4 5 6 
#
# 1 0.020041 -0.002519 -0.000401 0.000000 0.000977 0.000000
# 2 -0.002519 0.008127 -0.003177 0.000000 -0.001360 0.000000
# 3 -0.000401 -0.003177 0.013821 0.000000 -0.003642 0.000000
# 4 0.000000 0.000000 0.000000 0.025350 0.000000 0.004841
# 5 0.000977 -0.001360 -0.003642 0.000000 0.034410 0.000000
# 6 0.000000 0.000000 0.000000 0.004841 0.000000 0.036305
#
#
# Mechanical properties :
#
#
# Convention : Reuss Voigt Hill
#
# Bulk Modulus (GPa) = 33.56434 44.52285 39.04360
# Shear Modulus (GPa) = 31.21479 34.51004 32.86242
#
# Velocity S-wave (km/s) = 3.60744 3.79307 3.70142
# Velocity P-wave (km/s) = 5.59862 6.14370 5.87748
#
# Compressibility (1/GPa) = 0.02979353
#
# Stress axis : x y z
#
# Youngs Moduli (GPa) = 49.89811 123.04678 72.35282
#
# Poissons Ratio (x) = 0.31001 0.02900
# Poissons Ratio (y) = 0.12572 0.22990
# Poissons Ratio (z) = 0.02000 0.39097
#
# Static dielectric constant tensor:
#      x y z
#    x 1.919960 0.000000 0.035270 
#    y 0.000000 1.941420 0.000000 
#    z 0.035270 0.000000 2.036670 
# 
# From -- ./inp_files/116724.got.cif
#   From: 2010.05.17/outbox.cif.g08.bks.cpg/sg15_59_cif.got.tgz:116724.got - 2010.06.03 18:47:42.
