data_PCOD9285746
_publ_section_title
;
Structure prediction by ZEFSAII (Michael W. Deem and Ramdas Pophale) SiO2 
 PCOD9285746
Probable space group: C 2/C
;
_chemical_formula_sum "Si O2"
_cell_formula_units_Z 36
_cell_length_a 6.410162
_cell_length_b 13.232245
_cell_length_c 21.469854
_cell_angle_alpha 90.000000
_cell_angle_beta 95.855769
_cell_angle_gamma 90.000000
_cell_volume 1811.588242
_symmetry_space_group_name_H-M "C 2/C"
_symmetry_group_IT_number 15
_symmetry_cell_setting 'monoclinic'
loop_
_space_group_symop_operation_xyz
x,y,z
-x,y,1/2-z
-x,-y,-z
x,-y,1/2+z
1/2+x,1/2+y,z
1/2-x,1/2+y,1/2-z
1/2-x,1/2-y,-z
1/2+x,1/2-y,1/2+z
loop_
_atom_site_type_symbol
_atom_site_label
_atom_site_fract_x
_atom_site_fract_y
_atom_site_fract_z
Si Si1 0.000000 0.049786 0.750000
Si Si2 0.455927 0.070563 0.582513
Si Si3 0.324802 0.444014 0.535320
Si Si4 0.160213 0.089076 0.142090
Si Si5 0.357870 0.797338 0.305440
O O1 0.915332 0.980184 0.803106
O O2 0.815048 0.121221 0.719530
O O3 0.322871 0.111406 0.519528
O O4 0.500496 0.151162 0.637067
O O5 0.673512 0.025803 0.563327
O O6 0.328188 0.976416 0.608580
O O7 0.500000 0.500000 0.500000
O O8 0.457935 0.388318 0.592294
O O9 0.242225 0.195026 0.170661
O O10 0.500000 0.772252 0.250000
#
# Coordination Sequence:
#
# PCOD9285746 Si02
#       5
#     4   8   8   8   8
#     4  12  24  40  60  92 132 160 210 264 298 370
#     4  10  21  42  66  93 128 162 208 262 309 370
#     4   9  20  41  68  91 125 165 205 265 314 358
#     4  11  23  41  65  93 128 164 207 257 310 372
#     4  12  25  39  65  95 123 171 209 249 319 373
#
# _framework density 19.872064999999999
#
# number of rings (size 3 to 8) (size 9 to 14) (size 15 to 20)
#    0.000    1.333    5.556    0.000    0.000    4.444 
#    0.000   10.000    0.000    0.000    0.000    0.000 
#    0.000    0.000    0.000    0.000    0.000    0.000 
#
# Total GULP energy -100500.004440 kJ/mol
# GULP energy per Si atom -5583.333580 kJ/mol
# Density = 1.982684 g / cm^3
# Si number density = 19.872065 Si / 1000 Ang^3
#
#
#
# Elastic Constant Matrix: (Units=GPa)
#
#
# Indices 1 2 3 4 5 6 
#
# 1 77.1895 16.4610 28.1464 0.0000 -13.4268 0.0000
# 2 16.4610 87.6749 47.8461 0.0000 7.2934 0.0000
# 3 28.1464 47.8461 118.2881 0.0000 2.5414 0.0000
# 4 0.0000 0.0000 0.0000 5.9873 0.0000 -3.7676
# 5 -13.4268 7.2934 2.5414 0.0000 37.2951 0.0000
# 6 0.0000 0.0000 0.0000 -3.7676 0.0000 18.1046
#
#
#
# Elastic Compliance Matrix: (Units=1/GPa)
#
#
# Indices 1 2 3 4 5 6 
#
# 1 0.015532 -0.001717 -0.003133 0.000000 0.006141 0.000000
# 2 -0.001717 0.015056 -0.005613 0.000000 -0.003180 0.000000
# 3 -0.003133 -0.005613 0.011487 0.000000 -0.000813 0.000000
# 4 0.000000 0.000000 0.000000 0.192187 0.000000 0.039994
# 5 0.006141 -0.003180 -0.000813 0.000000 0.029701 0.000000
# 6 0.000000 0.000000 0.000000 0.039994 0.000000 0.063558
#
#
# Mechanical properties :
#
#
# Convention : Reuss Voigt Hill
#
# Bulk Modulus (GPa) = 47.28459 52.00661 49.64560
# Shear Modulus (GPa) = 14.06480 24.99067 19.52774
#
# Velocity S-wave (km/s) = 2.66328 3.55008 3.13816
# Velocity P-wave (km/s) = 5.77092 6.55985 6.17799
#
# Compressibility (1/GPa) = 0.02114854
#
# Stress axis : x y z
#
# Youngs Moduli (GPa) = 64.38308 66.41945 87.05253
#
# Poissons Ratio (x) = 0.11405 0.27275
# Poissons Ratio (y) = 0.11056 0.48862
# Poissons Ratio (z) = 0.20172 0.37281
#
# Static dielectric constant tensor:
#      x y z
#    x 1.683700 0.000000 0.032360 
#    y 0.000000 1.646720 0.000000 
#    z 0.032360 0.000000 1.730780 
# 
# From -- ./inp_files/226434.got.cif
#   From: 2010.05.17/outbox.cif.g08.bks.cpg/sg15_114_cif.got.tgz:226434.got - 2010.06.03 18:47:42.
