data_PCOD9285811
_publ_section_title
;
Structure prediction by ZEFSAII (Michael W. Deem and Ramdas Pophale) SiO2 
 PCOD9285811
Probable space group: C 2/C
;
_chemical_formula_sum "Si O2"
_cell_formula_units_Z 40
_cell_length_a 22.272861
_cell_length_b 16.798969
_cell_length_c 15.351401
_cell_angle_alpha 90.000000
_cell_angle_beta 17.904220
_cell_angle_gamma 90.000000
_cell_volume 1765.827360
_symmetry_space_group_name_H-M "C 2/C"
_symmetry_group_IT_number 15
_symmetry_cell_setting 'monoclinic'
loop_
_space_group_symop_operation_xyz
x,y,z
-x,y,1/2-z
-x,-y,-z
x,-y,1/2+z
1/2+x,1/2+y,z
1/2-x,1/2+y,1/2-z
1/2-x,1/2-y,-z
1/2+x,1/2-y,1/2+z
loop_
_atom_site_type_symbol
_atom_site_label
_atom_site_fract_x
_atom_site_fract_y
_atom_site_fract_z
Si Si1 0.909585 0.190620 0.243273
Si Si2 0.065945 0.962064 0.500579
Si Si3 0.224670 0.787561 0.761121
Si Si4 0.549509 0.859066 0.583019
Si Si5 0.165642 0.569364 0.272383
O O1 0.750000 0.250000 0.500000
O O2 0.901770 0.191390 0.148449
O O3 0.906613 0.096582 0.264065
O O4 0.110115 0.227151 0.000290
O O5 0.135470 0.026351 0.474622
O O6 0.258658 0.909441 0.210520
O O7 0.000000 0.000000 0.500000
O O8 0.338799 0.860882 0.647845
O O9 0.097764 0.734118 0.001732
O O10 0.500000 0.876467 0.750000
O O11 0.372023 0.885658 0.765803
O O12 0.000000 0.500000 0.500000
#
# Coordination Sequence:
#
# PCOD9285811 Si02
#       5
#     8   8   8   8   8
#     4  11  23  41  67 101 132 181 230 274 337 414
#     4  10  21  43  68  96 138 175 221 287 341 396
#     4  11  21  42  68  93 136 173 223 286 335 402
#     4  10  23  43  67  96 131 177 227 272 340 407
#     4  10  21  42  67  91 136 174 215 285 346 390
#
# _framework density 22.652272
#
# number of rings (size 3 to 8) (size 9 to 14) (size 15 to 20)
#    0.000    1.600    4.000    0.600    0.000    0.800 
#    7.200    3.000    0.000    0.000    0.000    0.000 
#    0.000    0.000    0.000    0.000    0.000    0.000 
#
# Total GULP energy -111573.630233 kJ/mol
# GULP energy per Si atom -5578.681512 kJ/mol
# Density = 2.260071 g / cm^3
# Si number density = 22.652272 Si / 1000 Ang^3
#
#
#
# Elastic Constant Matrix: (Units=GPa)
#
#
# Indices 1 2 3 4 5 6 
#
# 1 122.8950 29.7946 20.2654 -0.0060 -26.1567 0.0044
# 2 29.7946 122.0290 23.0038 -0.0091 -11.5344 0.0067
# 3 20.2654 23.0038 36.7220 -0.0075 -3.7373 0.0097
# 4 -0.0060 -0.0091 -0.0075 39.4796 0.0057 -15.7139
# 5 -26.1567 -11.5344 -3.7373 0.0057 37.1680 -0.0060
# 6 0.0044 0.0067 0.0097 -15.7139 -0.0060 42.2637
#
#
#
# Elastic Compliance Matrix: (Units=1/GPa)
#
#
# Indices 1 2 3 4 5 6 
#
# 1 0.010552 -0.001110 -0.004453 0.000000 0.006634 0.000001
# 2 -0.001110 0.009612 -0.005238 0.000001 0.001675 0.000000
# 3 -0.004453 -0.005238 0.032822 0.000002 -0.001459 -0.000006
# 4 0.000000 0.000001 0.000002 0.029729 -0.000002 0.011053
# 5 0.006634 0.001675 -0.001459 -0.000002 0.031946 0.000003
# 6 0.000001 0.000000 -0.000006 0.011053 0.000003 0.027771
#
#
# Mechanical properties :
#
#
# Convention : Reuss Voigt Hill
#
# Bulk Modulus (GPa) = 31.86348 47.53040 39.69694
# Shear Modulus (GPa) = 28.65412 37.68774 33.17093
#
# Velocity S-wave (km/s) = 3.56048 4.08334 3.83084
# Velocity P-wave (km/s) = 5.56773 6.57721 6.09341
#
# Compressibility (1/GPa) = 0.03138390
#
# Stress axis : x y z
#
# Youngs Moduli (GPa) = 94.76546 104.04183 30.46761
#
# Poissons Ratio (x) = 0.11549 0.13567
# Poissons Ratio (y) = 0.10519 0.15959
# Poissons Ratio (z) = 0.42198 0.54497
#
# Static dielectric constant tensor:
#      x y z
#    x 1.817310 0.000000 0.021240 
#    y 0.000000 1.910880 0.000000 
#    z 0.021240 0.000000 1.916990 
# 
# From -- ./inp_files/145390.got.cif
#   From: 2010.05.17/outbox.cif.g08.bks.cpg/sg15_73_cif.got.tgz:145390.got - 2010.06.03 18:47:42.
