data_PCOD9285591
_publ_section_title
;
Structure prediction by ZEFSAII (Michael W. Deem and Ramdas Pophale) SiO2 
 PCOD9285591
Probable space group: C 2/C
;
_chemical_formula_sum "Si O2"
_cell_formula_units_Z 40
_cell_length_a 8.023757
_cell_length_b 18.653144
_cell_length_c 15.688723
_cell_angle_alpha 90.000000
_cell_angle_beta 51.897299
_cell_angle_gamma 90.000000
_cell_volume 1847.737298
_symmetry_space_group_name_H-M "C 2/C"
_symmetry_group_IT_number 15
_symmetry_cell_setting 'monoclinic'
loop_
_space_group_symop_operation_xyz
x,y,z
-x,y,1/2-z
-x,-y,-z
x,-y,1/2+z
1/2+x,1/2+y,z
1/2-x,1/2+y,1/2-z
1/2-x,1/2-y,-z
1/2+x,1/2-y,1/2+z
loop_
_atom_site_type_symbol
_atom_site_label
_atom_site_fract_x
_atom_site_fract_y
_atom_site_fract_z
Si Si1 0.000000 0.525130 0.750000
Si Si2 0.763797 0.450238 0.483942
Si Si3 0.368342 0.570433 0.212067
Si Si4 0.422416 0.194641 0.182180
Si Si5 0.000000 0.832426 0.250000
Si Si6 0.145194 0.604457 0.978495
O O1 0.853421 0.567440 0.862709
O O2 0.834283 0.477836 0.747044
O O3 0.529029 0.426033 0.582269
O O4 0.775092 0.536314 0.492867
O O5 0.928162 0.418172 0.500377
O O6 0.500000 0.539071 0.250000
O O7 0.287556 0.648654 0.265528
O O8 0.500000 0.166671 0.250000
O O9 0.406101 0.278692 0.206807
O O10 0.587938 0.170685 0.058131
O O11 0.183241 0.876079 0.146544
#
# Coordination Sequence:
#
# PCOD9285591 Si02
#       6
#     4   8   8   8   4   8
#     4  12  23  42  58 110 138 173 226 252 358 414
#     4  11  24  37  69 102 137 168 216 296 335 404
#     4  12  21  41  70  94 139 181 217 277 339 404
#     4  10  21  42  64  93 130 185 223 266 327 400
#     4  10  25  38  72  92 136 185 230 276 316 412
#     4  11  21  43  65 103 134 172 230 272 352 396
#
# _framework density 21.648098999999998
#
# number of rings (size 3 to 8) (size 9 to 14) (size 15 to 20)
#    0.600    0.400    5.000    2.400    4.200    0.000 
#    0.000    1.000    2.200    0.000    0.000    0.000 
#    0.000    0.000    0.000    0.000    0.000    0.000 
#
# Total GULP energy -111719.606591 kJ/mol
# GULP energy per Si atom -5585.980330 kJ/mol
# Density = 2.159883 g / cm^3
# Si number density = 21.648099 Si / 1000 Ang^3
#
#
#
# Elastic Constant Matrix: (Units=GPa)
#
#
# Indices 1 2 3 4 5 6 
#
# 1 88.2912 6.0096 12.5995 0.0000 -7.3041 0.0000
# 2 6.0096 44.3985 33.2497 0.0000 -6.8152 0.0000
# 3 12.5995 33.2497 179.9052 0.0000 -31.8165 0.0000
# 4 0.0000 0.0000 0.0000 33.4969 0.0000 3.4020
# 5 -7.3041 -6.8152 -31.8165 0.0000 40.5246 0.0000
# 6 0.0000 0.0000 0.0000 3.4020 0.0000 9.4720
#
#
#
# Elastic Compliance Matrix: (Units=1/GPa)
#
#
# Indices 1 2 3 4 5 6 
#
# 1 0.011582 -0.001074 -0.000320 0.000000 0.001656 0.000000
# 2 -0.001074 0.026258 -0.004681 0.000000 0.000547 0.000000
# 3 -0.000320 -0.004681 0.007312 0.000000 0.004896 0.000000
# 4 0.000000 0.000000 0.000000 0.030984 0.000000 -0.011128
# 5 0.001656 0.000547 0.004896 0.000000 0.028911 0.000000
# 6 0.000000 0.000000 0.000000 -0.011128 0.000000 0.109571
#
#
# Mechanical properties :
#
#
# Convention : Reuss Voigt Hill
#
# Bulk Modulus (GPa) = 30.30090 46.25692 38.27891
# Shear Modulus (GPa) = 21.02892 34.08111 27.55501
#
# Velocity S-wave (km/s) = 3.12011 3.97208 3.57159
# Velocity P-wave (km/s) = 5.19687 6.51541 5.89314
#
# Compressibility (1/GPa) = 0.03300232
#
# Stress axis : x y z
#
# Youngs Moduli (GPa) = 86.34181 38.08338 136.76457
#
# Poissons Ratio (x) = 0.04090 0.04374
# Poissons Ratio (y) = 0.09273 0.64019
# Poissons Ratio (z) = 0.02761 0.17827
#
# Static dielectric constant tensor:
#      x y z
#    x 1.824320 0.000000 0.019620 
#    y 0.000000 1.785090 0.000000 
#    z 0.019620 0.000000 1.809210 
# 
# From -- ./inp_files/135800.got.cif
#   From: 2010.05.17/outbox.cif.g08.bks.cpg/sg15_68_cif.got.tgz:135800.got - 2010.06.03 18:47:42.
