data_PCOD9285218
_publ_section_title
;
Structure prediction by ZEFSAII (Michael W. Deem and Ramdas Pophale) SiO2 
 PCOD9285218
Probable space group: C 2/C
;
_chemical_formula_sum "Si O2"
_cell_formula_units_Z 60
_cell_length_a 7.972907
_cell_length_b 22.394101
_cell_length_c 26.433226
_cell_angle_alpha 90.000000
_cell_angle_beta 147.791267
_cell_angle_gamma 90.000000
_cell_volume 2515.544381
_symmetry_space_group_name_H-M "C 2/C"
_symmetry_group_IT_number 15
_symmetry_cell_setting 'monoclinic'
loop_
_space_group_symop_operation_xyz
x,y,z
-x,y,1/2-z
-x,-y,-z
x,-y,1/2+z
1/2+x,1/2+y,z
1/2-x,1/2+y,1/2-z
1/2-x,1/2-y,-z
1/2+x,1/2-y,1/2+z
loop_
_atom_site_type_symbol
_atom_site_label
_atom_site_fract_x
_atom_site_fract_y
_atom_site_fract_z
Si Si1 0.792816 0.035080 0.790374
Si Si2 0.538756 0.006658 0.385744
Si Si3 0.000000 0.652142 0.750000
Si Si4 0.370724 0.335904 0.569329
Si Si5 0.514753 0.744197 0.609679
Si Si6 0.716511 0.212227 0.640288
Si Si7 0.295495 0.873753 0.858414
Si Si8 0.050726 0.962069 0.935364
O O1 0.500000 0.010604 0.750000
O O2 0.736504 0.105895 0.782351
O O3 0.748182 0.013793 0.722466
O O4 0.072430 0.001894 0.890504
O O5 0.531757 0.071815 0.409631
O O6 0.815508 0.006557 0.414499
O O7 0.620530 0.961140 0.451003
O O8 0.787444 0.697550 0.663121
O O9 0.576103 0.275620 0.624847
O O10 0.247159 0.355857 0.593591
O O11 0.561475 0.394818 0.602104
O O12 0.096326 0.324269 0.457380
O O13 0.379223 0.722286 0.627764
O O14 0.624865 0.811146 0.646970
O O15 0.250000 0.750000 0.500000
O O16 0.000000 0.191442 0.750000
O O17 0.000000 0.895090 0.750000
#
# Coordination Sequence:
#
# PCOD9285218 Si02
#       8
#     8   8   4   8   8   8   8   8
#     4   8  19  39  63  98 131 173 226 289 348 414
#     4  10  22  40  67  99 128 177 233 284 349 423
#     4  10  24  42  72 104 142 178 246 300 350 436
#     4  11  25  45  67 100 145 185 241 294 346 443
#     4  12  25  43  72 104 140 185 236 298 355 419
#     4  11  26  46  67 100 145 194 231 289 369 425
#     4  12  24  42  67 102 139 179 234 295 355 410
#     4  10  21  41  68  95 129 185 231 287 353 418
#
# _framework density 23.851694999999999
#
# number of rings (size 3 to 8) (size 9 to 14) (size 15 to 20)
#    0.400    1.067    2.000    2.400    1.867    4.267 
#    0.000    2.000    0.000    0.000    0.000    0.000 
#    0.000    0.000    0.000    0.000    0.000    0.000 
#
# Total GULP energy -167254.819671 kJ/mol
# GULP energy per Si atom -5575.160656 kJ/mol
# Density = 2.379741 g / cm^3
# Si number density = 23.851695 Si / 1000 Ang^3
#
#
#
# Elastic Constant Matrix: (Units=GPa)
#
#
# Indices 1 2 3 4 5 6 
#
# 1 46.4961 0.6560 27.3133 0.0041 -16.3424 0.0015
# 2 0.6560 133.8382 32.6103 0.0006 -6.4141 0.0002
# 3 27.3133 32.6103 141.2816 -0.0005 -31.9150 0.0047
# 4 0.0041 0.0006 -0.0005 28.6362 0.0028 7.9459
# 5 -16.3424 -6.4141 -31.9150 0.0028 25.4879 0.0011
# 6 0.0015 0.0002 0.0047 7.9459 0.0011 31.6079
#
#
#
# Elastic Compliance Matrix: (Units=1/GPa)
#
#
# Indices 1 2 3 4 5 6 
#
# 1 0.028291 0.001147 -0.002191 -0.000006 0.015685 0.000000
# 2 0.001147 0.007967 -0.002010 0.000000 0.000223 0.000000
# 3 -0.002191 -0.002010 0.010506 0.000000 0.011244 -0.000002
# 4 -0.000006 0.000000 0.000000 0.037539 -0.000008 -0.009437
# 5 0.015685 0.000223 0.011244 -0.000008 0.063427 -0.000003
# 6 0.000000 0.000000 -0.000002 -0.009437 -0.000003 0.034010
#
#
# Mechanical properties :
#
#
# Convention : Reuss Voigt Hill
#
# Bulk Modulus (GPa) = 24.59741 49.19723 36.89732
# Shear Modulus (GPa) = 24.82631 34.54880 29.68756
#
# Velocity S-wave (km/s) = 3.22974 3.81002 3.53182
# Velocity P-wave (km/s) = 4.92375 6.32662 5.66875
#
# Compressibility (1/GPa) = 0.04065468
#
# Stress axis : x y z
#
# Youngs Moduli (GPa) = 35.34700 125.52465 95.18742
#
# Poissons Ratio (x) = -0.14396 0.20855
# Poissons Ratio (y) = -0.04054 0.19134
# Poissons Ratio (z) = 0.07744 0.25232
#
# Static dielectric constant tensor:
#      x y z
#    x 1.943990 -0.000010 0.031400 
#    y -0.000010 1.895590 0.000000 
#    z 0.031400 0.000000 1.859280 
# 
# From -- ./inp_files/290278.got.cif
#   From: 2010.05.17/outbox.cif.g08.bks.cpg/sg15_146_cif.got.tgz:290278.got - 2010.06.03 18:47:42.
