data_PCOD9285300
_publ_section_title
;
Structure prediction by ZEFSAII (Michael W. Deem and Ramdas Pophale) SiO2 
 PCOD9285300
Probable space group: C 2/C
;
_chemical_formula_sum "Si O2"
_cell_formula_units_Z 60
_cell_length_a 24.303323
_cell_length_b 8.376736
_cell_length_c 25.311247
_cell_angle_alpha 90.000000
_cell_angle_beta 145.862129
_cell_angle_gamma 90.000000
_cell_volume 2891.751774
_symmetry_space_group_name_H-M "C 2/C"
_symmetry_group_IT_number 15
_symmetry_cell_setting 'monoclinic'
loop_
_space_group_symop_operation_xyz
x,y,z
-x,y,1/2-z
-x,-y,-z
x,-y,1/2+z
1/2+x,1/2+y,z
1/2-x,1/2+y,1/2-z
1/2-x,1/2-y,-z
1/2+x,1/2-y,1/2+z
loop_
_atom_site_type_symbol
_atom_site_label
_atom_site_fract_x
_atom_site_fract_y
_atom_site_fract_z
Si Si1 0.195977 0.415169 0.448760
Si Si2 0.126614 0.719927 0.685560
Si Si3 0.714211 0.574176 0.084486
Si Si4 0.913177 0.447512 0.783976
Si Si5 0.559847 0.357697 0.020558
Si Si6 0.318607 0.074893 0.347624
Si Si7 0.000000 0.479447 0.250000
Si Si8 0.623156 0.913157 0.996266
O O1 0.250000 0.250000 0.500000
O O2 0.245488 0.513521 0.440067
O O3 0.086500 0.377162 0.342449
O O4 0.177953 0.515637 0.488090
O O5 0.111462 0.636292 0.730175
O O6 0.209670 0.854643 0.753014
O O7 0.160788 0.570661 0.675930
O O8 0.022033 0.777938 0.581607
O O9 0.804416 0.624904 0.195260
O O10 0.649986 0.435732 0.060342
O O11 0.649423 0.729297 0.024524
O O12 0.958071 0.411218 0.762813
O O13 0.005174 0.422118 0.895406
O O14 0.606789 0.225665 0.096801
O O15 0.500000 0.500000 0.000000
O O16 0.339807 0.008804 0.423152
#
# Coordination Sequence:
#
# PCOD9285300 Si02
#       8
#     8   8   8   8   8   8   4   8
#     4  10  21  41  69  98 134 174 221 269 331 398
#     4  12  26  42  67  93 134 174 228 280 335 402
#     4  11  24  43  68 100 138 174 223 273 333 405
#     4  10  22  42  67  93 133 170 216 266 339 389
#     4  12  25  43  65  96 129 177 229 279 335 399
#     4  12  26  45  65  97 130 179 229 279 341 395
#     4   8  20  38  64  92 126 168 206 262 332 384
#     4  11  24  43  70  99 136 175 220 279 336 396
#
# _framework density 20.748667000000001
#
# number of rings (size 3 to 8) (size 9 to 14) (size 15 to 20)
#    0.000    1.067    2.667    3.200    7.467    1.067 
#    0.000    1.333    0.000    0.000    0.000    0.000 
#    0.000    0.000    0.000    0.000    0.000    0.000 
#
# Total GULP energy -167468.061500 kJ/mol
# GULP energy per Si atom -5582.268717 kJ/mol
# Density = 2.070144 g / cm^3
# Si number density = 20.748667 Si / 1000 Ang^3
#
#
#
# Elastic Constant Matrix: (Units=GPa)
#
#
# Indices 1 2 3 4 5 6 
#
# 1 106.9068 27.9487 21.8539 0.0000 2.3912 0.0000
# 2 27.9487 92.9304 44.3594 0.0000 7.0183 0.0001
# 3 21.8539 44.3594 146.4938 0.0000 21.5265 0.0000
# 4 0.0000 0.0000 0.0000 36.1596 0.0000 4.9046
# 5 2.3912 7.0183 21.5265 0.0000 30.5962 0.0000
# 6 0.0000 0.0001 0.0000 4.9046 0.0000 29.7107
#
#
#
# Elastic Compliance Matrix: (Units=1/GPa)
#
#
# Indices 1 2 3 4 5 6 
#
# 1 0.010216 -0.002743 -0.000745 0.000000 0.000355 0.000000
# 2 -0.002743 0.013317 -0.003576 0.000000 -0.000325 0.000000
# 3 -0.000745 -0.003576 0.008801 0.000000 -0.005314 0.000000
# 4 0.000000 0.000000 0.000000 0.028289 0.000000 -0.004670
# 5 0.000355 -0.000325 -0.005314 0.000000 0.036469 0.000000
# 6 0.000000 0.000000 0.000000 -0.004670 0.000000 0.034429
#
#
# Mechanical properties :
#
#
# Convention : Reuss Voigt Hill
#
# Bulk Modulus (GPa) = 54.93025 59.40612 57.16818
# Shear Modulus (GPa) = 32.95612 36.10457 34.53035
#
# Velocity S-wave (km/s) = 3.98973 4.17597 4.08391
# Velocity P-wave (km/s) = 6.91054 7.20729 7.06047
#
# Compressibility (1/GPa) = 0.01820491
#
# Stress axis : x y z
#
# Youngs Moduli (GPa) = 97.88984 75.09166 113.62405
#
# Poissons Ratio (x) = 0.20600 0.08470
# Poissons Ratio (y) = 0.26854 0.40627
# Poissons Ratio (z) = 0.07298 0.26849
#
# Static dielectric constant tensor:
#      x y z
#    x 1.838010 0.000000 -0.017780 
#    y 0.000000 1.723750 0.000000 
#    z -0.017780 0.000000 1.774800 
# 
# From -- ./inp_files/302075.got.cif
#   From: 2010.05.17/outbox.cif.g08.bks.cpg/sg15_152_cif.got.tgz:302075.got - 2010.06.03 18:47:42.
