data_PCOD9285681
_publ_section_title
;
Structure prediction by ZEFSAII (Michael W. Deem and Ramdas Pophale) SiO2 
 PCOD9285681
Probable space group: C 2/C
;
_chemical_formula_sum "Si O2"
_cell_formula_units_Z 56
_cell_length_a 4.984733
_cell_length_b 17.209991
_cell_length_c 30.728829
_cell_angle_alpha 90.000000
_cell_angle_beta 72.286738
_cell_angle_gamma 90.000000
_cell_volume 2511.163941
_symmetry_space_group_name_H-M "C 2/C"
_symmetry_group_IT_number 15
_symmetry_cell_setting 'monoclinic'
loop_
_space_group_symop_operation_xyz
x,y,z
-x,y,1/2-z
-x,-y,-z
x,-y,1/2+z
1/2+x,1/2+y,z
1/2-x,1/2+y,1/2-z
1/2-x,1/2-y,-z
1/2+x,1/2-y,1/2+z
loop_
_atom_site_type_symbol
_atom_site_label
_atom_site_fract_x
_atom_site_fract_y
_atom_site_fract_z
Si Si1 0.398050 0.675858 0.902881
Si Si2 0.228858 0.432054 0.484020
Si Si3 0.795790 0.509818 0.720906
Si Si4 0.487732 0.907250 0.368488
Si Si5 0.213329 0.180319 0.360233
Si Si6 0.715066 0.544169 0.425032
Si Si7 0.678719 0.660883 0.198986
O O1 0.219875 0.641044 0.952350
O O2 0.726519 0.651367 0.890997
O O3 0.295192 0.761527 0.895483
O O4 0.281940 0.629752 0.866935
O O5 0.482726 0.481978 0.451284
O O6 0.253413 0.405568 0.532802
O O7 0.000000 0.500000 0.500000
O O8 0.500000 0.547621 0.750000
O O9 0.690560 0.433375 0.699902
O O10 0.000000 0.483608 0.750000
O O11 0.987324 0.564985 0.681913
O O12 0.461190 0.985548 0.398788
O O13 0.157929 0.098241 0.386797
O O14 0.494607 0.182444 0.317157
O O15 0.960850 0.191966 0.338644
O O16 0.500000 0.685425 0.250000
#
# Coordination Sequence:
#
# PCOD9285681 Si02
#       7
#     8   8   8   8   8   8   8
#     4  11  25  42  65  94 140 171 219 266 335 394
#     4  10  21  42  65  96 128 176 215 275 331 391
#     4  11  22  38  66 103 128 161 225 287 327 382
#     4  11  22  42  65  93 130 175 209 274 326 397
#     4  12  25  43  66 103 129 180 219 270 326 398
#     4  10  23  38  69  94 126 171 224 261 330 389
#     4  11  24  42  68  97 134 171 219 275 326 389
#
# _framework density 22.300418000000001
#
# number of rings (size 3 to 8) (size 9 to 14) (size 15 to 20)
#    0.000    1.143    2.857    3.857    6.000    0.571 
#    0.000    7.857    0.000    0.000    0.000    0.000 
#    0.000    0.000    0.000    0.000    0.000    0.000 
#
# Total GULP energy -156048.713822 kJ/mol
# GULP energy per Si atom -5573.168351 kJ/mol
# Density = 2.224966 g / cm^3
# Si number density = 22.300418 Si / 1000 Ang^3
#
#
#
# Elastic Constant Matrix: (Units=GPa)
#
#
# Indices 1 2 3 4 5 6 
#
# 1 72.4156 -5.2674 24.7771 0.0000 1.3004 0.0000
# 2 -5.2674 42.3385 27.2662 0.0000 4.0118 0.0000
# 3 24.7771 27.2662 76.1924 0.0000 0.3157 0.0000
# 4 0.0000 0.0000 0.0000 26.8076 0.0000 1.4994
# 5 1.3004 4.0118 0.3157 0.0000 32.2804 0.0000
# 6 0.0000 0.0000 0.0000 1.4994 0.0000 17.7001
#
#
#
# Elastic Compliance Matrix: (Units=1/GPa)
#
#
# Indices 1 2 3 4 5 6 
#
# 1 0.017252 0.007672 -0.008349 0.000000 -0.001567 0.000000
# 2 0.007672 0.034554 -0.014842 0.000000 -0.004458 0.000000
# 3 -0.008349 -0.014842 0.021143 0.000000 0.001974 0.000000
# 4 0.000000 0.000000 0.000000 0.037480 0.000000 -0.003175
# 5 -0.001567 -0.004458 0.001974 0.000000 0.031576 0.000000
# 6 0.000000 0.000000 0.000000 -0.003175 0.000000 0.056766
#
#
# Mechanical properties :
#
#
# Convention : Reuss Voigt Hill
#
# Bulk Modulus (GPa) = 23.86034 31.61091 27.73563
# Shear Modulus (GPa) = 20.51022 24.96899 22.73961
#
# Velocity S-wave (km/s) = 3.03598 3.34977 3.19673
# Velocity P-wave (km/s) = 4.79712 5.40066 5.10781
#
# Compressibility (1/GPa) = 0.04191055
#
# Stress axis : x y z
#
# Youngs Moduli (GPa) = 57.96433 28.93993 47.29724
#
# Poissons Ratio (x) = -0.22202 0.39489
# Poissons Ratio (y) = -0.44468 0.70198
# Poissons Ratio (z) = 0.48395 0.42952
#
# Static dielectric constant tensor:
#      x y z
#    x 1.858900 0.000000 -0.010240 
#    y 0.000000 1.899780 0.000000 
#    z -0.010240 0.000000 1.940410 
# 
# From -- ./inp_files/305618.got.cif
#   From: 2010.05.17/outbox.cif.g08.bks.cpg/sg15_153_cif.got.tgz:305618.got - 2010.06.03 18:47:42.
