data_PCOD9285254
_publ_section_title
;
Structure prediction by ZEFSAII (Michael W. Deem and Ramdas Pophale) SiO2 
 PCOD9285254
Probable space group: C 2/C
;
_chemical_formula_sum "Si O2"
_cell_formula_units_Z 48
_cell_length_a 24.337340
_cell_length_b 10.452765
_cell_length_c 21.512111
_cell_angle_alpha 90.000000
_cell_angle_beta 20.815333
_cell_angle_gamma 90.000000
_cell_volume 1944.698804
_symmetry_space_group_name_H-M "C 2/C"
_symmetry_group_IT_number 15
_symmetry_cell_setting 'monoclinic'
loop_
_space_group_symop_operation_xyz
x,y,z
-x,y,1/2-z
-x,-y,-z
x,-y,1/2+z
1/2+x,1/2+y,z
1/2-x,1/2+y,1/2-z
1/2-x,1/2-y,-z
1/2+x,1/2-y,1/2+z
loop_
_atom_site_type_symbol
_atom_site_label
_atom_site_fract_x
_atom_site_fract_y
_atom_site_fract_z
Si Si1 0.000000 0.536873 0.750000
Si Si2 0.955560 0.342922 0.887986
Si Si3 0.852947 0.012110 0.295405
Si Si4 0.489738 0.336694 0.058466
Si Si5 0.500000 0.624892 0.750000
Si Si6 0.554595 0.197981 0.813801
Si Si7 0.239616 0.784999 0.301713
O O1 0.070025 0.425393 0.723404
O O2 0.990877 0.640297 0.703664
O O3 0.017384 0.286648 0.887422
O O4 0.916388 0.218130 0.888123
O O5 0.808192 0.438518 0.049379
O O6 0.981448 0.957509 0.112425
O O7 0.891109 0.963679 0.323904
O O8 0.865835 0.163684 0.280921
O O9 0.342509 0.350957 0.169511
O O10 0.637225 0.312187 0.859409
O O11 0.672345 0.132598 0.738667
O O12 0.399004 0.213638 0.017504
#
# Coordination Sequence:
#
# PCOD9285254 Si02
#       7
#     4   8   8   8   4   8   8
#     4  11  25  46  64  98 145 181 226 268 336 419
#     4  10  21  41  69 101 131 178 222 282 334 394
#     4  11  21  39  68  98 133 177 217 285 330 406
#     4  10  21  45  69 101 132 167 233 285 339 388
#     4   9  21  36  64 102 133 169 224 274 340 391
#     4  11  25  44  65 100 135 185 222 270 342 404
#     4  10  23  44  67  97 136 175 225 282 329 407
#
# _framework density 24.682485
#
# number of rings (size 3 to 8) (size 9 to 14) (size 15 to 20)
#    0.000    1.667    1.667    2.000    0.000    6.667 
#    9.000    2.500    0.000    0.000    0.000    0.000 
#    0.000    0.000    0.000    0.000    0.000    0.000 
#
# Total GULP energy -133608.449392 kJ/mol
# GULP energy per Si atom -5567.018725 kJ/mol
# Density = 2.462631 g / cm^3
# Si number density = 24.682485 Si / 1000 Ang^3
#
#
#
# Elastic Constant Matrix: (Units=GPa)
#
#
# Indices 1 2 3 4 5 6 
#
# 1 160.5046 7.4187 66.7331 -0.0011 68.3026 0.0007
# 2 7.4187 71.4427 26.7625 -0.0009 48.0314 0.0011
# 3 66.7331 26.7625 78.7513 -0.0005 -20.9263 0.0009
# 4 -0.0011 -0.0009 -0.0005 12.4958 0.0012 1.3700
# 5 68.3026 48.0314 -20.9263 0.0012 -31.0654 -0.0010
# 6 0.0007 0.0011 0.0009 1.3700 -0.0010 19.8029
#
#
#
# Elastic Compliance Matrix: (Units=1/GPa)
#
#
# Indices 1 2 3 4 5 6 
#
# 1 0.004625 -0.003635 -0.001251 0.000000 0.005390 0.000000
# 2 -0.003635 0.009737 0.001398 0.000000 0.006120 0.000000
# 3 -0.001251 0.001398 0.011134 0.000001 -0.008090 -0.000001
# 4 0.000000 0.000000 0.000001 0.080638 0.000001 -0.005579
# 5 0.005390 0.006120 -0.008090 0.000001 -0.005428 -0.000001
# 6 0.000000 0.000000 -0.000001 -0.005579 -0.000001 0.050884
#
#
# Mechanical properties :
#
#
# Convention : Reuss Voigt Hill
#
# Bulk Modulus (GPa) = 54.00202 56.94747 55.47474
# Shear Modulus (GPa) = 30.35087 14.23228 22.29157
#
# Velocity S-wave (km/s) = 3.51044 2.40388 3.00848
# Velocity P-wave (km/s) = 6.19331 5.55221 5.88150
#
# Compressibility (1/GPa) = 0.01851783
#
# Stress axis : x y z
#
# Youngs Moduli (GPa) = 216.22688 102.70311 89.81664
#
# Poissons Ratio (x) = 0.37337 0.11238
# Poissons Ratio (y) = 0.78608 -0.12555
# Poissons Ratio (z) = 0.27054 -0.14357
#
# Static dielectric constant tensor:
#      x y z
#    x 2.012230 0.000000 0.002390 
#    y 0.000000 1.952670 0.000000 
#    z 0.002390 0.000000 2.131960 
# 
# From -- ./inp_files/283542.got.cif
#   From: 2010.05.17/outbox.cif.g08.bks.cpg/sg15_142_cif.got.tgz:283542.got - 2010.06.03 18:47:42.
