data_PCOD9285709
_publ_section_title
;
Structure prediction by ZEFSAII (Michael W. Deem and Ramdas Pophale) SiO2 
 PCOD9285709
Probable space group: C 2/C
;
_chemical_formula_sum "Si O2"
_cell_formula_units_Z 28
_cell_length_a 21.261617
_cell_length_b 5.320327
_cell_length_c 9.491038
_cell_angle_alpha 90.000000
_cell_angle_beta 108.503615
_cell_angle_gamma 90.000000
_cell_volume 1018.112438
_symmetry_space_group_name_H-M "C 2/C"
_symmetry_group_IT_number 15
_symmetry_cell_setting 'monoclinic'
loop_
_space_group_symop_operation_xyz
x,y,z
-x,y,1/2-z
-x,-y,-z
x,-y,1/2+z
1/2+x,1/2+y,z
1/2-x,1/2+y,1/2-z
1/2-x,1/2-y,-z
1/2+x,1/2-y,1/2+z
loop_
_atom_site_type_symbol
_atom_site_label
_atom_site_fract_x
_atom_site_fract_y
_atom_site_fract_z
Si Si1 0.442897 0.796161 0.459174
Si Si2 0.205962 0.809768 0.196387
Si Si3 0.500000 0.450886 0.750000
Si Si4 0.827405 0.821975 0.042242
O O1 0.465331 0.603893 0.599617
O O2 0.445982 0.704322 0.300602
O O3 0.369475 0.847796 0.464087
O O4 0.500000 0.000000 0.500000
O O5 0.250000 0.750000 0.500000
O O6 0.151372 0.783231 0.281016
O O7 0.253649 0.568399 0.231459
O O8 0.174406 0.899787 0.026989
#
# Coordination Sequence:
#
# PCOD9285709 Si02
#       4
#     8   8   4   8
#     4  11  23  47  73  99 143 194 243 297 365 443
#     4  10  21  42  66 105 145 185 230 294 366 437
#     4  10  24  46  68 100 140 192 244 290 356 454
#     4  10  22  43  67 105 139 181 234 300 360 426
#
# _framework density 27.501877
#
# number of rings (size 3 to 8) (size 9 to 14) (size 15 to 20)
#    0.000    1.714    0.000    3.429    0.000    0.000 
#   82.286    0.000    0.000    0.000    0.000    0.000 
#    0.000    0.000    0.000    0.000    0.000    0.000 
#
# Total GULP energy -78230.536526 kJ/mol
# GULP energy per Si atom -5587.895466 kJ/mol
# Density = 2.743928 g / cm^3
# Si number density = 27.501877 Si / 1000 Ang^3
#
#
#
# Elastic Constant Matrix: (Units=GPa)
#
#
# Indices 1 2 3 4 5 6 
#
# 1 228.3601 52.2777 52.2779 0.0000 -50.5550 0.0000
# 2 52.2777 115.3520 27.3012 0.0000 -15.8028 0.0000
# 3 52.2779 27.3012 132.4544 0.0000 -52.5044 0.0000
# 4 0.0000 0.0000 0.0000 47.9150 0.0000 10.3566
# 5 -50.5550 -15.8028 -52.5044 0.0000 79.5328 0.0000
# 6 0.0000 0.0000 0.0000 10.3566 0.0000 28.5954
#
#
#
# Elastic Compliance Matrix: (Units=1/GPa)
#
#
# Indices 1 2 3 4 5 6 
#
# 1 0.005597 -0.001996 -0.000738 0.000000 0.002674 0.000000
# 2 -0.001996 0.009860 -0.001315 0.000000 -0.000177 0.000000
# 3 -0.000738 -0.001315 0.010595 0.000000 0.006264 0.000000
# 4 0.000000 0.000000 0.000000 0.022643 0.000000 -0.008201
# 5 0.002674 -0.000177 0.006264 0.000000 0.018373 0.000000
# 6 0.000000 0.000000 0.000000 -0.008201 0.000000 0.037941
#
#
# Mechanical properties :
#
#
# Convention : Reuss Voigt Hill
#
# Bulk Modulus (GPa) = 55.69263 82.20891 68.95077
# Shear Modulus (GPa) = 41.98465 54.16262 48.07364
#
# Velocity S-wave (km/s) = 3.91142 4.44262 4.18546
# Velocity P-wave (km/s) = 6.37914 7.50153 6.96298
#
# Compressibility (1/GPa) = 0.01795570
#
# Stress axis : x y z
#
# Youngs Moduli (GPa) = 178.67531 101.41522 94.38311
#
# Poissons Ratio (x) = 0.20238 0.06962
# Poissons Ratio (y) = 0.35655 0.12413
# Poissons Ratio (z) = 0.13180 0.13338
#
# Static dielectric constant tensor:
#      x y z
#    x 2.480930 0.000000 0.096190 
#    y 0.000000 2.252270 0.000000 
#    z 0.096190 0.000000 2.416940 
# 
# From -- ./inp_files/68070.got.cif
#   From: 2010.05.17/outbox.cif.g08.bks.cpg/sg15_35_cif.got.tgz:68070.got - 2010.06.03 18:47:42.
