data_PCOD9285767
_publ_section_title
;
Structure prediction by ZEFSAII (Michael W. Deem and Ramdas Pophale) SiO2 
 PCOD9285767
Probable space group: C 2/C
;
_chemical_formula_sum "Si O2"
_cell_formula_units_Z 44
_cell_length_a 13.154652
_cell_length_b 16.010975
_cell_length_c 9.011096
_cell_angle_alpha 90.000000
_cell_angle_beta 64.043688
_cell_angle_gamma 90.000000
_cell_volume 1706.460745
_symmetry_space_group_name_H-M "C 2/C"
_symmetry_group_IT_number 15
_symmetry_cell_setting 'monoclinic'
loop_
_space_group_symop_operation_xyz
x,y,z
-x,y,1/2-z
-x,-y,-z
x,-y,1/2+z
1/2+x,1/2+y,z
1/2-x,1/2+y,1/2-z
1/2-x,1/2-y,-z
1/2+x,1/2-y,1/2+z
loop_
_atom_site_type_symbol
_atom_site_label
_atom_site_fract_x
_atom_site_fract_y
_atom_site_fract_z
Si Si1 0.000000 0.158161 0.750000
Si Si2 0.620424 0.538449 0.877558
Si Si3 0.794215 0.113576 0.369747
Si Si4 0.343175 0.268590 0.607176
Si Si5 0.370770 0.133731 0.394139
Si Si6 0.922749 0.454908 0.427978
O O1 0.902249 0.102730 0.740096
O O2 0.060732 0.200969 0.570443
O O3 0.683075 0.460738 0.762492
O O4 0.500000 0.500000 0.000000
O O5 0.665324 0.585986 0.993638
O O6 0.853893 0.194950 0.264524
O O7 0.658933 0.116118 0.461979
O O8 0.352691 0.170104 0.572415
O O9 0.222959 0.310583 0.632424
O O10 0.500000 0.143703 0.250000
O O11 0.352251 0.034504 0.408409
O O12 0.000000 0.421351 0.250000
O O13 0.000000 0.500000 0.500000
#
# Coordination Sequence:
#
# PCOD9285767 Si02
#       6
#     4   8   8   8   8   8
#     4  12  22  38  60  98 132 174 216 274 334 412
#     4  12  21  34  58  92 134 171 216 266 333 401
#     4  12  22  39  63  99 135 174 222 272 336 404
#     4  11  23  38  67  98 129 175 220 274 341 393
#     4  10  21  42  66  96 130 176 228 273 327 400
#     4  11  23  41  70  96 127 176 226 274 321 390
#
# _framework density 25.784362000000002
#
# number of rings (size 3 to 8) (size 9 to 14) (size 15 to 20)
#    0.000    0.727    4.545    5.455    0.000    0.000 
#    0.000    0.000    4.000   10.909    0.000    0.000 
#    0.000    0.000    0.000    0.000    0.000    0.000 
#
# Total GULP energy -123085.738838 kJ/mol
# GULP energy per Si atom -5594.806311 kJ/mol
# Density = 2.572568 g / cm^3
# Si number density = 25.784362 Si / 1000 Ang^3
#
#
#
# Elastic Constant Matrix: (Units=GPa)
#
#
# Indices 1 2 3 4 5 6 
#
# 1 70.3822 -6.6038 23.0948 0.0000 5.1234 0.0000
# 2 -6.6038 67.8160 33.0673 0.0000 -7.4174 0.0000
# 3 23.0948 33.0673 151.7866 0.0000 -14.4897 0.0000
# 4 0.0000 0.0000 0.0000 32.4467 0.0000 2.9046
# 5 5.1234 -7.4174 -14.4897 0.0000 58.8872 0.0000
# 6 0.0000 0.0000 0.0000 2.9046 0.0000 21.7928
#
#
#
# Elastic Compliance Matrix: (Units=1/GPa)
#
#
# Indices 1 2 3 4 5 6 
#
# 1 0.015651 0.002879 -0.003179 0.000000 -0.001781 0.000000
# 2 0.002879 0.017114 -0.004080 0.000000 0.000901 0.000000
# 3 -0.003179 -0.004080 0.008129 0.000000 0.001763 0.000000
# 4 0.000000 0.000000 0.000000 0.031192 0.000000 -0.004157
# 5 -0.001781 0.000901 0.001763 0.000000 0.017684 0.000000
# 6 0.000000 0.000000 0.000000 -0.004157 0.000000 0.046441
#
#
# Mechanical properties :
#
#
# Convention : Reuss Voigt Hill
#
# Bulk Modulus (GPa) = 31.11922 43.23348 37.17635
# Shear Modulus (GPa) = 32.11669 38.65377 35.38523
#
# Velocity S-wave (km/s) = 3.53312 3.87604 3.70855
# Velocity P-wave (km/s) = 5.36089 6.06921 5.72601
#
# Compressibility (1/GPa) = 0.03213448
#
# Stress axis : x y z
#
# Youngs Moduli (GPa) = 63.89391 58.43052 123.01558
#
# Poissons Ratio (x) = -0.16823 0.39102
# Poissons Ratio (y) = -0.18396 0.50196
# Poissons Ratio (z) = 0.20309 0.23842
#
# Static dielectric constant tensor:
#      x y z
#    x 2.143250 0.000000 0.040000 
#    y 0.000000 2.119280 0.000000 
#    z 0.040000 0.000000 2.061360 
# 
# From -- ./inp_files/40635.got.cif
#   From: 2010.05.17/outbox.cif.g08.bks.cpg/sg15_21_cif.got.tgz:40635.got - 2010.06.03 18:47:42.
