data_PCOD9285647
_publ_section_title
;
Structure prediction by ZEFSAII (Michael W. Deem and Ramdas Pophale) SiO2 
 PCOD9285647
Probable space group: C 2/C
;
_chemical_formula_sum "Si O2"
_cell_formula_units_Z 36
_cell_length_a 12.019594
_cell_length_b 8.557795
_cell_length_c 21.995939
_cell_angle_alpha 90.000000
_cell_angle_beta 130.227810
_cell_angle_gamma 90.000000
_cell_volume 1727.401750
_symmetry_space_group_name_H-M "C 2/C"
_symmetry_group_IT_number 15
_symmetry_cell_setting 'monoclinic'
loop_
_space_group_symop_operation_xyz
x,y,z
-x,y,1/2-z
-x,-y,-z
x,-y,1/2+z
1/2+x,1/2+y,z
1/2-x,1/2+y,1/2-z
1/2-x,1/2-y,-z
1/2+x,1/2-y,1/2+z
loop_
_atom_site_type_symbol
_atom_site_label
_atom_site_fract_x
_atom_site_fract_y
_atom_site_fract_z
Si Si1 0.852465 0.870899 0.660290
Si Si2 0.202175 0.631367 0.656996
Si Si3 0.569330 0.924453 0.373709
Si Si4 0.500000 0.816608 0.750000
Si Si5 0.215484 0.394210 0.030689
O O1 0.828117 0.703030 0.622045
O O2 0.000000 0.865693 0.750000
O O3 0.731015 0.944172 0.662012
O O4 0.849056 0.003258 0.605779
O O5 0.358400 0.715029 0.718448
O O6 0.145374 0.669359 0.568640
O O7 0.084617 0.660442 0.666885
O O8 0.546312 0.070099 0.321240
O O9 0.625104 0.986373 0.457861
O O10 0.250000 0.250000 0.000000
#
# Coordination Sequence:
#
# PCOD9285647 Si02
#       5
#     8   8   8   4   8
#     4  10  22  41  62  93 126 158 207 260 301 366
#     4  10  24  40  64  87 128 163 205 257 314 357
#     4  12  23  41  66  93 122 170 209 251 316 371
#     4  12  24  38  64  94 122 164 216 254 306 372
#     4  10  21  42  65  90 131 163 203 260 309 369
#
# _framework density 20.840547000000001
#
# number of rings (size 3 to 8) (size 9 to 14) (size 15 to 20)
#    1.333    0.000    4.444    1.333    3.111    0.000 
#    0.000    3.333    0.000    0.000    0.000    0.000 
#    0.000    0.000    0.000    0.000    0.000    0.000 
#
# Total GULP energy -100223.163028 kJ/mol
# GULP energy per Si atom -5567.953502 kJ/mol
# Density = 2.079311 g / cm^3
# Si number density = 20.840547 Si / 1000 Ang^3
#
#
#
# Elastic Constant Matrix: (Units=GPa)
#
#
# Indices 1 2 3 4 5 6 
#
# 1 52.7409 24.3063 4.8657 0.0000 -0.7454 0.0000
# 2 24.3063 96.0457 20.1001 0.0000 1.3312 0.0000
# 3 4.8657 20.1001 85.9074 0.0000 -4.6091 0.0000
# 4 0.0000 0.0000 0.0000 39.5144 0.0000 -4.5881
# 5 -0.7454 1.3312 -4.6091 0.0000 10.3857 0.0000
# 6 0.0000 0.0000 0.0000 -4.5881 0.0000 20.0146
#
#
#
# Elastic Compliance Matrix: (Units=1/GPa)
#
#
# Indices 1 2 3 4 5 6 
#
# 1 0.021519 -0.005520 0.000198 0.000000 0.002340 0.000000
# 2 -0.005520 0.012433 -0.002769 0.000000 -0.003219 0.000000
# 3 0.000198 -0.002769 0.012597 0.000000 0.005960 0.000000
# 4 0.000000 0.000000 0.000000 0.025999 0.000000 0.005960
# 5 0.002340 -0.003219 0.005960 0.000000 0.099512 0.000000
# 6 0.000000 0.000000 0.000000 0.005960 0.000000 0.051330
#
#
# Mechanical properties :
#
#
# Convention : Reuss Voigt Hill
#
# Bulk Modulus (GPa) = 32.92975 37.02645 34.97810
# Shear Modulus (GPa) = 20.02455 26.34440 23.18447
#
# Velocity S-wave (km/s) = 3.10311 3.55927 3.33899
# Velocity P-wave (km/s) = 5.35483 5.89036 5.62896
#
# Compressibility (1/GPa) = 0.03036768
#
# Stress axis : x y z
#
# Youngs Moduli (GPa) = 46.46999 80.43313 79.38503
#
# Poissons Ratio (x) = 0.44397 -0.01574
# Poissons Ratio (y) = 0.25650 0.21982
# Poissons Ratio (z) = -0.00921 0.22272
#
# Static dielectric constant tensor:
#      x y z
#    x 1.737280 0.000000 -0.000540 
#    y 0.000000 1.775940 0.000000 
#    z -0.000540 0.000000 1.786080 
# 
# From -- ./inp_files/180975.got.cif
#   From: 2010.05.17/outbox.cif.g08.bks.cpg/sg15_91_cif.got.tgz:180975.got - 2010.06.03 18:47:42.
