data_PCOD9285977
_publ_section_title
;
Structure prediction by ZEFSAII (Michael W. Deem and Ramdas Pophale) SiO2 
 PCOD9285977
Probable space group: C 2/C
;
_chemical_formula_sum "Si O2"
_cell_formula_units_Z 40
_cell_length_a 19.208598
_cell_length_b 12.166833
_cell_length_c 17.312188
_cell_angle_alpha 90.000000
_cell_angle_beta 153.314618
_cell_angle_gamma 90.000000
_cell_volume 1817.019467
_symmetry_space_group_name_H-M "C 2/C"
_symmetry_group_IT_number 15
_symmetry_cell_setting 'monoclinic'
loop_
_space_group_symop_operation_xyz
x,y,z
-x,y,1/2-z
-x,-y,-z
x,-y,1/2+z
1/2+x,1/2+y,z
1/2-x,1/2+y,1/2-z
1/2-x,1/2-y,-z
1/2+x,1/2-y,1/2+z
loop_
_atom_site_type_symbol
_atom_site_label
_atom_site_fract_x
_atom_site_fract_y
_atom_site_fract_z
Si Si1 0.674619 0.703443 0.754189
Si Si2 0.676312 0.427833 0.949896
Si Si3 0.395821 0.653595 0.572048
Si Si4 0.032614 0.372965 0.043778
Si Si5 0.897384 0.698691 0.570646
O O1 0.532227 0.630294 0.644406
O O2 0.586527 0.805455 0.628003
O O3 0.786290 0.749087 0.933000
O O4 0.792617 0.651287 0.810212
O O5 0.500000 0.442835 0.750000
O O6 0.711225 0.546173 0.020400
O O7 0.677253 0.320493 0.005855
O O8 0.771715 0.393391 0.968614
O O9 0.500000 0.683390 0.750000
O O10 0.992690 0.333061 0.090390
O O11 0.000000 0.500000 0.000000
O O12 0.000000 0.701280 0.750000
#
# Coordination Sequence:
#
# PCOD9285977 Si02
#       5
#     8   8   8   8   8
#     4  10  25  44  62 100 130 175 215 273 325 388
#     4   9  21  38  68  92 119 160 221 263 320 366
#     4  10  21  42  69  94 130 173 221 264 321 387
#     4  11  27  43  67  94 140 170 215 270 336 386
#     4  10  23  41  64  95 123 164 220 263 315 390
#
# _framework density 22.014073
#
# number of rings (size 3 to 8) (size 9 to 14) (size 15 to 20)
#    0.000    2.000    0.000    0.600   16.800    0.000 
#    0.000    4.000    0.000    0.000    0.000    0.000 
#    0.000    0.000    0.000    0.000    0.000    0.000 
#
# Total GULP energy -111662.462835 kJ/mol
# GULP energy per Si atom -5583.123142 kJ/mol
# Density = 2.196397 g / cm^3
# Si number density = 22.014073 Si / 1000 Ang^3
#
#
#
# Elastic Constant Matrix: (Units=GPa)
#
#
# Indices 1 2 3 4 5 6 
#
# 1 104.5279 18.4884 4.0810 0.0000 6.4480 0.0000
# 2 18.4884 69.4319 -7.7763 0.0000 2.0929 0.0000
# 3 4.0810 -7.7763 59.9625 0.0000 -1.1291 0.0000
# 4 0.0000 0.0000 0.0000 19.0656 0.0000 6.1149
# 5 6.4480 2.0929 -1.1291 0.0000 45.3677 0.0000
# 6 0.0000 0.0000 0.0000 6.1149 0.0000 19.2720
#
#
#
# Elastic Compliance Matrix: (Units=1/GPa)
#
#
# Indices 1 2 3 4 5 6 
#
# 1 0.010186 -0.002793 -0.001081 0.000000 -0.001346 0.000000
# 2 -0.002793 0.015398 0.002182 0.000000 -0.000259 0.000000
# 3 -0.001081 0.002182 0.017043 0.000000 0.000477 0.000000
# 4 0.000000 0.000000 0.000000 0.058393 0.000000 -0.018528
# 5 -0.001346 -0.000259 0.000477 0.000000 0.022257 0.000000
# 6 0.000000 0.000000 0.000000 -0.018528 0.000000 0.057767
#
#
# Mechanical properties :
#
#
# Convention : Reuss Voigt Hill
#
# Bulk Modulus (GPa) = 25.48143 29.27871 27.38007
# Shear Modulus (GPa) = 25.31531 31.34969 28.33250
#
# Velocity S-wave (km/s) = 3.39479 3.77779 3.59139
# Velocity P-wave (km/s) = 5.19291 5.68839 5.44628
#
# Compressibility (1/GPa) = 0.03924426
#
# Stress axis : x y z
#
# Youngs Moduli (GPa) = 98.17375 64.94146 58.67639
#
# Poissons Ratio (x) = 0.18137 0.06342
# Poissons Ratio (y) = 0.27418 -0.12804
# Poissons Ratio (z) = 0.10610 -0.14171
#
# Static dielectric constant tensor:
#      x y z
#    x 1.846850 0.000000 0.004680 
#    y 0.000000 1.843010 0.000000 
#    z 0.004680 0.000000 1.837490 
# 
# From -- ./inp_files/54231.got.cif
#   From: 2010.05.17/outbox.cif.g08.bks.cpg/sg15_28_cif.got.tgz:54231.got - 2010.06.03 18:47:42.
