data_PCOD9285777
_publ_section_title
;
Structure prediction by ZEFSAII (Michael W. Deem and Ramdas Pophale) SiO2 
 PCOD9285777
Probable space group: C 2/C
;
_chemical_formula_sum "Si O2"
_cell_formula_units_Z 44
_cell_length_a 11.125058
_cell_length_b 10.813638
_cell_length_c 22.064008
_cell_angle_alpha 90.000000
_cell_angle_beta 138.702313
_cell_angle_gamma 90.000000
_cell_volume 1751.796252
_symmetry_space_group_name_H-M "C 2/C"
_symmetry_group_IT_number 15
_symmetry_cell_setting 'monoclinic'
loop_
_space_group_symop_operation_xyz
x,y,z
-x,y,1/2-z
-x,-y,-z
x,-y,1/2+z
1/2+x,1/2+y,z
1/2-x,1/2+y,1/2-z
1/2-x,1/2-y,-z
1/2+x,1/2-y,1/2+z
loop_
_atom_site_type_symbol
_atom_site_label
_atom_site_fract_x
_atom_site_fract_y
_atom_site_fract_z
Si Si1 0.145305 0.869360 0.933464
Si Si2 0.175253 0.286958 0.221901
Si Si3 0.250191 0.752674 0.427402
Si Si4 0.091763 0.487161 0.892674
Si Si5 0.000000 0.846379 0.250000
Si Si6 0.876552 0.329662 0.908328
O O1 0.234255 0.883087 0.901102
O O2 0.937367 0.834227 0.842353
O O3 0.250000 0.750000 0.000000
O O4 0.213285 0.971530 0.006330
O O5 0.322810 0.312210 0.225869
O O6 0.276951 0.259702 0.323250
O O7 0.029040 0.397971 0.175573
O O8 0.250000 0.750000 0.500000
O O9 0.139526 0.628340 0.367059
O O10 0.461690 0.763906 0.492710
O O11 0.131631 0.865674 0.358188
O O12 0.973024 0.433570 0.903742
#
# Coordination Sequence:
#
# PCOD9285777 Si02
#       6
#     8   8   8   8   4   8
#     4  10  22  42  65  97 134 174 221 282 333 394
#     4  11  24  43  66 101 136 175 224 280 336 398
#     4  10  21  42  66  97 134 173 220 272 328 402
#     4  10  22  43  68 101 130 176 232 272 337 406
#     4  12  22  46  68  94 142 176 220 280 334 404
#     4  11  22  46  68  98 138 175 227 278 337 405
#
# _framework density 25.117076999999998
#
# number of rings (size 3 to 8) (size 9 to 14) (size 15 to 20)
#    0.000    1.455    3.636    3.273    0.000    2.909 
#    9.818    4.545    0.000    0.000    0.000    0.000 
#    0.000    0.000    0.000    0.000    0.000    0.000 
#
# Total GULP energy -122622.366612 kJ/mol
# GULP energy per Si atom -5573.743937 kJ/mol
# Density = 2.505991 g / cm^3
# Si number density = 25.117077 Si / 1000 Ang^3
#
#
#
# Elastic Constant Matrix: (Units=GPa)
#
#
# Indices 1 2 3 4 5 6 
#
# 1 77.9393 17.5080 17.3239 0.0000 22.3688 0.0000
# 2 17.5080 90.6188 24.5373 0.0000 15.9875 0.0000
# 3 17.3239 24.5373 156.4138 0.0000 19.0725 0.0000
# 4 0.0000 0.0000 0.0000 17.2399 0.0000 8.9108
# 5 22.3688 15.9875 19.0725 0.0000 36.3171 0.0000
# 6 0.0000 0.0000 0.0000 8.9108 0.0000 18.1962
#
#
#
# Elastic Compliance Matrix: (Units=1/GPa)
#
#
# Indices 1 2 3 4 5 6 
#
# 1 0.015787 -0.001360 -0.000451 0.000000 -0.008888 0.000000
# 2 -0.001360 0.012342 -0.001309 0.000000 -0.003908 0.000000
# 3 -0.000451 -0.001309 0.006992 0.000000 -0.002818 0.000000
# 4 0.000000 0.000000 0.000000 0.077663 0.000000 -0.038032
# 5 -0.008888 -0.003908 -0.002818 0.000000 0.036210 0.000000
# 6 0.000000 0.000000 0.000000 -0.038032 0.000000 0.073581
#
#
# Mechanical properties :
#
#
# Convention : Reuss Voigt Hill
#
# Bulk Modulus (GPa) = 34.62495 49.30112 41.96304
# Shear Modulus (GPa) = 20.96942 32.05749 26.51346
#
# Velocity S-wave (km/s) = 2.89254 3.57644 3.25252
# Velocity P-wave (km/s) = 4.99711 6.06017 5.55413
#
# Compressibility (1/GPa) = 0.02888091
#
# Stress axis : x y z
#
# Youngs Moduli (GPa) = 63.34233 81.02482 143.01583
#
# Poissons Ratio (x) = 0.11018 0.06456
# Poissons Ratio (y) = 0.08613 0.18720
# Poissons Ratio (z) = 0.02859 0.10606
#
# Static dielectric constant tensor:
#      x y z
#    x 1.975780 0.000000 -0.019910 
#    y 0.000000 2.152270 0.000000 
#    z -0.019910 0.000000 2.069240 
# 
# From -- ./inp_files/269359.got.cif
#   From: 2010.05.17/outbox.cif.g08.bks.cpg/sg15_135_cif.got.tgz:269359.got - 2010.06.03 18:47:42.
