data_PCOD9285781
_publ_section_title
;
Structure prediction by ZEFSAII (Michael W. Deem and Ramdas Pophale) SiO2 
 PCOD9285781
Probable space group: C 2/C
;
_chemical_formula_sum "Si O2"
_cell_formula_units_Z 56
_cell_length_a 8.138180
_cell_length_b 30.270948
_cell_length_c 15.574001
_cell_angle_alpha 90.000000
_cell_angle_beta 142.163333
_cell_angle_gamma 90.000000
_cell_volume 2353.456639
_symmetry_space_group_name_H-M "C 2/C"
_symmetry_group_IT_number 15
_symmetry_cell_setting 'monoclinic'
loop_
_space_group_symop_operation_xyz
x,y,z
-x,y,1/2-z
-x,-y,-z
x,-y,1/2+z
1/2+x,1/2+y,z
1/2-x,1/2+y,1/2-z
1/2-x,1/2-y,-z
1/2+x,1/2-y,1/2+z
loop_
_atom_site_type_symbol
_atom_site_label
_atom_site_fract_x
_atom_site_fract_y
_atom_site_fract_z
Si Si1 0.042246 0.317094 0.165893
Si Si2 0.815120 0.752300 0.898029
Si Si3 0.500000 0.453209 0.750000
Si Si4 0.850422 0.083849 0.510831
Si Si5 0.640301 0.678240 0.948569
Si Si6 0.260712 0.595656 0.992065
Si Si7 0.746996 0.467757 0.274159
Si Si8 0.000000 0.475632 0.750000
O O1 0.037201 0.268313 0.122612
O O2 0.356584 0.330066 0.285049
O O3 0.000000 0.316809 0.250000
O O4 0.853549 0.354564 0.047488
O O5 0.500000 0.760310 0.750000
O O6 0.818027 0.712151 0.967864
O O7 0.919935 0.796008 0.987228
O O8 0.443909 0.422680 0.644855
O O9 0.269084 0.490244 0.669457
O O10 0.728848 0.131310 0.482968
O O11 0.628981 0.053568 0.376828
O O12 0.078020 0.092490 0.531460
O O13 0.983715 0.061795 0.649315
O O14 0.002922 0.563436 0.886727
O O15 0.771558 0.493238 0.193229
#
# Coordination Sequence:
#
# PCOD9285781 Si02
#       8
#     8   8   4   8   8   8   8   4
#     4  11  21  41  71  97 130 177 219 268 333 405
#     4   9  22  41  67  99 139 167 220 277 334 402
#     4  12  28  40  62 102 142 172 226 284 350 382
#     4  12  23  42  71  95 131 176 230 274 334 405
#     4  10  21  42  66  98 129 177 216 274 333 395
#     4  12  23  45  64  96 138 175 223 289 332 401
#     4  12  23  44  68  94 128 181 224 282 329 400
#     4  12  24  38  66  92 128 172 226 270 334 390
#
# _framework density 23.794788
#
# number of rings (size 3 to 8) (size 9 to 14) (size 15 to 20)
#    0.000    0.857    5.714    1.714    1.000    2.857 
#    0.000    0.000    0.000    0.000    0.000    0.000 
#    0.000    0.000    0.000    0.000    0.000    0.000 
#
# Total GULP energy -156559.943178 kJ/mol
# GULP energy per Si atom -5591.426542 kJ/mol
# Density = 2.374063 g / cm^3
# Si number density = 23.794788 Si / 1000 Ang^3
#
#
#
# Elastic Constant Matrix: (Units=GPa)
#
#
# Indices 1 2 3 4 5 6 
#
# 1 44.5096 9.7830 4.4958 0.0000 -4.9684 0.0000
# 2 9.7830 113.3703 38.8967 0.0000 -5.1807 0.0000
# 3 4.4958 38.8967 89.0024 0.0000 -6.6237 0.0000
# 4 0.0000 0.0000 0.0000 39.9673 0.0000 1.4328
# 5 -4.9684 -5.1807 -6.6237 0.0000 32.6124 0.0000
# 6 0.0000 0.0000 0.0000 1.4328 0.0000 26.1997
#
#
#
# Elastic Compliance Matrix: (Units=1/GPa)
#
#
# Indices 1 2 3 4 5 6 
#
# 1 0.023239 -0.001809 -0.000143 0.000000 0.003224 0.000000
# 2 -0.001809 0.010535 -0.004476 0.000000 0.000489 0.000000
# 3 -0.000143 -0.004476 0.013346 0.000000 0.001978 0.000000
# 4 0.000000 0.000000 0.000000 0.025070 0.000000 -0.001371
# 5 0.003224 0.000489 0.001978 0.000000 0.031634 0.000000
# 6 0.000000 0.000000 0.000000 -0.001371 0.000000 0.038243
#
#
# Mechanical properties :
#
#
# Convention : Reuss Voigt Hill
#
# Bulk Modulus (GPa) = 29.18590 39.24815 34.21702
# Shear Modulus (GPa) = 30.05800 32.66965 31.36382
#
# Velocity S-wave (km/s) = 3.55803 3.70939 3.63450
# Velocity P-wave (km/s) = 5.40109 5.90562 5.65898
#
# Compressibility (1/GPa) = 0.03426312
#
# Stress axis : x y z
#
# Youngs Moduli (GPa) = 43.03111 94.92288 74.92676
#
# Poissons Ratio (x) = 0.17170 0.01075
# Poissons Ratio (y) = 0.07783 0.33540
# Poissons Ratio (z) = 0.00617 0.42490
#
# Static dielectric constant tensor:
#      x y z
#    x 2.086810 0.000000 0.016460 
#    y 0.000000 1.876700 0.000000 
#    z 0.016460 0.000000 1.883980 
# 
# From -- ./inp_files/81314.got.cif
#   From: 2010.05.17/outbox.cif.g08.bks.cpg/sg15_41_cif.got.tgz:81314.got - 2010.06.03 18:47:42.
