data_PCOD9285348
_publ_section_title
;
Structure prediction by ZEFSAII (Michael W. Deem and Ramdas Pophale) SiO2 
 PCOD9285348
Probable space group: C 2/C
;
_chemical_formula_sum "Si O2"
_cell_formula_units_Z 40
_cell_length_a 7.201163
_cell_length_b 24.258185
_cell_length_c 10.700541
_cell_angle_alpha 90.000000
_cell_angle_beta 79.903769
_cell_angle_gamma 90.000000
_cell_volume 1840.301125
_symmetry_space_group_name_H-M "C 2/C"
_symmetry_group_IT_number 15
_symmetry_cell_setting 'monoclinic'
loop_
_space_group_symop_operation_xyz
x,y,z
-x,y,1/2-z
-x,-y,-z
x,-y,1/2+z
1/2+x,1/2+y,z
1/2-x,1/2+y,1/2-z
1/2-x,1/2-y,-z
1/2+x,1/2-y,1/2+z
loop_
_atom_site_type_symbol
_atom_site_label
_atom_site_fract_x
_atom_site_fract_y
_atom_site_fract_z
Si Si1 0.123104 0.069971 0.361442
Si Si2 0.145061 0.335148 0.564780
Si Si3 0.009476 0.784060 0.390159
Si Si4 0.371909 0.555823 0.642081
Si Si5 0.119961 0.656079 0.626572
O O1 0.283224 0.116841 0.352480
O O2 0.000000 0.077962 0.250000
O O3 0.990974 0.070434 0.502024
O O4 0.198251 0.007226 0.353842
O O5 0.025372 0.281187 0.615862
O O6 0.338471 0.309759 0.487444
O O7 0.017081 0.359161 0.469655
O O8 0.000000 0.806441 0.250000
O O9 0.206064 0.803847 0.425002
O O10 0.500000 0.559849 0.750000
O O11 0.209130 0.600454 0.668865
O O12 0.000000 0.684748 0.750000
#
# Coordination Sequence:
#
# PCOD9285348 Si02
#       5
#     8   8   8   8   8
#     4  10  22  43  68  99 137 179 214 279 348 393
#     4  11  24  41  66  94 131 176 222 277 335 403
#     4  11  23  44  61  94 133 172 227 279 334 394
#     4  10  21  41  70  99 136 174 222 276 335 400
#     4  12  22  39  70  98 127 176 230 280 329 402
#
# _framework density 21.735575000000001
#
# number of rings (size 3 to 8) (size 9 to 14) (size 15 to 20)
#    0.000    1.200    4.000    2.400    0.000    2.400 
#    7.200    1.000    0.000    0.000    0.000    0.000 
#    0.000    0.000    0.000    0.000    0.000    0.000 
#
# Total GULP energy -111727.961443 kJ/mol
# GULP energy per Si atom -5586.398072 kJ/mol
# Density = 2.168610 g / cm^3
# Si number density = 21.735575 Si / 1000 Ang^3
#
#
#
# Elastic Constant Matrix: (Units=GPa)
#
#
# Indices 1 2 3 4 5 6 
#
# 1 123.7895 63.8400 27.6027 0.0000 14.7261 0.0000
# 2 63.8400 164.0161 13.0730 0.0000 17.5371 0.0000
# 3 27.6027 13.0730 77.0427 0.0000 20.1276 0.0000
# 4 0.0000 0.0000 0.0000 16.3203 0.0000 13.3777
# 5 14.7261 17.5371 20.1276 0.0000 32.4695 0.0000
# 6 0.0000 0.0000 0.0000 13.3777 0.0000 29.9314
#
#
#
# Elastic Compliance Matrix: (Units=1/GPa)
#
#
# Indices 1 2 3 4 5 6 
#
# 1 0.010863 -0.003886 -0.002976 0.000000 -0.000983 0.000000
# 2 -0.003886 0.007864 0.000844 0.000000 -0.003008 0.000000
# 3 -0.002976 0.000844 0.016311 0.000000 -0.009217 0.000000
# 4 0.000000 0.000000 0.000000 0.096701 0.000000 -0.043220
# 5 -0.000983 -0.003008 -0.009217 0.000000 0.038582 0.000000
# 6 0.000000 0.000000 0.000000 -0.043220 0.000000 0.052727
#
#
# Mechanical properties :
#
#
# Convention : Reuss Voigt Hill
#
# Bulk Modulus (GPa) = 43.47492 63.76441 53.61966
# Shear Modulus (GPa) = 20.59729 33.09974 26.84851
#
# Velocity S-wave (km/s) = 3.08170 3.90659 3.51840
# Velocity P-wave (km/s) = 5.71906 7.05327 6.42092
#
# Compressibility (1/GPa) = 0.02300177
#
# Stress axis : x y z
#
# Youngs Moduli (GPa) = 92.05864 127.16518 61.30936
#
# Poissons Ratio (x) = 0.49413 0.18243
# Poissons Ratio (y) = 0.35772 -0.05172
# Poissons Ratio (z) = 0.27393 -0.10728
#
# Static dielectric constant tensor:
#      x y z
#    x 0.000000 0.000000 0.000000 
#    y 0.000000 0.000000 0.000000 
#    z 0.000000 0.000000 0.000000 
# 
# From -- ./inp_files/73092.got.cif
#   From: 2010.05.17/outbox.cif.g08.bks.cpg/sg15_37_cif.got.tgz:73092.got - 2010.06.03 18:47:42.
