data_PCOD9285573
_publ_section_title
;
Structure prediction by ZEFSAII (Michael W. Deem and Ramdas Pophale) SiO2 
 PCOD9285573
Probable space group: C 2/C
;
_chemical_formula_sum "Si O2"
_cell_formula_units_Z 44
_cell_length_a 20.156693
_cell_length_b 8.681435
_cell_length_c 14.029515
_cell_angle_alpha 90.000000
_cell_angle_beta 58.639611
_cell_angle_gamma 90.000000
_cell_volume 2096.360451
_symmetry_space_group_name_H-M "C 2/C"
_symmetry_group_IT_number 15
_symmetry_cell_setting 'monoclinic'
loop_
_space_group_symop_operation_xyz
x,y,z
-x,y,1/2-z
-x,-y,-z
x,-y,1/2+z
1/2+x,1/2+y,z
1/2-x,1/2+y,1/2-z
1/2-x,1/2-y,-z
1/2+x,1/2-y,1/2+z
loop_
_atom_site_type_symbol
_atom_site_label
_atom_site_fract_x
_atom_site_fract_y
_atom_site_fract_z
Si Si1 0.916024 0.317410 0.866149
Si Si2 0.500000 0.379563 0.750000
Si Si3 0.766193 0.814357 0.830531
Si Si4 0.133220 0.666242 0.587038
Si Si5 0.018240 0.891612 0.400386
Si Si6 0.679337 0.330614 0.227733
O O1 0.891079 0.489876 0.905287
O O2 0.057062 0.211831 0.565946
O O3 0.848205 0.241338 0.852640
O O4 0.000000 0.325008 0.750000
O O5 0.558351 0.275620 0.645951
O O6 0.462962 0.497387 0.703271
O O7 0.828450 0.705865 0.838447
O O8 0.744415 0.756500 0.741232
O O9 0.793870 0.992261 0.804782
O O10 0.693409 0.801050 0.957632
O O11 0.100205 0.807318 0.349317
O O12 0.000000 0.000000 0.500000
#
# Coordination Sequence:
#
# PCOD9285573 Si02
#       6
#     8   4   8   8   8   8
#     4  10  21  42  64  91 128 164 217 269 318 378
#     4  12  20  44  68  90 136 168 212 280 316 372
#     4  11  24  40  63  96 132 171 215 260 336 392
#     4  11  23  41  66  95 129 171 216 272 324 385
#     4  11  22  40  67  94 125 171 218 261 326 386
#     4  11  22  41  60  89 133 169 209 268 319 391
#
# _framework density 20.988757
#
# number of rings (size 3 to 8) (size 9 to 14) (size 15 to 20)
#    0.000    1.091    5.455    2.182    0.000    3.636 
#    3.273    2.727    0.000    0.000    0.000    0.000 
#    0.000    0.000    0.000    0.000    0.000    0.000 
#
# Total GULP energy -122717.140316 kJ/mol
# GULP energy per Si atom -5578.051833 kJ/mol
# Density = 2.094099 g / cm^3
# Si number density = 20.988757 Si / 1000 Ang^3
#
#
#
# Elastic Constant Matrix: (Units=GPa)
#
#
# Indices 1 2 3 4 5 6 
#
# 1 93.3490 38.4894 -0.9564 0.0001 6.8364 0.0000
# 2 38.4894 113.8706 -4.3023 0.0004 3.3349 0.0000
# 3 -0.9564 -4.3023 13.1115 0.0000 -1.7939 0.0000
# 4 0.0001 0.0004 0.0000 347.0969 0.0000 -59.8491
# 5 6.8364 3.3349 -1.7939 0.0000 25.6099 0.0000
# 6 0.0000 0.0000 0.0000 -59.8491 0.0000 52.3614
#
#
#
# Elastic Compliance Matrix: (Units=1/GPa)
#
#
# Indices 1 2 3 4 5 6 
#
# 1 0.012658 -0.004226 -0.000859 0.000000 -0.002889 0.000000
# 2 -0.004226 0.010327 0.003080 0.000000 -0.000001 0.000000
# 3 -0.000859 0.003080 0.077941 0.000000 0.005288 0.000000
# 4 0.000000 0.000000 0.000000 0.003588 0.000000 0.004101
# 5 -0.002889 -0.000001 0.005288 0.000000 0.040189 0.000000
# 6 0.000000 0.000000 0.000000 0.004101 0.000000 0.023786
#
#
# Mechanical properties :
#
#
# Convention : Reuss Voigt Hill
#
# Bulk Modulus (GPa) = 10.31826 31.86584 21.09205
# Shear Modulus (GPa) = 24.41368 97.48700 60.95034
#
# Velocity S-wave (km/s) = 3.41424 6.82262 5.39468
# Velocity P-wave (km/s) = 4.52432 8.79087 6.99103
#
# Compressibility (1/GPa) = 0.09691554
#
# Stress axis : x y z
#
# Youngs Moduli (GPa) = 79.00248 96.83512 12.83028
#
# Poissons Ratio (x) = 0.40926 0.01102
# Poissons Ratio (y) = 0.33389 -0.03952
# Poissons Ratio (z) = 0.06784 -0.29827
#
# Static dielectric constant tensor:
#      x y z
#    x 1.871620 0.000000 0.058020 
#    y 0.000000 1.731640 0.000000 
#    z 0.058020 0.000000 1.781630 
# 
# From -- ./inp_files/166056.got.cif
#   From: 2010.05.17/outbox.cif.g08.bks.cpg/sg15_84_cif.got.tgz:166056.got - 2010.06.03 18:47:42.
