data_PCOD9285036
_publ_section_title
;
Structure prediction by ZEFSAII (Michael W. Deem and Ramdas Pophale) SiO2 
 PCOD9285036
Probable space group: C 2/C
;
_chemical_formula_sum "Si O2"
_cell_formula_units_Z 64
_cell_length_a 9.190188
_cell_length_b 27.275629
_cell_length_c 16.277334
_cell_angle_alpha 90.000000
_cell_angle_beta 138.109167
_cell_angle_gamma 90.000000
_cell_volume 2724.410699
_symmetry_space_group_name_H-M "C 2/C"
_symmetry_group_IT_number 15
_symmetry_cell_setting 'monoclinic'
loop_
_space_group_symop_operation_xyz
x,y,z
-x,y,1/2-z
-x,-y,-z
x,-y,1/2+z
1/2+x,1/2+y,z
1/2-x,1/2+y,1/2-z
1/2-x,1/2-y,-z
1/2+x,1/2-y,1/2+z
loop_
_atom_site_type_symbol
_atom_site_label
_atom_site_fract_x
_atom_site_fract_y
_atom_site_fract_z
Si Si1 0.940936 0.659541 0.458056
Si Si2 0.591132 0.768835 0.699016
Si Si3 0.591312 0.295503 0.920385
Si Si4 0.338740 0.655921 0.748178
Si Si5 0.758029 0.444830 0.857424
Si Si6 0.723596 0.141215 0.868084
Si Si7 0.776964 0.046140 0.973263
Si Si8 0.780118 0.537891 0.185849
O O1 0.006845 0.698587 0.415657
O O2 0.707443 0.674073 0.397780
O O3 0.906147 0.604002 0.413301
O O4 0.114070 0.662980 0.604652
O O5 0.500000 0.783106 0.750000
O O6 0.573315 0.709749 0.687333
O O7 0.847307 0.780280 0.802205
O O8 0.750000 0.250000 0.000000
O O9 0.611333 0.326213 0.012110
O O10 0.500000 0.633364 0.750000
O O11 0.322177 0.624858 0.823401
O O12 0.500000 0.431610 0.750000
O O13 0.798695 0.474814 0.790644
O O14 0.786183 0.467874 0.960142
O O15 0.500000 0.169240 0.750000
O O16 0.658230 0.095643 0.896671
O O17 0.730351 0.006180 0.884270
O O18 0.036067 0.059842 0.078165
O O19 0.000000 0.566252 0.250000
#
# Coordination Sequence:
#
# PCOD9285036 Si02
#       8
#     8   8   8   8   8   8   8   8
#     4  12  23  42  65  92 126 173 222 274 325 386
#     4  11  26  41  62  92 132 176 218 274 338 385
#     4  12  22  40  66  97 125 170 227 273 314 390
#     4  11  26  42  59  92 133 176 217 272 332 393
#     4  10  21  41  66  96 132 164 217 274 329 394
#     4  12  22  41  68  93 126 171 222 271 321 391
#     4  10  22  43  68  94 130 175 212 269 342 391
#     4  10  23  41  65  99 130 167 215 271 332 410
#
# _framework density 23.491320000000002
#
# number of rings (size 3 to 8) (size 9 to 14) (size 15 to 20)
#    0.000    1.000    3.750    2.250    3.500    3.000 
#    0.000    3.125    0.000    0.000    0.000    0.000 
#    0.000    0.000    0.000    0.000    0.000    0.000 
#
# Total GULP energy -178818.252702 kJ/mol
# GULP energy per Si atom -5588.070397 kJ/mol
# Density = 2.343785 g / cm^3
# Si number density = 23.491320 Si / 1000 Ang^3
#
#
#
# Elastic Constant Matrix: (Units=GPa)
#
#
# Indices 1 2 3 4 5 6 
#
# 1 131.6284 1.6919 39.5980 0.0000 -29.8094 0.0000
# 2 1.6919 38.8545 31.9459 0.0000 -18.3897 0.0000
# 3 39.5980 31.9459 106.2901 0.0000 -33.6449 0.0000
# 4 0.0000 0.0000 0.0000 20.1764 0.0000 -10.2859
# 5 -29.8094 -18.3897 -33.6449 0.0000 56.5348 0.0000
# 6 0.0000 0.0000 0.0000 -10.2859 0.0000 11.4972
#
#
#
# Elastic Compliance Matrix: (Units=1/GPa)
#
#
# Indices 1 2 3 4 5 6 
#
# 1 0.009618 0.004617 -0.003561 0.000000 0.004454 0.000000
# 2 0.004617 0.038240 -0.010479 0.000000 0.008637 0.000000
# 3 -0.003561 -0.010479 0.015045 0.000000 0.003667 0.000000
# 4 0.000000 0.000000 0.000000 0.091123 0.000000 0.081522
# 5 0.004454 0.008637 0.003667 0.000000 0.025029 0.000000
# 6 0.000000 0.000000 0.000000 0.081522 0.000000 0.159911
#
#
# Mechanical properties :
#
#
# Convention : Reuss Voigt Hill
#
# Bulk Modulus (GPa) = 22.69830 47.02718 34.86274
# Shear Modulus (GPa) = 13.42293 31.21082 22.31687
#
# Velocity S-wave (km/s) = 2.39299 3.64897 3.08556
# Velocity P-wave (km/s) = 4.16156 6.14945 5.25044
#
# Compressibility (1/GPa) = 0.04405617
#
# Stress axis : x y z
#
# Youngs Moduli (GPa) = 103.97547 26.15085 66.46615
#
# Poissons Ratio (x) = -0.12074 0.23667
# Poissons Ratio (y) = -0.48004 0.69651
# Poissons Ratio (z) = 0.37024 0.27404
#
# Static dielectric constant tensor:
#      x y z
#    x 1.903080 0.000000 0.019180 
#    y 0.000000 1.895500 0.000000 
#    z 0.019180 0.000000 1.890990 
# 
# From -- ./inp_files/139831.got.cif
#   From: 2010.05.17/outbox.cif.g08.bks.cpg/sg15_70_cif.got.tgz:139831.got - 2010.06.03 18:47:42.
