data_PCOD9285707
_publ_section_title
;
Structure prediction by ZEFSAII (Michael W. Deem and Ramdas Pophale) SiO2 
 PCOD9285707
Probable space group: C 2/C
;
_chemical_formula_sum "Si O2"
_cell_formula_units_Z 56
_cell_length_a 5.087846
_cell_length_b 24.816490
_cell_length_c 19.294569
_cell_angle_alpha 90.000000
_cell_angle_beta 92.994894
_cell_angle_gamma 90.000000
_cell_volume 2432.852773
_symmetry_space_group_name_H-M "C 2/C"
_symmetry_group_IT_number 15
_symmetry_cell_setting 'monoclinic'
loop_
_space_group_symop_operation_xyz
x,y,z
-x,y,1/2-z
-x,-y,-z
x,-y,1/2+z
1/2+x,1/2+y,z
1/2-x,1/2+y,1/2-z
1/2-x,1/2-y,-z
1/2+x,1/2-y,1/2+z
loop_
_atom_site_type_symbol
_atom_site_label
_atom_site_fract_x
_atom_site_fract_y
_atom_site_fract_z
Si Si1 0.500000 0.187334 0.750000
Si Si2 0.627555 0.112124 0.865253
Si Si3 0.385593 0.336138 0.077570
Si Si4 0.000000 0.419657 0.750000
Si Si5 0.355129 0.760800 0.673847
Si Si6 0.232477 0.358668 0.927445
Si Si7 0.758809 0.082257 0.118936
Si Si8 0.885878 0.994592 0.321667
O O1 0.683963 0.145737 0.794641
O O2 0.594611 0.228551 0.692697
O O3 0.329729 0.127575 0.882797
O O4 0.706246 0.050696 0.853407
O O5 0.839713 0.132626 0.923342
O O6 0.459611 0.281237 0.118173
O O7 0.259663 0.328422 0.000713
O O8 0.193244 0.394636 0.695607
O O9 0.192744 0.456573 0.798472
O O10 0.500000 0.765055 0.750000
O O11 0.322322 0.816762 0.635048
O O12 0.507264 0.385896 0.913238
O O13 0.005755 0.404196 0.926534
O O14 0.873381 0.021884 0.132625
O O15 0.000000 0.973661 0.250000
#
# Coordination Sequence:
#
# PCOD9285707 Si02
#       8
#     4   8   8   4   8   8   8   8
#     4  10  23  42  66 114 136 168 230 307 348 426
#     4  11  24  42  74  98 143 175 230 287 361 403
#     4  11  26  48  65 103 141 187 231 285 348 430
#     4  10  21  42  66 102 142 168 228 303 332 400
#     4  11  25  43  72 104 137 175 237 297 350 407
#     4  12  27  45  72  95 145 196 228 278 354 419
#     4  11  25  44  68 102 141 180 243 281 341 422
#     4  10  23  39  71 106 137 180 229 297 360 401
#
# _framework density 23.018242999999998
#
# number of rings (size 3 to 8) (size 9 to 14) (size 15 to 20)
#    0.000    1.143    2.857    1.714   11.000    0.000 
#    0.000    7.857    0.000    0.000    0.000    0.000 
#    0.000    0.000    0.000    0.000    0.000    0.000 
#
# Total GULP energy -156215.529342 kJ/mol
# GULP energy per Si atom -5579.126048 kJ/mol
# Density = 2.296585 g / cm^3
# Si number density = 23.018243 Si / 1000 Ang^3
#
#
#
# Elastic Constant Matrix: (Units=GPa)
#
#
# Indices 1 2 3 4 5 6 
#
# 1 104.6855 14.0248 13.3843 0.0000 4.2048 0.0000
# 2 14.0248 57.3442 26.8705 0.0000 0.6655 0.0000
# 3 13.3843 26.8705 77.8737 0.0000 13.9767 0.0000
# 4 0.0000 0.0000 0.0000 3.0898 0.0000 -1.2430
# 5 4.2048 0.6655 13.9767 0.0000 37.3556 0.0000
# 6 0.0000 0.0000 0.0000 -1.2430 0.0000 23.7163
#
#
#
# Elastic Compliance Matrix: (Units=1/GPa)
#
#
# Indices 1 2 3 4 5 6 
#
# 1 0.009966 -0.002015 -0.000882 0.000000 -0.000756 0.000000
# 2 -0.002015 0.021426 -0.007524 0.000000 0.002660 0.000000
# 3 -0.000882 -0.007524 0.016666 0.000000 -0.006003 0.000000
# 4 0.000000 0.000000 0.000000 0.330620 0.000000 0.017328
# 5 -0.000756 0.002660 -0.006003 0.000000 0.029053 0.000000
# 6 0.000000 0.000000 0.000000 0.017328 0.000000 0.043073
#
#
# Mechanical properties :
#
#
# Convention : Reuss Voigt Hill
#
# Bulk Modulus (GPa) = 36.74369 38.71805 37.73087
# Shear Modulus (GPa) = 10.40108 25.20726 17.80417
#
# Velocity S-wave (km/s) = 2.12801 3.31282 2.78417
# Velocity P-wave (km/s) = 4.69419 5.61161 5.17328
#
# Compressibility (1/GPa) = 0.02721556
#
# Stress axis : x y z
#
# Youngs Moduli (GPa) = 100.34610 46.67149 60.00073
#
# Poissons Ratio (x) = 0.09406 0.05290
# Poissons Ratio (y) = 0.20223 0.45146
# Poissons Ratio (z) = 0.08848 0.35117
#
# Static dielectric constant tensor:
#      x y z
#    x 1.914890 0.000000 -0.021910 
#    y 0.000000 1.864340 0.000000 
#    z -0.021910 0.000000 1.913750 
# 
# From -- ./inp_files/227922.got.cif
#   From: 2010.05.17/outbox.cif.g08.bks.cpg/sg15_114_cif.got.tgz:227922.got - 2010.06.03 18:47:42.
