data_PCOD9285131
_publ_section_title
;
Structure prediction by ZEFSAII (Michael W. Deem and Ramdas Pophale) SiO2 
 PCOD9285131
Probable space group: C 2/C
;
_chemical_formula_sum "Si O2"
_cell_formula_units_Z 40
_cell_length_a 21.773206
_cell_length_b 17.447980
_cell_length_c 12.007217
_cell_angle_alpha 90.000000
_cell_angle_beta 21.871881
_cell_angle_gamma 90.000000
_cell_volume 1699.315144
_symmetry_space_group_name_H-M "C 2/C"
_symmetry_group_IT_number 15
_symmetry_cell_setting 'monoclinic'
loop_
_space_group_symop_operation_xyz
x,y,z
-x,y,1/2-z
-x,-y,-z
x,-y,1/2+z
1/2+x,1/2+y,z
1/2-x,1/2+y,1/2-z
1/2-x,1/2-y,-z
1/2+x,1/2-y,1/2+z
loop_
_atom_site_type_symbol
_atom_site_label
_atom_site_fract_x
_atom_site_fract_y
_atom_site_fract_z
Si Si1 0.523443 0.877801 0.370639
Si Si2 0.129016 0.645747 0.942478
Si Si3 0.231130 0.484779 0.433280
Si Si4 0.258075 0.201758 0.173610
Si Si5 0.990753 0.093593 0.635991
O O1 0.546058 0.870299 0.463487
O O2 0.348769 0.851676 0.613414
O O3 0.648834 0.819261 0.096672
O O4 0.585281 0.961808 0.226604
O O5 0.189976 0.567888 0.897213
O O6 0.267767 0.709720 0.689489
O O7 0.000000 0.676903 0.250000
O O8 0.314468 0.428568 0.383395
O O9 0.373435 0.543264 0.157188
O O10 0.065521 0.178326 0.492012
O O11 0.000000 0.075128 0.750000
#
# Coordination Sequence:
#
# PCOD9285131 Si02
#       5
#     8   8   8   8   8
#     4  10  24  49  71  97 147 189 237 284 358 423
#     4  12  27  41  72 106 141 183 240 293 352 417
#     4  10  24  43  68 104 135 188 239 287 349 420
#     4  10  24  45  70 100 140 190 230 290 356 420
#     4  10  21  41  67  94 140 180 233 292 350 406
#
# _framework density 23.538893000000002
#
# number of rings (size 3 to 8) (size 9 to 14) (size 15 to 20)
#    0.000    1.600    0.000    2.400   11.200    1.600 
#   14.400    0.000    0.000    0.000    0.000    0.000 
#    0.000    0.000    0.000    0.000    0.000    0.000 
#
# Total GULP energy -111851.872565 kJ/mol
# GULP energy per Si atom -5592.593628 kJ/mol
# Density = 2.348532 g / cm^3
# Si number density = 23.538893 Si / 1000 Ang^3
#
#
#
# Elastic Constant Matrix: (Units=GPa)
#
#
# Indices 1 2 3 4 5 6 
#
# 1 175.9771 38.0740 39.2687 0.0022 18.8962 -0.0009
# 2 38.0740 120.5330 47.8497 0.0029 -5.5447 -0.0011
# 3 39.2687 47.8497 55.6122 0.0046 -2.0261 -0.0019
# 4 0.0022 0.0029 0.0046 33.8337 -0.0015 6.9284
# 5 18.8962 -5.5447 -2.0261 -0.0015 37.1517 0.0007
# 6 -0.0009 -0.0011 -0.0019 6.9284 0.0007 30.9051
#
#
#
# Elastic Compliance Matrix: (Units=1/GPa)
#
#
# Indices 1 2 3 4 5 6 
#
# 1 0.007321 -0.000591 -0.004810 0.000000 -0.004074 0.000000
# 2 -0.000591 0.012710 -0.010460 0.000001 0.001627 0.000000
# 3 -0.004810 -0.010460 0.030471 -0.000003 0.002547 0.000002
# 4 0.000000 0.000001 -0.000003 0.030979 0.000001 -0.006945
# 5 -0.004074 0.001627 0.002547 0.000001 0.029371 -0.000001
# 6 0.000000 0.000000 0.000002 -0.006945 -0.000001 0.033914
#
#
# Mechanical properties :
#
#
# Convention : Reuss Voigt Hill
#
# Bulk Modulus (GPa) = 53.24405 66.94526 60.09466
# Shear Modulus (GPa) = 27.36035 35.50675 31.43355
#
# Velocity S-wave (km/s) = 3.41302 3.88806 3.65826
# Velocity P-wave (km/s) = 6.18064 6.97553 6.59008
#
# Compressibility (1/GPa) = 0.01878144
#
# Stress axis : x y z
#
# Youngs Moduli (GPa) = 136.59142 78.67651 32.81852
#
# Poissons Ratio (x) = 0.04646 0.15785
# Poissons Ratio (y) = 0.08067 0.34328
# Poissons Ratio (z) = 0.65698 0.82295
#
# Static dielectric constant tensor:
#      x y z
#    x 1.870510 0.000000 -0.036250 
#    y 0.000000 1.918120 0.000000 
#    z -0.036250 0.000000 1.915500 
# 
# From -- ./inp_files/113578.got.cif
#   From: 2010.05.17/outbox.cif.g08.bks.cpg/sg15_57_cif.got.tgz:113578.got - 2010.06.03 18:47:42.
