data_PCOD9285512
_publ_section_title
;
Structure prediction by ZEFSAII (Michael W. Deem and Ramdas Pophale) SiO2 
 PCOD9285512
Probable space group: C 2/C
;
_chemical_formula_sum "Si O2"
_cell_formula_units_Z 36
_cell_length_a 15.567614
_cell_length_b 8.021108
_cell_length_c 20.269587
_cell_angle_alpha 90.000000
_cell_angle_beta 143.997574
_cell_angle_gamma 90.000000
_cell_volume 1487.802598
_symmetry_space_group_name_H-M "C 2/C"
_symmetry_group_IT_number 15
_symmetry_cell_setting 'monoclinic'
loop_
_space_group_symop_operation_xyz
x,y,z
-x,y,1/2-z
-x,-y,-z
x,-y,1/2+z
1/2+x,1/2+y,z
1/2-x,1/2+y,1/2-z
1/2-x,1/2-y,-z
1/2+x,1/2-y,1/2+z
loop_
_atom_site_type_symbol
_atom_site_label
_atom_site_fract_x
_atom_site_fract_y
_atom_site_fract_z
Si Si1 0.000000 0.009013 0.750000
Si Si2 0.778030 0.339880 0.869175
Si Si3 0.332364 0.997233 0.766427
Si Si4 0.420038 0.227767 0.093165
Si Si5 0.560858 0.314561 0.546209
O O1 0.850978 0.905020 0.664743
O O2 0.992110 0.125403 0.680596
O O3 0.815522 0.476801 0.835507
O O4 0.718272 0.172688 0.795263
O O5 0.929741 0.288070 0.999414
O O6 0.490254 0.940781 0.837077
O O7 0.220156 0.852406 0.672649
O O8 0.250000 0.250000 0.000000
O O9 0.435096 0.244793 0.024542
O O10 0.500000 0.500000 0.500000
#
# Coordination Sequence:
#
# PCOD9285512 Si02
#       5
#     4   8   8   8   8
#     4  12  24  40  60  94 126 152 202 254 298 360
#     4  10  22  39  64  92 120 159 200 248 303 357
#     4  10  21  42  63  86 122 162 202 246 299 361
#     4  11  24  40  61  87 120 161 201 248 301 353
#     4   9  19  38  61  84 115 155 195 239 296 355
#
# _framework density 24.196757000000002
#
# number of rings (size 3 to 8) (size 9 to 14) (size 15 to 20)
#    0.000    1.778    0.000    5.333    0.000    6.222 
#    0.000   12.222    0.000    0.000    0.000    0.000 
#    0.000    0.000    0.000    0.000    0.000    0.000 
#
# Total GULP energy -100590.210864 kJ/mol
# GULP energy per Si atom -5588.345048 kJ/mol
# Density = 2.414168 g / cm^3
# Si number density = 24.196757 Si / 1000 Ang^3
#
#
#
# Elastic Constant Matrix: (Units=GPa)
#
#
# Indices 1 2 3 4 5 6 
#
# 1 92.7153 27.0346 22.2397 0.0000 36.1228 0.0000
# 2 27.0346 105.8226 21.3991 0.0000 16.9179 0.0000
# 3 22.2397 21.3991 74.0723 0.0000 23.7082 0.0000
# 4 0.0000 0.0000 0.0000 40.4433 0.0000 4.7792
# 5 36.1228 16.9179 23.7082 0.0000 52.4541 0.0000
# 6 0.0000 0.0000 0.0000 4.7792 0.0000 43.1363
#
#
#
# Elastic Compliance Matrix: (Units=1/GPa)
#
#
# Indices 1 2 3 4 5 6 
#
# 1 0.015327 -0.002219 -0.000949 0.000000 -0.009410 0.000000
# 2 -0.002219 0.010590 -0.002092 0.000000 -0.000942 0.000000
# 3 -0.000949 -0.002092 0.016326 0.000000 -0.006051 0.000000
# 4 0.000000 0.000000 0.000000 0.025054 0.000000 -0.002776
# 5 -0.009410 -0.000942 -0.006051 0.000000 0.028584 0.000000
# 6 0.000000 0.000000 0.000000 -0.002776 0.000000 0.023490
#
#
# Mechanical properties :
#
#
# Convention : Reuss Voigt Hill
#
# Bulk Modulus (GPa) = 31.52190 45.99523 38.75857
# Shear Modulus (GPa) = 35.59618 40.66919 38.13268
#
# Velocity S-wave (km/s) = 3.83967 4.10417 3.97412
# Velocity P-wave (km/s) = 5.71953 6.44275 6.09188
#
# Compressibility (1/GPa) = 0.03172397
#
# Stress axis : x y z
#
# Youngs Moduli (GPa) = 65.24562 94.42610 61.25113
#
# Poissons Ratio (x) = 0.20956 0.05811
# Poissons Ratio (y) = 0.14480 0.12812
# Poissons Ratio (z) = 0.06190 0.19751
#
# Static dielectric constant tensor:
#      x y z
#    x 1.879660 0.000000 0.020770 
#    y 0.000000 2.083900 0.000000 
#    z 0.020770 0.000000 2.024760 
# 
# From -- ./inp_files/102453.got.cif
#   From: 2010.05.17/outbox.cif.g08.bks.cpg/sg15_52_cif.got.tgz:102453.got - 2010.06.03 18:47:42.
