data_PCOD9285198
_publ_section_title
;
Structure prediction by ZEFSAII (Michael W. Deem and Ramdas Pophale) SiO2 
 PCOD9285198
Probable space group: C 2/C
;
_chemical_formula_sum "Si O2"
_cell_formula_units_Z 48
_cell_length_a 16.428207
_cell_length_b 12.042889
_cell_length_c 25.932162
_cell_angle_alpha 90.000000
_cell_angle_beta 28.739434
_cell_angle_gamma 90.000000
_cell_volume 2466.882686
_symmetry_space_group_name_H-M "C 2/C"
_symmetry_group_IT_number 15
_symmetry_cell_setting 'monoclinic'
loop_
_space_group_symop_operation_xyz
x,y,z
-x,y,1/2-z
-x,-y,-z
x,-y,1/2+z
1/2+x,1/2+y,z
1/2-x,1/2+y,1/2-z
1/2-x,1/2-y,-z
1/2+x,1/2-y,1/2+z
loop_
_atom_site_type_symbol
_atom_site_label
_atom_site_fract_x
_atom_site_fract_y
_atom_site_fract_z
Si Si1 0.325457 0.020983 0.369265
Si Si2 0.260260 0.774073 0.827785
Si Si3 0.145387 0.438312 0.450892
Si Si4 0.417155 0.664600 0.460579
Si Si5 0.410155 0.169656 0.414395
Si Si6 0.637641 0.642433 0.128958
O O1 0.500000 0.969685 0.250000
O O2 0.285808 0.129583 0.356701
O O3 0.369399 0.063411 0.401837
O O4 0.169696 0.938180 0.461297
O O5 0.237774 0.654257 0.865592
O O6 0.426185 0.774095 0.700635
O O7 0.096089 0.804578 0.885734
O O8 0.060395 0.370345 0.544470
O O9 0.275838 0.526823 0.402182
O O10 0.000000 0.500000 0.500000
O O11 0.433586 0.638962 0.390170
O O12 0.286455 0.765943 0.542278
O O13 0.250000 0.250000 0.500000
O O14 0.500000 0.669624 0.250000
#
# Coordination Sequence:
#
# PCOD9285198 Si02
#       6
#     8   8   8   8   8   8
#     4  10  21  41  68  93 129 175 221 274 333 400
#     4  11  25  41  68  99 133 172 226 277 333 397
#     4  12  25  46  68 103 136 174 227 283 329 401
#     4  11  23  45  63  99 133 175 223 274 339 399
#     4  11  24  44  66  98 132 177 225 274 336 399
#     4  11  26  42  69  93 136 182 218 272 343 402
#
# _framework density 19.457754000000001
#
# number of rings (size 3 to 8) (size 9 to 14) (size 15 to 20)
#    0.000    1.000    5.000    1.000    4.667    0.000 
#    0.000    1.667    0.000    0.000    0.000    0.000 
#    0.000    0.000    0.000    0.000    0.000    0.000 
#
# Total GULP energy -134143.339035 kJ/mol
# GULP energy per Si atom -5589.305793 kJ/mol
# Density = 1.941347 g / cm^3
# Si number density = 19.457754 Si / 1000 Ang^3
#
#
#
# Elastic Constant Matrix: (Units=GPa)
#
#
# Indices 1 2 3 4 5 6 
#
# 1 110.3367 42.0998 62.9177 0.0007 7.7152 0.0000
# 2 42.0998 104.1607 66.0827 0.0008 7.0336 0.0001
# 3 62.9177 66.0827 158.7305 0.0027 11.2795 0.0002
# 4 0.0007 0.0008 0.0027 19.6127 0.0003 -0.5851
# 5 7.7152 7.0336 11.2795 0.0003 27.1084 -0.0001
# 6 0.0000 0.0001 0.0002 -0.5851 -0.0001 35.9218
#
#
#
# Elastic Compliance Matrix: (Units=1/GPa)
#
#
# Indices 1 2 3 4 5 6 
#
# 1 0.012224 -0.002497 -0.003714 0.000000 -0.001286 0.000000
# 2 -0.002497 0.013592 -0.004605 0.000000 -0.000900 0.000000
# 3 -0.003714 -0.004605 0.009820 -0.000001 -0.001834 0.000000
# 4 0.000000 0.000000 -0.000001 0.051012 0.000000 0.000831
# 5 -0.001286 -0.000900 -0.001834 0.000000 0.038251 0.000000
# 6 0.000000 0.000000 0.000000 0.000831 0.000000 0.027852
#
#
# Mechanical properties :
#
#
# Convention : Reuss Voigt Hill
#
# Bulk Modulus (GPa) = 71.41454 79.49204 75.45329
# Shear Modulus (GPa) = 27.92491 30.00378 28.96434
#
# Velocity S-wave (km/s) = 3.79245 3.93109 3.86239
# Velocity P-wave (km/s) = 7.48057 7.84518 7.66505
#
# Compressibility (1/GPa) = 0.01400275
#
# Stress axis : x y z
#
# Youngs Moduli (GPa) = 81.80648 73.57182 101.83668
#
# Poissons Ratio (x) = 0.18374 0.37825
# Poissons Ratio (y) = 0.20431 0.46894
# Poissons Ratio (z) = 0.30385 0.33878
#
# Static dielectric constant tensor:
#      x y z
#    x 1.652180 0.000000 0.002020 
#    y 0.000000 1.680940 0.000000 
#    z 0.002020 0.000000 1.650890 
# 
# From -- ./inp_files/298748.got.cif
#   From: 2010.05.17/outbox.cif.g08.bks.cpg/sg15_150_cif.got.tgz:298748.got - 2010.06.03 18:47:42.
