data_PCOD9285184
_publ_section_title
;
Structure prediction by ZEFSAII (Michael W. Deem and Ramdas Pophale) SiO2 
 PCOD9285184
Probable space group: C 2/C
;
_chemical_formula_sum "Si O2"
_cell_formula_units_Z 44
_cell_length_a 15.237185
_cell_length_b 28.128389
_cell_length_c 4.997148
_cell_angle_alpha 90.000000
_cell_angle_beta 72.082410
_cell_angle_gamma 90.000000
_cell_volume 2037.889372
_symmetry_space_group_name_H-M "C 2/C"
_symmetry_group_IT_number 15
_symmetry_cell_setting 'monoclinic'
loop_
_space_group_symop_operation_xyz
x,y,z
-x,y,1/2-z
-x,-y,-z
x,-y,1/2+z
1/2+x,1/2+y,z
1/2-x,1/2+y,1/2-z
1/2-x,1/2-y,-z
1/2+x,1/2-y,1/2+z
loop_
_atom_site_type_symbol
_atom_site_label
_atom_site_fract_x
_atom_site_fract_y
_atom_site_fract_z
Si Si1 0.435851 0.287119 0.567694
Si Si2 0.931040 0.685551 0.561769
Si Si3 0.155801 0.882571 0.624036
Si Si4 0.092095 0.531364 0.056676
Si Si5 0.000000 0.036023 0.250000
Si Si6 0.225156 0.387018 0.486550
O O1 0.500000 0.272053 0.750000
O O2 0.379724 0.237656 0.599595
O O3 0.390939 0.335209 0.714656
O O4 0.500000 0.295995 0.250000
O O5 0.854278 0.646957 0.557290
O O6 0.000000 0.674565 0.750000
O O7 0.000000 0.688610 0.250000
O O8 0.087438 0.927920 0.700729
O O9 0.245223 0.884662 0.732334
O O10 0.187341 0.878411 0.287226
O O11 0.090290 0.486301 0.255951
O O12 0.183956 0.560711 0.999012
O O13 0.000000 0.558552 0.250000
O O14 0.000000 0.000000 0.500000
#
# Coordination Sequence:
#
# PCOD9285184 Si02
#       6
#     8   8   8   8   4   8
#     4  10  21  41  68  90 128 176 221 260 320 406
#     4  10  22  41  66  97 134 179 211 261 324 387
#     4  12  26  42  67  95 127 172 213 278 337 381
#     4  10  22  40  62  87 122 170 207 247 314 387
#     4  12  28  48  70  94 126 172 228 276 336 394
#     4  12  25  39  65 101 133 163 218 277 323 390
#
# _framework density 21.590966999999999
#
# number of rings (size 3 to 8) (size 9 to 14) (size 15 to 20)
#    0.000    1.091    0.909    4.909    1.273    8.000 
#    0.000    0.000    0.000    0.000    0.000    0.000 
#    0.000    0.000    0.000    0.000    0.000    0.000 
#
# Total GULP energy -122584.314229 kJ/mol
# GULP energy per Si atom -5572.014283 kJ/mol
# Density = 2.154183 g / cm^3
# Si number density = 21.590967 Si / 1000 Ang^3
#
#
#
# Elastic Constant Matrix: (Units=GPa)
#
#
# Indices 1 2 3 4 5 6 
#
# 1 54.5950 25.5441 -8.9966 0.0000 12.6591 0.0000
# 2 25.5441 86.3788 1.7133 0.0000 -4.8728 0.0000
# 3 -8.9966 1.7133 74.5215 0.0000 12.3850 0.0000
# 4 0.0000 0.0000 0.0000 23.2527 0.0000 5.9007
# 5 12.6591 -4.8728 12.3850 0.0000 33.9468 0.0000
# 6 0.0000 0.0000 0.0000 5.9007 0.0000 -10.6350
#
#
#
# Elastic Compliance Matrix: (Units=1/GPa)
#
#
# Indices 1 2 3 4 5 6 
#
# 1 0.026294 -0.008623 0.005544 0.000000 -0.013066 0.000000
# 2 -0.008623 0.014523 -0.002401 0.000000 0.006176 0.000000
# 3 0.005544 -0.002401 0.015483 0.000000 -0.008061 0.000000
# 4 0.000000 0.000000 0.000000 0.037698 0.000000 0.020916
# 5 -0.013066 0.006176 -0.008061 0.000000 0.038158 0.000000
# 6 0.000000 0.000000 0.000000 0.020916 0.000000 -0.082424
#
#
# Mechanical properties :
#
#
# Convention : Reuss Voigt Hill
#
# Bulk Modulus (GPa) = 22.05542 28.00186 25.02864
# Shear Modulus (GPa) = 65.95775 22.46186 44.20980
#
# Velocity S-wave (km/s) = 5.53309 3.22892 4.52996
# Velocity P-wave (km/s) = 7.14545 5.18639 6.24324
#
# Compressibility (1/GPa) = 0.04534032
#
# Stress axis : x y z
#
# Youngs Moduli (GPa) = 38.03085 68.85656 64.58627
#
# Poissons Ratio (x) = 0.59374 -0.35807
# Poissons Ratio (y) = 0.32794 0.15509
# Poissons Ratio (z) = -0.21085 0.16535
#
# Static dielectric constant tensor:
#      x y z
#    x 1.811030 0.000000 -0.000030 
#    y 0.000000 1.844950 0.000000 
#    z -0.000030 0.000000 1.763360 
# 
# From -- ./inp_files/8198.got.cif
#   From: 2010.05.17/outbox.cif.g08.bks.cpg/sg15_5_cif.got.tgz:8198.got - 2010.06.03 18:47:42.
