data_PCOD9285391
_publ_section_title
;
Structure prediction by ZEFSAII (Michael W. Deem and Ramdas Pophale) SiO2 
 PCOD9285391
Probable space group: C 2/C
;
_chemical_formula_sum "Si O2"
_cell_formula_units_Z 40
_cell_length_a 18.327336
_cell_length_b 11.097317
_cell_length_c 9.907237
_cell_angle_alpha 90.000000
_cell_angle_beta 131.467288
_cell_angle_gamma 90.000000
_cell_volume 1509.889874
_symmetry_space_group_name_H-M "C 2/C"
_symmetry_group_IT_number 15
_symmetry_cell_setting 'monoclinic'
loop_
_space_group_symop_operation_xyz
x,y,z
-x,y,1/2-z
-x,-y,-z
x,-y,1/2+z
1/2+x,1/2+y,z
1/2-x,1/2+y,1/2-z
1/2-x,1/2-y,-z
1/2+x,1/2-y,1/2+z
loop_
_atom_site_type_symbol
_atom_site_label
_atom_site_fract_x
_atom_site_fract_y
_atom_site_fract_z
Si Si1 0.385667 0.255348 0.078153
Si Si2 0.878054 0.250163 0.876075
Si Si3 0.888490 0.482955 0.067248
Si Si4 0.570296 0.389553 0.612259
Si Si5 0.222726 0.118088 0.523319
O O1 0.500000 0.278249 0.250000
O O2 0.376586 0.120917 0.008560
O O3 0.154251 0.243742 0.818750
O O4 0.362687 0.351177 0.933169
O O5 0.865247 0.380387 0.929132
O O6 0.818487 0.146569 0.880858
O O7 0.993060 0.219347 0.037693
O O8 0.000000 0.469572 0.250000
O O9 0.815761 0.461463 0.103861
O O10 0.500000 0.500000 0.500000
O O11 0.633532 0.420717 0.819282
O O12 0.250000 0.250000 0.500000
#
# Coordination Sequence:
#
# PCOD9285391 Si02
#       5
#     8   8   8   8   8
#     4   9  22  42  73 105 137 187 247 307 371 445
#     4  10  21  41  72 105 144 191 244 309 374 453
#     4  10  21  42  73 105 145 188 244 306 376 437
#     4  11  24  46  74 101 151 195 244 306 382 453
#     4  10  22  43  69 107 146 199 246 300 380 453
#
# _framework density 26.491999
#
# number of rings (size 3 to 8) (size 9 to 14) (size 15 to 20)
#    0.000    2.000    0.000    3.000    0.000   15.200 
#   14.400    4.000    4.400    3.600    0.000    0.000 
#    0.000    0.000    0.000    0.000    0.000    0.000 
#
# Total GULP energy -112119.219768 kJ/mol
# GULP energy per Si atom -5605.960988 kJ/mol
# Density = 2.643170 g / cm^3
# Si number density = 26.491999 Si / 1000 Ang^3
#
#
#
# Elastic Constant Matrix: (Units=GPa)
#
#
# Indices 1 2 3 4 5 6 
#
# 1 170.5839 54.4876 71.4166 0.0000 -25.8930 0.0000
# 2 54.4876 132.5160 36.6831 0.0000 -22.7028 0.0000
# 3 71.4166 36.6831 160.7397 0.0000 5.1230 0.0000
# 4 0.0000 0.0000 0.0000 32.7441 0.0000 -6.9301
# 5 -25.8930 -22.7028 5.1230 0.0000 46.9332 0.0000
# 6 0.0000 0.0000 0.0000 -6.9301 0.0000 33.8936
#
#
#
# Elastic Compliance Matrix: (Units=1/GPa)
#
#
# Indices 1 2 3 4 5 6 
#
# 1 0.008560 -0.001821 -0.003522 0.000000 0.004226 0.000000
# 2 -0.001821 0.009319 -0.001435 0.000000 0.003660 0.000000
# 3 -0.003522 -0.001435 0.008226 0.000000 -0.003535 0.000000
# 4 0.000000 0.000000 0.000000 0.031921 0.000000 0.006527
# 5 0.004226 0.003660 -0.003535 0.000000 0.025795 0.000000
# 6 0.000000 0.000000 0.000000 0.006527 0.000000 0.030839
#
#
# Mechanical properties :
#
#
# Convention : Reuss Voigt Hill
#
# Bulk Modulus (GPa) = 79.67932 87.66825 83.67379
# Shear Modulus (GPa) = 37.76486 42.79767 40.28127
#
# Velocity S-wave (km/s) = 3.77970 4.02368 3.90360
# Velocity P-wave (km/s) = 7.01357 7.39938 7.20906
#
# Compressibility (1/GPa) = 0.01255031
#
# Stress axis : x y z
#
# Youngs Moduli (GPa) = 116.82330 107.30816 121.56148
#
# Poissons Ratio (x) = 0.19536 0.42819
# Poissons Ratio (y) = 0.21268 0.17438
# Poissons Ratio (z) = 0.41150 0.15394
#
# Static dielectric constant tensor:
#      x y z
#    x 2.165010 0.000000 -0.035840 
#    y 0.000000 2.022320 0.000000 
#    z -0.035840 0.000000 1.932920 
# 
# From -- ./inp_files/111873.got.cif
#   From: 2010.05.17/outbox.cif.g08.bks.cpg/sg15_56_cif.got.tgz:111873.got - 2010.06.03 18:47:42.
