data_PCOD9285547
_publ_section_title
;
Structure prediction by ZEFSAII (Michael W. Deem and Ramdas Pophale) SiO2 
 PCOD9285547
Probable space group: C 2/C
;
_chemical_formula_sum "Si O2"
_cell_formula_units_Z 40
_cell_length_a 17.996189
_cell_length_b 19.968433
_cell_length_c 5.512339
_cell_angle_alpha 90.000000
_cell_angle_beta 54.005105
_cell_angle_gamma 90.000000
_cell_volume 1602.677740
_symmetry_space_group_name_H-M "C 2/C"
_symmetry_group_IT_number 15
_symmetry_cell_setting 'monoclinic'
loop_
_space_group_symop_operation_xyz
x,y,z
-x,y,1/2-z
-x,-y,-z
x,-y,1/2+z
1/2+x,1/2+y,z
1/2-x,1/2+y,1/2-z
1/2-x,1/2-y,-z
1/2+x,1/2-y,1/2+z
loop_
_atom_site_type_symbol
_atom_site_label
_atom_site_fract_x
_atom_site_fract_y
_atom_site_fract_z
Si Si1 0.593659 0.705109 0.177758
Si Si2 0.308187 0.601819 0.204404
Si Si3 0.359115 0.838057 0.656040
Si Si4 0.868466 0.464014 0.355299
Si Si5 0.500000 0.459449 0.250000
Si Si6 0.500000 0.197986 0.250000
O O1 0.500000 0.672711 0.250000
O O2 0.669529 0.654528 0.126520
O O3 0.555605 0.751921 0.467344
O O4 0.634926 0.760226 0.918135
O O5 0.244546 0.636651 0.123528
O O6 0.243673 0.542148 0.426201
O O7 0.406812 0.582186 0.922143
O O8 0.393881 0.886925 0.370920
O O9 0.425615 0.846191 0.752664
O O10 0.896102 0.495075 0.045686
O O11 0.500000 0.500000 0.500000
#
# Coordination Sequence:
#
# PCOD9285547 Si02
#       6
#     8   8   8   8   4   4
#     4  10  21  42  65 104 145 183 242 303 369 432
#     4  10  23  42  71 103 140 194 237 298 359 440
#     4   9  23  40  72  96 146 185 241 303 365 432
#     4  10  23  44  67 100 136 183 237 291 347 427
#     4  12  27  48  72 108 154 199 242 296 358 436
#     4  10  21  42  64 102 138 181 230 308 368 428
#
# _framework density 24.958228999999999
#
# number of rings (size 3 to 8) (size 9 to 14) (size 15 to 20)
#    1.200    0.800    0.000    2.400    4.200    0.800 
#   10.800    1.000    0.000    0.000    0.000    0.000 
#    0.000    0.000    0.000    0.000    0.000    0.000 
#
# Total GULP energy -111812.737072 kJ/mol
# GULP energy per Si atom -5590.636854 kJ/mol
# Density = 2.490142 g / cm^3
# Si number density = 24.958229 Si / 1000 Ang^3
#
#
#
# Elastic Constant Matrix: (Units=GPa)
#
#
# Indices 1 2 3 4 5 6 
#
# 1 212.6595 49.5403 61.2743 0.0000 3.3475 0.0000
# 2 49.5403 69.9243 30.9251 0.0000 25.2352 0.0000
# 3 61.2743 30.9251 81.2282 0.0000 5.7215 0.0000
# 4 0.0000 0.0000 0.0000 26.1961 0.0000 -16.9477
# 5 3.3475 25.2352 5.7215 0.0000 37.4846 0.0000
# 6 0.0000 0.0000 0.0000 -16.9477 0.0000 22.3390
#
#
#
# Elastic Compliance Matrix: (Units=1/GPa)
#
#
# Indices 1 2 3 4 5 6 
#
# 1 0.006667 -0.004080 -0.003667 0.000000 0.002711 0.000000
# 2 -0.004080 0.025321 -0.005446 0.000000 -0.015851 0.000000
# 3 -0.003667 -0.005446 0.017052 0.000000 0.001391 0.000000
# 4 0.000000 0.000000 0.000000 0.074971 0.000000 0.056877
# 5 0.002711 -0.015851 0.001391 0.000000 0.036894 0.000000
# 6 0.000000 0.000000 0.000000 0.056877 0.000000 0.087915
#
#
# Mechanical properties :
#
#
# Convention : Reuss Voigt Hill
#
# Bulk Modulus (GPa) = 44.14095 71.92128 58.03112
# Shear Modulus (GPa) = 17.68312 32.00877 24.84594
#
# Velocity S-wave (km/s) = 2.66467 3.58508 3.15858
# Velocity P-wave (km/s) = 5.21456 6.78353 6.05012
#
# Compressibility (1/GPa) = 0.02265470
#
# Stress axis : x y z
#
# Youngs Moduli (GPa) = 150.00176 39.49343 58.64332
#
# Poissons Ratio (x) = 0.16113 0.21502
# Poissons Ratio (y) = 0.61200 0.31936
# Poissons Ratio (z) = 0.54999 0.21508
#
# Static dielectric constant tensor:
#      x y z
#    x 1.906890 0.000000 -0.255120 
#    y 0.000000 1.966460 0.000000 
#    z -0.255120 0.000000 0.875370 
# 
# From -- ./inp_files/10615.got.cif
#   From: 2010.05.17/outbox.cif.g08.bks.cpg/sg15_6_cif.got.tgz:10615.got - 2010.06.03 18:47:42.
