data_PCOD9285578
_publ_section_title
;
Structure prediction by ZEFSAII (Michael W. Deem and Ramdas Pophale) SiO2 
 PCOD9285578
Probable space group: C 2/C
;
_chemical_formula_sum "Si O2"
_cell_formula_units_Z 48
_cell_length_a 18.415535
_cell_length_b 12.115321
_cell_length_c 11.997963
_cell_angle_alpha 90.000000
_cell_angle_beta 134.845699
_cell_angle_gamma 90.000000
_cell_volume 1897.921403
_symmetry_space_group_name_H-M "C 2/C"
_symmetry_group_IT_number 15
_symmetry_cell_setting 'monoclinic'
loop_
_space_group_symop_operation_xyz
x,y,z
-x,y,1/2-z
-x,-y,-z
x,-y,1/2+z
1/2+x,1/2+y,z
1/2-x,1/2+y,1/2-z
1/2-x,1/2-y,-z
1/2+x,1/2-y,1/2+z
loop_
_atom_site_type_symbol
_atom_site_label
_atom_site_fract_x
_atom_site_fract_y
_atom_site_fract_z
Si Si1 0.369375 0.286860 0.550480
Si Si2 0.415378 0.962257 0.759131
Si Si3 0.970479 0.868264 0.091569
Si Si4 0.663265 0.553876 0.655837
Si Si5 0.749556 0.062875 0.053285
Si Si6 0.017010 0.317102 0.044215
O O1 0.300314 0.344236 0.378864
O O2 0.324484 0.168706 0.532086
O O3 0.355928 0.379365 0.631280
O O4 0.473096 0.256244 0.598533
O O5 0.500000 0.955026 0.750000
O O6 0.303924 0.972512 0.583115
O O7 0.431568 0.865022 0.865627
O O8 0.434813 0.075091 0.848875
O O9 0.000000 0.844624 0.250000
O O10 0.076960 0.900627 0.146594
O O11 0.923103 0.765070 0.972610
O O12 0.895700 0.970488 0.990023
O O13 0.743089 0.488840 0.817059
#
# Coordination Sequence:
#
# PCOD9285578 Si02
#       6
#     8   8   8   8   8   8
#     4  10  23  42  61  93 128 163 222 255 325 374
#     4  11  23  42  65  95 131 173 215 263 319 389
#     4  10  21  42  64  92 125 165 209 264 326 378
#     4  10  23  41  65  93 126 166 214 269 312 387
#     4  11  24  41  65  95 124 174 212 267 321 379
#     4  10  23  41  63  95 127 170 212 263 317 386
#
# _framework density 25.290825999999999
#
# number of rings (size 3 to 8) (size 9 to 14) (size 15 to 20)
#    0.000    1.667    1.667    1.500    7.000    0.000 
#    9.000    1.667    0.000    0.000    0.000    0.000 
#    0.000    0.000    0.000    0.000    0.000    0.000 
#
# Total GULP energy -134193.232823 kJ/mol
# GULP energy per Si atom -5591.384701 kJ/mol
# Density = 2.523326 g / cm^3
# Si number density = 25.290826 Si / 1000 Ang^3
#
#
#
# Elastic Constant Matrix: (Units=GPa)
#
#
# Indices 1 2 3 4 5 6 
#
# 1 79.1014 14.4174 18.0994 0.0000 -11.2821 0.0000
# 2 14.4174 78.5317 23.9633 0.0000 -11.6061 0.0000
# 3 18.0994 23.9633 97.0484 0.0000 -16.7903 0.0000
# 4 0.0000 0.0000 0.0000 52.3250 0.0000 -22.7252
# 5 -11.2821 -11.6061 -16.7903 0.0000 30.9158 0.0000
# 6 0.0000 0.0000 0.0000 -22.7252 0.0000 18.6514
#
#
#
# Elastic Compliance Matrix: (Units=1/GPa)
#
#
# Indices 1 2 3 4 5 6 
#
# 1 0.013794 -0.001519 -0.001573 0.000000 0.003609 0.000000
# 2 -0.001519 0.014326 -0.002670 0.000000 0.003374 0.000000
# 3 -0.001573 -0.002670 0.012123 0.000000 0.005008 0.000000
# 4 0.000000 0.000000 0.000000 0.040591 0.000000 0.049457
# 5 0.003609 0.003374 0.005008 0.000000 0.037649 0.000000
# 6 0.000000 0.000000 0.000000 0.049457 0.000000 0.113874
#
#
# Mechanical properties :
#
#
# Convention : Reuss Voigt Hill
#
# Bulk Modulus (GPa) = 34.82139 40.84908 37.83523
# Shear Modulus (GPa) = 19.72741 33.59185 26.65963
#
# Velocity S-wave (km/s) = 2.79592 3.64843 3.25025
# Velocity P-wave (km/s) = 4.92150 5.82537 5.39240
#
# Compressibility (1/GPa) = 0.02871798
#
# Stress axis : x y z
#
# Youngs Moduli (GPa) = 72.49772 69.80313 82.48614
#
# Poissons Ratio (x) = 0.10603 0.12975
# Poissons Ratio (y) = 0.11012 0.22028
# Poissons Ratio (z) = 0.11404 0.18641
#
# Static dielectric constant tensor:
#      x y z
#    x 2.103040 0.000000 0.035790 
#    y 0.000000 1.956500 0.000000 
#    z 0.035790 0.000000 1.998180 
# 
# From -- ./inp_files/111790.got.cif
#   From: 2010.05.17/outbox.cif.g08.bks.cpg/sg15_56_cif.got.tgz:111790.got - 2010.06.03 18:47:42.
