data_PCOD9285686
_publ_section_title
;
Structure prediction by ZEFSAII (Michael W. Deem and Ramdas Pophale) SiO2 
 PCOD9285686
Probable space group: C 2/C
;
_chemical_formula_sum "Si O2"
_cell_formula_units_Z 60
_cell_length_a 18.946269
_cell_length_b 13.510922
_cell_length_c 21.546605
_cell_angle_alpha 90.000000
_cell_angle_beta 31.120737
_cell_angle_gamma 90.000000
_cell_volume 2850.666060
_symmetry_space_group_name_H-M "C 2/C"
_symmetry_group_IT_number 15
_symmetry_cell_setting 'monoclinic'
loop_
_space_group_symop_operation_xyz
x,y,z
-x,y,1/2-z
-x,-y,-z
x,-y,1/2+z
1/2+x,1/2+y,z
1/2-x,1/2+y,1/2-z
1/2-x,1/2-y,-z
1/2+x,1/2-y,1/2+z
loop_
_atom_site_type_symbol
_atom_site_label
_atom_site_fract_x
_atom_site_fract_y
_atom_site_fract_z
Si Si1 0.119704 0.963332 0.580911
Si Si2 0.000000 0.612851 0.250000
Si Si3 0.411572 0.116740 0.450550
Si Si4 0.648337 0.595552 0.382120
Si Si5 0.343141 0.184060 0.144491
Si Si6 0.155097 0.103580 0.922168
Si Si7 0.201669 0.043526 0.151740
Si Si8 0.698963 0.670087 0.475645
O O1 0.188188 0.910159 0.469806
O O2 0.176196 0.915610 0.601388
O O3 0.163755 0.078995 0.547054
O O4 0.954139 0.965835 0.706367
O O5 0.967536 0.565830 0.343666
O O6 0.860093 0.669826 0.339957
O O7 0.522277 0.145080 0.420557
O O8 0.291251 0.055056 0.573631
O O9 0.355490 0.222325 0.468451
O O10 0.731885 0.676415 0.282443
O O11 0.505893 0.580230 0.456289
O O12 0.720195 0.488236 0.335198
O O13 0.624868 0.635033 0.468499
O O14 0.337446 0.291845 0.117292
O O15 0.290748 0.110249 0.130475
#
# Coordination Sequence:
#
# PCOD9285686 Si02
#       8
#     8   4   8   8   8   8   8   8
#     4  10  23  44  69  93 130 180 225 269 332 400
#     4  12  24  40  62  96 142 162 222 266 342 406
#     4  12  26  40  63  98 135 176 215 280 340 394
#     4  10  21  42  65  97 126 176 217 263 333 392
#     4  12  24  43  67  99 134 168 226 275 331 392
#     4  10  22  44  68  91 131 174 220 267 325 404
#     4  11  25  42  66  97 134 171 226 279 327 397
#     4  11  23  41  67  94 135 178 218 272 336 401
#
# _framework density 21.047713000000002
#
# number of rings (size 3 to 8) (size 9 to 14) (size 15 to 20)
#    0.000    1.067    5.333    0.800    1.867    1.600 
#    2.400    0.000    0.000    0.000    0.000    0.000 
#    0.000    0.000    0.000    0.000    0.000    0.000 
#
# Total GULP energy -167080.429350 kJ/mol
# GULP energy per Si atom -5569.347645 kJ/mol
# Density = 2.099981 g / cm^3
# Si number density = 21.047713 Si / 1000 Ang^3
#
#
#
# Elastic Constant Matrix: (Units=GPa)
#
#
# Indices 1 2 3 4 5 6 
#
# 1 88.9830 32.2543 22.6499 0.0002 4.4238 -0.0002
# 2 32.2543 72.9647 22.5516 0.0000 16.0548 -0.0001
# 3 22.6499 22.5516 51.5149 0.0002 3.5902 -0.0002
# 4 0.0002 0.0000 0.0002 21.9265 -0.0001 3.1040
# 5 4.4238 16.0548 3.5902 -0.0001 35.4599 0.0001
# 6 -0.0002 -0.0001 -0.0002 3.1040 0.0001 28.7971
#
#
#
# Elastic Compliance Matrix: (Units=1/GPa)
#
#
# Indices 1 2 3 4 5 6 
#
# 1 0.014094 -0.005222 -0.003981 0.000000 0.001009 0.000000
# 2 -0.005222 0.019437 -0.005685 0.000000 -0.007573 0.000000
# 3 -0.003981 -0.005685 0.023604 0.000000 0.000681 0.000000
# 4 0.000000 0.000000 0.000000 0.046314 0.000000 -0.004992
# 5 0.001009 -0.007573 0.000681 0.000000 0.031435 0.000000
# 6 0.000000 0.000000 0.000000 -0.004992 0.000000 0.035264
#
#
# Mechanical properties :
#
#
# Convention : Reuss Voigt Hill
#
# Bulk Modulus (GPa) = 36.55197 40.93047 38.74122
# Shear Modulus (GPa) = 23.91847 26.30382 25.11114
#
# Velocity S-wave (km/s) = 3.37470 3.53898 3.45781
# Velocity P-wave (km/s) = 5.70865 6.01564 5.86415
#
# Compressibility (1/GPa) = 0.02735831
#
# Stress axis : x y z
#
# Youngs Moduli (GPa) = 70.95141 51.44783 42.36633
#
# Poissons Ratio (x) = 0.26866 0.16867
# Poissons Ratio (y) = 0.37050 0.24086
# Poissons Ratio (z) = 0.28247 0.29249
#
# Static dielectric constant tensor:
#      x y z
#    x 1.844210 0.000000 -0.009820 
#    y 0.000000 1.777800 0.000000 
#    z -0.009820 0.000000 1.801760 
# 
# From -- ./inp_files/280076.got.cif
#   From: 2010.05.17/outbox.cif.g08.bks.cpg/sg15_141_cif.got.tgz:280076.got - 2010.06.03 18:47:42.
