data_PCOD9285439
_publ_section_title
;
Structure prediction by ZEFSAII (Michael W. Deem and Ramdas Pophale) SiO2 
 PCOD9285439
Probable space group: C 2/C
;
_chemical_formula_sum "Si O2"
_cell_formula_units_Z 48
_cell_length_a 8.317139
_cell_length_b 25.461481
_cell_length_c 11.548288
_cell_angle_alpha 90.000000
_cell_angle_beta 73.622774
_cell_angle_gamma 90.000000
_cell_volume 2346.317430
_symmetry_space_group_name_H-M "C 2/C"
_symmetry_group_IT_number 15
_symmetry_cell_setting 'monoclinic'
loop_
_space_group_symop_operation_xyz
x,y,z
-x,y,1/2-z
-x,-y,-z
x,-y,1/2+z
1/2+x,1/2+y,z
1/2-x,1/2+y,1/2-z
1/2-x,1/2-y,-z
1/2+x,1/2-y,1/2+z
loop_
_atom_site_type_symbol
_atom_site_label
_atom_site_fract_x
_atom_site_fract_y
_atom_site_fract_z
Si Si1 0.500000 0.293503 0.250000
Si Si2 0.329924 0.698397 0.427540
Si Si3 0.270131 0.294480 0.676064
Si Si4 0.500000 0.028571 0.250000
Si Si5 0.646233 0.073704 0.800683
Si Si6 0.217878 0.396416 0.545268
Si Si7 0.413630 0.618296 0.583845
O O1 0.339978 0.257706 0.311818
O O2 0.534959 0.331210 0.350265
O O3 0.250000 0.750000 0.500000
O O4 0.530405 0.709605 0.384476
O O5 0.259678 0.690045 0.313324
O O6 0.305703 0.644787 0.504206
O O7 0.200154 0.338783 0.604641
O O8 0.379479 0.063643 0.352602
O O9 0.399674 0.987886 0.187595
O O10 0.500000 0.098443 0.750000
O O11 0.813038 0.081731 0.691666
O O12 0.658989 0.098396 0.924466
O O13 0.418025 0.406964 0.500438
#
# Coordination Sequence:
#
# PCOD9285439 Si02
#       7
#     4   8   8   4   8   8   8
#     4  12  21  40  58 102 130 178 213 252 324 386
#     4  10  21  42  60  94 136 173 218 261 309 384
#     4  10  24  38  66  98 131 180 214 260 327 381
#     4  10  25  44  70  96 124 170 223 280 346 384
#     4  10  24  43  67  98 124 167 221 273 343 384
#     4  11  22  46  67  94 134 164 222 277 323 406
#     4  11  23  41  66  93 134 174 216 268 327 391
#
# _framework density 20.457588999999999
#
# number of rings (size 3 to 8) (size 9 to 14) (size 15 to 20)
#    0.500    1.000    3.333    1.000    0.000    7.333 
#    3.000    0.000    3.667    0.000    0.000    0.000 
#    0.000    0.000    0.000    0.000    0.000    0.000 
#
# Total GULP energy -134026.505588 kJ/mol
# GULP energy per Si atom -5584.437733 kJ/mol
# Density = 2.041103 g / cm^3
# Si number density = 20.457589 Si / 1000 Ang^3
#
#
#
# Elastic Constant Matrix: (Units=GPa)
#
#
# Indices 1 2 3 4 5 6 
#
# 1 58.7489 43.2876 37.7270 0.0000 -11.2806 0.0000
# 2 43.2876 81.4375 49.8342 0.0000 -17.6644 0.0000
# 3 37.7270 49.8342 131.8573 0.0000 -12.4726 0.0000
# 4 0.0000 0.0000 0.0000 32.7961 0.0000 3.5544
# 5 -11.2806 -17.6644 -12.4726 0.0000 26.8089 0.0000
# 6 0.0000 0.0000 0.0000 3.5544 0.0000 49.0669
#
#
#
# Elastic Compliance Matrix: (Units=1/GPa)
#
#
# Indices 1 2 3 4 5 6 
#
# 1 0.029098 -0.013045 -0.003191 0.000000 0.002164 0.000000
# 2 -0.013045 0.023687 -0.004459 0.000000 0.008044 0.000000
# 3 -0.003191 -0.004459 0.010227 0.000000 0.000478 0.000000
# 4 0.000000 0.000000 0.000000 0.030733 0.000000 -0.002226
# 5 0.002164 0.008044 0.000478 0.000000 0.043734 0.000000
# 6 0.000000 0.000000 0.000000 -0.002226 0.000000 0.020542
#
#
# Mechanical properties :
#
#
# Convention : Reuss Voigt Hill
#
# Bulk Modulus (GPa) = 46.24731 59.30460 52.77595
# Shear Modulus (GPa) = 24.19945 31.14736 27.67341
#
# Velocity S-wave (km/s) = 3.44307 3.90620 3.68193
# Velocity P-wave (km/s) = 6.20176 7.02826 6.62791
#
# Compressibility (1/GPa) = 0.02162288
#
# Stress axis : x y z
#
# Youngs Moduli (GPa) = 34.36669 42.21803 97.77857
#
# Poissons Ratio (x) = 0.55074 0.31197
# Poissons Ratio (y) = 0.44831 0.43598
# Poissons Ratio (z) = 0.10965 0.18824
#
# Static dielectric constant tensor:
#      x y z
#    x 1.773430 0.000000 0.016900 
#    y 0.000000 1.692560 0.000000 
#    z 0.016900 0.000000 1.759330 
# 
# From -- ./inp_files/79820.got.cif
#   From: 2010.05.17/outbox.cif.g08.bks.cpg/sg15_40_cif.got.tgz:79820.got - 2010.06.03 18:47:42.
