data_PCOD9285140
_publ_section_title
;
Structure prediction by ZEFSAII (Michael W. Deem and Ramdas Pophale) SiO2 
 PCOD9285140
Probable space group: C 2/C
;
_chemical_formula_sum "Si O2"
_cell_formula_units_Z 64
_cell_length_a 23.409172
_cell_length_b 8.203263
_cell_length_c 30.545206
_cell_angle_alpha 90.000000
_cell_angle_beta 151.628754
_cell_angle_gamma 90.000000
_cell_volume 2787.252820
_symmetry_space_group_name_H-M "C 2/C"
_symmetry_group_IT_number 15
_symmetry_cell_setting 'monoclinic'
loop_
_space_group_symop_operation_xyz
x,y,z
-x,y,1/2-z
-x,-y,-z
x,-y,1/2+z
1/2+x,1/2+y,z
1/2-x,1/2+y,1/2-z
1/2-x,1/2-y,-z
1/2+x,1/2-y,1/2+z
loop_
_atom_site_type_symbol
_atom_site_label
_atom_site_fract_x
_atom_site_fract_y
_atom_site_fract_z
Si Si1 0.295373 0.081671 0.509901
Si Si2 0.068806 0.324192 0.756328
Si Si3 0.101237 0.112087 0.166454
Si Si4 0.624617 0.911728 0.637556
Si Si5 0.093375 0.872773 0.421014
Si Si6 0.709890 0.866673 0.070192
Si Si7 0.043646 0.274855 0.038952
Si Si8 0.574192 0.037552 0.691523
O O1 0.250000 0.250000 0.500000
O O2 0.436671 0.061331 0.613957
O O3 0.206969 0.953553 0.473356
O O4 0.291336 0.042965 0.454610
O O5 0.154298 0.186908 0.832899
O O6 0.140039 0.463561 0.777900
O O7 0.000000 0.403421 0.750000
O O8 0.980090 0.231027 0.663820
O O9 0.234688 0.044012 0.266623
O O10 0.073727 0.138015 0.095723
O O11 0.110312 0.290278 0.195546
O O12 0.996104 0.006168 0.117552
O O13 0.577511 0.771644 0.572729
O O14 0.542059 0.064267 0.568049
O O15 0.592204 0.898134 0.666588
O O16 0.145981 0.755688 0.493510
O O17 0.647114 0.824190 0.074001
#
# Coordination Sequence:
#
# PCOD9285140 Si02
#       8
#     8   8   8   8   8   8   8   8
#     4  12  23  44  74  97 140 189 233 297 364 426
#     4  12  24  42  69 100 135 187 243 291 359 440
#     4  11  25  43  70 107 141 185 241 299 366 432
#     4  10  21  41  67  95 139 180 228 287 357 431
#     4  12  25  45  70 103 142 187 240 297 364 438
#     4  12  24  43  73 101 139 188 236 294 360 433
#     4  10  22  40  68  98 136 188 230 285 360 429
#     4  11  23  45  68 101 143 184 232 299 362 423
#
# _framework density 22.961677999999999
#
# number of rings (size 3 to 8) (size 9 to 14) (size 15 to 20)
#    0.000    0.750    5.000    2.625    0.000    4.500 
#    0.000    4.375    0.000    0.000    0.000    0.000 
#    0.000    0.000    0.000    0.000    0.000    0.000 
#
# Total GULP energy -178540.143185 kJ/mol
# GULP energy per Si atom -5579.379475 kJ/mol
# Density = 2.290942 g / cm^3
# Si number density = 22.961678 Si / 1000 Ang^3
#
#
#
# Elastic Constant Matrix: (Units=GPa)
#
#
# Indices 1 2 3 4 5 6 
#
# 1 127.2248 8.8640 13.9607 0.0000 -11.2179 0.0001
# 2 8.8640 62.4778 3.1508 0.0001 -13.5828 0.0006
# 3 13.9607 3.1508 78.8930 0.0001 -3.3609 -0.0002
# 4 0.0000 0.0001 0.0001 9.8424 0.0000 0.9677
# 5 -11.2179 -13.5828 -3.3609 0.0000 45.2723 -0.0001
# 6 0.0001 0.0006 -0.0002 0.9677 -0.0001 35.1593
#
#
#
# Elastic Compliance Matrix: (Units=1/GPa)
#
#
# Indices 1 2 3 4 5 6 
#
# 1 0.008210 -0.000723 -0.001351 0.000000 0.001717 0.000000
# 2 -0.000723 0.017203 -0.000348 0.000000 0.004956 0.000000
# 3 -0.001351 -0.000348 0.012951 0.000000 0.000522 0.000000
# 4 0.000000 0.000000 0.000000 0.101877 0.000000 -0.002804
# 5 0.001717 0.004956 0.000522 0.000000 0.024040 0.000000
# 6 0.000000 0.000000 0.000000 -0.002804 0.000000 0.028519
#
#
# Mechanical properties :
#
#
# Convention : Reuss Voigt Hill
#
# Bulk Modulus (GPa) = 29.83306 35.61630 32.72468
# Shear Modulus (GPa) = 23.94439 34.22948 29.08693
#
# Velocity S-wave (km/s) = 3.23274 3.86518 3.56302
# Velocity P-wave (km/s) = 5.19181 5.95519 5.58656
#
# Compressibility (1/GPa) = 0.03351986
#
# Stress axis : x y z
#
# Youngs Moduli (GPa) = 121.80082 58.12808 77.21668
#
# Poissons Ratio (x) = 0.04205 0.10430
# Poissons Ratio (y) = 0.08811 0.02686
# Poissons Ratio (z) = 0.16453 0.02022
#
# Static dielectric constant tensor:
#      x y z
#    x 1.930180 0.000000 -0.029570 
#    y 0.000000 1.938680 0.000000 
#    z -0.029570 0.000000 1.872560 
# 
# From -- ./inp_files/318638.got.cif
#   From: 2010.05.17/outbox.cif.g08.bks.cpg/sg15_160_cif.got.tgz:318638.got - 2010.06.03 18:47:42.
