data_PCOD9285172
_publ_section_title
;
Structure prediction by ZEFSAII (Michael W. Deem and Ramdas Pophale) SiO2 
 PCOD9285172
Probable space group: C 2/C
;
_chemical_formula_sum "Si O2"
_cell_formula_units_Z 52
_cell_length_a 20.627262
_cell_length_b 14.389616
_cell_length_c 8.821160
_cell_angle_alpha 90.000000
_cell_angle_beta 55.040743
_cell_angle_gamma 90.000000
_cell_volume 2145.838769
_symmetry_space_group_name_H-M "C 2/C"
_symmetry_group_IT_number 15
_symmetry_cell_setting 'monoclinic'
loop_
_space_group_symop_operation_xyz
x,y,z
-x,y,1/2-z
-x,-y,-z
x,-y,1/2+z
1/2+x,1/2+y,z
1/2-x,1/2+y,1/2-z
1/2-x,1/2-y,-z
1/2+x,1/2-y,1/2+z
loop_
_atom_site_type_symbol
_atom_site_label
_atom_site_fract_x
_atom_site_fract_y
_atom_site_fract_z
Si Si1 0.339502 0.564757 0.356750
Si Si2 0.882994 0.618084 0.055856
Si Si3 0.122965 0.668714 0.113876
Si Si4 0.000000 0.505538 0.250000
Si Si5 0.000000 0.730776 0.750000
Si Si6 0.500000 0.518746 0.750000
Si Si7 0.561500 0.319183 0.964544
Si Si8 0.242576 0.447487 0.280356
O O1 0.315435 0.477256 0.286973
O O2 0.355758 0.649457 0.222217
O O3 0.272538 0.574979 0.572849
O O4 0.576789 0.457360 0.678320
O O5 0.863748 0.682406 0.225829
O O6 0.815162 0.539187 0.141207
O O7 0.966381 0.559259 0.930089
O O8 0.911161 0.683043 0.879192
O O9 0.079188 0.747129 0.075971
O O10 0.198651 0.637285 0.918381
O O11 0.070630 0.574461 0.194200
O O12 0.007610 0.778896 0.902913
O O13 0.521646 0.588603 0.584917
#
# Coordination Sequence:
#
# PCOD9285172 Si02
#       8
#     8   8   8   4   4   4   8   8
#     4  12  26  50  71 101 131 186 242 285 340 420
#     4  10  21  41  68 104 144 187 225 276 348 422
#     4  11  22  42  68 105 146 181 224 289 349 410
#     4   9  19  34  71 101 138 192 232 271 325 424
#     4  11  25  42  67 107 146 178 230 287 347 410
#     4  12  26  50  78  94 132 188 244 286 336 424
#     4  12  27  44  71 104 138 181 236 293 349 401
#     4  11  25  45  75 101 139 182 236 282 349 419
#
# _framework density 24.232946999999999
#
# number of rings (size 3 to 8) (size 9 to 14) (size 15 to 20)
#    0.000    0.923    3.077    3.692    4.308    3.077 
#    0.000    1.538    0.000    0.000    0.000    0.000 
#    0.000    0.000    0.000    0.000    0.000    0.000 
#
# Total GULP energy -145115.251044 kJ/mol
# GULP energy per Si atom -5581.355809 kJ/mol
# Density = 2.417779 g / cm^3
# Si number density = 24.232947 Si / 1000 Ang^3
#
#
#
# Elastic Constant Matrix: (Units=GPa)
#
#
# Indices 1 2 3 4 5 6 
#
# 1 56.0254 12.5786 18.2102 0.0000 -7.0366 0.0000
# 2 12.5786 60.2956 39.3764 0.0000 -2.9682 0.0000
# 3 18.2102 39.3764 175.1333 0.0000 -11.4597 0.0000
# 4 0.0000 0.0000 0.0000 40.0107 0.0000 -0.1742
# 5 -7.0366 -2.9682 -11.4597 0.0000 24.4212 0.0000
# 6 0.0000 0.0000 0.0000 -0.1742 0.0000 29.0645
#
#
#
# Elastic Compliance Matrix: (Units=1/GPa)
#
#
# Indices 1 2 3 4 5 6 
#
# 1 0.019485 -0.003177 -0.001000 0.000000 0.004759 0.000000
# 2 -0.003177 0.019960 -0.004187 0.000000 -0.000454 0.000000
# 3 -0.001000 -0.004187 0.006916 0.000000 0.002448 0.000000
# 4 0.000000 0.000000 0.000000 0.024994 0.000000 0.000150
# 5 0.004759 -0.000454 0.002448 0.000000 0.043413 0.000000
# 6 0.000000 0.000000 0.000000 0.000150 0.000000 0.034407
#
#
# Mechanical properties :
#
#
# Convention : Reuss Voigt Hill
#
# Bulk Modulus (GPa) = 33.74829 47.97607 40.86218
# Shear Modulus (GPa) = 28.44449 33.45190 30.94819
#
# Velocity S-wave (km/s) = 3.42978 3.71945 3.57755
# Velocity P-wave (km/s) = 5.44439 6.18761 5.82786
#
# Compressibility (1/GPa) = 0.02963113
#
# Stress axis : x y z
#
# Youngs Moduli (GPa) = 51.32086 50.10058 144.60209
#
# Poissons Ratio (x) = 0.15919 0.14464
# Poissons Ratio (y) = 0.16307 0.60546
# Poissons Ratio (z) = 0.05133 0.20977
#
# Static dielectric constant tensor:
#      x y z
#    x 1.978990 0.000000 0.024690 
#    y 0.000000 2.075390 0.000000 
#    z 0.024690 0.000000 1.955560 
# 
# From -- ./inp_files/70101.got.cif
#   From: 2010.05.17/outbox.cif.g08.bks.cpg/sg15_36_cif.got.tgz:70101.got - 2010.06.03 18:47:42.
