data_PCOD9285078
_publ_section_title
;
Structure prediction by ZEFSAII (Michael W. Deem and Ramdas Pophale) SiO2 
 PCOD9285078
Probable space group: C 2/C
;
_chemical_formula_sum "Si O2"
_cell_formula_units_Z 60
_cell_length_a 15.164860
_cell_length_b 13.214183
_cell_length_c 30.378137
_cell_angle_alpha 90.000000
_cell_angle_beta 154.500017
_cell_angle_gamma 90.000000
_cell_volume 2620.740009
_symmetry_space_group_name_H-M "C 2/C"
_symmetry_group_IT_number 15
_symmetry_cell_setting 'monoclinic'
loop_
_space_group_symop_operation_xyz
x,y,z
-x,y,1/2-z
-x,-y,-z
x,-y,1/2+z
1/2+x,1/2+y,z
1/2-x,1/2+y,1/2-z
1/2-x,1/2-y,-z
1/2+x,1/2-y,1/2+z
loop_
_atom_site_type_symbol
_atom_site_label
_atom_site_fract_x
_atom_site_fract_y
_atom_site_fract_z
Si Si1 0.755370 0.211915 0.636389
Si Si2 0.321454 0.699837 0.487819
Si Si3 0.244201 0.109226 0.661338
Si Si4 0.500000 0.717163 0.250000
Si Si5 0.991436 0.368255 0.088658
Si Si6 0.893925 0.509688 0.619469
Si Si7 0.016473 0.169534 0.356361
Si Si8 0.945618 0.912052 0.913907
O O1 0.686410 0.218530 0.554856
O O2 0.649732 0.129555 0.620043
O O3 0.658120 0.313371 0.613633
O O4 0.000000 0.209775 0.750000
O O5 0.250000 0.750000 0.500000
O O6 0.546850 0.653331 0.597727
O O7 0.173683 0.606521 0.406126
O O8 0.311304 0.203526 0.662119
O O9 0.440493 0.061492 0.774390
O O10 0.151875 0.004219 0.603300
O O11 0.465974 0.663730 0.281758
O O12 0.981898 0.472858 0.110333
O O13 0.038285 0.278863 0.146006
O O14 0.762634 0.342466 0.969099
O O15 0.688169 0.577348 0.528013
O O16 0.919283 0.091759 0.348511
#
# Coordination Sequence:
#
# PCOD9285078 Si02
#       8
#     8   8   8   4   8   8   8   8
#     4  11  23  37  65  92 133 173 211 262 335 401
#     4  11  27  44  62  98 137 168 214 283 331 373
#     4  11  24  36  64  96 130 160 215 270 328 382
#     4  12  22  30  62 106 122 162 210 284 318 372
#     4   9  18  37  59  88 116 170 211 251 310 398
#     4  10  21  41  67  87 124 172 216 264 322 398
#     4   9  18  35  58  85 128 153 207 259 315 372
#     4   9  22  39  58  90 123 171 210 256 324 396
#
# _framework density 22.894297000000002
#
# number of rings (size 3 to 8) (size 9 to 14) (size 15 to 20)
#    0.000    1.867    1.333    2.400    6.533    2.133 
#    0.000    0.667    0.000    3.200    1.733    0.000 
#    0.000    0.000    0.000    0.000    0.000    0.000 
#
# Total GULP energy -167341.318833 kJ/mol
# GULP energy per Si atom -5578.043961 kJ/mol
# Density = 2.284219 g / cm^3
# Si number density = 22.894297 Si / 1000 Ang^3
#
#
#
# Elastic Constant Matrix: (Units=GPa)
#
#
# Indices 1 2 3 4 5 6 
#
# 1 169.5881 16.8155 34.1954 -0.0001 -16.2126 0.0000
# 2 16.8155 15.0503 5.3510 0.0001 3.3796 0.0000
# 3 34.1954 5.3510 92.2900 -0.0008 -1.6026 -0.0002
# 4 -0.0001 0.0001 -0.0008 13.5912 0.0004 1.5092
# 5 -16.2126 3.3796 -1.6026 0.0004 37.7474 0.0001
# 6 0.0000 0.0000 -0.0002 1.5092 0.0001 34.6955
#
#
#
# Elastic Compliance Matrix: (Units=1/GPa)
#
#
# Indices 1 2 3 4 5 6 
#
# 1 0.007570 -0.008542 -0.002242 0.000000 0.003921 0.000000
# 2 -0.008542 0.078985 -0.001602 0.000000 -0.010808 0.000000
# 3 -0.002242 -0.001602 0.011753 0.000001 -0.000320 0.000000
# 4 0.000000 0.000000 0.000001 0.073934 -0.000001 -0.003216
# 5 0.003921 -0.010808 -0.000320 -0.000001 0.029130 0.000000
# 6 0.000000 0.000000 0.000000 -0.003216 0.000000 0.028962
#
#
# Mechanical properties :
#
#
# Convention : Reuss Voigt Hill
#
# Bulk Modulus (GPa) = 13.59866 43.29469 28.44667
# Shear Modulus (GPa) = 17.88150 31.91126 24.89638
#
# Velocity S-wave (km/s) = 2.79775 3.73748 3.30123
# Velocity P-wave (km/s) = 4.04836 6.12999 5.19452
#
# Compressibility (1/GPa) = 0.07353665
#
# Stress axis : x y z
#
# Youngs Moduli (GPa) = 132.09208 12.66071 85.08219
#
# Poissons Ratio (x) = 0.10815 0.19073
# Poissons Ratio (y) = 1.12832 0.13633
# Poissons Ratio (z) = 0.29611 0.02029
#
# Static dielectric constant tensor:
#      x y z
#    x 1.932760 0.000000 -0.050280 
#    y 0.000000 1.872780 0.000000 
#    z -0.050280 0.000000 1.929780 
# 
# From -- ./inp_files/293582.got.cif
#   From: 2010.05.17/outbox.cif.g08.bks.cpg/sg15_147_cif.got.tgz:293582.got - 2010.06.03 18:47:42.
