data_PCOD9285339
_publ_section_title
;
Structure prediction by ZEFSAII (Michael W. Deem and Ramdas Pophale) SiO2 
 PCOD9285339
Probable space group: C 2/C
;
_chemical_formula_sum "Si O2"
_cell_formula_units_Z 40
_cell_length_a 9.157309
_cell_length_b 22.150466
_cell_length_c 17.302803
_cell_angle_alpha 90.000000
_cell_angle_beta 147.860727
_cell_angle_gamma 90.000000
_cell_volume 1867.075056
_symmetry_space_group_name_H-M "C 2/C"
_symmetry_group_IT_number 15
_symmetry_cell_setting 'monoclinic'
loop_
_space_group_symop_operation_xyz
x,y,z
-x,y,1/2-z
-x,-y,-z
x,-y,1/2+z
1/2+x,1/2+y,z
1/2-x,1/2+y,1/2-z
1/2-x,1/2-y,-z
1/2+x,1/2-y,1/2+z
loop_
_atom_site_type_symbol
_atom_site_label
_atom_site_fract_x
_atom_site_fract_y
_atom_site_fract_z
Si Si1 0.164076 0.581192 0.534516
Si Si2 0.547899 0.290742 0.356857
Si Si3 0.341048 0.552099 0.101223
Si Si4 0.469115 0.737922 0.327313
Si Si5 0.288512 0.885855 0.725866
O O1 0.325283 0.643554 0.600596
O O2 0.335672 0.520188 0.603028
O O3 0.969310 0.575328 0.522928
O O4 0.966197 0.582890 0.372146
O O5 0.500000 0.264318 0.250000
O O6 0.750000 0.250000 0.500000
O O7 0.249014 0.291967 0.261336
O O8 0.500000 0.574004 0.250000
O O9 0.503552 0.576217 0.099566
O O10 0.500000 0.726873 0.250000
O O11 0.750000 0.750000 0.500000
O O12 0.315394 0.679930 0.294329
O O13 0.500000 0.883120 0.750000
#
# Coordination Sequence:
#
# PCOD9285339 Si02
#       5
#     8   8   8   8   8
#     4  10  21  41  70  97 132 180 235 285 347 420
#     4  12  25  42  70 103 140 183 231 286 353 423
#     4   9  20  41  67  98 131 176 235 288 347 418
#     4  12  27  45  69 101 142 187 234 289 355 428
#     4  11  24  42  67  95 139 180 229 293 357 409
#
# _framework density 21.423884000000001
#
# number of rings (size 3 to 8) (size 9 to 14) (size 15 to 20)
#    0.000    1.200    2.000    4.200    5.600    0.800 
#    0.000    1.000    0.000    0.000    0.000    0.000 
#    0.000    0.000    0.000    0.000    0.000    0.000 
#
# Total GULP energy -111605.825877 kJ/mol
# GULP energy per Si atom -5580.291294 kJ/mol
# Density = 2.137512 g / cm^3
# Si number density = 21.423884 Si / 1000 Ang^3
#
#
#
# Elastic Constant Matrix: (Units=GPa)
#
#
# Indices 1 2 3 4 5 6 
#
# 1 210.9166 78.8029 49.7550 0.0010 21.1209 0.0003
# 2 78.8029 133.1756 26.9784 -0.0020 23.0209 0.0000
# 3 49.7550 26.9784 72.9122 -0.0175 5.0127 -0.0012
# 4 0.0010 -0.0020 -0.0175 27.2761 -0.0008 17.5002
# 5 21.1209 23.0209 5.0127 -0.0008 33.5965 -0.0001
# 6 0.0003 0.0000 -0.0012 17.5002 -0.0001 36.3375
#
#
#
# Elastic Compliance Matrix: (Units=1/GPa)
#
#
# Indices 1 2 3 4 5 6 
#
# 1 0.006871 -0.003076 -0.003433 -0.000004 -0.001699 0.000002
# 2 -0.003076 0.010491 -0.001436 0.000000 -0.005041 0.000000
# 3 -0.003433 -0.001436 0.016543 0.000015 0.000674 -0.000007
# 4 -0.000004 0.000000 0.000015 0.053056 0.000002 -0.025552
# 5 -0.001699 -0.005041 0.000674 0.000002 0.034187 -0.000001
# 6 0.000002 0.000000 -0.000007 -0.025552 -0.000001 0.039826
#
#
# Mechanical properties :
#
#
# Convention : Reuss Voigt Hill
#
# Bulk Modulus (GPa) = 55.51396 80.89743 68.20569
# Shear Modulus (GPa) = 27.34187 36.87325 32.10756
#
# Velocity S-wave (km/s) = 3.57632 4.15315 3.87548
# Velocity P-wave (km/s) = 6.55910 7.80004 7.20633
#
# Compressibility (1/GPa) = 0.01801349
#
# Stress axis : x y z
#
# Youngs Moduli (GPa) = 145.54645 95.31562 60.44802
#
# Poissons Ratio (x) = 0.29322 0.20754
# Poissons Ratio (y) = 0.44774 0.08681
# Poissons Ratio (z) = 0.49972 0.13689
#
# Static dielectric constant tensor:
#      x y z
#    x 1.882370 0.000000 0.035630 
#    y 0.000000 1.793080 0.000000 
#    z 0.035630 0.000000 1.837350 
# 
# From -- ./inp_files/192384.got.cif
#   From: 2010.05.17/outbox.cif.g08.bks.cpg/sg15_97_cif.got.tgz:192384.got - 2010.06.03 18:47:42.
