data_PCOD9285170
_publ_section_title
;
Structure prediction by ZEFSAII (Michael W. Deem and Ramdas Pophale) SiO2 
 PCOD9285170
Probable space group: C 2/C
;
_chemical_formula_sum "Si O2"
_cell_formula_units_Z 40
_cell_length_a 26.377238
_cell_length_b 4.790925
_cell_length_c 12.816287
_cell_angle_alpha 90.000000
_cell_angle_beta 86.649400
_cell_angle_gamma 90.000000
_cell_volume 1616.843153
_symmetry_space_group_name_H-M "C 2/C"
_symmetry_group_IT_number 15
_symmetry_cell_setting 'monoclinic'
loop_
_space_group_symop_operation_xyz
x,y,z
-x,y,1/2-z
-x,-y,-z
x,-y,1/2+z
1/2+x,1/2+y,z
1/2-x,1/2+y,1/2-z
1/2-x,1/2-y,-z
1/2+x,1/2-y,1/2+z
loop_
_atom_site_type_symbol
_atom_site_label
_atom_site_fract_x
_atom_site_fract_y
_atom_site_fract_z
Si Si1 0.781920 0.270383 0.278171
Si Si2 0.701233 0.554102 0.518503
Si Si3 0.107823 0.378335 0.634456
Si Si4 0.137833 0.092794 0.840108
Si Si5 0.943223 0.924286 0.970662
O O1 0.763847 0.584325 0.264807
O O2 0.788357 0.170585 0.394153
O O3 0.665296 0.666809 0.278783
O O4 0.750000 0.750000 0.500000
O O5 0.655789 0.761144 0.561385
O O6 0.681437 0.372384 0.423072
O O7 0.123658 0.318454 0.753166
O O8 0.065524 0.149363 0.617852
O O9 0.082506 0.651461 0.583622
O O10 0.089274 0.038347 0.918624
O O11 0.000000 0.000000 0.000000
#
# Coordination Sequence:
#
# PCOD9285170 Si02
#       5
#     8   8   8   8   8
#     4  11  24  39  63 100 143 196 249 287 357 437
#     4  10  21  41  68 103 149 203 243 295 365 442
#     4  10  25  45  69 110 141 188 249 307 371 453
#     4  10  24  44  71 104 152 190 243 316 359 441
#     4  11  25  48  75 104 141 186 251 307 385 444
#
# _framework density 24.739567999999998
#
# number of rings (size 3 to 8) (size 9 to 14) (size 15 to 20)
#    0.000    1.600    2.000    0.600    2.800   14.400 
#    0.000    2.000    0.000    0.000    0.000    0.000 
#    0.000    0.000    0.000    0.000    0.000    0.000 
#
# Total GULP energy -111580.346379 kJ/mol
# GULP energy per Si atom -5579.017319 kJ/mol
# Density = 2.468326 g / cm^3
# Si number density = 24.739568 Si / 1000 Ang^3
#
#
#
# Elastic Constant Matrix: (Units=GPa)
#
#
# Indices 1 2 3 4 5 6 
#
# 1 183.6953 50.8207 85.1398 0.0000 29.9365 0.0000
# 2 50.8207 94.0728 43.4350 0.0000 23.5654 0.0000
# 3 85.1398 43.4350 202.4048 0.0000 22.7105 0.0000
# 4 0.0000 0.0000 0.0000 21.3381 0.0000 16.7897
# 5 29.9365 23.5654 22.7105 0.0000 53.2729 0.0000
# 6 0.0000 0.0000 0.0000 16.7897 0.0000 10.4619
#
#
#
# Elastic Compliance Matrix: (Units=1/GPa)
#
#
# Indices 1 2 3 4 5 6 
#
# 1 0.007597 -0.002443 -0.002430 0.000000 -0.002152 0.000000
# 2 -0.002443 0.013628 -0.001444 0.000000 -0.004040 0.000000
# 3 -0.002430 -0.001444 0.006351 0.000000 -0.000704 0.000000
# 4 0.000000 0.000000 0.000000 -0.178360 0.000000 0.286239
# 5 -0.002152 -0.004040 -0.000704 0.000000 0.022068 0.000000
# 6 0.000000 0.000000 0.000000 0.286239 0.000000 -0.363782
#
#
# Mechanical properties :
#
#
# Convention : Reuss Voigt Hill
#
# Bulk Modulus (GPa) = 66.91672 93.21821 80.06747
# Shear Modulus (GPa) = -10.52889 37.06641 13.26876
#
# Velocity S-wave (km/s) = -2.06522 3.87494 2.31841
# Velocity P-wave (km/s) = 4.62821 7.60144 6.29294
#
# Compressibility (1/GPa) = 0.01494395
#
# Stress axis : x y z
#
# Youngs Moduli (GPa) = 131.63919 73.37596 157.44604
#
# Poissons Ratio (x) = 0.17924 0.38254
# Poissons Ratio (y) = 0.32157 0.22730
# Poissons Ratio (z) = 0.31984 0.10593
#
# Static dielectric constant tensor:
#      x y z
#    x 2.459130 0.000000 0.382120 
#    y 0.000000 2.084310 0.000000 
#    z 0.382120 0.000000 2.482690 
# 
# From -- ./inp_files/175162.got.cif
#   From: 2010.05.17/outbox.cif.g08.bks.cpg/sg15_88_cif.got.tgz:175162.got - 2010.06.03 18:47:42.
