data_PCOD9285205
_publ_section_title
;
Structure prediction by ZEFSAII (Michael W. Deem and Ramdas Pophale) SiO2 
 PCOD9285205
Probable space group: C 2/C
;
_chemical_formula_sum "Si O2"
_cell_formula_units_Z 60
_cell_length_a 28.945397
_cell_length_b 14.656268
_cell_length_c 14.854348
_cell_angle_alpha 90.000000
_cell_angle_beta 24.767756
_cell_angle_gamma 90.000000
_cell_volume 2640.034028
_symmetry_space_group_name_H-M "C 2/C"
_symmetry_group_IT_number 15
_symmetry_cell_setting 'monoclinic'
loop_
_space_group_symop_operation_xyz
x,y,z
-x,y,1/2-z
-x,-y,-z
x,-y,1/2+z
1/2+x,1/2+y,z
1/2-x,1/2+y,1/2-z
1/2-x,1/2-y,-z
1/2+x,1/2-y,1/2+z
loop_
_atom_site_type_symbol
_atom_site_label
_atom_site_fract_x
_atom_site_fract_y
_atom_site_fract_z
Si Si1 0.606220 0.883583 0.363317
Si Si2 0.123434 0.713141 0.519229
Si Si3 0.240527 0.103083 0.560329
Si Si4 0.606429 0.898106 0.871400
Si Si5 0.500000 0.638705 0.750000
Si Si6 0.239679 0.118720 0.065660
Si Si7 0.001400 0.098725 0.543085
Si Si8 0.830851 0.702752 0.568852
O O1 0.502407 0.860606 0.484801
O O2 0.599761 0.841771 0.473255
O O3 0.602971 0.992606 0.379469
O O4 0.716110 0.858896 0.112197
O O5 0.114648 0.637582 0.456848
O O6 0.177643 0.664990 0.509863
O O7 0.210377 0.784049 0.325247
O O8 0.000000 0.750084 0.750000
O O9 0.292679 0.126919 0.371917
O O10 0.313756 0.144496 0.509931
O O11 0.115267 0.139876 0.781560
O O12 0.242906 0.992373 0.566873
O O13 0.502759 0.588160 0.649172
O O14 0.607738 0.702991 0.560183
O O15 0.114232 0.146601 0.311386
O O16 0.000000 0.000000 0.500000
#
# Coordination Sequence:
#
# PCOD9285205 Si02
#       8
#     8   8   8   8   4   8   8   8
#     4  10  22  41  66  97 130 173 215 277 328 395
#     4  12  24  41  63  93 131 177 211 270 330 404
#     4  10  23  42  67 100 125 171 223 274 323 396
#     4  10  21  41  68  94 125 171 228 269 325 390
#     4  12  24  44  70  98 138 178 210 284 344 394
#     4  10  21  45  68  91 129 172 227 272 323 387
#     4  10  23  45  69  97 128 180 229 273 325 393
#     4  12  26  41  63 103 139 171 215 273 346 397
#
# _framework density 22.726979
#
# number of rings (size 3 to 8) (size 9 to 14) (size 15 to 20)
#    0.000    1.333    2.667    2.400    0.000    4.800 
#    9.600    0.000    0.000    0.000    0.000    0.000 
#    0.000    0.000    0.000    0.000    0.000    0.000 
#
# Total GULP energy -167876.647424 kJ/mol
# GULP energy per Si atom -5595.888247 kJ/mol
# Density = 2.267525 g / cm^3
# Si number density = 22.726979 Si / 1000 Ang^3
#
#
#
# Elastic Constant Matrix: (Units=GPa)
#
#
# Indices 1 2 3 4 5 6 
#
# 1 107.0010 35.2446 14.5339 0.0000 13.4887 0.0000
# 2 35.2446 43.0557 20.1597 0.0000 8.5543 0.0000
# 3 14.5339 20.1597 97.5595 0.0000 -10.4550 0.0000
# 4 0.0000 0.0000 0.0000 17.8123 0.0000 -0.0378
# 5 13.4887 8.5543 -10.4550 0.0000 44.9283 0.0000
# 6 0.0000 0.0000 0.0000 -0.0378 0.0000 30.4184
#
#
#
# Elastic Compliance Matrix: (Units=1/GPa)
#
#
# Indices 1 2 3 4 5 6 
#
# 1 0.012957 -0.010204 -0.000031 0.000000 -0.001955 0.000000
# 2 -0.010204 0.035607 -0.006395 0.000000 -0.005204 0.000000
# 3 -0.000031 -0.006395 0.012007 0.000000 0.004021 0.000000
# 4 0.000000 0.000000 0.000000 0.056141 0.000000 0.000070
# 5 -0.001955 -0.005204 0.004021 0.000000 0.024771 0.000000
# 6 0.000000 0.000000 0.000000 0.000070 0.000000 0.032875
#
#
# Mechanical properties :
#
#
# Convention : Reuss Voigt Hill
#
# Bulk Modulus (GPa) = 36.61575 43.05472 39.83524
# Shear Modulus (GPa) = 23.07099 30.47703 26.77401
#
# Velocity S-wave (km/s) = 3.18958 3.66595 3.43603
# Velocity P-wave (km/s) = 5.45075 6.07490 5.77127
#
# Compressibility (1/GPa) = 0.02731065
#
# Stress axis : x y z
#
# Youngs Moduli (GPa) = 77.17664 28.08466 83.28271
#
# Poissons Ratio (x) = 0.28656 0.00261
# Poissons Ratio (y) = 0.78748 0.53262
# Poissons Ratio (z) = 0.00242 0.17961
#
# Static dielectric constant tensor:
#      x y z
#    x 1.800050 0.000000 -0.041810 
#    y 0.000000 1.829500 0.000000 
#    z -0.041810 0.000000 1.884980 
# 
# From -- ./inp_files/123984.got.cif
#   From: 2010.05.17/outbox.cif.g08.bks.cpg/sg15_62_cif.got.tgz:123984.got - 2010.06.03 18:47:42.
