data_PCOD9285054
_publ_section_title
;
Structure prediction by ZEFSAII (Michael W. Deem and Ramdas Pophale) SiO2 
 PCOD9285054
Probable space group: C 2/C
;
_chemical_formula_sum "Si O2"
_cell_formula_units_Z 44
_cell_length_a 15.502485
_cell_length_b 11.400939
_cell_length_c 10.991184
_cell_angle_alpha 90.000000
_cell_angle_beta 76.713199
_cell_angle_gamma 90.000000
_cell_volume 1890.613393
_symmetry_space_group_name_H-M "C 2/C"
_symmetry_group_IT_number 15
_symmetry_cell_setting 'monoclinic'
loop_
_space_group_symop_operation_xyz
x,y,z
-x,y,1/2-z
-x,-y,-z
x,-y,1/2+z
1/2+x,1/2+y,z
1/2-x,1/2+y,1/2-z
1/2-x,1/2-y,-z
1/2+x,1/2-y,1/2+z
loop_
_atom_site_type_symbol
_atom_site_label
_atom_site_fract_x
_atom_site_fract_y
_atom_site_fract_z
Si Si1 0.526500 0.780919 0.947165
Si Si2 0.665240 0.236837 0.863226
Si Si3 0.655083 0.855013 0.110286
Si Si4 0.974450 0.954352 0.376939
Si Si5 0.271785 0.438549 0.489978
Si Si6 0.000000 0.473000 0.750000
O O1 0.528532 0.667645 0.860276
O O2 0.519246 0.892707 0.861393
O O3 0.436701 0.763882 0.056803
O O4 0.608276 0.793133 0.011628
O O5 0.674948 0.229913 0.715943
O O6 0.717623 0.348405 0.900336
O O7 0.707425 0.122325 0.913561
O O8 0.736217 0.935887 0.042068
O O9 0.582608 0.945884 0.188668
O O10 0.869824 0.941399 0.405081
O O11 0.000000 0.027672 0.250000
O O12 0.000000 0.000000 0.500000
#
# Coordination Sequence:
#
# PCOD9285054 Si02
#       6
#     8   8   8   8   8   4
#     4  11  22  42  69 106 133 181 227 290 348 418
#     4  10  21  41  66  98 141 177 222 283 355 414
#     4  12  22  39  70 107 137 177 228 289 349 423
#     4  11  27  50  73  95 138 194 243 285 351 422
#     4  10  24  42  66  99 137 183 225 287 355 413
#     4  12  20  36  70  98 146 170 226 280 358 410
#
# _framework density 23.272870000000001
#
# number of rings (size 3 to 8) (size 9 to 14) (size 15 to 20)
#    0.000    1.091    4.545    1.636    2.545    2.909 
#    0.000    0.909    0.000    0.000    0.000    0.000 
#    0.000    0.000    0.000    0.000    0.000    0.000 
#
# Total GULP energy -123178.717177 kJ/mol
# GULP energy per Si atom -5599.032599 kJ/mol
# Density = 2.321990 g / cm^3
# Si number density = 23.272870 Si / 1000 Ang^3
#
#
#
# Elastic Constant Matrix: (Units=GPa)
#
#
# Indices 1 2 3 4 5 6 
#
# 1 63.1856 28.1243 48.7675 0.0000 17.0267 0.0000
# 2 28.1243 31.5938 26.8570 0.0000 4.4021 0.0000
# 3 48.7675 26.8570 137.7508 0.0000 35.5262 0.0000
# 4 0.0000 0.0000 0.0000 37.9592 0.0000 40.7015
# 5 17.0267 4.4021 35.5262 0.0000 36.2828 0.0000
# 6 0.0000 0.0000 0.0000 40.7015 0.0000 152.7346
#
#
#
# Elastic Compliance Matrix: (Units=1/GPa)
#
#
# Indices 1 2 3 4 5 6 
#
# 1 0.031921 -0.023255 -0.004858 0.000000 -0.007402 0.000000
# 2 -0.023255 0.055222 -0.004843 0.000000 0.008955 0.000000
# 3 -0.004858 -0.004843 0.012287 0.000000 -0.009163 0.000000
# 4 0.000000 0.000000 0.000000 0.036883 0.000000 -0.009829
# 5 -0.007402 0.008955 -0.009163 0.000000 0.038920 0.000000
# 6 0.000000 0.000000 0.000000 -0.009829 0.000000 0.009167
#
#
# Mechanical properties :
#
#
# Convention : Reuss Voigt Hill
#
# Bulk Modulus (GPa) = 29.83477 48.89196 39.36336
# Shear Modulus (GPa) = 19.12153 53.98074 36.55114
#
# Velocity S-wave (km/s) = 2.86951 4.82131 3.96731
# Velocity P-wave (km/s) = 4.88120 7.21437 6.15927
#
# Compressibility (1/GPa) = 0.03351794
#
# Stress axis : x y z
#
# Youngs Moduli (GPa) = 31.32698 18.10866 81.38740
#
# Poissons Ratio (x) = 0.42111 0.39540
# Poissons Ratio (y) = 0.72850 0.39418
# Poissons Ratio (z) = 0.15219 0.08771
#
# Static dielectric constant tensor:
#      x y z
#    x 1.761420 0.000000 0.038140 
#    y 0.000000 1.912550 0.000000 
#    z 0.038140 0.000000 1.902130 
# 
# From -- ./inp_files/94952.got.cif
#   From: 2010.05.17/outbox.cif.g08.bks.cpg/sg15_48_cif.got.tgz:94952.got - 2010.06.03 18:47:42.
