data_PCOD9285882
_publ_section_title
;
Structure prediction by ZEFSAII (Michael W. Deem and Ramdas Pophale) SiO2 
 PCOD9285882
Probable space group: C 2/C
;
_chemical_formula_sum "Si O2"
_cell_formula_units_Z 44
_cell_length_a 13.350046
_cell_length_b 6.932565
_cell_length_c 17.475993
_cell_angle_alpha 90.000000
_cell_angle_beta 76.924710
_cell_angle_gamma 90.000000
_cell_volume 1575.470801
_symmetry_space_group_name_H-M "C 2/C"
_symmetry_group_IT_number 15
_symmetry_cell_setting 'monoclinic'
loop_
_space_group_symop_operation_xyz
x,y,z
-x,y,1/2-z
-x,-y,-z
x,-y,1/2+z
1/2+x,1/2+y,z
1/2-x,1/2+y,1/2-z
1/2-x,1/2-y,-z
1/2+x,1/2-y,1/2+z
loop_
_atom_site_type_symbol
_atom_site_label
_atom_site_fract_x
_atom_site_fract_y
_atom_site_fract_z
Si Si1 0.299430 0.537271 0.042787
Si Si2 0.337699 0.703307 0.827321
Si Si3 0.459278 0.769262 0.077692
Si Si4 0.846834 0.361919 0.549713
Si Si5 0.850195 0.198058 0.246588
Si Si6 0.500000 0.044202 0.250000
O O1 0.225202 0.690981 0.094631
O O2 0.406989 0.647644 0.018580
O O3 0.249685 0.457459 0.974880
O O4 0.315356 0.342421 0.089567
O O5 0.263535 0.766530 0.768116
O O6 0.349034 0.475715 0.807279
O O7 0.449890 0.799479 0.815779
O O8 0.573996 0.811389 0.033096
O O9 0.425878 0.659417 0.160036
O O10 0.402287 0.977997 0.091383
O O11 0.904282 0.394966 0.264853
#
# Coordination Sequence:
#
# PCOD9285882 Si02
#       6
#     8   8   8   8   8   4
#     4  10  22  40  68 102 139 183 231 299 356 427
#     4  11  24  44  69 103 145 191 242 300 362 433
#     4  10  22  40  68 102 139 183 231 299 356 427
#     4  10  21  42  68 103 138 180 242 292 362 424
#     4  11  24  44  69 103 145 191 242 300 362 433
#     4  12  24  44  72 100 140 192 246 296 364 420
#
# _framework density 27.928159999999998
#
# number of rings (size 3 to 8) (size 9 to 14) (size 15 to 20)
#    0.000    1.455    1.818    2.727    0.000    5.818 
#    0.000   18.182    0.000    0.000    0.000    0.000 
#    0.000    0.000    0.000    0.000    0.000    0.000 
#
# Total GULP energy -122980.104296 kJ/mol
# GULP energy per Si atom -5590.004741 kJ/mol
# Density = 2.786459 g / cm^3
# Si number density = 27.928160 Si / 1000 Ang^3
#
#
#
# Elastic Constant Matrix: (Units=GPa)
#
#
# Indices 1 2 3 4 5 6 
#
# 1 96.0703 58.9011 20.2356 0.0000 -11.3408 0.0000
# 2 58.9011 211.1839 49.7541 0.0000 -6.1940 0.0000
# 3 20.2356 49.7541 113.2100 0.0000 -17.8757 0.0000
# 4 0.0000 0.0000 0.0000 43.2735 0.0000 -8.1989
# 5 -11.3408 -6.1940 -17.8757 0.0000 26.5177 0.0000
# 6 0.0000 0.0000 0.0000 -8.1989 0.0000 51.3941
#
#
#
# Elastic Compliance Matrix: (Units=1/GPa)
#
#
# Indices 1 2 3 4 5 6 
#
# 1 0.013135 -0.003511 -0.000053 0.000000 0.004762 0.000000
# 2 -0.003511 0.006224 -0.002367 0.000000 -0.001644 0.000000
# 3 -0.000053 -0.002367 0.010959 0.000000 0.006812 0.000000
# 4 0.000000 0.000000 0.000000 0.023829 0.000000 0.003801
# 5 0.004762 -0.001644 0.006812 0.000000 0.043955 0.000000
# 6 0.000000 0.000000 0.000000 0.003801 0.000000 0.020064
#
#
# Mechanical properties :
#
#
# Convention : Reuss Voigt Hill
#
# Bulk Modulus (GPa) = 54.18632 75.36066 64.77349
# Shear Modulus (GPa) = 36.71604 43.67529 40.19566
#
# Velocity S-wave (km/s) = 3.62976 3.95884 3.79786
# Velocity P-wave (km/s) = 6.08367 6.92379 6.51728
#
# Compressibility (1/GPa) = 0.01845484
#
# Stress axis : x y z
#
# Youngs Moduli (GPa) = 76.13166 160.66600 91.25331
#
# Poissons Ratio (x) = 0.56417 0.00481
# Poissons Ratio (y) = 0.26733 0.21602
# Poissons Ratio (z) = 0.00401 0.38034
#
# Static dielectric constant tensor:
#      x y z
#    x 2.197960 0.000000 0.088830 
#    y 0.000000 2.171660 0.000000 
#    z 0.088830 0.000000 2.282800 
# 
# From -- ./inp_files/246405.got.cif
#   From: 2010.05.17/outbox.cif.g08.bks.cpg/sg15_124_cif.got.tgz:246405.got - 2010.06.03 18:47:42.
