data_PCOD9285683
_publ_section_title
;
Structure prediction by ZEFSAII (Michael W. Deem and Ramdas Pophale) SiO2 
 PCOD9285683
Probable space group: C 2/C
;
_chemical_formula_sum "Si O2"
_cell_formula_units_Z 40
_cell_length_a 14.715730
_cell_length_b 11.396996
_cell_length_c 15.397989
_cell_angle_alpha 90.000000
_cell_angle_beta 40.051969
_cell_angle_gamma 90.000000
_cell_volume 1661.776947
_symmetry_space_group_name_H-M "C 2/C"
_symmetry_group_IT_number 15
_symmetry_cell_setting 'monoclinic'
loop_
_space_group_symop_operation_xyz
x,y,z
-x,y,1/2-z
-x,-y,-z
x,-y,1/2+z
1/2+x,1/2+y,z
1/2-x,1/2+y,1/2-z
1/2-x,1/2-y,-z
1/2+x,1/2-y,1/2+z
loop_
_atom_site_type_symbol
_atom_site_label
_atom_site_fract_x
_atom_site_fract_y
_atom_site_fract_z
Si Si1 0.970933 0.304112 0.485949
Si Si2 0.750000 0.250000 0.500000
Si Si3 0.000000 0.300442 0.750000
Si Si4 0.989009 0.879459 0.107565
Si Si5 0.766675 0.482350 0.983523
Si Si6 0.294205 0.993117 0.172349
O O1 0.885359 0.252372 0.468439
O O2 0.037565 0.199549 0.491845
O O3 0.857732 0.376086 0.629152
O O4 0.088705 0.401954 0.379011
O O5 0.794402 0.384063 0.437073
O O6 0.948026 0.215417 0.711497
O O7 0.874884 0.385285 0.871537
O O8 0.856324 0.959629 0.178797
O O9 0.113130 0.951472 0.060502
O O10 0.773234 0.478770 0.083530
#
# Coordination Sequence:
#
# PCOD9285683 Si02
#       6
#     8   4   4   8   8   8
#     4  10  23  42  63  95 133 174 223 267 340 390
#     4  10  26  48  62  92 138 184 220 278 324 410
#     4  12  22  38  70 106 130 168 220 288 324 400
#     4  12  22  39  73 103 128 174 224 281 333 406
#     4  11  23  44  68 100 137 173 225 273 343 398
#     4  10  21  42  65  96 134 176 212 275 341 400
#
# _framework density 24.070620000000002
#
# number of rings (size 3 to 8) (size 9 to 14) (size 15 to 20)
#    0.000    1.200    4.000    1.800    0.000    4.000 
#    7.200    0.000    0.000    0.000    0.000    0.000 
#    0.000    0.000    0.000    0.000    0.000    0.000 
#
# Total GULP energy -111426.546098 kJ/mol
# GULP energy per Si atom -5571.327305 kJ/mol
# Density = 2.401583 g / cm^3
# Si number density = 24.070620 Si / 1000 Ang^3
#
#
#
# Elastic Constant Matrix: (Units=GPa)
#
#
# Indices 1 2 3 4 5 6 
#
# 1 125.0573 13.7473 -13.1127 0.0000 -3.8749 0.0000
# 2 13.7473 109.9080 14.1516 0.0000 -3.0502 0.0000
# 3 -13.1127 14.1516 28.9551 0.0000 -13.6044 0.0000
# 4 0.0000 0.0000 0.0000 25.0699 0.0000 -0.0382
# 5 -3.8749 -3.0502 -13.6044 0.0000 24.9905 0.0000
# 6 0.0000 0.0000 0.0000 -0.0382 0.0000 -51.0974
#
#
#
# Elastic Compliance Matrix: (Units=1/GPa)
#
#
# Indices 1 2 3 4 5 6 
#
# 1 0.009180 -0.001983 0.007634 0.000000 0.005337 0.000000
# 2 -0.001983 0.010204 -0.007316 0.000000 -0.003045 0.000000
# 3 0.007634 -0.007316 0.056039 0.000000 0.030798 0.000000
# 4 0.000000 0.000000 0.000000 0.039889 0.000000 -0.000030
# 5 0.005337 -0.003045 0.030798 0.000000 0.057237 0.000000
# 6 0.000000 0.000000 0.000000 -0.000030 0.000000 -0.019570
#
#
# Mechanical properties :
#
#
# Convention : Reuss Voigt Hill
#
# Bulk Modulus (GPa) = 13.87067 32.61031 23.24049
# Shear Modulus (GPa) = 27.72552 16.40153 22.06353
#
# Velocity S-wave (km/s) = 3.39756 2.61318 3.03085
# Velocity P-wave (km/s) = 4.60068 4.76258 4.68233
#
# Compressibility (1/GPa) = 0.07209458
#
# Stress axis : x y z
#
# Youngs Moduli (GPa) = 108.93004 98.00046 17.84461
#
# Poissons Ratio (x) = 0.19435 -0.13623
# Poissons Ratio (y) = 0.21602 0.13055
# Poissons Ratio (z) = -0.83161 0.71695
#
# Static dielectric constant tensor:
#      x y z
#    x 1.889930 0.000000 0.056570 
#    y 0.000000 1.888220 0.000000 
#    z 0.056570 0.000000 1.962360 
# 
# From -- ./inp_files/94634.got.cif
#   From: 2010.05.17/outbox.cif.g08.bks.cpg/sg15_48_cif.got.tgz:94634.got - 2010.06.03 18:47:42.
