data_PCOD9285540
_publ_section_title
;
Structure prediction by ZEFSAII (Michael W. Deem and Ramdas Pophale) SiO2 
 PCOD9285540
Probable space group: C 2/C
;
_chemical_formula_sum "Si O2"
_cell_formula_units_Z 56
_cell_length_a 19.581079
_cell_length_b 12.025393
_cell_length_c 10.874090
_cell_angle_alpha 90.000000
_cell_angle_beta 77.394018
_cell_angle_gamma 90.000000
_cell_volume 2498.799789
_symmetry_space_group_name_H-M "C 2/C"
_symmetry_group_IT_number 15
_symmetry_cell_setting 'monoclinic'
loop_
_space_group_symop_operation_xyz
x,y,z
-x,y,1/2-z
-x,-y,-z
x,-y,1/2+z
1/2+x,1/2+y,z
1/2-x,1/2+y,1/2-z
1/2-x,1/2-y,-z
1/2+x,1/2-y,1/2+z
loop_
_atom_site_type_symbol
_atom_site_label
_atom_site_fract_x
_atom_site_fract_y
_atom_site_fract_z
Si Si1 0.046102 0.015738 0.858265
Si Si2 0.645689 0.682280 0.259339
Si Si3 0.789092 0.428808 0.631327
Si Si4 0.891229 0.556063 0.303681
Si Si5 0.416152 0.169294 0.922924
Si Si6 0.461750 0.240827 0.137635
Si Si7 0.691486 0.830034 0.466736
O O1 0.104956 0.922054 0.831414
O O2 0.000000 0.004052 0.750000
O O3 0.078779 0.140774 0.856551
O O4 0.000000 0.000000 0.000000
O O5 0.718659 0.638575 0.175893
O O6 0.600580 0.738827 0.170794
O O7 0.663188 0.773503 0.355340
O O8 0.820422 0.462372 0.753028
O O9 0.846203 0.355370 0.533603
O O10 0.779076 0.546289 0.567699
O O11 0.924394 0.448058 0.350807
O O12 0.937427 0.617659 0.185905
O O13 0.872041 0.647215 0.414311
O O14 0.477519 0.213490 0.988372
O O15 0.500000 0.268701 0.250000
O O16 0.750000 0.750000 0.500000
#
# Coordination Sequence:
#
# PCOD9285540 Si02
#       7
#     8   8   8   8   8   8   8
#     4  11  27  48  67  97 135 176 239 293 339 411
#     4  12  24  40  72  97 133 186 219 268 359 398
#     4  10  22  40  64 101 141 171 217 276 330 415
#     4  10  21  42  63  96 137 166 218 281 324 400
#     4  10  22  43  66 101 140 170 225 280 333 411
#     4  10  24  44  70  91 128 180 226 281 342 388
#     4  11  23  36  62  95 133 170 214 265 329 406
#
# _framework density 22.410758999999999
#
# number of rings (size 3 to 8) (size 9 to 14) (size 15 to 20)
#    0.000    1.429    2.857    1.286    6.000    1.714 
#    0.000    2.143    0.000    0.000    0.000    0.000 
#    0.000    0.000    0.000    0.000    0.000    0.000 
#
# Total GULP energy -156064.786799 kJ/mol
# GULP energy per Si atom -5573.742386 kJ/mol
# Density = 2.235975 g / cm^3
# Si number density = 22.410759 Si / 1000 Ang^3
#
#
#
# Elastic Constant Matrix: (Units=GPa)
#
#
# Indices 1 2 3 4 5 6 
#
# 1 31.3158 11.2582 19.2486 0.0000 3.2087 0.0000
# 2 11.2582 97.8191 23.7531 0.0000 7.6994 0.0000
# 3 19.2486 23.7531 122.2439 0.0000 21.3013 0.0000
# 4 0.0000 0.0000 0.0000 24.3899 0.0000 13.0388
# 5 3.2087 7.6994 21.3013 0.0000 37.9274 0.0000
# 6 0.0000 0.0000 0.0000 13.0388 0.0000 17.9454
#
#
#
# Elastic Compliance Matrix: (Units=1/GPa)
#
#
# Indices 1 2 3 4 5 6 
#
# 1 0.036136 -0.002932 -0.005200 0.000000 0.000459 0.000000
# 2 -0.002932 0.011010 -0.001476 0.000000 -0.001158 0.000000
# 3 -0.005200 -0.001476 0.010150 0.000000 -0.004961 0.000000
# 4 0.000000 0.000000 0.000000 0.067041 0.000000 -0.048711
# 5 0.000459 -0.001158 -0.004961 0.000000 0.029349 0.000000
# 6 0.000000 0.000000 0.000000 -0.048711 0.000000 0.091117
#
#
# Mechanical properties :
#
#
# Convention : Reuss Voigt Hill
#
# Bulk Modulus (GPa) = 26.26045 39.98874 33.12459
# Shear Modulus (GPa) = 18.06920 29.19381 23.63150
#
# Velocity S-wave (km/s) = 2.84258 3.61317 3.25079
# Velocity P-wave (km/s) = 4.74520 5.94045 5.37614
#
# Compressibility (1/GPa) = 0.03808008
#
# Stress axis : x y z
#
# Youngs Moduli (GPa) = 27.67295 90.82687 98.51757
#
# Poissons Ratio (x) = 0.26634 0.51231
# Poissons Ratio (y) = 0.08115 0.14539
# Poissons Ratio (z) = 0.14390 0.13404
#
# Static dielectric constant tensor:
#      x y z
#    x 1.940470 0.000000 0.026790 
#    y 0.000000 1.787760 0.000000 
#    z 0.026790 0.000000 1.868580 
# 
# From -- ./inp_files/111064.got.cif
#   From: 2010.05.17/outbox.cif.g08.bks.cpg/sg15_56_cif.got.tgz:111064.got - 2010.06.03 18:47:42.
