data_PCOD9285092
_publ_section_title
;
Structure prediction by ZEFSAII (Michael W. Deem and Ramdas Pophale) SiO2 
 PCOD9285092
Probable space group: C 2/C
;
_chemical_formula_sum "Si O2"
_cell_formula_units_Z 32
_cell_length_a 11.249770
_cell_length_b 19.346783
_cell_length_c 8.678090
_cell_angle_alpha 90.000000
_cell_angle_beta 135.905653
_cell_angle_gamma 90.000000
_cell_volume 1314.277749
_symmetry_space_group_name_H-M "C 2/C"
_symmetry_group_IT_number 15
_symmetry_cell_setting 'monoclinic'
loop_
_space_group_symop_operation_xyz
x,y,z
-x,y,1/2-z
-x,-y,-z
x,-y,1/2+z
1/2+x,1/2+y,z
1/2-x,1/2+y,1/2-z
1/2-x,1/2-y,-z
1/2+x,1/2-y,1/2+z
loop_
_atom_site_type_symbol
_atom_site_label
_atom_site_fract_x
_atom_site_fract_y
_atom_site_fract_z
Si Si1 0.167397 0.542653 0.296099
Si Si2 0.293012 0.727481 0.863036
Si Si3 0.105647 0.169765 0.000220
Si Si4 0.423816 0.103520 0.833640
O O1 0.326146 0.592564 0.472425
O O2 0.202478 0.460953 0.316665
O O3 0.000000 0.551725 0.250000
O O4 0.085901 0.568046 0.061500
O O5 0.270893 0.789575 0.720040
O O6 0.474133 0.688669 0.015895
O O7 0.166820 0.668196 0.676749
O O8 0.250000 0.750000 0.000000
O O9 0.000000 0.191765 0.750000
O O10 0.500000 0.133743 0.750000
#
# Coordination Sequence:
#
# PCOD9285092 Si02
#       4
#     8   8   8   8
#     4  10  22  42  66  92 124 167 215 267 325 383
#     4  12  25  42  65  95 132 172 216 267 326 390
#     4  12  25  41  65  97 133 172 218 272 327 388
#     4  10  21  41  67  91 124 167 213 264 323 388
#
# _framework density 24.347975000000002
#
# number of rings (size 3 to 8) (size 9 to 14) (size 15 to 20)
#    0.000    1.000    0.000    7.500    0.000    3.000 
#    0.000    2.500    0.000    0.000    0.000    0.000 
#    0.000    0.000    0.000    0.000    0.000    0.000 
#
# Total GULP energy -89184.950997 kJ/mol
# GULP energy per Si atom -5574.059437 kJ/mol
# Density = 2.429256 g / cm^3
# Si number density = 24.347975 Si / 1000 Ang^3
#
#
#
# Elastic Constant Matrix: (Units=GPa)
#
#
# Indices 1 2 3 4 5 6 
#
# 1 58.5129 23.8689 14.4878 0.0000 0.2966 0.0000
# 2 23.8689 154.3180 15.7330 0.0000 14.2347 0.0000
# 3 14.4878 15.7330 85.0216 0.0000 -3.3160 0.0000
# 4 0.0000 0.0000 0.0000 34.6004 0.0000 16.0101
# 5 0.2966 14.2347 -3.3160 0.0000 33.9963 0.0000
# 6 0.0000 0.0000 0.0000 16.0101 0.0000 37.0596
#
#
#
# Elastic Compliance Matrix: (Units=1/GPa)
#
#
# Indices 1 2 3 4 5 6 
#
# 1 0.018856 -0.002708 -0.002684 0.000000 0.000708 0.000000
# 2 -0.002708 0.007290 -0.001010 0.000000 -0.003127 0.000000
# 3 -0.002684 -0.001010 0.012471 0.000000 0.001663 0.000000
# 4 0.000000 0.000000 0.000000 0.036122 0.000000 -0.015605
# 5 0.000708 -0.003127 0.001663 0.000000 0.030881 0.000000
# 6 0.000000 0.000000 0.000000 -0.015605 0.000000 0.033725
#
#
# Mechanical properties :
#
#
# Convention : Reuss Voigt Hill
#
# Bulk Modulus (GPa) = 38.74002 45.11466 41.92734
# Shear Modulus (GPa) = 31.10354 37.38210 34.24282
#
# Velocity S-wave (km/s) = 3.57803 3.92258 3.75426
# Velocity P-wave (km/s) = 5.74589 6.25178 6.00417
#
# Compressibility (1/GPa) = 0.02581310
#
# Stress axis : x y z
#
# Youngs Moduli (GPa) = 53.03345 137.16644 80.18731
#
# Poissons Ratio (x) = 0.37146 0.21525
# Poissons Ratio (y) = 0.14362 0.08096
# Poissons Ratio (z) = 0.14236 0.13848
#
# Static dielectric constant tensor:
#      x y z
#    x 2.193040 0.000000 -0.060400 
#    y 0.000000 1.975940 0.000000 
#    z -0.060400 0.000000 2.153190 
# 
# From -- ./inp_files/30627.got.cif
#   From: 2010.05.17/outbox.cif.g08.bks.cpg/sg15_16_cif.got.tgz:30627.got - 2010.06.03 18:47:42.
