data_PCOD9285370
_publ_section_title
;
Structure prediction by ZEFSAII (Michael W. Deem and Ramdas Pophale) SiO2 
 PCOD9285370
Probable space group: C 2/C
;
_chemical_formula_sum "Si O2"
_cell_formula_units_Z 40
_cell_length_a 10.746529
_cell_length_b 15.119648
_cell_length_c 14.009468
_cell_angle_alpha 90.000000
_cell_angle_beta 136.467899
_cell_angle_gamma 90.000000
_cell_volume 1567.833739
_symmetry_space_group_name_H-M "C 2/C"
_symmetry_group_IT_number 15
_symmetry_cell_setting 'monoclinic'
loop_
_space_group_symop_operation_xyz
x,y,z
-x,y,1/2-z
-x,-y,-z
x,-y,1/2+z
1/2+x,1/2+y,z
1/2-x,1/2+y,1/2-z
1/2-x,1/2-y,-z
1/2+x,1/2-y,1/2+z
loop_
_atom_site_type_symbol
_atom_site_label
_atom_site_fract_x
_atom_site_fract_y
_atom_site_fract_z
Si Si1 0.429845 0.845118 0.818135
Si Si2 0.247374 0.513339 0.696903
Si Si3 0.920458 0.795832 0.967357
Si Si4 0.305842 0.139003 0.667114
Si Si5 0.150734 0.980129 0.463952
O O1 0.500000 0.862080 0.750000
O O2 0.385595 0.934205 0.850205
O O3 0.568254 0.784585 0.952701
O O4 0.240036 0.792662 0.698179
O O5 0.196006 0.601176 0.726116
O O6 0.276335 0.529340 0.601943
O O7 0.446016 0.483279 0.844772
O O8 0.126747 0.804644 0.045125
O O9 0.878036 0.886279 0.001507
O O10 0.500000 0.178586 0.750000
O O11 0.275397 0.048361 0.589683
#
# Coordination Sequence:
#
# PCOD9285370 Si02
#       5
#     8   8   8   8   8
#     4  12  25  45  68 104 143 184 228 299 356 421
#     4  10  21  41  71  96 132 181 237 283 352 408
#     4  11  25  46  69 103 147 183 232 295 358 422
#     4  11  22  43  70 101 136 183 239 293 341 422
#     4  10  21  43  74  95 136 186 239 288 345 415
#
# _framework density 25.512909000000001
#
# number of rings (size 3 to 8) (size 9 to 14) (size 15 to 20)
#    0.000    1.200    4.000    2.400    5.600    2.400 
#    3.600    2.000    0.000    0.000    0.000    0.000 
#    0.000    0.000    0.000    0.000    0.000    0.000 
#
# Total GULP energy -112175.073159 kJ/mol
# GULP energy per Si atom -5608.753658 kJ/mol
# Density = 2.545484 g / cm^3
# Si number density = 25.512909 Si / 1000 Ang^3
#
#
#
# Elastic Constant Matrix: (Units=GPa)
#
#
# Indices 1 2 3 4 5 6 
#
# 1 136.7984 9.1727 28.1195 0.0000 18.7591 0.0000
# 2 9.1727 66.0188 13.9822 0.0000 3.5429 0.0000
# 3 28.1195 13.9822 85.6492 0.0000 26.2680 0.0000
# 4 0.0000 0.0000 0.0000 38.0529 0.0000 5.0885
# 5 18.7591 3.5429 26.2680 0.0000 62.2834 0.0000
# 6 0.0000 0.0000 0.0000 5.0885 0.0000 18.5216
#
#
#
# Elastic Compliance Matrix: (Units=1/GPa)
#
#
# Indices 1 2 3 4 5 6 
#
# 1 0.007979 -0.000591 -0.002063 0.000000 -0.001499 0.000000
# 2 -0.000591 0.015736 -0.002475 0.000000 0.000327 0.000000
# 3 -0.002063 -0.002475 0.014384 0.000000 -0.005304 0.000000
# 4 0.000000 0.000000 0.000000 0.027281 0.000000 -0.007495
# 5 -0.001499 0.000327 -0.005304 0.000000 0.018726 0.000000
# 6 0.000000 0.000000 0.000000 -0.007495 0.000000 0.056050
#
#
# Mechanical properties :
#
#
# Convention : Reuss Voigt Hill
#
# Bulk Modulus (GPa) = 35.91949 43.44613 39.68281
# Shear Modulus (GPa) = 31.30959 39.58438 35.44698
#
# Velocity S-wave (km/s) = 3.50695 3.94324 3.73147
# Velocity P-wave (km/s) = 5.52338 6.14802 5.84406
#
# Compressibility (1/GPa) = 0.02784004
#
# Stress axis : x y z
#
# Youngs Moduli (GPa) = 125.32244 63.54858 69.52305
#
# Poissons Ratio (x) = 0.03757 0.14345
# Poissons Ratio (y) = 0.07409 0.17207
# Poissons Ratio (z) = 0.25858 0.15728
#
# Static dielectric constant tensor:
#      x y z
#    x 2.013640 0.000000 0.046030 
#    y 0.000000 1.949450 0.000000 
#    z 0.046030 0.000000 2.055040 
# 
# From -- ./inp_files/145872.got.cif
#   From: 2010.05.17/outbox.cif.g08.bks.cpg/sg15_73_cif.got.tgz:145872.got - 2010.06.03 18:47:42.
