data_PCOD9285802
_publ_section_title
;
Structure prediction by ZEFSAII (Michael W. Deem and Ramdas Pophale) SiO2 
 PCOD9285802
Probable space group: C 2/C
;
_chemical_formula_sum "Si O2"
_cell_formula_units_Z 44
_cell_length_a 11.376565
_cell_length_b 30.233719
_cell_length_c 4.910789
_cell_angle_alpha 90.000000
_cell_angle_beta 69.462491
_cell_angle_gamma 90.000000
_cell_volume 1581.740441
_symmetry_space_group_name_H-M "C 2/C"
_symmetry_group_IT_number 15
_symmetry_cell_setting 'monoclinic'
loop_
_space_group_symop_operation_xyz
x,y,z
-x,y,1/2-z
-x,-y,-z
x,-y,1/2+z
1/2+x,1/2+y,z
1/2-x,1/2+y,1/2-z
1/2-x,1/2-y,-z
1/2+x,1/2-y,1/2+z
loop_
_atom_site_type_symbol
_atom_site_label
_atom_site_fract_x
_atom_site_fract_y
_atom_site_fract_z
Si Si1 0.588818 0.731261 0.922809
Si Si2 0.850216 0.149046 0.363400
Si Si3 0.412045 0.442659 0.066427
Si Si4 0.000000 0.395146 0.250000
Si Si5 0.142469 0.471626 0.448958
Si Si6 0.635423 0.169978 0.279857
O O1 0.500000 0.715350 0.750000
O O2 0.647081 0.777407 0.776972
O O3 0.500000 0.745096 0.250000
O O4 0.686144 0.693766 0.940587
O O5 0.849186 0.100338 0.482302
O O6 0.777792 0.151888 0.133028
O O7 0.000000 0.157231 0.250000
O O8 0.500000 0.430956 0.250000
O O9 0.291696 0.467164 0.284047
O O10 0.500000 0.462397 0.750000
O O11 0.928483 0.427843 0.097801
O O12 0.892949 0.361135 0.434985
O O13 0.115066 0.486216 0.777655
O O14 0.500000 0.162161 0.250000
#
# Coordination Sequence:
#
# PCOD9285802 Si02
#       6
#     8   8   8   4   8   8
#     4  10  21  42  67 106 144 191 241 291 347 413
#     4  10  22  44  69 104 145 191 241 292 350 424
#     4  11  24  44  73 106 142 188 232 290 359 429
#     4  12  26  46  70 102 140 184 240 288 370 420
#     4  12  28  48  74 103 139 181 236 299 363 429
#     4  11  24  44  71 103 145 193 238 296 352 424
#
# _framework density 27.817460000000001
#
# number of rings (size 3 to 8) (size 9 to 14) (size 15 to 20)
#    0.000    1.091    2.727    2.727    2.545    5.091 
#    6.545    8.182    0.000    0.000    0.000    0.000 
#    0.000    0.000    0.000    0.000    0.000    0.000 
#
# Total GULP energy -122930.763397 kJ/mol
# GULP energy per Si atom -5587.761973 kJ/mol
# Density = 2.775415 g / cm^3
# Si number density = 27.817460 Si / 1000 Ang^3
#
#
#
# Elastic Constant Matrix: (Units=GPa)
#
#
# Indices 1 2 3 4 5 6 
#
# 1 173.8199 24.2440 12.4901 0.0000 21.6276 0.0000
# 2 24.2440 118.2813 5.8721 0.0000 -8.4334 0.0000
# 3 12.4901 5.8721 96.7245 0.0000 -5.3453 0.0000
# 4 0.0000 0.0000 0.0000 28.6610 0.0000 -9.0893
# 5 21.6276 -8.4334 -5.3453 0.0000 40.4594 0.0000
# 6 0.0000 0.0000 0.0000 -9.0893 0.0000 34.2579
#
#
#
# Elastic Compliance Matrix: (Units=1/GPa)
#
#
# Indices 1 2 3 4 5 6 
#
# 1 0.006533 -0.001573 -0.000966 0.000000 -0.003948 0.000000
# 2 -0.001573 0.008978 -0.000194 0.000000 0.002686 0.000000
# 3 -0.000966 -0.000194 0.010579 0.000000 0.001874 0.000000
# 4 0.000000 0.000000 0.000000 0.038096 0.000000 0.010108
# 5 -0.003948 0.002686 0.001874 0.000000 0.027634 0.000000
# 6 0.000000 0.000000 0.000000 0.010108 0.000000 0.031872
#
#
# Mechanical properties :
#
#
# Convention : Reuss Voigt Hill
#
# Bulk Modulus (GPa) = 48.48512 52.67088 50.57800
# Shear Modulus (GPa) = 36.75621 43.75696 40.25658
#
# Velocity S-wave (km/s) = 3.63896 3.97041 3.80830
# Velocity P-wave (km/s) = 5.92652 6.32412 6.12854
#
# Compressibility (1/GPa) = 0.02062488
#
# Stress axis : x y z
#
# Youngs Moduli (GPa) = 153.06786 111.38464 94.52933
#
# Poissons Ratio (x) = 0.17516 0.09134
# Poissons Ratio (y) = 0.24071 0.01829
# Poissons Ratio (z) = 0.14791 0.02155
#
# Static dielectric constant tensor:
#      x y z
#    x 2.569510 0.000000 -0.187900 
#    y 0.000000 2.200440 0.000000 
#    z -0.187900 0.000000 2.364790 
# 
# From -- ./inp_files/5808.got.cif
#   From: 2010.05.17/outbox.cif.g08.bks.cpg/sg15_3_cif.got.tgz:5808.got - 2010.06.03 18:47:42.
