data_PCOD9285323
_publ_section_title
;
Structure prediction by ZEFSAII (Michael W. Deem and Ramdas Pophale) SiO2 
 PCOD9285323
Probable space group: C 2/C
;
_chemical_formula_sum "Si O2"
_cell_formula_units_Z 44
_cell_length_a 11.811867
_cell_length_b 11.086524
_cell_length_c 18.324363
_cell_angle_alpha 90.000000
_cell_angle_beta 59.538724
_cell_angle_gamma 90.000000
_cell_volume 2068.406954
_symmetry_space_group_name_H-M "C 2/C"
_symmetry_group_IT_number 15
_symmetry_cell_setting 'monoclinic'
loop_
_space_group_symop_operation_xyz
x,y,z
-x,y,1/2-z
-x,-y,-z
x,-y,1/2+z
1/2+x,1/2+y,z
1/2-x,1/2+y,1/2-z
1/2-x,1/2-y,-z
1/2+x,1/2-y,1/2+z
loop_
_atom_site_type_symbol
_atom_site_label
_atom_site_fract_x
_atom_site_fract_y
_atom_site_fract_z
Si Si1 0.777959 0.489025 0.668052
Si Si2 0.136642 0.557436 0.700038
Si Si3 0.623363 0.178555 0.119253
Si Si4 0.391375 0.796422 0.046171
Si Si5 0.500000 0.622695 0.750000
Si Si6 0.813183 0.754098 0.060191
O O1 0.812141 0.496474 0.742288
O O2 0.877609 0.584568 0.598722
O O3 0.630150 0.541883 0.709769
O O4 0.791699 0.365328 0.617939
O O5 0.093358 0.450424 0.660877
O O6 0.248678 0.637226 0.626370
O O7 0.000000 0.632785 0.750000
O O8 0.765413 0.214809 0.105299
O O9 0.522048 0.283311 0.175914
O O10 0.629660 0.168930 0.031021
O O11 0.531458 0.734183 0.004739
O O12 0.750000 0.750000 0.000000
#
# Coordination Sequence:
#
# PCOD9285323 Si02
#       6
#     8   8   8   8   4   8
#     4  11  25  41  68  94 134 173 219 269 323 392
#     4  12  25  40  68  96 132 174 219 268 329 386
#     4  10  21  41  70  92 123 168 226 267 309 393
#     4  10  22  42  66  93 127 171 219 262 322 383
#     4  10  22  42  66  96 124 172 222 264 322 382
#     4  12  26  42  65  98 141 171 211 273 339 388
#
# _framework density 21.272409
#
# number of rings (size 3 to 8) (size 9 to 14) (size 15 to 20)
#    0.000    1.091    0.909    4.909    6.364    2.182 
#    0.000    0.000    0.000    0.000    0.000    0.000 
#    0.000    0.000    0.000    0.000    0.000    0.000 
#
# Total GULP energy -122924.900098 kJ/mol
# GULP energy per Si atom -5587.495459 kJ/mol
# Density = 2.122399 g / cm^3
# Si number density = 21.272409 Si / 1000 Ang^3
#
#
#
# Elastic Constant Matrix: (Units=GPa)
#
#
# Indices 1 2 3 4 5 6 
#
# 1 84.3437 18.3253 18.4763 0.0000 -8.4872 0.0000
# 2 18.3253 56.9298 24.2417 0.0000 -4.1213 0.0000
# 3 18.4763 24.2417 89.9151 0.0000 4.2004 0.0000
# 4 0.0000 0.0000 0.0000 29.9993 0.0000 2.8175
# 5 -8.4872 -4.1213 4.2004 0.0000 49.4557 0.0000
# 6 0.0000 0.0000 0.0000 2.8175 0.0000 12.7814
#
#
#
# Elastic Compliance Matrix: (Units=1/GPa)
#
#
# Indices 1 2 3 4 5 6 
#
# 1 0.013208 -0.003272 -0.001933 0.000000 0.002158 0.000000
# 2 -0.003272 0.020877 -0.005031 0.000000 0.001606 0.000000
# 3 -0.001933 -0.005031 0.012962 0.000000 -0.001852 0.000000
# 4 0.000000 0.000000 0.000000 0.034039 0.000000 -0.007503
# 5 0.002158 0.001606 -0.001852 0.000000 0.020882 0.000000
# 6 0.000000 0.000000 0.000000 -0.007503 0.000000 0.079893
#
#
# Mechanical properties :
#
#
# Convention : Reuss Voigt Hill
#
# Bulk Modulus (GPa) = 37.63002 39.25279 38.44141
# Shear Modulus (GPa) = 23.67531 29.79031 26.73281
#
# Velocity S-wave (km/s) = 3.33972 3.74628 3.54883
# Velocity P-wave (km/s) = 5.70961 6.09962 5.90783
#
# Compressibility (1/GPa) = 0.02657453
#
# Stress axis : x y z
#
# Youngs Moduli (GPa) = 75.71328 47.89851 77.15044
#
# Poissons Ratio (x) = 0.15674 0.14910
# Poissons Ratio (y) = 0.24776 0.38817
# Poissons Ratio (z) = 0.14632 0.24099
#
# Static dielectric constant tensor:
#      x y z
#    x 1.797640 0.000000 -0.027900 
#    y 0.000000 1.753950 0.000000 
#    z -0.027900 0.000000 1.842740 
# 
# From -- ./inp_files/196447.got.cif
#   From: 2010.05.17/outbox.cif.g08.bks.cpg/sg15_99_cif.got.tgz:196447.got - 2010.06.03 18:47:42.
