data_PCOD9285469
_publ_section_title
;
Structure prediction by ZEFSAII (Michael W. Deem and Ramdas Pophale) SiO2 
 PCOD9285469
Probable space group: C 2/C
;
_chemical_formula_sum "Si O2"
_cell_formula_units_Z 52
_cell_length_a 16.793175
_cell_length_b 11.051140
_cell_length_c 14.218240
_cell_angle_alpha 90.000000
_cell_angle_beta 130.317556
_cell_angle_gamma 90.000000
_cell_volume 2011.910046
_symmetry_space_group_name_H-M "C 2/C"
_symmetry_group_IT_number 15
_symmetry_cell_setting 'monoclinic'
loop_
_space_group_symop_operation_xyz
x,y,z
-x,y,1/2-z
-x,-y,-z
x,-y,1/2+z
1/2+x,1/2+y,z
1/2-x,1/2+y,1/2-z
1/2-x,1/2-y,-z
1/2+x,1/2-y,1/2+z
loop_
_atom_site_type_symbol
_atom_site_label
_atom_site_fract_x
_atom_site_fract_y
_atom_site_fract_z
Si Si1 0.861394 0.816035 0.596768
Si Si2 0.409087 0.841361 0.978191
Si Si3 0.192419 0.942376 0.772212
Si Si4 0.500000 0.858938 0.750000
Si Si5 0.897819 0.675558 0.997432
Si Si6 0.840898 0.200148 0.746211
Si Si7 0.903862 0.956239 0.993147
O O1 0.750000 0.750000 0.500000
O O2 0.928915 0.717632 0.593970
O O3 0.866676 0.842038 0.711501
O O4 0.874898 0.943264 0.549383
O O5 0.313415 0.936107 0.897474
O O6 0.521646 0.864758 0.020779
O O7 0.359167 0.739017 0.868177
O O8 0.187473 0.940152 0.655843
O O9 0.129325 0.062533 0.750530
O O10 0.568743 0.908681 0.888840
O O11 0.407633 0.789798 0.734761
O O12 0.780210 0.689483 0.873973
O O13 0.922421 0.818562 0.043043
O O14 0.000000 0.000000 0.000000
#
# Coordination Sequence:
#
# PCOD9285469 Si02
#       7
#     8   8   8   4   8   8   8
#     4  10  22  40  63  94 138 173 219 281 341 401
#     4  10  21  42  61  95 132 173 221 281 334 410
#     4  11  23  39  67  92 135 180 215 279 348 399
#     4  10  22  38  58  92 126 160 224 276 328 386
#     4  11  22  38  65  92 131 172 222 278 338 399
#     4  11  21  40  62  93 128 175 220 277 337 404
#     4  12  21  38  66 101 129 170 231 282 338 405
#
# _framework density 25.846086
#
# number of rings (size 3 to 8) (size 9 to 14) (size 15 to 20)
#    0.000    1.231    4.615    2.308    0.000    1.231 
#    0.000    0.000    0.000    0.000    0.000    0.000 
#    0.000    0.000    0.000    0.000    0.000    0.000 
#
# Total GULP energy -145042.899925 kJ/mol
# GULP energy per Si atom -5578.573074 kJ/mol
# Density = 2.578726 g / cm^3
# Si number density = 25.846086 Si / 1000 Ang^3
#
#
#
# Elastic Constant Matrix: (Units=GPa)
#
#
# Indices 1 2 3 4 5 6 
#
# 1 101.3736 5.1230 38.3798 0.0000 7.6604 0.0000
# 2 5.1230 70.6969 -11.7470 0.0000 6.4830 0.0000
# 3 38.3798 -11.7470 96.5305 0.0000 37.5281 0.0000
# 4 0.0000 0.0000 0.0000 29.9302 0.0000 0.5079
# 5 7.6604 6.4830 37.5281 0.0000 40.6080 0.0000
# 6 0.0000 0.0000 0.0000 0.5079 0.0000 13.2063
#
#
#
# Elastic Compliance Matrix: (Units=1/GPa)
#
#
# Indices 1 2 3 4 5 6 
#
# 1 0.012267 -0.002446 -0.006910 0.000000 0.004462 0.000000
# 2 -0.002446 0.015974 0.005819 0.000000 -0.007467 0.000000
# 3 -0.006910 0.005819 0.021334 0.000000 -0.019342 0.000000
# 4 0.000000 0.000000 0.000000 0.033433 0.000000 -0.001286
# 5 0.004462 -0.007467 -0.019342 0.000000 0.042851 0.000000
# 6 0.000000 0.000000 0.000000 -0.001286 0.000000 0.075771
#
#
# Mechanical properties :
#
#
# Convention : Reuss Voigt Hill
#
# Bulk Modulus (GPa) = 23.52833 36.90138 30.21486
# Shear Modulus (GPa) = 22.43461 32.53858 27.48660
#
# Velocity S-wave (km/s) = 2.94939 3.55200 3.26463
# Velocity P-wave (km/s) = 4.55210 5.57948 5.09177
#
# Compressibility (1/GPa) = 0.04250195
#
# Stress axis : x y z
#
# Youngs Moduli (GPa) = 81.52021 62.60254 46.87295
#
# Poissons Ratio (x) = 0.15314 0.32387
# Poissons Ratio (y) = 0.19941 -0.27277
# Poissons Ratio (z) = 0.56327 -0.36430
#
# Static dielectric constant tensor:
#      x y z
#    x 2.003430 0.000000 0.015370 
#    y 0.000000 2.129960 0.000000 
#    z 0.015370 0.000000 2.153640 
# 
# From -- ./inp_files/162046.got.cif
#   From: 2010.05.17/outbox.cif.g08.bks.cpg/sg15_82_cif.got.tgz:162046.got - 2010.06.03 18:47:42.
