data_PCOD9285721
_publ_section_title
;
Structure prediction by ZEFSAII (Michael W. Deem and Ramdas Pophale) SiO2 
 PCOD9285721
Probable space group: C 2/C
;
_chemical_formula_sum "Si O2"
_cell_formula_units_Z 40
_cell_length_a 17.336943
_cell_length_b 9.937811
_cell_length_c 15.161788
_cell_angle_alpha 90.000000
_cell_angle_beta 47.101673
_cell_angle_gamma 90.000000
_cell_volume 1913.632422
_symmetry_space_group_name_H-M "C 2/C"
_symmetry_group_IT_number 15
_symmetry_cell_setting 'monoclinic'
loop_
_space_group_symop_operation_xyz
x,y,z
-x,y,1/2-z
-x,-y,-z
x,-y,1/2+z
1/2+x,1/2+y,z
1/2-x,1/2+y,1/2-z
1/2-x,1/2-y,-z
1/2+x,1/2-y,1/2+z
loop_
_atom_site_type_symbol
_atom_site_label
_atom_site_fract_x
_atom_site_fract_y
_atom_site_fract_z
Si Si1 0.815036 0.565790 0.702362
Si Si2 0.389309 0.805529 0.307186
Si Si3 0.277253 0.068160 0.057920
Si Si4 0.618461 0.672232 0.630116
Si Si5 0.267466 0.325062 0.630839
O O1 0.900062 0.610848 0.708419
O O2 0.840322 0.479116 0.595542
O O3 0.736929 0.468811 0.818602
O O4 0.768812 0.704475 0.699933
O O5 0.500000 0.742669 0.250000
O O6 0.349785 0.897320 0.418664
O O7 0.297053 0.696595 0.365834
O O8 0.195203 0.950496 0.096602
O O9 0.500000 0.647382 0.750000
O O10 0.635441 0.690790 0.512420
O O11 0.665944 0.797855 0.647735
#
# Coordination Sequence:
#
# PCOD9285721 Si02
#       5
#     8   8   8   8   8
#     4  11  21  43  64  92 133 170 212 270 325 386
#     4  11  23  40  65  96 132 171 215 271 328 381
#     4  10  22  42  64  91 132 170 214 267 323 392
#     4  10  21  42  66  90 124 172 219 264 323 388
#     4  10  22  41  63  93 128 169 213 271 323 382
#
# _framework density 20.902657000000001
#
# number of rings (size 3 to 8) (size 9 to 14) (size 15 to 20)
#    0.000    1.600    4.000    0.600    0.000    1.600 
#    3.600    4.000    0.000    0.000    0.000    0.000 
#    0.000    0.000    0.000    0.000    0.000    0.000 
#
# Total GULP energy -111553.644166 kJ/mol
# GULP energy per Si atom -5577.682208 kJ/mol
# Density = 2.085508 g / cm^3
# Si number density = 20.902657 Si / 1000 Ang^3
#
#
#
# Elastic Constant Matrix: (Units=GPa)
#
#
# Indices 1 2 3 4 5 6 
#
# 1 66.9948 26.8092 40.0100 0.0000 27.4555 0.0000
# 2 26.8092 74.9353 44.9074 0.0000 20.1827 0.0000
# 3 40.0100 44.9074 73.0027 0.0000 20.7140 0.0000
# 4 0.0000 0.0000 0.0000 22.3555 0.0000 15.4643
# 5 27.4555 20.1827 20.7140 0.0000 37.1115 0.0000
# 6 0.0000 0.0000 0.0000 15.4643 0.0000 29.6006
#
#
#
# Elastic Compliance Matrix: (Units=1/GPa)
#
#
# Indices 1 2 3 4 5 6 
#
# 1 0.027244 0.000980 -0.011483 0.000000 -0.014279 0.000000
# 2 0.000980 0.021995 -0.012437 0.000000 -0.005745 0.000000
# 3 -0.011483 -0.012437 0.027699 0.000000 -0.000202 0.000000
# 4 0.000000 0.000000 0.000000 0.070045 0.000000 -0.036594
# 5 -0.014279 -0.005745 -0.000202 0.000000 0.040747 0.000000
# 6 0.000000 0.000000 0.000000 -0.036594 0.000000 0.052901
#
#
# Mechanical properties :
#
#
# Convention : Reuss Voigt Hill
#
# Bulk Modulus (GPa) = 32.19708 48.70956 40.45332
# Shear Modulus (GPa) = 16.84278 24.69393 20.76835
#
# Velocity S-wave (km/s) = 2.84169 3.44085 3.15552
# Velocity P-wave (km/s) = 5.11896 6.25616 5.71591
#
# Compressibility (1/GPa) = 0.03105872
#
# Stress axis : x y z
#
# Youngs Moduli (GPa) = 36.70581 45.46513 36.10191
#
# Poissons Ratio (x) = -0.04458 0.41455
# Poissons Ratio (y) = -0.03599 0.44901
# Poissons Ratio (z) = 0.42148 0.56546
#
# Static dielectric constant tensor:
#      x y z
#    x 1.742190 0.000000 0.050690 
#    y 0.000000 1.786410 0.000000 
#    z 0.050690 0.000000 1.742320 
# 
# From -- ./inp_files/160204.got.cif
#   From: 2010.05.17/outbox.cif.g08.bks.cpg/sg15_81_cif.got.tgz:160204.got - 2010.06.03 18:47:42.
