data_PCOD9285015
_publ_section_title
;
Structure prediction by ZEFSAII (Michael W. Deem and Ramdas Pophale) SiO2 
 PCOD9285015
Probable space group: C 2/C
;
_chemical_formula_sum "Si O2"
_cell_formula_units_Z 64
_cell_length_a 14.836766
_cell_length_b 12.463306
_cell_length_c 29.437633
_cell_angle_alpha 90.000000
_cell_angle_beta 141.169591
_cell_angle_gamma 90.000000
_cell_volume 3413.146643
_symmetry_space_group_name_H-M "C 2/C"
_symmetry_group_IT_number 15
_symmetry_cell_setting 'monoclinic'
loop_
_space_group_symop_operation_xyz
x,y,z
-x,y,1/2-z
-x,-y,-z
x,-y,1/2+z
1/2+x,1/2+y,z
1/2-x,1/2+y,1/2-z
1/2-x,1/2-y,-z
1/2+x,1/2-y,1/2+z
loop_
_atom_site_type_symbol
_atom_site_label
_atom_site_fract_x
_atom_site_fract_y
_atom_site_fract_z
Si Si1 0.427025 0.068476 0.835659
Si Si2 0.091425 0.156767 0.832475
Si Si3 0.648864 0.260993 0.027921
Si Si4 0.089507 0.408888 0.831686
Si Si5 0.940041 0.193681 0.109017
Si Si6 0.102543 0.024458 0.675443
Si Si7 0.633047 0.539196 0.581317
Si Si8 0.914885 0.412363 0.438245
O O1 0.488971 0.189656 0.853495
O O2 0.263807 0.051251 0.754958
O O3 0.427220 0.055777 0.890093
O O4 0.522457 0.983035 0.845042
O O5 0.096102 0.283286 0.845844
O O6 0.250104 0.109063 0.886668
O O7 0.000000 0.145711 0.750000
O O8 0.008223 0.094668 0.839201
O O9 0.790674 0.187736 0.078038
O O10 0.680894 0.348835 0.078218
O O11 0.613619 0.311952 0.964574
O O12 0.505809 0.195548 0.982159
O O13 0.244326 0.452476 0.878948
O O14 0.000000 0.420710 0.750000
O O15 0.052932 0.099266 0.162276
O O16 0.096579 0.048545 0.619675
O O17 0.500000 0.500000 0.500000
O O18 0.000000 0.500000 0.500000
#
# Coordination Sequence:
#
# PCOD9285015 Si02
#       8
#     8   8   8   8   8   8   8   8
#     4  11  24  42  68  98 129 180 222 276 331 396
#     4  11  25  45  67  99 136 181 223 275 341 403
#     4  10  21  41  66  94 130 178 220 273 326 402
#     4  11  24  43  68  98 136 173 222 274 334 398
#     4  10  22  41  66  95 133 174 223 267 337 394
#     4  12  25  41  70  98 136 176 228 274 333 402
#     4  12  23  40  67 102 132 171 221 277 333 391
#     4  11  24  44  69  95 137 178 223 274 342 394
#
# _framework density 18.751027000000001
#
# number of rings (size 3 to 8) (size 9 to 14) (size 15 to 20)
#    0.000    1.000    5.000    1.500    3.500    2.000 
#    0.000    2.500    0.000    0.000    0.000    0.000 
#    0.000    0.000    0.000    0.000    0.000    0.000 
#
# Total GULP energy -178742.093750 kJ/mol
# GULP energy per Si atom -5585.690430 kJ/mol
# Density = 1.870835 g / cm^3
# Si number density = 18.751027 Si / 1000 Ang^3
#
#
#
# Elastic Constant Matrix: (Units=GPa)
#
#
# Indices 1 2 3 4 5 6 
#
# 1 143.2208 75.9808 53.7883 0.0000 9.0878 0.0000
# 2 75.9808 111.4403 53.6660 0.0000 -13.8034 0.0000
# 3 53.7883 53.6660 112.2866 0.0000 11.9264 0.0000
# 4 0.0000 0.0000 0.0000 21.2037 0.0000 22.4132
# 5 9.0878 -13.8034 11.9264 0.0000 31.5453 0.0000
# 6 0.0000 0.0000 0.0000 22.4132 0.0000 3.8520
#
#
#
# Elastic Compliance Matrix: (Units=1/GPa)
#
#
# Indices 1 2 3 4 5 6 
#
# 1 0.012576 -0.009007 -0.000954 0.000000 -0.007204 0.000000
# 2 -0.009007 0.020107 -0.006777 0.000000 0.013956 0.000000
# 3 -0.000954 -0.006777 0.013427 0.000000 -0.007767 0.000000
# 4 0.000000 0.000000 0.000000 -0.009157 0.000000 0.053279
# 5 -0.007204 0.013956 -0.007767 0.000000 0.042819 0.000000
# 6 0.000000 0.000000 0.000000 0.053279 0.000000 -0.050404
#
#
# Mechanical properties :
#
#
# Convention : Reuss Voigt Hill
#
# Bulk Modulus (GPa) = 79.16227 81.53531 80.34879
# Shear Modulus (GPa) = 74.56340 23.55439 49.05889
#
# Velocity S-wave (km/s) = 6.31279 3.54809 5.12056
# Velocity P-wave (km/s) = 9.76956 7.76935 8.82630
#
# Compressibility (1/GPa) = 0.01263228
#
# Stress axis : x y z
#
# Youngs Moduli (GPa) = 79.51533 49.73398 74.47634
#
# Poissons Ratio (x) = 0.44797 0.07107
# Poissons Ratio (y) = 0.71621 0.50476
# Poissons Ratio (z) = 0.07588 0.33707
#
# Static dielectric constant tensor:
#      x y z
#    x 1.701140 0.000000 -0.027870 
#    y 0.000000 1.692850 0.000000 
#    z -0.027870 0.000000 1.645170 
# 
# From -- ./inp_files/296179.got.cif
#   From: 2010.05.17/outbox.cif.g08.bks.cpg/sg15_149_cif.got.tgz:296179.got - 2010.06.03 18:47:42.
