data_PCOD9285998
_publ_section_title
;
Structure prediction by ZEFSAII (Michael W. Deem and Ramdas Pophale) SiO2 
 PCOD9285998
Probable space group: C 2/C
;
_chemical_formula_sum "Si O2"
_cell_formula_units_Z 48
_cell_length_a 21.419640
_cell_length_b 8.740890
_cell_length_c 10.327661
_cell_angle_alpha 90.000000
_cell_angle_beta 96.867909
_cell_angle_gamma 90.000000
_cell_volume 1919.739366
_symmetry_space_group_name_H-M "C 2/C"
_symmetry_group_IT_number 15
_symmetry_cell_setting 'monoclinic'
loop_
_space_group_symop_operation_xyz
x,y,z
-x,y,1/2-z
-x,-y,-z
x,-y,1/2+z
1/2+x,1/2+y,z
1/2-x,1/2+y,1/2-z
1/2-x,1/2-y,-z
1/2+x,1/2-y,1/2+z
loop_
_atom_site_type_symbol
_atom_site_label
_atom_site_fract_x
_atom_site_fract_y
_atom_site_fract_z
Si Si1 0.275001 0.212630 0.792945
Si Si2 0.395441 0.007808 0.818559
Si Si3 0.029382 0.078025 0.631846
Si Si4 0.679420 0.411796 0.478068
Si Si5 0.156691 0.800151 0.090390
Si Si6 0.564827 0.166555 0.427387
O O1 0.294338 0.369041 0.871508
O O2 0.225798 0.220705 0.665336
O O3 0.336468 0.117490 0.774520
O O4 0.235045 0.124280 0.893629
O O5 0.370924 0.868532 0.903414
O O6 0.420169 0.946993 0.687318
O O7 0.439112 0.099254 0.929234
O O8 0.103908 0.098753 0.655092
O O9 0.000000 0.999740 0.750000
O O10 0.999142 0.245862 0.616613
O O11 0.000000 0.000000 0.500000
O O12 0.661217 0.590166 0.467060
O O13 0.621830 0.293059 0.442156
#
# Coordination Sequence:
#
# PCOD9285998 Si02
#       6
#     8   8   8   8   8   8
#     4  10  22  40  69 101 146 193 227 300 364 433
#     4  11  25  45  73 104 150 185 240 293 371 423
#     4  12  25  49  78 102 143 187 244 299 353 424
#     4  10  21  42  69  96 147 184 239 292 361 429
#     4  12  23  41  70 104 135 192 234 298 359 429
#     4  11  24  51  68 108 140 196 235 300 359 423
#
# _framework density 25.003395000000001
#
# number of rings (size 3 to 8) (size 9 to 14) (size 15 to 20)
#    0.000    1.000    5.000    1.000    4.667    1.333 
#    9.000    0.000    0.000    0.000    0.000    0.000 
#    0.000    0.000    0.000    0.000    0.000    0.000 
#
# Total GULP energy -134241.790409 kJ/mol
# GULP energy per Si atom -5593.407934 kJ/mol
# Density = 2.494649 g / cm^3
# Si number density = 25.003395 Si / 1000 Ang^3
#
#
#
# Elastic Constant Matrix: (Units=GPa)
#
#
# Indices 1 2 3 4 5 6 
#
# 1 105.6085 6.0684 18.0164 0.0000 7.9732 0.0000
# 2 6.0684 45.3336 18.3312 0.0000 0.7703 0.0000
# 3 18.0164 18.3312 99.6717 0.0000 13.6791 0.0000
# 4 0.0000 0.0000 0.0000 44.6239 0.0000 -4.5687
# 5 7.9732 0.7703 13.6791 0.0000 28.9306 0.0000
# 6 0.0000 0.0000 0.0000 -4.5687 0.0000 44.3813
#
#
#
# Elastic Compliance Matrix: (Units=1/GPa)
#
#
# Indices 1 2 3 4 5 6 
#
# 1 0.009901 -0.000736 -0.001372 0.000000 -0.002061 0.000000
# 2 -0.000736 0.023950 -0.004504 0.000000 0.001695 0.000000
# 3 -0.001372 -0.004504 0.011807 0.000000 -0.005085 0.000000
# 4 0.000000 0.000000 0.000000 0.022648 0.000000 0.002331
# 5 -0.002061 0.001695 -0.005085 0.000000 0.037492 0.000000
# 6 0.000000 0.000000 0.000000 0.002331 0.000000 0.022772
#
#
# Mechanical properties :
#
#
# Convention : Reuss Voigt Hill
#
# Bulk Modulus (GPa) = 30.83141 37.27175 34.05158
# Shear Modulus (GPa) = 32.76432 37.46701 35.11566
#
# Velocity S-wave (km/s) = 3.62386 3.87522 3.75165
# Velocity P-wave (km/s) = 5.46512 5.91288 5.69340
#
# Compressibility (1/GPa) = 0.03243446
#
# Stress axis : x y z
#
# Youngs Moduli (GPa) = 101.00233 41.75403 84.69467
#
# Poissons Ratio (x) = 0.03072 0.11616
# Poissons Ratio (y) = 0.07431 0.38149
# Poissons Ratio (z) = 0.13853 0.18807
#
# Static dielectric constant tensor:
#      x y z
#    x 2.003110 0.000000 -0.002260 
#    y 0.000000 2.026140 0.000000 
#    z -0.002260 0.000000 2.019690 
# 
# From -- ./inp_files/116347.got.cif
#   From: 2010.05.17/outbox.cif.g08.bks.cpg/sg15_59_cif.got.tgz:116347.got - 2010.06.03 18:47:42.
