data_PCOD9285044
_publ_section_title
;
Structure prediction by ZEFSAII (Michael W. Deem and Ramdas Pophale) SiO2 
 PCOD9285044
Probable space group: C 2/C
;
_chemical_formula_sum "Si O2"
_cell_formula_units_Z 40
_cell_length_a 11.900495
_cell_length_b 11.748831
_cell_length_c 12.906850
_cell_angle_alpha 90.000000
_cell_angle_beta 83.395754
_cell_angle_gamma 90.000000
_cell_volume 1792.620960
_symmetry_space_group_name_H-M "C 2/C"
_symmetry_group_IT_number 15
_symmetry_cell_setting 'monoclinic'
loop_
_space_group_symop_operation_xyz
x,y,z
-x,y,1/2-z
-x,-y,-z
x,-y,1/2+z
1/2+x,1/2+y,z
1/2-x,1/2+y,1/2-z
1/2-x,1/2-y,-z
1/2+x,1/2-y,1/2+z
loop_
_atom_site_type_symbol
_atom_site_label
_atom_site_fract_x
_atom_site_fract_y
_atom_site_fract_z
Si Si1 0.041895 0.795508 0.627276
Si Si2 0.705896 0.265847 0.343909
Si Si3 0.013326 0.051210 0.872054
Si Si4 0.494125 0.876091 0.546001
Si Si5 0.825982 0.758531 0.391267
O O1 0.174871 0.761774 0.615438
O O2 0.987872 0.705897 0.554905
O O3 0.000000 0.785624 0.750000
O O4 0.010833 0.922434 0.588468
O O5 0.632596 0.381236 0.377536
O O6 0.620628 0.164999 0.386685
O O7 0.725642 0.268373 0.217624
O O8 0.909760 0.136198 0.901918
O O9 0.000000 0.036598 0.750000
O O10 0.593937 0.852321 0.616282
O O11 0.500000 0.000000 0.500000
O O12 0.750000 0.750000 0.500000
#
# Coordination Sequence:
#
# PCOD9285044 Si02
#       5
#     8   8   8   8   8
#     4  11  23  43  69 102 133 174 236 278 342 422
#     4  10  22  44  68  94 137 178 223 294 344 403
#     4   8  19  40  66  94 130 170 223 281 338 400
#     4  11  25  43  62  98 141 178 227 280 345 418
#     4  10  21  41  66  97 132 178 227 277 352 413
#
# _framework density 22.313696
#
# number of rings (size 3 to 8) (size 9 to 14) (size 15 to 20)
#    0.000    2.000    0.000    3.600    2.800    4.800 
#   18.000    2.000    0.000    0.000    0.000    0.000 
#    0.000    0.000    0.000    0.000    0.000    0.000 
#
# Total GULP energy -111648.845214 kJ/mol
# GULP energy per Si atom -5582.442261 kJ/mol
# Density = 2.226291 g / cm^3
# Si number density = 22.313696 Si / 1000 Ang^3
#
#
#
# Elastic Constant Matrix: (Units=GPa)
#
#
# Indices 1 2 3 4 5 6 
#
# 1 105.9347 33.8413 15.1989 0.0000 1.4941 0.0000
# 2 33.8413 176.7832 37.6890 0.0000 7.7013 0.0000
# 3 15.1989 37.6890 109.2645 0.0000 -13.8216 0.0000
# 4 0.0000 0.0000 0.0000 44.5873 0.0000 2.9060
# 5 1.4941 7.7013 -13.8216 0.0000 44.7691 0.0000
# 6 0.0000 0.0000 0.0000 2.9060 0.0000 5.2250
#
#
#
# Elastic Compliance Matrix: (Units=1/GPa)
#
#
# Indices 1 2 3 4 5 6 
#
# 1 0.010122 -0.001745 -0.000844 0.000000 -0.000298 0.000000
# 2 -0.001745 0.006544 -0.002237 0.000000 -0.001758 0.000000
# 3 -0.000844 -0.002237 0.010504 0.000000 0.003656 0.000000
# 4 0.000000 0.000000 0.000000 0.023272 0.000000 -0.012943
# 5 -0.000298 -0.001758 0.003656 0.000000 0.023778 0.000000
# 6 0.000000 0.000000 0.000000 -0.012943 0.000000 0.198588
#
#
# Mechanical properties :
#
#
# Convention : Reuss Voigt Hill
#
# Bulk Modulus (GPa) = 57.08192 62.82676 59.95434
# Shear Modulus (GPa) = 17.34313 39.26648 28.30480
#
# Velocity S-wave (km/s) = 2.79093 4.19949 3.56546
# Velocity P-wave (km/s) = 6.00190 7.19246 6.62398
#
# Compressibility (1/GPa) = 0.01751868
#
# Stress axis : x y z
#
# Youngs Moduli (GPa) = 98.79026 152.80811 95.20598
#
# Poissons Ratio (x) = 0.26662 0.08035
# Poissons Ratio (y) = 0.17237 0.21297
# Poissons Ratio (z) = 0.08337 0.34183
#
# Static dielectric constant tensor:
#      x y z
#    x 1.823860 0.000000 0.094840 
#    y 0.000000 1.823200 0.000000 
#    z 0.094840 0.000000 2.210820 
# 
# From -- ./inp_files/141736.got.cif
#   From: 2010.05.17/outbox.cif.g08.bks.cpg/sg15_71_cif.got.tgz:141736.got - 2010.06.03 18:47:42.
