data_PCOD9285091
_publ_section_title
;
Structure prediction by ZEFSAII (Michael W. Deem and Ramdas Pophale) SiO2 
 PCOD9285091
Probable space group: C 2/C
;
_chemical_formula_sum "Si O2"
_cell_formula_units_Z 44
_cell_length_a 30.866411
_cell_length_b 4.781913
_cell_length_c 12.632560
_cell_angle_alpha 90.000000
_cell_angle_beta 72.809994
_cell_angle_gamma 90.000000
_cell_volume 1781.281502
_symmetry_space_group_name_H-M "C 2/C"
_symmetry_group_IT_number 15
_symmetry_cell_setting 'monoclinic'
loop_
_space_group_symop_operation_xyz
x,y,z
-x,y,1/2-z
-x,-y,-z
x,-y,1/2+z
1/2+x,1/2+y,z
1/2-x,1/2+y,1/2-z
1/2-x,1/2-y,-z
1/2+x,1/2-y,1/2+z
loop_
_atom_site_type_symbol
_atom_site_label
_atom_site_fract_x
_atom_site_fract_y
_atom_site_fract_z
Si Si1 0.000000 0.544668 0.250000
Si Si2 0.540113 0.336007 0.908345
Si Si3 0.390288 0.425407 0.810738
Si Si4 0.747673 0.358010 0.118755
Si Si5 0.696036 0.142442 0.729888
Si Si6 0.084903 0.614004 0.079253
O O1 0.017203 0.363464 0.337141
O O2 0.039823 0.724353 0.171869
O O3 0.576299 0.505385 0.810994
O O4 0.500000 0.500000 0.000000
O O5 0.571429 0.161526 0.968254
O O6 0.350205 0.257741 0.782227
O O7 0.377586 0.689574 0.893405
O O8 0.409744 0.200273 0.882561
O O9 0.734448 0.680543 0.139742
O O10 0.792819 0.303847 0.155062
O O11 0.707033 0.181033 0.202705
O O12 0.750000 0.250000 0.000000
#
# Coordination Sequence:
#
# PCOD9285091 Si02
#       6
#     4   8   8   8   8   8
#     4  10  22  40  60  86 118 158 212 266 306 364
#     4  11  22  41  65  89 121 167 212 254 310 366
#     4  11  25  40  60  93 129 159 203 259 306 363
#     4  10  21  41  67  91 121 164 204 245 305 371
#     4  10  22  40  62  94 127 158 203 253 302 366
#     4  11  23  40  60  87 120 161 205 254 311 361
#
# _framework density 24.701317
#
# number of rings (size 3 to 8) (size 9 to 14) (size 15 to 20)
#    0.000    1.455    0.000    5.455    0.000    8.000 
#    0.000    0.000    0.000    0.000    0.000    0.000 
#    0.000    0.000    0.000    0.000    0.000    0.000 
#
# Total GULP energy -122884.036828 kJ/mol
# GULP energy per Si atom -5585.638038 kJ/mol
# Density = 2.464510 g / cm^3
# Si number density = 24.701317 Si / 1000 Ang^3
#
#
#
# Elastic Constant Matrix: (Units=GPa)
#
#
# Indices 1 2 3 4 5 6 
#
# 1 82.0387 -1.8263 33.8499 0.0000 36.8210 0.0000
# 2 -1.8263 89.7532 25.5871 0.0000 13.7257 0.0000
# 3 33.8499 25.5871 151.3965 0.0000 46.2445 0.0000
# 4 0.0000 0.0000 0.0000 39.4733 0.0000 8.6428
# 5 36.8210 13.7257 46.2445 0.0000 37.8864 0.0000
# 6 0.0000 0.0000 0.0000 8.6428 0.0000 26.0669
#
#
#
# Elastic Compliance Matrix: (Units=1/GPa)
#
#
# Indices 1 2 3 4 5 6 
#
# 1 0.023487 0.003954 0.002376 0.000000 -0.027159 0.000000
# 2 0.003954 0.012576 -0.000708 0.000000 -0.007535 0.000000
# 3 0.002376 -0.000708 0.010875 0.000000 -0.015328 0.000000
# 4 0.000000 0.000000 0.000000 0.027317 0.000000 -0.009057
# 5 -0.027159 -0.007535 -0.015328 0.000000 0.074229 0.000000
# 6 0.000000 0.000000 0.000000 -0.009057 0.000000 0.041366
#
#
# Mechanical properties :
#
#
# Convention : Reuss Voigt Hill
#
# Bulk Modulus (GPa) = 17.18734 48.71221 32.94978
# Shear Modulus (GPa) = 25.25264 38.39049 31.82157
#
# Velocity S-wave (km/s) = 3.20084 3.94660 3.59312
# Velocity P-wave (km/s) = 4.54243 6.36638 5.53012
#
# Compressibility (1/GPa) = 0.05818237
#
# Stress axis : x y z
#
# Youngs Moduli (GPa) = 42.57764 79.51520 91.95087
#
# Poissons Ratio (x) = -0.31439 -0.21851
# Poissons Ratio (y) = -0.16834 0.06510
# Poissons Ratio (z) = -0.10118 0.05630
#
# Static dielectric constant tensor:
#      x y z
#    x 2.093390 0.000000 -0.001110 
#    y 0.000000 1.944180 0.000000 
#    z -0.001110 0.000000 1.933430 
# 
# From -- ./inp_files/124955.got.cif
#   From: 2010.05.17/outbox.cif.g08.bks.cpg/sg15_63_cif.got.tgz:124955.got - 2010.06.03 18:47:42.
