data_PCOD9285006
_publ_section_title
;
Structure prediction by ZEFSAII (Michael W. Deem and Ramdas Pophale) SiO2 
 PCOD9285006
Probable space group: C 2/C
;
_chemical_formula_sum "Si O2"
_cell_formula_units_Z 40
_cell_length_a 5.303066
_cell_length_b 28.542723
_cell_length_c 11.923048
_cell_angle_alpha 90.000000
_cell_angle_beta 78.215126
_cell_angle_gamma 90.000000
_cell_volume 1766.678501
_symmetry_space_group_name_H-M "C 2/C"
_symmetry_group_IT_number 15
_symmetry_cell_setting 'monoclinic'
loop_
_space_group_symop_operation_xyz
x,y,z
-x,y,1/2-z
-x,-y,-z
x,-y,1/2+z
1/2+x,1/2+y,z
1/2-x,1/2+y,1/2-z
1/2-x,1/2-y,-z
1/2+x,1/2-y,1/2+z
loop_
_atom_site_type_symbol
_atom_site_label
_atom_site_fract_x
_atom_site_fract_y
_atom_site_fract_z
Si Si1 0.528470 0.976935 0.870233
Si Si2 0.712956 0.707343 0.326056
Si Si3 0.022226 0.852059 0.464726
Si Si4 0.000838 0.051293 0.057223
Si Si5 0.427549 0.811726 0.126748
O O1 0.500000 0.002900 0.750000
O O2 0.294817 0.940826 0.885600
O O3 0.802357 0.952764 0.859009
O O4 0.500000 0.000000 0.000000
O O5 0.500000 0.701879 0.250000
O O6 0.657931 0.666621 0.418644
O O7 0.650175 0.757872 0.387012
O O8 0.000000 0.707931 0.250000
O O9 0.298303 0.826120 0.452320
O O10 0.081678 0.907019 0.468442
O O11 0.829218 0.840921 0.379637
O O12 0.000000 0.000000 0.000000
O O13 0.500000 0.816696 0.250000
#
# Coordination Sequence:
#
# PCOD9285006 Si02
#       5
#     8   8   8   8   8
#     4  10  21  41  66  93 128 174 223 280 340 396
#     4  11  23  40  64  97 129 165 212 270 337 405
#     4  12  23  41  66  93 128 175 219 265 331 405
#     4  10  23  42  62  93 130 171 222 276 332 392
#     4  11  23  42  64  94 130 167 214 273 329 398
#
# _framework density 22.641358
#
# number of rings (size 3 to 8) (size 9 to 14) (size 15 to 20)
#    0.000    1.200    0.000    7.200    0.000    2.400 
#    0.000   24.000    0.000    0.000    0.000    0.000 
#    0.000    0.000    0.000    0.000    0.000    0.000 
#
# Total GULP energy -111403.134812 kJ/mol
# GULP energy per Si atom -5570.156741 kJ/mol
# Density = 2.258983 g / cm^3
# Si number density = 22.641358 Si / 1000 Ang^3
#
#
#
# Elastic Constant Matrix: (Units=GPa)
#
#
# Indices 1 2 3 4 5 6 
#
# 1 204.8676 23.2905 41.9899 0.0000 4.1565 0.0000
# 2 23.2905 111.0654 37.8362 0.0000 -1.7863 0.0000
# 3 41.9899 37.8362 100.0275 0.0000 20.0693 0.0000
# 4 0.0000 0.0000 0.0000 8584.4326 0.0000-2182.0591
# 5 4.1565 -1.7863 20.0693 0.0000 59.4366 0.0000
# 6 0.0000 0.0000 0.0000-2182.0591 0.0000 566.1052
#
#
#
# Elastic Compliance Matrix: (Units=1/GPa)
#
#
# Indices 1 2 3 4 5 6 
#
# 1 0.005364 -0.000377 -0.002179 0.000000 0.000349 0.000000
# 2 -0.000377 0.010534 -0.004178 0.000000 0.001754 0.000000
# 3 -0.002179 -0.004178 0.013395 0.000000 -0.004496 0.000000
# 4 0.000000 0.000000 0.000000 0.005758 0.000000 0.022196
# 5 0.000349 0.001754 -0.004496 0.000000 0.018371 0.000000
# 6 0.000000 0.000000 0.000000 0.022196 0.000000 0.087320
#
#
# Mechanical properties :
#
#
# Convention : Reuss Voigt Hill
#
# Bulk Modulus (GPa) = 63.19559 69.13266 66.16412
# Shear Modulus (GPa) = 31.35082 1862.85112 947.10097
#
# Velocity S-wave (km/s) = 3.72515 28.71499 20.47471
# Velocity P-wave (km/s) = 6.81722 33.61549 24.25362
#
# Compressibility (1/GPa) = 0.01582389
#
# Stress axis : x y z
#
# Youngs Moduli (GPa) = 186.44249 94.92731 74.65686
#
# Poissons Ratio (x) = 0.03577 0.16269
# Poissons Ratio (y) = 0.07025 0.31195
# Poissons Ratio (z) = 0.40628 0.39665
#
# Static dielectric constant tensor:
#      x y z
#    x 1.890690 0.000000 -0.055840 
#    y 0.000000 1.769730 0.000000 
#    z -0.055840 0.000000 1.901950 
# 
# From -- ./inp_files/73052.got.cif
#   From: 2010.05.17/outbox.cif.g08.bks.cpg/sg15_37_cif.got.tgz:73052.got - 2010.06.03 18:47:42.
