data_PCOD9285614
_publ_section_title
;
Structure prediction by ZEFSAII (Michael W. Deem and Ramdas Pophale) SiO2 
 PCOD9285614
Probable space group: C 2/C
;
_chemical_formula_sum "Si O2"
_cell_formula_units_Z 56
_cell_length_a 13.547714
_cell_length_b 8.115542
_cell_length_c 20.562243
_cell_angle_alpha 90.000000
_cell_angle_beta 86.203471
_cell_angle_gamma 90.000000
_cell_volume 2255.796519
_symmetry_space_group_name_H-M "C 2/C"
_symmetry_group_IT_number 15
_symmetry_cell_setting 'monoclinic'
loop_
_space_group_symop_operation_xyz
x,y,z
-x,y,1/2-z
-x,-y,-z
x,-y,1/2+z
1/2+x,1/2+y,z
1/2-x,1/2+y,1/2-z
1/2-x,1/2-y,-z
1/2+x,1/2-y,1/2+z
loop_
_atom_site_type_symbol
_atom_site_label
_atom_site_fract_x
_atom_site_fract_y
_atom_site_fract_z
Si Si1 0.235522 0.563508 0.908568
Si Si2 0.067082 0.335076 0.506026
Si Si3 0.260598 0.802932 0.790572
Si Si4 0.334297 0.734219 0.644718
Si Si5 0.828108 0.482774 0.389415
Si Si6 0.048920 0.974286 0.817005
Si Si7 0.918521 0.856598 0.940766
O O1 0.155927 0.675495 0.949411
O O2 0.268940 0.648551 0.839704
O O3 0.171452 0.401769 0.893241
O O4 0.327272 0.486401 0.945800
O O5 0.130509 0.370166 0.567994
O O6 0.000000 0.500000 0.500000
O O7 0.987833 0.188196 0.499549
O O8 0.275681 0.760294 0.715048
O O9 0.334516 0.943168 0.816238
O O10 0.151785 0.877726 0.804079
O O11 0.284350 0.588028 0.604507
O O12 0.436613 0.665979 0.665523
O O13 0.879002 0.318787 0.414473
O O14 0.000000 0.959553 0.750000
O O15 0.987951 0.907460 0.878988
#
# Coordination Sequence:
#
# PCOD9285614 Si02
#       7
#     8   8   8   8   8   8   8
#     4  11  22  42  69  93 133 177 219 272 345 396
#     4  10  22  43  68  95 130 173 229 271 329 406
#     4  11  21  41  68  96 131 174 220 271 344 401
#     4  10  22  39  63  94 130 174 216 272 341 395
#     4   9  21  40  68  89 130 167 218 268 331 394
#     4  11  21  39  62  94 136 166 219 280 324 405
#     4  10  21  42  64  97 127 174 217 274 338 392
#
# _framework density 24.824933999999999
#
# number of rings (size 3 to 8) (size 9 to 14) (size 15 to 20)
#    0.000    1.714    1.429    4.286    0.000    5.714 
#   10.286    1.429    0.000    0.000    0.000    0.000 
#    0.000    0.000    0.000    0.000    0.000    0.000 
#
# Total GULP energy -156335.068860 kJ/mol
# GULP energy per Si atom -5583.395316 kJ/mol
# Density = 2.476843 g / cm^3
# Si number density = 24.824934 Si / 1000 Ang^3
#
#
#
# Elastic Constant Matrix: (Units=GPa)
#
#
# Indices 1 2 3 4 5 6 
#
# 1 65.1536 24.5958 39.2320 0.0000 8.1874 0.0000
# 2 24.5958 88.9211 10.1244 0.0000 23.9497 0.0000
# 3 39.2320 10.1244 84.0633 0.0000 15.0142 0.0000
# 4 0.0000 0.0000 0.0000 33.1369 0.0000 7.8979
# 5 8.1874 23.9497 15.0142 0.0000 31.6091 0.0000
# 6 0.0000 0.0000 0.0000 7.8979 0.0000 -21.7044
#
#
#
# Elastic Compliance Matrix: (Units=1/GPa)
#
#
# Indices 1 2 3 4 5 6 
#
# 1 0.023974 -0.006427 -0.011119 0.000000 0.003941 0.000000
# 2 -0.006427 0.015856 0.003211 0.000000 -0.011874 0.000000
# 3 -0.011119 0.003211 0.018159 0.000000 -0.008178 0.000000
# 4 0.000000 0.000000 0.000000 0.027769 0.000000 0.010105
# 5 0.003941 -0.011874 -0.008178 0.000000 0.043497 0.000000
# 6 0.000000 0.000000 0.000000 0.010105 0.000000 -0.042397
#
#
# Mechanical properties :
#
#
# Convention : Reuss Voigt Hill
#
# Bulk Modulus (GPa) = 34.10698 42.89360 38.50029
# Shear Modulus (GPa) = 39.90359 19.55405 29.72882
#
# Velocity S-wave (km/s) = 4.01359 2.80960 3.46430
# Velocity P-wave (km/s) = 5.93695 5.27647 5.61643
#
# Compressibility (1/GPa) = 0.02931951
#
# Stress axis : x y z
#
# Youngs Moduli (GPa) = 41.71136 63.06667 55.06987
#
# Poissons Ratio (x) = 0.40532 0.61230
# Poissons Ratio (y) = 0.26807 -0.17680
# Poissons Ratio (z) = 0.46377 -0.20248
#
# Static dielectric constant tensor:
#      x y z
#    x 2.002770 0.000000 0.041810 
#    y 0.000000 2.050050 0.000000 
#    z 0.041810 0.000000 1.938610 
# 
# From -- ./inp_files/242813.got.cif
#   From: 2010.05.17/outbox.cif.g08.bks.cpg/sg15_122_cif.got.tgz:242813.got - 2010.06.03 18:47:42.
