data_PCOD9285617
_publ_section_title
;
Structure prediction by ZEFSAII (Michael W. Deem and Ramdas Pophale) SiO2 
 PCOD9285617
Probable space group: C 2/C
;
_chemical_formula_sum "Si O2"
_cell_formula_units_Z 44
_cell_length_a 13.977625
_cell_length_b 5.951686
_cell_length_c 25.311847
_cell_angle_alpha 90.000000
_cell_angle_beta 115.745030
_cell_angle_gamma 90.000000
_cell_volume 1896.682838
_symmetry_space_group_name_H-M "C 2/C"
_symmetry_group_IT_number 15
_symmetry_cell_setting 'monoclinic'
loop_
_space_group_symop_operation_xyz
x,y,z
-x,y,1/2-z
-x,-y,-z
x,-y,1/2+z
1/2+x,1/2+y,z
1/2-x,1/2+y,1/2-z
1/2-x,1/2-y,-z
1/2+x,1/2-y,1/2+z
loop_
_atom_site_type_symbol
_atom_site_label
_atom_site_fract_x
_atom_site_fract_y
_atom_site_fract_z
Si Si1 0.066466 0.799128 0.491336
Si Si2 0.732432 0.497227 0.272220
Si Si3 0.252275 0.108352 0.553287
Si Si4 0.191345 0.488698 0.097385
Si Si5 0.090177 0.277672 0.878469
Si Si6 0.000000 0.885491 0.250000
O O1 0.091374 0.604548 0.540251
O O2 0.038045 0.767993 0.423071
O O3 0.185275 0.897381 0.519417
O O4 0.000000 0.000000 0.500000
O O5 0.759515 0.749173 0.255429
O O6 0.809986 0.455881 0.340769
O O7 0.609643 0.514938 0.262934
O O8 0.250000 0.250000 0.500000
O O9 0.197070 0.249772 0.585341
O O10 0.363706 0.026810 0.601902
O O11 0.306213 0.384216 0.106683
O O12 0.023454 0.253374 0.809279
#
# Coordination Sequence:
#
# PCOD9285617 Si02
#       6
#     8   8   8   8   8   4
#     4  11  23  36  64 100 138 169 228 296 364 429
#     4  11  28  50  74 108 151 198 254 312 371 455
#     4  11  19  40  67  90 126 174 230 284 353 429
#     4  10  22  42  68  92 132 188 228 297 364 429
#     4  10  21  42  64  97 133 183 234 292 362 445
#     4  10  26  48  74 102 150 202 246 304 384 450
#
# _framework density 23.198398000000001
#
# number of rings (size 3 to 8) (size 9 to 14) (size 15 to 20)
#    0.000    1.455    3.636    1.091   10.182    1.455 
#    6.545    0.000    0.000    0.000    0.000    0.000 
#    0.000    0.000    0.000    0.000    0.000    0.000 
#
# Total GULP energy -122508.379586 kJ/mol
# GULP energy per Si atom -5568.562708 kJ/mol
# Density = 2.314560 g / cm^3
# Si number density = 23.198398 Si / 1000 Ang^3
#
#
#
# Elastic Constant Matrix: (Units=GPa)
#
#
# Indices 1 2 3 4 5 6 
#
# 1 80.9165 42.2632 44.0737 0.0000 -7.3940 0.0000
# 2 42.2632 82.1722 43.3798 0.0000 -14.1785 0.0000
# 3 44.0737 43.3798 211.3468 0.0000 -19.4096 0.0000
# 4 0.0000 0.0000 0.0000 28.9113 0.0000 0.0807
# 5 -7.3940 -14.1785 -19.4096 0.0000 38.9188 0.0000
# 6 0.0000 0.0000 0.0000 0.0807 0.0000 43.2865
#
#
#
# Elastic Compliance Matrix: (Units=1/GPa)
#
#
# Indices 1 2 3 4 5 6 
#
# 1 0.017661 -0.008095 -0.002080 0.000000 -0.000631 0.000000
# 2 -0.008095 0.017901 -0.001602 0.000000 0.004185 0.000000
# 3 -0.002080 -0.001602 0.005664 0.000000 0.001846 0.000000
# 4 0.000000 0.000000 0.000000 0.034589 0.000000 -0.000064
# 5 -0.000631 0.004185 0.001846 0.000000 0.028020 0.000000
# 6 0.000000 0.000000 0.000000 -0.000064 0.000000 0.023102
#
#
# Mechanical properties :
#
#
# Convention : Reuss Voigt Hill
#
# Bulk Modulus (GPa) = 56.58222 70.42986 63.50604
# Shear Modulus (GPa) = 31.97361 38.53792 35.25576
#
# Velocity S-wave (km/s) = 3.71653 4.08024 3.90263
# Velocity P-wave (km/s) = 6.54678 7.25421 6.90955
#
# Compressibility (1/GPa) = 0.01767340
#
# Stress axis : x y z
#
# Youngs Moduli (GPa) = 56.62081 55.86432 176.56894
#
# Poissons Ratio (x) = 0.45220 0.36718
# Poissons Ratio (y) = 0.45833 0.28283
# Poissons Ratio (z) = 0.11774 0.08948
#
# Static dielectric constant tensor:
#      x y z
#    x 1.930780 0.000000 -0.109480 
#    y 0.000000 1.995850 0.000000 
#    z -0.109480 0.000000 1.590260 
# 
# From -- ./inp_files/271921.got.cif
#   From: 2010.05.17/outbox.cif.g08.bks.cpg/sg15_136_cif.got.tgz:271921.got - 2010.06.03 18:47:42.
