data_PCOD9285475
_publ_section_title
;
Structure prediction by ZEFSAII (Michael W. Deem and Ramdas Pophale) SiO2 
 PCOD9285475
Probable space group: C 2/C
;
_chemical_formula_sum "Si O2"
_cell_formula_units_Z 44
_cell_length_a 6.287697
_cell_length_b 24.352642
_cell_length_c 13.676731
_cell_angle_alpha 90.000000
_cell_angle_beta 98.965786
_cell_angle_gamma 90.000000
_cell_volume 2068.620944
_symmetry_space_group_name_H-M "C 2/C"
_symmetry_group_IT_number 15
_symmetry_cell_setting 'monoclinic'
loop_
_space_group_symop_operation_xyz
x,y,z
-x,y,1/2-z
-x,-y,-z
x,-y,1/2+z
1/2+x,1/2+y,z
1/2-x,1/2+y,1/2-z
1/2-x,1/2-y,-z
1/2+x,1/2-y,1/2+z
loop_
_atom_site_type_symbol
_atom_site_label
_atom_site_fract_x
_atom_site_fract_y
_atom_site_fract_z
Si Si1 0.582626 0.084483 0.982927
Si Si2 0.351457 0.810814 0.145102
Si Si3 0.218148 0.020613 0.066970
Si Si4 0.000000 0.231693 0.750000
Si Si5 0.145150 0.778450 0.586923
Si Si6 0.010399 0.889208 0.859257
O O1 0.360833 0.061833 0.011233
O O2 0.757687 0.092181 0.082964
O O3 0.595461 0.141182 0.926440
O O4 0.652002 0.035612 0.913884
O O5 0.500000 0.820467 0.250000
O O6 0.113694 0.804132 0.173050
O O7 0.430081 0.754332 0.101587
O O8 0.142377 0.057301 0.151539
O O9 0.000000 0.000000 0.000000
O O10 0.817511 0.268177 0.685791
O O11 0.250000 0.750000 0.500000
O O12 0.083813 0.842090 0.576457
O O13 0.000000 0.865408 0.750000
#
# Coordination Sequence:
#
# PCOD9285475 Si02
#       6
#     8   8   8   4   8   8
#     4  10  21  42  62  84 124 160 202 262 310 373
#     4  10  22  39  59  91 119 162 212 256 319 379
#     4   9  21  41  61  84 118 159 205 252 314 378
#     4  10  22  40  58  88 128 160 208 262 308 376
#     4  11  23  38  61  89 124 166 210 259 316 386
#     4  11  23  38  59  93 123 160 206 256 314 380
#
# _framework density 21.270209999999999
#
# number of rings (size 3 to 8) (size 9 to 14) (size 15 to 20)
#    0.000    1.818    0.000    3.818    0.000   12.364 
#   11.455    0.000    0.000    0.000    0.000    0.000 
#    0.000    0.000    0.000    0.000    0.000    0.000 
#
# Total GULP energy -122750.163242 kJ/mol
# GULP energy per Si atom -5579.552875 kJ/mol
# Density = 2.122180 g / cm^3
# Si number density = 21.270210 Si / 1000 Ang^3
#
#
#
# Elastic Constant Matrix: (Units=GPa)
#
#
# Indices 1 2 3 4 5 6 
#
# 1 101.7755 32.4236 12.8078 0.0000 -2.4197 0.0000
# 2 32.4236 101.6907 6.7492 0.0000 4.0994 0.0000
# 3 12.8078 6.7492 57.3013 0.0000 5.6522 0.0000
# 4 0.0000 0.0000 0.0000 -0.9300 0.0000 24.4450
# 5 -2.4197 4.0994 5.6522 0.0000 19.8370 0.0000
# 6 0.0000 0.0000 0.0000 24.4450 0.0000 3.3281
#
#
#
# Elastic Compliance Matrix: (Units=1/GPa)
#
#
# Indices 1 2 3 4 5 6 
#
# 1 0.011329 -0.003566 -0.002388 0.000000 0.002799 0.000000
# 2 -0.003566 0.011094 -0.000247 0.000000 -0.002657 0.000000
# 3 -0.002388 -0.000247 0.018560 0.000000 -0.005528 0.000000
# 4 0.000000 0.000000 0.000000 -0.005541 0.000000 0.040697
# 5 0.002799 -0.002657 -0.005528 0.000000 0.052877 0.000000
# 6 0.000000 0.000000 0.000000 0.040697 0.000000 0.001548
#
#
# Mechanical properties :
#
#
# Convention : Reuss Voigt Hill
#
# Bulk Modulus (GPa) = 34.99103 40.52543 37.75823
# Shear Modulus (GPa) = 44.72347 18.36614 31.54481
#
# Velocity S-wave (km/s) = 4.59042 2.94167 3.85522
# Velocity P-wave (km/s) = 6.67701 5.53461 6.13247
#
# Compressibility (1/GPa) = 0.02857875
#
# Stress axis : x y z
#
# Youngs Moduli (GPa) = 88.27014 90.13518 53.87966
#
# Poissons Ratio (x) = 0.32147 0.12868
# Poissons Ratio (y) = 0.31482 0.01333
# Poissons Ratio (z) = 0.21081 0.02231
#
# Static dielectric constant tensor:
#      x y z
#    x 1.821870 0.000000 -0.018420 
#    y 0.000000 1.744130 0.000000 
#    z -0.018420 0.000000 1.784680 
# 
# From -- ./inp_files/129473.got.cif
#   From: 2010.05.17/outbox.cif.g08.bks.cpg/sg15_65_cif.got.tgz:129473.got - 2010.06.03 18:47:42.
