data_PCOD9285255
_publ_section_title
;
Structure prediction by ZEFSAII (Michael W. Deem and Ramdas Pophale) SiO2 
 PCOD9285255
Probable space group: C 2/C
;
_chemical_formula_sum "Si O2"
_cell_formula_units_Z 44
_cell_length_a 11.906327
_cell_length_b 14.144796
_cell_length_c 11.276042
_cell_angle_alpha 90.000000
_cell_angle_beta 114.340180
_cell_angle_gamma 90.000000
_cell_volume 1730.231134
_symmetry_space_group_name_H-M "C 2/C"
_symmetry_group_IT_number 15
_symmetry_cell_setting 'monoclinic'
loop_
_space_group_symop_operation_xyz
x,y,z
-x,y,1/2-z
-x,-y,-z
x,-y,1/2+z
1/2+x,1/2+y,z
1/2-x,1/2+y,1/2-z
1/2-x,1/2-y,-z
1/2+x,1/2-y,1/2+z
loop_
_atom_site_type_symbol
_atom_site_label
_atom_site_fract_x
_atom_site_fract_y
_atom_site_fract_z
Si Si1 0.833820 0.351009 0.875256
Si Si2 0.456593 0.602883 0.526325
Si Si3 0.217114 0.494129 0.986265
Si Si4 0.952941 0.714476 0.864393
Si Si5 0.280190 0.648283 0.812103
Si Si6 0.000000 0.411509 0.750000
O O1 0.758590 0.254898 0.852611
O O2 0.893470 0.356097 0.772172
O O3 0.770361 0.447993 0.885495
O O4 0.942963 0.336530 0.014783
O O5 0.500000 0.500000 0.500000
O O6 0.323170 0.585353 0.525219
O O7 0.441671 0.680469 0.415338
O O8 0.575082 0.638700 0.653599
O O9 0.252480 0.571534 0.900130
O O10 0.079543 0.464914 0.885563
O O11 0.830202 0.651111 0.829109
O O12 0.000000 0.714975 0.750000
#
# Coordination Sequence:
#
# PCOD9285255 Si02
#       6
#     8   8   8   8   8   4
#     4  11  24  43  71  98 134 183 238 284 342 422
#     4   9  22  38  64 102 145 168 227 287 345 399
#     4  11  21  42  65 100 137 179 234 285 350 409
#     4  11  21  39  73 102 136 190 237 275 338 426
#     4  10  21  41  69 101 133 182 230 276 342 415
#     4  12  26  44  68 100 138 182 228 300 348 398
#
# _framework density 25.430129999999998
#
# number of rings (size 3 to 8) (size 9 to 14) (size 15 to 20)
#    0.000    1.455    1.818    3.273    5.091    0.000 
#    0.000   11.818   10.000    0.000    0.000    0.000 
#    0.000    0.000    0.000    0.000    0.000    0.000 
#
# Total GULP energy -123008.411399 kJ/mol
# GULP energy per Si atom -5591.291427 kJ/mol
# Density = 2.537225 g / cm^3
# Si number density = 25.430130 Si / 1000 Ang^3
#
#
#
# Elastic Constant Matrix: (Units=GPa)
#
#
# Indices 1 2 3 4 5 6 
#
# 1 107.5423 24.2066 21.3207 0.0000 12.8402 0.0000
# 2 24.2066 92.9881 -2.5632 0.0000 -6.8516 0.0000
# 3 21.3207 -2.5632 37.6754 0.0000 5.5542 0.0000
# 4 0.0000 0.0000 0.0000 25.9437 0.0000 1.3529
# 5 12.8402 -6.8516 5.5542 0.0000 52.7241 0.0000
# 6 0.0000 0.0000 0.0000 1.3529 0.0000 40.1298
#
#
#
# Elastic Compliance Matrix: (Units=1/GPa)
#
#
# Indices 1 2 3 4 5 6 
#
# 1 0.011652 -0.003403 -0.006442 0.000000 -0.002601 0.000000
# 2 -0.003403 0.011862 0.002421 0.000000 0.002115 0.000000
# 3 -0.006442 0.002421 0.030550 0.000000 -0.001335 0.000000
# 4 0.000000 0.000000 0.000000 0.038613 0.000000 -0.001302
# 5 -0.002601 0.002115 -0.001335 0.000000 0.020016 0.000000
# 6 0.000000 0.000000 0.000000 -0.001302 0.000000 0.024963
#
#
# Mechanical properties :
#
#
# Convention : Reuss Voigt Hill
#
# Bulk Modulus (GPa) = 25.49951 36.01488 30.75719
# Shear Modulus (GPa) = 30.19765 36.77564 33.48664
#
# Velocity S-wave (km/s) = 3.44971 3.80695 3.63272
# Velocity P-wave (km/s) = 5.09082 5.78937 5.45130
#
# Compressibility (1/GPa) = 0.03921644
#
# Stress axis : x y z
#
# Youngs Moduli (GPa) = 85.81997 84.29999 32.73369
#
# Poissons Ratio (x) = 0.28684 0.21087
# Poissons Ratio (y) = 0.29201 -0.07924
# Poissons Ratio (z) = 0.55286 -0.20407
#
# Static dielectric constant tensor:
#      x y z
#    x 2.067300 0.000000 0.033500 
#    y 0.000000 2.027920 0.000000 
#    z 0.033500 0.000000 2.074280 
# 
# From -- ./inp_files/87969.got.cif
#   From: 2010.05.17/outbox.cif.g08.bks.cpg/sg15_44_cif.got.tgz:87969.got - 2010.06.03 18:47:42.
