data_PCOD9285936
_publ_section_title
;
Structure prediction by ZEFSAII (Michael W. Deem and Ramdas Pophale) SiO2 
 PCOD9285936
Probable space group: C 2/C
;
_chemical_formula_sum "Si O2"
_cell_formula_units_Z 56
_cell_length_a 19.985431
_cell_length_b 17.879438
_cell_length_c 8.337753
_cell_angle_alpha 90.000000
_cell_angle_beta 50.472357
_cell_angle_gamma 90.000000
_cell_volume 2297.998044
_symmetry_space_group_name_H-M "C 2/C"
_symmetry_group_IT_number 15
_symmetry_cell_setting 'monoclinic'
loop_
_space_group_symop_operation_xyz
x,y,z
-x,y,1/2-z
-x,-y,-z
x,-y,1/2+z
1/2+x,1/2+y,z
1/2-x,1/2+y,1/2-z
1/2-x,1/2-y,-z
1/2+x,1/2-y,1/2+z
loop_
_atom_site_type_symbol
_atom_site_label
_atom_site_fract_x
_atom_site_fract_y
_atom_site_fract_z
Si Si1 0.091468 0.740121 0.044984
Si Si2 0.089712 0.414981 0.702989
Si Si3 0.181894 0.938416 0.365894
Si Si4 0.593047 0.177784 0.675412
Si Si5 0.768537 0.230062 0.657085
Si Si6 0.324647 0.043579 0.102340
Si Si7 0.933209 0.026096 0.734492
O O1 0.102480 0.671471 0.151196
O O2 0.000000 0.773612 0.250000
O O3 0.081309 0.707019 0.876547
O O4 0.191283 0.770060 0.876332
O O5 0.156303 0.463930 0.503272
O O6 0.109625 0.437530 0.854037
O O7 0.000000 0.434352 0.750000
O O8 0.227718 0.858996 0.327269
O O9 0.139370 0.931143 0.255278
O O10 0.228764 0.021117 0.304179
O O11 0.109120 0.954268 0.612702
O O12 0.500000 0.155624 0.750000
O O13 0.634700 0.236546 0.485011
O O14 0.656631 0.106048 0.559642
O O15 0.750000 0.250000 0.500000
O O16 0.000000 0.067529 0.750000
O O17 0.000000 0.000000 0.500000
#
# Coordination Sequence:
#
# PCOD9285936 Si02
#       7
#     8   8   8   8   8   8   8
#     4  10  21  42  68  97 140 182 233 295 359 433
#     4  11  21  35  59  94 136 178 221 291 345 417
#     4  11  22  40  73 102 140 189 247 309 371 444
#     4  11  24  44  68 103 141 193 241 298 371 447
#     4  10  24  43  72  98 144 195 244 297 369 448
#     4  12  23  37  67 102 140 178 241 292 363 432
#     4   9  21  41  68 102 140 178 242 314 372 434
#
# _framework density 24.369039000000001
#
# number of rings (size 3 to 8) (size 9 to 14) (size 15 to 20)
#    0.000    1.429    1.429    4.286    6.000    1.714 
#    0.000    2.857    6.286    0.857    0.000    0.000 
#    0.000    0.000    0.000    0.000    0.000    0.000 
#
# Total GULP energy -155897.893174 kJ/mol
# GULP energy per Si atom -5567.781899 kJ/mol
# Density = 2.431357 g / cm^3
# Si number density = 24.369039 Si / 1000 Ang^3
#
#
#
# Elastic Constant Matrix: (Units=GPa)
#
#
# Indices 1 2 3 4 5 6 
#
# 1 127.5020 22.6320 23.5895 0.0000 15.3750 0.0000
# 2 22.6320 94.2935 36.0729 0.0000 -3.8061 0.0000
# 3 23.5895 36.0729 159.4447 0.0000 -18.4825 0.0000
# 4 0.0000 0.0000 0.0000 20.4534 0.0000 -20.5847
# 5 15.3750 -3.8061 -18.4825 0.0000 38.7167 0.0000
# 6 0.0000 0.0000 0.0000 -20.5847 0.0000 38.3112
#
#
#
# Elastic Compliance Matrix: (Units=1/GPa)
#
#
# Indices 1 2 3 4 5 6 
#
# 1 0.008957 -0.001779 -0.001435 0.000000 -0.004417 0.000000
# 2 -0.001779 0.011964 -0.002356 0.000000 0.000758 0.000000
# 3 -0.001435 -0.002356 0.007469 0.000000 0.003904 0.000000
# 4 0.000000 0.000000 0.000000 0.106460 0.000000 0.057201
# 5 -0.004417 0.000758 0.003904 0.000000 0.029521 0.000000
# 6 0.000000 0.000000 0.000000 0.057201 0.000000 0.056836
#
#
# Mechanical properties :
#
#
# Convention : Reuss Voigt Hill
#
# Bulk Modulus (GPa) = 57.96624 60.64766 59.30695
# Shear Modulus (GPa) = 20.99991 39.42598 30.21295
#
# Velocity S-wave (km/s) = 2.93873 4.02664 3.52491
# Velocity P-wave (km/s) = 5.94587 6.82346 6.39973
#
# Compressibility (1/GPa) = 0.01725142
#
# Stress axis : x y z
#
# Youngs Moduli (GPa) = 111.64655 83.58402 133.87817
#
# Poissons Ratio (x) = 0.14872 0.19206
# Poissons Ratio (y) = 0.19865 0.31537
# Poissons Ratio (z) = 0.16017 0.19689
#
# Static dielectric constant tensor:
#      x y z
#    x 2.123250 0.000000 -0.200370 
#    y 0.000000 1.991390 0.000000 
#    z -0.200370 0.000000 2.236390 
# 
# From -- ./inp_files/57785.got.cif
#   From: 2010.05.17/outbox.cif.g08.bks.cpg/sg15_29_cif.got.tgz:57785.got - 2010.06.03 18:47:42.
