data_PCOD9285862
_publ_section_title
;
Structure prediction by ZEFSAII (Michael W. Deem and Ramdas Pophale) SiO2 
 PCOD9285862
Probable space group: C 2/C
;
_chemical_formula_sum "Si O2"
_cell_formula_units_Z 28
_cell_length_a 11.423304
_cell_length_b 23.308863
_cell_length_c 4.837751
_cell_angle_alpha 90.000000
_cell_angle_beta 100.425819
_cell_angle_gamma 90.000000
_cell_volume 1266.853204
_symmetry_space_group_name_H-M "C 2/C"
_symmetry_group_IT_number 15
_symmetry_cell_setting 'monoclinic'
loop_
_space_group_symop_operation_xyz
x,y,z
-x,y,1/2-z
-x,-y,-z
x,-y,1/2+z
1/2+x,1/2+y,z
1/2-x,1/2+y,1/2-z
1/2-x,1/2-y,-z
1/2+x,1/2-y,1/2+z
loop_
_atom_site_type_symbol
_atom_site_label
_atom_site_fract_x
_atom_site_fract_y
_atom_site_fract_z
Si Si1 0.618723 0.184877 0.414868
Si Si2 0.500000 0.279776 0.750000
Si Si3 0.772340 0.844329 0.492455
Si Si4 0.139089 0.961760 0.756155
O O1 0.500000 0.153391 0.250000
O O2 0.567348 0.239727 0.556305
O O3 0.697139 0.194336 0.176327
O O4 0.703671 0.155085 0.674500
O O5 0.404152 0.318283 0.547829
O O6 0.783273 0.907904 0.621704
O O7 0.000000 0.947065 0.750000
O O8 0.159305 0.982146 0.453861
#
# Coordination Sequence:
#
# PCOD9285862 Si02
#       4
#     8   4   8   8
#     4  12  26  43  63  95 140 179 220 258 316 394
#     4  12  26  42  66 102 134 174 218 272 318 398
#     4  12  25  42  70  97 134 174 215 272 331 383
#     4  10  21  42  67  99 129 160 212 279 336 382
#
# _framework density 22.102007
#
# number of rings (size 3 to 8) (size 9 to 14) (size 15 to 20)
#    0.000    0.571    4.286    3.429    4.000    0.000 
#    0.000    0.000    0.000   17.143    0.000    0.000 
#    0.000    0.000    0.000    0.000    0.000    0.000 
#
# Total GULP energy -78329.641504 kJ/mol
# GULP energy per Si atom -5594.974393 kJ/mol
# Density = 2.205170 g / cm^3
# Si number density = 22.102007 Si / 1000 Ang^3
#
#
#
# Elastic Constant Matrix: (Units=GPa)
#
#
# Indices 1 2 3 4 5 6 
#
# 1 87.0444 19.9603 42.0230 0.0000 24.1699 0.0000
# 2 19.9603 67.6134 17.7895 0.0000 19.3770 0.0000
# 3 42.0230 17.7895 152.3440 0.0000 30.6818 0.0000
# 4 0.0000 0.0000 0.0000 12.0593 0.0000 -1.6208
# 5 24.1699 19.3770 30.6818 0.0000 56.1201 0.0000
# 6 0.0000 0.0000 0.0000 -1.6208 0.0000 1.7222
#
#
#
# Elastic Compliance Matrix: (Units=1/GPa)
#
#
# Indices 1 2 3 4 5 6 
#
# 1 0.014528 -0.002420 -0.002959 0.000000 -0.003804 0.000000
# 2 -0.002420 0.016921 -0.000384 0.000000 -0.004590 0.000000
# 3 -0.002959 -0.000384 0.008025 0.000000 -0.002981 0.000000
# 4 0.000000 0.000000 0.000000 0.094931 0.000000 0.089340
# 5 -0.003804 -0.004590 -0.002981 0.000000 0.022672 0.000000
# 6 0.000000 0.000000 0.000000 0.089340 0.000000 0.664718
#
#
# Mechanical properties :
#
#
# Convention : Reuss Voigt Hill
#
# Bulk Modulus (GPa) = 35.78000 51.83859 43.80930
# Shear Modulus (GPa) = 5.93376 29.12893 17.53135
#
# Velocity S-wave (km/s) = 1.64029 3.63427 2.81944
# Velocity P-wave (km/s) = 4.45097 6.41216 5.51937
#
# Compressibility (1/GPa) = 0.02794857
#
# Stress axis : x y z
#
# Youngs Moduli (GPa) = 68.83269 59.09836 124.60446
#
# Poissons Ratio (x) = 0.14304 0.36868
# Poissons Ratio (y) = 0.16660 0.04782
# Poissons Ratio (z) = 0.20366 0.02268
#
# Static dielectric constant tensor:
#      x y z
#    x 1.835180 0.000000 0.034670 
#    y 0.000000 1.797670 0.000000 
#    z 0.034670 0.000000 1.819750 
# 
# From -- ./inp_files/3551.got.cif
#   From: 2010.05.17/outbox.cif.g08.bks.cpg/sg15_2_cif.got.tgz:3551.got - 2010.06.03 18:47:42.
