data_PCOD9285676
_publ_section_title
;
Structure prediction by ZEFSAII (Michael W. Deem and Ramdas Pophale) SiO2 
 PCOD9285676
Probable space group: C 2/C
;
_chemical_formula_sum "Si O2"
_cell_formula_units_Z 36
_cell_length_a 11.588987
_cell_length_b 11.706400
_cell_length_c 23.118068
_cell_angle_alpha 90.000000
_cell_angle_beta 148.816421
_cell_angle_gamma 90.000000
_cell_volume 1623.929558
_symmetry_space_group_name_H-M "C 2/C"
_symmetry_group_IT_number 15
_symmetry_cell_setting 'monoclinic'
loop_
_space_group_symop_operation_xyz
x,y,z
-x,y,1/2-z
-x,-y,-z
x,-y,1/2+z
1/2+x,1/2+y,z
1/2-x,1/2+y,1/2-z
1/2-x,1/2-y,-z
1/2+x,1/2-y,1/2+z
loop_
_atom_site_type_symbol
_atom_site_label
_atom_site_fract_x
_atom_site_fract_y
_atom_site_fract_z
Si Si1 0.146707 0.999930 0.363278
Si Si2 0.500000 0.067067 0.750000
Si Si3 0.713159 0.395601 0.705369
Si Si4 0.970857 0.341279 0.926142
Si Si5 0.942584 0.133213 0.984237
O O1 0.319899 0.921560 0.471543
O O2 0.000000 0.939937 0.250000
O O3 0.282315 0.100425 0.387496
O O4 0.973803 0.046204 0.335510
O O5 0.674774 0.138270 0.863500
O O6 0.360583 0.987238 0.733558
O O7 0.876695 0.336644 0.821085
O O8 0.569875 0.326819 0.596429
O O9 0.026781 0.214191 0.969877
O O10 0.000000 0.000000 0.000000
#
# Coordination Sequence:
#
# PCOD9285676 Si02
#       5
#     8   4   8   8   8
#     4   9  20  40  67  97 128 162 215 267 322 379
#     4  10  22  42  64  90 140 168 212 262 316 392
#     4  10  21  42  65  95 130 172 213 260 324 376
#     4  10  21  42  67  97 128 165 216 269 318 382
#     4  10  23  43  63  95 130 172 212 260 324 382
#
# _framework density 22.16845
#
# number of rings (size 3 to 8) (size 9 to 14) (size 15 to 20)
#    0.000    2.222    0.000    1.333    4.667    0.889 
#   32.000    8.889    0.000    0.000    0.000    0.000 
#    0.000    0.000    0.000    0.000    0.000    0.000 
#
# Total GULP energy -100476.255874 kJ/mol
# GULP energy per Si atom -5582.014215 kJ/mol
# Density = 2.211799 g / cm^3
# Si number density = 22.168450 Si / 1000 Ang^3
#
#
#
# Elastic Constant Matrix: (Units=GPa)
#
#
# Indices 1 2 3 4 5 6 
#
# 1 56.8994 3.1987 39.2949 0.0000 -18.7940 0.0000
# 2 3.1987 68.0774 42.2840 -0.0001 -21.0824 0.0000
# 3 39.2949 42.2840 205.4145 -0.0004 -49.8118 -0.0002
# 4 0.0000 -0.0001 -0.0004 -6.9979 0.0000 -7.9894
# 5 -18.7940 -21.0824 -49.8118 0.0000 48.5090 0.0000
# 6 0.0000 0.0000 -0.0002 -7.9894 0.0000 7.9079
#
#
#
# Elastic Compliance Matrix: (Units=1/GPa)
#
#
# Indices 1 2 3 4 5 6 
#
# 1 0.021746 0.002960 -0.003215 0.000000 0.006411 0.000000
# 2 0.002960 0.018211 -0.002820 0.000000 0.006166 0.000000
# 3 -0.003215 -0.002820 0.007276 0.000000 0.005001 0.000000
# 4 0.000000 0.000000 0.000000 -0.066359 0.000000 -0.067042
# 5 0.006411 0.006166 0.005001 0.000000 0.030913 0.000000
# 6 0.000000 0.000000 0.000000 -0.067042 0.000000 0.058722
#
#
# Mechanical properties :
#
#
# Convention : Reuss Voigt Hill
#
# Bulk Modulus (GPa) = 24.33997 55.54959 39.94478
# Shear Modulus (GPa) = 55.33861 26.25806 40.79834
#
# Velocity S-wave (km/s) = 5.00170 3.44536 4.29462
# Velocity P-wave (km/s) = 6.66028 6.39841 6.53066
#
# Compressibility (1/GPa) = 0.04108468
#
# Stress axis : x y z
#
# Youngs Moduli (GPa) = 45.98549 54.91195 137.43363
#
# Poissons Ratio (x) = -0.16255 0.44181
# Poissons Ratio (y) = -0.13613 0.38752
# Poissons Ratio (z) = 0.14783 0.15484
#
# Static dielectric constant tensor:
#      x y z
#    x 2.015940 0.000000 -0.019340 
#    y 0.000000 1.798860 0.000000 
#    z -0.019340 0.000000 1.905830 
# 
# From -- ./inp_files/84390.got.cif
#   From: 2010.05.17/outbox.cif.g08.bks.cpg/sg15_43_cif.got.tgz:84390.got - 2010.06.03 18:47:42.
