data_PCOD9285162
_publ_section_title
;
Structure prediction by ZEFSAII (Michael W. Deem and Ramdas Pophale) SiO2 
 PCOD9285162
Probable space group: C 2/C
;
_chemical_formula_sum "Si O2"
_cell_formula_units_Z 44
_cell_length_a 8.427650
_cell_length_b 19.364452
_cell_length_c 12.978811
_cell_angle_alpha 90.000000
_cell_angle_beta 75.381253
_cell_angle_gamma 90.000000
_cell_volume 2049.530701
_symmetry_space_group_name_H-M "C 2/C"
_symmetry_group_IT_number 15
_symmetry_cell_setting 'monoclinic'
loop_
_space_group_symop_operation_xyz
x,y,z
-x,y,1/2-z
-x,-y,-z
x,-y,1/2+z
1/2+x,1/2+y,z
1/2-x,1/2+y,1/2-z
1/2-x,1/2-y,-z
1/2+x,1/2-y,1/2+z
loop_
_atom_site_type_symbol
_atom_site_label
_atom_site_fract_x
_atom_site_fract_y
_atom_site_fract_z
Si Si1 0.667273 0.330843 0.818445
Si Si2 0.855034 0.407803 0.389138
Si Si3 0.000000 0.614051 0.250000
Si Si4 0.571113 0.546263 0.079438
Si Si5 0.626439 0.249497 0.613711
Si Si6 0.328226 0.987045 0.181571
O O1 0.853194 0.341881 0.822184
O O2 0.566779 0.402437 0.852135
O O3 0.553582 0.274321 0.892076
O O4 0.662558 0.502192 0.646701
O O5 0.719532 0.412239 0.499972
O O6 0.874218 0.329391 0.350661
O O7 0.030750 0.439814 0.393284
O O8 0.197007 0.453674 0.201352
O O9 0.090823 0.562269 0.313572
O O10 0.672381 0.698565 0.199944
O O11 0.500000 0.500000 0.000000
O O12 0.750000 0.250000 0.500000
#
# Coordination Sequence:
#
# PCOD9285162 Si02
#       6
#     8   8   4   8   8   8
#     4  11  23  42  69  95 141 178 233 285 340 413
#     4  10  22  41  67 103 137 182 230 280 363 414
#     4  10  22  40  68 102 130 186 222 284 358 400
#     4  12  24  42  71 108 135 184 236 285 360 422
#     4  11  22  44  72  99 134 189 235 281 348 418
#     4  10  21  41  67  99 149 172 221 297 350 420
#
# _framework density 21.468329000000001
#
# number of rings (size 3 to 8) (size 9 to 14) (size 15 to 20)
#    0.000    1.455    1.818    7.091    0.000    2.182 
#    0.000    4.545    0.000    0.000    0.000    0.000 
#    0.000    0.000    0.000    0.000    0.000    0.000 
#
# Total GULP energy -122860.645082 kJ/mol
# GULP energy per Si atom -5584.574776 kJ/mol
# Density = 2.141947 g / cm^3
# Si number density = 21.468329 Si / 1000 Ang^3
#
#
#
# Elastic Constant Matrix: (Units=GPa)
#
#
# Indices 1 2 3 4 5 6 
#
# 1 142.7709 51.5528 60.2639 0.0000 -15.7601 0.0000
# 2 51.5528 122.5903 46.1647 0.0000 -0.7745 0.0000
# 3 60.2639 46.1647 103.9273 0.0000 -30.0323 0.0000
# 4 0.0000 0.0000 0.0000 38.5002 0.0000 -12.8856
# 5 -15.7601 -0.7745 -30.0323 0.0000 51.7397 0.0000
# 6 0.0000 0.0000 0.0000 -12.8856 0.0000 26.8443
#
#
#
# Elastic Compliance Matrix: (Units=1/GPa)
#
#
# Indices 1 2 3 4 5 6 
#
# 1 0.009827 -0.002426 -0.004525 0.000000 0.000330 0.000000
# 2 -0.002426 0.010760 -0.004253 0.000000 -0.003047 0.000000
# 3 -0.004525 -0.004253 0.016483 0.000000 0.008126 0.000000
# 4 0.000000 0.000000 0.000000 0.030945 0.000000 0.014854
# 5 0.000330 -0.003047 0.008126 0.000000 0.024099 0.000000
# 6 0.000000 0.000000 0.000000 0.014854 0.000000 0.044382
#
#
# Mechanical properties :
#
#
# Convention : Reuss Voigt Hill
#
# Bulk Modulus (GPa) = 68.20638 76.13901 72.17269
# Shear Modulus (GPa) = 30.52639 37.50397 34.01518
#
# Velocity S-wave (km/s) = 3.77494 4.18418 3.98481
# Velocity P-wave (km/s) = 7.13021 7.67371 7.40695
#
# Compressibility (1/GPa) = 0.01466139
#
# Stress axis : x y z
#
# Youngs Moduli (GPa) = 101.76212 92.93703 60.66736
#
# Poissons Ratio (x) = 0.22550 0.27452
# Poissons Ratio (y) = 0.24692 0.25802
# Poissons Ratio (z) = 0.46047 0.39526
#
# Static dielectric constant tensor:
#      x y z
#    x 1.823320 0.000000 -0.030730 
#    y 0.000000 1.799210 0.000000 
#    z -0.030730 0.000000 1.815320 
# 
# From -- ./inp_files/144644.got.cif
#   From: 2010.05.17/outbox.cif.g08.bks.cpg/sg15_73_cif.got.tgz:144644.got - 2010.06.03 18:47:42.
