data_PCOD9285691
_publ_section_title
;
Structure prediction by ZEFSAII (Michael W. Deem and Ramdas Pophale) SiO2 
 PCOD9285691
Probable space group: C 2/C
;
_chemical_formula_sum "Si O2"
_cell_formula_units_Z 32
_cell_length_a 24.716150
_cell_length_b 7.551592
_cell_length_c 13.253633
_cell_angle_alpha 90.000000
_cell_angle_beta 150.702395
_cell_angle_gamma 90.000000
_cell_volume 1210.515408
_symmetry_space_group_name_H-M "C 2/C"
_symmetry_group_IT_number 15
_symmetry_cell_setting 'monoclinic'
loop_
_space_group_symop_operation_xyz
x,y,z
-x,y,1/2-z
-x,-y,-z
x,-y,1/2+z
1/2+x,1/2+y,z
1/2-x,1/2+y,1/2-z
1/2-x,1/2-y,-z
1/2+x,1/2-y,1/2+z
loop_
_atom_site_type_symbol
_atom_site_label
_atom_site_fract_x
_atom_site_fract_y
_atom_site_fract_z
Si Si1 0.365719 0.878825 0.459935
Si Si2 0.364667 0.745793 0.867918
Si Si3 0.594323 0.671375 0.168080
Si Si4 0.812454 0.464304 0.586719
O O1 0.231850 0.853795 0.229203
O O2 0.412619 0.733037 0.460163
O O3 0.396187 0.077234 0.479285
O O4 0.379017 0.877185 0.601895
O O5 0.314497 0.831326 0.683881
O O6 0.474321 0.636341 0.021135
O O7 0.692713 0.535109 0.353976
O O8 0.630576 0.856889 0.280422
#
# Coordination Sequence:
#
# PCOD9285691 Si02
#       4
#     8   8   8   8
#     4  11  21  43  64  95 135 167 221 277 327 401
#     4  11  24  41  69  96 133 177 220 275 335 395
#     4  10  23  42  67  97 131 176 219 277 337 389
#     4  10  21  42  65  97 134 168 225 276 324 406
#
# _framework density 26.435023000000001
#
# number of rings (size 3 to 8) (size 9 to 14) (size 15 to 20)
#    0.000    1.500    2.500    3.750    0.000    5.000 
#    0.000    0.000    0.000    0.000    0.000    0.000 
#    0.000    0.000    0.000    0.000    0.000    0.000 
#
# Total GULP energy -89633.825774 kJ/mol
# GULP energy per Si atom -5602.114111 kJ/mol
# Density = 2.637486 g / cm^3
# Si number density = 26.435023 Si / 1000 Ang^3
#
#
#
# Elastic Constant Matrix: (Units=GPa)
#
#
# Indices 1 2 3 4 5 6 
#
# 1 147.0711 39.2550 37.3333 0.0000 9.4534 0.0000
# 2 39.2550 117.1579 21.8205 0.0000 17.3684 0.0000
# 3 37.3333 21.8205 116.5832 0.0000 13.4928 0.0000
# 4 0.0000 0.0000 0.0000 34.4708 0.0000 24.5109
# 5 9.4534 17.3684 13.4928 0.0000 54.0675 0.0000
# 6 0.0000 0.0000 0.0000 24.5109 0.0000 47.2573
#
#
#
# Elastic Compliance Matrix: (Units=1/GPa)
#
#
# Indices 1 2 3 4 5 6 
#
# 1 0.007943 -0.002248 -0.002107 0.000000 -0.000141 0.000000
# 2 -0.002248 0.009821 -0.000822 0.000000 -0.002557 0.000000
# 3 -0.002107 -0.000822 0.009610 0.000000 -0.001766 0.000000
# 4 0.000000 0.000000 0.000000 0.045961 0.000000 -0.023838
# 5 -0.000141 -0.002557 -0.001766 0.000000 0.019782 0.000000
# 6 0.000000 0.000000 0.000000 -0.023838 0.000000 0.033525
#
#
# Mechanical properties :
#
#
# Convention : Reuss Voigt Hill
#
# Bulk Modulus (GPa) = 58.75300 64.18108 61.46704
# Shear Modulus (GPa) = 35.04590 45.98601 40.51595
#
# Velocity S-wave (km/s) = 3.64502 4.17536 3.91917
# Velocity P-wave (km/s) = 6.32365 6.89756 6.61683
#
# Compressibility (1/GPa) = 0.01702041
#
# Stress axis : x y z
#
# Youngs Moduli (GPa) = 125.89194 101.82320 104.05359
#
# Poissons Ratio (x) = 0.22892 0.21920
# Poissons Ratio (y) = 0.28304 0.08557
# Poissons Ratio (z) = 0.26520 0.08373
#
# Static dielectric constant tensor:
#      x y z
#    x 2.008530 0.000000 -0.006210 
#    y 0.000000 2.197320 0.000000 
#    z -0.006210 0.000000 2.192090 
# 
# From -- ./inp_files/83820.got.cif
#   From: 2010.05.17/outbox.cif.g08.bks.cpg/sg15_42_cif.got.tgz:83820.got - 2010.06.03 18:47:42.
