data_PCOD9285222
_publ_section_title
;
Structure prediction by ZEFSAII (Michael W. Deem and Ramdas Pophale) SiO2 
 PCOD9285222
Probable space group: C 2/C
;
_chemical_formula_sum "Si O2"
_cell_formula_units_Z 40
_cell_length_a 17.188681
_cell_length_b 8.358185
_cell_length_c 11.944966
_cell_angle_alpha 90.000000
_cell_angle_beta 79.779747
_cell_angle_gamma 90.000000
_cell_volume 1688.858337
_symmetry_space_group_name_H-M "C 2/C"
_symmetry_group_IT_number 15
_symmetry_cell_setting 'monoclinic'
loop_
_space_group_symop_operation_xyz
x,y,z
-x,y,1/2-z
-x,-y,-z
x,-y,1/2+z
1/2+x,1/2+y,z
1/2-x,1/2+y,1/2-z
1/2-x,1/2-y,-z
1/2+x,1/2-y,1/2+z
loop_
_atom_site_type_symbol
_atom_site_label
_atom_site_fract_x
_atom_site_fract_y
_atom_site_fract_z
Si Si1 0.806635 0.232262 0.613561
Si Si2 0.868032 0.340034 0.387655
Si Si3 0.339808 0.375352 0.562062
Si Si4 0.493426 0.416996 0.628119
Si Si5 0.657107 0.807841 0.657432
O O1 0.838848 0.368763 0.524105
O O2 0.711792 0.236306 0.645451
O O3 0.850450 0.232176 0.719499
O O4 0.827624 0.064600 0.550299
O O5 0.943165 0.225928 0.376660
O O6 0.879059 0.514913 0.333376
O O7 0.404754 0.347797 0.640175
O O8 0.370085 0.295994 0.440143
O O9 0.252330 0.318335 0.615815
O O10 0.500000 0.502293 0.750000
O O11 0.500000 0.500000 0.500000
#
# Coordination Sequence:
#
# PCOD9285222 Si02
#       5
#     8   8   8   8   8
#     4  10  21  41  68  95 140 179 239 294 349 420
#     4  10  23  42  64 102 136 184 236 291 354 423
#     4  10  23  41  67 101 132 185 235 285 356 429
#     4  12  26  43  69 100 143 187 235 289 359 433
#     4  10  23  42  71  99 137 180 238 301 352 414
#
# _framework density 23.684640999999999
#
# number of rings (size 3 to 8) (size 9 to 14) (size 15 to 20)
#    0.000    1.600    2.000    1.200    2.800   15.200 
#    0.000    0.000    0.000    0.000    0.000    0.000 
#    0.000    0.000    0.000    0.000    0.000    0.000 
#
# Total GULP energy -111626.262054 kJ/mol
# GULP energy per Si atom -5581.313103 kJ/mol
# Density = 2.363073 g / cm^3
# Si number density = 23.684641 Si / 1000 Ang^3
#
#
#
# Elastic Constant Matrix: (Units=GPa)
#
#
# Indices 1 2 3 4 5 6 
#
# 1 129.1103 35.2810 16.7948 0.0000 30.1077 0.0000
# 2 35.2810 66.7615 36.2756 0.0000 11.1752 0.0000
# 3 16.7948 36.2756 133.6429 0.0000 34.0390 0.0000
# 4 0.0000 0.0000 0.0000 20.7322 0.0000 3.0103
# 5 30.1077 11.1752 34.0390 0.0000 43.4350 0.0000
# 6 0.0000 0.0000 0.0000 3.0103 0.0000 37.0858
#
#
#
# Elastic Compliance Matrix: (Units=1/GPa)
#
#
# Indices 1 2 3 4 5 6 
#
# 1 0.010786 -0.005560 0.002116 0.000000 -0.007704 0.000000
# 2 -0.005560 0.020470 -0.005619 0.000000 0.002991 0.000000
# 3 0.002116 -0.005619 0.010929 0.000000 -0.008586 0.000000
# 4 0.000000 0.000000 0.000000 0.048809 0.000000 -0.003962
# 5 -0.007704 0.002991 -0.008586 0.000000 0.034322 0.000000
# 6 0.000000 0.000000 0.000000 -0.003962 0.000000 0.027286
#
#
# Mechanical properties :
#
#
# Convention : Reuss Voigt Hill
#
# Bulk Modulus (GPa) = 41.56718 56.24640 48.90679
# Shear Modulus (GPa) = 27.97234 36.32817 32.15025
#
# Velocity S-wave (km/s) = 3.44034 3.92066 3.68833
# Velocity P-wave (km/s) = 5.77665 6.65545 6.23156
#
# Compressibility (1/GPa) = 0.02405744
#
# Stress axis : x y z
#
# Youngs Moduli (GPa) = 92.71247 48.85280 91.50153
#
# Poissons Ratio (x) = 0.27163 -0.19362
# Poissons Ratio (y) = 0.51550 0.51418
# Poissons Ratio (z) = -0.19618 0.27452
#
# Static dielectric constant tensor:
#      x y z
#    x 1.961100 0.000000 -0.058970 
#    y 0.000000 1.928660 0.000000 
#    z -0.058970 0.000000 2.014580 
# 
# From -- ./inp_files/102783.got.cif
#   From: 2010.05.17/outbox.cif.g08.bks.cpg/sg15_52_cif.got.tgz:102783.got - 2010.06.03 18:47:42.
