data_PCOD9285901
_publ_section_title
;
Structure prediction by ZEFSAII (Michael W. Deem and Ramdas Pophale) SiO2 
 PCOD9285901
Probable space group: C 2/C
;
_chemical_formula_sum "Si O2"
_cell_formula_units_Z 60
_cell_length_a 16.599152
_cell_length_b 7.386634
_cell_length_c 20.172138
_cell_angle_alpha 90.000000
_cell_angle_beta 91.069222
_cell_angle_gamma 90.000000
_cell_volume 2472.912713
_symmetry_space_group_name_H-M "C 2/C"
_symmetry_group_IT_number 15
_symmetry_cell_setting 'monoclinic'
loop_
_space_group_symop_operation_xyz
x,y,z
-x,y,1/2-z
-x,-y,-z
x,-y,1/2+z
1/2+x,1/2+y,z
1/2-x,1/2+y,1/2-z
1/2-x,1/2-y,-z
1/2+x,1/2-y,1/2+z
loop_
_atom_site_type_symbol
_atom_site_label
_atom_site_fract_x
_atom_site_fract_y
_atom_site_fract_z
Si Si1 0.964654 0.098212 0.937497
Si Si2 0.000000 0.016202 0.250000
Si Si3 0.231979 0.166427 0.187825
Si Si4 0.068346 0.234992 0.133241
Si Si5 0.411039 0.911427 0.100925
Si Si6 0.597584 0.727724 0.834752
Si Si7 0.237701 0.239519 0.342480
Si Si8 0.674359 0.861527 0.528746
O O1 0.036984 0.152380 0.889724
O O2 0.908299 0.257994 0.958458
O O3 0.908389 0.941596 0.907864
O O4 0.000000 0.000000 0.000000
O O5 0.927461 0.879444 0.231657
O O6 0.984176 0.149014 0.309387
O O7 0.152241 0.279957 0.168124
O O8 0.307044 0.274227 0.157084
O O9 0.239430 0.165770 0.267812
O O10 0.236603 0.954646 0.163922
O O11 0.004575 0.355192 0.091659
O O12 0.353091 0.752281 0.128071
O O13 0.418099 0.058186 0.159825
O O14 0.360340 0.981893 0.034737
O O15 0.291411 0.124219 0.395300
O O16 0.750000 0.750000 0.500000
#
# Coordination Sequence:
#
# PCOD9285901 Si02
#       8
#     8   4   8   8   8   8   8   8
#     4  11  22  44  68  92 126 172 216 262 320 389
#     4  10  22  40  64  92 132 178 212 260 328 392
#     4  11  22  40  61  97 130 166 211 271 318 391
#     4  11  21  39  67  94 126 169 218 261 321 390
#     4  10  22  41  66  96 131 167 219 268 325 386
#     4  10  25  41  63  96 135 169 211 272 328 378
#     4  10  22  40  65  92 132 167 215 265 328 381
#     4  10  21  42  68  92 124 172 213 267 320 382
#
# _framework density 24.262885000000001
#
# number of rings (size 3 to 8) (size 9 to 14) (size 15 to 20)
#    0.000    1.600    2.667    1.600    1.867    4.267 
#    0.000    0.667    0.000    0.000    0.000    0.000 
#    0.000    0.000    0.000    0.000    0.000    0.000 
#
# Total GULP energy -167021.836843 kJ/mol
# GULP energy per Si atom -5567.394561 kJ/mol
# Density = 2.420766 g / cm^3
# Si number density = 24.262885 Si / 1000 Ang^3
#
#
#
# Elastic Constant Matrix: (Units=GPa)
#
#
# Indices 1 2 3 4 5 6 
#
# 1 123.6280 13.8089 28.0245 0.0000 28.5217 0.0000
# 2 13.8089 44.7520 12.6317 0.0000 13.0466 0.0000
# 3 28.0245 12.6317 96.8217 0.0000 19.2102 0.0000
# 4 0.0000 0.0000 0.0000 28.8381 0.0000 -3.8509
# 5 28.5217 13.0466 19.2102 0.0000 37.4738 0.0000
# 6 0.0000 0.0000 0.0000 -3.8509 0.0000 16.6825
#
#
#
# Elastic Compliance Matrix: (Units=1/GPa)
#
#
# Indices 1 2 3 4 5 6 
#
# 1 0.010037 -0.000747 -0.001496 0.000000 -0.006612 0.000000
# 2 -0.000747 0.025179 -0.001606 0.000000 -0.007374 0.000000
# 3 -0.001496 -0.001606 0.011838 0.000000 -0.004371 0.000000
# 4 0.000000 0.000000 0.000000 0.035779 0.000000 0.008259
# 5 -0.006612 -0.007374 -0.004371 0.000000 0.036526 0.000000
# 6 0.000000 0.000000 0.000000 0.008259 0.000000 0.061850
#
#
# Mechanical properties :
#
#
# Convention : Reuss Voigt Hill
#
# Bulk Modulus (GPa) = 25.40851 41.57021 33.48936
# Shear Modulus (GPa) = 24.74949 30.64798 27.69874
#
# Velocity S-wave (km/s) = 3.19730 3.55796 3.38244
# Velocity P-wave (km/s) = 4.91174 5.83517 5.39325
#
# Compressibility (1/GPa) = 0.03935689
#
# Stress axis : x y z
#
# Youngs Moduli (GPa) = 99.63365 39.71568 84.47434
#
# Poissons Ratio (x) = 0.02967 0.12635
# Poissons Ratio (y) = 0.07444 0.13563
# Poissons Ratio (z) = 0.14902 0.06377
#
# Static dielectric constant tensor:
#      x y z
#    x 2.510960 0.000000 1.135640 
#    y 0.000000 2.167630 0.000000 
#    z 1.135640 0.000000 4.147040 
# 
# From -- ./inp_files/247495.got.cif
#   From: 2010.05.17/outbox.cif.g08.bks.cpg/sg15_124_cif.got.tgz:247495.got - 2010.06.03 18:47:42.
