data_PCOD9285772
_publ_section_title
;
Structure prediction by ZEFSAII (Michael W. Deem and Ramdas Pophale) SiO2 
 PCOD9285772
Probable space group: C 2/C
;
_chemical_formula_sum "Si O2"
_cell_formula_units_Z 56
_cell_length_a 17.226732
_cell_length_b 14.124535
_cell_length_c 16.551330
_cell_angle_alpha 90.000000
_cell_angle_beta 36.141207
_cell_angle_gamma 90.000000
_cell_volume 2375.188130
_symmetry_space_group_name_H-M "C 2/C"
_symmetry_group_IT_number 15
_symmetry_cell_setting 'monoclinic'
loop_
_space_group_symop_operation_xyz
x,y,z
-x,y,1/2-z
-x,-y,-z
x,-y,1/2+z
1/2+x,1/2+y,z
1/2-x,1/2+y,1/2-z
1/2-x,1/2-y,-z
1/2+x,1/2-y,1/2+z
loop_
_atom_site_type_symbol
_atom_site_label
_atom_site_fract_x
_atom_site_fract_y
_atom_site_fract_z
Si Si1 0.140514 0.031762 0.174038
Si Si2 0.587598 0.998160 0.101872
Si Si3 0.132790 0.699876 0.003906
Si Si4 0.903858 0.390588 0.144473
Si Si5 0.401557 0.676838 0.723148
Si Si6 0.390695 0.584716 0.570477
Si Si7 0.030782 0.800642 0.818560
O O1 0.132731 0.930167 0.222248
O O2 0.000000 0.036969 0.250000
O O3 0.149028 0.122714 0.223842
O O4 0.265210 0.039172 0.012885
O O5 0.500000 0.969009 0.250000
O O6 0.520719 0.959927 0.075583
O O7 0.608280 0.110409 0.081398
O O8 0.097760 0.652216 0.945239
O O9 0.282000 0.733929 0.863021
O O10 0.045512 0.782818 0.115831
O O11 0.763869 0.440453 0.286630
O O12 0.927816 0.296469 0.176743
O O13 0.403197 0.668876 0.625378
O O14 0.500000 0.500000 0.500000
O O15 0.421960 0.639046 0.460505
O O16 0.000000 0.781753 0.750000
#
# Coordination Sequence:
#
# PCOD9285772 Si02
#       7
#     8   8   8   8   8   8   8
#     4  10  24  43  67  98 134 177 226 277 336 413
#     4  11  26  44  65  94 135 177 223 282 343 400
#     4  10  23  42  66  97 130 172 225 278 337 399
#     4  11  25  43  67 100 136 179 225 278 341 406
#     4  10  21  42  66  97 129 174 224 276 336 401
#     4  11  23  42  65  99 134 181 227 273 335 403
#     4  11  24  41  67 101 141 177 224 280 340 410
#
# _framework density 23.577079999999999
#
# number of rings (size 3 to 8) (size 9 to 14) (size 15 to 20)
#    0.000    1.429    2.857    0.857    6.000    3.429 
#    0.000    2.857    0.000    0.000    0.000    0.000 
#    0.000    0.000    0.000    0.000    0.000    0.000 
#
# Total GULP energy -156036.805398 kJ/mol
# GULP energy per Si atom -5572.743050 kJ/mol
# Density = 2.352342 g / cm^3
# Si number density = 23.577080 Si / 1000 Ang^3
#
#
#
# Elastic Constant Matrix: (Units=GPa)
#
#
# Indices 1 2 3 4 5 6 
#
# 1 80.5492 6.5425 35.3405 0.0000 -7.3330 0.0000
# 2 6.5425 83.8874 36.9473 0.0000 -9.2703 0.0000
# 3 35.3405 36.9473 163.5566 0.0000 -17.7541 0.0000
# 4 0.0000 0.0000 0.0000 22.7194 0.0000 -6.0381
# 5 -7.3330 -9.2703 -17.7541 0.0000 36.4588 0.0000
# 6 0.0000 0.0000 0.0000 -6.0381 0.0000 22.9995
#
#
#
# Elastic Compliance Matrix: (Units=1/GPa)
#
#
# Indices 1 2 3 4 5 6 
#
# 1 0.013792 0.000364 -0.002905 0.000000 0.001452 0.000000
# 2 0.000364 0.013389 -0.002878 0.000000 0.002076 0.000000
# 3 -0.002905 -0.002878 0.007654 0.000000 0.002411 0.000000
# 4 0.000000 0.000000 0.000000 0.047317 0.000000 0.012422
# 5 0.001452 0.002076 0.002411 0.000000 0.029422 0.000000
# 6 0.000000 0.000000 0.000000 0.012422 0.000000 0.046740
#
#
# Mechanical properties :
#
#
# Convention : Reuss Voigt Hill
#
# Bulk Modulus (GPa) = 41.67061 53.96153 47.81607
# Shear Modulus (GPa) = 28.22462 33.04641 30.63551
#
# Velocity S-wave (km/s) = 3.46370 3.74790 3.60860
# Velocity P-wave (km/s) = 5.80593 6.45492 6.13901
#
# Compressibility (1/GPa) = 0.02399773
#
# Stress axis : x y z
#
# Youngs Moduli (GPa) = 72.50685 74.68626 130.65804
#
# Poissons Ratio (x) = -0.02720 0.37952
# Poissons Ratio (y) = -0.02640 0.37603
# Poissons Ratio (z) = 0.21061 0.21494
#
# Static dielectric constant tensor:
#      x y z
#    x 2.013740 0.000000 0.002090 
#    y 0.000000 1.955430 0.000000 
#    z 0.002090 0.000000 1.978240 
# 
# From -- ./inp_files/215702.got.cif
#   From: 2010.05.17/outbox.cif.g08.bks.cpg/sg15_108_cif.got.tgz:215702.got - 2010.06.03 18:47:42.
