data_PCOD9285877
_publ_section_title
;
Structure prediction by ZEFSAII (Michael W. Deem and Ramdas Pophale) SiO2 
 PCOD9285877
Probable space group: C 2/C
;
_chemical_formula_sum "Si O2"
_cell_formula_units_Z 40
_cell_length_a 16.779633
_cell_length_b 8.206471
_cell_length_c 14.434189
_cell_angle_alpha 90.000000
_cell_angle_beta 126.430080
_cell_angle_gamma 90.000000
_cell_volume 1599.195927
_symmetry_space_group_name_H-M "C 2/C"
_symmetry_group_IT_number 15
_symmetry_cell_setting 'monoclinic'
loop_
_space_group_symop_operation_xyz
x,y,z
-x,y,1/2-z
-x,-y,-z
x,-y,1/2+z
1/2+x,1/2+y,z
1/2-x,1/2+y,1/2-z
1/2-x,1/2-y,-z
1/2+x,1/2-y,1/2+z
loop_
_atom_site_type_symbol
_atom_site_label
_atom_site_fract_x
_atom_site_fract_y
_atom_site_fract_z
Si Si1 0.140132 0.742587 0.382758
Si Si2 0.540867 0.391540 0.150100
Si Si3 0.029960 0.253732 0.377874
Si Si4 0.642694 0.960996 0.231438
Si Si5 0.690644 0.213688 0.117573
O O1 0.250000 0.750000 0.500000
O O2 0.110052 0.885955 0.289998
O O3 0.131544 0.585368 0.309962
O O4 0.053117 0.770371 0.397688
O O5 0.500782 0.572814 0.111557
O O6 0.609868 0.322374 0.117864
O O7 0.141593 0.297245 0.483162
O O8 0.000000 0.263400 0.250000
O O9 0.960772 0.391015 0.375026
O O10 0.707944 0.809240 0.308336
O O11 0.695365 0.051912 0.182384
#
# Coordination Sequence:
#
# PCOD9285877 Si02
#       5
#     8   8   8   8   8
#     4  10  21  42  68 101 137 181 227 287 347 418
#     4  10  22  43  69 100 138 184 234 278 352 421
#     4  12  25  44  70 104 142 183 233 294 352 416
#     4  11  26  44  70 106 137 185 238 287 357 414
#     4  11  25  47  71 102 142 185 235 293 345 424
#
# _framework density 25.012568999999999
#
# number of rings (size 3 to 8) (size 9 to 14) (size 15 to 20)
#    0.000    1.200    2.000    3.600    5.600    4.000 
#    7.200    0.000    0.000    0.000    0.000    0.000 
#    0.000    0.000    0.000    0.000    0.000    0.000 
#
# Total GULP energy -111981.122127 kJ/mol
# GULP energy per Si atom -5599.056106 kJ/mol
# Density = 2.495564 g / cm^3
# Si number density = 25.012569 Si / 1000 Ang^3
#
#
#
# Elastic Constant Matrix: (Units=GPa)
#
#
# Indices 1 2 3 4 5 6 
#
# 1 70.2681 15.7316 3.6328 0.0000 6.7604 0.0000
# 2 15.7316 81.5934 24.6149 0.0000 17.9387 0.0000
# 3 3.6328 24.6149 154.4264 0.0000 26.2270 0.0000
# 4 0.0000 0.0000 0.0000 28.0566 0.0000 11.2540
# 5 6.7604 17.9387 26.2270 0.0000 39.6939 0.0000
# 6 0.0000 0.0000 0.0000 11.2540 0.0000 44.3728
#
#
#
# Elastic Compliance Matrix: (Units=1/GPa)
#
#
# Indices 1 2 3 4 5 6 
#
# 1 0.014956 -0.002638 0.000337 0.000000 -0.001577 0.000000
# 2 -0.002638 0.014297 -0.001347 0.000000 -0.005122 0.000000
# 3 0.000337 -0.001347 0.007422 0.000000 -0.004352 0.000000
# 4 0.000000 0.000000 0.000000 0.039679 0.000000 -0.010063
# 5 -0.001577 -0.005122 -0.004352 0.000000 0.030652 0.000000
# 6 0.000000 0.000000 0.000000 -0.010063 0.000000 0.025089
#
#
# Mechanical properties :
#
#
# Convention : Reuss Voigt Hill
#
# Bulk Modulus (GPa) = 34.03994 43.80516 38.92255
# Shear Modulus (GPa) = 33.51567 39.91190 36.71378
#
# Velocity S-wave (km/s) = 3.66451 3.99892 3.83536
# Velocity P-wave (km/s) = 5.61636 6.23483 5.93366
#
# Compressibility (1/GPa) = 0.02937725
#
# Stress axis : x y z
#
# Youngs Moduli (GPa) = 66.86172 69.94478 134.74332
#
# Poissons Ratio (x) = 0.18454 -0.04535
# Poissons Ratio (y) = 0.17641 0.18149
# Poissons Ratio (z) = -0.02250 0.09421
#
# Static dielectric constant tensor:
#      x y z
#    x 2.004180 0.000000 -0.066560 
#    y 0.000000 1.961100 0.000000 
#    z -0.066560 0.000000 1.979780 
# 
# From -- ./inp_files/166506.got.cif
#   From: 2010.05.17/outbox.cif.g08.bks.cpg/sg15_84_cif.got.tgz:166506.got - 2010.06.03 18:47:42.
