data_PCOD9285570
_publ_section_title
;
Structure prediction by ZEFSAII (Michael W. Deem and Ramdas Pophale) SiO2 
 PCOD9285570
Probable space group: C 2/C
;
_chemical_formula_sum "Si O2"
_cell_formula_units_Z 40
_cell_length_a 6.987450
_cell_length_b 12.614306
_cell_length_c 17.261806
_cell_angle_alpha 90.000000
_cell_angle_beta 87.980199
_cell_angle_gamma 90.000000
_cell_volume 1520.541922
_symmetry_space_group_name_H-M "C 2/C"
_symmetry_group_IT_number 15
_symmetry_cell_setting 'monoclinic'
loop_
_space_group_symop_operation_xyz
x,y,z
-x,y,1/2-z
-x,-y,-z
x,-y,1/2+z
1/2+x,1/2+y,z
1/2-x,1/2+y,1/2-z
1/2-x,1/2-y,-z
1/2+x,1/2-y,1/2+z
loop_
_atom_site_type_symbol
_atom_site_label
_atom_site_fract_x
_atom_site_fract_y
_atom_site_fract_z
Si Si1 0.218388 0.855802 0.719172
Si Si2 0.713260 0.992541 0.559054
Si Si3 0.307922 0.219133 0.382726
Si Si4 0.875156 0.723383 0.922793
Si Si5 0.376183 0.533668 0.887297
O O1 0.327173 0.823695 0.795070
O O2 0.236969 0.772953 0.648691
O O3 0.000000 0.843616 0.750000
O O4 0.228509 0.973083 0.681541
O O5 0.611130 0.879506 0.569578
O O6 0.784717 0.001553 0.470060
O O7 0.601211 0.097228 0.584412
O O8 0.902968 0.996300 0.610370
O O9 0.377126 0.339436 0.384980
O O10 0.087629 0.227685 0.417217
O O11 0.750000 0.750000 0.000000
#
# Coordination Sequence:
#
# PCOD9285570 Si02
#       5
#     8   8   8   8   8
#     4  10  21  42  64  90 133 177 209 268 337 383
#     4  11  22  42  68  96 132 167 221 273 326 394
#     4  11  25  42  67  97 133 172 221 276 329 390
#     4  11  21  42  68  92 132 177 211 268 332 391
#     4  11  22  43  68  94 132 173 217 272 331 388
#
# _framework density 26.306412000000002
#
# number of rings (size 3 to 8) (size 9 to 14) (size 15 to 20)
#    0.000    1.200    6.000    1.800    2.800    0.800 
#    3.600    0.000    0.000    0.000    0.000    0.000 
#    0.000    0.000    0.000    0.000    0.000    0.000 
#
# Total GULP energy -112136.658639 kJ/mol
# GULP energy per Si atom -5606.832932 kJ/mol
# Density = 2.624654 g / cm^3
# Si number density = 26.306412 Si / 1000 Ang^3
#
#
#
# Elastic Constant Matrix: (Units=GPa)
#
#
# Indices 1 2 3 4 5 6 
#
# 1 76.5412 39.0015 18.4416 0.0000 -14.1264 0.0000
# 2 39.0015 243.6415 42.8829 0.0000 -4.5808 0.0000
# 3 18.4416 42.8829 149.8280 0.0000 -11.0240 0.0000
# 4 0.0000 0.0000 0.0000 53.6622 0.0000 -0.7016
# 5 -14.1264 -4.5808 -11.0240 0.0000 41.4787 0.0000
# 6 0.0000 0.0000 0.0000 -0.7016 0.0000 41.4241
#
#
#
# Elastic Compliance Matrix: (Units=1/GPa)
#
#
# Indices 1 2 3 4 5 6 
#
# 1 0.015273 -0.002197 -0.000904 0.000000 0.004719 0.000000
# 2 -0.002197 0.004639 -0.001096 0.000000 -0.000527 0.000000
# 3 -0.000904 -0.001096 0.007209 0.000000 0.001487 0.000000
# 4 0.000000 0.000000 0.000000 0.018639 0.000000 0.000316
# 5 0.004719 -0.000527 0.001487 0.000000 0.026053 0.000000
# 6 0.000000 0.000000 0.000000 0.000316 0.000000 0.024146
#
#
# Mechanical properties :
#
#
# Convention : Reuss Voigt Hill
#
# Bulk Modulus (GPa) = 53.39971 74.51807 63.95889
# Shear Modulus (GPa) = 45.20999 51.95865 48.58432
#
# Velocity S-wave (km/s) = 4.15009 4.44907 4.30218
# Velocity P-wave (km/s) = 6.58084 7.40140 7.00315
#
# Compressibility (1/GPa) = 0.01872669
#
# Stress axis : x y z
#
# Youngs Moduli (GPa) = 65.47504 215.55869 138.72091
#
# Poissons Ratio (x) = 0.47359 0.12538
# Poissons Ratio (y) = 0.14385 0.15206
# Poissons Ratio (z) = 0.05918 0.23628
#
# Static dielectric constant tensor:
#      x y z
#    x 2.139260 0.000000 0.039300 
#    y 0.000000 1.986870 0.000000 
#    z 0.039300 0.000000 2.036440 
# 
# From -- ./inp_files/187838.got.cif
#   From: 2010.05.17/outbox.cif.g08.bks.cpg/sg15_94_cif.got.tgz:187838.got - 2010.06.03 18:47:42.
