data_PCOD9285106
_publ_section_title
;
Structure prediction by ZEFSAII (Michael W. Deem and Ramdas Pophale) SiO2 
 PCOD9285106
Probable space group: C 2/C
;
_chemical_formula_sum "Si O2"
_cell_formula_units_Z 44
_cell_length_a 9.710149
_cell_length_b 22.558152
_cell_length_c 12.593656
_cell_angle_alpha 90.000000
_cell_angle_beta 134.851048
_cell_angle_gamma 90.000000
_cell_volume 1955.655473
_symmetry_space_group_name_H-M "C 2/C"
_symmetry_group_IT_number 15
_symmetry_cell_setting 'monoclinic'
loop_
_space_group_symop_operation_xyz
x,y,z
-x,y,1/2-z
-x,-y,-z
x,-y,1/2+z
1/2+x,1/2+y,z
1/2-x,1/2+y,1/2-z
1/2-x,1/2-y,-z
1/2+x,1/2-y,1/2+z
loop_
_atom_site_type_symbol
_atom_site_label
_atom_site_fract_x
_atom_site_fract_y
_atom_site_fract_z
Si Si1 0.975395 0.430542 0.459455
Si Si2 0.724988 0.171488 0.045351
Si Si3 0.003398 0.168816 0.513546
Si Si4 0.825253 0.737509 0.787561
Si Si5 0.000000 0.466554 0.250000
Si Si6 0.306753 0.918089 0.583710
O O1 0.169931 0.390887 0.569760
O O2 0.922846 0.429611 0.306911
O O3 0.834416 0.406743 0.473727
O O4 0.000000 0.500000 0.500000
O O5 0.632020 0.336998 0.975907
O O6 0.523840 0.199970 0.893917
O O7 0.797475 0.217562 0.173241
O O8 0.847280 0.220331 0.401239
O O9 0.886755 0.110424 0.478321
O O10 0.145516 0.193248 0.681203
O O11 0.830935 0.511541 0.119538
O O12 0.500000 0.894078 0.750000
#
# Coordination Sequence:
#
# PCOD9285106 Si02
#       6
#     8   8   8   8   4   8
#     4  10  21  41  67  93 127 178 213 271 334 388
#     4  11  21  38  69  92 133 170 227 265 326 391
#     4  11  20  38  64  97 128 170 222 266 330 388
#     4  10  22  38  63 100 131 176 219 276 321 399
#     4   8  20  40  68  84 130 176 220 262 338 386
#     4   9  20  39  65  90 133 163 213 271 330 390
#
# _framework density 22.498850999999998
#
# number of rings (size 3 to 8) (size 9 to 14) (size 15 to 20)
#    0.545    1.455    0.000    5.455    2.545    0.000 
#    0.000   14.545    4.000    0.000    0.000    0.000 
#    0.000    0.000    0.000    0.000    0.000    0.000 
#
# Total GULP energy -122814.738798 kJ/mol
# GULP energy per Si atom -5582.488127 kJ/mol
# Density = 2.244764 g / cm^3
# Si number density = 22.498851 Si / 1000 Ang^3
#
#
#
# Elastic Constant Matrix: (Units=GPa)
#
#
# Indices 1 2 3 4 5 6 
#
# 1 80.8954 35.3985 39.3636 0.0000 -15.4940 0.0000
# 2 35.3985 104.5855 27.3539 0.0000 7.8835 0.0000
# 3 39.3636 27.3539 118.0526 0.0000 -1.7377 0.0000
# 4 0.0000 0.0000 0.0000 -3.3979 0.0000 9.9935
# 5 -15.4940 7.8835 -1.7377 0.0000 30.4853 0.0000
# 6 0.0000 0.0000 0.0000 9.9935 0.0000 23.7585
#
#
#
# Elastic Compliance Matrix: (Units=1/GPa)
#
#
# Indices 1 2 3 4 5 6 
#
# 1 0.019654 -0.006211 -0.004948 0.000000 0.011313 0.000000
# 2 -0.006211 0.012380 -0.000892 0.000000 -0.006409 0.000000
# 3 -0.004948 -0.000892 0.010302 0.000000 -0.001697 0.000000
# 4 0.000000 0.000000 0.000000 -0.131554 0.000000 0.055335
# 5 0.011313 -0.006409 -0.001697 0.000000 0.040113 0.000000
# 6 0.000000 0.000000 0.000000 0.055335 0.000000 0.018815
#
#
# Mechanical properties :
#
#
# Convention : Reuss Voigt Hill
#
# Bulk Modulus (GPa) = 54.83940 56.41838 55.62889
# Shear Modulus (GPa) = -45262.78392 23.59702 -22619.59345
#
# Velocity S-wave (km/s) = -141.99118 3.24205 -100.37675
# Velocity P-wave (km/s) = 163.88278 6.25660 115.79814
#
# Compressibility (1/GPa) = 0.01823506
#
# Stress axis : x y z
#
# Youngs Moduli (GPa) = 50.88100 80.77492 97.06585
#
# Poissons Ratio (x) = 0.50168 0.48026
# Poissons Ratio (y) = 0.31601 0.08658
# Poissons Ratio (z) = 0.25175 0.07205
#
# Static dielectric constant tensor:
#      x y z
#    x 1.816800 0.000000 -0.019080 
#    y 0.000000 1.883110 0.000000 
#    z -0.019080 0.000000 1.893340 
# 
# From -- ./inp_files/148299.got.cif
#   From: 2010.05.17/outbox.cif.g08.bks.cpg/sg15_75_cif.got.tgz:148299.got - 2010.06.03 18:47:42.
