data_PCOD9285182
_publ_section_title
;
Structure prediction by ZEFSAII (Michael W. Deem and Ramdas Pophale) SiO2 
 PCOD9285182
Probable space group: C 2/C
;
_chemical_formula_sum "Si O2"
_cell_formula_units_Z 56
_cell_length_a 8.295009
_cell_length_b 29.841718
_cell_length_c 13.443094
_cell_angle_alpha 90.000000
_cell_angle_beta 127.505357
_cell_angle_gamma 90.000000
_cell_volume 2639.826675
_symmetry_space_group_name_H-M "C 2/C"
_symmetry_group_IT_number 15
_symmetry_cell_setting 'monoclinic'
loop_
_space_group_symop_operation_xyz
x,y,z
-x,y,1/2-z
-x,-y,-z
x,-y,1/2+z
1/2+x,1/2+y,z
1/2-x,1/2+y,1/2-z
1/2-x,1/2-y,-z
1/2+x,1/2-y,1/2+z
loop_
_atom_site_type_symbol
_atom_site_label
_atom_site_fract_x
_atom_site_fract_y
_atom_site_fract_z
Si Si1 0.541987 0.576465 0.931556
Si Si2 0.765953 0.749413 0.627583
Si Si3 0.572648 0.899423 0.063902
Si Si4 0.843343 0.480782 0.283012
Si Si5 0.775999 0.572332 0.208073
Si Si6 0.762185 0.846747 0.681358
Si Si7 0.355548 0.663649 0.793131
O O1 0.742636 0.587211 0.941299
O O2 0.369579 0.544705 0.819900
O O3 0.442308 0.625385 0.898071
O O4 0.616479 0.558111 0.064272
O O5 0.750000 0.750000 0.500000
O O6 0.680394 0.796424 0.638790
O O7 0.669003 0.707584 0.649396
O O8 0.000000 0.747092 0.750000
O O9 0.536332 0.947101 0.100798
O O10 0.657881 0.861140 0.171426
O O11 0.376066 0.878116 0.940201
O O12 0.785164 0.531614 0.290694
O O13 0.000000 0.484162 0.250000
O O14 0.737139 0.623777 0.219512
O O15 0.000000 0.574068 0.250000
O O16 0.000000 0.843659 0.750000
O O17 0.500000 0.671015 0.750000
#
# Coordination Sequence:
#
# PCOD9285182 Si02
#       7
#     8   8   8   8   8   8   8
#     4  10  21  41  68  89 130 166 215 269 321 383
#     4  11  25  44  66  97 137 173 217 279 342 393
#     4  10  21  44  64  92 125 171 218 265 319 393
#     4  10  23  38  65  95 121 168 215 263 321 379
#     4  11  23  43  60  94 131 169 211 269 322 387
#     4  11  26  40  62  92 129 171 211 266 337 380
#     4   9  21  41  70  96 121 174 223 266 320 400
#
# _framework density 21.213512999999999
#
# number of rings (size 3 to 8) (size 9 to 14) (size 15 to 20)
#    0.000    1.714    1.429    2.571    6.000    5.714 
#    0.000    2.143    0.000    0.000    0.000    0.000 
#    0.000    0.000    0.000    0.000    0.000    0.000 
#
# Total GULP energy -155943.947193 kJ/mol
# GULP energy per Si atom -5569.426685 kJ/mol
# Density = 2.116523 g / cm^3
# Si number density = 21.213513 Si / 1000 Ang^3
#
#
#
# Elastic Constant Matrix: (Units=GPa)
#
#
# Indices 1 2 3 4 5 6 
#
# 1 29.0461 39.3829 13.5473 0.0000 8.3372 0.0000
# 2 39.3829 155.1811 2.4159 0.0000 -10.5050 0.0000
# 3 13.5473 2.4159 82.1310 0.0000 2.3133 0.0000
# 4 0.0000 0.0000 0.0000 20.1808 0.0000 -5.5961
# 5 8.3372 -10.5050 2.3133 0.0000 22.0773 0.0000
# 6 0.0000 0.0000 0.0000 -5.5961 0.0000 40.2735
#
#
#
# Elastic Compliance Matrix: (Units=1/GPa)
#
#
# Indices 1 2 3 4 5 6 
#
# 1 0.085301 -0.024337 -0.012157 0.000000 -0.042520 0.000000
# 2 -0.024337 0.013609 0.003182 0.000000 0.015333 0.000000
# 3 -0.012157 0.003182 0.013957 0.000000 0.004643 0.000000
# 4 0.000000 0.000000 0.000000 0.051538 0.000000 0.007161
# 5 -0.042520 0.015333 0.004643 0.000000 0.068162 0.000000
# 6 0.000000 0.000000 0.000000 0.007161 0.000000 0.025825
#
#
# Mechanical properties :
#
#
# Convention : Reuss Voigt Hill
#
# Bulk Modulus (GPa) = 21.62493 41.89448 31.75970
# Shear Modulus (GPa) = 14.68732 30.57380 22.63056
#
# Velocity S-wave (km/s) = 2.63412 3.80049 3.26973
# Velocity P-wave (km/s) = 4.41220 6.24901 5.40914
#
# Compressibility (1/GPa) = 0.04624292
#
# Stress axis : x y z
#
# Youngs Moduli (GPa) = 11.72316 73.48073 71.65109
#
# Poissons Ratio (x) = 1.78833 0.87104
# Poissons Ratio (y) = 0.28531 -0.22801
# Poissons Ratio (z) = 0.14252 -0.23383
#
# Static dielectric constant tensor:
#      x y z
#    x 1.785380 0.000000 -0.031870 
#    y 0.000000 1.850650 0.000000 
#    z -0.031870 0.000000 1.830980 
# 
# From -- ./inp_files/139556.got.cif
#   From: 2010.05.17/outbox.cif.g08.bks.cpg/sg15_70_cif.got.tgz:139556.got - 2010.06.03 18:47:42.
