data_PCOD9285838
_publ_section_title
;
Structure prediction by ZEFSAII (Michael W. Deem and Ramdas Pophale) SiO2 
 PCOD9285838
Probable space group: C 2/C
;
_chemical_formula_sum "Si O2"
_cell_formula_units_Z 44
_cell_length_a 18.029600
_cell_length_b 8.141065
_cell_length_c 14.602651
_cell_angle_alpha 90.000000
_cell_angle_beta 73.209770
_cell_angle_gamma 90.000000
_cell_volume 2052.004343
_symmetry_space_group_name_H-M "C 2/C"
_symmetry_group_IT_number 15
_symmetry_cell_setting 'monoclinic'
loop_
_space_group_symop_operation_xyz
x,y,z
-x,y,1/2-z
-x,-y,-z
x,-y,1/2+z
1/2+x,1/2+y,z
1/2-x,1/2+y,1/2-z
1/2-x,1/2-y,-z
1/2+x,1/2-y,1/2+z
loop_
_atom_site_type_symbol
_atom_site_label
_atom_site_fract_x
_atom_site_fract_y
_atom_site_fract_z
Si Si1 0.265459 0.992079 0.053560
Si Si2 0.932977 0.502826 0.950586
Si Si3 0.087127 0.733779 0.687273
Si Si4 0.000000 0.317552 0.750000
Si Si5 0.751860 0.861204 0.136959
Si Si6 0.142895 0.089579 0.728115
O O1 0.264961 0.168002 0.107943
O O2 0.206639 0.872965 0.126859
O O3 0.239910 0.036986 0.959644
O O4 0.353380 0.930663 0.017705
O O5 0.912075 0.686097 0.920567
O O6 0.963447 0.412267 0.849256
O O7 0.000000 0.500000 0.000000
O O8 0.160723 0.630268 0.699282
O O9 0.000000 0.701792 0.750000
O O10 0.105937 0.918589 0.707963
O O11 0.072096 0.213002 0.761597
O O12 0.809210 0.919138 0.195109
#
# Coordination Sequence:
#
# PCOD9285838 Si02
#       6
#     8   8   8   4   8   8
#     4   9  21  41  62  95 129 171 223 266 323 410
#     4  11  24  42  68  92 133 180 221 273 337 396
#     4  10  21  42  67  96 134 172 221 264 333 404
#     4  12  26  42  60 100 136 166 234 282 320 410
#     4   9  20  39  68  93 129 172 216 269 329 398
#     4  11  23  42  68  99 135 172 220 282 340 388
#
# _framework density 21.442449
#
# number of rings (size 3 to 8) (size 9 to 14) (size 15 to 20)
#    0.000    1.818    1.818    2.182    2.545    6.545 
#    3.273    1.818    0.000    0.000    0.000    0.000 
#    0.000    0.000    0.000    0.000    0.000    0.000 
#
# Total GULP energy -122803.413797 kJ/mol
# GULP energy per Si atom -5581.973354 kJ/mol
# Density = 2.139364 g / cm^3
# Si number density = 21.442449 Si / 1000 Ang^3
#
#
#
# Elastic Constant Matrix: (Units=GPa)
#
#
# Indices 1 2 3 4 5 6 
#
# 1 189.5392 30.3172 72.3434 0.0000 -3.4480 0.0000
# 2 30.3172 38.9708 14.2928 0.0000 7.5867 0.0000
# 3 72.3434 14.2928 76.8575 0.0000 -5.3374 0.0000
# 4 0.0000 0.0000 0.0000 17.9732 0.0000 2.9499
# 5 -3.4480 7.5867 -5.3374 0.0000 58.0362 0.0000
# 6 0.0000 0.0000 0.0000 2.9499 0.0000 16.9396
#
#
#
# Elastic Compliance Matrix: (Units=1/GPa)
#
#
# Indices 1 2 3 4 5 6 
#
# 1 0.008810 -0.004181 -0.007488 0.000000 0.000381 0.000000
# 2 -0.004181 0.030526 -0.002048 0.000000 -0.004427 0.000000
# 3 -0.007488 -0.002048 0.020560 0.000000 0.001714 0.000000
# 4 0.000000 0.000000 0.000000 0.057275 0.000000 -0.009974
# 5 0.000381 -0.004427 0.001714 0.000000 0.017990 0.000000
# 6 0.000000 0.000000 0.000000 -0.009974 0.000000 0.060770
#
#
# Mechanical properties :
#
#
# Convention : Reuss Voigt Hill
#
# Bulk Modulus (GPa) = 30.80778 59.91935 45.36356
# Shear Modulus (GPa) = 21.35045 31.15075 26.25060
#
# Velocity S-wave (km/s) = 3.15891 3.81565 3.50270
# Velocity P-wave (km/s) = 5.26344 6.88601 6.12866
#
# Compressibility (1/GPa) = 0.03245934
#
# Stress axis : x y z
#
# Youngs Moduli (GPa) = 113.50884 32.75863 48.63912
#
# Poissons Ratio (x) = 0.13698 0.36423
# Poissons Ratio (y) = 0.47463 0.09963
# Poissons Ratio (z) = 0.85000 0.06710
#
# Static dielectric constant tensor:
#      x y z
#    x 1.802500 0.000000 -0.056060 
#    y 0.000000 1.847290 0.000000 
#    z -0.056060 0.000000 1.776930 
# 
# From -- ./inp_files/159292.got.cif
#   From: 2010.05.17/outbox.cif.g08.bks.cpg/sg15_80_cif.got.tgz:159292.got - 2010.06.03 18:47:42.
