data_PCOD9285284
_publ_section_title
;
Structure prediction by ZEFSAII (Michael W. Deem and Ramdas Pophale) SiO2 
 PCOD9285284
Probable space group: C 2/C
;
_chemical_formula_sum "Si O2"
_cell_formula_units_Z 40
_cell_length_a 18.563092
_cell_length_b 13.624804
_cell_length_c 13.944877
_cell_angle_alpha 90.000000
_cell_angle_beta 153.744304
_cell_angle_gamma 90.000000
_cell_volume 1560.230063
_symmetry_space_group_name_H-M "C 2/C"
_symmetry_group_IT_number 15
_symmetry_cell_setting 'monoclinic'
loop_
_space_group_symop_operation_xyz
x,y,z
-x,y,1/2-z
-x,-y,-z
x,-y,1/2+z
1/2+x,1/2+y,z
1/2-x,1/2+y,1/2-z
1/2-x,1/2-y,-z
1/2+x,1/2-y,1/2+z
loop_
_atom_site_type_symbol
_atom_site_label
_atom_site_fract_x
_atom_site_fract_y
_atom_site_fract_z
Si Si1 0.319684 0.450889 0.803659
Si Si2 0.031183 0.248000 0.023855
Si Si3 0.806183 0.050998 0.510410
Si Si4 0.797648 0.639995 0.924055
Si Si5 0.642793 0.844365 0.344389
O O1 0.343358 0.339740 0.799295
O O2 0.199370 0.528310 0.611769
O O3 0.500000 0.500000 0.000000
O O4 0.272244 0.438865 0.857903
O O5 0.063733 0.296028 0.959268
O O6 0.059932 0.326257 0.141564
O O7 0.859680 0.193794 0.809613
O O8 0.725208 0.124701 0.490093
O O9 0.000000 0.062486 0.750000
O O10 0.754228 0.940695 0.474771
O O11 0.500000 0.855970 0.250000
O O12 0.750000 0.750000 0.500000
#
# Coordination Sequence:
#
# PCOD9285284 Si02
#       5
#     8   8   8   8   8
#     4  10  21  41  69  95 134 180 230 273 350 404
#     4  11  23  44  67 100 135 183 231 286 344 419
#     4  12  23  45  71  98 139 188 230 282 348 419
#     4  11  24  44  70 102 138 185 231 287 348 415
#     4  12  26  41  70 106 138 179 233 289 346 410
#
# _framework density 25.637246000000001
#
# number of rings (size 3 to 8) (size 9 to 14) (size 15 to 20)
#    0.000    0.800    6.000    3.000    5.600    0.800 
#    3.600    2.000    0.000    0.000    0.000    0.000 
#    0.000    0.000    0.000    0.000    0.000    0.000 
#
# Total GULP energy -112097.935100 kJ/mol
# GULP energy per Si atom -5604.896755 kJ/mol
# Density = 2.557889 g / cm^3
# Si number density = 25.637246 Si / 1000 Ang^3
#
#
#
# Elastic Constant Matrix: (Units=GPa)
#
#
# Indices 1 2 3 4 5 6 
#
# 1 161.9087 40.1465 23.6871 0.0000 -12.3859 0.0000
# 2 40.1465 118.6128 28.2778 0.0000 0.8912 0.0000
# 3 23.6871 28.2778 68.9761 0.0000 -11.8407 0.0000
# 4 0.0000 0.0000 0.0000 36.1371 0.0000 -0.8230
# 5 -12.3859 0.8912 -11.8407 0.0000 22.1501 0.0000
# 6 0.0000 0.0000 0.0000 -0.8230 0.0000 52.4493
#
#
#
# Elastic Compliance Matrix: (Units=1/GPa)
#
#
# Indices 1 2 3 4 5 6 
#
# 1 0.007137 -0.002222 -0.000924 0.000000 0.003586 0.000000
# 2 -0.002222 0.010181 -0.004068 0.000000 -0.003827 0.000000
# 3 -0.000924 -0.004068 0.018081 0.000000 0.009313 0.000000
# 4 0.000000 0.000000 0.000000 0.027682 0.000000 0.000434
# 5 0.003586 -0.003827 0.009313 0.000000 0.052284 0.000000
# 6 0.000000 0.000000 0.000000 0.000434 0.000000 0.019073
#
#
# Mechanical properties :
#
#
# Convention : Reuss Voigt Hill
#
# Bulk Modulus (GPa) = 47.68426 59.30225 53.49325
# Shear Modulus (GPa) = 32.08050 39.30639 35.69345
#
# Velocity S-wave (km/s) = 3.54124 3.91983 3.73533
# Velocity P-wave (km/s) = 5.94647 6.60819 6.28605
#
# Compressibility (1/GPa) = 0.02097128
#
# Stress axis : x y z
#
# Youngs Moduli (GPa) = 140.11721 98.21759 55.30518
#
# Poissons Ratio (x) = 0.21826 0.05112
# Poissons Ratio (y) = 0.31137 0.22497
# Poissons Ratio (z) = 0.12950 0.39953
#
# Static dielectric constant tensor:
#      x y z
#    x 2.019480 0.000000 -0.020820 
#    y 0.000000 1.973110 0.000000 
#    z -0.020820 0.000000 2.068960 
# 
# From -- ./inp_files/162651.got.cif
#   From: 2010.05.17/outbox.cif.g08.bks.cpg/sg15_82_cif.got.tgz:162651.got - 2010.06.03 18:47:42.
