data_PCOD9285267
_publ_section_title
;
Structure prediction by ZEFSAII (Michael W. Deem and Ramdas Pophale) SiO2 
 PCOD9285267
Probable space group: C 2/C
;
_chemical_formula_sum "Si O2"
_cell_formula_units_Z 28
_cell_length_a 13.582396
_cell_length_b 15.390281
_cell_length_c 9.786014
_cell_angle_alpha 90.000000
_cell_angle_beta 31.302167
_cell_angle_gamma 90.000000
_cell_volume 1062.814115
_symmetry_space_group_name_H-M "C 2/C"
_symmetry_group_IT_number 15
_symmetry_cell_setting 'monoclinic'
loop_
_space_group_symop_operation_xyz
x,y,z
-x,y,1/2-z
-x,-y,-z
x,-y,1/2+z
1/2+x,1/2+y,z
1/2-x,1/2+y,1/2-z
1/2-x,1/2-y,-z
1/2+x,1/2-y,1/2+z
loop_
_atom_site_type_symbol
_atom_site_label
_atom_site_fract_x
_atom_site_fract_y
_atom_site_fract_z
Si Si1 0.083537 0.433191 0.294225
Si Si2 0.000000 0.095449 0.750000
Si Si3 0.726498 0.805060 0.766311
Si Si4 0.579350 0.614525 0.947583
O O1 0.976500 0.343420 0.454061
O O2 0.000000 0.461723 0.250000
O O3 0.000000 0.500000 0.500000
O O4 0.306074 0.429616 0.065480
O O5 0.174964 0.153683 0.484563
O O6 0.075532 0.060717 0.808423
O O7 0.698973 0.703267 0.780114
O O8 0.868530 0.845578 0.712920
#
# Coordination Sequence:
#
# PCOD9285267 Si02
#       4
#     8   4   8   8
#     4  12  29  46  69  98 138 185 222 280 345 407
#     4   8  20  34  70 102 136 170 214 286 324 392
#     4  10  21  41  69 105 135 176 226 280 331 398
#     4  10  21  41  69 105 135 176 226 280 331 398
#
# _framework density 26.345151000000001
#
# number of rings (size 3 to 8) (size 9 to 14) (size 15 to 20)
#    1.714    0.000    2.857    0.857    4.000    3.429 
#    0.000    0.000    0.000    0.000    0.000    0.000 
#    0.000    0.000    0.000    0.000    0.000    0.000 
#
# Total GULP energy -78068.281574 kJ/mol
# GULP energy per Si atom -5576.305827 kJ/mol
# Density = 2.628519 g / cm^3
# Si number density = 26.345151 Si / 1000 Ang^3
#
#
#
# Elastic Constant Matrix: (Units=GPa)
#
#
# Indices 1 2 3 4 5 6 
#
# 1 264.2625 61.6421 70.8747 -0.0010 -23.3246 0.0002
# 2 61.6421 33.6640 -0.7968 -0.0009 -2.5111 0.0010
# 3 70.8747 -0.7968 81.3101 -0.0024 -39.0181 0.0020
# 4 -0.0010 -0.0009 -0.0024 28.6519 0.0016 -20.3841
# 5 -23.3246 -2.5111 -39.0181 0.0016 67.3588 -0.0011
# 6 0.0002 0.0010 0.0020 -20.3841 -0.0011 32.0501
#
#
#
# Elastic Compliance Matrix: (Units=1/GPa)
#
#
# Indices 1 2 3 4 5 6 
#
# 1 0.012239 -0.023018 -0.012841 0.000000 -0.004058 0.000001
# 2 -0.023018 0.073153 0.025296 0.000001 0.009409 -0.000003
# 3 -0.012841 0.025296 0.030550 0.000001 0.014193 -0.000001
# 4 0.000000 0.000001 0.000001 0.063745 0.000000 0.040542
# 5 -0.004058 0.009409 0.014193 0.000000 0.022013 -0.000001
# 6 0.000001 -0.000003 -0.000001 0.040542 -0.000001 0.056986
#
#
# Mechanical properties :
#
#
# Convention : Reuss Voigt Hill
#
# Bulk Modulus (GPa) = 10.54672 71.40852 40.97762
# Shear Modulus (GPa) = 16.05554 42.11327 29.08440
#
# Velocity S-wave (km/s) = 2.47134 4.00249 3.32622
# Velocity P-wave (km/s) = 3.48645 6.96590 5.50813
#
# Compressibility (1/GPa) = 0.09481619
#
# Stress axis : x y z
#
# Youngs Moduli (GPa) = 81.70586 13.66993 32.73270
#
# Poissons Ratio (x) = 0.31465 0.42033
# Poissons Ratio (y) = 1.88067 -0.82799
# Poissons Ratio (z) = 1.04921 -0.34579
#
# Static dielectric constant tensor:
#      x y z
#    x 2.063430 0.000000 0.058340 
#    y 0.000000 2.081960 0.000000 
#    z 0.058340 0.000000 1.920650 
# 
# From -- ./inp_files/6459.got.cif
#   From: 2010.05.17/outbox.cif.g08.bks.cpg/sg15_4_cif.got.tgz:6459.got - 2010.06.03 18:47:42.
