data_PCOD9285193
_publ_section_title
;
Structure prediction by ZEFSAII (Michael W. Deem and Ramdas Pophale) SiO2 
 PCOD9285193
Probable space group: C 2/C
;
_chemical_formula_sum "Si O2"
_cell_formula_units_Z 44
_cell_length_a 7.817470
_cell_length_b 17.035586
_cell_length_c 13.356972
_cell_angle_alpha 90.000000
_cell_angle_beta 88.494221
_cell_angle_gamma 90.000000
_cell_volume 1778.202922
_symmetry_space_group_name_H-M "C 2/C"
_symmetry_group_IT_number 15
_symmetry_cell_setting 'monoclinic'
loop_
_space_group_symop_operation_xyz
x,y,z
-x,y,1/2-z
-x,-y,-z
x,-y,1/2+z
1/2+x,1/2+y,z
1/2-x,1/2+y,1/2-z
1/2-x,1/2-y,-z
1/2+x,1/2-y,1/2+z
loop_
_atom_site_type_symbol
_atom_site_label
_atom_site_fract_x
_atom_site_fract_y
_atom_site_fract_z
Si Si1 0.119103 0.567896 0.105572
Si Si2 0.319347 0.093851 0.960834
Si Si3 0.492854 0.255769 0.902490
Si Si4 0.000000 0.827453 0.250000
Si Si5 0.923120 0.879678 0.454235
Si Si6 0.742797 0.196991 0.258860
O O1 0.130514 0.474647 0.118328
O O2 0.167856 0.623506 0.198364
O O3 0.263456 0.585450 0.017426
O O4 0.932845 0.582800 0.059881
O O5 0.388474 0.177133 0.920810
O O6 0.114145 0.087656 0.973164
O O7 0.650390 0.252454 0.824435
O O8 0.371862 0.319313 0.847317
O O9 0.561795 0.291178 0.003596
O O10 0.908855 0.879312 0.334992
O O11 0.884447 0.762364 0.196796
#
# Coordination Sequence:
#
# PCOD9285193 Si02
#       6
#     8   8   8   4   8   8
#     4  10  24  42  64  96 137 167 213 272 340 384
#     4  11  21  41  67  95 127 173 215 270 331 393
#     4  10  21  41  68  92 130 170 225 270 321 385
#     4  12  22  36  66  92 120 162 228 266 318 380
#     4  11  23  41  65  95 126 174 218 273 318 397
#     4  10  22  39  63  96 130 170 217 270 322 393
#
# _framework density 24.744081999999999
#
# number of rings (size 3 to 8) (size 9 to 14) (size 15 to 20)
#    0.000    1.455    1.818    3.273    2.545    2.909 
#    0.000    7.273    0.000    0.000    0.000    0.000 
#    0.000    0.000    0.000    0.000    0.000    0.000 
#
# Total GULP energy -122820.473143 kJ/mol
# GULP energy per Si atom -5582.748779 kJ/mol
# Density = 2.468776 g / cm^3
# Si number density = 24.744082 Si / 1000 Ang^3
#
#
#
# Elastic Constant Matrix: (Units=GPa)
#
#
# Indices 1 2 3 4 5 6 
#
# 1 98.2205 28.0070 -0.6478 0.0000 8.3395 0.0000
# 2 28.0070 69.7800 17.1405 0.0000 3.6959 0.0000
# 3 -0.6478 17.1405 96.9028 0.0000 -1.6197 0.0000
# 4 0.0000 0.0000 0.0000 11.0382 0.0000 1.5113
# 5 8.3395 3.6959 -1.6197 0.0000 42.4209 0.0000
# 6 0.0000 0.0000 0.0000 1.5113 0.0000 32.6161
#
#
#
# Elastic Compliance Matrix: (Units=1/GPa)
#
#
# Indices 1 2 3 4 5 6 
#
# 1 0.011721 -0.004828 0.000901 0.000000 -0.001849 0.000000
# 2 -0.004828 0.017055 -0.003060 0.000000 -0.000654 0.000000
# 3 0.000901 -0.003060 0.010875 0.000000 0.000505 0.000000
# 4 0.000000 0.000000 0.000000 0.091173 0.000000 -0.004225
# 5 -0.001849 -0.000654 0.000505 0.000000 0.024013 0.000000
# 6 0.000000 0.000000 0.000000 -0.004225 0.000000 0.030855
#
#
# Mechanical properties :
#
#
# Convention : Reuss Voigt Hill
#
# Bulk Modulus (GPa) = 38.94343 39.32251 39.13297
# Shear Modulus (GPa) = 24.01256 31.90860 27.96058
#
# Velocity S-wave (km/s) = 3.11856 3.59492 3.36518
# Velocity P-wave (km/s) = 5.36096 5.75825 5.56315
#
# Compressibility (1/GPa) = 0.02567827
#
# Stress axis : x y z
#
# Youngs Moduli (GPa) = 85.31899 58.63499 91.95128
#
# Poissons Ratio (x) = 0.28307 -0.08288
# Poissons Ratio (y) = 0.41190 0.28136
# Poissons Ratio (z) = -0.07691 0.17942
#
# Static dielectric constant tensor:
#      x y z
#    x 2.106040 0.000000 0.000880 
#    y 0.000000 1.970880 0.000000 
#    z 0.000880 0.000000 1.986030 
# 
# From -- ./inp_files/134433.got.cif
#   From: 2010.05.17/outbox.cif.g08.bks.cpg/sg15_68_cif.got.tgz:134433.got - 2010.06.03 18:47:42.
