data_PCOD9285303
_publ_section_title
;
Structure prediction by ZEFSAII (Michael W. Deem and Ramdas Pophale) SiO2 
 PCOD9285303
Probable space group: C 2/C
;
_chemical_formula_sum "Si O2"
_cell_formula_units_Z 48
_cell_length_a 8.955530
_cell_length_b 16.216827
_cell_length_c 24.471123
_cell_angle_alpha 90.000000
_cell_angle_beta 146.448051
_cell_angle_gamma 90.000000
_cell_volume 1964.241601
_symmetry_space_group_name_H-M "C 2/C"
_symmetry_group_IT_number 15
_symmetry_cell_setting 'monoclinic'
loop_
_space_group_symop_operation_xyz
x,y,z
-x,y,1/2-z
-x,-y,-z
x,-y,1/2+z
1/2+x,1/2+y,z
1/2-x,1/2+y,1/2-z
1/2-x,1/2-y,-z
1/2+x,1/2-y,1/2+z
loop_
_atom_site_type_symbol
_atom_site_label
_atom_site_fract_x
_atom_site_fract_y
_atom_site_fract_z
Si Si1 0.939720 0.455742 0.900490
Si Si2 0.199291 0.102981 0.894627
Si Si3 0.000000 0.554623 0.750000
Si Si4 0.500000 0.325598 0.750000
Si Si5 0.208589 0.054705 0.096114
Si Si6 0.698485 0.262663 0.628120
Si Si7 0.617540 0.817939 0.208426
O O1 0.814805 0.542591 0.882574
O O2 0.715014 0.386130 0.843177
O O3 0.029430 0.449302 0.864591
O O4 0.194742 0.435291 0.016876
O O5 0.310734 0.195688 0.922363
O O6 0.883162 0.123442 0.790124
O O7 0.761612 0.488729 0.670493
O O8 0.080106 0.619085 0.821912
O O9 0.346126 0.263349 0.743629
O O10 0.133260 0.147999 0.086273
O O11 0.000000 0.000000 0.000000
O O12 0.528686 0.219082 0.624118
O O13 0.000000 0.266054 0.750000
#
# Coordination Sequence:
#
# PCOD9285303 Si02
#       7
#     8   8   4   4   8   8   8
#     4  11  25  43  67 107 139 191 245 306 368 442
#     4  10  23  43  69  99 144 188 240 304 364 438
#     4  11  24  42  67 100 142 184 247 304 358 449
#     4  11  26  40  69 100 140 186 241 306 368 451
#     4  12  26  43  70 106 144 194 246 308 373 437
#     4  10  21  41  69  98 136 193 237 298 364 433
#     4  10  23  43  67 101 136 192 239 294 376 427
#
# _framework density 24.436913000000001
#
# number of rings (size 3 to 8) (size 9 to 14) (size 15 to 20)
#    0.000    1.333    0.833    4.000    5.833    8.000 
#    0.000    2.500    0.000    0.000    0.000    0.000 
#    0.000    0.000    0.000    0.000    0.000    0.000 
#
# Total GULP energy -133922.453084 kJ/mol
# GULP energy per Si atom -5580.102212 kJ/mol
# Density = 2.438129 g / cm^3
# Si number density = 24.436913 Si / 1000 Ang^3
#
#
#
# Elastic Constant Matrix: (Units=GPa)
#
#
# Indices 1 2 3 4 5 6 
#
# 1 68.2860 36.5162 17.1875 0.0004 -10.2010 0.0000
# 2 36.5162 204.2709 42.4783 0.0009 1.0760 0.0000
# 3 17.1875 42.4783 89.7253 0.0013 -6.4897 0.0001
# 4 0.0004 0.0009 0.0013 45.0705 0.0004 -3.5530
# 5 -10.2010 1.0760 -6.4897 0.0004 28.0531 0.0001
# 6 0.0000 0.0000 0.0001 -3.5530 0.0001 40.4247
#
#
#
# Elastic Compliance Matrix: (Units=1/GPa)
#
#
# Indices 1 2 3 4 5 6 
#
# 1 0.017461 -0.002828 -0.001565 0.000000 0.006096 0.000000
# 2 -0.002828 0.005907 -0.002385 0.000000 -0.001807 0.000000
# 3 -0.001565 -0.002385 0.012753 0.000000 0.002473 0.000000
# 4 0.000000 0.000000 0.000000 0.022342 0.000000 0.001964
# 5 0.006096 -0.001807 0.002473 0.000000 0.038505 0.000000
# 6 0.000000 0.000000 0.000000 0.001964 0.000000 0.024910
#
#
# Mechanical properties :
#
#
# Convention : Reuss Voigt Hill
#
# Bulk Modulus (GPa) = 44.31834 61.62735 52.97285
# Shear Modulus (GPa) = 34.97589 40.44968 37.71278
#
# Velocity S-wave (km/s) = 3.78732 4.07291 3.93271
# Velocity P-wave (km/s) = 6.10739 6.88418 6.50739
#
# Compressibility (1/GPa) = 0.02256402
#
# Stress axis : x y z
#
# Youngs Moduli (GPa) = 57.26990 169.30362 78.41299
#
# Poissons Ratio (x) = 0.47880 0.12272
# Poissons Ratio (y) = 0.16196 0.18703
# Poissons Ratio (z) = 0.08963 0.40383
#
# Static dielectric constant tensor:
#      x y z
#    x 2.315380 0.000000 0.055900 
#    y 0.000000 1.857770 0.000000 
#    z 0.055900 0.000000 1.987030 
# 
# From -- ./inp_files/289142.got.cif
#   From: 2010.05.17/outbox.cif.g08.bks.cpg/sg15_145_cif.got.tgz:289142.got - 2010.06.03 18:47:42.
