data_PCOD9285534
_publ_section_title
;
Structure prediction by ZEFSAII (Michael W. Deem and Ramdas Pophale) SiO2 
 PCOD9285534
Probable space group: C 2/C
;
_chemical_formula_sum "Si O2"
_cell_formula_units_Z 64
_cell_length_a 27.808695
_cell_length_b 17.237124
_cell_length_c 8.609576
_cell_angle_alpha 90.000000
_cell_angle_beta 41.634492
_cell_angle_gamma 90.000000
_cell_volume 2741.834825
_symmetry_space_group_name_H-M "C 2/C"
_symmetry_group_IT_number 15
_symmetry_cell_setting 'monoclinic'
loop_
_space_group_symop_operation_xyz
x,y,z
-x,y,1/2-z
-x,-y,-z
x,-y,1/2+z
1/2+x,1/2+y,z
1/2-x,1/2+y,1/2-z
1/2-x,1/2-y,-z
1/2+x,1/2-y,1/2+z
loop_
_atom_site_type_symbol
_atom_site_label
_atom_site_fract_x
_atom_site_fract_y
_atom_site_fract_z
Si Si1 0.678022 0.755258 0.772346
Si Si2 0.970500 0.285603 0.482883
Si Si3 0.647558 0.582579 0.758874
Si Si4 0.226861 0.035041 0.259903
Si Si5 0.535242 0.926349 0.497408
Si Si6 0.289161 0.263633 0.745569
Si Si7 0.438156 0.349916 0.285373
Si Si8 0.806752 0.588917 0.761659
O O1 0.750000 0.750000 0.500000
O O2 0.613285 0.803463 0.854589
O O3 0.652719 0.665203 0.835256
O O4 0.715705 0.787978 0.831886
O O5 0.970705 0.225002 0.621081
O O6 0.018953 0.356556 0.419157
O O7 0.000000 0.252493 0.250000
O O8 0.707412 0.573061 0.474993
O O9 0.658896 0.514291 0.854079
O O10 0.578485 0.590718 0.814278
O O11 0.283764 0.970113 0.180633
O O12 0.252105 0.081282 0.043445
O O13 0.500000 0.910251 0.750000
O O14 0.618608 0.934349 0.338156
O O15 0.500000 0.000000 0.500000
O O16 0.360990 0.317185 0.545276
O O17 0.312957 0.173223 0.663687
O O18 0.250000 0.250000 0.000000
O O19 0.500000 0.378845 0.250000
#
# Coordination Sequence:
#
# PCOD9285534 Si02
#       8
#     8   8   8   8   8   8   8   8
#     4  11  23  41  67  94 131 170 218 278 326 382
#     4  11  25  42  65  94 133 175 216 270 331 390
#     4  10  21  42  63  95 128 165 212 268 330 384
#     4  10  22  40  65  93 126 165 218 270 318 390
#     4  12  26  43  59  90 132 178 219 257 322 401
#     4  12  24  40  66 102 127 168 222 272 333 384
#     4  11  24  45  66  95 134 172 212 277 338 394
#     4  11  23  38  63  89 125 170 213 265 320 390
#
# _framework density 23.342034999999999
#
# number of rings (size 3 to 8) (size 9 to 14) (size 15 to 20)
#    0.000    1.000    3.750    3.750    3.500    2.000 
#    0.000    0.625    0.000    0.750    0.000    0.000 
#    0.000    0.000    0.000    0.000    0.000    0.000 
#
# Total GULP energy -178286.264914 kJ/mol
# GULP energy per Si atom -5571.445779 kJ/mol
# Density = 2.328891 g / cm^3
# Si number density = 23.342035 Si / 1000 Ang^3
#
#
#
# Elastic Constant Matrix: (Units=GPa)
#
#
# Indices 1 2 3 4 5 6 
#
# 1 149.5714 14.5607 -10.6762 0.0000 -19.0532 0.0000
# 2 14.5607 47.5792 -7.0997 0.0000 -7.7699 0.0000
# 3 -10.6762 -7.0997 56.1040 0.0000 11.5680 0.0000
# 4 0.0000 0.0000 0.0000 19.4112 0.0000 9.5565
# 5 -19.0532 -7.7699 11.5680 0.0000 37.3387 0.0000
# 6 0.0000 0.0000 0.0000 9.5565 0.0000 30.0226
#
#
#
# Elastic Compliance Matrix: (Units=1/GPa)
#
#
# Indices 1 2 3 4 5 6 
#
# 1 0.007292 -0.001628 0.000517 0.000000 0.003222 0.000000
# 2 -0.001628 0.022321 0.001846 0.000000 0.003242 0.000000
# 3 0.000517 0.001846 0.019252 0.000000 -0.005316 0.000000
# 4 0.000000 0.000000 0.000000 0.061090 0.000000 -0.019446
# 5 0.003222 0.003242 -0.005316 0.000000 0.030748 0.000000
# 6 0.000000 0.000000 0.000000 -0.019446 0.000000 0.039498
#
#
# Mechanical properties :
#
#
# Convention : Reuss Voigt Hill
#
# Bulk Modulus (GPa) = 19.86672 27.42491 23.64582
# Shear Modulus (GPa) = 25.57441 34.45250 30.01345
#
# Velocity S-wave (km/s) = 3.31363 3.84602 3.58971
# Velocity P-wave (km/s) = 4.81350 5.61224 5.22815
#
# Compressibility (1/GPa) = 0.05033543
#
# Stress axis : x y z
#
# Youngs Moduli (GPa) = 137.14430 44.80130 51.94179
#
# Poissons Ratio (x) = 0.07294 -0.02687
# Poissons Ratio (y) = 0.22329 -0.09590
# Poissons Ratio (z) = -0.07093 -0.08272
#
# Static dielectric constant tensor:
#      x y z
#    x 1.766560 0.000000 0.011310 
#    y 0.000000 1.879500 0.000000 
#    z 0.011310 0.000000 1.850640 
# 
# From -- ./inp_files/70597.got.cif
#   From: 2010.05.17/outbox.cif.g08.bks.cpg/sg15_36_cif.got.tgz:70597.got - 2010.06.03 18:47:42.
