data_PCOD9285229
_publ_section_title
;
Structure prediction by ZEFSAII (Michael W. Deem and Ramdas Pophale) SiO2 
 PCOD9285229
Probable space group: C 2/C
;
_chemical_formula_sum "Si O2"
_cell_formula_units_Z 48
_cell_length_a 10.848912
_cell_length_b 22.047971
_cell_length_c 14.187838
_cell_angle_alpha 90.000000
_cell_angle_beta 147.220003
_cell_angle_gamma 90.000000
_cell_volume 1837.388931
_symmetry_space_group_name_H-M "C 2/C"
_symmetry_group_IT_number 15
_symmetry_cell_setting 'monoclinic'
loop_
_space_group_symop_operation_xyz
x,y,z
-x,y,1/2-z
-x,-y,-z
x,-y,1/2+z
1/2+x,1/2+y,z
1/2-x,1/2+y,1/2-z
1/2-x,1/2-y,-z
1/2+x,1/2-y,1/2+z
loop_
_atom_site_type_symbol
_atom_site_label
_atom_site_fract_x
_atom_site_fract_y
_atom_site_fract_z
Si Si1 0.905059 0.180684 0.890046
Si Si2 0.155329 0.975360 0.771756
Si Si3 0.931229 0.308312 0.489132
Si Si4 0.001966 0.522614 0.648546
Si Si5 0.956268 0.843132 0.826794
Si Si6 0.288342 0.109431 0.053497
O O1 0.064157 0.239209 0.972363
O O2 0.884958 0.182503 0.989669
O O3 0.055655 0.122107 0.959057
O O4 0.673569 0.186512 0.682933
O O5 0.256157 0.007300 0.744576
O O6 0.018725 0.915945 0.654344
O O7 0.000000 0.009209 0.750000
O O8 0.366550 0.951053 0.971737
O O9 0.777601 0.352951 0.451242
O O10 0.190749 0.329034 0.671745
O O11 0.873658 0.458651 0.587747
O O12 0.000000 0.553846 0.750000
O O13 0.000000 0.821048 0.750000
O O14 0.500000 0.135685 0.250000
#
# Coordination Sequence:
#
# PCOD9285229 Si02
#       6
#     8   8   8   8   8   8
#     4  12  24  41  67  97 132 171 217 272 340 390
#     4  10  22  43  65  92 135 176 216 281 332 394
#     4  12  23  42  65 100 131 172 217 272 334 402
#     4  10  21  41  68  97 132 172 221 276 336 397
#     4  11  24  46  64  90 136 177 227 274 322 393
#     4  11  20  40  68  96 137 169 210 276 335 398
#
# _framework density 26.124027999999999
#
# number of rings (size 3 to 8) (size 9 to 14) (size 15 to 20)
#    0.000    1.000    5.000    2.000    0.000    3.333 
#    6.000    0.000    0.000    0.000    0.000    0.000 
#    0.000    0.000    0.000    0.000    0.000    0.000 
#
# Total GULP energy -134196.042908 kJ/mol
# GULP energy per Si atom -5591.501788 kJ/mol
# Density = 2.606457 g / cm^3
# Si number density = 26.124028 Si / 1000 Ang^3
#
#
#
# Elastic Constant Matrix: (Units=GPa)
#
#
# Indices 1 2 3 4 5 6 
#
# 1 104.9180 -3.2335 25.6176 0.0000 -21.5506 0.0000
# 2 -3.2335 59.1293 10.1592 0.0000 3.7893 0.0000
# 3 25.6176 10.1592 132.8089 -0.0002 -34.3065 0.0000
# 4 0.0000 0.0000 -0.0002 15.6303 -0.0001 -5.3542
# 5 -21.5506 3.7893 -34.3065 -0.0001 51.9054 0.0000
# 6 0.0000 0.0000 0.0000 -5.3542 0.0000 9.7276
#
#
#
# Elastic Compliance Matrix: (Units=1/GPa)
#
#
# Indices 1 2 3 4 5 6 
#
# 1 0.010566 0.000546 -0.001154 0.000000 0.003584 0.000000
# 2 0.000546 0.017451 -0.002063 0.000000 -0.002411 0.000000
# 3 -0.001154 -0.002063 0.009436 0.000000 0.005908 0.000000
# 4 0.000000 0.000000 0.000000 0.078844 0.000000 0.043397
# 5 0.003584 -0.002411 0.005908 0.000000 0.024835 0.000000
# 6 0.000000 0.000000 0.000000 0.043397 0.000000 0.126686
#
#
# Mechanical properties :
#
#
# Convention : Reuss Voigt Hill
#
# Bulk Modulus (GPa) = 31.14105 40.21586 35.67846
# Shear Modulus (GPa) = 17.61409 33.07354 25.34382
#
# Velocity S-wave (km/s) = 2.59945 3.56198 3.11808
# Velocity P-wave (km/s) = 4.57775 5.68723 5.16238
#
# Compressibility (1/GPa) = 0.03211196
#
# Stress axis : x y z
#
# Youngs Moduli (GPa) = 94.64232 57.30361 105.97473
#
# Poissons Ratio (x) = -0.03131 0.12230
# Poissons Ratio (y) = -0.05171 0.21863
# Poissons Ratio (z) = 0.10922 0.11822
#
# Static dielectric constant tensor:
#      x y z
#    x 2.086750 0.000000 -0.015340 
#    y 0.000000 2.069700 0.000000 
#    z -0.015340 0.000000 2.090060 
# 
# From -- ./inp_files/148819.got.cif
#   From: 2010.05.17/outbox.cif.g08.bks.cpg/sg15_75_cif.got.tgz:148819.got - 2010.06.03 18:47:42.
