data_PCOD9285846
_publ_section_title
;
Structure prediction by ZEFSAII (Michael W. Deem and Ramdas Pophale) SiO2 
 PCOD9285846
Probable space group: C 2/C
;
_chemical_formula_sum "Si O2"
_cell_formula_units_Z 44
_cell_length_a 21.694306
_cell_length_b 14.628678
_cell_length_c 16.957144
_cell_angle_alpha 90.000000
_cell_angle_beta 159.253355
_cell_angle_gamma 90.000000
_cell_volume 1906.323443
_symmetry_space_group_name_H-M "C 2/C"
_symmetry_group_IT_number 15
_symmetry_cell_setting 'monoclinic'
loop_
_space_group_symop_operation_xyz
x,y,z
-x,y,1/2-z
-x,-y,-z
x,-y,1/2+z
1/2+x,1/2+y,z
1/2-x,1/2+y,1/2-z
1/2-x,1/2-y,-z
1/2+x,1/2-y,1/2+z
loop_
_atom_site_type_symbol
_atom_site_label
_atom_site_fract_x
_atom_site_fract_y
_atom_site_fract_z
Si Si1 0.128383 0.333224 0.830717
Si Si2 0.560974 0.781184 0.484316
Si Si3 0.339271 0.147777 0.858329
Si Si4 0.673039 0.960698 0.568637
Si Si5 0.230474 0.475331 0.461480
Si Si6 0.500000 0.322615 0.750000
O O1 0.000000 0.358741 0.750000
O O2 0.990337 0.315794 0.596922
O O3 0.250000 0.250000 0.000000
O O4 0.248476 0.420563 0.953562
O O5 0.417120 0.829578 0.365992
O O6 0.658727 0.700948 0.647843
O O7 0.704821 0.859959 0.639474
O O8 0.496204 0.739745 0.323685
O O9 0.311655 0.042157 0.850171
O O10 0.770864 0.977274 0.603571
O O11 0.471094 0.957023 0.299586
O O12 0.341196 0.393731 0.558739
#
# Coordination Sequence:
#
# PCOD9285846 Si02
#       6
#     8   8   8   8   8   4
#     4  11  22  43  70  98 134 178 223 273 345 409
#     4  12  25  43  67  98 138 181 231 284 334 412
#     4  11  24  43  65 103 133 176 229 279 349 404
#     4  10  21  44  68  91 134 182 224 277 349 406
#     4  10  21  42  67  97 132 178 228 278 335 412
#     4  12  26  42  66 104 136 178 236 280 344 394
#
# _framework density 23.081078000000002
#
# number of rings (size 3 to 8) (size 9 to 14) (size 15 to 20)
#    0.000    1.091    3.636    4.909    1.273    3.636 
#    3.273    1.818    0.000    0.000    0.000    0.000 
#    0.000    0.000    0.000    0.000    0.000    0.000 
#
# Total GULP energy -122975.480041 kJ/mol
# GULP energy per Si atom -5589.794547 kJ/mol
# Density = 2.302854 g / cm^3
# Si number density = 23.081078 Si / 1000 Ang^3
#
#
#
# Elastic Constant Matrix: (Units=GPa)
#
#
# Indices 1 2 3 4 5 6 
#
# 1 104.3404 25.3126 29.2781 -0.0024 -21.4148 -0.0013
# 2 25.3126 125.1257 49.0478 -0.0022 -26.2247 -0.0011
# 3 29.2781 49.0478 66.7665 -0.0024 -17.9638 -0.0016
# 4 -0.0024 -0.0022 -0.0024 27.3332 -0.0016 -0.1706
# 5 -21.4148 -26.2247 -17.9638 -0.0016 17.7328 -0.0012
# 6 -0.0013 -0.0011 -0.0016 -0.1706 -0.0012 33.3744
#
#
#
# Elastic Compliance Matrix: (Units=1/GPa)
#
#
# Indices 1 2 3 4 5 6 
#
# 1 0.013156 0.001710 -0.002846 0.000002 0.015533 0.000001
# 2 0.001710 0.013391 -0.006465 0.000002 0.015319 0.000001
# 3 -0.002846 -0.006465 0.024027 0.000002 0.011341 0.000001
# 4 0.000002 0.000002 0.000002 0.036587 0.000010 0.000187
# 5 0.015533 0.015319 0.011341 0.000010 0.109294 0.000006
# 6 0.000001 0.000001 0.000001 0.000187 0.000006 0.029964
#
#
# Mechanical properties :
#
#
# Convention : Reuss Voigt Hill
#
# Bulk Modulus (GPa) = 28.27230 55.94551 42.10890
# Shear Modulus (GPa) = 19.73074 28.52771 24.12922
#
# Velocity S-wave (km/s) = 2.92694 3.51946 3.23679
# Velocity P-wave (km/s) = 4.86810 6.38802 5.67914
#
# Compressibility (1/GPa) = 0.03537031
#
# Stress axis : x y z
#
# Youngs Moduli (GPa) = 76.01237 74.67641 41.62068
#
# Poissons Ratio (x) = -0.12767 0.11844
# Poissons Ratio (y) = -0.12995 0.26910
# Poissons Ratio (z) = 0.21631 0.48282
#
# Static dielectric constant tensor:
#      x y z
#    x 1.951820 0.000000 0.031070 
#    y 0.000000 1.908630 0.000000 
#    z 0.031070 0.000000 1.877750 
# 
# From -- ./inp_files/219788.got.cif
#   From: 2010.05.17/outbox.cif.g08.bks.cpg/sg15_110_cif.got.tgz:219788.got - 2010.06.03 18:47:42.
