data_PCOD9285982
_publ_section_title
;
Structure prediction by ZEFSAII (Michael W. Deem and Ramdas Pophale) SiO2 
 PCOD9285982
Probable space group: C 2/C
;
_chemical_formula_sum "Si O2"
_cell_formula_units_Z 40
_cell_length_a 8.994443
_cell_length_b 30.865011
_cell_length_c 8.029568
_cell_angle_alpha 90.000000
_cell_angle_beta 131.839247
_cell_angle_gamma 90.000000
_cell_volume 1660.735192
_symmetry_space_group_name_H-M "C 2/C"
_symmetry_group_IT_number 15
_symmetry_cell_setting 'monoclinic'
loop_
_space_group_symop_operation_xyz
x,y,z
-x,y,1/2-z
-x,-y,-z
x,-y,1/2+z
1/2+x,1/2+y,z
1/2-x,1/2+y,1/2-z
1/2-x,1/2-y,-z
1/2+x,1/2-y,1/2+z
loop_
_atom_site_type_symbol
_atom_site_label
_atom_site_fract_x
_atom_site_fract_y
_atom_site_fract_z
Si Si1 0.686778 0.695665 0.599021
Si Si2 0.414751 0.791474 0.924683
Si Si3 0.872223 0.056887 0.422870
Si Si4 0.138161 0.151563 0.010111
Si Si5 0.764032 0.534227 0.550419
O O1 0.574589 0.739389 0.578363
O O2 0.774838 0.702900 0.482403
O O3 0.531818 0.657039 0.475989
O O4 0.873712 0.689389 0.861477
O O5 0.310838 0.815818 0.694912
O O6 0.801093 0.101855 0.447958
O O7 0.112555 0.055712 0.571925
O O8 0.796274 0.016347 0.473857
O O9 0.787450 0.050420 0.173096
O O10 0.000000 0.163150 0.750000
O O11 0.000000 0.540210 0.750000
#
# Coordination Sequence:
#
# PCOD9285982 Si02
#       5
#     8   8   8   8   8
#     4  10  21  42  70  92 126 172 226 271 327 386
#     4  10  21  42  69  95 123 175 224 274 324 385
#     4  10  25  43  68 102 133 174 224 275 336 401
#     4  12  27  42  62  98 142 173 218 277 328 399
#     4  10  22  45  73  95 128 179 215 279 339 406
#
# _framework density 24.085718
#
# number of rings (size 3 to 8) (size 9 to 14) (size 15 to 20)
#    0.000    1.600    2.000    1.200   11.200    3.200 
#    3.600    0.000    0.000    0.000    0.000    0.000 
#    0.000    0.000    0.000    0.000    0.000    0.000 
#
# Total GULP energy -111843.782420 kJ/mol
# GULP energy per Si atom -5592.189121 kJ/mol
# Density = 2.403090 g / cm^3
# Si number density = 24.085718 Si / 1000 Ang^3
#
#
#
# Elastic Constant Matrix: (Units=GPa)
#
#
# Indices 1 2 3 4 5 6 
#
# 1 64.4362 -5.5998 36.4641 0.0000 21.1222 0.0000
# 2 -5.5998 83.9605 24.2488 0.0000 5.9702 0.0000
# 3 36.4641 24.2488 157.0131 0.0000 0.4959 0.0000
# 4 0.0000 0.0000 0.0000 -2.3325 0.0000 -20.2313
# 5 21.1222 5.9702 0.4959 0.0000 44.8360 0.0000
# 6 0.0000 0.0000 0.0000 -20.2313 0.0000 6.4374
#
#
#
# Elastic Compliance Matrix: (Units=1/GPa)
#
#
# Indices 1 2 3 4 5 6 
#
# 1 0.022904 0.004034 -0.005907 0.000000 -0.011262 0.000000
# 2 0.004034 0.013299 -0.002979 0.000000 -0.003638 0.000000
# 3 -0.005907 -0.002979 0.008191 0.000000 0.003089 0.000000
# 4 0.000000 0.000000 0.000000 -0.015171 0.000000 -0.047679
# 5 -0.011262 -0.003638 0.003089 0.000000 0.028059 0.000000
# 6 0.000000 0.000000 0.000000 -0.047679 0.000000 0.005497
#
#
# Mechanical properties :
#
#
# Convention : Reuss Voigt Hill
#
# Bulk Modulus (GPa) = 28.82633 46.18177 37.50405
# Shear Modulus (GPa) = 59.49152 26.47463 42.98307
#
# Velocity S-wave (km/s) = 4.97529 3.31899 4.22902
# Velocity P-wave (km/s) = 6.70812 5.82264 6.28101
#
# Compressibility (1/GPa) = 0.03469051
#
# Stress axis : x y z
#
# Youngs Moduli (GPa) = 43.66045 75.19597 122.08558
#
# Poissons Ratio (x) = -0.30336 0.72111
# Poissons Ratio (y) = -0.17614 0.36372
# Poissons Ratio (z) = 0.25789 0.22403
#
# Static dielectric constant tensor:
#      x y z
#    x 2.000560 0.000000 -0.029730 
#    y 0.000000 1.880340 0.000000 
#    z -0.029730 0.000000 1.930360 
# 
# From -- ./inp_files/35447.got.cif
#   From: 2010.05.17/outbox.cif.g08.bks.cpg/sg15_18_cif.got.tgz:35447.got - 2010.06.03 18:47:42.
