data_PCOD9285257
_publ_section_title
;
Structure prediction by ZEFSAII (Michael W. Deem and Ramdas Pophale) SiO2 
 PCOD9285257
Probable space group: C 2/C
;
_chemical_formula_sum "Si O2"
_cell_formula_units_Z 48
_cell_length_a 16.901297
_cell_length_b 11.780722
_cell_length_c 11.431235
_cell_angle_alpha 90.000000
_cell_angle_beta 93.135865
_cell_angle_gamma 90.000000
_cell_volume 2272.659143
_symmetry_space_group_name_H-M "C 2/C"
_symmetry_group_IT_number 15
_symmetry_cell_setting 'monoclinic'
loop_
_space_group_symop_operation_xyz
x,y,z
-x,y,1/2-z
-x,-y,-z
x,-y,1/2+z
1/2+x,1/2+y,z
1/2-x,1/2+y,1/2-z
1/2-x,1/2-y,-z
1/2+x,1/2-y,1/2+z
loop_
_atom_site_type_symbol
_atom_site_label
_atom_site_fract_x
_atom_site_fract_y
_atom_site_fract_z
Si Si1 0.945282 0.113891 0.487832
Si Si2 0.168362 0.073297 0.230280
Si Si3 0.936851 0.258120 0.145077
Si Si4 0.092071 0.837442 0.268535
Si Si5 0.092386 0.482559 0.476742
Si Si6 0.145572 0.593313 0.232944
O O1 0.873307 0.092789 0.395943
O O2 0.903954 0.171949 0.593432
O O3 0.006526 0.203967 0.445203
O O4 0.000000 0.000000 0.500000
O O5 0.118838 0.157705 0.310877
O O6 0.260064 0.100028 0.245922
O O7 0.150517 0.940407 0.246875
O O8 0.891419 0.359278 0.079393
O O9 0.000000 0.298210 0.250000
O O10 0.108998 0.718811 0.208263
O O11 0.000000 0.876039 0.250000
O O12 0.113635 0.556642 0.360817
O O13 0.129967 0.482111 0.612712
O O14 0.000000 0.500000 0.500000
#
# Coordination Sequence:
#
# PCOD9285257 Si02
#       6
#     8   8   8   8   8   8
#     4  11  20  39  71 101 136 183 242 290 345 429
#     4  11  26  42  65 110 145 181 234 307 366 415
#     4  10  21  41  69 101 138 186 237 293 357 425
#     4  12  23  45  74 101 140 192 250 286 355 445
#     4  12  26  50  74 100 144 192 249 284 363 445
#     4  12  30  45  73 108 144 191 237 308 363 425
#
# _framework density 21.120633000000002
#
# number of rings (size 3 to 8) (size 9 to 14) (size 15 to 20)
#    0.000    0.667    3.333    5.000    4.667    2.667 
#    0.000    0.000    0.000    0.000    0.000    0.000 
#    0.000    0.000    0.000    0.000    0.000    0.000 
#
# Total GULP energy -133679.672885 kJ/mol
# GULP energy per Si atom -5569.986370 kJ/mol
# Density = 2.107256 g / cm^3
# Si number density = 21.120633 Si / 1000 Ang^3
#
#
#
# Elastic Constant Matrix: (Units=GPa)
#
#
# Indices 1 2 3 4 5 6 
#
# 1 99.6793 -19.1691 45.2543 0.0000 14.7204 0.0000
# 2 -19.1691 70.8785 8.5929 0.0000 -8.4743 0.0000
# 3 45.2543 8.5929 137.0696 0.0000 -2.8281 0.0000
# 4 0.0000 0.0000 0.0000 60.1312 0.0000 -35.4690
# 5 14.7204 -8.4743 -2.8281 0.0000 29.4217 0.0000
# 6 0.0000 0.0000 0.0000 -35.4690 0.0000 55.6012
#
#
#
# Elastic Compliance Matrix: (Units=1/GPa)
#
#
# Indices 1 2 3 4 5 6 
#
# 1 0.013919 0.003599 -0.004953 0.000000 -0.006403 0.000000
# 2 0.003599 0.015638 -0.002117 0.000000 0.002500 0.000000
# 3 -0.004953 -0.002117 0.009120 0.000000 0.002745 0.000000
# 4 0.000000 0.000000 0.000000 0.026663 0.000000 0.017009
# 5 -0.006403 0.002500 0.002745 0.000000 0.038176 0.000000
# 6 0.000000 0.000000 0.000000 0.017009 0.000000 0.028836
#
#
# Mechanical properties :
#
#
# Convention : Reuss Voigt Hill
#
# Bulk Modulus (GPa) = 31.51131 41.88705 36.69918
# Shear Modulus (GPa) = 33.36196 47.22744 40.29470
#
# Velocity S-wave (km/s) = 3.97872 4.73385 4.37262
# Velocity P-wave (km/s) = 6.00491 7.05369 6.55032
#
# Compressibility (1/GPa) = 0.03173464
#
# Stress axis : x y z
#
# Youngs Moduli (GPa) = 71.84605 63.94844 109.64668
#
# Poissons Ratio (x) = -0.23016 0.54309
# Poissons Ratio (y) = -0.25859 0.23213
# Poissons Ratio (z) = 0.35586 0.13538
#
# Static dielectric constant tensor:
#      x y z
#    x 1.688580 0.000000 0.085910 
#    y 0.000000 2.036700 0.000000 
#    z 0.085910 0.000000 1.843170 
# 
# From -- ./inp_files/103817.got.cif
#   From: 2010.05.17/outbox.cif.g08.bks.cpg/sg15_52_cif.got.tgz:103817.got - 2010.06.03 18:47:42.
