data_PCOD9285271
_publ_section_title
;
Structure prediction by ZEFSAII (Michael W. Deem and Ramdas Pophale) SiO2 
 PCOD9285271
Probable space group: C 2/C
;
_chemical_formula_sum "Si O2"
_cell_formula_units_Z 56
_cell_length_a 19.880433
_cell_length_b 9.192927
_cell_length_c 30.870593
_cell_angle_alpha 90.000000
_cell_angle_beta 29.340906
_cell_angle_gamma 90.000000
_cell_volume 2764.554000
_symmetry_space_group_name_H-M "C 2/C"
_symmetry_group_IT_number 15
_symmetry_cell_setting 'monoclinic'
loop_
_space_group_symop_operation_xyz
x,y,z
-x,y,1/2-z
-x,-y,-z
x,-y,1/2+z
1/2+x,1/2+y,z
1/2-x,1/2+y,1/2-z
1/2-x,1/2-y,-z
1/2+x,1/2-y,1/2+z
loop_
_atom_site_type_symbol
_atom_site_label
_atom_site_fract_x
_atom_site_fract_y
_atom_site_fract_z
Si Si1 0.711700 0.511102 0.231552
Si Si2 0.206459 0.839233 0.323539
Si Si3 0.268135 0.789660 0.552778
Si Si4 0.349729 0.957247 0.068823
Si Si5 0.650430 0.956696 0.173941
Si Si6 0.388147 0.345211 0.505918
Si Si7 0.596834 0.437264 0.575450
O O1 0.786591 0.666937 0.188996
O O2 0.735128 0.424497 0.262874
O O3 0.761126 0.424945 0.161411
O O4 0.550370 0.546423 0.320418
O O5 0.049100 0.872873 0.426511
O O6 0.316073 0.885003 0.298461
O O7 0.164814 0.668487 0.629198
O O8 0.396956 0.693304 0.463766
O O9 0.207770 0.884766 0.547741
O O10 0.295766 0.899313 0.575756
O O11 0.358035 0.823167 0.031235
O O12 0.500000 0.000000 0.000000
O O13 0.500000 0.021857 0.250000
O O14 0.775464 0.067786 0.096665
O O15 0.371416 0.412866 0.467279
#
# Coordination Sequence:
#
# PCOD9285271 Si02
#       7
#     8   8   8   8   8   8   8
#     4  11  24  39  64  96 124 167 219 267 318 382
#     4  11  23  42  65  94 129 169 218 271 319 389
#     4  10  21  41  69  91 130 165 216 268 327 396
#     4  12  24  41  63  96 130 173 215 266 331 387
#     4  11  22  42  67  96 129 171 221 268 325 394
#     4  10  23  43  62  95 135 171 212 264 337 388
#     4   9  22  42  66  96 121 171 212 268 325 383
#
# _framework density 20.256430999999999
#
# number of rings (size 3 to 8) (size 9 to 14) (size 15 to 20)
#    0.000    1.429    2.857    1.286    4.000    1.714 
#    2.571    0.000    0.000    0.000    0.000    0.000 
#    0.000    0.000    0.000    0.000    0.000    0.000 
#
# Total GULP energy -156279.841311 kJ/mol
# GULP energy per Si atom -5581.422904 kJ/mol
# Density = 2.021033 g / cm^3
# Si number density = 20.256431 Si / 1000 Ang^3
#
#
#
# Elastic Constant Matrix: (Units=GPa)
#
#
# Indices 1 2 3 4 5 6 
#
# 1 41.4732 19.0552 32.5630 -0.0003 -1.4869 0.0014
# 2 19.0552 81.7076 30.9146 0.0000 -1.0089 0.0024
# 3 32.5630 30.9146 116.0663 -0.0004 2.9455 0.0004
# 4 -0.0003 0.0000 -0.0004 25.6391 -0.0002 5.2263
# 5 -1.4869 -1.0089 2.9455 -0.0002 19.0482 0.0000
# 6 0.0014 0.0024 0.0004 5.2263 0.0000 31.1484
#
#
#
# Elastic Compliance Matrix: (Units=1/GPa)
#
#
# Indices 1 2 3 4 5 6 
#
# 1 0.032630 -0.004524 -0.008040 0.000000 0.003551 -0.000001
# 2 -0.004524 0.014269 -0.002552 0.000000 0.000797 -0.000001
# 3 -0.008040 -0.002552 0.011616 0.000000 -0.002559 0.000000
# 4 0.000000 0.000000 0.000000 0.040384 0.000000 -0.006776
# 5 0.003551 0.000797 -0.002559 0.000000 0.053214 0.000000
# 6 -0.000001 -0.000001 0.000000 -0.006776 0.000000 0.033241
#
#
# Mechanical properties :
#
#
# Convention : Reuss Voigt Hill
#
# Bulk Modulus (GPa) = 35.35496 44.92363 40.13930
# Shear Modulus (GPa) = 22.22090 25.61474 23.91782
#
# Velocity S-wave (km/s) = 3.31566 3.55987 3.43994
# Velocity P-wave (km/s) = 5.67007 6.25480 5.96960
#
# Compressibility (1/GPa) = 0.02828458
#
# Stress axis : x y z
#
# Youngs Moduli (GPa) = 30.64630 70.08156 86.08876
#
# Poissons Ratio (x) = 0.31705 0.69213
# Poissons Ratio (y) = 0.13865 0.21966
# Poissons Ratio (z) = 0.24639 0.17882
#
# Static dielectric constant tensor:
#      x y z
#    x 1.723690 0.000000 0.019950 
#    y 0.000000 1.688940 0.000000 
#    z 0.019950 0.000000 1.744920 
# 
# From -- ./inp_files/317484.got.cif
#   From: 2010.05.17/outbox.cif.g08.bks.cpg/sg15_159_cif.got.tgz:317484.got - 2010.06.03 18:47:42.
