data_PCOD9285433
_publ_section_title
;
Structure prediction by ZEFSAII (Michael W. Deem and Ramdas Pophale) SiO2 
 PCOD9285433
Probable space group: C 2/C
;
_chemical_formula_sum "Si O2"
_cell_formula_units_Z 56
_cell_length_a 8.826657
_cell_length_b 11.272149
_cell_length_c 29.886296
_cell_angle_alpha 90.000000
_cell_angle_beta 114.054293
_cell_angle_gamma 90.000000
_cell_volume 2715.324679
_symmetry_space_group_name_H-M "C 2/C"
_symmetry_group_IT_number 15
_symmetry_cell_setting 'monoclinic'
loop_
_space_group_symop_operation_xyz
x,y,z
-x,y,1/2-z
-x,-y,-z
x,-y,1/2+z
1/2+x,1/2+y,z
1/2-x,1/2+y,1/2-z
1/2-x,1/2-y,-z
1/2+x,1/2-y,1/2+z
loop_
_atom_site_type_symbol
_atom_site_label
_atom_site_fract_x
_atom_site_fract_y
_atom_site_fract_z
Si Si1 0.597247 0.271948 0.407388
Si Si2 0.004400 0.668662 0.484779
Si Si3 0.000000 0.763568 0.250000
Si Si4 0.718063 0.501261 0.451120
Si Si5 0.000000 0.787516 0.750000
Si Si6 0.177980 0.851608 0.185949
Si Si7 0.328980 0.373843 0.818044
Si Si8 0.565845 0.672276 0.074374
O O1 0.556229 0.265576 0.454859
O O2 0.673366 0.403124 0.408632
O O3 0.430908 0.268797 0.359570
O O4 0.737834 0.175366 0.413846
O O5 0.831622 0.610822 0.449597
O O6 0.150507 0.569818 0.502041
O O7 0.995357 0.725079 0.533158
O O8 0.085239 0.842044 0.222275
O O9 0.147446 0.684472 0.289314
O O10 0.548123 0.557604 0.448736
O O11 0.142853 0.704000 0.786736
O O12 0.077216 0.859606 0.717883
O O13 0.185766 0.987539 0.171768
O O14 0.428145 0.312723 0.871135
#
# Coordination Sequence:
#
# PCOD9285433 Si02
#       8
#     8   8   4   8   4   8   8   8
#     4  11  23  39  62  92 124 158 203 245 300 359
#     4  10  24  40  60  91 125 162 203 248 293 362
#     4  10  22  42  66  84 122 156 198 254 306 356
#     4  10  21  42  60  85 127 162 204 246 296 354
#     4  10  26  42  64  90 118 156 204 254 300 360
#     4  11  22  42  63  91 119 158 199 251 302 363
#     4  11  22  42  64  90 120 157 200 250 306 361
#     4  11  21  39  64  90 122 162 200 244 302 358
#
# _framework density 20.623683
#
# number of rings (size 3 to 8) (size 9 to 14) (size 15 to 20)
#    0.000    1.429    2.857    3.000    2.000    2.286 
#    0.000    2.857    0.000    0.000    0.000    0.000 
#    0.000    0.000    0.000    0.000    0.000    0.000 
#
# Total GULP energy -156078.603167 kJ/mol
# GULP energy per Si atom -5574.235827 kJ/mol
# Density = 2.057674 g / cm^3
# Si number density = 20.623683 Si / 1000 Ang^3
#
#
#
# Elastic Constant Matrix: (Units=GPa)
#
#
# Indices 1 2 3 4 5 6 
#
# 1 92.1580 38.7168 36.3835 0.0000 29.7820 0.0000
# 2 38.7168 66.9936 19.0601 0.0000 5.6119 0.0000
# 3 36.3835 19.0601 86.9086 0.0000 15.4135 0.0000
# 4 0.0000 0.0000 0.0000 10.6417 0.0000 2.9297
# 5 29.7820 5.6119 15.4135 0.0000 34.6029 0.0000
# 6 0.0000 0.0000 0.0000 2.9297 0.0000 27.6393
#
#
#
# Elastic Compliance Matrix: (Units=1/GPa)
#
#
# Indices 1 2 3 4 5 6 
#
# 1 0.021584 -0.010026 -0.004160 0.000000 -0.015098 0.000000
# 2 -0.010026 0.020617 -0.001370 0.000000 0.005896 0.000000
# 3 -0.004160 -0.001370 0.013978 0.000000 -0.002424 0.000000
# 4 0.000000 0.000000 0.000000 0.096794 0.000000 -0.010260
# 5 -0.015098 0.005896 -0.002424 0.000000 0.042018 0.000000
# 6 0.000000 0.000000 0.000000 -0.010260 0.000000 0.037268
#
#
# Mechanical properties :
#
#
# Convention : Reuss Voigt Hill
#
# Bulk Modulus (GPa) = 39.89045 48.26454 44.07750
# Shear Modulus (GPa) = 18.40093 24.70345 21.55219
#
# Velocity S-wave (km/s) = 2.99025 3.46471 3.23619
# Velocity P-wave (km/s) = 5.59519 6.28163 5.94832
#
# Compressibility (1/GPa) = 0.02506865
#
# Stress axis : x y z
#
# Youngs Moduli (GPa) = 46.33004 48.50426 71.54068
#
# Poissons Ratio (x) = 0.48629 0.29758
# Poissons Ratio (y) = 0.46449 0.09800
# Poissons Ratio (z) = 0.19271 0.06645
#
# Static dielectric constant tensor:
#      x y z
#    x 1.752080 0.000000 0.008090 
#    y 0.000000 1.728890 0.000000 
#    z 0.008090 0.000000 1.737090 
# 
# From -- ./inp_files/307278.got.cif
#   From: 2010.05.17/outbox.cif.g08.bks.cpg/sg15_154_cif.got.tgz:307278.got - 2010.06.03 18:47:42.
