data_PCOD9285592
_publ_section_title
;
Structure prediction by ZEFSAII (Michael W. Deem and Ramdas Pophale) SiO2 
 PCOD9285592
Probable space group: C 2/C
;
_chemical_formula_sum "Si O2"
_cell_formula_units_Z 40
_cell_length_a 8.792990
_cell_length_b 13.456041
_cell_length_c 14.623041
_cell_angle_alpha 90.000000
_cell_angle_beta 73.630479
_cell_angle_gamma 90.000000
_cell_volume 1660.046593
_symmetry_space_group_name_H-M "C 2/C"
_symmetry_group_IT_number 15
_symmetry_cell_setting 'monoclinic'
loop_
_space_group_symop_operation_xyz
x,y,z
-x,y,1/2-z
-x,-y,-z
x,-y,1/2+z
1/2+x,1/2+y,z
1/2-x,1/2+y,1/2-z
1/2-x,1/2-y,-z
1/2+x,1/2-y,1/2+z
loop_
_atom_site_type_symbol
_atom_site_label
_atom_site_fract_x
_atom_site_fract_y
_atom_site_fract_z
Si Si1 0.570385 0.473791 0.088681
Si Si2 0.926311 0.477156 0.861554
Si Si3 0.500000 0.633914 0.250000
Si Si4 0.500000 0.670539 0.750000
Si Si5 0.426674 0.871720 0.032898
Si Si6 0.285226 0.305266 0.643886
O O1 0.570689 0.569836 0.154520
O O2 0.461080 0.399865 0.169406
O O3 0.751842 0.427835 0.061373
O O4 0.500000 0.500000 0.000000
O O5 0.762324 0.418313 0.869470
O O6 0.000000 0.485067 0.750000
O O7 0.960814 0.580239 0.908655
O O8 0.000480 0.399807 0.922813
O O9 0.631248 0.699476 0.273728
O O10 0.630556 0.741573 0.686295
O O11 0.390947 0.755806 0.053753
#
# Coordination Sequence:
#
# PCOD9285592 Si02
#       6
#     8   8   4   4   8   8
#     4  10  21  42  64  93 131 172 218 280 338 402
#     4  11  22  41  69  94 132 178 222 280 338 405
#     4  11  24  40  65 102 130 170 221 274 346 399
#     4   9  22  42  67  90 132 176 219 272 342 401
#     4  10  24  40  67  98 127 180 228 267 344 406
#     4  11  22  43  66  98 137 171 222 281 331 407
#
# _framework density 24.09571
#
# number of rings (size 3 to 8) (size 9 to 14) (size 15 to 20)
#    0.000    1.600    1.000    3.000    1.400    4.800 
#    3.600    1.000    0.000    0.000    0.000    0.000 
#    0.000    0.000    0.000    0.000    0.000    0.000 
#
# Total GULP energy -111456.813772 kJ/mol
# GULP energy per Si atom -5572.840689 kJ/mol
# Density = 2.404087 g / cm^3
# Si number density = 24.095710 Si / 1000 Ang^3
#
#
#
# Elastic Constant Matrix: (Units=GPa)
#
#
# Indices 1 2 3 4 5 6 
#
# 1 40.6245 33.2808 18.0150 0.0000 20.2878 0.0000
# 2 33.2808 56.4798 21.6328 0.0000 11.7591 0.0000
# 3 18.0150 21.6328 167.6542 0.0000 26.1530 0.0000
# 4 0.0000 0.0000 0.0000 25.6708 0.0000 -6.6591
# 5 20.2878 11.7591 26.1530 0.0000 30.4319 0.0000
# 6 0.0000 0.0000 0.0000 -6.6591 0.0000 19.9322
#
#
#
# Elastic Compliance Matrix: (Units=1/GPa)
#
#
# Indices 1 2 3 4 5 6 
#
# 1 0.069173 -0.034430 0.002457 0.000000 -0.034922 0.000000
# 2 -0.034430 0.036738 -0.002779 0.000000 0.011146 0.000000
# 3 0.002457 -0.002779 0.007099 0.000000 -0.006665 0.000000
# 4 0.000000 0.000000 0.000000 0.042651 0.000000 0.014249
# 5 -0.034922 0.011146 -0.006665 0.000000 0.057563 0.000000
# 6 0.000000 0.000000 0.000000 0.014249 0.000000 0.054930
#
#
# Mechanical properties :
#
#
# Convention : Reuss Voigt Hill
#
# Bulk Modulus (GPa) = 22.98624 45.62398 34.30511
# Shear Modulus (GPa) = 14.19811 27.99563 21.09687
#
# Velocity S-wave (km/s) = 2.43006 3.41229 2.96217
# Velocity P-wave (km/s) = 4.17538 5.87372 5.09580
#
# Compressibility (1/GPa) = 0.04350429
#
# Stress axis : x y z
#
# Youngs Moduli (GPa) = 14.45658 27.22011 140.86591
#
# Poissons Ratio (x) = 0.93720 -0.34618
# Poissons Ratio (y) = 0.49775 0.39153
# Poissons Ratio (z) = -0.03553 0.07566
#
# Static dielectric constant tensor:
#      x y z
#    x 2.006070 0.000000 -0.033600 
#    y 0.000000 1.931530 0.000000 
#    z -0.033600 0.000000 1.965680 
# 
# From -- ./inp_files/133222.got.cif
#   From: 2010.05.17/outbox.cif.g08.bks.cpg/sg15_67_cif.got.tgz:133222.got - 2010.06.03 18:47:42.
