data_PCOD9285513
_publ_section_title
;
Structure prediction by ZEFSAII (Michael W. Deem and Ramdas Pophale) SiO2 
 PCOD9285513
Probable space group: C 2/C
;
_chemical_formula_sum "Si O2"
_cell_formula_units_Z 56
_cell_length_a 24.395099
_cell_length_b 13.370330
_cell_length_c 14.277092
_cell_angle_alpha 90.000000
_cell_angle_beta 144.297340
_cell_angle_gamma 90.000000
_cell_volume 2717.590775
_symmetry_space_group_name_H-M "C 2/C"
_symmetry_group_IT_number 15
_symmetry_cell_setting 'monoclinic'
loop_
_space_group_symop_operation_xyz
x,y,z
-x,y,1/2-z
-x,-y,-z
x,-y,1/2+z
1/2+x,1/2+y,z
1/2-x,1/2+y,1/2-z
1/2-x,1/2-y,-z
1/2+x,1/2-y,1/2+z
loop_
_atom_site_type_symbol
_atom_site_label
_atom_site_fract_x
_atom_site_fract_y
_atom_site_fract_z
Si Si1 0.464901 0.448418 0.306318
Si Si2 0.587424 0.237990 0.023322
Si Si3 0.076524 0.876841 0.630965
Si Si4 0.809207 0.193289 0.658395
Si Si5 0.498739 0.020063 0.607602
Si Si6 0.339499 0.980252 0.524043
Si Si7 0.235692 0.293108 0.583244
O O1 0.500000 0.460859 0.250000
O O2 0.549853 0.433485 0.498230
O O3 0.404525 0.541206 0.262268
O O4 0.400083 0.352051 0.232464
O O5 0.513342 0.320901 0.951153
O O6 0.527905 0.137879 0.918465
O O7 0.344991 0.262702 0.470203
O O8 0.656883 0.235804 0.209634
O O9 0.160145 0.799558 0.729172
O O10 0.750000 0.250000 0.500000
O O11 0.741657 0.101955 0.595663
O O12 0.500000 0.000000 0.500000
O O13 0.413165 0.965664 0.541713
O O14 0.594433 0.985282 0.791363
O O15 0.297095 0.091481 0.459937
O O16 0.250000 0.250000 0.500000
#
# Coordination Sequence:
#
# PCOD9285513 Si02
#       7
#     8   8   8   8   8   8   8
#     4  10  23  42  65  90 126 173 203 265 329 384
#     4  10  24  40  62  95 127 165 216 267 315 392
#     4  10  22  42  63  92 132 161 217 263 322 389
#     4  11  23  42  62  95 129 165 216 267 323 390
#     4  10  21  42  63  87 126 171 208 262 321 377
#     4  10  22  40  62  93 127 162 216 263 315 383
#     4  11  23  39  65  95 125 170 214 266 321 387
#
# _framework density 20.606486
#
# number of rings (size 3 to 8) (size 9 to 14) (size 15 to 20)
#    0.000    1.714    1.429    1.714    4.000    3.429 
#    5.143    0.000    0.000    0.000    0.000    0.000 
#    0.000    0.000    0.000    0.000    0.000    0.000 
#
# Total GULP energy -156216.690523 kJ/mol
# GULP energy per Si atom -5579.167519 kJ/mol
# Density = 2.055959 g / cm^3
# Si number density = 20.606486 Si / 1000 Ang^3
#
#
#
# Elastic Constant Matrix: (Units=GPa)
#
#
# Indices 1 2 3 4 5 6 
#
# 1 123.0925 -4.7513 24.9056 0.0000 -9.7204 0.0000
# 2 -4.7513 17.9440 -13.3259 0.0000 2.4789 0.0000
# 3 24.9056 -13.3259 53.9870 0.0000 1.8793 0.0000
# 4 0.0000 0.0000 0.0000 37.0522 0.0000 -0.1909
# 5 -9.7204 2.4789 1.8793 0.0000 29.4830 0.0000
# 6 0.0000 0.0000 0.0000 -0.1909 0.0000 22.4657
#
#
#
# Elastic Compliance Matrix: (Units=1/GPa)
#
#
# Indices 1 2 3 4 5 6 
#
# 1 0.009313 -0.001592 -0.004812 0.000000 0.003511 0.000000
# 2 -0.001592 0.069909 0.018254 0.000000 -0.007566 0.000000
# 3 -0.004812 0.018254 0.025413 0.000000 -0.004741 0.000000
# 4 0.000000 0.000000 0.000000 0.026990 0.000000 0.000229
# 5 0.003511 -0.007566 -0.004741 0.000000 0.036014 0.000000
# 6 0.000000 0.000000 0.000000 0.000229 0.000000 0.044514
#
#
# Mechanical properties :
#
#
# Convention : Reuss Voigt Hill
#
# Bulk Modulus (GPa) = 7.79211 23.18670 15.48941
# Shear Modulus (GPa) = 21.62324 30.34652 25.98488
#
# Velocity S-wave (km/s) = 3.24287 3.84170 3.55492
# Velocity P-wave (km/s) = 4.22033 5.56370 4.93791
#
# Compressibility (1/GPa) = 0.12833489
#
# Stress axis : x y z
#
# Youngs Moduli (GPa) = 107.37271 14.30438 39.34917
#
# Poissons Ratio (x) = 0.02278 0.18934
# Poissons Ratio (y) = 0.17098 -0.71827
# Poissons Ratio (z) = 0.51665 -0.26111
#
# Static dielectric constant tensor:
#      x y z
#    x 1.719310 0.000000 0.030540 
#    y 0.000000 1.705440 0.000000 
#    z 0.030540 0.000000 1.794260 
# 
# From -- ./inp_files/178449.got.cif
#   From: 2010.05.17/outbox.cif.g08.bks.cpg/sg15_90_cif.got.tgz:178449.got - 2010.06.03 18:47:42.
