data_PCOD9285058
_publ_section_title
;
Structure prediction by ZEFSAII (Michael W. Deem and Ramdas Pophale) SiO2 
 PCOD9285058
Probable space group: C 2/C
;
_chemical_formula_sum "Si O2"
_cell_formula_units_Z 48
_cell_length_a 8.734893
_cell_length_b 16.290154
_cell_length_c 16.598941
_cell_angle_alpha 90.000000
_cell_angle_beta 54.713359
_cell_angle_gamma 90.000000
_cell_volume 1927.960891
_symmetry_space_group_name_H-M "C 2/C"
_symmetry_group_IT_number 15
_symmetry_cell_setting 'monoclinic'
loop_
_space_group_symop_operation_xyz
x,y,z
-x,y,1/2-z
-x,-y,-z
x,-y,1/2+z
1/2+x,1/2+y,z
1/2-x,1/2+y,1/2-z
1/2-x,1/2-y,-z
1/2+x,1/2-y,1/2+z
loop_
_atom_site_type_symbol
_atom_site_label
_atom_site_fract_x
_atom_site_fract_y
_atom_site_fract_z
Si Si1 0.718970 0.154279 0.958565
Si Si2 0.215876 0.034880 0.690474
Si Si3 0.295157 0.190251 0.059396
Si Si4 0.359541 0.684966 0.664325
Si Si5 0.336554 0.564201 0.524389
Si Si6 0.041500 0.568842 0.149003
O O1 0.728105 0.066037 0.914037
O O2 0.919064 0.195683 0.880175
O O3 0.522477 0.187886 0.987581
O O4 0.674195 0.133136 0.064173
O O5 0.226350 0.118455 0.745051
O O6 0.000000 0.013088 0.750000
O O7 0.340847 0.957547 0.675192
O O8 0.261111 0.231290 0.159651
O O9 0.250000 0.250000 0.000000
O O10 0.196742 0.106668 0.053448
O O11 0.369191 0.634735 0.579089
O O12 0.500000 0.500000 0.500000
O O13 0.148849 0.517581 0.609356
O O14 0.000000 0.598107 0.250000
#
# Coordination Sequence:
#
# PCOD9285058 Si02
#       6
#     8   8   8   8   8   8
#     4  11  22  41  67  97 132 178 229 289 341 413
#     4  10  22  38  65  99 130 173 228 280 346 426
#     4  10  23  40  66  96 128 177 229 275 354 419
#     4  10  21  41  66  99 133 178 227 281 344 425
#     4  11  21  39  67  98 135 176 220 281 350 405
#     4  12  23  39  66  98 135 174 225 282 352 408
#
# _framework density 24.896768999999999
#
# number of rings (size 3 to 8) (size 9 to 14) (size 15 to 20)
#    0.000    1.333    5.000    1.000    0.000    0.000 
#    0.000    4.167    3.667    0.000    0.000    0.000 
#    0.000    0.000    0.000    0.000    0.000    0.000 
#
# Total GULP energy -133688.017567 kJ/mol
# GULP energy per Si atom -5570.334065 kJ/mol
# Density = 2.484010 g / cm^3
# Si number density = 24.896769 Si / 1000 Ang^3
#
#
#
# Elastic Constant Matrix: (Units=GPa)
#
#
# Indices 1 2 3 4 5 6 
#
# 1 78.5552 7.5205 -14.4208 0.0000 1.8895 0.0000
# 2 7.5205 93.3094 -1.3249 0.0000 2.6603 0.0000
# 3 -14.4208 -1.3249 61.9664 0.0000 15.7552 0.0000
# 4 0.0000 0.0000 0.0000 5.1718 0.0000 9.4386
# 5 1.8895 2.6603 15.7552 0.0000 31.9654 0.0000
# 6 0.0000 0.0000 0.0000 9.4386 0.0000 14.7525
#
#
#
# Elastic Compliance Matrix: (Units=1/GPa)
#
#
# Indices 1 2 3 4 5 6 
#
# 1 0.013583 -0.000967 0.003800 0.000000 -0.002595 0.000000
# 2 -0.000967 0.010826 0.000253 0.000000 -0.000968 0.000000
# 3 0.003800 0.000253 0.019539 0.000000 -0.009876 0.000000
# 4 0.000000 0.000000 0.000000 -1.153397 0.000000 0.737937
# 5 -0.002595 -0.000968 -0.009876 0.000000 0.036385 0.000000
# 6 0.000000 0.000000 0.000000 0.737937 0.000000 -0.404343
#
#
# Mechanical properties :
#
#
# Convention : Reuss Voigt Hill
#
# Bulk Modulus (GPa) = 19.95236 24.15339 22.05288
# Shear Modulus (GPa) = -3.40861 26.51501 11.55320
#
# Velocity S-wave (km/s) = -1.17135 3.26697 2.15651
# Velocity P-wave (km/s) = 2.49038 4.89421 3.88299
#
# Compressibility (1/GPa) = 0.05011939
#
# Stress axis : x y z
#
# Youngs Moduli (GPa) = 73.62411 92.36888 51.18094
#
# Poissons Ratio (x) = 0.08930 -0.19450
# Poissons Ratio (y) = 0.07118 -0.01293
# Poissons Ratio (z) = -0.27978 -0.02334
#
# Static dielectric constant tensor:
#      x y z
#    x 2.074520 0.000000 0.003990 
#    y 0.000000 2.237000 0.000000 
#    z 0.003990 0.000000 2.028170 
# 
# From -- ./inp_files/191974.got.cif
#   From: 2010.05.17/outbox.cif.g08.bks.cpg/sg15_96_cif.got.tgz:191974.got - 2010.06.03 18:47:42.
