data_PCOD9285736
_publ_section_title
;
Structure prediction by ZEFSAII (Michael W. Deem and Ramdas Pophale) SiO2 
 PCOD9285736
Probable space group: C 2/C
;
_chemical_formula_sum "Si O2"
_cell_formula_units_Z 40
_cell_length_a 12.719170
_cell_length_b 6.973461
_cell_length_c 16.154343
_cell_angle_alpha 90.000000
_cell_angle_beta 75.642775
_cell_angle_gamma 90.000000
_cell_volume 1388.086344
_symmetry_space_group_name_H-M "C 2/C"
_symmetry_group_IT_number 15
_symmetry_cell_setting 'monoclinic'
loop_
_space_group_symop_operation_xyz
x,y,z
-x,y,1/2-z
-x,-y,-z
x,-y,1/2+z
1/2+x,1/2+y,z
1/2-x,1/2+y,1/2-z
1/2-x,1/2-y,-z
1/2+x,1/2-y,1/2+z
loop_
_atom_site_type_symbol
_atom_site_label
_atom_site_fract_x
_atom_site_fract_y
_atom_site_fract_z
Si Si1 0.576430 0.648267 0.814215
Si Si2 0.439768 0.959787 0.110012
Si Si3 0.333151 0.375362 0.577724
Si Si4 0.363725 0.321193 0.940754
Si Si5 0.816391 0.363534 0.295275
O O1 0.500000 0.651280 0.750000
O O2 0.585097 0.451670 0.864895
O O3 0.704156 0.684467 0.770665
O O4 0.549021 0.813147 0.886590
O O5 0.345348 0.852409 0.076201
O O6 0.547084 0.845914 0.063133
O O7 0.595048 0.921687 0.287666
O O8 0.373346 0.477800 0.486636
O O9 0.221030 0.469347 0.632756
O O10 0.350025 0.317601 0.844221
O O11 0.250000 0.250000 0.000000
#
# Coordination Sequence:
#
# PCOD9285736 Si02
#       5
#     8   8   8   8   8
#     4  10  23  39  61  94 125 161 213 253 307 365
#     4  12  21  40  69  90 124 171 203 253 318 365
#     4   9  23  41  63  91 133 152 211 256 311 366
#     4  10  21  42  66  92 127 167 202 262 314 367
#     4   9  21  41  66  94 126 160 211 257 306 373
#
# _framework density 28.816652999999999
#
# number of rings (size 3 to 8) (size 9 to 14) (size 15 to 20)
#    1.200    0.800    0.000    3.600    0.000    4.800 
#    0.000    1.000    0.000    0.000    0.000    0.000 
#    0.000    0.000    0.000    0.000    0.000    0.000 
#
# Total GULP energy -111942.077268 kJ/mol
# GULP energy per Si atom -5597.103863 kJ/mol
# Density = 2.875106 g / cm^3
# Si number density = 28.816653 Si / 1000 Ang^3
#
#
#
# Elastic Constant Matrix: (Units=GPa)
#
#
# Indices 1 2 3 4 5 6 
#
# 1 87.8707 16.6338 26.6910 0.0000 9.6478 0.0000
# 2 16.6338 153.6397 26.8752 0.0000 -2.9664 0.0000
# 3 26.6910 26.8752 139.7713 0.0000 -13.0326 0.0000
# 4 0.0000 0.0000 0.0000 47.4251 0.0000 -6.9191
# 5 9.6478 -2.9664 -13.0326 0.0000 65.4373 0.0000
# 6 0.0000 0.0000 0.0000 -6.9191 0.0000 30.5317
#
#
#
# Elastic Compliance Matrix: (Units=1/GPa)
#
#
# Indices 1 2 3 4 5 6 
#
# 1 0.012567 -0.000981 -0.002433 0.000000 -0.002382 0.000000
# 2 -0.000981 0.006812 -0.001101 0.000000 0.000234 0.000000
# 3 -0.002433 -0.001101 0.008008 0.000000 0.001904 0.000000
# 4 0.000000 0.000000 0.000000 0.021807 0.000000 0.004942
# 5 -0.002382 0.000234 0.001904 0.000000 0.016023 0.000000
# 6 0.000000 0.000000 0.000000 0.004942 0.000000 0.033873
#
#
# Mechanical properties :
#
#
# Convention : Reuss Voigt Hill
#
# Bulk Modulus (GPa) = 54.47387 57.96465 56.21926
# Shear Modulus (GPa) = 43.76818 49.41757 46.59288
#
# Velocity S-wave (km/s) = 3.90147 4.14562 4.02540
# Velocity P-wave (km/s) = 6.26418 6.56305 6.41535
#
# Compressibility (1/GPa) = 0.01835742
#
# Stress axis : x y z
#
# Youngs Moduli (GPa) = 79.57562 146.80009 124.86956
#
# Poissons Ratio (x) = 0.14399 0.30384
# Poissons Ratio (y) = 0.07805 0.13744
# Poissons Ratio (z) = 0.19363 0.16158
#
# Static dielectric constant tensor:
#      x y z
#    x 2.325500 0.000000 0.030410 
#    y 0.000000 2.250140 0.000000 
#    z 0.030410 0.000000 2.246340 
# 
# From -- ./inp_files/235769.got.cif
#   From: 2010.05.17/outbox.cif.g08.bks.cpg/sg15_118_cif.got.tgz:235769.got - 2010.06.03 18:47:42.
