data_PCOD9285074
_publ_section_title
;
Structure prediction by ZEFSAII (Michael W. Deem and Ramdas Pophale) SiO2 
 PCOD9285074
Probable space group: C 2/C
;
_chemical_formula_sum "Si O2"
_cell_formula_units_Z 56
_cell_length_a 13.016376
_cell_length_b 15.436267
_cell_length_c 22.669068
_cell_angle_alpha 90.000000
_cell_angle_beta 34.443572
_cell_angle_gamma 90.000000
_cell_volume 2576.149547
_symmetry_space_group_name_H-M "C 2/C"
_symmetry_group_IT_number 15
_symmetry_cell_setting 'monoclinic'
loop_
_space_group_symop_operation_xyz
x,y,z
-x,y,1/2-z
-x,-y,-z
x,-y,1/2+z
1/2+x,1/2+y,z
1/2-x,1/2+y,1/2-z
1/2-x,1/2-y,-z
1/2+x,1/2-y,1/2+z
loop_
_atom_site_type_symbol
_atom_site_label
_atom_site_fract_x
_atom_site_fract_y
_atom_site_fract_z
Si Si1 0.404443 0.073180 0.854106
Si Si2 0.901863 0.055047 0.860050
Si Si3 0.483997 0.204878 0.922541
Si Si4 0.491746 0.904815 0.530154
Si Si5 0.126554 0.593398 0.287411
Si Si6 0.544306 0.405704 0.572359
Si Si7 0.584952 0.717054 0.774662
O O1 0.500000 0.106783 0.750000
O O2 0.444701 0.136461 0.889825
O O3 0.495924 0.981148 0.825535
O O4 0.186251 0.067236 0.954316
O O5 0.000000 0.038005 0.750000
O O6 0.017301 0.129926 0.838214
O O7 0.901122 0.967423 0.898423
O O8 0.704302 0.100852 0.947857
O O9 0.424731 0.302236 0.934313
O O10 0.700105 0.211188 0.827638
O O11 0.425984 0.164970 0.013282
O O12 0.360983 0.911053 0.647939
O O13 0.500000 0.000000 0.500000
O O14 0.328241 0.584510 0.165049
O O15 0.040458 0.687910 0.318591
O O16 0.500000 0.712756 0.750000
#
# Coordination Sequence:
#
# PCOD9285074 Si02
#       7
#     8   8   8   8   8   8   8
#     4  12  26  46  68  97 141 187 228 287 357 421
#     4  11  20  39  70 100 134 181 232 280 343 404
#     4  11  23  44  69 103 145 176 237 291 344 420
#     4  12  21  40  70 100 134 179 230 287 340 414
#     4  11  24  42  69 102 140 179 237 283 355 418
#     4  11  25  43  67 103 139 182 228 293 344 414
#     4  10  21  41  67 102 141 182 232 293 340 408
#
# _framework density 21.737869
#
# number of rings (size 3 to 8) (size 9 to 14) (size 15 to 20)
#    0.000    0.857    5.714    2.571    0.000    4.000 
#    0.000    0.000    0.000    0.000    0.000    0.000 
#    0.000    0.000    0.000    0.000    0.000    0.000 
#
# Total GULP energy -156281.219223 kJ/mol
# GULP energy per Si atom -5581.472115 kJ/mol
# Density = 2.168839 g / cm^3
# Si number density = 21.737869 Si / 1000 Ang^3
#
#
#
# Elastic Constant Matrix: (Units=GPa)
#
#
# Indices 1 2 3 4 5 6 
#
# 1 46.6990 32.7073 23.0263 0.0001 0.0493 -0.0001
# 2 32.7073 143.2010 28.3448 -0.0001 -9.4171 -0.0001
# 3 23.0263 28.3448 124.3905 0.0003 -11.4163 -0.0004
# 4 0.0001 -0.0001 0.0003 30.9116 -0.0002 -1.6466
# 5 0.0493 -9.4171 -11.4163 -0.0002 21.6966 0.0001
# 6 -0.0001 -0.0001 -0.0004 -1.6466 0.0001 29.3911
#
#
#
# Elastic Compliance Matrix: (Units=1/GPa)
#
#
# Indices 1 2 3 4 5 6 
#
# 1 0.027542 -0.005770 -0.004223 0.000000 -0.004789 0.000000
# 2 -0.005770 0.008644 -0.000584 0.000000 0.003457 0.000000
# 3 -0.004223 -0.000584 0.009385 0.000000 0.004694 0.000000
# 4 0.000000 0.000000 0.000000 0.032447 0.000000 0.001818
# 5 -0.004789 0.003457 0.004694 0.000000 0.050072 0.000000
# 6 0.000000 0.000000 0.000000 0.001818 0.000000 0.034126
#
#
# Mechanical properties :
#
#
# Convention : Reuss Voigt Hill
#
# Bulk Modulus (GPa) = 40.95562 53.60527 47.28044
# Shear Modulus (GPa) = 26.10842 31.74733 28.92787
#
# Velocity S-wave (km/s) = 3.46939 3.82574 3.65191
# Velocity P-wave (km/s) = 5.91020 6.65045 6.29122
#
# Compressibility (1/GPa) = 0.02441667
#
# Stress axis : x y z
#
# Youngs Moduli (GPa) = 36.30797 115.68682 106.55370
#
# Poissons Ratio (x) = 0.66748 0.45000
# Poissons Ratio (y) = 0.20949 0.06226
# Poissons Ratio (z) = 0.15334 0.06760
#
# Static dielectric constant tensor:
#      x y z
#    x 1.953200 -0.000320 -0.082170 
#    y -0.000320 38.831310 -0.000410 
#    z -0.082170 -0.000410 1.844510 
# 
# From -- ./inp_files/178337.got.cif
#   From: 2010.05.17/outbox.cif.g08.bks.cpg/sg15_90_cif.got.tgz:178337.got - 2010.06.03 18:47:42.
