data_PCOD9285335
_publ_section_title
;
Structure prediction by ZEFSAII (Michael W. Deem and Ramdas Pophale) SiO2 
 PCOD9285335
Probable space group: C 2/C
;
_chemical_formula_sum "Si O2"
_cell_formula_units_Z 64
_cell_length_a 9.152656
_cell_length_b 28.141630
_cell_length_c 22.986637
_cell_angle_alpha 90.000000
_cell_angle_beta 32.398505
_cell_angle_gamma 90.000000
_cell_volume 3172.330282
_symmetry_space_group_name_H-M "C 2/C"
_symmetry_group_IT_number 15
_symmetry_cell_setting 'monoclinic'
loop_
_space_group_symop_operation_xyz
x,y,z
-x,y,1/2-z
-x,-y,-z
x,-y,1/2+z
1/2+x,1/2+y,z
1/2-x,1/2+y,1/2-z
1/2-x,1/2-y,-z
1/2+x,1/2-y,1/2+z
loop_
_atom_site_type_symbol
_atom_site_label
_atom_site_fract_x
_atom_site_fract_y
_atom_site_fract_z
Si Si1 0.312282 0.454661 0.057628
Si Si2 0.311044 0.773752 0.623311
Si Si3 0.799917 0.883273 0.639610
Si Si4 0.690303 0.687290 0.472235
Si Si5 0.888861 0.135866 0.351538
Si Si6 0.023944 0.099072 0.885971
Si Si7 0.263220 0.059255 0.691294
Si Si8 0.481625 0.943635 0.998519
O O1 0.303344 0.425820 0.121192
O O2 0.012095 0.468871 0.136363
O O3 0.500000 0.500000 0.000000
O O4 0.471398 0.420066 0.959534
O O5 0.465163 0.728631 0.544227
O O6 0.519674 0.791494 0.603978
O O7 0.301587 0.817593 0.580640
O O8 0.000000 0.762082 0.750000
O O9 0.500000 0.905254 0.750000
O O10 0.779384 0.842850 0.597014
O O11 0.898967 0.863586 0.667893
O O12 0.573448 0.650361 0.559922
O O13 0.753003 0.084247 0.393557
O O14 0.000000 0.143337 0.250000
O O15 0.166810 0.094275 0.774992
O O16 0.748550 0.068206 0.970904
O O17 0.391875 0.080765 0.589814
O O18 0.000000 0.033842 0.750000
O O19 0.500000 0.000000 0.000000
#
# Coordination Sequence:
#
# PCOD9285335 Si02
#       8
#     8   8   8   8   8   8   8   8
#     4  11  23  41  61  92 130 167 218 273 324 397
#     4  10  21  41  70  97 125 170 217 263 335 401
#     4  11  24  41  64  94 129 170 219 270 334 394
#     4  10  22  42  66  95 134 166 211 278 329 401
#     4  11  23  41  67  90 129 171 219 268 331 386
#     4  10  22  38  66  89 129 170 209 264 338 382
#     4  10  22  41  61  90 127 165 215 270 321 392
#     4  11  22  41  61  94 129 172 223 268 319 394
#
# _framework density 20.174444000000001
#
# number of rings (size 3 to 8) (size 9 to 14) (size 15 to 20)
#    0.000    1.500    2.500    2.625    1.750    5.000 
#    2.250    0.000    2.750    0.000    0.000    0.000 
#    0.000    0.000    0.000    0.000    0.000    0.000 
#
# Total GULP energy -178304.846258 kJ/mol
# GULP energy per Si atom -5572.026446 kJ/mol
# Density = 2.012853 g / cm^3
# Si number density = 20.174444 Si / 1000 Ang^3
#
#
#
# Elastic Constant Matrix: (Units=GPa)
#
#
# Indices 1 2 3 4 5 6 
#
# 1 116.6323 19.3731 44.9975 -0.0003 -15.2916 0.0000
# 2 19.3731 94.6050 29.5281 0.0004 -9.6000 -0.0002
# 3 44.9975 29.5281 87.7415 -0.0031 -8.7129 0.0007
# 4 -0.0003 0.0004 -0.0031 18.5395 0.0007 -7.5877
# 5 -15.2916 -9.6000 -8.7129 0.0007 48.9489 -0.0003
# 6 0.0000 -0.0002 0.0007 -7.5877 -0.0003 13.9894
#
#
#
# Elastic Compliance Matrix: (Units=1/GPa)
#
#
# Indices 1 2 3 4 5 6 
#
# 1 0.010985 -0.000358 -0.005273 -0.000001 0.002423 0.000000
# 2 -0.000358 0.011953 -0.003682 -0.000001 0.001577 0.000000
# 3 -0.005273 -0.003682 0.015377 0.000003 0.000368 0.000001
# 4 -0.000001 -0.000001 0.000003 0.069329 -0.000001 0.037603
# 5 0.002423 0.001577 0.000368 -0.000001 0.021561 0.000000
# 6 0.000000 0.000000 0.000001 0.037603 0.000000 0.091878
#
#
# Mechanical properties :
#
#
# Convention : Reuss Voigt Hill
#
# Bulk Modulus (GPa) = 50.78942 54.08622 52.43782
# Shear Modulus (GPa) = 20.30278 29.96758 25.13518
#
# Velocity S-wave (km/s) = 3.17576 3.85830 3.53355
# Velocity P-wave (km/s) = 6.21909 6.83492 6.53426
#
# Compressibility (1/GPa) = 0.01968914
#
# Stress axis : x y z
#
# Youngs Moduli (GPa) = 91.03054 83.66137 65.03257
#
# Poissons Ratio (x) = 0.02995 0.34289
# Poissons Ratio (y) = 0.03259 0.23948
# Poissons Ratio (z) = 0.47997 0.30807
#
# Static dielectric constant tensor:
#      x y z
#    x 1.735070 0.000000 -0.018790 
#    y 0.000000 1.693360 0.000000 
#    z -0.018790 0.000000 1.774370 
# 
# From -- ./inp_files/266738.got.cif
#   From: 2010.05.17/outbox.cif.g08.bks.cpg/sg15_134_cif.got.tgz:266738.got - 2010.06.03 18:47:42.
