data_PCOD9285026
_publ_section_title
;
Structure prediction by ZEFSAII (Michael W. Deem and Ramdas Pophale) SiO2 
 PCOD9285026
Probable space group: C 2/C
;
_chemical_formula_sum "Si O2"
_cell_formula_units_Z 60
_cell_length_a 19.107151
_cell_length_b 18.565446
_cell_length_c 8.580226
_cell_angle_alpha 90.000000
_cell_angle_beta 65.734519
_cell_angle_gamma 90.000000
_cell_volume 2774.780793
_symmetry_space_group_name_H-M "C 2/C"
_symmetry_group_IT_number 15
_symmetry_cell_setting 'monoclinic'
loop_
_space_group_symop_operation_xyz
x,y,z
-x,y,1/2-z
-x,-y,-z
x,-y,1/2+z
1/2+x,1/2+y,z
1/2-x,1/2+y,1/2-z
1/2-x,1/2-y,-z
1/2+x,1/2-y,1/2+z
loop_
_atom_site_type_symbol
_atom_site_label
_atom_site_fract_x
_atom_site_fract_y
_atom_site_fract_z
Si Si1 0.948488 0.147605 0.450886
Si Si2 0.633414 0.074034 0.098100
Si Si3 0.194954 0.898411 0.998379
Si Si4 0.841311 0.739672 0.898880
Si Si5 0.000000 0.664811 0.250000
Si Si6 0.416402 0.711733 0.006792
Si Si7 0.670547 0.533360 0.847966
Si Si8 0.839230 0.580532 0.792131
O O1 0.889709 0.215325 0.483007
O O2 0.901197 0.075080 0.515975
O O3 0.000000 0.144556 0.250000
O O4 0.009916 0.161389 0.530345
O O5 0.565428 0.112309 0.253228
O O6 0.634447 0.990125 0.140198
O O7 0.713858 0.110113 0.075978
O O8 0.628076 0.081808 0.914949
O O9 0.173687 0.947646 0.164366
O O10 0.145367 0.826623 0.046576
O O11 0.173241 0.948006 0.871322
O O12 0.871233 0.772247 0.707735
O O13 0.855791 0.654124 0.868969
O O14 0.750000 0.750000 0.000000
O O15 0.953425 0.716079 0.407654
O O16 0.747659 0.568040 0.851674
#
# Coordination Sequence:
#
# PCOD9285026 Si02
#       8
#     8   8   8   8   4   8   8   8
#     4  10  23  39  59  95 133 173 217 278 336 400
#     4  10  24  43  68  98 134 174 222 284 332 408
#     4  10  24  42  69  97 130 178 228 274 333 407
#     4  11  22  41  72  95 132 181 224 281 330 407
#     4  12  24  44  64  96 140 172 220 288 338 400
#     4  11  25  42  62  97 137 174 229 277 345 397
#     4  10  21  41  66  95 132 173 227 277 329 404
#     4  10  21  44  67 102 129 176 234 269 337 404
#
# _framework density 21.623329999999999
#
# number of rings (size 3 to 8) (size 9 to 14) (size 15 to 20)
#    0.000    1.600    2.667    0.800    3.733    5.867 
#    4.800    0.000    0.000    0.000    0.000    0.000 
#    0.000    0.000    0.000    0.000    0.000    0.000 
#
# Total GULP energy -167617.918504 kJ/mol
# GULP energy per Si atom -5587.263950 kJ/mol
# Density = 2.157411 g / cm^3
# Si number density = 21.623330 Si / 1000 Ang^3
#
#
#
# Elastic Constant Matrix: (Units=GPa)
#
#
# Indices 1 2 3 4 5 6 
#
# 1 65.7555 35.8900 42.7356 0.0000 -21.0788 0.0000
# 2 35.8900 63.9406 30.2725 0.0000 -20.3153 0.0000
# 3 42.7356 30.2725 58.4277 0.0000 -23.9769 0.0000
# 4 0.0000 0.0000 0.0000 32.5129 0.0000 -11.7282
# 5 -21.0788 -20.3153 -23.9769 0.0000 27.4893 0.0000
# 6 0.0000 0.0000 0.0000 -11.7282 0.0000 28.5515
#
#
#
# Elastic Compliance Matrix: (Units=1/GPa)
#
#
# Indices 1 2 3 4 5 6 
#
# 1 0.032810 -0.008923 -0.018311 0.000000 0.002593 0.000000
# 2 -0.008923 0.024785 -0.002501 0.000000 0.009293 0.000000
# 3 -0.018311 -0.002501 0.039379 0.000000 0.018458 0.000000
# 4 0.000000 0.000000 0.000000 0.036107 0.000000 0.014832
# 5 0.002593 0.009293 0.018458 0.000000 0.061333 0.000000
# 6 0.000000 0.000000 0.000000 0.014832 0.000000 0.041117
#
#
# Mechanical properties :
#
#
# Convention : Reuss Voigt Hill
#
# Bulk Modulus (GPa) = 26.66469 45.10222 35.88345
# Shear Modulus (GPa) = 16.26004 22.99246 19.62625
#
# Velocity S-wave (km/s) = 2.74518 3.26439 3.01598
# Velocity P-wave (km/s) = 4.73352 5.92552 5.36274
#
# Compressibility (1/GPa) = 0.03750278
#
# Stress axis : x y z
#
# Youngs Moduli (GPa) = 30.47863 40.34707 25.39449
#
# Poissons Ratio (x) = 0.36003 0.46499
# Poissons Ratio (y) = 0.27197 0.06352
# Poissons Ratio (z) = 0.55808 0.10092
#
# Static dielectric constant tensor:
#      x y z
#    x 1.794310 0.000000 0.017300 
#    y 0.000000 1.795290 0.000000 
#    z 0.017300 0.000000 1.804460 
# 
# From -- ./inp_files/50633.got.cif
#   From: 2010.05.17/outbox.cif.g08.bks.cpg/sg15_26_cif.got.tgz:50633.got - 2010.06.03 18:47:42.
