data_PCOD9285571
_publ_section_title
;
Structure prediction by ZEFSAII (Michael W. Deem and Ramdas Pophale) SiO2 
 PCOD9285571
Probable space group: C 2/C
;
_chemical_formula_sum "Si O2"
_cell_formula_units_Z 44
_cell_length_a 16.335242
_cell_length_b 18.214477
_cell_length_c 7.765239
_cell_angle_alpha 90.000000
_cell_angle_beta 96.903211
_cell_angle_gamma 90.000000
_cell_volume 2293.703446
_symmetry_space_group_name_H-M "C 2/C"
_symmetry_group_IT_number 15
_symmetry_cell_setting 'monoclinic'
loop_
_space_group_symop_operation_xyz
x,y,z
-x,y,1/2-z
-x,-y,-z
x,-y,1/2+z
1/2+x,1/2+y,z
1/2-x,1/2+y,1/2-z
1/2-x,1/2-y,-z
1/2+x,1/2-y,1/2+z
loop_
_atom_site_type_symbol
_atom_site_label
_atom_site_fract_x
_atom_site_fract_y
_atom_site_fract_z
Si Si1 0.275634 0.080495 0.554539
Si Si2 0.898054 0.357858 0.379513
Si Si3 0.500000 0.270947 0.750000
Si Si4 0.087975 0.899853 0.965689
Si Si5 0.000000 0.475680 0.250000
Si Si6 0.164654 0.570675 0.316261
Si Si7 0.000000 0.020299 0.750000
O O1 0.336019 0.118227 0.709475
O O2 0.182308 0.107037 0.543284
O O3 0.308131 0.092442 0.368005
O O4 0.276141 0.992722 0.591975
O O5 0.940510 0.281262 0.346901
O O6 0.972678 0.418281 0.391975
O O7 0.850343 0.366127 0.547216
O O8 0.554363 0.324367 0.881250
O O9 0.073978 0.964954 0.821875
O O10 0.030604 0.928531 0.104829
O O11 0.921177 0.526546 0.214488
#
# Coordination Sequence:
#
# PCOD9285571 Si02
#       7
#     8   8   4   8   4   8   4
#     4  11  21  35  62  92 123 152 201 262 305 338
#     4  10  22  37  56  86 126 167 196 244 292 366
#     4  10  24  44  58  82 128 164 204 236 292 376
#     4  10  21  42  64  91 118 150 203 255 303 358
#     4   9  18  31  55  84 121 156 208 238 283 346
#     4  11  20  33  58  95 120 160 199 252 302 346
#     4   9  20  39  71  90 107 156 204 260 299 344
#
# _framework density 19.182949000000001
#
# number of rings (size 3 to 8) (size 9 to 14) (size 15 to 20)
#    0.000    1.818    3.636    1.636    5.091    0.727 
#    3.273    0.909    0.000    0.000    0.000    0.000 
#    0.000    0.000    0.000    0.000    0.000    0.000 
#
# Total GULP energy -122714.042887 kJ/mol
# GULP energy per Si atom -5577.911040 kJ/mol
# Density = 1.913929 g / cm^3
# Si number density = 19.182949 Si / 1000 Ang^3
#
#
#
# Elastic Constant Matrix: (Units=GPa)
#
#
# Indices 1 2 3 4 5 6 
#
# 1 92.0188 41.1310 15.7352 0.0000 16.0455 0.0000
# 2 41.1310 103.8662 37.0360 0.0000 0.3820 0.0000
# 3 15.7352 37.0360 92.2326 0.0000 -11.4873 0.0000
# 4 0.0000 0.0000 0.0000 8.7145 0.0000 -0.8800
# 5 16.0455 0.3820 -11.4873 0.0000 21.2519 0.0000
# 6 0.0000 0.0000 0.0000 -0.8800 0.0000 7.0405
#
#
#
# Elastic Compliance Matrix: (Units=1/GPa)
#
#
# Indices 1 2 3 4 5 6 
#
# 1 0.015992 -0.005518 -0.002148 0.000000 -0.013136 0.000000
# 2 -0.005518 0.013302 -0.004193 0.000000 0.001661 0.000000
# 3 -0.002148 -0.004193 0.014050 0.000000 0.009292 0.000000
# 4 0.000000 0.000000 0.000000 0.116218 0.000000 0.014526
# 5 -0.013136 0.001661 0.009292 0.000000 0.061965 0.000000
# 6 0.000000 0.000000 0.000000 0.014526 0.000000 0.143852
#
#
# Mechanical properties :
#
#
# Convention : Reuss Voigt Hill
#
# Bulk Modulus (GPa) = 50.95862 52.88022 51.91942
# Shear Modulus (GPa) = 12.63775 20.34906 16.49341
#
# Velocity S-wave (km/s) = 2.56950 3.26051 2.93541
# Velocity P-wave (km/s) = 5.95192 6.46534 6.21393
#
# Compressibility (1/GPa) = 0.01962376
#
# Stress axis : x y z
#
# Youngs Moduli (GPa) = 62.53134 75.17590 71.17579
#
# Poissons Ratio (x) = 0.41485 0.15292
# Poissons Ratio (y) = 0.34507 0.29845
# Poissons Ratio (z) = 0.13435 0.31522
#
# Static dielectric constant tensor:
#      x y z
#    x 1.668700 0.000000 0.026680 
#    y 0.000000 1.652600 0.000000 
#    z 0.026680 0.000000 1.749790 
# 
# From -- ./inp_files/39182.got.cif
#   From: 2010.05.17/outbox.cif.g08.bks.cpg/sg15_20_cif.got.tgz:39182.got - 2010.06.03 18:47:42.
