data_PCOD9285918
_publ_section_title
;
Structure prediction by ZEFSAII (Michael W. Deem and Ramdas Pophale) SiO2 
 PCOD9285918
Probable space group: C 2/C
;
_chemical_formula_sum "Si O2"
_cell_formula_units_Z 48
_cell_length_a 13.812824
_cell_length_b 9.956020
_cell_length_c 15.307756
_cell_angle_alpha 90.000000
_cell_angle_beta 59.847079
_cell_angle_gamma 90.000000
_cell_volume 1820.283858
_symmetry_space_group_name_H-M "C 2/C"
_symmetry_group_IT_number 15
_symmetry_cell_setting 'monoclinic'
loop_
_space_group_symop_operation_xyz
x,y,z
-x,y,1/2-z
-x,-y,-z
x,-y,1/2+z
1/2+x,1/2+y,z
1/2-x,1/2+y,1/2-z
1/2-x,1/2-y,-z
1/2+x,1/2-y,1/2+z
loop_
_atom_site_type_symbol
_atom_site_label
_atom_site_fract_x
_atom_site_fract_y
_atom_site_fract_z
Si Si1 0.028765 0.890712 0.132464
Si Si2 0.800723 0.104029 0.391132
Si Si3 0.066609 0.594445 0.042986
Si Si4 0.323483 0.776633 0.149897
Si Si5 0.572040 0.169896 0.592831
Si Si6 0.701226 0.502958 0.802949
O O1 0.033778 0.738387 0.095749
O O2 0.000000 0.887577 0.250000
O O3 0.925898 0.953852 0.125580
O O4 0.134509 0.991906 0.079423
O O5 0.679880 0.156061 0.478859
O O6 0.885022 0.229255 0.355388
O O7 0.794093 0.062064 0.294990
O O8 0.062037 0.486150 0.122493
O O9 0.177577 0.634350 0.938111
O O10 0.000000 0.500000 0.000000
O O11 0.456955 0.770035 0.107376
O O12 0.271169 0.630666 0.154740
O O13 0.270458 0.861790 0.253212
#
# Coordination Sequence:
#
# PCOD9285918 Si02
#       6
#     8   8   8   8   8   8
#     4  10  23  45  69  98 137 175 226 285 347 407
#     4  10  21  44  69  92 132 178 229 283 339 408
#     4  10  23  44  66  97 138 174 230 281 336 408
#     4  11  24  42  66  98 139 180 227 280 341 409
#     4  10  21  42  68  95 128 179 226 280 336 404
#     4  11  24  43  67 100 139 178 224 286 341 406
#
# _framework density 26.369513999999999
#
# number of rings (size 3 to 8) (size 9 to 14) (size 15 to 20)
#    0.000    1.667    3.333    0.000    4.667    1.333 
#   12.000    0.000    0.000    0.000    0.000    0.000 
#    0.000    0.000    0.000    0.000    0.000    0.000 
#
# Total GULP energy -133829.256980 kJ/mol
# GULP energy per Si atom -5576.219041 kJ/mol
# Density = 2.630950 g / cm^3
# Si number density = 26.369514 Si / 1000 Ang^3
#
#
#
# Elastic Constant Matrix: (Units=GPa)
#
#
# Indices 1 2 3 4 5 6 
#
# 1 79.3733 28.4893 22.2221 0.0000 -22.2232 0.0000
# 2 28.4893 203.5051 18.3977 0.0000 -2.7478 0.0000
# 3 22.2221 18.3977 64.5336 0.0000 -15.0630 0.0000
# 4 0.0000 0.0000 0.0000 41.2290 0.0000 2.2319
# 5 -22.2232 -2.7478 -15.0630 0.0000 33.5003 0.0000
# 6 0.0000 0.0000 0.0000 2.2319 0.0000 35.1855
#
#
#
# Elastic Compliance Matrix: (Units=1/GPa)
#
#
# Indices 1 2 3 4 5 6 
#
# 1 0.016845 -0.001958 -0.002985 0.000000 0.009672 0.000000
# 2 -0.001958 0.005273 -0.001152 0.000000 -0.001384 0.000000
# 3 -0.002985 -0.001152 0.018287 0.000000 0.006148 0.000000
# 4 0.000000 0.000000 0.000000 0.024338 0.000000 -0.001544
# 5 0.009672 -0.001384 0.006148 0.000000 0.038917 0.000000
# 6 0.000000 0.000000 0.000000 -0.001544 0.000000 0.028519
#
#
# Mechanical properties :
#
#
# Convention : Reuss Voigt Hill
#
# Bulk Modulus (GPa) = 35.44137 53.95893 44.70015
# Shear Modulus (GPa) = 32.51497 40.53649 36.52573
#
# Velocity S-wave (km/s) = 3.51529 3.92503 3.72580
# Velocity P-wave (km/s) = 5.47228 6.40689 5.95794
#
# Compressibility (1/GPa) = 0.02821561
#
# Stress axis : x y z
#
# Youngs Moduli (GPa) = 59.36476 189.62955 54.68305
#
# Poissons Ratio (x) = 0.37125 0.16322
# Poissons Ratio (y) = 0.11622 0.06301
# Poissons Ratio (z) = 0.17720 0.21852
#
# Static dielectric constant tensor:
#      x y z
#    x 2.206510 0.000000 0.026590 
#    y 0.000000 2.264600 0.000000 
#    z 0.026590 0.000000 2.105990 
# 
# From -- ./inp_files/247294.got.cif
#   From: 2010.05.17/outbox.cif.g08.bks.cpg/sg15_124_cif.got.tgz:247294.got - 2010.06.03 18:47:42.
