data_PCOD9285847
_publ_section_title
;
Structure prediction by ZEFSAII (Michael W. Deem and Ramdas Pophale) SiO2 
 PCOD9285847
Probable space group: C 2/C
;
_chemical_formula_sum "Si O2"
_cell_formula_units_Z 48
_cell_length_a 12.507197
_cell_length_b 6.698545
_cell_length_c 27.142886
_cell_angle_alpha 90.000000
_cell_angle_beta 88.236111
_cell_angle_gamma 90.000000
_cell_volume 2272.954054
_symmetry_space_group_name_H-M "C 2/C"
_symmetry_group_IT_number 15
_symmetry_cell_setting 'monoclinic'
loop_
_space_group_symop_operation_xyz
x,y,z
-x,y,1/2-z
-x,-y,-z
x,-y,1/2+z
1/2+x,1/2+y,z
1/2-x,1/2+y,1/2-z
1/2-x,1/2-y,-z
1/2+x,1/2-y,1/2+z
loop_
_atom_site_type_symbol
_atom_site_label
_atom_site_fract_x
_atom_site_fract_y
_atom_site_fract_z
Si Si1 0.096445 0.834670 0.911428
Si Si2 0.113469 0.480932 0.238642
Si Si3 0.750097 0.677805 0.929207
Si Si4 0.108913 0.833329 0.655095
Si Si5 0.251545 0.298938 0.322621
Si Si6 0.174259 0.564017 0.987995
O O1 0.190861 0.762315 0.873270
O O2 0.085966 0.674188 0.955901
O O3 0.990785 0.847981 0.880359
O O4 0.141190 0.047397 0.930193
O O5 0.085940 0.291776 0.204434
O O6 0.167876 0.410564 0.288228
O O7 0.197602 0.617381 0.208463
O O8 0.000000 0.587122 0.250000
O O9 0.796823 0.717598 0.875055
O O10 0.729088 0.892564 0.954007
O O11 0.835926 0.552236 0.960244
O O12 0.153022 0.050309 0.666691
O O13 0.250000 0.750000 0.000000
#
# Coordination Sequence:
#
# PCOD9285847 Si02
#       6
#     8   8   8   8   8   8
#     4  11  23  41  67  97 130 168 218 266 318 386
#     4  12  26  43  66  94 128 171 212 269 332 382
#     4  10  21  42  67  97 133 170 212 269 320 377
#     4  12  25  40  69  97 124 172 222 260 325 390
#     4  12  25  42  65  94 131 166 217 271 319 385
#     4   9  20  41  68  95 137 172 208 267 322 379
#
# _framework density 21.117892000000001
#
# number of rings (size 3 to 8) (size 9 to 14) (size 15 to 20)
#    0.000    1.000    6.667    0.000    0.000    5.333 
#    0.000    7.500    0.000    0.000    0.000    0.000 
#    0.000    0.000    0.000    0.000    0.000    0.000 
#
# Total GULP energy -134009.095271 kJ/mol
# GULP energy per Si atom -5583.712303 kJ/mol
# Density = 2.106983 g / cm^3
# Si number density = 21.117892 Si / 1000 Ang^3
#
#
#
# Elastic Constant Matrix: (Units=GPa)
#
#
# Indices 1 2 3 4 5 6 
#
# 1 55.2210 17.6953 -21.9423 0.0000 42.3185 0.0000
# 2 17.6953 98.8730 18.6541 0.0000 16.8744 0.0000
# 3 -21.9423 18.6541 43.4254 0.0000 33.2151 0.0000
# 4 0.0000 0.0000 0.0000 -142.5810 0.0000 -71.3504
# 5 42.3185 16.8744 33.2151 0.0000 34.4029 0.0000
# 6 0.0000 0.0000 0.0000 -71.3504 0.0000 -8.8031
#
#
#
# Elastic Compliance Matrix: (Units=1/GPa)
#
#
# Indices 1 2 3 4 5 6 
#
# 1 -0.002897 0.000322 -0.016085 0.000000 0.018936 0.000000
# 2 0.000322 0.011062 -0.000523 0.000000 -0.005317 0.000000
# 3 -0.016085 -0.000523 -0.000785 0.000000 0.020801 0.000000
# 4 0.000000 0.000000 0.000000 0.002295 0.000000 -0.018602
# 5 0.018936 -0.005317 0.020801 0.000000 -0.011700 0.000000
# 6 0.000000 0.000000 0.000000 -0.018602 0.000000 0.037172
#
#
# Mechanical properties :
#
#
# Convention : Reuss Voigt Hill
#
# Bulk Modulus (GPa) = -39.69272 25.14817 -7.27228
# Shear Modulus (GPa) = 84.28453 -11.18878 36.54788
#
# Velocity S-wave (km/s) = 6.32440 -2.30429 4.16463
# Velocity P-wave (km/s) = 5.87317 2.20333 4.43559
#
# Compressibility (1/GPa) = -0.02519354
#
# Stress axis : x y z
#
# Youngs Moduli (GPa) = -345.20123 90.39548 -1273.31622
#
# Poissons Ratio (x) = -0.02907 -20.48172
# Poissons Ratio (y) = 0.11099 -0.66609
# Poissons Ratio (z) = -5.55268 0.04729
#
# Static dielectric constant tensor:
#      x y z
#    x 1.740420 0.000000 0.011670 
#    y 0.000000 1.748410 0.000000 
#    z 0.011670 0.000000 1.761190 
# 
# From -- ./inp_files/294434.got.cif
#   From: 2010.05.17/outbox.cif.g08.bks.cpg/sg15_148_cif.got.tgz:294434.got - 2010.06.03 18:47:42.
