data_PCOD9285063
_publ_section_title
;
Structure prediction by ZEFSAII (Michael W. Deem and Ramdas Pophale) SiO2 
 PCOD9285063
Probable space group: C 2/C
;
_chemical_formula_sum "Si O2"
_cell_formula_units_Z 48
_cell_length_a 13.758536
_cell_length_b 12.268218
_cell_length_c 28.522084
_cell_angle_alpha 90.000000
_cell_angle_beta 26.239955
_cell_angle_gamma 90.000000
_cell_volume 2128.562308
_symmetry_space_group_name_H-M "C 2/C"
_symmetry_group_IT_number 15
_symmetry_cell_setting 'monoclinic'
loop_
_space_group_symop_operation_xyz
x,y,z
-x,y,1/2-z
-x,-y,-z
x,-y,1/2+z
1/2+x,1/2+y,z
1/2-x,1/2+y,1/2-z
1/2-x,1/2-y,-z
1/2+x,1/2-y,1/2+z
loop_
_atom_site_type_symbol
_atom_site_label
_atom_site_fract_x
_atom_site_fract_y
_atom_site_fract_z
Si Si1 0.461598 0.326581 0.917354
Si Si2 0.754629 0.893539 0.871116
Si Si3 0.118571 0.095303 0.617323
Si Si4 0.222281 0.543487 0.282247
Si Si5 0.254353 0.552992 0.039851
Si Si6 0.871526 0.230656 0.061190
O O1 0.607329 0.364429 0.810069
O O2 0.629040 0.280593 0.883152
O O3 0.250000 0.250000 0.000000
O O4 0.364024 0.436415 0.982986
O O5 0.658764 0.939295 0.863784
O O6 0.000000 0.859407 0.750000
O O7 0.779396 0.989286 0.899216
O O8 0.598805 0.795882 0.953592
O O9 0.206255 0.113694 0.526975
O O10 0.178851 0.195344 0.623710
O O11 0.863581 0.066798 0.721114
O O12 0.007959 0.540338 0.343061
O O13 0.356580 0.619165 0.038462
#
# Coordination Sequence:
#
# PCOD9285063 Si02
#       6
#     8   8   8   8   8   8
#     4  11  26  47  68  97 142 187 235 291 350 421
#     4  10  21  41  67 100 132 178 238 289 345 412
#     4  10  22  41  69  97 131 177 231 296 335 414
#     4  10  23  43  65 101 135 174 236 281 353 405
#     4  11  24  44  65  97 143 176 221 295 351 432
#     4  12  23  42  69  97 137 186 231 285 366 406
#
# _framework density 22.550431
#
# number of rings (size 3 to 8) (size 9 to 14) (size 15 to 20)
#    0.000    1.333    1.667    4.500    2.333    2.000 
#   15.000    0.000    0.000    0.000    0.000    0.000 
#    0.000    0.000    0.000    0.000    0.000    0.000 
#
# Total GULP energy -134157.653202 kJ/mol
# GULP energy per Si atom -5589.902217 kJ/mol
# Density = 2.249911 g / cm^3
# Si number density = 22.550431 Si / 1000 Ang^3
#
#
#
# Elastic Constant Matrix: (Units=GPa)
#
#
# Indices 1 2 3 4 5 6 
#
# 1 107.8437 24.5291 21.8472 0.0006 15.5817 -0.0010
# 2 24.5291 81.1987 18.3641 -0.0035 -2.0119 -0.0011
# 3 21.8472 18.3641 76.6203 0.0074 2.0147 -0.0122
# 4 0.0006 -0.0035 0.0074 18.0420 -0.0123 1.5344
# 5 15.5817 -2.0119 2.0147 -0.0123 23.7960 0.0036
# 6 -0.0010 -0.0011 -0.0122 1.5344 0.0036 49.2475
#
#
#
# Elastic Compliance Matrix: (Units=1/GPa)
#
#
# Indices 1 2 3 4 5 6 
#
# 1 0.011569 -0.003155 -0.002342 -0.000005 -0.007644 0.000000
# 2 -0.003155 0.013926 -0.002529 0.000006 0.003457 -0.000001
# 3 -0.002342 -0.002529 0.014322 -0.000007 0.000107 0.000004
# 4 -0.000005 0.000006 -0.000007 0.055574 0.000034 -0.001731
# 5 -0.007644 0.003457 0.000107 0.000034 0.047312 -0.000005
# 6 0.000000 -0.000001 0.000004 -0.001731 -0.000005 0.020360
#
#
# Mechanical properties :
#
#
# Convention : Reuss Voigt Hill
#
# Bulk Modulus (GPa) = 42.07585 43.90484 42.99034
# Shear Modulus (GPa) = 26.73281 31.61191 29.17236
#
# Velocity S-wave (km/s) = 3.44680 3.74817 3.60064
# Velocity P-wave (km/s) = 5.87704 6.18414 6.03254
#
# Compressibility (1/GPa) = 0.02376661
#
# Stress axis : x y z
#
# Youngs Moduli (GPa) = 86.43784 71.80756 69.82059
#
# Poissons Ratio (x) = 0.22653 0.16350
# Poissons Ratio (y) = 0.27268 0.17659
# Poissons Ratio (z) = 0.20241 0.18161
#
# Static dielectric constant tensor:
#      x y z
#    x 1.836470 0.000000 -0.017110 
#    y 0.000000 1.864500 0.000010 
#    z -0.017110 0.000010 1.893700 
# 
# From -- ./inp_files/313522.got.cif
#   From: 2010.05.17/outbox.cif.g08.bks.cpg/sg15_157_cif.got.tgz:313522.got - 2010.06.03 18:47:42.
