data_PCOD9285478
_publ_section_title
;
Structure prediction by ZEFSAII (Michael W. Deem and Ramdas Pophale) SiO2 
 PCOD9285478
Probable space group: C 2/C
;
_chemical_formula_sum "Si O2"
_cell_formula_units_Z 56
_cell_length_a 14.985949
_cell_length_b 13.413081
_cell_length_c 17.219367
_cell_angle_alpha 90.000000
_cell_angle_beta 52.979419
_cell_angle_gamma 90.000000
_cell_volume 2763.509724
_symmetry_space_group_name_H-M "C 2/C"
_symmetry_group_IT_number 15
_symmetry_cell_setting 'monoclinic'
loop_
_space_group_symop_operation_xyz
x,y,z
-x,y,1/2-z
-x,-y,-z
x,-y,1/2+z
1/2+x,1/2+y,z
1/2-x,1/2+y,1/2-z
1/2-x,1/2-y,-z
1/2+x,1/2-y,1/2+z
loop_
_atom_site_type_symbol
_atom_site_label
_atom_site_fract_x
_atom_site_fract_y
_atom_site_fract_z
Si Si1 0.227889 0.608591 0.201234
Si Si2 0.568939 0.990687 0.384493
Si Si3 0.755291 0.684968 0.734120
Si Si4 0.852055 0.036988 0.389403
Si Si5 0.367254 0.240463 0.833235
Si Si6 0.349482 0.022185 0.903443
Si Si7 0.588035 0.515299 0.819736
O O1 0.149358 0.581149 0.316514
O O2 0.231737 0.726357 0.186713
O O3 0.179226 0.546784 0.154617
O O4 0.349472 0.564324 0.158623
O O5 0.649569 0.894129 0.340686
O O6 0.475482 0.984645 0.366707
O O7 0.500000 0.000000 0.500000
O O8 0.803173 0.739878 0.785058
O O9 0.643853 0.621416 0.810339
O O10 0.848532 0.157172 0.388634
O O11 0.736260 0.996722 0.482781
O O12 0.875751 0.004834 0.288679
O O13 0.955242 0.998557 0.387839
O O14 0.500000 0.235203 0.750000
O O15 0.331052 0.137635 0.891430
#
# Coordination Sequence:
#
# PCOD9285478 Si02
#       7
#     8   8   8   8   8   8   8
#     4  11  22  43  65  93 135 166 217 271 327 386
#     4  11  24  44  68  93 130 174 220 269 328 395
#     4  11  22  41  69  94 125 173 216 264 330 385
#     4  11  23  40  63  91 131 169 210 263 334 384
#     4  12  19  39  67  95 126 162 216 269 328 382
#     4  12  23  40  64  99 128 166 217 275 320 390
#     4  10  21  42  62  87 129 172 208 265 322 392
#
# _framework density 20.264087
#
# number of rings (size 3 to 8) (size 9 to 14) (size 15 to 20)
#    0.000    0.857    7.143    2.571    0.000    0.571 
#    7.714    1.429    0.000    0.000    0.000    0.000 
#    0.000    0.000    0.000    0.000    0.000    0.000 
#
# Total GULP energy -156411.166326 kJ/mol
# GULP energy per Si atom -5586.113083 kJ/mol
# Density = 2.021797 g / cm^3
# Si number density = 20.264087 Si / 1000 Ang^3
#
#
#
# Elastic Constant Matrix: (Units=GPa)
#
#
# Indices 1 2 3 4 5 6 
#
# 1 106.0506 51.2373 8.2478 0.0000 -7.7549 0.0000
# 2 51.2373 106.9012 13.2398 0.0000 -17.9787 0.0000
# 3 8.2478 13.2398 53.9782 0.0000 -13.9272 0.0000
# 4 0.0000 0.0000 0.0000 9.3667 0.0000 -2.5500
# 5 -7.7549 -17.9787 -13.9272 0.0000 22.4054 0.0000
# 6 0.0000 0.0000 0.0000 -2.5500 0.0000 18.9411
#
#
#
# Elastic Compliance Matrix: (Units=1/GPa)
#
#
# Indices 1 2 3 4 5 6 
#
# 1 0.012296 -0.005971 -0.000658 0.000000 -0.000944 0.000000
# 2 -0.005971 0.013724 -0.000174 0.000000 0.008838 0.000000
# 3 -0.000658 -0.000174 0.022123 0.000000 0.013384 0.000000
# 4 0.000000 0.000000 0.000000 0.110823 0.000000 0.014920
# 5 -0.000944 0.008838 0.013384 0.000000 0.059717 0.000000
# 6 0.000000 0.000000 0.000000 0.014920 0.000000 0.054804
#
#
# Mechanical properties :
#
#
# Convention : Reuss Voigt Hill
#
# Bulk Modulus (GPa) = 28.95341 45.81997 37.38669
# Shear Modulus (GPa) = 16.74457 23.08965 19.91711
#
# Velocity S-wave (km/s) = 2.87769 3.37922 3.13849
# Velocity P-wave (km/s) = 5.03593 6.15516 5.62346
#
# Compressibility (1/GPa) = 0.03453825
#
# Stress axis : x y z
#
# Youngs Moduli (GPa) = 81.32475 72.86411 45.20283
#
# Poissons Ratio (x) = 0.43507 0.02974
# Poissons Ratio (y) = 0.48558 0.00784
# Poissons Ratio (z) = 0.05351 0.01264
#
# Static dielectric constant tensor:
#      x y z
#    x 1.741950 0.000000 0.022050 
#    y 0.000000 1.714560 0.000000 
#    z 0.022050 0.000000 1.727720 
# 
# From -- ./inp_files/205325.got.cif
#   From: 2010.05.17/outbox.cif.g08.bks.cpg/sg15_103_cif.got.tgz:205325.got - 2010.06.03 18:47:42.
