data_PCOD9285682
_publ_section_title
;
Structure prediction by ZEFSAII (Michael W. Deem and Ramdas Pophale) SiO2 
 PCOD9285682
Probable space group: C 2/C
;
_chemical_formula_sum "Si O2"
_cell_formula_units_Z 52
_cell_length_a 22.870987
_cell_length_b 6.522014
_cell_length_c 20.742531
_cell_angle_alpha 90.000000
_cell_angle_beta 46.542759
_cell_angle_gamma 90.000000
_cell_volume 2245.938839
_symmetry_space_group_name_H-M "C 2/C"
_symmetry_group_IT_number 15
_symmetry_cell_setting 'monoclinic'
loop_
_space_group_symop_operation_xyz
x,y,z
-x,y,1/2-z
-x,-y,-z
x,-y,1/2+z
1/2+x,1/2+y,z
1/2-x,1/2+y,1/2-z
1/2-x,1/2-y,-z
1/2+x,1/2-y,1/2+z
loop_
_atom_site_type_symbol
_atom_site_label
_atom_site_fract_x
_atom_site_fract_y
_atom_site_fract_z
Si Si1 0.391549 0.510764 0.313917
Si Si2 0.936261 0.676763 0.890500
Si Si3 0.934958 0.320352 0.538616
Si Si4 0.301664 0.851547 0.152274
Si Si5 0.000000 0.368472 0.750000
Si Si6 0.281951 0.101613 0.530291
Si Si7 0.123546 0.000171 0.319672
O O1 0.426018 0.651259 0.344153
O O2 0.423781 0.282560 0.304303
O O3 0.295589 0.529928 0.390488
O O4 0.412357 0.550316 0.223406
O O5 0.999235 0.512253 0.813622
O O6 0.947297 0.749611 0.955389
O O7 0.853772 0.544211 0.955094
O O8 0.848492 0.433233 0.611126
O O9 0.933033 0.141531 0.592958
O O10 0.000000 0.500000 0.500000
O O11 0.305446 0.769237 0.076068
O O12 0.208958 0.881919 0.242583
O O13 0.349959 0.703726 0.162871
O O14 0.250000 0.250000 0.500000
#
# Coordination Sequence:
#
# PCOD9285682 Si02
#       7
#     8   8   8   8   4   8   8
#     4  11  25  41  67  99 132 177 225 274 342 392
#     4  11  25  43  68  99 134 178 228 271 338 409
#     4  11  25  44  68 100 138 178 223 279 338 399
#     4  10  23  40  67  98 131 178 225 270 339 400
#     4  12  24  44  64  94 138 172 220 284 334 402
#     4  10  21  42  65  96 132 174 220 282 329 393
#     4  11  23  43  68  98 135 176 225 278 331 406
#
# _framework density 23.152901
#
# number of rings (size 3 to 8) (size 9 to 14) (size 15 to 20)
#    0.000    1.231    3.077    1.846    2.154    5.538 
#    0.000    0.000    0.000    0.000    0.000    0.000 
#    0.000    0.000    0.000    0.000    0.000    0.000 
#
# Total GULP energy -145436.462768 kJ/mol
# GULP energy per Si atom -5593.710106 kJ/mol
# Density = 2.310020 g / cm^3
# Si number density = 23.152901 Si / 1000 Ang^3
#
#
#
# Elastic Constant Matrix: (Units=GPa)
#
#
# Indices 1 2 3 4 5 6 
#
# 1 101.3243 33.4123 54.5531 0.0030 36.7045 0.0017
# 2 33.4123 85.9105 71.9362 0.0004 32.2179 0.0191
# 3 54.5531 71.9362 165.3299 0.0046 32.4214 0.0002
# 4 0.0030 0.0004 0.0046 40.6273 -0.0035 5.4038
# 5 36.7045 32.2179 32.4214 -0.0035 67.1183 0.0014
# 6 0.0017 0.0191 0.0002 5.4038 0.0014 38.5836
#
#
#
# Elastic Compliance Matrix: (Units=1/GPa)
#
#
# Indices 1 2 3 4 5 6 
#
# 1 0.013866 -0.000542 -0.003207 -0.000001 -0.005773 0.000000
# 2 -0.000542 0.020341 -0.007528 0.000002 -0.005831 -0.000010
# 3 -0.003207 -0.007528 0.010306 -0.000001 0.000389 0.000004
# 4 -0.000001 0.000002 -0.000001 0.025081 0.000002 -0.003513
# 5 -0.005773 -0.005831 0.000389 0.000002 0.020667 0.000002
# 6 0.000000 -0.000010 0.000004 -0.003513 0.000002 0.026410
#
#
# Mechanical properties :
#
#
# Convention : Reuss Voigt Hill
#
# Bulk Modulus (GPa) = 45.54083 74.70754 60.12419
# Shear Modulus (GPa) = 34.11869 42.11002 38.11436
#
# Velocity S-wave (km/s) = 3.84295 4.26934 4.06174
# Velocity P-wave (km/s) = 6.27720 7.52596 6.92977
#
# Compressibility (1/GPa) = 0.02195832
#
# Stress axis : x y z
#
# Youngs Moduli (GPa) = 72.11714 49.16073 97.02989
#
# Poissons Ratio (x) = 0.02665 0.31121
# Poissons Ratio (y) = 0.03910 0.73047
# Poissons Ratio (z) = 0.23130 0.37010
#
# Static dielectric constant tensor:
#      x y z
#    x 1.889550 0.000020 -0.030680 
#    y 0.000020 1.863160 -0.000020 
#    z -0.030680 -0.000020 1.915360 
# 
# From -- ./inp_files/256717.got.cif
#   From: 2010.05.17/outbox.cif.g08.bks.cpg/sg15_129_cif.got.tgz:256717.got - 2010.06.03 18:47:42.
