data_PCOD9285324
_publ_section_title
;
Structure prediction by ZEFSAII (Michael W. Deem and Ramdas Pophale) SiO2 
 PCOD9285324
Probable space group: C 2/C
;
_chemical_formula_sum "Si O2"
_cell_formula_units_Z 36
_cell_length_a 21.304357
_cell_length_b 13.232032
_cell_length_c 9.059127
_cell_angle_alpha 90.000000
_cell_angle_beta 141.586726
_cell_angle_gamma 90.000000
_cell_volume 1586.730514
_symmetry_space_group_name_H-M "C 2/C"
_symmetry_group_IT_number 15
_symmetry_cell_setting 'monoclinic'
loop_
_space_group_symop_operation_xyz
x,y,z
-x,y,1/2-z
-x,-y,-z
x,-y,1/2+z
1/2+x,1/2+y,z
1/2-x,1/2+y,1/2-z
1/2-x,1/2-y,-z
1/2+x,1/2-y,1/2+z
loop_
_atom_site_type_symbol
_atom_site_label
_atom_site_fract_x
_atom_site_fract_y
_atom_site_fract_z
Si Si1 0.644729 0.526167 0.820863
Si Si2 0.000000 0.145617 0.750000
Si Si3 0.584071 0.915467 0.185493
Si Si4 0.218761 0.482756 0.183829
Si Si5 0.863832 0.211604 0.250799
O O1 0.546743 0.578030 0.705453
O O2 0.687748 0.558489 0.741117
O O3 0.635401 0.404178 0.804173
O O4 0.731858 0.552400 0.100108
O O5 0.908062 0.202632 0.499689
O O6 0.648294 0.911381 0.151331
O O7 0.562112 0.798327 0.179165
O O8 0.650951 0.957436 0.442671
O O9 0.500000 0.000000 0.000000
O O10 0.750000 0.250000 0.000000
#
# Coordination Sequence:
#
# PCOD9285324 Si02
#       5
#     8   4   8   8   8
#     4  11  22  45  68  97 138 179 228 285 346 404
#     4  12  26  44  72 104 136 184 236 288 342 420
#     4  11  24  43  67 100 140 183 230 284 346 416
#     4  10  21  41  70  92 143 180 218 294 347 394
#     4  12  24  44  72 102 140 183 232 287 348 414
#
# _framework density 22.688161999999998
#
# number of rings (size 3 to 8) (size 9 to 14) (size 15 to 20)
#    0.000    0.889    6.667    1.333    3.111    0.000 
#    4.000    3.333    0.000    0.000    0.000    0.000 
#    0.000    0.000    0.000    0.000    0.000    0.000 
#
# Total GULP energy -100224.121185 kJ/mol
# GULP energy per Si atom -5568.006732 kJ/mol
# Density = 2.263652 g / cm^3
# Si number density = 22.688162 Si / 1000 Ang^3
#
#
#
# Elastic Constant Matrix: (Units=GPa)
#
#
# Indices 1 2 3 4 5 6 
#
# 1 123.2842 26.2070 23.2694 0.0000 -12.1039 0.0000
# 2 26.2070 112.9740 59.7129 0.0000 11.3173 0.0000
# 3 23.2694 59.7129 147.4331 0.0000 -15.8942 0.0000
# 4 0.0000 0.0000 0.0000 34.2913 0.0000 5.2878
# 5 -12.1039 11.3173 -15.8942 0.0000 38.2907 0.0000
# 6 0.0000 0.0000 0.0000 5.2878 0.0000 24.1106
#
#
#
# Elastic Compliance Matrix: (Units=1/GPa)
#
#
# Indices 1 2 3 4 5 6 
#
# 1 0.008980 -0.002401 -0.000065 0.000000 0.003521 0.000000
# 2 -0.002401 0.013116 -0.005687 0.000000 -0.006996 0.000000
# 3 -0.000065 -0.005687 0.009710 0.000000 0.005691 0.000000
# 4 0.000000 0.000000 0.000000 0.030183 0.000000 -0.006620
# 5 0.003521 -0.006996 0.005691 0.000000 0.031659 0.000000
# 6 0.000000 0.000000 0.000000 -0.006620 0.000000 0.042927
#
#
# Mechanical properties :
#
#
# Convention : Reuss Voigt Hill
#
# Bulk Modulus (GPa) = 64.52510 66.89665 65.71088
# Shear Modulus (GPa) = 31.63597 37.63866 34.63731
#
# Velocity S-wave (km/s) = 3.73819 4.07745 3.91150
# Velocity P-wave (km/s) = 6.86541 7.19143 7.03031
#
# Compressibility (1/GPa) = 0.01549784
#
# Stress axis : x y z
#
# Youngs Moduli (GPa) = 111.36070 76.24542 102.98726
#
# Poissons Ratio (x) = 0.18310 0.00670
# Poissons Ratio (y) = 0.26743 0.58571
# Poissons Ratio (z) = 0.00724 0.43363
#
# Static dielectric constant tensor:
#      x y z
#    x 1.931470 0.000000 0.068630 
#    y 0.000000 1.944280 0.000000 
#    z 0.068630 0.000000 1.909520 
# 
# From -- ./inp_files/55709.got.cif
#   From: 2010.05.17/outbox.cif.g08.bks.cpg/sg15_28_cif.got.tgz:55709.got - 2010.06.03 18:47:42.
