data_PCOD9285807
_publ_section_title
;
Structure prediction by ZEFSAII (Michael W. Deem and Ramdas Pophale) SiO2 
 PCOD9285807
Probable space group: C 2/C
;
_chemical_formula_sum "Si O2"
_cell_formula_units_Z 48
_cell_length_a 30.984940
_cell_length_b 10.798958
_cell_length_c 15.259127
_cell_angle_alpha 90.000000
_cell_angle_beta 154.851698
_cell_angle_gamma 90.000000
_cell_volume 2169.766523
_symmetry_space_group_name_H-M "C 2/C"
_symmetry_group_IT_number 15
_symmetry_cell_setting 'monoclinic'
loop_
_space_group_symop_operation_xyz
x,y,z
-x,y,1/2-z
-x,-y,-z
x,-y,1/2+z
1/2+x,1/2+y,z
1/2-x,1/2+y,1/2-z
1/2-x,1/2-y,-z
1/2+x,1/2-y,1/2+z
loop_
_atom_site_type_symbol
_atom_site_label
_atom_site_fract_x
_atom_site_fract_y
_atom_site_fract_z
Si Si1 0.370175 0.356290 0.577791
Si Si2 0.861359 0.580514 0.876680
Si Si3 0.358506 0.288582 0.011755
Si Si4 0.021342 0.076967 0.907335
Si Si5 0.442673 0.259640 0.877789
Si Si6 0.375388 0.201955 0.408239
O O1 0.259675 0.417724 0.366007
O O2 0.457931 0.454431 0.767651
O O3 0.389130 0.280452 0.523022
O O4 0.369482 0.262931 0.658938
O O5 0.875460 0.663474 0.989103
O O6 0.899324 0.442795 0.963200
O O7 0.914013 0.650539 0.892007
O O8 0.243790 0.290232 0.831672
O O9 0.387203 0.396255 0.992833
O O10 0.438800 0.315167 0.234868
O O11 0.063877 0.111218 0.080097
O O12 0.553943 0.248248 0.040041
#
# Coordination Sequence:
#
# PCOD9285807 Si02
#       6
#     8   8   8   8   8   8
#     4  11  23  43  68  97 122 169 223 262 307 376
#     4  10  22  45  62  93 134 164 211 260 320 377
#     4   9  21  39  67  90 120 175 210 259 311 372
#     4  10  21  42  67  90 130 160 219 261 312 369
#     4  11  24  40  63  99 131 168 204 261 326 372
#     4  11  23  40  65  95 128 167 213 258 316 379
#
# _framework density 22.122197
#
# number of rings (size 3 to 8) (size 9 to 14) (size 15 to 20)
#    0.000    1.667    1.667    2.000    4.667    0.667 
#   15.000    1.667    0.000    0.000    0.000    0.000 
#    0.000    0.000    0.000    0.000    0.000    0.000 
#
# Total GULP energy -134021.087858 kJ/mol
# GULP energy per Si atom -5584.211994 kJ/mol
# Density = 2.207185 g / cm^3
# Si number density = 22.122197 Si / 1000 Ang^3
#
#
#
# Elastic Constant Matrix: (Units=GPa)
#
#
# Indices 1 2 3 4 5 6 
#
# 1 122.5997 40.1939 26.6891 0.0000 4.6602 0.0000
# 2 40.1939 91.4406 9.5717 0.0000 5.0947 0.0000
# 3 26.6891 9.5717 76.0946 0.0000 14.9775 0.0000
# 4 0.0000 0.0000 0.0000 33.7655 0.0000 1.1430
# 5 4.6602 5.0947 14.9775 0.0000 36.0477 0.0000
# 6 0.0000 0.0000 0.0000 1.1430 0.0000 33.2730
#
#
#
# Elastic Compliance Matrix: (Units=1/GPa)
#
#
# Indices 1 2 3 4 5 6 
#
# 1 0.010195 -0.004183 -0.003165 0.000000 0.000588 0.000000
# 2 -0.004183 0.012836 0.000112 0.000000 -0.001320 0.000000
# 3 -0.003165 0.000112 0.015421 0.000000 -0.006014 0.000000
# 4 0.000000 0.000000 0.000000 0.029651 0.000000 -0.001019
# 5 0.000588 -0.001320 -0.006014 0.000000 0.030350 0.000000
# 6 0.000000 0.000000 0.000000 -0.001019 0.000000 0.030089
#
#
# Mechanical properties :
#
#
# Convention : Reuss Voigt Hill
#
# Bulk Modulus (GPa) = 41.69993 49.22715 45.46354
# Shear Modulus (GPa) = 33.11092 34.86259 33.98676
#
# Velocity S-wave (km/s) = 3.87295 3.97408 3.92384
# Velocity P-wave (km/s) = 6.23622 6.58471 6.41283
#
# Compressibility (1/GPa) = 0.02398086
#
# Stress axis : x y z
#
# Youngs Moduli (GPa) = 98.09138 77.90355 64.84519
#
# Poissons Ratio (x) = 0.32584 0.20525
# Poissons Ratio (y) = 0.41028 -0.00727
# Poissons Ratio (z) = 0.31049 -0.00874
#
# Static dielectric constant tensor:
#      x y z
#    x 1.826240 0.000000 0.003180 
#    y 0.000000 1.878920 0.000000 
#    z 0.003180 0.000000 1.807970 
# 
# From -- ./inp_files/181797.got.cif
#   From: 2010.05.17/outbox.cif.g08.bks.cpg/sg15_91_cif.got.tgz:181797.got - 2010.06.03 18:47:42.
