data_PCOD9285950
_publ_section_title
;
Structure prediction by ZEFSAII (Michael W. Deem and Ramdas Pophale) SiO2 
 PCOD9285950
Probable space group: C 2/C
;
_chemical_formula_sum "Si O2"
_cell_formula_units_Z 32
_cell_length_a 12.112507
_cell_length_b 9.934285
_cell_length_c 11.164498
_cell_angle_alpha 90.000000
_cell_angle_beta 79.918245
_cell_angle_gamma 90.000000
_cell_volume 1322.670267
_symmetry_space_group_name_H-M "C 2/C"
_symmetry_group_IT_number 15
_symmetry_cell_setting 'monoclinic'
loop_
_space_group_symop_operation_xyz
x,y,z
-x,y,1/2-z
-x,-y,-z
x,-y,1/2+z
1/2+x,1/2+y,z
1/2-x,1/2+y,1/2-z
1/2-x,1/2-y,-z
1/2+x,1/2-y,1/2+z
loop_
_atom_site_type_symbol
_atom_site_label
_atom_site_fract_x
_atom_site_fract_y
_atom_site_fract_z
Si Si1 0.026548 0.661907 0.902517
Si Si2 0.329021 0.019766 0.795160
Si Si3 0.887563 0.934074 0.569111
Si Si4 0.586735 0.259512 0.138703
O O1 0.126571 0.563997 0.842138
O O2 0.071812 0.810156 0.855972
O O3 0.913613 0.604973 0.864617
O O4 0.018280 0.681985 0.045939
O O5 0.199917 0.034596 0.854622
O O6 0.347055 0.860157 0.810336
O O7 0.842132 0.863476 0.454590
O O8 0.000000 0.000000 0.500000
O O9 0.500000 0.320599 0.250000
#
# Coordination Sequence:
#
# PCOD9285950 Si02
#       4
#     8   8   8   8
#     4   9  23  41  70 103 130 187 235 274 364 409
#     4  11  20  44  71  95 142 179 234 295 336 421
#     4  10  25  44  63 106 138 181 236 286 350 416
#     4  10  21  42  69 100 135 183 229 286 351 420
#
# _framework density 24.193483000000001
#
# number of rings (size 3 to 8) (size 9 to 14) (size 15 to 20)
#    1.500    0.500    2.500    1.500    0.000    3.000 
#    4.500    0.000    0.000    0.000    0.000    0.000 
#    0.000    0.000    0.000    0.000    0.000    0.000 
#
# Total GULP energy -89191.958710 kJ/mol
# GULP energy per Si atom -5574.497419 kJ/mol
# Density = 2.413842 g / cm^3
# Si number density = 24.193483 Si / 1000 Ang^3
#
#
#
# Elastic Constant Matrix: (Units=GPa)
#
#
# Indices 1 2 3 4 5 6 
#
# 1 138.1015 43.0170 31.7385 0.0000 -33.0347 0.0000
# 2 43.0170 73.6366 12.0474 0.0000 -14.8640 0.0000
# 3 31.7385 12.0474 101.9461 0.0000 -24.3224 0.0000
# 4 0.0000 0.0000 0.0000 36.5156 0.0000 3.6717
# 5 -33.0347 -14.8640 -24.3224 0.0000 42.1450 0.0000
# 6 0.0000 0.0000 0.0000 3.6717 0.0000 28.5857
#
#
#
# Elastic Compliance Matrix: (Units=1/GPa)
#
#
# Indices 1 2 3 4 5 6 
#
# 1 0.010371 -0.004690 -0.001310 0.000000 0.005719 0.000000
# 2 -0.004690 0.016771 0.000014 0.000000 0.002247 0.000000
# 3 -0.001310 0.000014 0.011564 0.000000 0.005652 0.000000
# 4 0.000000 0.000000 0.000000 0.027744 0.000000 -0.003564
# 5 0.005719 0.002247 0.005652 0.000000 0.032265 0.000000
# 6 0.000000 0.000000 0.000000 -0.003564 0.000000 0.035440
#
#
# Mechanical properties :
#
#
# Convention : Reuss Voigt Hill
#
# Bulk Modulus (GPa) = 37.40469 54.14332 45.77400
# Shear Modulus (GPa) = 32.25035 36.57470 34.41252
#
# Velocity S-wave (km/s) = 3.65501 3.89235 3.77555
# Velocity P-wave (km/s) = 5.77117 6.52904 6.16177
#
# Compressibility (1/GPa) = 0.02673461
#
# Stress axis : x y z
#
# Youngs Moduli (GPa) = 96.42299 59.62627 86.47781
#
# Poissons Ratio (x) = 0.27963 0.11329
# Poissons Ratio (y) = 0.45220 -0.00123
# Poissons Ratio (z) = 0.12632 -0.00085
#
# Static dielectric constant tensor:
#      x y z
#    x 2.017270 0.000000 0.021300 
#    y 0.000000 2.030150 0.000000 
#    z 0.021300 0.000000 1.966380 
# 
# From -- ./inp_files/83979.got.cif
#   From: 2010.05.17/outbox.cif.g08.bks.cpg/sg15_42_cif.got.tgz:83979.got - 2010.06.03 18:47:42.
