data_PCOD9285030
_publ_section_title
;
Structure prediction by ZEFSAII (Michael W. Deem and Ramdas Pophale) SiO2 
 PCOD9285030
Probable space group: C 2/C
;
_chemical_formula_sum "Si O2"
_cell_formula_units_Z 60
_cell_length_a 7.770568
_cell_length_b 29.774937
_cell_length_c 13.139249
_cell_angle_alpha 90.000000
_cell_angle_beta 76.422622
_cell_angle_gamma 90.000000
_cell_volume 2955.047366
_symmetry_space_group_name_H-M "C 2/C"
_symmetry_group_IT_number 15
_symmetry_cell_setting 'monoclinic'
loop_
_space_group_symop_operation_xyz
x,y,z
-x,y,1/2-z
-x,-y,-z
x,-y,1/2+z
1/2+x,1/2+y,z
1/2-x,1/2+y,1/2-z
1/2-x,1/2-y,-z
1/2+x,1/2-y,1/2+z
loop_
_atom_site_type_symbol
_atom_site_label
_atom_site_fract_x
_atom_site_fract_y
_atom_site_fract_z
Si Si1 0.367554 0.310636 0.179401
Si Si2 0.412997 0.958339 0.652481
Si Si3 0.542702 0.447836 0.480733
Si Si4 0.000000 0.742739 0.750000
Si Si5 0.653222 0.382817 0.646987
Si Si6 0.381128 0.708807 0.455134
Si Si7 0.314216 0.049606 0.571251
Si Si8 0.810139 0.914811 0.226148
O O1 0.500000 0.296056 0.250000
O O2 0.179241 0.285819 0.214863
O O3 0.330424 0.363217 0.196191
O O4 0.452864 0.303858 0.056188
O O5 0.500000 0.969322 0.750000
O O6 0.308124 0.911619 0.677953
O O7 0.547160 0.952290 0.539138
O O8 0.295686 0.000152 0.626282
O O9 0.500000 0.500000 0.500000
O O10 0.583703 0.418027 0.572063
O O11 0.360590 0.430612 0.457121
O O12 0.700128 0.442504 0.376815
O O13 0.011133 0.772643 0.850510
O O14 0.500000 0.373807 0.750000
O O15 0.703038 0.336313 0.583263
O O16 0.250000 0.750000 0.500000
O O17 0.341156 0.079014 0.668780
O O18 0.000000 0.929595 0.250000
#
# Coordination Sequence:
#
# PCOD9285030 Si02
#       8
#     8   8   8   4   8   8   8   8
#     4  10  21  41  66  96 128 167 215 274 328 404
#     4  11  25  42  57  91 133 170 216 268 321 388
#     4  11  21  37  64  91 120 170 216 255 315 383
#     4  10  22  42  68  94 128 168 214 272 346 400
#     4  12  24  40  68  92 126 174 221 272 330 396
#     4  10  22  43  67  95 130 162 217 276 341 407
#     4  10  23  39  59  86 130 168 210 269 313 374
#     4   9  20  36  59  91 122 158 214 256 311 381
#
# _framework density 20.304243
#
# number of rings (size 3 to 8) (size 9 to 14) (size 15 to 20)
#    0.000    1.600    3.333    0.800    3.733    2.667 
#    1.200    2.667    0.000    0.000    0.000    0.000 
#    0.000    0.000    0.000    0.000    0.000    0.000 
#
# Total GULP energy -167176.554372 kJ/mol
# GULP energy per Si atom -5572.551812 kJ/mol
# Density = 2.025803 g / cm^3
# Si number density = 20.304243 Si / 1000 Ang^3
#
#
#
# Elastic Constant Matrix: (Units=GPa)
#
#
# Indices 1 2 3 4 5 6 
#
# 1 44.3074 14.5339 28.8847 0.0000 4.9808 0.0000
# 2 14.5339 91.5459 42.4184 0.0000 -0.8057 0.0000
# 3 28.8847 42.4184 165.6036 0.0000 -4.0324 0.0000
# 4 0.0000 0.0000 0.0000 35.8783 0.0000 -2.8159
# 5 4.9808 -0.8057 -4.0324 0.0000 25.4736 0.0000
# 6 0.0000 0.0000 0.0000 -2.8159 0.0000 18.3000
#
#
#
# Elastic Compliance Matrix: (Units=1/GPa)
#
#
# Indices 1 2 3 4 5 6 
#
# 1 0.026757 -0.002349 -0.004211 0.000000 -0.005973 0.000000
# 2 -0.002349 0.012601 -0.002808 0.000000 0.000413 0.000000
# 3 -0.004211 -0.002808 0.007539 0.000000 0.001928 0.000000
# 4 0.000000 0.000000 0.000000 0.028213 0.000000 0.004341
# 5 -0.005973 0.000413 0.001928 0.000000 0.040742 0.000000
# 6 0.000000 0.000000 0.000000 0.004341 0.000000 0.055313
#
#
# Mechanical properties :
#
#
# Convention : Reuss Voigt Hill
#
# Bulk Modulus (GPa) = 35.50996 52.57008 44.04002
# Shear Modulus (GPa) = 25.08936 30.30502 27.69719
#
# Velocity S-wave (km/s) = 3.51902 3.86754 3.69739
# Velocity P-wave (km/s) = 5.83423 6.77431 6.32177
#
# Compressibility (1/GPa) = 0.02816111
#
# Stress axis : x y z
#
# Youngs Moduli (GPa) = 37.37399 79.35775 132.64219
#
# Poissons Ratio (x) = 0.18645 0.55849
# Poissons Ratio (y) = 0.08781 0.37244
# Poissons Ratio (z) = 0.15736 0.22282
#
# Static dielectric constant tensor:
#      x y z
#    x 1.825550 0.000000 0.075540 
#    y 0.000000 1.738970 0.000000 
#    z 0.075540 0.000000 1.865240 
# 
# From -- ./inp_files/82203.got.cif
#   From: 2010.05.17/outbox.cif.g08.bks.cpg/sg15_42_cif.got.tgz:82203.got - 2010.06.03 18:47:42.
