data_PCOD9285064
_publ_section_title
;
Structure prediction by ZEFSAII (Michael W. Deem and Ramdas Pophale) SiO2 
 PCOD9285064
Probable space group: C 2/C
;
_chemical_formula_sum "Si O2"
_cell_formula_units_Z 60
_cell_length_a 10.771660
_cell_length_b 17.593040
_cell_length_c 28.501550
_cell_angle_alpha 90.000000
_cell_angle_beta 152.644333
_cell_angle_gamma 90.000000
_cell_volume 2481.929945
_symmetry_space_group_name_H-M "C 2/C"
_symmetry_group_IT_number 15
_symmetry_cell_setting 'monoclinic'
loop_
_space_group_symop_operation_xyz
x,y,z
-x,y,1/2-z
-x,-y,-z
x,-y,1/2+z
1/2+x,1/2+y,z
1/2-x,1/2+y,1/2-z
1/2-x,1/2-y,-z
1/2+x,1/2-y,1/2+z
loop_
_atom_site_type_symbol
_atom_site_label
_atom_site_fract_x
_atom_site_fract_y
_atom_site_fract_z
Si Si1 0.500000 0.217228 0.750000
Si Si2 0.345331 0.190481 0.150667
Si Si3 0.353634 0.925293 0.509597
Si Si4 0.693574 0.029814 0.401546
Si Si5 0.897169 0.390305 0.342090
Si Si6 0.241972 0.244719 0.428064
Si Si7 0.960990 0.183730 0.840376
Si Si8 0.700558 0.921926 0.536485
O O1 0.332756 0.258468 0.652420
O O2 0.723287 0.170271 0.797197
O O3 0.500000 0.211723 0.250000
O O4 0.332990 0.099473 0.143212
O O5 0.521218 0.229279 0.168511
O O6 0.049868 0.229716 0.043763
O O7 0.376970 0.930461 0.572500
O O8 0.600967 0.931838 0.556390
O O9 0.227613 0.845705 0.453592
O O10 0.163621 0.998600 0.432430
O O11 0.510626 0.954632 0.344600
O O12 0.000000 0.000000 0.500000
O O13 0.062479 0.312224 0.389126
O O14 0.963705 0.416820 0.417106
O O15 0.600203 0.366907 0.226083
O O16 0.168695 0.161092 0.422878
#
# Coordination Sequence:
#
# PCOD9285064 Si02
#       8
#     4   8   8   8   8   8   8   8
#     4  10  26  42  68 102 136 186 228 288 356 414
#     4  12  26  43  76 105 137 184 239 291 350 428
#     4  10  23  40  69  96 135 184 225 290 357 415
#     4  11  24  45  67  99 139 180 234 292 358 419
#     4  10  23  43  67  96 142 187 224 292 355 417
#     4  11  21  44  70  99 144 183 230 297 343 426
#     4  11  24  44  68 100 137 183 234 284 361 421
#     4  10  21  41  67 100 133 179 233 286 351 417
#
# _framework density 24.174735999999999
#
# number of rings (size 3 to 8) (size 9 to 14) (size 15 to 20)
#    0.000    1.333    2.667    2.000    3.733    3.200 
#    6.000    0.000    0.000    0.000    0.000    0.000 
#    0.000    0.000    0.000    0.000    0.000    0.000 
#
# Total GULP energy -167386.961561 kJ/mol
# GULP energy per Si atom -5579.565385 kJ/mol
# Density = 2.411971 g / cm^3
# Si number density = 24.174736 Si / 1000 Ang^3
#
#
#
# Elastic Constant Matrix: (Units=GPa)
#
#
# Indices 1 2 3 4 5 6 
#
# 1 52.7210 6.7316 0.3741 0.0000 -6.8843 0.0000
# 2 6.7316 152.2381 10.5486 -0.0002 -3.3118 -0.0002
# 3 0.3741 10.5486 64.0360 0.0001 -9.6242 0.0001
# 4 0.0000 -0.0002 0.0001 29.5179 0.0002 -9.8083
# 5 -6.8843 -3.3118 -9.6242 0.0002 29.8366 0.0007
# 6 0.0000 -0.0002 0.0001 -9.8083 0.0007 30.1142
#
#
#
# Elastic Compliance Matrix: (Units=1/GPa)
#
#
# Indices 1 2 3 4 5 6 
#
# 1 0.019679 -0.000818 0.000724 0.000000 0.004683 0.000000
# 2 -0.000818 0.006683 -0.001065 0.000000 0.000210 0.000000
# 3 0.000724 -0.001065 0.016599 0.000000 0.005403 0.000000
# 4 0.000000 0.000000 0.000000 0.037989 -0.000001 0.012373
# 5 0.004683 0.000210 0.005403 -0.000001 0.036363 -0.000001
# 6 0.000000 0.000000 0.000000 0.012373 -0.000001 0.037237
#
#
# Mechanical properties :
#
#
# Convention : Reuss Voigt Hill
#
# Bulk Modulus (GPa) = 24.60477 33.81153 29.20815
# Shear Modulus (GPa) = 29.33994 34.64978 31.99486
#
# Velocity S-wave (km/s) = 3.48754 3.79001 3.64192
# Velocity P-wave (km/s) = 5.13977 5.75924 5.45830
#
# Compressibility (1/GPa) = 0.04064252
#
# Stress axis : x y z
#
# Youngs Moduli (GPa) = 50.81648 149.62949 60.24306
#
# Poissons Ratio (x) = 0.12246 -0.04360
# Poissons Ratio (y) = 0.04159 0.06414
# Poissons Ratio (z) = -0.03677 0.15930
#
# Static dielectric constant tensor:
#      x y z
#    x 1.931030 0.000000 -0.000460 
#    y 0.000000 1.944160 0.000000 
#    z -0.000460 0.000000 1.981160 
# 
# From -- ./inp_files/293559.got.cif
#   From: 2010.05.17/outbox.cif.g08.bks.cpg/sg15_147_cif.got.tgz:293559.got - 2010.06.03 18:47:42.
