data_PCOD9285486
_publ_section_title
;
Structure prediction by ZEFSAII (Michael W. Deem and Ramdas Pophale) SiO2 
 PCOD9285486
Probable space group: C 2/C
;
_chemical_formula_sum "Si O2"
_cell_formula_units_Z 40
_cell_length_a 9.651967
_cell_length_b 27.328188
_cell_length_c 16.301771
_cell_angle_alpha 90.000000
_cell_angle_beta 151.427670
_cell_angle_gamma 90.000000
_cell_volume 2056.518362
_symmetry_space_group_name_H-M "C 2/C"
_symmetry_group_IT_number 15
_symmetry_cell_setting 'monoclinic'
loop_
_space_group_symop_operation_xyz
x,y,z
-x,y,1/2-z
-x,-y,-z
x,-y,1/2+z
1/2+x,1/2+y,z
1/2-x,1/2+y,1/2-z
1/2-x,1/2-y,-z
1/2+x,1/2-y,1/2+z
loop_
_atom_site_type_symbol
_atom_site_label
_atom_site_fract_x
_atom_site_fract_y
_atom_site_fract_z
Si Si1 0.783874 0.282875 0.359566
Si Si2 0.641626 0.604006 0.404711
Si Si3 0.140058 0.211422 0.244687
Si Si4 0.150042 0.947493 0.077645
Si Si5 0.172285 0.891169 0.256155
O O1 0.500000 0.258830 0.250000
O O2 0.898642 0.244970 0.353349
O O3 0.666385 0.331961 0.254000
O O4 0.025780 0.296195 0.553296
O O5 0.500000 0.581485 0.250000
O O6 0.529971 0.660172 0.352088
O O7 0.557849 0.579901 0.446689
O O8 0.982931 0.599628 0.564941
O O9 0.000000 0.237847 0.250000
O O10 0.500000 0.951904 0.250000
O O11 0.072131 0.917341 0.120072
O O12 0.000000 0.000000 0.000000
O O13 0.000000 0.906348 0.250000
#
# Coordination Sequence:
#
# PCOD9285486 Si02
#       5
#     8   8   8   8   8
#     4  11  23  39  59  90 127 163 208 249 305 357
#     4  10  21  42  62  90 126 161 205 253 307 369
#     4  11  22  38  60  90 122 166 207 245 301 364
#     4  10  24  44  67  94 121 160 208 257 317 371
#     4  10  22  41  64  88 127 163 203 256 309 364
#
# _framework density 19.450348999999999
#
# number of rings (size 3 to 8) (size 9 to 14) (size 15 to 20)
#    0.000    1.600    4.000    1.200    2.800    3.200 
#    0.000    4.000    0.000    0.000    0.000    0.000 
#    0.000    0.000    0.000    0.000    0.000    0.000 
#
# Total GULP energy -111476.182104 kJ/mol
# GULP energy per Si atom -5573.809105 kJ/mol
# Density = 1.940608 g / cm^3
# Si number density = 19.450349 Si / 1000 Ang^3
#
#
#
# Elastic Constant Matrix: (Units=GPa)
#
#
# Indices 1 2 3 4 5 6 
#
# 1 161.4878 58.4734 55.6841 0.0000 -20.5514 0.0000
# 2 58.4734 73.9592 35.0142 0.0000 -26.3838 0.0000
# 3 55.6841 35.0142 85.6089 -0.0001 -19.9965 0.0000
# 4 0.0000 0.0000 -0.0001 29.8464 0.0000 -2.0660
# 5 -20.5514 -26.3838 -19.9965 0.0000 35.7976 0.0000
# 6 0.0000 0.0000 0.0000 -2.0660 0.0000 26.5384
#
#
#
# Elastic Compliance Matrix: (Units=1/GPa)
#
#
# Indices 1 2 3 4 5 6 
#
# 1 0.009666 -0.006172 -0.004058 0.000000 -0.001267 0.000000
# 2 -0.006172 0.024354 -0.002968 0.000000 0.012748 0.000000
# 3 -0.004058 -0.002968 0.016652 0.000000 0.004784 0.000000
# 4 0.000000 0.000000 0.000000 0.033686 0.000000 0.002622
# 5 -0.001267 0.012748 0.004784 0.000000 0.039275 0.000000
# 6 0.000000 0.000000 0.000000 0.002622 0.000000 0.037885
#
#
# Mechanical properties :
#
#
# Convention : Reuss Voigt Hill
#
# Bulk Modulus (GPa) = 41.19728 68.82212 55.00970
# Shear Modulus (GPa) = 25.50912 29.89543 27.70228
#
# Velocity S-wave (km/s) = 3.62539 3.92473 3.77803
# Velocity P-wave (km/s) = 6.22506 7.48320 6.88294
#
# Compressibility (1/GPa) = 0.02427344
#
# Stress axis : x y z
#
# Youngs Moduli (GPa) = 103.46012 41.06123 60.05147
#
# Poissons Ratio (x) = 0.25345 0.24371
# Poissons Ratio (y) = 0.63861 0.17825
# Poissons Ratio (z) = 0.41988 0.12188
#
# Static dielectric constant tensor:
#      x y z
#    x 1.755060 0.000000 0.014990 
#    y 0.000000 1.661110 0.000000 
#    z 0.014990 0.000000 1.742360 
# 
# From -- ./inp_files/25338.got.cif
#   From: 2010.05.17/outbox.cif.g08.bks.cpg/sg15_13_cif.got.tgz:25338.got - 2010.06.03 18:47:42.
