data_PCOD9285262
_publ_section_title
;
Structure prediction by ZEFSAII (Michael W. Deem and Ramdas Pophale) SiO2 
 PCOD9285262
Probable space group: C 2/C
;
_chemical_formula_sum "Si O2"
_cell_formula_units_Z 36
_cell_length_a 6.823998
_cell_length_b 12.111140
_cell_length_c 18.156516
_cell_angle_alpha 90.000000
_cell_angle_beta 116.735689
_cell_angle_gamma 90.000000
_cell_volume 1340.146602
_symmetry_space_group_name_H-M "C 2/C"
_symmetry_group_IT_number 15
_symmetry_cell_setting 'monoclinic'
loop_
_space_group_symop_operation_xyz
x,y,z
-x,y,1/2-z
-x,-y,-z
x,-y,1/2+z
1/2+x,1/2+y,z
1/2-x,1/2+y,1/2-z
1/2-x,1/2-y,-z
1/2+x,1/2-y,1/2+z
loop_
_atom_site_type_symbol
_atom_site_label
_atom_site_fract_x
_atom_site_fract_y
_atom_site_fract_z
Si Si1 0.947792 0.348297 0.946035
Si Si2 0.954749 0.871709 0.979198
Si Si3 0.914081 0.565805 0.874152
Si Si4 0.000000 0.541121 0.250000
Si Si5 0.623551 0.286465 0.693010
O O1 0.194656 0.356319 0.952633
O O2 0.818629 0.448119 0.884024
O O3 0.917870 0.216072 0.946260
O O4 0.967886 0.389433 0.033509
O O5 0.996178 0.831693 0.901976
O O6 0.000000 0.000000 0.000000
O O7 0.061624 0.533713 0.829421
O O8 0.779230 0.668736 0.818899
O O9 0.804454 0.621817 0.236342
O O10 0.500000 0.271882 0.750000
#
# Coordination Sequence:
#
# PCOD9285262 Si02
#       5
#     8   8   8   4   8
#     4   9  20  42  67  94 135 177 223 288 341 394
#     4  10  21  41  69 102 134 179 238 280 344 414
#     4  10  21  45  67  95 138 177 226 286 339 410
#     4  12  24  46  68  98 146 184 222 292 352 412
#     4  11  25  46  68 103 138 185 233 280 354 419
#
# _framework density 26.862734
#
# number of rings (size 3 to 8) (size 9 to 14) (size 15 to 20)
#    0.000    1.778    3.333    0.000    3.111    0.000 
#   10.000    3.333    0.000    0.000    0.000    0.000 
#    0.000    0.000    0.000    0.000    0.000    0.000 
#
# Total GULP energy -100506.863934 kJ/mol
# GULP energy per Si atom -5583.714663 kJ/mol
# Density = 2.680159 g / cm^3
# Si number density = 26.862734 Si / 1000 Ang^3
#
#
#
# Elastic Constant Matrix: (Units=GPa)
#
#
# Indices 1 2 3 4 5 6 
#
# 1 57.9277 34.0525 24.9301 0.0000 -24.9532 0.0000
# 2 34.0525 251.4967 80.0301 0.0000 -19.6989 0.0000
# 3 24.9301 80.0301 165.9753 0.0000 -38.3810 0.0000
# 4 0.0000 0.0000 0.0000 175.3078 0.0000 46.3283
# 5 -24.9532 -19.6989 -38.3810 0.0000 39.3851 0.0000
# 6 0.0000 0.0000 0.0000 46.3283 0.0000 65.8975
#
#
#
# Elastic Compliance Matrix: (Units=1/GPa)
#
#
# Indices 1 2 3 4 5 6 
#
# 1 0.025008 -0.002500 0.001064 0.000000 0.015630 0.000000
# 2 -0.002500 0.004948 -0.002329 0.000000 -0.001379 0.000000
# 3 0.001064 -0.002329 0.008875 0.000000 0.008157 0.000000
# 4 0.000000 0.000000 0.000000 0.007006 0.000000 -0.004925
# 5 0.015630 -0.001379 0.008157 0.000000 0.042553 0.000000
# 6 0.000000 0.000000 0.000000 -0.004925 0.000000 0.018638
#
#
# Mechanical properties :
#
#
# Convention : Reuss Voigt Hill
#
# Bulk Modulus (GPa) = 31.94989 83.71389 57.83189
# Shear Modulus (GPa) = 40.00281 78.54387 59.27334
#
# Velocity S-wave (km/s) = 3.86315 5.41317 4.70246
# Velocity P-wave (km/s) = 5.64075 8.38458 7.14560
#
# Compressibility (1/GPa) = 0.03129902
#
# Stress axis : x y z
#
# Youngs Moduli (GPa) = 39.98749 202.10694 112.68062
#
# Poissons Ratio (x) = 0.50532 -0.11986
# Poissons Ratio (y) = 0.09998 0.26245
# Poissons Ratio (z) = -0.04254 0.47073
#
# Static dielectric constant tensor:
#      x y z
#    x 2.442190 0.000000 0.029980 
#    y 0.000000 2.068670 0.000000 
#    z 0.029980 0.000000 2.112330 
# 
# From -- ./inp_files/187659.got.cif
#   From: 2010.05.17/outbox.cif.g08.bks.cpg/sg15_94_cif.got.tgz:187659.got - 2010.06.03 18:47:42.
