data_PCOD9285975
_publ_section_title
;
Structure prediction by ZEFSAII (Michael W. Deem and Ramdas Pophale) SiO2 
 PCOD9285975
Probable space group: C 2/C
;
_chemical_formula_sum "Si O2"
_cell_formula_units_Z 56
_cell_length_a 13.398344
_cell_length_b 12.871909
_cell_length_c 13.585626
_cell_angle_alpha 90.000000
_cell_angle_beta 93.952530
_cell_angle_gamma 90.000000
_cell_volume 2337.434987
_symmetry_space_group_name_H-M "C 2/C"
_symmetry_group_IT_number 15
_symmetry_cell_setting 'monoclinic'
loop_
_space_group_symop_operation_xyz
x,y,z
-x,y,1/2-z
-x,-y,-z
x,-y,1/2+z
1/2+x,1/2+y,z
1/2-x,1/2+y,1/2-z
1/2-x,1/2-y,-z
1/2+x,1/2-y,1/2+z
loop_
_atom_site_type_symbol
_atom_site_label
_atom_site_fract_x
_atom_site_fract_y
_atom_site_fract_z
Si Si1 0.685471 0.266899 0.636641
Si Si2 0.376498 0.334851 0.077252
Si Si3 0.631353 0.431495 0.922976
Si Si4 0.790770 0.558394 0.270958
Si Si5 0.000000 0.219948 0.750000
Si Si6 0.813445 0.124018 0.856291
Si Si7 0.500000 0.031892 0.750000
Si Si8 0.894518 0.283017 0.163956
O O1 0.629207 0.312464 0.538856
O O2 0.760848 0.178790 0.602794
O O3 0.755954 0.348719 0.697861
O O4 0.613149 0.230668 0.718268
O O5 0.412148 0.453164 0.100025
O O6 0.444012 0.252832 0.142353
O O7 0.737331 0.430191 0.872277
O O8 0.575870 0.328374 0.879062
O O9 0.644408 0.420256 0.039756
O O10 0.739550 0.461733 0.213641
O O11 0.908981 0.539260 0.281779
O O12 0.098421 0.170165 0.704116
O O13 0.720679 0.198937 0.877068
O O14 0.546613 0.107610 0.838358
#
# Coordination Sequence:
#
# PCOD9285975 Si02
#       8
#     8   8   8   8   4   8   4   8
#     4  10  21  42  69  93 138 185 228 279 358 401
#     4  11  22  39  67  98 134 181 228 283 339 419
#     4  11  22  41  69  96 136 180 224 280 363 407
#     4  10  21  43  67 100 134 185 226 291 340 414
#     4  12  24  40  64 100 138 172 228 298 334 416
#     4  11  22  43  64  95 138 174 228 288 348 412
#     4  10  22  42  74  96 140 180 240 278 342 416
#     4  10  22  42  67  97 136 185 221 293 349 415
#
# _framework density 23.957885999999998
#
# number of rings (size 3 to 8) (size 9 to 14) (size 15 to 20)
#    0.000    1.429    4.286    1.286    0.000    2.857 
#    0.000    2.857    0.000    0.000    0.000    0.000 
#    0.000    0.000    0.000    0.000    0.000    0.000 
#
# Total GULP energy -156207.984832 kJ/mol
# GULP energy per Si atom -5578.856601 kJ/mol
# Density = 2.390336 g / cm^3
# Si number density = 23.957886 Si / 1000 Ang^3
#
#
#
# Elastic Constant Matrix: (Units=GPa)
#
#
# Indices 1 2 3 4 5 6 
#
# 1 118.1535 6.0493 24.4872 0.0000 -4.5906 0.0000
# 2 6.0493 60.0426 2.1936 0.0000 0.0436 0.0000
# 3 24.4872 2.1936 125.4319 0.0000 -6.2187 0.0000
# 4 0.0000 0.0000 0.0000 30.0190 0.0000 8.8604
# 5 -4.5906 0.0436 -6.2187 0.0000 20.9965 0.0000
# 6 0.0000 0.0000 0.0000 8.8604 0.0000 37.5117
#
#
#
# Elastic Compliance Matrix: (Units=1/GPa)
#
#
# Indices 1 2 3 4 5 6 
#
# 1 0.008905 -0.000838 -0.001652 0.000000 0.001460 0.000000
# 2 -0.000838 0.016745 -0.000142 0.000000 -0.000260 0.000000
# 3 -0.001652 -0.000142 0.008403 0.000000 0.002128 0.000000
# 4 0.000000 0.000000 0.000000 0.035809 0.000000 -0.008458
# 5 0.001460 -0.000260 0.002128 0.000000 0.048577 0.000000
# 6 0.000000 0.000000 0.000000 -0.008458 0.000000 0.028656
#
#
# Mechanical properties :
#
#
# Convention : Reuss Voigt Hill
#
# Bulk Modulus (GPa) = 34.73463 41.00982 37.87223
# Shear Modulus (GPa) = 30.87287 35.76531 33.31909
#
# Velocity S-wave (km/s) = 3.59365 3.86792 3.73330
# Velocity P-wave (km/s) = 5.63460 6.09117 5.86733
#
# Compressibility (1/GPa) = 0.02878971
#
# Stress axis : x y z
#
# Youngs Moduli (GPa) = 112.29073 59.72055 119.00720
#
# Poissons Ratio (x) = 0.05004 0.19654
# Poissons Ratio (y) = 0.09409 0.01692
# Poissons Ratio (z) = 0.18545 0.00849
#
# Static dielectric constant tensor:
#      x y z
#    x 1.987550 0.000000 0.001360 
#    y 0.000000 2.044120 0.000000 
#    z 0.001360 0.000000 1.865820 
# 
# From -- ./inp_files/144283.got.cif
#   From: 2010.05.17/outbox.cif.g08.bks.cpg/sg15_73_cif.got.tgz:144283.got - 2010.06.03 18:47:42.
