data_PCOD9285522
_publ_section_title
;
Structure prediction by ZEFSAII (Michael W. Deem and Ramdas Pophale) SiO2 
 PCOD9285522
Probable space group: C 2/C
;
_chemical_formula_sum "Si O2"
_cell_formula_units_Z 56
_cell_length_a 25.409664
_cell_length_b 17.747936
_cell_length_c 9.836403
_cell_angle_alpha 90.000000
_cell_angle_beta 41.059604
_cell_angle_gamma 90.000000
_cell_volume 2913.702366
_symmetry_space_group_name_H-M "C 2/C"
_symmetry_group_IT_number 15
_symmetry_cell_setting 'monoclinic'
loop_
_space_group_symop_operation_xyz
x,y,z
-x,y,1/2-z
-x,-y,-z
x,-y,1/2+z
1/2+x,1/2+y,z
1/2-x,1/2+y,1/2-z
1/2-x,1/2-y,-z
1/2+x,1/2-y,1/2+z
loop_
_atom_site_type_symbol
_atom_site_label
_atom_site_fract_x
_atom_site_fract_y
_atom_site_fract_z
Si Si1 0.266373 0.542883 0.251515
Si Si2 0.357323 0.924607 0.063500
Si Si3 0.025302 0.580922 0.389604
Si Si4 0.969437 0.717689 0.657906
Si Si5 0.792055 0.330167 0.431789
Si Si6 0.867133 0.024326 0.789163
Si Si7 0.982663 0.111587 0.121829
O O1 0.185133 0.505773 0.350337
O O2 0.249429 0.615287 0.377499
O O3 0.307005 0.484304 0.278999
O O4 0.324377 0.552285 0.009552
O O5 0.300977 0.870986 0.266144
O O6 0.386985 0.919516 0.849724
O O7 0.444659 0.909676 0.956854
O O8 0.000000 0.500000 0.500000
O O9 0.024654 0.654137 0.484281
O O10 0.880496 0.685701 0.816738
O O11 0.970157 0.802563 0.599043
O O12 0.000000 0.725569 0.750000
O O13 0.750000 0.250000 0.500000
O O14 0.940680 0.077217 0.603591
O O15 0.907026 0.942200 0.738972
O O16 0.000000 0.108482 0.250000
#
# Coordination Sequence:
#
# PCOD9285522 Si02
#       7
#     8   8   8   8   8   8   8
#     4  12  23  40  64  95 129 167 215 265 322 387
#     4  10  22  38  60  85 123 161 211 258 308 384
#     4  10  22  38  60  86 120 163 211 263 312 380
#     4  10  23  38  63  90 125 167 215 265 326 382
#     4  11  24  41  61  93 131 172 208 269 335 387
#     4  11  23  38  67  95 123 172 215 259 321 384
#     4  10  21  42  63  91 128 164 213 269 317 383
#
# _framework density 19.219533999999999
#
# number of rings (size 3 to 8) (size 9 to 14) (size 15 to 20)
#    0.000    1.429    2.857    2.571    4.000    1.143 
#    0.000    2.857    0.000    4.286    0.000    0.000 
#    0.000    0.000    0.000    0.000    0.000    0.000 
#
# Total GULP energy -155913.082782 kJ/mol
# GULP energy per Si atom -5568.324385 kJ/mol
# Density = 1.917579 g / cm^3
# Si number density = 19.219534 Si / 1000 Ang^3
#
#
#
# Elastic Constant Matrix: (Units=GPa)
#
#
# Indices 1 2 3 4 5 6 
#
# 1 30.3270 1.3657 12.5851 0.0000 5.1260 0.0000
# 2 1.3657 127.3940 76.7161 0.0000 7.2440 0.0000
# 3 12.5851 76.7161 177.1424 0.0000 8.3482 0.0000
# 4 0.0000 0.0000 0.0000 22.1683 0.0000 2.3925
# 5 5.1260 7.2440 8.3482 0.0000 16.8607 0.0000
# 6 0.0000 0.0000 0.0000 2.3925 0.0000 28.4082
#
#
#
# Elastic Compliance Matrix: (Units=1/GPa)
#
#
# Indices 1 2 3 4 5 6 
#
# 1 0.035832 0.001951 -0.002905 0.000000 -0.010293 0.000000
# 2 0.001951 0.010816 -0.004685 0.000000 -0.002920 0.000000
# 3 -0.002905 -0.004685 0.007929 0.000000 -0.001030 0.000000
# 4 0.000000 0.000000 0.000000 0.045523 0.000000 -0.003834
# 5 -0.010293 -0.002920 -0.001030 0.000000 0.064204 0.000000
# 6 0.000000 0.000000 0.000000 -0.003834 0.000000 0.035524
#
#
# Mechanical properties :
#
#
# Convention : Reuss Voigt Hill
#
# Bulk Modulus (GPa) = 23.09613 57.35524 40.22569
# Shear Modulus (GPa) = 22.16903 29.76718 25.96810
#
# Velocity S-wave (km/s) = 3.39995 3.93975 3.67976
# Velocity P-wave (km/s) = 5.23985 7.11354 6.24734
#
# Compressibility (1/GPa) = 0.04329730
#
# Stress axis : x y z
#
# Youngs Moduli (GPa) = 27.90835 92.45370 126.11655
#
# Poissons Ratio (x) = -0.18036 0.36642
# Poissons Ratio (y) = -0.05444 0.59088
# Poissons Ratio (z) = 0.08109 0.43317
#
# Static dielectric constant tensor:
#      x y z
#    x 1.782900 0.000000 0.193490 
#    y 0.000000 1.611040 0.000000 
#    z 0.193490 0.000000 2.062700 
# 
# From -- ./inp_files/67108.got.cif
#   From: 2010.05.17/outbox.cif.g08.bks.cpg/sg15_34_cif.got.tgz:67108.got - 2010.06.03 18:47:42.
