data_PCOD9285040
_publ_section_title
;
Structure prediction by ZEFSAII (Michael W. Deem and Ramdas Pophale) SiO2 
 PCOD9285040
Probable space group: C 2/C
;
_chemical_formula_sum "Si O2"
_cell_formula_units_Z 60
_cell_length_a 9.005245
_cell_length_b 17.857400
_cell_length_c 20.801210
_cell_angle_alpha 90.000000
_cell_angle_beta 115.270484
_cell_angle_gamma 90.000000
_cell_volume 3024.935577
_symmetry_space_group_name_H-M "C 2/C"
_symmetry_group_IT_number 15
_symmetry_cell_setting 'monoclinic'
loop_
_space_group_symop_operation_xyz
x,y,z
-x,y,1/2-z
-x,-y,-z
x,-y,1/2+z
1/2+x,1/2+y,z
1/2-x,1/2+y,1/2-z
1/2-x,1/2-y,-z
1/2+x,1/2-y,1/2+z
loop_
_atom_site_type_symbol
_atom_site_label
_atom_site_fract_x
_atom_site_fract_y
_atom_site_fract_z
Si Si1 0.707092 0.617158 0.345206
Si Si2 0.161207 0.170137 0.990252
Si Si3 0.142945 0.510483 0.329484
Si Si4 0.669313 0.761805 0.249631
Si Si5 0.459205 0.943808 0.549576
Si Si6 0.398764 0.614044 0.840479
Si Si7 0.500000 0.493999 0.250000
Si Si8 0.891130 0.850129 0.871292
O O1 0.709217 0.691105 0.302563
O O2 0.655364 0.548602 0.289113
O O3 0.559319 0.622150 0.369270
O O4 0.880336 0.606615 0.410185
O O5 0.299544 0.106247 0.006696
O O6 0.092927 0.163919 0.050167
O O7 0.250000 0.250000 0.000000
O O8 0.017647 0.154297 0.912874
O O9 0.070332 0.515846 0.387645
O O10 0.262682 0.439122 0.348073
O O11 0.250916 0.586167 0.338447
O O12 0.000000 0.505878 0.250000
O O13 0.500000 0.791743 0.250000
O O14 0.806119 0.824257 0.280819
O O15 0.651585 0.725542 0.175958
O O16 0.500000 0.000000 0.500000
O O17 0.492808 0.557955 0.810654
#
# Coordination Sequence:
#
# PCOD9285040 Si02
#       8
#     8   8   8   8   8   8   4   8
#     4  11  20  44  68  95 126 176 223 268 327 404
#     4  11  27  46  61  97 134 178 221 272 340 406
#     4  11  23  42  67 101 131 171 223 279 332 398
#     4  10  21  41  66  97 123 169 222 271 330 400
#     4  11  25  41  67  94 134 172 222 266 331 407
#     4  12  25  40  66  98 137 168 221 290 338 387
#     4  12  22  40  70  98 130 170 228 280 334 390
#     4  10  22  43  73  89 133 181 222 266 335 412
#
# _framework density 19.835132999999999
#
# number of rings (size 3 to 8) (size 9 to 14) (size 15 to 20)
#    0.000    1.067    3.333    3.600    3.733    2.133 
#    4.800    3.333    0.000    0.000    0.000    0.000 
#    0.000    0.000    0.000    0.000    0.000    0.000 
#
# Total GULP energy -167719.147019 kJ/mol
# GULP energy per Si atom -5590.638234 kJ/mol
# Density = 1.978999 g / cm^3
# Si number density = 19.835133 Si / 1000 Ang^3
#
#
#
# Elastic Constant Matrix: (Units=GPa)
#
#
# Indices 1 2 3 4 5 6 
#
# 1 52.6092 9.3820 23.0794 0.0000 -8.6858 0.0000
# 2 9.3820 66.0379 14.4940 0.0000 -7.0243 0.0000
# 3 23.0794 14.4940 70.7786 0.0000 -8.0655 0.0000
# 4 0.0000 0.0000 0.0000 18.4919 0.0000 -0.0110
# 5 -8.6858 -7.0243 -8.0655 0.0000 43.4628 0.0000
# 6 0.0000 0.0000 0.0000 -0.0110 0.0000 10.0760
#
#
#
# Elastic Compliance Matrix: (Units=1/GPa)
#
#
# Indices 1 2 3 4 5 6 
#
# 1 0.022738 -0.001418 -0.006776 0.000000 0.003058 0.000000
# 2 -0.001418 0.016116 -0.002629 0.000000 0.001833 0.000000
# 3 -0.006776 -0.002629 0.017034 0.000000 0.001382 0.000000
# 4 0.000000 0.000000 0.000000 0.054078 0.000000 0.000059
# 5 0.003058 0.001833 0.001382 0.000000 0.024172 0.000000
# 6 0.000000 0.000000 0.000000 0.000059 0.000000 0.099246
#
#
# Mechanical properties :
#
#
# Convention : Reuss Voigt Hill
#
# Bulk Modulus (GPa) = 29.20305 31.48181 30.34243
# Shear Modulus (GPa) = 18.76567 23.90415 21.33491
#
# Velocity S-wave (km/s) = 3.07918 3.47528 3.28321
# Velocity P-wave (km/s) = 5.23418 5.65771 5.45006
#
# Compressibility (1/GPa) = 0.03424299
#
# Stress axis : x y z
#
# Youngs Moduli (GPa) = 43.97881 62.04893 58.70674
#
# Poissons Ratio (x) = 0.08799 0.39778
# Poissons Ratio (y) = 0.06236 0.15434
# Poissons Ratio (z) = 0.29799 0.16312
#
# Static dielectric constant tensor:
#      x y z
#    x 1.709170 0.000000 -0.008640 
#    y 0.000000 1.682830 0.000000 
#    z -0.008640 0.000000 1.664780 
# 
# From -- ./inp_files/232755.got.cif
#   From: 2010.05.17/outbox.cif.g08.bks.cpg/sg15_117_cif.got.tgz:232755.got - 2010.06.03 18:47:42.
