data_PCOD9285980
_publ_section_title
;
Structure prediction by ZEFSAII (Michael W. Deem and Ramdas Pophale) SiO2 
 PCOD9285980
Probable space group: C 2/C
;
_chemical_formula_sum "Si O2"
_cell_formula_units_Z 44
_cell_length_a 5.842693
_cell_length_b 25.411946
_cell_length_c 15.385779
_cell_angle_alpha 90.000000
_cell_angle_beta 125.201539
_cell_angle_gamma 90.000000
_cell_volume 1866.643255
_symmetry_space_group_name_H-M "C 2/C"
_symmetry_group_IT_number 15
_symmetry_cell_setting 'monoclinic'
loop_
_space_group_symop_operation_xyz
x,y,z
-x,y,1/2-z
-x,-y,-z
x,-y,1/2+z
1/2+x,1/2+y,z
1/2-x,1/2+y,1/2-z
1/2-x,1/2-y,-z
1/2+x,1/2-y,1/2+z
loop_
_atom_site_type_symbol
_atom_site_label
_atom_site_fract_x
_atom_site_fract_y
_atom_site_fract_z
Si Si1 0.476623 0.789679 0.347725
Si Si2 0.906373 0.098760 0.426199
Si Si3 0.500000 0.594959 0.250000
Si Si4 0.870707 0.209260 0.457928
Si Si5 0.518458 0.986091 0.605544
Si Si6 0.513785 0.099163 0.650761
O O1 0.500000 0.783023 0.250000
O O2 0.333367 0.739488 0.358999
O O3 0.346250 0.846092 0.349332
O O4 0.796169 0.794029 0.451630
O O5 0.924868 0.117305 0.329225
O O6 0.759805 0.149602 0.438827
O O7 0.751481 0.042953 0.409674
O O8 0.213076 0.093692 0.536906
O O9 0.756629 0.558416 0.331258
O O10 0.750000 0.250000 0.500000
O O11 0.500000 0.000000 0.500000
O O12 0.631006 0.040641 0.669354
O O13 0.500000 0.108708 0.750000
#
# Coordination Sequence:
#
# PCOD9285980 Si02
#       6
#     8   8   4   8   8   8
#     4   9  21  42  63  95 126 165 214 270 330 380
#     4  11  25  44  66 101 134 177 224 273 340 400
#     4  12  26  46  66 100 136 178 218 276 334 404
#     4  10  23  41  67  91 131 168 221 269 325 395
#     4  12  26  42  68  98 137 174 224 272 337 400
#     4  10  21  42  69  94 132 169 218 276 326 400
#
# _framework density 23.571726000000002
#
# number of rings (size 3 to 8) (size 9 to 14) (size 15 to 20)
#    0.000    1.455    1.818    2.182    6.364    2.182 
#    3.273    0.000    0.000    0.000    0.000    0.000 
#    0.000    0.000    0.000    0.000    0.000    0.000 
#
# Total GULP energy -122624.738316 kJ/mol
# GULP energy per Si atom -5573.851742 kJ/mol
# Density = 2.351808 g / cm^3
# Si number density = 23.571726 Si / 1000 Ang^3
#
#
#
# Elastic Constant Matrix: (Units=GPa)
#
#
# Indices 1 2 3 4 5 6 
#
# 1 36.5245 16.7742 13.3686 0.0000 -9.2823 0.0000
# 2 16.7742 143.2579 2.7529 0.0000 -13.5522 0.0000
# 3 13.3686 2.7529 100.7416 0.0000 -25.2793 0.0000
# 4 0.0000 0.0000 0.0000 -9.2640 0.0000 -13.0206
# 5 -9.2823 -13.5522 -25.2793 0.0000 39.7250 0.0000
# 6 0.0000 0.0000 0.0000 -13.0206 0.0000 8.5168
#
#
#
# Elastic Compliance Matrix: (Units=1/GPa)
#
#
# Indices 1 2 3 4 5 6 
#
# 1 0.031003 -0.003168 -0.002952 0.000000 0.004285 0.000000
# 2 -0.003168 0.007558 0.000803 0.000000 0.002349 0.000000
# 3 -0.002952 0.000803 0.012129 0.000000 0.007302 0.000000
# 4 0.000000 0.000000 0.000000 -0.034282 0.000000 -0.052410
# 5 0.004285 0.002349 0.007302 0.000000 0.031623 0.000000
# 6 0.000000 0.000000 0.000000 -0.052410 0.000000 0.037289
#
#
# Mechanical properties :
#
#
# Convention : Reuss Voigt Hill
#
# Bulk Modulus (GPa) = 24.96514 38.47950 31.72232
# Shear Modulus (GPa) = 45.74291 24.30413 35.02352
#
# Velocity S-wave (km/s) = 4.40998 3.21451 3.85883
# Velocity P-wave (km/s) = 6.04523 5.48975 5.77417
#
# Compressibility (1/GPa) = 0.04005586
#
# Stress axis : x y z
#
# Youngs Moduli (GPa) = 32.25452 132.30664 82.44963
#
# Poissons Ratio (x) = 0.41917 0.24343
# Poissons Ratio (y) = 0.10219 -0.06624
# Poissons Ratio (z) = 0.09523 -0.10630
#
# Static dielectric constant tensor:
#      x y z
#    x 2.090060 0.000000 -0.106430 
#    y 0.000000 1.988450 0.000000 
#    z -0.106430 0.000000 1.917530 
# 
# From -- ./inp_files/129738.got.cif
#   From: 2010.05.17/outbox.cif.g08.bks.cpg/sg15_65_cif.got.tgz:129738.got - 2010.06.03 18:47:42.
