data_PCOD9285163
_publ_section_title
;
Structure prediction by ZEFSAII (Michael W. Deem and Ramdas Pophale) SiO2 
 PCOD9285163
Probable space group: C 2/C
;
_chemical_formula_sum "Si O2"
_cell_formula_units_Z 40
_cell_length_a 14.391967
_cell_length_b 13.891530
_cell_length_c 9.611150
_cell_angle_alpha 90.000000
_cell_angle_beta 47.281020
_cell_angle_gamma 90.000000
_cell_volume 1411.723563
_symmetry_space_group_name_H-M "C 2/C"
_symmetry_group_IT_number 15
_symmetry_cell_setting 'monoclinic'
loop_
_space_group_symop_operation_xyz
x,y,z
-x,y,1/2-z
-x,-y,-z
x,-y,1/2+z
1/2+x,1/2+y,z
1/2-x,1/2+y,1/2-z
1/2-x,1/2-y,-z
1/2+x,1/2-y,1/2+z
loop_
_atom_site_type_symbol
_atom_site_label
_atom_site_fract_x
_atom_site_fract_y
_atom_site_fract_z
Si Si1 0.558501 0.194271 0.839425
Si Si2 0.978494 0.869908 0.056890
Si Si3 0.715543 0.360421 0.029576
Si Si4 0.808024 0.509717 0.765601
Si Si5 0.320722 0.607065 0.342834
O O1 0.500000 0.171726 0.750000
O O2 0.465653 0.258364 0.025852
O O3 0.596173 0.094205 0.868515
O O4 0.165318 0.222395 0.199121
O O5 0.039815 0.922353 0.860502
O O6 0.096310 0.873039 0.045135
O O7 0.846620 0.893805 0.262129
O O8 0.750000 0.250000 0.000000
O O9 0.828614 0.425536 0.859275
O O10 0.775647 0.442927 0.665820
O O11 0.713449 0.574181 0.966691
#
# Coordination Sequence:
#
# PCOD9285163 Si02
#       5
#     8   8   8   8   8
#     4  10  23  46  68 103 146 191 235 303 365 437
#     4   8  21  43  64  95 143 186 230 287 369 426
#     4  10  21  41  68 100 139 187 236 303 360 430
#     4  11  23  42  74 105 140 193 250 287 366 438
#     4   9  23  43  69 102 145 188 236 298 361 440
#
# _framework density 28.334161999999999
#
# number of rings (size 3 to 8) (size 9 to 14) (size 15 to 20)
#    1.200    1.200    0.000    0.600    2.800    5.600 
#   10.800    2.000    0.000    0.000    0.000    0.000 
#    0.000    0.000    0.000    0.000    0.000    0.000 
#
# Total GULP energy -111630.504716 kJ/mol
# GULP energy per Si atom -5581.525236 kJ/mol
# Density = 2.826967 g / cm^3
# Si number density = 28.334162 Si / 1000 Ang^3
#
#
#
# Elastic Constant Matrix: (Units=GPa)
#
#
# Indices 1 2 3 4 5 6 
#
# 1 114.0222 31.1621 8.3256 0.0000 23.3385 0.0000
# 2 31.1621 196.6798 -6.7806 0.0000 -20.9807 0.0000
# 3 8.3256 -6.7806 102.1819 0.0000 23.6856 0.0000
# 4 0.0000 0.0000 0.0000 33.7018 0.0000 3.3529
# 5 23.3385 -20.9807 23.6856 0.0000 33.2374 0.0000
# 6 0.0000 0.0000 0.0000 3.3529 0.0000 31.2590
#
#
#
# Elastic Compliance Matrix: (Units=1/GPa)
#
#
# Indices 1 2 3 4 5 6 
#
# 1 0.011780 -0.003011 0.001435 0.000000 -0.011195 0.000000
# 2 -0.003011 0.006245 -0.000891 0.000000 0.006691 0.000000
# 3 0.001435 -0.000891 0.011948 0.000000 -0.010085 0.000000
# 4 0.000000 0.000000 0.000000 0.029992 0.000000 -0.003217
# 5 -0.011195 0.006691 -0.010085 0.000000 0.049358 0.000000
# 6 0.000000 0.000000 0.000000 -0.003217 0.000000 0.032336
#
#
# Mechanical properties :
#
#
# Convention : Reuss Voigt Hill
#
# Bulk Modulus (GPa) = 39.93881 53.14424 46.54152
# Shear Modulus (GPa) = 32.27083 44.98478 38.62781
#
# Velocity S-wave (km/s) = 3.37848 3.98886 3.69629
# Velocity P-wave (km/s) = 5.41711 6.32547 5.88883
#
# Compressibility (1/GPa) = 0.02503830
#
# Stress axis : x y z
#
# Youngs Moduli (GPa) = 84.89086 160.13930 83.69570
#
# Poissons Ratio (x) = 0.48221 -0.12014
# Poissons Ratio (y) = 0.25562 0.07460
# Poissons Ratio (z) = -0.12185 0.14274
#
# Static dielectric constant tensor:
#      x y z
#    x 2.337560 0.000000 -0.029350 
#    y 0.000000 2.275960 0.000000 
#    z -0.029350 0.000000 2.370700 
# 
# From -- ./inp_files/105152.got.cif
#   From: 2010.05.17/outbox.cif.g08.bks.cpg/sg15_53_cif.got.tgz:105152.got - 2010.06.03 18:47:42.
