data_PCOD9285618
_publ_section_title
;
Structure prediction by ZEFSAII (Michael W. Deem and Ramdas Pophale) SiO2 
 PCOD9285618
Probable space group: C 2/C
;
_chemical_formula_sum "Si O2"
_cell_formula_units_Z 56
_cell_length_a 26.947839
_cell_length_b 10.195576
_cell_length_c 9.958332
_cell_angle_alpha 90.000000
_cell_angle_beta 122.583571
_cell_angle_gamma 90.000000
_cell_volume 2305.405350
_symmetry_space_group_name_H-M "C 2/C"
_symmetry_group_IT_number 15
_symmetry_cell_setting 'monoclinic'
loop_
_space_group_symop_operation_xyz
x,y,z
-x,y,1/2-z
-x,-y,-z
x,-y,1/2+z
1/2+x,1/2+y,z
1/2-x,1/2+y,1/2-z
1/2-x,1/2-y,-z
1/2+x,1/2-y,1/2+z
loop_
_atom_site_type_symbol
_atom_site_label
_atom_site_fract_x
_atom_site_fract_y
_atom_site_fract_z
Si Si1 0.614732 0.140920 0.310386
Si Si2 0.000000 0.296268 0.250000
Si Si3 0.901174 0.480333 0.976266
Si Si4 0.500000 0.744840 0.750000
Si Si5 0.766445 0.974676 0.306951
Si Si6 0.571888 0.266751 0.601658
Si Si7 0.709470 0.728743 0.311856
Si Si8 0.801733 0.857728 0.094905
O O1 0.632340 0.027638 0.439143
O O2 0.545800 0.164103 0.234449
O O3 0.642907 0.280417 0.381286
O O4 0.631425 0.101152 0.185609
O O5 0.046599 0.388303 0.394800
O O6 0.035326 0.218965 0.185440
O O7 0.924305 0.611624 0.934776
O O8 0.462488 0.673222 0.577898
O O9 0.750000 0.750000 0.500000
O O10 0.713894 0.871663 0.248387
O O11 0.790090 0.014985 0.487510
O O12 0.807186 0.899498 0.257586
O O13 0.640245 0.305004 0.722516
O O14 0.741021 0.616257 0.271426
O O15 0.750000 0.750000 0.000000
#
# Coordination Sequence:
#
# PCOD9285618 Si02
#       8
#     8   4   8   4   8   8   8   8
#     4  11  24  39  65 104 145 201 247 307 385 448
#     4  12  21  38  62 111 150 198 241 319 388 456
#     4  11  21  36  62  98 153 190 241 309 375 452
#     4  10  21  42  64  97 152 190 247 313 378 456
#     4  12  26  51  75 107 154 195 256 312 385 439
#     4  11  24  39  68 103 150 190 250 308 390 446
#     4  12  28  50  79 114 152 204 256 319 378 461
#     4  12  28  46  73 108 146 198 253 308 381 458
#
# _framework density 24.290738000000001
#
# number of rings (size 3 to 8) (size 9 to 14) (size 15 to 20)
#    0.000    0.571    5.714    3.857    2.000    2.286 
#    0.000    0.000    0.000    4.286    0.000    0.000 
#    0.000    0.000    0.000    0.000    0.000    0.000 
#
# Total GULP energy -156508.083090 kJ/mol
# GULP energy per Si atom -5589.574396 kJ/mol
# Density = 2.423545 g / cm^3
# Si number density = 24.290738 Si / 1000 Ang^3
#
#
#
# Elastic Constant Matrix: (Units=GPa)
#
#
# Indices 1 2 3 4 5 6 
#
# 1 131.7796 35.5569 67.3075 0.0000 -7.5190 0.0000
# 2 35.5569 79.4125 18.6053 0.0000 4.9062 0.0000
# 3 67.3075 18.6053 144.8970 0.0000 -7.4371 0.0000
# 4 0.0000 0.0000 0.0000 36.5411 0.0000 -6.9216
# 5 -7.5190 4.9062 -7.4371 0.0000 38.3861 0.0000
# 6 0.0000 0.0000 0.0000 -6.9216 0.0000 35.9247
#
#
#
# Elastic Compliance Matrix: (Units=1/GPa)
#
#
# Indices 1 2 3 4 5 6 
#
# 1 0.011097 -0.004015 -0.004547 0.000000 0.001806 0.000000
# 2 -0.004015 0.014590 -0.000146 0.000000 -0.002679 0.000000
# 3 -0.004547 -0.000146 0.009078 0.000000 0.000887 0.000000
# 4 0.000000 0.000000 0.000000 0.028403 0.000000 0.005472
# 5 0.001806 -0.002679 0.000887 0.000000 0.026919 0.000000
# 6 0.000000 0.000000 0.000000 0.005472 0.000000 0.028890
#
#
# Mechanical properties :
#
#
# Convention : Reuss Voigt Hill
#
# Bulk Modulus (GPa) = 57.63791 66.55871 62.09831
# Shear Modulus (GPa) = 35.16787 37.81167 36.48977
#
# Velocity S-wave (km/s) = 3.80911 3.94969 3.88004
# Velocity P-wave (km/s) = 6.56701 6.94697 6.75966
#
# Compressibility (1/GPa) = 0.01734969
#
# Stress axis : x y z
#
# Youngs Moduli (GPa) = 90.11450 68.54042 110.16067
#
# Poissons Ratio (x) = 0.27519 0.50085
# Poissons Ratio (y) = 0.36181 0.01607
# Poissons Ratio (z) = 0.40971 0.01000
#
# Static dielectric constant tensor:
#      x y z
#    x 1.985100 0.000000 -0.000020 
#    y 0.000000 1.900030 0.000000 
#    z -0.000020 0.000000 2.071940 
# 
# From -- ./inp_files/63142.got.cif
#   From: 2010.05.17/outbox.cif.g08.bks.cpg/sg15_32_cif.got.tgz:63142.got - 2010.06.03 18:47:42.
