data_PCOD9285137
_publ_section_title
;
Structure prediction by ZEFSAII (Michael W. Deem and Ramdas Pophale) SiO2 
 PCOD9285137
Probable space group: C 2/C
;
_chemical_formula_sum "Si O2"
_cell_formula_units_Z 52
_cell_length_a 15.015828
_cell_length_b 11.695780
_cell_length_c 13.595684
_cell_angle_alpha 90.000000
_cell_angle_beta 107.319167
_cell_angle_gamma 90.000000
_cell_volume 2279.443540
_symmetry_space_group_name_H-M "C 2/C"
_symmetry_group_IT_number 15
_symmetry_cell_setting 'monoclinic'
loop_
_space_group_symop_operation_xyz
x,y,z
-x,y,1/2-z
-x,-y,-z
x,-y,1/2+z
1/2+x,1/2+y,z
1/2-x,1/2+y,1/2-z
1/2-x,1/2-y,-z
1/2+x,1/2-y,1/2+z
loop_
_atom_site_type_symbol
_atom_site_label
_atom_site_fract_x
_atom_site_fract_y
_atom_site_fract_z
Si Si1 0.000000 0.318871 0.250000
Si Si2 0.267465 0.710997 0.376813
Si Si3 0.340080 0.473855 0.457484
Si Si4 0.887148 0.357115 0.552928
Si Si5 0.185222 0.566517 0.059780
Si Si6 0.191643 0.403296 0.248318
Si Si7 0.048546 0.236274 0.484521
O O1 0.089897 0.395478 0.260048
O O2 0.017355 0.252889 0.360001
O O3 0.336678 0.608299 0.430361
O O4 0.159688 0.673776 0.358029
O O5 0.299485 0.815185 0.457345
O O6 0.286948 0.773487 0.281567
O O7 0.285351 0.448763 0.541138
O O8 0.270864 0.429566 0.351119
O O9 0.431222 0.396285 0.487717
O O10 0.888887 0.490267 0.528797
O O11 0.975374 0.293018 0.537276
O O12 0.189768 0.505327 0.167062
O O13 0.144049 0.692889 0.036326
#
# Coordination Sequence:
#
# PCOD9285137 Si02
#       7
#     4   8   8   8   8   8   8
#     4  12  24  40  66 102 130 168 224 276 346 372
#     4   9  20  41  63  88 128 178 221 254 335 404
#     4  11  25  39  68  99 132 176 222 272 339 396
#     4   9  19  39  65  87 123 177 213 270 326 389
#     4  10  21  41  67  95 133 169 220 275 333 395
#     4  11  24  42  67  97 131 178 218 278 326 403
#     4  12  23  40  66 101 133 166 225 286 328 396
#
# _framework density 22.812586
#
# number of rings (size 3 to 8) (size 9 to 14) (size 15 to 20)
#    0.000    1.538    4.615    1.846    2.154    0.615 
#    0.000    0.769    0.000    0.000    0.000    0.000 
#    0.000    0.000    0.000    0.000    0.000    0.000 
#
# Total GULP energy -144993.379383 kJ/mol
# GULP energy per Si atom -5576.668438 kJ/mol
# Density = 2.276066 g / cm^3
# Si number density = 22.812586 Si / 1000 Ang^3
#
#
#
# Elastic Constant Matrix: (Units=GPa)
#
#
# Indices 1 2 3 4 5 6 
#
# 1 64.5531 13.8907 14.2125 0.0000 -16.6670 0.0000
# 2 13.8907 115.7908 23.3455 0.0000 -3.5249 0.0000
# 3 14.2125 23.3455 89.9067 0.0000 -0.0813 0.0000
# 4 0.0000 0.0000 0.0000 20.5591 0.0000 -7.1591
# 5 -16.6670 -3.5249 -0.0813 0.0000 22.4396 0.0000
# 6 0.0000 0.0000 0.0000 -7.1591 0.0000 28.1804
#
#
#
# Elastic Compliance Matrix: (Units=1/GPa)
#
#
# Indices 1 2 3 4 5 6 
#
# 1 0.020236 -0.001409 -0.002820 0.000000 0.014799 0.000000
# 2 -0.001409 0.009257 -0.002181 0.000000 0.000400 0.000000
# 3 -0.002820 -0.002181 0.012132 0.000000 -0.002393 0.000000
# 4 0.000000 0.000000 0.000000 0.053361 0.000000 0.013556
# 5 0.014799 0.000400 -0.002393 0.000000 0.055610 0.000000
# 6 0.000000 0.000000 0.000000 0.013556 0.000000 0.038929
#
#
# Mechanical properties :
#
#
# Convention : Reuss Voigt Hill
#
# Bulk Modulus (GPa) = 34.71326 41.46089 38.08707
# Shear Modulus (GPa) = 23.59087 28.82262 26.20674
#
# Velocity S-wave (km/s) = 3.21926 3.55836 3.39305
# Velocity P-wave (km/s) = 5.39147 5.92424 5.66412
#
# Compressibility (1/GPa) = 0.02880744
#
# Stress axis : x y z
#
# Youngs Moduli (GPa) = 49.41695 108.02538 82.42334
#
# Poissons Ratio (x) = 0.15216 0.23242
# Poissons Ratio (y) = 0.06961 0.17974
# Poissons Ratio (z) = 0.13935 0.23557
#
# Static dielectric constant tensor:
#      x y z
#    x 1.918010 0.000000 -0.124870 
#    y 0.000000 1.886040 0.000000 
#    z -0.124870 0.000000 2.017760 
# 
# From -- ./inp_files/152678.got.cif
#   From: 2010.05.17/outbox.cif.g08.bks.cpg/sg15_77_cif.got.tgz:152678.got - 2010.06.03 18:47:42.
