data_PCOD9285813
_publ_section_title
;
Structure prediction by ZEFSAII (Michael W. Deem and Ramdas Pophale) SiO2 
 PCOD9285813
Probable space group: C 2/C
;
_chemical_formula_sum "Si O2"
_cell_formula_units_Z 40
_cell_length_a 9.088578
_cell_length_b 12.991425
_cell_length_c 21.643402
_cell_angle_alpha 90.000000
_cell_angle_beta 40.922723
_cell_angle_gamma 90.000000
_cell_volume 1673.965202
_symmetry_space_group_name_H-M "C 2/C"
_symmetry_group_IT_number 15
_symmetry_cell_setting 'monoclinic'
loop_
_space_group_symop_operation_xyz
x,y,z
-x,y,1/2-z
-x,-y,-z
x,-y,1/2+z
1/2+x,1/2+y,z
1/2-x,1/2+y,1/2-z
1/2-x,1/2-y,-z
1/2+x,1/2-y,1/2+z
loop_
_atom_site_type_symbol
_atom_site_label
_atom_site_fract_x
_atom_site_fract_y
_atom_site_fract_z
Si Si1 0.251366 0.720826 0.665245
Si Si2 0.781026 0.997949 0.484123
Si Si3 0.274868 0.024779 0.356991
Si Si4 0.060185 0.301960 0.018410
Si Si5 0.912756 0.832066 0.341002
O O1 0.230700 0.601127 0.649807
O O2 0.381391 0.780195 0.570876
O O3 0.386465 0.723153 0.686365
O O4 0.000000 0.761928 0.750000
O O5 0.723770 0.955050 0.570196
O O6 0.591863 0.078851 0.525788
O O7 0.818039 0.911403 0.421409
O O8 0.026715 0.052875 0.411146
O O9 0.500000 0.060076 0.250000
O O10 0.250000 0.250000 0.000000
O O11 0.804632 0.266618 0.109330
O O12 0.000000 0.881322 0.250000
#
# Coordination Sequence:
#
# PCOD9285813 Si02
#       5
#     8   8   8   8   8
#     4  10  21  42  67  92 127 171 211 262 330 387
#     4  10  22  39  65  97 122 171 219 265 313 381
#     4   9  19  40  68  91 132 171 211 260 327 383
#     4  12  23  41  65  94 132 164 214 271 322 383
#     4  11  25  43  66  92 128 177 219 262 322 383
#
# _framework density 23.895358000000002
#
# number of rings (size 3 to 8) (size 9 to 14) (size 15 to 20)
#    0.000    1.600    2.000    2.400    5.600    0.800 
#    3.600    1.000    0.000    0.000    0.000    0.000 
#    0.000    0.000    0.000    0.000    0.000    0.000 
#
# Total GULP energy -111884.248772 kJ/mol
# GULP energy per Si atom -5594.212439 kJ/mol
# Density = 2.384097 g / cm^3
# Si number density = 23.895358 Si / 1000 Ang^3
#
#
#
# Elastic Constant Matrix: (Units=GPa)
#
#
# Indices 1 2 3 4 5 6 
#
# 1 179.5091 22.9145 79.9979 0.0000 -2.4960 0.0002
# 2 22.9145 29.5484 5.7993 0.0000 -0.7888 0.0000
# 3 79.9979 5.7993 169.6611 -0.0001 -0.3244 0.0002
# 4 0.0000 0.0000 -0.0001 26.6089 -0.0002 7.5198
# 5 -2.4960 -0.7888 -0.3244 -0.0002 48.1175 -0.0002
# 6 0.0002 0.0000 0.0002 7.5198 -0.0002 22.7990
#
#
#
# Elastic Compliance Matrix: (Units=1/GPa)
#
#
# Indices 1 2 3 4 5 6 
#
# 1 0.007822 -0.005370 -0.003504 0.000000 0.000294 0.000000
# 2 -0.005370 0.037773 0.001242 0.000000 0.000349 0.000000
# 3 -0.003504 0.001242 0.007504 0.000000 -0.000111 0.000000
# 4 0.000000 0.000000 0.000000 0.041444 0.000000 -0.013670
# 5 0.000294 0.000349 -0.000111 0.000000 0.020803 0.000000
# 6 0.000000 0.000000 0.000000 -0.013670 0.000000 0.048370
#
#
# Mechanical properties :
#
#
# Convention : Reuss Voigt Hill
#
# Bulk Modulus (GPa) = 26.43171 66.23798 46.33484
# Shear Modulus (GPa) = 26.09709 37.50555 31.80132
#
# Velocity S-wave (km/s) = 3.30834 3.96608 3.65205
# Velocity P-wave (km/s) = 5.06744 6.98236 6.10050
#
# Compressibility (1/GPa) = 0.03783335
#
# Stress axis : x y z
#
# Youngs Moduli (GPa) = 127.84587 26.47397 133.26833
#
# Poissons Ratio (x) = 0.14217 0.46698
# Poissons Ratio (y) = 0.68656 -0.16548
# Poissons Ratio (z) = 0.44798 -0.03287
#
# Static dielectric constant tensor:
#      x y z
#    x 1.925970 0.000000 -0.056140 
#    y 0.000000 1.968280 0.000000 
#    z -0.056140 0.000000 1.876640 
# 
# From -- ./inp_files/133076.got.cif
#   From: 2010.05.17/outbox.cif.g08.bks.cpg/sg15_67_cif.got.tgz:133076.got - 2010.06.03 18:47:42.
