data_PCOD9285605
_publ_section_title
;
Structure prediction by ZEFSAII (Michael W. Deem and Ramdas Pophale) SiO2 
 PCOD9285605
Probable space group: C 2/C
;
_chemical_formula_sum "Si O2"
_cell_formula_units_Z 52
_cell_length_a 16.931973
_cell_length_b 9.344062
_cell_length_c 16.708073
_cell_angle_alpha 90.000000
_cell_angle_beta 81.358334
_cell_angle_gamma 90.000000
_cell_volume 2613.431136
_symmetry_space_group_name_H-M "C 2/C"
_symmetry_group_IT_number 15
_symmetry_cell_setting 'monoclinic'
loop_
_space_group_symop_operation_xyz
x,y,z
-x,y,1/2-z
-x,-y,-z
x,-y,1/2+z
1/2+x,1/2+y,z
1/2-x,1/2+y,1/2-z
1/2-x,1/2-y,-z
1/2+x,1/2-y,1/2+z
loop_
_atom_site_type_symbol
_atom_site_label
_atom_site_fract_x
_atom_site_fract_y
_atom_site_fract_z
Si Si1 0.943399 0.629560 0.477699
Si Si2 0.833324 0.231791 0.292460
Si Si3 0.500000 0.415757 0.750000
Si Si4 0.707253 0.495539 0.585156
Si Si5 0.291908 0.979648 0.421079
Si Si6 0.813230 0.757574 0.610322
Si Si7 0.022488 0.068533 0.582562
O O1 0.872803 0.563165 0.433839
O O2 0.896934 0.711937 0.557226
O O3 0.987022 0.759697 0.424860
O O4 0.000000 0.500000 0.500000
O O5 0.925335 0.184158 0.281476
O O6 0.813660 0.363470 0.352323
O O7 0.814798 0.262834 0.204272
O O8 0.786789 0.094972 0.335020
O O9 0.482863 0.507856 0.671100
O O10 0.754353 0.415562 0.507755
O O11 0.749574 0.647324 0.584672
O O12 0.615483 0.527179 0.579982
O O13 0.221826 0.086553 0.402761
O O14 0.000000 0.000000 0.500000
#
# Coordination Sequence:
#
# PCOD9285605 Si02
#       7
#     8   8   4   8   8   8   8
#     4  11  24  42  67  96 130 175 225 271 343 405
#     4  11  24  39  66  96 130 168 221 275 333 394
#     4  10  26  42  62 102 138 176 230 276 336 424
#     4  10  21  42  64  95 127 169 226 263 335 412
#     4  11  22  42  68  91 131 166 214 284 324 394
#     4  11  21  44  65  93 128 175 216 280 334 396
#     4  11  22  44  69  91 137 182 215 279 345 403
#
# _framework density 19.897214999999999
#
# number of rings (size 3 to 8) (size 9 to 14) (size 15 to 20)
#    0.000    1.231    3.077    3.231    6.462    0.000 
#    2.769    0.000    0.000    0.000    0.000    0.000 
#    0.000    0.000    0.000    0.000    0.000    0.000 
#
# Total GULP energy -145108.072799 kJ/mol
# GULP energy per Si atom -5581.079723 kJ/mol
# Density = 1.985193 g / cm^3
# Si number density = 19.897215 Si / 1000 Ang^3
#
#
#
# Elastic Constant Matrix: (Units=GPa)
#
#
# Indices 1 2 3 4 5 6 
#
# 1 52.8669 28.0137 15.6173 0.0000 -7.8072 0.0000
# 2 28.0137 94.9860 26.1490 0.0000 -13.3090 0.0000
# 3 15.6173 26.1490 107.9389 0.0000 -10.2718 0.0000
# 4 0.0000 0.0000 0.0000 39.0028 0.0000 -9.3303
# 5 -7.8072 -13.3090 -10.2718 0.0000 30.5435 0.0000
# 6 0.0000 0.0000 0.0000 -9.3303 0.0000 27.0942
#
#
#
# Elastic Compliance Matrix: (Units=1/GPa)
#
#
# Indices 1 2 3 4 5 6 
#
# 1 0.022944 -0.005938 -0.001621 0.000000 0.002732 0.000000
# 2 -0.005938 0.013344 -0.002030 0.000000 0.003614 0.000000
# 3 -0.001621 -0.002030 0.010193 0.000000 0.002129 0.000000
# 4 0.000000 0.000000 0.000000 0.027941 0.000000 0.009622
# 5 0.002732 0.003614 0.002129 0.000000 0.035730 0.000000
# 6 0.000000 0.000000 0.000000 0.009622 0.000000 0.040222
#
#
# Mechanical properties :
#
#
# Convention : Reuss Voigt Hill
#
# Bulk Modulus (GPa) = 36.62392 43.92798 40.27595
# Shear Modulus (GPa) = 27.98729 31.72889 29.85809
#
# Velocity S-wave (km/s) = 3.75453 3.99763 3.87798
# Velocity P-wave (km/s) = 6.10261 6.59040 6.35119
#
# Compressibility (1/GPa) = 0.02730456
#
# Stress axis : x y z
#
# Youngs Moduli (GPa) = 43.58411 74.93893 98.10264
#
# Poissons Ratio (x) = 0.44496 0.15905
# Poissons Ratio (y) = 0.25879 0.19912
# Poissons Ratio (z) = 0.07066 0.15210
#
# Static dielectric constant tensor:
#      x y z
#    x 1.716730 0.000000 0.004890 
#    y 0.000000 1.715020 0.000000 
#    z 0.004890 0.000000 1.730500 
# 
# From -- ./inp_files/209091.got.cif
#   From: 2010.05.17/outbox.cif.g08.bks.cpg/sg15_105_cif.got.tgz:209091.got - 2010.06.03 18:47:42.
