data_PCOD9285687
_publ_section_title
;
Structure prediction by ZEFSAII (Michael W. Deem and Ramdas Pophale) SiO2 
 PCOD9285687
Probable space group: C 2/C
;
_chemical_formula_sum "Si O2"
_cell_formula_units_Z 52
_cell_length_a 26.716815
_cell_length_b 8.609594
_cell_length_c 27.826049
_cell_angle_alpha 90.000000
_cell_angle_beta 19.502582
_cell_angle_gamma 90.000000
_cell_volume 2136.827286
_symmetry_space_group_name_H-M "C 2/C"
_symmetry_group_IT_number 15
_symmetry_cell_setting 'monoclinic'
loop_
_space_group_symop_operation_xyz
x,y,z
-x,y,1/2-z
-x,-y,-z
x,-y,1/2+z
1/2+x,1/2+y,z
1/2-x,1/2+y,1/2-z
1/2-x,1/2-y,-z
1/2+x,1/2-y,1/2+z
loop_
_atom_site_type_symbol
_atom_site_label
_atom_site_fract_x
_atom_site_fract_y
_atom_site_fract_z
Si Si1 0.000000 0.503178 0.750000
Si Si2 0.940411 0.744820 0.564288
Si Si3 0.464572 0.444036 0.203111
Si Si4 0.833633 0.672559 0.486349
Si Si5 0.148325 0.733492 0.685059
Si Si6 0.144710 0.065200 0.807598
Si Si7 0.449510 0.905071 0.441484
O O1 0.094835 0.408897 0.624889
O O2 0.117695 0.612558 0.671207
O O3 0.807783 0.637437 0.665793
O O4 0.037624 0.817111 0.433626
O O5 0.034003 0.646239 0.518692
O O6 0.873657 0.895993 0.652073
O O7 0.342119 0.353057 0.346279
O O8 0.617375 0.350078 0.061394
O O9 0.462235 0.619856 0.222644
O O10 0.401094 0.448307 0.206295
O O11 0.914236 0.581362 0.457842
O O12 0.311648 0.807475 0.543311
O O13 0.099928 0.648206 0.778054
#
# Coordination Sequence:
#
# PCOD9285687 Si02
#       7
#     4   8   8   8   8   8   8
#     4  10  24  48  68 110 114 178 226 282 338 416
#     4  11  24  42  67  99 137 181 233 276 320 394
#     4  11  23  44  61 102 131 184 205 283 338 395
#     4  10  25  41  71  93 138 166 226 272 348 396
#     4  10  22  41  71  92 136 162 229 270 337 400
#     4  11  25  41  65 101 136 180 232 271 329 393
#     4  10  21  42  65  97 127 183 213 276 326 396
#
# _framework density 24.335146000000002
#
# number of rings (size 3 to 8) (size 9 to 14) (size 15 to 20)
#    0.000    1.538    1.538    1.846    4.308    9.846 
#    2.769    0.000    0.000    0.000    0.000    0.000 
#    0.000    0.000    0.000    0.000    0.000    0.000 
#
# Total GULP energy -145748.804709 kJ/mol
# GULP energy per Si atom -5605.723258 kJ/mol
# Density = 2.427976 g / cm^3
# Si number density = 24.335146 Si / 1000 Ang^3
#
#
#
# Elastic Constant Matrix: (Units=GPa)
#
#
# Indices 1 2 3 4 5 6 
#
# 1 105.3821 47.4693 22.0474 0.0016 20.1567 0.0015
# 2 47.4693 101.7382 47.2875 -0.0124 -1.7493 0.0039
# 3 22.0474 47.2875 77.4666 -0.0076 14.5335 0.0017
# 4 0.0016 -0.0124 -0.0076 47.5910 0.0021 2.2127
# 5 20.1567 -1.7493 14.5335 0.0021 31.6827 0.0004
# 6 0.0015 0.0039 0.0017 2.2127 0.0004 35.2498
#
#
#
# Elastic Compliance Matrix: (Units=1/GPa)
#
#
# Indices 1 2 3 4 5 6 
#
# 1 0.014886 -0.008608 0.003155 -0.000002 -0.011393 0.000000
# 2 -0.008608 0.019475 -0.011672 0.000003 0.011906 -0.000002
# 3 0.003155 -0.011672 0.021482 0.000001 -0.012506 0.000000
# 4 -0.000002 0.000003 0.000001 0.021074 -0.000001 -0.001323
# 5 -0.011393 0.011906 -0.012506 -0.000001 0.045205 -0.000001
# 6 0.000000 -0.000002 0.000000 -0.001323 -0.000001 0.028452
#
#
# Mechanical properties :
#
#
# Convention : Reuss Voigt Hill
#
# Bulk Modulus (GPa) = 46.30952 57.57725 51.94339
# Shear Modulus (GPa) = 26.03881 34.09022 30.06451
#
# Velocity S-wave (km/s) = 3.27465 3.74687 3.51869
# Velocity P-wave (km/s) = 5.77659 6.51385 6.15626
#
# Compressibility (1/GPa) = 0.02159383
#
# Stress axis : x y z
#
# Youngs Moduli (GPa) = 67.17832 51.34721 46.55094
#
# Poissons Ratio (x) = 0.44199 -0.14689
# Poissons Ratio (y) = 0.57827 0.54334
# Poissons Ratio (z) = -0.21197 0.59932
#
# Static dielectric constant tensor:
#      x y z
#    x 1.906790 0.000000 0.005490 
#    y 0.000000 1.910370 0.000010 
#    z 0.005490 0.000010 1.907020 
# 
# From -- ./inp_files/320159.got.cif
#   From: 2010.05.17/outbox.cif.g08.bks.cpg/sg15_161_cif.got.tgz:320159.got - 2010.06.03 18:47:42.
