data_PCOD9285860
_publ_section_title
;
Structure prediction by ZEFSAII (Michael W. Deem and Ramdas Pophale) SiO2 
 PCOD9285860
Probable space group: C 2/C
;
_chemical_formula_sum "Si O2"
_cell_formula_units_Z 52
_cell_length_a 10.580952
_cell_length_b 29.052258
_cell_length_c 8.152755
_cell_angle_alpha 90.000000
_cell_angle_beta 65.125001
_cell_angle_gamma 90.000000
_cell_volume 2273.658864
_symmetry_space_group_name_H-M "C 2/C"
_symmetry_group_IT_number 15
_symmetry_cell_setting 'monoclinic'
loop_
_space_group_symop_operation_xyz
x,y,z
-x,y,1/2-z
-x,-y,-z
x,-y,1/2+z
1/2+x,1/2+y,z
1/2-x,1/2+y,1/2-z
1/2-x,1/2-y,-z
1/2+x,1/2-y,1/2+z
loop_
_atom_site_type_symbol
_atom_site_label
_atom_site_fract_x
_atom_site_fract_y
_atom_site_fract_z
Si Si1 0.666284 0.812525 0.177050
Si Si2 0.241714 0.521600 0.716064
Si Si3 0.305066 0.070078 0.103322
Si Si4 0.500000 0.561170 0.750000
Si Si5 0.605748 0.893250 0.442756
Si Si6 0.818089 0.874083 0.584007
Si Si7 0.344488 0.711737 0.261802
O O1 0.500000 0.811547 0.250000
O O2 0.685450 0.858824 0.272713
O O3 0.702737 0.764212 0.246378
O O4 0.744201 0.808161 0.960541
O O5 0.227341 0.542549 0.543740
O O6 0.184976 0.470268 0.765794
O O7 0.396851 0.529064 0.701206
O O8 0.151316 0.555038 0.878953
O O9 0.182750 0.101861 0.237994
O O10 0.440499 0.102331 0.010658
O O11 0.583843 0.595693 0.585287
O O12 0.664913 0.878478 0.585930
O O13 0.848124 0.821128 0.602414
O O14 0.500000 0.712721 0.250000
#
# Coordination Sequence:
#
# PCOD9285860 Si02
#       7
#     8   8   8   4   8   8   8
#     4  10  21  42  67  98 139 178 228 284 342 405
#     4  11  24  42  66  97 133 177 219 276 335 408
#     4  12  25  42  68  96 130 180 224 282 343 405
#     4  10  26  44  62  98 136 176 224 280 340 400
#     4  11  23  41  66  96 135 174 225 277 338 399
#     4  11  25  40  64  96 134 175 228 281 336 407
#     4  10  23  40  68 102 133 181 232 279 344 417
#
# _framework density 22.870626000000001
#
# number of rings (size 3 to 8) (size 9 to 14) (size 15 to 20)
#    0.000    1.231    0.000    6.000    6.462    4.308 
#    0.000    0.000    3.385    0.000    0.000    0.000 
#    0.000    0.000    0.000    0.000    0.000    0.000 
#
# Total GULP energy -145270.435550 kJ/mol
# GULP energy per Si atom -5587.324444 kJ/mol
# Density = 2.281857 g / cm^3
# Si number density = 22.870626 Si / 1000 Ang^3
#
#
#
# Elastic Constant Matrix: (Units=GPa)
#
#
# Indices 1 2 3 4 5 6 
#
# 1 67.7641 1.0406 22.9256 0.0000 -6.3606 0.0000
# 2 1.0406 132.9738 17.1378 0.0000 0.2941 0.0000
# 3 22.9256 17.1378 74.3309 0.0000 -7.8517 0.0000
# 4 0.0000 0.0000 0.0000 57.0734 0.0000 1.8150
# 5 -6.3606 0.2941 -7.8517 0.0000 34.8403 0.0000
# 6 0.0000 0.0000 0.0000 1.8150 0.0000 24.1224
#
#
#
# Elastic Compliance Matrix: (Units=1/GPa)
#
#
# Indices 1 2 3 4 5 6 
#
# 1 0.016635 0.000516 -0.005050 0.000000 0.001895 0.000000
# 2 0.000516 0.007774 -0.001996 0.000000 -0.000421 0.000000
# 3 -0.005050 -0.001996 0.015750 0.000000 0.002645 0.000000
# 4 0.000000 0.000000 0.000000 0.017563 0.000000 -0.001321
# 5 0.001895 -0.000421 0.002645 0.000000 0.029648 0.000000
# 6 0.000000 0.000000 0.000000 -0.001321 0.000000 0.041555
#
#
# Mechanical properties :
#
#
# Convention : Reuss Voigt Hill
#
# Bulk Modulus (GPa) = 36.89881 39.69743 38.29812
# Shear Modulus (GPa) = 33.10842 38.80485 35.95664
#
# Velocity S-wave (km/s) = 3.80891 4.12358 3.96937
# Velocity P-wave (km/s) = 5.95924 6.32985 6.14734
#
# Compressibility (1/GPa) = 0.02710115
#
# Stress axis : x y z
#
# Youngs Moduli (GPa) = 60.11285 128.62646 63.49034
#
# Poissons Ratio (x) = -0.06643 0.32061
# Poissons Ratio (y) = -0.03104 0.12674
# Poissons Ratio (z) = 0.30355 0.25677
#
# Static dielectric constant tensor:
#      x y z
#    x 1.900390 0.000000 0.017440 
#    y 0.000000 1.855330 0.000000 
#    z 0.017440 0.000000 1.892590 
# 
# From -- ./inp_files/34106.got.cif
#   From: 2010.05.17/outbox.cif.g08.bks.cpg/sg15_18_cif.got.tgz:34106.got - 2010.06.03 18:47:42.
