data_PCOD9285556
_publ_section_title
;
Structure prediction by ZEFSAII (Michael W. Deem and Ramdas Pophale) SiO2 
 PCOD9285556
Probable space group: C 2/C
;
_chemical_formula_sum "Si O2"
_cell_formula_units_Z 52
_cell_length_a 8.768275
_cell_length_b 13.905492
_cell_length_c 26.401647
_cell_angle_alpha 90.000000
_cell_angle_beta 50.098402
_cell_angle_gamma 90.000000
_cell_volume 2469.507109
_symmetry_space_group_name_H-M "C 2/C"
_symmetry_group_IT_number 15
_symmetry_cell_setting 'monoclinic'
loop_
_space_group_symop_operation_xyz
x,y,z
-x,y,1/2-z
-x,-y,-z
x,-y,1/2+z
1/2+x,1/2+y,z
1/2-x,1/2+y,1/2-z
1/2-x,1/2-y,-z
1/2+x,1/2-y,1/2+z
loop_
_atom_site_type_symbol
_atom_site_label
_atom_site_fract_x
_atom_site_fract_y
_atom_site_fract_z
Si Si1 0.826985 0.885293 0.608659
Si Si2 0.880639 0.590538 0.545347
Si Si3 0.848387 0.696134 0.740235
Si Si4 0.925142 0.292764 0.406522
Si Si5 0.062696 0.914890 0.370640
Si Si6 0.000000 0.693191 0.250000
Si Si7 0.471462 0.713535 0.981820
O O1 0.621734 0.865007 0.681577
O O2 0.980600 0.812543 0.604016
O O3 0.839946 0.853183 0.547298
O O4 0.884668 0.994798 0.605578
O O5 0.653673 0.565569 0.607107
O O6 0.000000 0.500000 0.500000
O O7 0.984911 0.635986 0.571593
O O8 0.891683 0.678091 0.502395
O O9 0.733385 0.611817 0.794616
O O10 0.667532 0.749788 0.748035
O O11 0.000000 0.743821 0.750000
O O12 0.999955 0.669121 0.663489
O O13 0.690648 0.287293 0.459609
O O14 0.019531 0.824344 0.415986
#
# Coordination Sequence:
#
# PCOD9285556 Si02
#       7
#     8   8   8   8   8   4   8
#     4  10  22  39  65  88 128 170 211 258 331 396
#     4  11  23  40  64  95 129 167 221 275 328 399
#     4  11  22  42  68  94 132 172 225 270 330 394
#     4  10  21  42  64  87 128 175 207 265 336 390
#     4  12  23  38  64  96 128 166 219 274 323 387
#     4  10  24  44  68  88 130 182 216 266 344 394
#     4  11  21  39  64  90 127 167 210 265 332 383
#
# _framework density 21.056833999999998
#
# number of rings (size 3 to 8) (size 9 to 14) (size 15 to 20)
#    0.000    1.231    1.538    7.385    1.077    0.000 
#    0.000    3.077    6.769    0.000    0.000    0.000 
#    0.000    0.000    0.000    0.000    0.000    0.000 
#
# Total GULP energy -145062.218286 kJ/mol
# GULP energy per Si atom -5579.316088 kJ/mol
# Density = 2.100891 g / cm^3
# Si number density = 21.056834 Si / 1000 Ang^3
#
#
#
# Elastic Constant Matrix: (Units=GPa)
#
#
# Indices 1 2 3 4 5 6 
#
# 1 98.8355 2.0978 8.4473 0.0000 -12.1093 0.0000
# 2 2.0978 85.3831 27.0502 0.0001 1.7236 0.0000
# 3 8.4473 27.0502 137.6454 0.0002 -7.3785 -0.0001
# 4 0.0000 0.0001 0.0002 26.8254 -0.0001 -3.0658
# 5 -12.1093 1.7236 -7.3785 -0.0001 43.1202 0.0000
# 6 0.0000 0.0000 -0.0001 -3.0658 0.0000 10.0097
#
#
#
# Elastic Compliance Matrix: (Units=1/GPa)
#
#
# Indices 1 2 3 4 5 6 
#
# 1 0.010514 -0.000172 -0.000457 0.000000 0.002881 0.000000
# 2 -0.000172 0.012529 -0.002504 0.000000 -0.000978 0.000000
# 3 -0.000457 -0.002504 0.007856 0.000000 0.001316 0.000000
# 4 0.000000 0.000000 0.000000 0.038630 0.000000 0.011832
# 5 0.002881 -0.000978 0.001316 0.000000 0.024264 0.000000
# 6 0.000000 0.000000 0.000000 0.011832 0.000000 0.103527
#
#
# Mechanical properties :
#
#
# Convention : Reuss Voigt Hill
#
# Bulk Modulus (GPa) = 40.59624 44.11717 42.35670
# Shear Modulus (GPa) = 23.60759 34.94231 29.27495
#
# Velocity S-wave (km/s) = 3.35197 4.07803 3.73269
# Velocity P-wave (km/s) = 5.85680 6.57044 6.22386
#
# Compressibility (1/GPa) = 0.02463282
#
# Stress axis : x y z
#
# Youngs Moduli (GPa) = 95.11560 79.81351 127.29527
#
# Poissons Ratio (x) = 0.01370 0.05818
# Poissons Ratio (y) = 0.01633 0.31876
# Poissons Ratio (z) = 0.04347 0.19986
#
# Static dielectric constant tensor:
#      x y z
#    x 1.875010 0.000000 0.009280 
#    y 0.000000 2.058780 0.000000 
#    z 0.009280 0.000000 1.729930 
# 
# From -- ./inp_files/231304.got.cif
#   From: 2010.05.17/outbox.cif.g08.bks.cpg/sg15_116_cif.got.tgz:231304.got - 2010.06.03 18:47:42.
