data_PCOD9285012
_publ_section_title
;
Structure prediction by ZEFSAII (Michael W. Deem and Ramdas Pophale) SiO2 
 PCOD9285012
Probable space group: C 2/C
;
_chemical_formula_sum "Si O2"
_cell_formula_units_Z 60
_cell_length_a 19.913675
_cell_length_b 24.489702
_cell_length_c 12.073220
_cell_angle_alpha 90.000000
_cell_angle_beta 149.891863
_cell_angle_gamma 90.000000
_cell_volume 2953.552175
_symmetry_space_group_name_H-M "C 2/C"
_symmetry_group_IT_number 15
_symmetry_cell_setting 'monoclinic'
loop_
_space_group_symop_operation_xyz
x,y,z
-x,y,1/2-z
-x,-y,-z
x,-y,1/2+z
1/2+x,1/2+y,z
1/2-x,1/2+y,1/2-z
1/2-x,1/2-y,-z
1/2+x,1/2-y,1/2+z
loop_
_atom_site_type_symbol
_atom_site_label
_atom_site_fract_x
_atom_site_fract_y
_atom_site_fract_z
Si Si1 0.617243 0.460053 0.205400
Si Si2 0.775819 0.819749 0.645412
Si Si3 0.118438 0.505579 0.998212
Si Si4 0.787042 0.304682 0.194959
Si Si5 0.013621 0.612559 0.400180
Si Si6 0.218543 0.388762 0.762021
Si Si7 0.456880 0.629031 0.071444
Si Si8 0.000000 0.904649 0.250000
O O1 0.760774 0.487735 0.409549
O O2 0.574574 0.439238 0.263373
O O3 0.500000 0.500000 0.000000
O O4 0.620584 0.411591 0.120058
O O5 0.808127 0.759680 0.738005
O O6 0.703461 0.814720 0.423472
O O7 0.690866 0.851959 0.614975
O O8 0.912773 0.851133 0.808755
O O9 0.184036 0.549695 0.173399
O O10 0.000000 0.527208 0.750000
O O11 0.064417 0.450537 0.981125
O O12 0.885729 0.344755 0.400264
O O13 0.638953 0.321736 0.026215
O O14 0.874002 0.620723 0.264358
O O15 0.000000 0.622550 0.250000
O O16 0.374037 0.376198 0.011370
O O17 0.500000 0.601698 0.250000
#
# Coordination Sequence:
#
# PCOD9285012 Si02
#       8
#     8   8   8   8   8   8   8   4
#     4  12  23  42  65  95 134 177 222 273 335 410
#     4  10  23  44  68 107 126 175 238 283 345 391
#     4  11  24  45  67  99 138 175 232 279 338 411
#     4  10  23  43  72  95 141 175 223 293 336 408
#     4  11  25  45  65  99 140 183 224 270 349 411
#     4  12  26  44  70  98 135 182 226 289 336 409
#     4  10  21  41  66  94 129 172 225 275 331 400
#     4  12  24  42  64  96 136 170 222 284 334 400
#
# _framework density 20.314520000000002
#
# number of rings (size 3 to 8) (size 9 to 14) (size 15 to 20)
#    0.000    1.067    4.000    2.000    4.667    0.000 
#    1.200    0.667    0.000    0.000    0.000    0.000 
#    0.000    0.000    0.000    0.000    0.000    0.000 
#
# Total GULP energy -167569.149413 kJ/mol
# GULP energy per Si atom -5585.638314 kJ/mol
# Density = 2.026828 g / cm^3
# Si number density = 20.314520 Si / 1000 Ang^3
#
#
#
# Elastic Constant Matrix: (Units=GPa)
#
#
# Indices 1 2 3 4 5 6 
#
# 1 149.2966 25.5141 22.7261 0.0000 -0.0033 0.0000
# 2 25.5141 69.2927 25.2999 0.0000 -15.6831 0.0000
# 3 22.7261 25.2999 79.5188 0.0000 3.7785 0.0000
# 4 0.0000 0.0000 0.0000 14.4136 0.0000 -15.6121
# 5 -0.0033 -15.6831 3.7785 0.0000 35.8338 0.0000
# 6 0.0000 0.0000 0.0000 -15.6121 0.0000 60.6510
#
#
#
# Elastic Compliance Matrix: (Units=1/GPa)
#
#
# Indices 1 2 3 4 5 6 
#
# 1 0.007308 -0.002439 -0.001268 0.000000 -0.000933 0.000000
# 2 -0.002439 0.019594 -0.005975 0.000000 0.009206 0.000000
# 3 -0.001268 -0.005975 0.015039 0.000000 -0.004201 0.000000
# 4 0.000000 0.000000 0.000000 0.096201 0.000000 0.024763
# 5 -0.000933 0.009206 -0.004201 0.000000 0.032378 0.000000
# 6 0.000000 0.000000 0.000000 0.024763 0.000000 0.022862
#
#
# Mechanical properties :
#
#
# Convention : Reuss Voigt Hill
#
# Bulk Modulus (GPa) = 44.29209 49.46537 46.87873
# Shear Modulus (GPa) = 22.69926 37.15089 29.92508
#
# Velocity S-wave (km/s) = 3.34637 4.28107 3.84225
# Velocity P-wave (km/s) = 6.06477 6.98852 6.54296
#
# Compressibility (1/GPa) = 0.02257740
#
# Stress axis : x y z
#
# Youngs Moduli (GPa) = 136.83801 51.03475 66.49551
#
# Poissons Ratio (x) = 0.12447 0.08433
# Poissons Ratio (y) = 0.33374 0.39729
# Poissons Ratio (z) = 0.17355 0.30491
#
# Static dielectric constant tensor:
#      x y z
#    x 1.723260 0.000000 -0.057510 
#    y 0.000000 1.709230 0.000000 
#    z -0.057510 0.000000 1.817550 
# 
# From -- ./inp_files/114832.got.cif
#   From: 2010.05.17/outbox.cif.g08.bks.cpg/sg15_58_cif.got.tgz:114832.got - 2010.06.03 18:47:42.
