data_PCOD9285062
_publ_section_title
;
Structure prediction by ZEFSAII (Michael W. Deem and Ramdas Pophale) SiO2 
 PCOD9285062
Probable space group: C 2/C
;
_chemical_formula_sum "Si O2"
_cell_formula_units_Z 60
_cell_length_a 10.489461
_cell_length_b 20.418961
_cell_length_c 13.182747
_cell_angle_alpha 90.000000
_cell_angle_beta 93.160027
_cell_angle_gamma 90.000000
_cell_volume 2819.238823
_symmetry_space_group_name_H-M "C 2/C"
_symmetry_group_IT_number 15
_symmetry_cell_setting 'monoclinic'
loop_
_space_group_symop_operation_xyz
x,y,z
-x,y,1/2-z
-x,-y,-z
x,-y,1/2+z
1/2+x,1/2+y,z
1/2-x,1/2+y,1/2-z
1/2-x,1/2-y,-z
1/2+x,1/2-y,1/2+z
loop_
_atom_site_type_symbol
_atom_site_label
_atom_site_fract_x
_atom_site_fract_y
_atom_site_fract_z
Si Si1 0.000000 0.174377 0.750000
Si Si2 0.235835 0.600474 0.050656
Si Si3 0.468632 0.683414 0.071544
Si Si4 0.638320 0.037491 0.624219
Si Si5 0.859268 0.589761 0.667837
Si Si6 0.316482 0.351603 0.080940
Si Si7 0.155565 0.734585 0.107280
Si Si8 0.648927 0.229158 0.715459
O O1 0.901665 0.130999 0.683533
O O2 0.942477 0.223824 0.829519
O O3 0.378071 0.621277 0.094204
O O4 0.176195 0.533040 0.085393
O O5 0.140022 0.658837 0.079278
O O6 0.237866 0.599440 0.928024
O O7 0.535257 0.730091 0.157834
O O8 0.587856 0.660658 0.006954
O O9 0.369131 0.727358 0.000434
O O10 0.490628 0.061433 0.625048
O O11 0.679472 0.041263 0.744211
O O12 0.714713 0.091094 0.561937
O O13 0.873868 0.659105 0.728339
O O14 0.239020 0.289416 0.122608
O O15 0.272560 0.733946 0.193594
#
# Coordination Sequence:
#
# PCOD9285062 Si02
#       8
#     4   8   8   8   8   8   8   8
#     4   8  18  38  62  92 128 166 206 264 332 386
#     4  12  25  42  62  97 132 172 220 276 327 388
#     4  11  23  39  69  98 135 169 214 276 337 396
#     4  10  24  42  66  93 124 179 229 262 324 392
#     4  10  23  45  71  91 128 177 224 277 321 399
#     4   9  20  39  63  96 129 173 217 262 321 402
#     4  10  22  39  62  98 131 167 210 274 333 393
#     4  10  21  41  67 100 132 170 220 268 341 395
#
# _framework density 21.282340000000001
#
# number of rings (size 3 to 8) (size 9 to 14) (size 15 to 20)
#    0.000    1.867    1.333    1.200    7.467    4.267 
#    2.400    1.333    0.000    0.000    0.000    0.000 
#    0.000    0.000    0.000    0.000    0.000    0.000 
#
# Total GULP energy -167073.107753 kJ/mol
# GULP energy per Si atom -5569.103592 kJ/mol
# Density = 2.123390 g / cm^3
# Si number density = 21.282340 Si / 1000 Ang^3
#
#
#
# Elastic Constant Matrix: (Units=GPa)
#
#
# Indices 1 2 3 4 5 6 
#
# 1 100.8234 34.2851 25.1434 0.0000 -4.9627 0.0000
# 2 34.2851 87.5100 54.2322 0.0000 -3.9472 0.0000
# 3 25.1434 54.2322 93.2413 0.0000 -2.1955 0.0000
# 4 0.0000 0.0000 0.0000 32.6230 0.0000 -7.0570
# 5 -4.9627 -3.9472 -2.1955 0.0000 30.4814 0.0000
# 6 0.0000 0.0000 0.0000 -7.0570 0.0000 19.8374
#
#
#
# Elastic Compliance Matrix: (Units=1/GPa)
#
#
# Indices 1 2 3 4 5 6 
#
# 1 0.011528 -0.003987 -0.000759 0.000000 0.001306 0.000000
# 2 -0.003987 0.019322 -0.010137 0.000000 0.001123 0.000000
# 3 -0.000759 -0.010137 0.016820 0.000000 -0.000225 0.000000
# 4 0.000000 0.000000 0.000000 0.033209 0.000000 0.011814
# 5 0.001306 0.001123 -0.000225 0.000000 0.033149 0.000000
# 6 0.000000 0.000000 0.000000 0.011814 0.000000 0.054612
#
#
# Mechanical properties :
#
#
# Convention : Reuss Voigt Hill
#
# Bulk Modulus (GPa) = 55.85214 56.54401 56.19808
# Shear Modulus (GPa) = 24.46506 27.78263 26.12385
#
# Velocity S-wave (km/s) = 3.39418 3.61699 3.50736
# Velocity P-wave (km/s) = 6.45453 6.63850 6.54716
#
# Compressibility (1/GPa) = 0.01790442
#
# Stress axis : x y z
#
# Youngs Moduli (GPa) = 86.74764 51.75434 59.45310
#
# Poissons Ratio (x) = 0.20636 0.04510
# Poissons Ratio (y) = 0.34589 0.60266
# Poissons Ratio (z) = 0.06581 0.52462
#
# Static dielectric constant tensor:
#      x y z
#    x 1.905360 0.000000 -0.042940 
#    y 0.000000 1.769840 0.000000 
#    z -0.042940 0.000000 1.831950 
# 
# From -- ./inp_files/145656.got.cif
#   From: 2010.05.17/outbox.cif.g08.bks.cpg/sg15_73_cif.got.tgz:145656.got - 2010.06.03 18:47:42.
