data_PCOD9285438
_publ_section_title
;
Structure prediction by ZEFSAII (Michael W. Deem and Ramdas Pophale) SiO2 
 PCOD9285438
Probable space group: C 2/C
;
_chemical_formula_sum "Si O2"
_cell_formula_units_Z 56
_cell_length_a 10.266926
_cell_length_b 9.297767
_cell_length_c 27.818237
_cell_angle_alpha 90.000000
_cell_angle_beta 63.739172
_cell_angle_gamma 90.000000
_cell_volume 2381.436653
_symmetry_space_group_name_H-M "C 2/C"
_symmetry_group_IT_number 15
_symmetry_cell_setting 'monoclinic'
loop_
_space_group_symop_operation_xyz
x,y,z
-x,y,1/2-z
-x,-y,-z
x,-y,1/2+z
1/2+x,1/2+y,z
1/2-x,1/2+y,1/2-z
1/2-x,1/2-y,-z
1/2+x,1/2-y,1/2+z
loop_
_atom_site_type_symbol
_atom_site_label
_atom_site_fract_x
_atom_site_fract_y
_atom_site_fract_z
Si Si1 0.350823 0.829562 0.630043
Si Si2 0.186206 0.314460 0.593840
Si Si3 0.585863 0.696290 0.030890
Si Si4 0.406233 0.559772 0.570019
Si Si5 0.836600 0.031312 0.257434
Si Si6 0.618112 0.931800 0.445390
Si Si7 0.332498 0.797892 0.788290
O O1 0.523792 0.842923 0.605076
O O2 0.332418 0.662866 0.620765
O O3 0.271698 0.883277 0.689886
O O4 0.306977 0.939713 0.595382
O O5 0.282985 0.454199 0.570005
O O6 0.259814 0.177922 0.556097
O O7 0.183769 0.283608 0.651640
O O8 0.535582 0.547909 0.064003
O O9 0.484301 0.821964 0.068297
O O10 0.750000 0.750000 0.000000
O O11 0.545399 0.662223 0.981653
O O12 0.787607 0.093647 0.213883
O O13 0.000000 0.059789 0.250000
O O14 0.814248 0.860183 0.267398
O O15 0.500000 0.000000 0.500000
O O16 0.500000 0.844547 0.750000
#
# Coordination Sequence:
#
# PCOD9285438 Si02
#       7
#     8   8   8   8   8   8   8
#     4  12  24  44  70 100 135 183 226 281 349 415
#     4  11  25  43  68  99 139 178 229 283 348 413
#     4  10  21  42  60  90 134 178 221 278 321 386
#     4  10  24  39  62  98 130 170 229 268 330 397
#     4  11  27  46  72 103 135 175 232 287 354 424
#     4  11  23  42  64  98 138 184 230 278 336 402
#     4  11  24  48  71  99 138 176 226 294 354 417
#
# _framework density 23.515217
#
# number of rings (size 3 to 8) (size 9 to 14) (size 15 to 20)
#    0.000    1.143    4.286    0.857    4.000    2.286 
#    5.143    0.000    0.000    0.000    0.000    0.000 
#    0.000    0.000    0.000    0.000    0.000    0.000 
#
# Total GULP energy -156490.560332 kJ/mol
# GULP energy per Si atom -5588.948583 kJ/mol
# Density = 2.346169 g / cm^3
# Si number density = 23.515217 Si / 1000 Ang^3
#
#
#
# Elastic Constant Matrix: (Units=GPa)
#
#
# Indices 1 2 3 4 5 6 
#
# 1 104.6915 39.1508 -4.1724 0.0000 -11.1645 0.0000
# 2 39.1508 127.2110 5.9797 0.0000 4.6466 0.0000
# 3 -4.1724 5.9797 45.3574 0.0000 -5.9672 0.0000
# 4 0.0000 0.0000 0.0000 33.0526 0.0000 1.2186
# 5 -11.1645 4.6466 -5.9672 0.0000 34.2378 0.0000
# 6 0.0000 0.0000 0.0000 1.2186 0.0000 35.9461
#
#
#
# Elastic Compliance Matrix: (Units=1/GPa)
#
#
# Indices 1 2 3 4 5 6 
#
# 1 0.011572 -0.003835 0.002185 0.000000 0.004675 0.000000
# 2 -0.003835 0.009236 -0.001944 0.000000 -0.002843 0.000000
# 3 0.002185 -0.001944 0.023164 0.000000 0.005014 0.000000
# 4 0.000000 0.000000 0.000000 0.030293 0.000000 -0.001027
# 5 0.004675 -0.002843 0.005014 0.000000 0.031991 0.000000
# 6 0.000000 0.000000 0.000000 -0.001027 0.000000 0.027854
#
#
# Mechanical properties :
#
#
# Convention : Reuss Voigt Hill
#
# Bulk Modulus (GPa) = 27.18603 39.90846 33.54725
# Shear Modulus (GPa) = 32.56058 36.40074 34.48066
#
# Velocity S-wave (km/s) = 3.72514 3.93869 3.83340
# Velocity P-wave (km/s) = 5.48528 6.13942 5.82155
#
# Compressibility (1/GPa) = 0.03678360
#
# Stress axis : x y z
#
# Youngs Moduli (GPa) = 86.41908 108.26739 43.17031
#
# Poissons Ratio (x) = 0.41518 -0.09433
# Poissons Ratio (y) = 0.33139 0.08394
# Poissons Ratio (z) = -0.18883 0.21052
#
# Static dielectric constant tensor:
#      x y z
#    x 1.899740 0.000000 0.005850 
#    y 0.000000 -0.359620 0.000000 
#    z 0.005850 0.000000 1.805330 
# 
# From -- ./inp_files/310200.got.cif
#   From: 2010.05.17/outbox.cif.g08.bks.cpg/sg15_156_cif.got.tgz:310200.got - 2010.06.03 18:47:42.
