data_PCOD9285441
_publ_section_title
;
Structure prediction by ZEFSAII (Michael W. Deem and Ramdas Pophale) SiO2 
 PCOD9285441
Probable space group: C 2/C
;
_chemical_formula_sum "Si O2"
_cell_formula_units_Z 28
_cell_length_a 8.794309
_cell_length_b 26.956293
_cell_length_c 5.097741
_cell_angle_alpha 90.000000
_cell_angle_beta 66.334681
_cell_angle_gamma 90.000000
_cell_volume 1106.854229
_symmetry_space_group_name_H-M "C 2/C"
_symmetry_group_IT_number 15
_symmetry_cell_setting 'monoclinic'
loop_
_space_group_symop_operation_xyz
x,y,z
-x,y,1/2-z
-x,-y,-z
x,-y,1/2+z
1/2+x,1/2+y,z
1/2-x,1/2+y,1/2-z
1/2-x,1/2-y,-z
1/2+x,1/2-y,1/2+z
loop_
_atom_site_type_symbol
_atom_site_label
_atom_site_fract_x
_atom_site_fract_y
_atom_site_fract_z
Si Si1 0.500000 0.535895 0.250000
Si Si2 0.500000 0.102049 0.250000
Si Si3 0.200593 0.679967 0.439888
Si Si4 0.000000 0.229601 0.250000
Si Si5 0.180681 0.102797 0.770625
O O1 0.500000 0.500000 0.500000
O O2 0.352122 0.572884 0.435495
O O3 0.589415 0.138245 0.392928
O O4 0.337904 0.078426 0.506890
O O5 0.373437 0.694222 0.186286
O O6 0.259347 0.657472 0.679791
O O7 0.101411 0.731268 0.508100
O O8 0.000000 0.101894 0.750000
#
# Coordination Sequence:
#
# PCOD9285441 Si02
#       5
#     4   4   8   4   8
#     4  12  27  52  84 119 148 196 249 316 395 478
#     4  12  24  44  72 110 146 210 258 308 386 454
#     4  11  23  42  64 104 150 206 257 316 372 443
#     4  10  21  42  60  99 154 200 271 312 363 432
#     4  12  25  48  78 108 155 199 252 312 395 457
#
# _framework density 25.296916
#
# number of rings (size 3 to 8) (size 9 to 14) (size 15 to 20)
#    0.000    0.571    4.286    4.286    0.000    1.143 
#   10.286    1.429    0.000    0.000    0.000    0.000 
#    0.000    0.000    0.000    0.000    0.000    0.000 
#
# Total GULP energy -78047.618172 kJ/mol
# GULP energy per Si atom -5574.829869 kJ/mol
# Density = 2.523934 g / cm^3
# Si number density = 25.296916 Si / 1000 Ang^3
#
#
#
# Elastic Constant Matrix: (Units=GPa)
#
#
# Indices 1 2 3 4 5 6 
#
# 1 167.1710 33.0939 66.0577 0.0000 -20.9268 0.0000
# 2 33.0939 70.3308 33.1525 0.0000 -5.9519 0.0000
# 3 66.0577 33.1525 171.5957 0.0000 -39.5155 0.0000
# 4 0.0000 0.0000 0.0000 15.2408 0.0000 -1.6359
# 5 -20.9268 -5.9519 -39.5155 0.0000 59.7631 0.0000
# 6 0.0000 0.0000 0.0000 -1.6359 0.0000 10.5225
#
#
#
# Elastic Compliance Matrix: (Units=1/GPa)
#
#
# Indices 1 2 3 4 5 6 
#
# 1 0.007435 -0.002389 -0.002189 0.000000 0.000918 0.000000
# 2 -0.002389 0.016424 -0.002441 0.000000 -0.000815 0.000000
# 3 -0.002189 -0.002441 0.008151 0.000000 0.004379 0.000000
# 4 0.000000 0.000000 0.000000 0.066727 0.000000 0.010374
# 5 0.000918 -0.000815 0.004379 0.000000 0.019869 0.000000
# 6 0.000000 0.000000 0.000000 0.010374 0.000000 0.096647
#
#
# Mechanical properties :
#
#
# Convention : Reuss Voigt Hill
#
# Bulk Modulus (GPa) = 55.64456 74.85619 65.25037
# Shear Modulus (GPa) = 21.25118 35.55819 28.40468
#
# Velocity S-wave (km/s) = 2.90154 3.75325 3.35453
# Velocity P-wave (km/s) = 5.76798 6.95972 6.39169
#
# Compressibility (1/GPa) = 0.01797121
#
# Stress axis : x y z
#
# Youngs Moduli (GPa) = 134.50331 60.88522 122.69068
#
# Poissons Ratio (x) = 0.14544 0.26859
# Poissons Ratio (y) = 0.32130 0.29952
# Poissons Ratio (z) = 0.29445 0.14864
#
# Static dielectric constant tensor:
#      x y z
#    x 2.059840 0.000000 -0.009340 
#    y 0.000000 2.012840 0.000000 
#    z -0.009340 0.000000 2.155240 
# 
# From -- ./inp_files/2296.got.cif
#   From: 2010.05.17/outbox.cif.g08.bks.cpg/sg15_2_cif.got.tgz:2296.got - 2010.06.03 18:47:42.
