data_PCOD9285587
_publ_section_title
;
Structure prediction by ZEFSAII (Michael W. Deem and Ramdas Pophale) SiO2 
 PCOD9285587
Probable space group: C 2/C
;
_chemical_formula_sum "Si O2"
_cell_formula_units_Z 52
_cell_length_a 12.622303
_cell_length_b 15.157902
_cell_length_c 14.519367
_cell_angle_alpha 90.000000
_cell_angle_beta 69.914405
_cell_angle_gamma 90.000000
_cell_volume 2609.002546
_symmetry_space_group_name_H-M "C 2/C"
_symmetry_group_IT_number 15
_symmetry_cell_setting 'monoclinic'
loop_
_space_group_symop_operation_xyz
x,y,z
-x,y,1/2-z
-x,-y,-z
x,-y,1/2+z
1/2+x,1/2+y,z
1/2-x,1/2+y,1/2-z
1/2-x,1/2-y,-z
1/2+x,1/2-y,1/2+z
loop_
_atom_site_type_symbol
_atom_site_label
_atom_site_fract_x
_atom_site_fract_y
_atom_site_fract_z
Si Si1 0.178049 0.761969 0.930051
Si Si2 0.230654 0.122908 0.732276
Si Si3 0.970441 0.467772 0.151826
Si Si4 0.000000 0.980834 0.250000
Si Si5 0.181920 0.791431 0.436053
Si Si6 0.466197 0.861262 0.536979
Si Si7 0.483801 0.585550 0.067406
O O1 0.244738 0.713989 0.828374
O O2 0.131153 0.859123 0.917978
O O3 0.250000 0.750000 0.000000
O O4 0.070536 0.701910 0.985825
O O5 0.339074 0.060896 0.679308
O O6 0.112893 0.079374 0.732167
O O7 0.230206 0.146659 0.841005
O O8 0.986054 0.565878 0.108303
O O9 0.000000 0.457579 0.250000
O O10 0.046871 0.409769 0.058506
O O11 0.999451 0.046313 0.163624
O O12 0.250000 0.750000 0.500000
O O13 0.132623 0.703490 0.403501
O O14 0.082845 0.847494 0.512359
O O15 0.500000 0.500000 0.000000
#
# Coordination Sequence:
#
# PCOD9285587 Si02
#       7
#     8   8   8   4   8   8   8
#     4  10  23  43  67  94 130 175 222 273 332 398
#     4  11  25  41  67  98 133 175 221 277 338 396
#     4  10  21  42  64  93 127 166 216 271 326 386
#     4  12  26  44  68 100 144 174 228 280 336 422
#     4  11  24  42  65  93 131 169 218 271 328 399
#     4   9  22  40  61  93 123 161 215 261 323 381
#     4  11  24  45  67  97 132 179 222 276 341 395
#
# _framework density 19.930987999999999
#
# number of rings (size 3 to 8) (size 9 to 14) (size 15 to 20)
#    0.000    1.538    1.538    1.846    6.462    2.462 
#    8.308    0.000    0.000    0.000    0.000    0.000 
#    0.000    0.000    0.000    0.000    0.000    0.000 
#
# Total GULP energy -144924.498771 kJ/mol
# GULP energy per Si atom -5574.019184 kJ/mol
# Density = 1.988562 g / cm^3
# Si number density = 19.930988 Si / 1000 Ang^3
#
#
#
# Elastic Constant Matrix: (Units=GPa)
#
#
# Indices 1 2 3 4 5 6 
#
# 1 71.6011 46.0941 36.5070 0.0000 13.1891 0.0000
# 2 46.0941 124.6681 33.9881 0.0000 4.8520 0.0000
# 3 36.5070 33.9881 107.1800 0.0000 17.0030 0.0000
# 4 0.0000 0.0000 0.0000 40.4816 0.0000 1.1260
# 5 13.1891 4.8520 17.0030 0.0000 33.4911 0.0000
# 6 0.0000 0.0000 0.0000 1.1260 0.0000 31.6429
#
#
#
# Elastic Compliance Matrix: (Units=1/GPa)
#
#
# Indices 1 2 3 4 5 6 
#
# 1 0.021346 -0.006494 -0.004380 0.000000 -0.005242 0.000000
# 2 -0.006494 0.010757 -0.001477 0.000000 0.001749 0.000000
# 3 -0.004380 -0.001477 0.011945 0.000000 -0.004125 0.000000
# 4 0.000000 0.000000 0.000000 0.024727 0.000000 -0.000880
# 5 -0.005242 0.001749 -0.004125 0.000000 0.033764 0.000000
# 6 0.000000 0.000000 0.000000 -0.000880 0.000000 0.031634
#
#
# Mechanical properties :
#
#
# Convention : Reuss Voigt Hill
#
# Bulk Modulus (GPa) = 51.68957 59.62529 55.65743
# Shear Modulus (GPa) = 30.24407 33.58044 31.91225
#
# Velocity S-wave (km/s) = 3.89966 4.10913 4.00576
# Velocity P-wave (km/s) = 6.80199 7.24528 7.02713
#
# Compressibility (1/GPa) = 0.01934626
#
# Stress axis : x y z
#
# Youngs Moduli (GPa) = 46.84812 92.96346 83.72012
#
# Poissons Ratio (x) = 0.60372 0.36667
# Poissons Ratio (y) = 0.30424 0.12362
# Poissons Ratio (z) = 0.20518 0.13727
#
# Static dielectric constant tensor:
#      x y z
#    x 1.704820 0.000000 -0.006430 
#    y 0.000000 1.894020 0.000000 
#    z -0.006430 0.000000 1.699900 
# 
# From -- ./inp_files/144144.got.cif
#   From: 2010.05.17/outbox.cif.g08.bks.cpg/sg15_73_cif.got.tgz:144144.got - 2010.06.03 18:47:42.
