data_PCOD9285829
_publ_section_title
;
Structure prediction by ZEFSAII (Michael W. Deem and Ramdas Pophale) SiO2 
 PCOD9285829
Probable space group: C 2/C
;
_chemical_formula_sum "Si O2"
_cell_formula_units_Z 40
_cell_length_a 15.284751
_cell_length_b 26.575835
_cell_length_c 9.232098
_cell_angle_alpha 90.000000
_cell_angle_beta 32.690435
_cell_angle_gamma 90.000000
_cell_volume 2025.441638
_symmetry_space_group_name_H-M "C 2/C"
_symmetry_group_IT_number 15
_symmetry_cell_setting 'monoclinic'
loop_
_space_group_symop_operation_xyz
x,y,z
-x,y,1/2-z
-x,-y,-z
x,-y,1/2+z
1/2+x,1/2+y,z
1/2-x,1/2+y,1/2-z
1/2-x,1/2-y,-z
1/2+x,1/2-y,1/2+z
loop_
_atom_site_type_symbol
_atom_site_label
_atom_site_fract_x
_atom_site_fract_y
_atom_site_fract_z
Si Si1 0.586576 0.709563 0.476548
Si Si2 0.345769 0.122305 0.065005
Si Si3 0.148403 0.209010 0.956831
Si Si4 0.682199 0.596543 0.017666
Si Si5 0.023252 0.446697 0.545781
O O1 0.721778 0.665763 0.284514
O O2 0.691224 0.758327 0.284383
O O3 0.439566 0.697738 0.572148
O O4 0.500000 0.716993 0.750000
O O5 0.410638 0.092964 0.114893
O O6 0.500000 0.138950 0.750000
O O7 0.249346 0.087107 0.085123
O O8 0.185910 0.157064 0.986895
O O9 0.000000 0.235300 0.250000
O O10 0.796667 0.571676 0.741030
O O11 0.500000 0.579874 0.250000
O O12 0.000000 0.448779 0.750000
O O13 0.000000 0.500000 0.500000
#
# Coordination Sequence:
#
# PCOD9285829 Si02
#       5
#     8   8   8   8   8
#     4  12  25  38  59  95 135 171 224 269 322 374
#     4  10  22  41  65  91 129 172 215 265 323 385
#     4  11  23  40  62  90 131 180 222 262 318 384
#     4  10  21  42  67  95 131 169 220 264 318 385
#     4  11  25  45  72  99 129 165 213 266 335 391
#
# _framework density 19.748778999999999
#
# number of rings (size 3 to 8) (size 9 to 14) (size 15 to 20)
#    0.000    1.200    4.000    3.600    8.400    0.800 
#    0.000    5.000    0.000    0.000    0.000    0.000 
#    0.000    0.000    0.000    0.000    0.000    0.000 
#
# Total GULP energy -111663.212710 kJ/mol
# GULP energy per Si atom -5583.160636 kJ/mol
# Density = 1.970383 g / cm^3
# Si number density = 19.748779 Si / 1000 Ang^3
#
#
#
# Elastic Constant Matrix: (Units=GPa)
#
#
# Indices 1 2 3 4 5 6 
#
# 1 140.2396 22.7533 57.8740 0.0000 10.6998 0.0000
# 2 22.7533 60.0292 32.6668 0.0000 3.1217 0.0000
# 3 57.8740 32.6668 134.6461 0.0000 8.7550 0.0000
# 4 0.0000 0.0000 0.0000 14.7170 0.0000 7.0497
# 5 10.6998 3.1217 8.7550 0.0000 44.1281 0.0000
# 6 0.0000 0.0000 0.0000 7.0497 0.0000 14.1193
#
#
#
# Elastic Compliance Matrix: (Units=1/GPa)
#
#
# Indices 1 2 3 4 5 6 
#
# 1 0.008861 -0.001455 -0.003366 0.000000 -0.001378 0.000000
# 2 -0.001455 0.019440 -0.004077 0.000000 -0.000213 0.000000
# 3 -0.003366 -0.004077 0.009919 0.000000 -0.000863 0.000000
# 4 0.000000 0.000000 0.000000 0.089309 0.000000 -0.044591
# 5 -0.001378 -0.000213 -0.000863 0.000000 0.023182 0.000000
# 6 0.000000 0.000000 0.000000 -0.044591 0.000000 0.093089
#
#
# Mechanical properties :
#
#
# Convention : Reuss Voigt Hill
#
# Bulk Modulus (GPa) = 48.96369 62.38923 55.67646
# Shear Modulus (GPa) = 18.62864 29.36759 23.99812
#
# Velocity S-wave (km/s) = 3.07462 3.86042 3.48971
# Velocity P-wave (km/s) = 6.11976 7.17848 6.67016
#
# Compressibility (1/GPa) = 0.02042330
#
# Stress axis : x y z
#
# Youngs Moduli (GPa) = 112.85453 51.44063 100.81747
#
# Poissons Ratio (x) = 0.07486 0.33935
# Poissons Ratio (y) = 0.16424 0.41103
# Poissons Ratio (z) = 0.37987 0.20972
#
# Static dielectric constant tensor:
#      x y z
#    x 1.737060 0.000000 0.003620 
#    y 0.000000 1.714170 0.000000 
#    z 0.003620 0.000000 1.683260 
# 
# From -- ./inp_files/25379.got.cif
#   From: 2010.05.17/outbox.cif.g08.bks.cpg/sg15_13_cif.got.tgz:25379.got - 2010.06.03 18:47:42.
