data_PCOD9285211
_publ_section_title
;
Structure prediction by ZEFSAII (Michael W. Deem and Ramdas Pophale) SiO2 
 PCOD9285211
Probable space group: C 2/C
;
_chemical_formula_sum "Si O2"
_cell_formula_units_Z 64
_cell_length_a 20.499383
_cell_length_b 17.998986
_cell_length_c 13.715323
_cell_angle_alpha 90.000000
_cell_angle_beta 30.826551
_cell_angle_gamma 90.000000
_cell_volume 2593.215536
_symmetry_space_group_name_H-M "C 2/C"
_symmetry_group_IT_number 15
_symmetry_cell_setting 'monoclinic'
loop_
_space_group_symop_operation_xyz
x,y,z
-x,y,1/2-z
-x,-y,-z
x,-y,1/2+z
1/2+x,1/2+y,z
1/2-x,1/2+y,1/2-z
1/2-x,1/2-y,-z
1/2+x,1/2-y,1/2+z
loop_
_atom_site_type_symbol
_atom_site_label
_atom_site_fract_x
_atom_site_fract_y
_atom_site_fract_z
Si Si1 0.099145 0.857030 0.211010
Si Si2 0.581268 0.060232 0.735474
Si Si3 0.033227 0.717821 0.088637
Si Si4 0.663928 0.654596 0.096586
Si Si5 0.338921 0.901490 0.831937
Si Si6 0.239931 0.744668 0.341672
Si Si7 0.326049 0.915375 0.642373
Si Si8 0.390991 0.518856 0.215925
O O1 0.037400 0.793373 0.356011
O O2 0.000000 0.863965 0.250000
O O3 0.122697 0.939567 0.217235
O O4 0.243961 0.839482 0.996351
O O5 0.500000 0.091521 0.750000
O O6 0.699686 0.113570 0.600692
O O7 0.625450 0.976190 0.657835
O O8 0.469338 0.055468 0.957229
O O9 0.965937 0.642772 0.142969
O O10 0.000000 0.717030 0.250000
O O11 0.170860 0.722106 0.859334
O O12 0.643783 0.699833 0.021903
O O13 0.679189 0.710727 0.169585
O O14 0.582046 0.585400 0.242568
O O15 0.271305 0.928306 0.819788
O O16 0.174937 0.672282 0.378817
O O17 0.233142 0.953864 0.684325
O O18 0.500000 0.500000 0.000000
#
# Coordination Sequence:
#
# PCOD9285211 Si02
#       8
#     8   8   8   8   8   8   8   8
#     4  11  22  41  67  94 136 181 230 286 348 423
#     4  12  21  42  68 102 139 183 231 294 360 427
#     4  11  24  43  68  98 139 188 237 296 357 426
#     4  10  21  41  71 100 136 182 235 294 358 423
#     4  12  24  41  66 101 137 182 241 286 356 429
#     4  10  21  41  68  94 135 181 232 292 356 425
#     4  11  23  41  68 100 138 189 228 296 363 420
#     4  11  21  40  69  99 139 181 232 290 357 424
#
# _framework density 24.679784999999999
#
# number of rings (size 3 to 8) (size 9 to 14) (size 15 to 20)
#    0.000    1.000    3.750    5.625    0.000    0.000 
#    0.000    1.250   13.750    0.000    0.000    0.000 
#    0.000    0.000    0.000    0.000    0.000    0.000 
#
# Total GULP energy -178556.292629 kJ/mol
# GULP energy per Si atom -5579.884145 kJ/mol
# Density = 2.462361 g / cm^3
# Si number density = 24.679785 Si / 1000 Ang^3
#
#
#
# Elastic Constant Matrix: (Units=GPa)
#
#
# Indices 1 2 3 4 5 6 
#
# 1 57.4768 18.3469 19.3040 0.0000 9.3343 0.0000
# 2 18.3469 93.5507 28.3437 0.0000 -2.4697 0.0000
# 3 19.3040 28.3437 137.1348 0.0000 7.3267 0.0000
# 4 0.0000 0.0000 0.0000 38.0644 0.0000 -11.4257
# 5 9.3343 -2.4697 7.3267 0.0000 30.9544 0.0000
# 6 0.0000 0.0000 0.0000 -11.4257 0.0000 27.0978
#
#
#
# Elastic Compliance Matrix: (Units=1/GPa)
#
#
# Indices 1 2 3 4 5 6 
#
# 1 0.020093 -0.003559 -0.001776 0.000000 -0.005922 0.000000
# 2 -0.003559 0.012102 -0.002136 0.000000 0.002544 0.000000
# 3 -0.001776 -0.002136 0.008066 0.000000 -0.001544 0.000000
# 4 0.000000 0.000000 0.000000 0.030078 0.000000 0.012682
# 5 -0.005922 0.002544 -0.001544 0.000000 0.034660 0.000000
# 6 0.000000 0.000000 0.000000 0.012682 0.000000 0.042251
#
#
# Mechanical properties :
#
#
# Convention : Reuss Voigt Hill
#
# Bulk Modulus (GPa) = 39.49774 46.68352 43.09063
# Shear Modulus (GPa) = 29.30293 34.03450 31.66871
#
# Velocity S-wave (km/s) = 3.44950 3.71758 3.58604
# Velocity P-wave (km/s) = 5.64838 6.11424 5.88592
#
# Compressibility (1/GPa) = 0.02531790
#
# Stress axis : x y z
#
# Youngs Moduli (GPa) = 49.76934 82.63300 123.97445
#
# Poissons Ratio (x) = 0.29406 0.22023
# Poissons Ratio (y) = 0.17711 0.26484
# Poissons Ratio (z) = 0.08841 0.17652
#
# Static dielectric constant tensor:
#      x y z
#    x 2.014340 0.000000 0.151110 
#    y 0.000000 2.041690 0.000000 
#    z 0.151110 0.000000 1.483850 
# 
# From -- ./inp_files/174232.got.cif
#   From: 2010.05.17/outbox.cif.g08.bks.cpg/sg15_88_cif.got.tgz:174232.got - 2010.06.03 18:47:42.
