data_PCOD9285383
_publ_section_title
;
Structure prediction by ZEFSAII (Michael W. Deem and Ramdas Pophale) SiO2 
 PCOD9285383
Probable space group: C 2/C
;
_chemical_formula_sum "Si O2"
_cell_formula_units_Z 48
_cell_length_a 12.285299
_cell_length_b 9.781854
_cell_length_c 17.271675
_cell_angle_alpha 90.000000
_cell_angle_beta 76.888840
_cell_angle_gamma 90.000000
_cell_volume 2021.482154
_symmetry_space_group_name_H-M "C 2/C"
_symmetry_group_IT_number 15
_symmetry_cell_setting 'monoclinic'
loop_
_space_group_symop_operation_xyz
x,y,z
-x,y,1/2-z
-x,-y,-z
x,-y,1/2+z
1/2+x,1/2+y,z
1/2-x,1/2+y,1/2-z
1/2-x,1/2-y,-z
1/2+x,1/2-y,1/2+z
loop_
_atom_site_type_symbol
_atom_site_label
_atom_site_fract_x
_atom_site_fract_y
_atom_site_fract_z
Si Si1 0.651572 0.726935 0.192320
Si Si2 0.864987 0.041568 0.883664
Si Si3 0.561760 0.777745 0.530381
Si Si4 0.671912 0.181568 0.854845
Si Si5 0.028554 0.505225 0.161901
Si Si6 0.186740 0.345655 0.950949
O O1 0.590961 0.597485 0.161628
O O2 0.649500 0.724094 0.284614
O O3 0.601060 0.869972 0.170683
O O4 0.776933 0.709195 0.139582
O O5 0.942386 0.133271 0.924235
O O6 0.800517 0.133951 0.831339
O O7 0.754121 0.987235 0.947827
O O8 0.857846 0.740236 0.556209
O O9 0.587177 0.053467 0.855261
O O10 0.585306 0.891620 0.592678
O O11 0.056658 0.329244 0.984026
O O12 0.000000 0.570008 0.250000
O O13 0.250000 0.250000 0.000000
#
# Coordination Sequence:
#
# PCOD9285383 Si02
#       6
#     8   8   8   8   8   8
#     4   9  23  45  66  97 148 185 229 293 359 419
#     4  10  25  44  66 106 136 184 244 280 363 419
#     4  12  24  43  78 103 138 183 246 293 348 441
#     4  11  22  43  68 104 139 186 232 291 360 422
#     4  10  21  41  72 101 137 190 230 285 362 420
#     4  10  23  46  70  97 143 184 230 293 358 416
#
# _framework density 23.744952999999999
#
# number of rings (size 3 to 8) (size 9 to 14) (size 15 to 20)
#    1.000    0.667    1.667    2.000    2.333    4.667 
#    3.000    5.833    0.000    0.000    0.000    0.000 
#    0.000    0.000    0.000    0.000    0.000    0.000 
#
# Total GULP energy -133918.230730 kJ/mol
# GULP energy per Si atom -5579.926280 kJ/mol
# Density = 2.369091 g / cm^3
# Si number density = 23.744953 Si / 1000 Ang^3
#
#
#
# Elastic Constant Matrix: (Units=GPa)
#
#
# Indices 1 2 3 4 5 6 
#
# 1 44.4901 22.9434 13.5672 0.0000 7.0641 0.0000
# 2 22.9434 101.3367 47.9373 0.0000 25.0876 0.0000
# 3 13.5672 47.9373 145.8236 0.0000 26.9089 0.0000
# 4 0.0000 0.0000 0.0000 26.8703 0.0000 2.2195
# 5 7.0641 25.0876 26.9089 0.0000 37.4124 0.0000
# 6 0.0000 0.0000 0.0000 2.2195 0.0000 34.5882
#
#
#
# Elastic Compliance Matrix: (Units=1/GPa)
#
#
# Indices 1 2 3 4 5 6 
#
# 1 0.025511 -0.005336 -0.000450 0.000000 -0.000915 0.000000
# 2 -0.005336 0.014028 -0.002958 0.000000 -0.006272 0.000000
# 3 -0.000450 -0.002958 0.008636 0.000000 -0.004143 0.000000
# 4 0.000000 0.000000 0.000000 0.037414 0.000000 -0.002401
# 5 -0.000915 -0.006272 -0.004143 0.000000 0.034088 0.000000
# 6 0.000000 0.000000 0.000000 -0.002401 0.000000 0.029066
#
#
# Mechanical properties :
#
#
# Convention : Reuss Voigt Hill
#
# Bulk Modulus (GPa) = 32.58740 51.17179 41.87959
# Shear Modulus (GPa) = 28.33478 33.58770 30.96124
#
# Velocity S-wave (km/s) = 3.45816 3.76509 3.61488
# Velocity P-wave (km/s) = 5.44967 6.36385 5.92442
#
# Compressibility (1/GPa) = 0.03068670
#
# Stress axis : x y z
#
# Youngs Moduli (GPa) = 39.19805 71.28529 115.78925
#
# Poissons Ratio (x) = 0.38041 0.05216
# Poissons Ratio (y) = 0.20918 0.34247
# Poissons Ratio (z) = 0.01766 0.21084
#
# Static dielectric constant tensor:
#      x y z
#    x 1.960820 0.000000 -0.016500 
#    y 0.000000 1.990700 0.000000 
#    z -0.016500 0.000000 1.945760 
# 
# From -- ./inp_files/300217.got.cif
#   From: 2010.05.17/outbox.cif.g08.bks.cpg/sg15_151_cif.got.tgz:300217.got - 2010.06.03 18:47:42.
