data_PCOD9285914
_publ_section_title
;
Structure prediction by ZEFSAII (Michael W. Deem and Ramdas Pophale) SiO2 
 PCOD9285914
Probable space group: C 2/C
;
_chemical_formula_sum "Si O2"
_cell_formula_units_Z 40
_cell_length_a 12.287361
_cell_length_b 27.050257
_cell_length_c 8.750714
_cell_angle_alpha 90.000000
_cell_angle_beta 37.004663
_cell_angle_gamma 90.000000
_cell_volume 1750.585911
_symmetry_space_group_name_H-M "C 2/C"
_symmetry_group_IT_number 15
_symmetry_cell_setting 'monoclinic'
loop_
_space_group_symop_operation_xyz
x,y,z
-x,y,1/2-z
-x,-y,-z
x,-y,1/2+z
1/2+x,1/2+y,z
1/2-x,1/2+y,1/2-z
1/2-x,1/2-y,-z
1/2+x,1/2-y,1/2+z
loop_
_atom_site_type_symbol
_atom_site_label
_atom_site_fract_x
_atom_site_fract_y
_atom_site_fract_z
Si Si1 0.282541 0.814878 0.823778
Si Si2 0.369218 0.977290 0.016605
Si Si3 0.401907 0.162018 0.723309
Si Si4 0.793586 0.063474 0.514703
Si Si5 0.388232 0.701790 0.669558
O O1 0.441068 0.847933 0.577337
O O2 0.372956 0.760190 0.721138
O O3 0.210886 0.824320 0.074734
O O4 0.097960 0.813324 0.931678
O O5 0.228535 0.948506 0.279625
O O6 0.500000 0.949543 0.750000
O O7 0.500000 0.000000 0.000000
O O8 0.274181 0.019559 0.020760
O O9 0.500000 0.191164 0.750000
O O10 0.325664 0.111591 0.877076
O O11 0.232460 0.189409 0.839872
O O12 0.000000 0.073635 0.250000
#
# Coordination Sequence:
#
# PCOD9285914 Si02
#       5
#     8   8   8   8   8
#     4  10  21  42  69  91 128 180 235 278 323 389
#     4   9  19  41  69  94 123 169 215 263 339 400
#     4  12  26  39  62  99 143 171 215 280 342 395
#     4  11  24  43  69  99 134 174 223 276 333 406
#     4  10  21  42  68  94 126 181 235 277 325 391
#
# _framework density 22.849494
#
# number of rings (size 3 to 8) (size 9 to 14) (size 15 to 20)
#    0.000    1.600    2.000    3.000    2.800    2.400 
#    0.000    0.000    4.400    0.000    0.000    0.000 
#    0.000    0.000    0.000    0.000    0.000    0.000 
#
# Total GULP energy -111768.660655 kJ/mol
# GULP energy per Si atom -5588.433033 kJ/mol
# Density = 2.279749 g / cm^3
# Si number density = 22.849494 Si / 1000 Ang^3
#
#
#
# Elastic Constant Matrix: (Units=GPa)
#
#
# Indices 1 2 3 4 5 6 
#
# 1 134.3143 16.2898 34.0833 0.0000 -13.6240 0.0000
# 2 16.2898 25.2691 24.3244 0.0000 -4.6168 0.0000
# 3 34.0833 24.3244 165.3284 0.0000 -18.5663 0.0000
# 4 0.0000 0.0000 0.0000 29.9535 0.0000 -0.0572
# 5 -13.6240 -4.6168 -18.5663 0.0000 43.6539 0.0000
# 6 0.0000 0.0000 0.0000 -0.0572 0.0000 28.1604
#
#
#
# Elastic Compliance Matrix: (Units=1/GPa)
#
#
# Indices 1 2 3 4 5 6 
#
# 1 0.008365 -0.004193 -0.000907 0.000000 0.001781 0.000000
# 2 -0.004193 0.048388 -0.006119 0.000000 0.001206 0.000000
# 3 -0.000907 -0.006119 0.007384 0.000000 0.002210 0.000000
# 4 0.000000 0.000000 0.000000 0.033385 0.000000 0.000068
# 5 0.001781 0.001206 0.002210 0.000000 0.024531 0.000000
# 6 0.000000 0.000000 0.000000 0.000068 0.000000 0.035511
#
#
# Mechanical properties :
#
#
# Convention : Reuss Voigt Hill
#
# Bulk Modulus (GPa) = 23.98267 52.70076 38.34171
# Shear Modulus (GPa) = 25.78603 37.03452 31.41027
#
# Velocity S-wave (km/s) = 3.36298 4.03029 3.71166
# Velocity P-wave (km/s) = 5.05947 6.69119 5.93171
#
# Compressibility (1/GPa) = 0.04169677
#
# Stress axis : x y z
#
# Youngs Moduli (GPa) = 119.54936 20.66620 135.42506
#
# Poissons Ratio (x) = 0.08666 0.12289
# Poissons Ratio (y) = 0.50132 0.82871
# Poissons Ratio (z) = 0.10848 0.12646
#
# Static dielectric constant tensor:
#      x y z
#    x 1.893160 0.000000 0.037130 
#    y 0.000000 1.860690 0.000000 
#    z 0.037130 0.000000 1.883810 
# 
# From -- ./inp_files/34974.got.cif
#   From: 2010.05.17/outbox.cif.g08.bks.cpg/sg15_18_cif.got.tgz:34974.got - 2010.06.03 18:47:42.
