data_PCOD9285418
_publ_section_title
;
Structure prediction by ZEFSAII (Michael W. Deem and Ramdas Pophale) SiO2 
 PCOD9285418
Probable space group: C 2/C
;
_chemical_formula_sum "Si O2"
_cell_formula_units_Z 48
_cell_length_a 16.890384
_cell_length_b 16.560122
_cell_length_c 14.791053
_cell_angle_alpha 90.000000
_cell_angle_beta 31.528019
_cell_angle_gamma 90.000000
_cell_volume 2163.384099
_symmetry_space_group_name_H-M "C 2/C"
_symmetry_group_IT_number 15
_symmetry_cell_setting 'monoclinic'
loop_
_space_group_symop_operation_xyz
x,y,z
-x,y,1/2-z
-x,-y,-z
x,-y,1/2+z
1/2+x,1/2+y,z
1/2-x,1/2+y,1/2-z
1/2-x,1/2-y,-z
1/2+x,1/2-y,1/2+z
loop_
_atom_site_type_symbol
_atom_site_label
_atom_site_fract_x
_atom_site_fract_y
_atom_site_fract_z
Si Si1 0.000000 0.782494 0.750000
Si Si2 0.255212 0.816437 0.371999
Si Si3 0.224720 0.841242 0.059829
Si Si4 0.500000 0.052204 0.250000
Si Si5 0.198304 0.864433 0.890939
Si Si6 0.363798 0.015591 0.701983
Si Si7 0.589066 0.733864 0.862944
O O1 0.895359 0.726852 0.785937
O O2 0.124715 0.833718 0.573509
O O3 0.307896 0.893195 0.263023
O O4 0.165071 0.763338 0.386605
O O5 0.155919 0.830027 0.225227
O O6 0.250000 0.750000 0.000000
O O7 0.376448 0.891707 0.917821
O O8 0.147675 0.877849 0.044558
O O9 0.577923 0.001442 0.252811
O O10 0.363437 0.820122 0.725730
O O11 0.228937 0.950610 0.815860
O O12 0.082029 0.798688 0.963904
O O13 0.500000 0.000000 0.500000
#
# Coordination Sequence:
#
# PCOD9285418 Si02
#       7
#     4   8   8   4   8   8   8
#     4  10  25  48  74  97 126 178 234 296 337 402
#     4  11  24  46  71  98 129 173 235 286 347 397
#     4   9  20  32  62  88 135 163 212 252 315 398
#     4  10  21  42  56  95 126 180 208 262 341 390
#     4  10  24  38  63  98 136 175 215 263 340 394
#     4  11  25  43  66  98 136 176 222 281 345 408
#     4  11  22  39  66  98 128 173 218 274 319 409
#
# _framework density 22.187460999999999
#
# number of rings (size 3 to 8) (size 9 to 14) (size 15 to 20)
#    0.000    1.667    0.000    3.000   18.667    0.667 
#    9.000    0.000    0.000    0.000    0.000    0.000 
#    0.000    0.000    0.000    0.000    0.000    0.000 
#
# Total GULP energy -133777.494172 kJ/mol
# GULP energy per Si atom -5574.062257 kJ/mol
# Density = 2.213696 g / cm^3
# Si number density = 22.187461 Si / 1000 Ang^3
#
#
#
# Elastic Constant Matrix: (Units=GPa)
#
#
# Indices 1 2 3 4 5 6 
#
# 1 105.4085 -9.6229 11.9539 0.0000 -10.4560 0.0006
# 2 -9.6229 32.9644 10.2003 0.0006 2.5244 -0.0001
# 3 11.9539 10.2003 117.9492 0.0011 13.4321 -0.0002
# 4 0.0000 0.0006 0.0011 32.0573 -0.0008 1.7706
# 5 -10.4560 2.5244 13.4321 -0.0008 33.2835 0.0001
# 6 0.0006 -0.0001 -0.0002 1.7706 0.0001 17.6317
#
#
#
# Elastic Compliance Matrix: (Units=1/GPa)
#
#
# Indices 1 2 3 4 5 6 
#
# 1 0.010354 0.003282 -0.001756 0.000000 0.003712 0.000000
# 2 0.003282 0.032267 -0.003104 0.000000 -0.000164 0.000000
# 3 -0.001756 -0.003104 0.009392 0.000000 -0.004107 0.000000
# 4 0.000000 0.000000 0.000000 0.031368 0.000001 -0.003150
# 5 0.003712 -0.000164 -0.004107 0.000001 0.032881 0.000000
# 6 0.000000 0.000000 0.000000 -0.003150 0.000000 0.057032
#
#
# Mechanical properties :
#
#
# Convention : Reuss Voigt Hill
#
# Bulk Modulus (GPa) = 20.46854 31.26497 25.86676
# Shear Modulus (GPa) = 25.94208 32.84723 29.39466
#
# Velocity S-wave (km/s) = 3.42310 3.85182 3.64377
# Velocity P-wave (km/s) = 4.98686 5.82271 5.42092
#
# Compressibility (1/GPa) = 0.04885547
#
# Stress axis : x y z
#
# Youngs Moduli (GPa) = 96.58242 30.99156 106.47007
#
# Poissons Ratio (x) = -0.10170 0.18695
# Poissons Ratio (y) = -0.31694 0.33053
# Poissons Ratio (z) = 0.16959 0.09621
#
# Static dielectric constant tensor:
#      x y z
#    x 1.746560 0.000000 -0.106250 
#    y 0.000000 1.756940 0.000000 
#    z -0.106250 0.000000 1.832790 
# 
# From -- ./inp_files/48389.got.cif
#   From: 2010.05.17/outbox.cif.g08.bks.cpg/sg15_25_cif.got.tgz:48389.got - 2010.06.03 18:47:42.
