data_PCOD9285511
_publ_section_title
;
Structure prediction by ZEFSAII (Michael W. Deem and Ramdas Pophale) SiO2 
 PCOD9285511
Probable space group: C 2/C
;
_chemical_formula_sum "Si O2"
_cell_formula_units_Z 32
_cell_length_a 26.509069
_cell_length_b 10.098033
_cell_length_c 9.573499
_cell_angle_alpha 90.000000
_cell_angle_beta 146.887551
_cell_angle_gamma 90.000000
_cell_volume 1399.975417
_symmetry_space_group_name_H-M "C 2/C"
_symmetry_group_IT_number 15
_symmetry_cell_setting 'monoclinic'
loop_
_space_group_symop_operation_xyz
x,y,z
-x,y,1/2-z
-x,-y,-z
x,-y,1/2+z
1/2+x,1/2+y,z
1/2-x,1/2+y,1/2-z
1/2-x,1/2-y,-z
1/2+x,1/2-y,1/2+z
loop_
_atom_site_type_symbol
_atom_site_label
_atom_site_fract_x
_atom_site_fract_y
_atom_site_fract_z
Si Si1 0.604508 0.925677 0.487156
Si Si2 0.795413 0.380067 0.484410
Si Si3 0.134971 0.109545 0.817273
Si Si4 0.056556 0.857014 0.749555
O O1 0.500000 0.980909 0.250000
O O2 0.642196 0.903613 0.730996
O O3 0.593551 0.785829 0.380356
O O4 0.670669 0.021438 0.554623
O O5 0.812732 0.227423 0.481027
O O6 0.692240 0.396584 0.304965
O O7 0.028274 0.154743 0.556422
O O8 0.129528 0.962471 0.864585
O O9 0.000000 0.914875 0.750000
#
# Coordination Sequence:
#
# PCOD9285511 Si02
#       4
#     8   8   8   8
#     4  11  23  42  66  90 130 163 205 256 312 365
#     4  11  24  42  65  94 125 162 211 256 304 371
#     4  10  23  40  62  91 122 164 208 254 307 366
#     4  10  21  42  63  85 129 164 201 257 314 359
#
# _framework density 22.857544999999998
#
# number of rings (size 3 to 8) (size 9 to 14) (size 15 to 20)
#    0.000    1.500    5.000    0.750    3.500    2.000 
#    4.500    0.000    0.000    0.000    0.000    0.000 
#    0.000    0.000    0.000    0.000    0.000    0.000 
#
# Total GULP energy -89437.899828 kJ/mol
# GULP energy per Si atom -5589.868739 kJ/mol
# Density = 2.280552 g / cm^3
# Si number density = 22.857545 Si / 1000 Ang^3
#
#
#
# Elastic Constant Matrix: (Units=GPa)
#
#
# Indices 1 2 3 4 5 6 
#
# 1 61.4262 68.2474 7.8912 0.0000 31.8583 0.0000
# 2 68.2474 109.5088 12.2215 0.0000 33.7930 0.0000
# 3 7.8912 12.2215 109.8364 0.0000 24.0858 0.0000
# 4 0.0000 0.0000 0.0000 21.1152 0.0000 15.2858
# 5 31.8583 33.7930 24.0858 0.0000 36.3872 0.0000
# 6 0.0000 0.0000 0.0000 15.2858 0.0000 58.2100
#
#
#
# Elastic Compliance Matrix: (Units=1/GPa)
#
#
# Indices 1 2 3 4 5 6 
#
# 1 0.073100 -0.035335 0.006456 0.000000 -0.035459 0.000000
# 2 -0.035335 0.030063 -0.001718 0.000000 0.004155 0.000000
# 3 0.006456 -0.001718 0.011372 0.000000 -0.011585 0.000000
# 4 0.000000 0.000000 0.000000 0.058475 0.000000 -0.015355
# 5 -0.035459 0.004155 -0.011585 0.000000 0.062337 0.000000
# 6 0.000000 0.000000 0.000000 -0.015355 0.000000 0.021211
#
#
# Mechanical properties :
#
#
# Convention : Reuss Voigt Hill
#
# Bulk Modulus (GPa) = 18.74754 50.83241 34.78997
# Shear Modulus (GPa) = 14.90161 35.96990 25.43575
#
# Velocity S-wave (km/s) = 2.55607 3.97124 3.33948
# Velocity P-wave (km/s) = 4.11473 6.58139 5.48843
#
# Compressibility (1/GPa) = 0.05334033
#
# Stress axis : x y z
#
# Youngs Moduli (GPa) = 13.67983 33.26372 87.93453
#
# Poissons Ratio (x) = 1.17539 -0.56767
# Poissons Ratio (y) = 0.48338 0.15103
# Poissons Ratio (z) = -0.08831 0.05713
#
# Static dielectric constant tensor:
#      x y z
#    x 1.808480 0.000000 -0.043330 
#    y 0.000000 1.829590 0.000000 
#    z -0.043330 0.000000 2.037230 
# 
# From -- ./inp_files/36577.got.cif
#   From: 2010.05.17/outbox.cif.g08.bks.cpg/sg15_19_cif.got.tgz:36577.got - 2010.06.03 18:47:42.
