data_PCOD9285854
_publ_section_title
;
Structure prediction by ZEFSAII (Michael W. Deem and Ramdas Pophale) SiO2 
 PCOD9285854
Probable space group: C 2/C
;
_chemical_formula_sum "Si O2"
_cell_formula_units_Z 56
_cell_length_a 27.230771
_cell_length_b 5.424230
_cell_length_c 16.789277
_cell_angle_alpha 90.000000
_cell_angle_beta 72.654431
_cell_angle_gamma 90.000000
_cell_volume 2367.101470
_symmetry_space_group_name_H-M "C 2/C"
_symmetry_group_IT_number 15
_symmetry_cell_setting 'monoclinic'
loop_
_space_group_symop_operation_xyz
x,y,z
-x,y,1/2-z
-x,-y,-z
x,-y,1/2+z
1/2+x,1/2+y,z
1/2-x,1/2+y,1/2-z
1/2-x,1/2-y,-z
1/2+x,1/2-y,1/2+z
loop_
_atom_site_type_symbol
_atom_site_label
_atom_site_fract_x
_atom_site_fract_y
_atom_site_fract_z
Si Si1 0.056003 0.437098 0.535464
Si Si2 0.796135 0.327830 0.356423
Si Si3 0.288433 0.533656 0.012987
Si Si4 0.894890 0.042688 0.543683
Si Si5 0.632572 0.592394 0.275443
Si Si6 0.533528 0.932548 0.310305
Si Si7 0.608224 0.202161 0.175238
O O1 0.063660 0.181460 0.483301
O O2 0.082901 0.362775 0.605271
O O3 0.999170 0.506602 0.595419
O O4 0.082873 0.690467 0.492528
O O5 0.740716 0.448886 0.392549
O O6 0.842394 0.525428 0.342468
O O7 0.792877 0.156936 0.437313
O O8 0.811312 0.210613 0.264338
O O9 0.347200 0.559539 0.013445
O O10 0.250000 0.750000 0.000000
O O11 0.873062 0.069314 0.643589
O O12 0.583258 0.768632 0.303535
O O13 0.627285 0.467356 0.191333
O O14 0.500000 0.833842 0.250000
O O15 0.561357 0.170750 0.260628
#
# Coordination Sequence:
#
# PCOD9285854 Si02
#       7
#     8   8   8   8   8   8   8
#     4  11  25  46  70 102 144 192 236 292 344 437
#     4  10  21  42  67  98 131 177 244 285 354 410
#     4  11  23  44  73 101 132 190 242 291 342 431
#     4  12  28  45  69 106 151 185 237 294 363 413
#     4  11  25  43  70 102 147 184 227 306 362 418
#     4   9  23  41  70 103 133 185 247 287 350 426
#     4  10  21  43  70  98 135 185 239 292 349 422
#
# _framework density 23.657623000000001
#
# number of rings (size 3 to 8) (size 9 to 14) (size 15 to 20)
#    0.000    1.429    1.429    2.571   12.000    1.714 
#    5.143    0.000    0.000    0.000    0.000    0.000 
#    0.000    0.000    0.000    0.000    0.000    0.000 
#
# Total GULP energy -155932.573383 kJ/mol
# GULP energy per Si atom -5569.020478 kJ/mol
# Density = 2.360378 g / cm^3
# Si number density = 23.657623 Si / 1000 Ang^3
#
#
#
# Elastic Constant Matrix: (Units=GPa)
#
#
# Indices 1 2 3 4 5 6 
#
# 1 61.2798 10.1849 25.4755 0.0000 -20.7773 0.0000
# 2 10.1849 74.8411 50.2610 0.0000 -15.9996 0.0000
# 3 25.4755 50.2610 162.1062 0.0000 -44.0027 0.0000
# 4 0.0000 0.0000 0.0000 30.3512 0.0000 -3.1450
# 5 -20.7773 -15.9996 -44.0027 0.0000 43.6679 0.0000
# 6 0.0000 0.0000 0.0000 -3.1450 0.0000 12.2083
#
#
#
# Elastic Compliance Matrix: (Units=1/GPa)
#
#
# Indices 1 2 3 4 5 6 
#
# 1 0.019534 -0.000415 -0.000632 0.000000 0.008505 0.000000
# 2 -0.000415 0.016934 -0.004893 0.000000 0.001076 0.000000
# 3 -0.000632 -0.004893 0.009934 0.000000 0.007917 0.000000
# 4 0.000000 0.000000 0.000000 0.033851 0.000000 0.008720
# 5 0.008505 0.001076 0.007917 0.000000 0.035318 0.000000
# 6 0.000000 0.000000 0.000000 0.008720 0.000000 0.084158
#
#
# Mechanical properties :
#
#
# Convention : Reuss Voigt Hill
#
# Bulk Modulus (GPa) = 28.96796 52.22999 40.59897
# Shear Modulus (GPa) = 22.40958 31.39921 26.90439
#
# Velocity S-wave (km/s) = 3.08107 3.64707 3.37596
# Velocity P-wave (km/s) = 4.99286 6.31350 5.69161
#
# Compressibility (1/GPa) = 0.03452089
#
# Stress axis : x y z
#
# Youngs Moduli (GPa) = 51.19233 59.05186 100.66250
#
# Poissons Ratio (x) = 0.02453 0.06367
# Poissons Ratio (y) = 0.02127 0.49254
# Poissons Ratio (z) = 0.03238 0.28894
#
# Static dielectric constant tensor:
#      x y z
#    x 1.929140 0.000000 -0.003810 
#    y 0.000000 2.238900 0.000000 
#    z -0.003810 0.000000 1.997360 
# 
# From -- ./inp_files/223825.got.cif
#   From: 2010.05.17/outbox.cif.g08.bks.cpg/sg15_112_cif.got.tgz:223825.got - 2010.06.03 18:47:42.
