data_PCOD9285126
_publ_section_title
;
Structure prediction by ZEFSAII (Michael W. Deem and Ramdas Pophale) SiO2 
 PCOD9285126
Probable space group: C 2/C
;
_chemical_formula_sum "Si O2"
_cell_formula_units_Z 60
_cell_length_a 13.249940
_cell_length_b 15.390527
_cell_length_c 22.989078
_cell_angle_alpha 90.000000
_cell_angle_beta 144.549064
_cell_angle_gamma 90.000000
_cell_volume 2719.074693
_symmetry_space_group_name_H-M "C 2/C"
_symmetry_group_IT_number 15
_symmetry_cell_setting 'monoclinic'
loop_
_space_group_symop_operation_xyz
x,y,z
-x,y,1/2-z
-x,-y,-z
x,-y,1/2+z
1/2+x,1/2+y,z
1/2-x,1/2+y,1/2-z
1/2-x,1/2-y,-z
1/2+x,1/2-y,1/2+z
loop_
_atom_site_type_symbol
_atom_site_label
_atom_site_fract_x
_atom_site_fract_y
_atom_site_fract_z
Si Si1 0.500000 0.866609 0.750000
Si Si2 0.239371 0.015067 0.925097
Si Si3 0.244366 0.618474 0.971168
Si Si4 0.014555 0.722264 0.947735
Si Si5 0.619906 0.332168 0.435269
Si Si6 0.886606 0.595383 0.398659
Si Si7 0.661973 0.220377 0.226939
Si Si8 0.690028 0.467044 0.571440
O O1 0.495058 0.807932 0.804428
O O2 0.324608 0.921536 0.677490
O O3 0.142896 0.105908 0.889526
O O4 0.256361 0.970660 0.870183
O O5 0.439993 0.040884 0.036133
O O6 0.172381 0.940435 0.937812
O O7 0.083073 0.664312 0.926141
O O8 0.204563 0.548640 0.903921
O O9 0.368719 0.691116 0.002121
O O10 0.820080 0.750637 0.841638
O O11 0.049774 0.666513 0.022669
O O12 0.750000 0.250000 0.500000
O O13 0.422520 0.300174 0.347290
O O14 0.661286 0.396492 0.507577
O O15 0.807831 0.645389 0.306622
O O16 0.500000 0.500000 0.500000
#
# Coordination Sequence:
#
# PCOD9285126 Si02
#       8
#     4   8   8   8   8   8   8   8
#     4  12  26  42  64  98 138 176 230 284 340 414
#     4   9  19  39  67  91 122 176 207 270 335 381
#     4   9  20  44  64  91 133 171 217 277 335 396
#     4  10  23  42  68  94 131 176 221 274 339 400
#     4  11  21  41  65  93 131 170 213 272 332 389
#     4  10  21  41  67  94 131 167 222 273 332 389
#     4  12  25  39  69  99 129 175 230 273 335 418
#     4  11  24  41  68  95 136 179 222 278 343 397
#
# _framework density 22.066329
#
# number of rings (size 3 to 8) (size 9 to 14) (size 15 to 20)
#    0.000    1.600    2.667    1.600    5.600    1.067 
#    0.000   14.667    0.000    0.000    0.000    0.000 
#    0.000    0.000    0.000    0.000    0.000    0.000 
#
# Total GULP energy -167371.683592 kJ/mol
# GULP energy per Si atom -5579.056120 kJ/mol
# Density = 2.201611 g / cm^3
# Si number density = 22.066329 Si / 1000 Ang^3
#
#
#
# Elastic Constant Matrix: (Units=GPa)
#
#
# Indices 1 2 3 4 5 6 
#
# 1 60.6030 42.2658 26.8188 0.0000 -3.0669 0.0000
# 2 42.2658 125.6118 17.1882 0.0000 -2.2363 0.0000
# 3 26.8188 17.1882 59.0659 -0.0002 1.3925 0.0000
# 4 0.0000 0.0000 -0.0002 17.1030 0.0000 -3.2535
# 5 -3.0669 -2.2363 1.3925 0.0000 21.9314 0.0000
# 6 0.0000 0.0000 0.0000 -3.2535 0.0000 56.3542
#
#
#
# Elastic Compliance Matrix: (Units=1/GPa)
#
#
# Indices 1 2 3 4 5 6 
#
# 1 0.026190 -0.007406 -0.009820 0.000000 0.003531 0.000000
# 2 -0.007406 0.010407 0.000334 0.000000 0.000004 0.000000
# 3 -0.009820 0.000334 0.021355 0.000000 -0.002695 0.000000
# 4 0.000000 0.000000 0.000000 0.059118 0.000000 0.003413
# 5 0.003531 0.000004 -0.002695 0.000000 0.046262 0.000000
# 6 0.000000 0.000000 0.000000 0.003413 0.000000 0.017942
#
#
# Mechanical properties :
#
#
# Convention : Reuss Voigt Hill
#
# Bulk Modulus (GPa) = 41.37458 46.42516 43.89987
# Shear Modulus (GPa) = 22.41001 29.67826 26.04413
#
# Velocity S-wave (km/s) = 3.19027 3.67134 3.43923
# Velocity P-wave (km/s) = 5.68869 6.24950 5.97568
#
# Compressibility (1/GPa) = 0.02416943
#
# Stress axis : x y z
#
# Youngs Moduli (GPa) = 38.18249 96.08610 46.82702
#
# Poissons Ratio (x) = 0.71160 0.45983
# Poissons Ratio (y) = 0.28277 -0.01564
# Poissons Ratio (z) = 0.37494 -0.03209
#
# Static dielectric constant tensor:
#      x y z
#    x 1.873330 0.000000 -0.024170 
#    y 0.000000 1.872420 0.000000 
#    z -0.024170 0.000000 1.905820 
# 
# From -- ./inp_files/296708.got.cif
#   From: 2010.05.17/outbox.cif.g08.bks.cpg/sg15_149_cif.got.tgz:296708.got - 2010.06.03 18:47:42.
