data_PCOD9285720
_publ_section_title
;
Structure prediction by ZEFSAII (Michael W. Deem and Ramdas Pophale) SiO2 
 PCOD9285720
Probable space group: C 2/C
;
_chemical_formula_sum "Si O2"
_cell_formula_units_Z 60
_cell_length_a 11.046068
_cell_length_b 9.105297
_cell_length_c 24.030870
_cell_angle_alpha 90.000000
_cell_angle_beta 100.649607
_cell_angle_gamma 90.000000
_cell_volume 2375.339763
_symmetry_space_group_name_H-M "C 2/C"
_symmetry_group_IT_number 15
_symmetry_cell_setting 'monoclinic'
loop_
_space_group_symop_operation_xyz
x,y,z
-x,y,1/2-z
-x,-y,-z
x,-y,1/2+z
1/2+x,1/2+y,z
1/2-x,1/2+y,1/2-z
1/2-x,1/2-y,-z
1/2+x,1/2-y,1/2+z
loop_
_atom_site_type_symbol
_atom_site_label
_atom_site_fract_x
_atom_site_fract_y
_atom_site_fract_z
Si Si1 0.844043 0.917392 0.083076
Si Si2 0.928278 0.314071 0.187612
Si Si3 0.561683 0.429526 0.646498
Si Si4 0.470035 0.117386 0.078684
Si Si5 0.212430 0.590759 0.169601
Si Si6 0.000000 0.872011 0.250000
Si Si7 0.662572 0.891658 0.496579
Si Si8 0.326376 0.104710 0.207600
O O1 0.873161 0.746522 0.081675
O O2 0.980796 0.991260 0.092723
O O3 0.781124 0.976485 0.134858
O O4 0.750303 0.981451 0.029902
O O5 0.794675 0.238421 0.175896
O O6 0.916847 0.486634 0.188761
O O7 0.000000 0.271369 0.250000
O O8 0.004565 0.232162 0.147358
O O9 0.533883 0.527568 0.699859
O O10 0.705878 0.403077 0.659614
O O11 0.579964 0.122234 0.132632
O O12 0.548651 0.142437 0.028296
O O13 0.397711 0.964781 0.062899
O O14 0.205764 0.544971 0.233141
O O15 0.890703 0.759847 0.223785
O O16 0.750000 0.750000 0.500000
#
# Coordination Sequence:
#
# PCOD9285720 Si02
#       8
#     8   8   8   8   8   4   8   8
#     4  10  21  42  66  90 122 161 202 248 309 368
#     4  11  20  40  58  82 124 168 209 253 297 345
#     4  11  23  42  58  85 128 164 204 259 300 351
#     4  10  21  44  68  90 126 160 193 255 314 364
#     4  10  22  39  61  91 126 165 206 255 304 352
#     4  12  24  36  58  88 118 162 220 248 292 362
#     4  10  23  44  69  96 122 152 197 252 313 380
#     4  12  23  38  61  87 123 170 211 252 299 348
#
# _framework density 25.259544000000002
#
# number of rings (size 3 to 8) (size 9 to 14) (size 15 to 20)
#    0.000    1.333    2.667    3.600    0.000    0.533 
#    7.200    4.000    0.000    0.000    0.000    0.000 
#    0.000    0.000    0.000    0.000    0.000    0.000 
#
# Total GULP energy -168063.188269 kJ/mol
# GULP energy per Si atom -5602.106276 kJ/mol
# Density = 2.520205 g / cm^3
# Si number density = 25.259544 Si / 1000 Ang^3
#
#
#
# Elastic Constant Matrix: (Units=GPa)
#
#
# Indices 1 2 3 4 5 6 
#
# 1 102.4714 70.2461 33.4968 0.0000 18.0580 0.0000
# 2 70.2461 152.5613 31.3883 0.0000 13.6831 0.0000
# 3 33.4968 31.3883 87.6334 0.0000 25.7419 0.0000
# 4 0.0000 0.0000 0.0000 18.6209 0.0000 1.7453
# 5 18.0580 13.6831 25.7419 0.0000 37.7723 0.0000
# 6 0.0000 0.0000 0.0000 1.7453 0.0000 23.4110
#
#
#
# Elastic Compliance Matrix: (Units=1/GPa)
#
#
# Indices 1 2 3 4 5 6 
#
# 1 0.015551 -0.006305 -0.002717 0.000000 -0.003299 0.000000
# 2 -0.006305 0.009666 -0.001136 0.000000 0.000287 0.000000
# 3 -0.002717 -0.001136 0.015446 0.000000 -0.008816 0.000000
# 4 0.000000 0.000000 0.000000 0.054081 0.000000 -0.004032
# 5 -0.003299 0.000287 -0.008816 0.000000 0.033956 0.000000
# 6 0.000000 0.000000 0.000000 -0.004032 0.000000 0.043016
#
#
# Mechanical properties :
#
#
# Convention : Reuss Voigt Hill
#
# Bulk Modulus (GPa) = 49.14907 68.10317 58.62612
# Shear Modulus (GPa) = 25.14912 29.79651 27.47281
#
# Velocity S-wave (km/s) = 3.15878 3.43828 3.30149
# Velocity P-wave (km/s) = 5.72745 6.54081 6.14760
#
# Compressibility (1/GPa) = 0.02034626
#
# Stress axis : x y z
#
# Youngs Moduli (GPa) = 64.30581 103.45438 64.74031
#
# Poissons Ratio (x) = 0.65233 0.17587
# Poissons Ratio (y) = 0.40548 0.07357
# Poissons Ratio (z) = 0.17469 0.11757
#
# Static dielectric constant tensor:
#      x y z
#    x 2.044200 0.000000 -0.026040 
#    y 0.000000 1.953640 0.000000 
#    z -0.026040 0.000000 2.031400 
# 
# From -- ./inp_files/310333.got.cif
#   From: 2010.05.17/outbox.cif.g08.bks.cpg/sg15_156_cif.got.tgz:310333.got - 2010.06.03 18:47:42.
