data_PCOD9285072
_publ_section_title
;
Structure prediction by ZEFSAII (Michael W. Deem and Ramdas Pophale) SiO2 
 PCOD9285072
Probable space group: C 2/C
;
_chemical_formula_sum "Si O2"
_cell_formula_units_Z 56
_cell_length_a 5.828142
_cell_length_b 18.965507
_cell_length_c 25.458717
_cell_angle_alpha 90.000000
_cell_angle_beta 120.600946
_cell_angle_gamma 90.000000
_cell_volume 2422.143464
_symmetry_space_group_name_H-M "C 2/C"
_symmetry_group_IT_number 15
_symmetry_cell_setting 'monoclinic'
loop_
_space_group_symop_operation_xyz
x,y,z
-x,y,1/2-z
-x,-y,-z
x,-y,1/2+z
1/2+x,1/2+y,z
1/2-x,1/2+y,1/2-z
1/2-x,1/2-y,-z
1/2+x,1/2-y,1/2+z
loop_
_atom_site_type_symbol
_atom_site_label
_atom_site_fract_x
_atom_site_fract_y
_atom_site_fract_z
Si Si1 0.984894 0.981185 0.685201
Si Si2 0.195525 0.755521 0.398908
Si Si3 0.242700 0.127540 0.819436
Si Si4 0.796493 0.155057 0.025704
Si Si5 0.420566 0.125351 0.394546
Si Si6 0.815692 0.865405 0.410435
Si Si7 0.649070 0.522928 0.094961
O O1 0.816043 0.053920 0.656442
O O2 0.000000 0.980702 0.750000
O O3 0.854896 0.906632 0.655732
O O4 0.208281 0.982456 0.665009
O O5 0.218091 0.802419 0.350391
O O6 0.471778 0.714796 0.445851
O O7 0.009889 0.687973 0.367672
O O8 0.036742 0.808629 0.419631
O O9 0.558158 0.128598 0.841738
O O10 0.000000 0.129728 0.750000
O O11 0.586250 0.160709 0.048499
O O12 0.918750 0.078688 0.055076
O O13 0.701958 0.151286 0.955164
O O14 0.612141 0.058169 0.409653
O O15 0.928847 0.944128 0.429144
#
# Coordination Sequence:
#
# PCOD9285072 Si02
#       7
#     8   8   8   8   8   8   8
#     4  10  21  43  67  94 129 177 234 284 335 414
#     4  11  24  44  66 100 139 174 235 286 356 421
#     4  11  25  44  66  98 134 178 232 286 342 421
#     4  10  24  42  68 101 141 175 229 290 355 428
#     4  10  22  44  63 100 136 178 225 285 348 420
#     4  12  23  42  71  99 135 188 227 287 355 421
#     4  10  21  41  67 101 135 174 232 281 352 416
#
# _framework density 23.120017000000001
#
# number of rings (size 3 to 8) (size 9 to 14) (size 15 to 20)
#    0.000    1.429    2.857    1.714    0.000    6.286 
#   10.286    0.000    0.000    0.000    0.000    0.000 
#    0.000    0.000    0.000    0.000    0.000    0.000 
#
# Total GULP energy -155937.409847 kJ/mol
# GULP energy per Si atom -5569.193209 kJ/mol
# Density = 2.306739 g / cm^3
# Si number density = 23.120017 Si / 1000 Ang^3
#
#
#
# Elastic Constant Matrix: (Units=GPa)
#
#
# Indices 1 2 3 4 5 6 
#
# 1 73.1817 31.8847 28.2944 0.0000 -3.6541 0.0000
# 2 31.8847 168.2777 34.5001 0.0000 9.7278 0.0000
# 3 28.2944 34.5001 91.1160 0.0000 1.5220 0.0000
# 4 0.0000 0.0000 0.0000 26.8413 0.0000 -1.7473
# 5 -3.6541 9.7278 1.5220 0.0000 26.9379 0.0000
# 6 0.0000 0.0000 0.0000 -1.7473 0.0000 50.7393
#
#
#
# Elastic Compliance Matrix: (Units=1/GPa)
#
#
# Indices 1 2 3 4 5 6 
#
# 1 0.016553 -0.002457 -0.004266 0.000000 0.003374 0.000000
# 2 -0.002457 0.006939 -0.001819 0.000000 -0.002736 0.000000
# 3 -0.004266 -0.001819 0.012999 0.000000 -0.000656 0.000000
# 4 0.000000 0.000000 0.000000 0.037340 0.000000 0.001286
# 5 0.003374 -0.002736 -0.000656 0.000000 0.038605 0.000000
# 6 0.000000 0.000000 0.000000 0.001286 0.000000 0.019753
#
#
# Mechanical properties :
#
#
# Convention : Reuss Voigt Hill
#
# Bulk Modulus (GPa) = 51.52580 57.99265 54.75922
# Shear Modulus (GPa) = 32.10423 36.76342 34.43382
#
# Velocity S-wave (km/s) = 3.73042 3.99195 3.86340
# Velocity P-wave (km/s) = 6.39448 6.81067 6.60585
#
# Compressibility (1/GPa) = 0.01940775
#
# Stress axis : x y z
#
# Youngs Moduli (GPa) = 60.41214 144.11024 76.92606
#
# Poissons Ratio (x) = 0.35404 0.32819
# Poissons Ratio (y) = 0.14842 0.13991
# Poissons Ratio (z) = 0.25774 0.26211
#
# Static dielectric constant tensor:
#      x y z
#    x 2.081720 0.000000 -0.028620 
#    y 0.000000 1.822480 0.000000 
#    z -0.028620 0.000000 1.916240 
# 
# From -- ./inp_files/286120.got.cif
#   From: 2010.05.17/outbox.cif.g08.bks.cpg/sg15_144_cif.got.tgz:286120.got - 2010.06.03 18:47:42.
