data_PCOD9285431
_publ_section_title
;
Structure prediction by ZEFSAII (Michael W. Deem and Ramdas Pophale) SiO2 
 PCOD9285431
Probable space group: C 2/C
;
_chemical_formula_sum "Si O2"
_cell_formula_units_Z 56
_cell_length_a 14.828975
_cell_length_b 16.898068
_cell_length_c 12.798023
_cell_angle_alpha 90.000000
_cell_angle_beta 65.651652
_cell_angle_gamma 90.000000
_cell_volume 2921.702579
_symmetry_space_group_name_H-M "C 2/C"
_symmetry_group_IT_number 15
_symmetry_cell_setting 'monoclinic'
loop_
_space_group_symop_operation_xyz
x,y,z
-x,y,1/2-z
-x,-y,-z
x,-y,1/2+z
1/2+x,1/2+y,z
1/2-x,1/2+y,1/2-z
1/2-x,1/2-y,-z
1/2+x,1/2-y,1/2+z
loop_
_atom_site_type_symbol
_atom_site_label
_atom_site_fract_x
_atom_site_fract_y
_atom_site_fract_z
Si Si1 0.778363 0.077740 0.457849
Si Si2 0.390347 0.699982 0.282915
Si Si3 0.563920 0.707696 0.619931
Si Si4 0.571657 0.862239 0.121763
Si Si5 0.702818 0.415351 0.169145
Si Si6 0.433820 0.575398 0.567088
Si Si7 0.392094 0.812369 0.086274
O O1 0.805033 0.139655 0.353478
O O2 0.668347 0.088466 0.553211
O O3 0.860072 0.094724 0.507533
O O4 0.787922 0.990259 0.409438
O O5 0.500000 0.663023 0.250000
O O6 0.390544 0.775734 0.359582
O O7 0.381332 0.739397 0.173376
O O8 0.500000 0.736195 0.750000
O O9 0.645802 0.652348 0.632940
O O10 0.499412 0.650095 0.574343
O O11 0.608653 0.777206 0.528986
O O12 0.500000 0.890597 0.250000
O O13 0.499069 0.850071 0.059087
O O14 0.636331 0.441245 0.299653
O O15 0.807264 0.376356 0.149690
O O16 0.500000 0.500000 0.500000
#
# Coordination Sequence:
#
# PCOD9285431 Si02
#       7
#     8   8   8   8   8   8   8
#     4  12  23  36  65  92 118 158 204 247 311 372
#     4   9  20  35  64  92 117 152 202 257 306 359
#     4  10  22  40  60  87 120 169 202 247 306 368
#     4   9  20  40  60  87 120 158 206 257 296 351
#     4  11  25  38  58  93 123 157 204 253 305 366
#     4  11  22  39  61  87 128 152 192 257 318 358
#     4  10  21  42  60  83 128 163 201 253 296 358
#
# _framework density 19.166906999999998
#
# number of rings (size 3 to 8) (size 9 to 14) (size 15 to 20)
#    0.000    2.000    1.429    4.286    4.000    2.857 
#    0.000    2.143    0.000    0.000    0.000    0.000 
#    0.000    0.000    0.000    0.000    0.000    0.000 
#
# Total GULP energy -156295.792190 kJ/mol
# GULP energy per Si atom -5581.992578 kJ/mol
# Density = 1.912328 g / cm^3
# Si number density = 19.166907 Si / 1000 Ang^3
#
#
#
# Elastic Constant Matrix: (Units=GPa)
#
#
# Indices 1 2 3 4 5 6 
#
# 1 54.4402 -5.7079 12.7628 0.0000 6.3854 0.0000
# 2 -5.7079 -6.4996 13.8170 0.0000 2.2242 0.0000
# 3 12.7628 13.8170 47.4365 0.0000 2.3787 0.0000
# 4 0.0000 0.0000 0.0000 13.4889 0.0000 0.7605
# 5 6.3854 2.2242 2.3787 0.0000 25.8135 0.0000
# 6 0.0000 0.0000 0.0000 0.7605 0.0000 15.4233
#
#
#
# Elastic Compliance Matrix: (Units=1/GPa)
#
#
# Indices 1 2 3 4 5 6 
#
# 1 0.017033 -0.015673 0.000127 0.000000 -0.002875 0.000000
# 2 -0.015673 -0.079781 0.027041 0.000000 0.008259 0.000000
# 3 0.000127 0.027041 0.013351 0.000000 -0.003591 0.000000
# 4 0.000000 0.000000 0.000000 0.074341 0.000000 -0.003666
# 5 -0.002875 0.008259 -0.003591 0.000000 0.039070 0.000000
# 6 0.000000 0.000000 0.000000 -0.003666 0.000000 0.065018
#
#
# Mechanical properties :
#
#
# Convention : Reuss Voigt Hill
#
# Bulk Modulus (GPa) = -37.86655 15.23564 -11.31545
# Shear Modulus (GPa) = 51.41900 15.91215 33.66558
#
# Velocity S-wave (km/s) = 5.18509 2.88443 4.19554
# Velocity P-wave (km/s) = 4.00598 4.36571 4.18970
#
# Compressibility (1/GPa) = -0.02640853
#
# Stress axis : x y z
#
# Youngs Moduli (GPa) = 58.70948 -12.53435 74.90307
#
# Poissons Ratio (x) = -0.19645 -0.00948
# Poissons Ratio (y) = 0.92015 -2.02543
# Poissons Ratio (z) = -0.00743 0.33894
#
# Static dielectric constant tensor:
#      x y z
#    x 1.681040 0.000000 -0.002190 
#    y 0.000000 1.647410 0.000000 
#    z -0.002190 0.000000 1.699410 
# 
# From -- ./inp_files/98669.got.cif
#   From: 2010.05.17/outbox.cif.g08.bks.cpg/sg15_50_cif.got.tgz:98669.got - 2010.06.03 18:47:42.
