data_PCOD9285742
_publ_section_title
;
Structure prediction by ZEFSAII (Michael W. Deem and Ramdas Pophale) SiO2 
 PCOD9285742
Probable space group: C 2/C
;
_chemical_formula_sum "Si O2"
_cell_formula_units_Z 24
_cell_length_a 9.033714
_cell_length_b 9.889331
_cell_length_c 9.637165
_cell_angle_alpha 90.000000
_cell_angle_beta 81.828764
_cell_angle_gamma 90.000000
_cell_volume 852.218441
_symmetry_space_group_name_H-M "C 2/C"
_symmetry_group_IT_number 15
_symmetry_cell_setting 'monoclinic'
loop_
_space_group_symop_operation_xyz
x,y,z
-x,y,1/2-z
-x,-y,-z
x,-y,1/2+z
1/2+x,1/2+y,z
1/2-x,1/2+y,1/2-z
1/2-x,1/2-y,-z
1/2+x,1/2-y,1/2+z
loop_
_atom_site_type_symbol
_atom_site_label
_atom_site_fract_x
_atom_site_fract_y
_atom_site_fract_z
Si Si1 0.324628 0.520741 0.768392
Si Si2 0.386319 0.724616 0.136244
Si Si3 0.940218 0.621375 0.101026
O O1 0.500000 0.549656 0.750000
O O2 0.317566 0.425797 0.630201
O O3 0.232783 0.657550 0.808955
O O4 0.237282 0.407278 0.873457
O O5 0.500000 0.726539 0.250000
O O6 0.484880 0.754386 0.987632
O O7 0.000000 0.610149 0.250000
O O8 0.000000 0.500000 0.000000
#
# Coordination Sequence:
#
# PCOD9285742 Si02
#       3
#     8   8   8
#     4  10  22  40  67  99 130 171 222 269 324 391
#     4  10  23  45  68  95 135 176 215 271 332 389
#     4  10  21  42  66  92 134 177 213 267 333 388
#
# _framework density 28.161792999999999
#
# number of rings (size 3 to 8) (size 9 to 14) (size 15 to 20)
#    0.000    2.000    0.000    4.000    0.000    9.333 
#    0.000   23.333    0.000    2.000    0.000    9.333 
#    0.000    0.000    0.000    0.000    0.000    0.000 
#
# Total GULP energy -67017.700945 kJ/mol
# GULP energy per Si atom -5584.808412 kJ/mol
# Density = 2.809770 g / cm^3
# Si number density = 28.161793 Si / 1000 Ang^3
#
#
#
# Elastic Constant Matrix: (Units=GPa)
#
#
# Indices 1 2 3 4 5 6 
#
# 1 263.7045 72.9343 83.5350 0.0000 -37.4062 0.0000
# 2 72.9343 160.8178 54.3034 0.0000 -6.6332 0.0000
# 3 83.5350 54.3034 195.6902 0.0000 4.1640 0.0000
# 4 0.0000 0.0000 0.0000 47.4769 0.0000 -6.5666
# 5 -37.4062 -6.6332 4.1640 0.0000 41.2506 0.0000
# 6 0.0000 0.0000 0.0000 -6.5666 0.0000 42.0815
#
#
#
# Elastic Compliance Matrix: (Units=1/GPa)
#
#
# Indices 1 2 3 4 5 6 
#
# 1 0.005608 -0.001646 -0.002044 0.000000 0.005027 0.000000
# 2 -0.001646 0.007414 -0.001351 0.000000 -0.000164 0.000000
# 3 -0.002044 -0.001351 0.006416 0.000000 -0.002719 0.000000
# 4 0.000000 0.000000 0.000000 0.021527 0.000000 0.003359
# 5 0.005027 -0.000164 -0.002719 0.000000 0.029049 0.000000
# 6 0.000000 0.000000 0.000000 0.003359 0.000000 0.024288
#
#
# Mechanical properties :
#
#
# Convention : Reuss Voigt Hill
#
# Bulk Modulus (GPa) = 106.89374 115.75089 111.32231
# Shear Modulus (GPa) = 46.51064 53.45778 49.98421
#
# Velocity S-wave (km/s) = 4.06834 4.36160 4.21752
# Velocity P-wave (km/s) = 7.75293 8.15819 7.95814
#
# Compressibility (1/GPa) = 0.00935508
#
# Stress axis : x y z
#
# Youngs Moduli (GPa) = 178.32012 134.87706 155.87070
#
# Poissons Ratio (x) = 0.22197 0.31862
# Poissons Ratio (y) = 0.29346 0.21065
# Poissons Ratio (z) = 0.36451 0.18227
#
# Static dielectric constant tensor:
#      x y z
#    x 2.373410 0.000000 -0.063070 
#    y 0.000000 2.361560 0.000000 
#    z -0.063070 0.000000 2.289360 
# 
# From -- ./inp_files/74770.got.cif
#   From: 2010.05.17/outbox.cif.g08.bks.cpg/sg15_38_cif.got.tgz:74770.got - 2010.06.03 18:47:42.
