data_PCOD9285799
_publ_section_title
;
Structure prediction by ZEFSAII (Michael W. Deem and Ramdas Pophale) SiO2 
 PCOD9285799
Probable space group: C 2/C
;
_chemical_formula_sum "Si O2"
_cell_formula_units_Z 36
_cell_length_a 18.504524
_cell_length_b 18.843088
_cell_length_c 10.214294
_cell_angle_alpha 90.000000
_cell_angle_beta 152.849062
_cell_angle_gamma 90.000000
_cell_volume 1625.261435
_symmetry_space_group_name_H-M "C 2/C"
_symmetry_group_IT_number 15
_symmetry_cell_setting 'monoclinic'
loop_
_space_group_symop_operation_xyz
x,y,z
-x,y,1/2-z
-x,-y,-z
x,-y,1/2+z
1/2+x,1/2+y,z
1/2-x,1/2+y,1/2-z
1/2-x,1/2-y,-z
1/2+x,1/2-y,1/2+z
loop_
_atom_site_type_symbol
_atom_site_label
_atom_site_fract_x
_atom_site_fract_y
_atom_site_fract_z
Si Si1 0.408543 0.147668 0.415692
Si Si2 0.265940 0.369470 0.425332
Si Si3 0.000000 0.760938 0.750000
Si Si4 0.331922 0.534659 0.535653
Si Si5 0.172075 0.616197 0.488627
O O1 0.596283 0.133414 0.720422
O O2 0.386677 0.209402 0.483689
O O3 0.306421 0.075777 0.268483
O O4 0.363846 0.167078 0.193076
O O5 0.396219 0.312184 0.676260
O O6 0.321558 0.450391 0.517073
O O7 0.237593 0.352199 0.226288
O O8 0.500000 0.557922 0.750000
O O9 0.293838 0.439561 0.121865
O O10 0.000000 0.583765 0.250000
#
# Coordination Sequence:
#
# PCOD9285799 Si02
#       5
#     8   8   4   8   8
#     4   9  23  43  61  96 133 185 210 266 343 399
#     4  11  21  43  68 100 135 169 227 279 331 386
#     4  12  24  42  66 100 138 170 222 280 330 396
#     4  10  21  42  67 104 128 174 225 277 325 393
#     4   8  20  40  66  93 130 177 220 269 329 396
#
# _framework density 22.150283999999999
#
# number of rings (size 3 to 8) (size 9 to 14) (size 15 to 20)
#    1.333    0.889    1.111    1.333    0.000    3.556 
#    8.000    1.111    0.000    0.000    0.000    0.000 
#    0.000    0.000    0.000    0.000    0.000    0.000 
#
# Total GULP energy -100277.227448 kJ/mol
# GULP energy per Si atom -5570.957080 kJ/mol
# Density = 2.209987 g / cm^3
# Si number density = 22.150284 Si / 1000 Ang^3
#
#
#
# Elastic Constant Matrix: (Units=GPa)
#
#
# Indices 1 2 3 4 5 6 
#
# 1 96.8014 33.3940 21.0711 0.0000 20.8482 0.0000
# 2 33.3940 99.2428 10.5092 0.0000 1.0929 0.0000
# 3 21.0711 10.5092 25.7618 0.0000 3.1750 0.0000
# 4 0.0000 0.0000 0.0000 -18.7003 0.0000 -9.6216
# 5 20.8482 1.0929 3.1750 0.0000 35.2537 0.0000
# 6 0.0000 0.0000 0.0000 -9.6216 0.0000 2.3967
#
#
#
# Elastic Compliance Matrix: (Units=1/GPa)
#
#
# Indices 1 2 3 4 5 6 
#
# 1 0.015753 -0.004132 -0.010180 0.000000 -0.008271 0.000000
# 2 -0.004132 0.011615 -0.001634 0.000000 0.002230 0.000000
# 3 -0.010180 -0.001634 0.047590 0.000000 0.001785 0.000000
# 4 0.000000 0.000000 0.000000 -0.017444 0.000000 -0.070029
# 5 -0.008271 0.002230 0.001785 0.000000 0.033027 0.000000
# 6 0.000000 0.000000 0.000000 -0.070029 0.000000 0.136106
#
#
# Mechanical properties :
#
#
# Convention : Reuss Voigt Hill
#
# Bulk Modulus (GPa) = 23.21939 39.08385 31.15162
# Shear Modulus (GPa) = 18.32216 14.24547 16.28381
#
# Velocity S-wave (km/s) = 2.87918 2.53875 2.71431
# Velocity P-wave (km/s) = 4.64310 5.12609 4.89056
#
# Compressibility (1/GPa) = 0.04306746
#
# Stress axis : x y z
#
# Youngs Moduli (GPa) = 63.48021 86.09579 21.01283
#
# Poissons Ratio (x) = 0.35571 0.21391
# Poissons Ratio (y) = 0.26227 0.03433
# Poissons Ratio (z) = 0.64622 0.14066
#
# Static dielectric constant tensor:
#      x y z
#    x 1.857750 0.000000 -0.004430 
#    y 0.000000 1.808030 0.000000 
#    z -0.004430 0.000000 1.852690 
# 
# From -- ./inp_files/50769.got.cif
#   From: 2010.05.17/outbox.cif.g08.bks.cpg/sg15_26_cif.got.tgz:50769.got - 2010.06.03 18:47:42.
