data_PCOD9285376
_publ_section_title
;
Structure prediction by ZEFSAII (Michael W. Deem and Ramdas Pophale) SiO2 
 PCOD9285376
Probable space group: C 2/C
;
_chemical_formula_sum "Si O2"
_cell_formula_units_Z 48
_cell_length_a 18.177737
_cell_length_b 11.074107
_cell_length_c 9.380661
_cell_angle_alpha 90.000000
_cell_angle_beta 92.413524
_cell_angle_gamma 90.000000
_cell_volume 1886.672620
_symmetry_space_group_name_H-M "C 2/C"
_symmetry_group_IT_number 15
_symmetry_cell_setting 'monoclinic'
loop_
_space_group_symop_operation_xyz
x,y,z
-x,y,1/2-z
-x,-y,-z
x,-y,1/2+z
1/2+x,1/2+y,z
1/2-x,1/2+y,1/2-z
1/2-x,1/2-y,-z
1/2+x,1/2-y,1/2+z
loop_
_atom_site_type_symbol
_atom_site_label
_atom_site_fract_x
_atom_site_fract_y
_atom_site_fract_z
Si Si1 0.700415 0.403439 0.201458
Si Si2 0.039712 0.099189 0.601616
Si Si3 0.051923 0.519576 0.138739
Si Si4 0.703593 0.032801 0.044519
Si Si5 0.464444 0.747227 0.386327
Si Si6 0.329488 0.222141 0.068361
O O1 0.622524 0.447032 0.133961
O O2 0.740024 0.484850 0.327981
O O3 0.675970 0.282036 0.279092
O O4 0.754764 0.390378 0.071609
O O5 0.000000 0.111745 0.750000
O O6 0.028186 0.222953 0.509543
O O7 0.000000 0.000000 0.500000
O O8 0.129839 0.577040 0.113923
O O9 0.062915 0.377170 0.180481
O O10 0.000000 0.581368 0.250000
O O11 0.000000 0.500000 0.000000
O O12 0.668262 0.921363 0.949074
O O13 0.500000 0.684301 0.250000
O O14 0.392254 0.717907 0.475305
O O15 0.250000 0.250000 0.000000
#
# Coordination Sequence:
#
# PCOD9285376 Si02
#       6
#     8   8   8   8   8   8
#     4  11  22  42  64  97 133 177 220 272 332 401
#     4  12  24  40  64  96 135 177 226 276 331 396
#     4  10  21  41  71  98 129 171 221 277 336 394
#     4  10  22  41  69  95 135 176 218 271 335 401
#     4  10  22  42  66  97 130 170 224 277 335 398
#     4   9  20  41  68  88 129 176 214 268 337 391
#
# _framework density 25.441617000000001
#
# number of rings (size 3 to 8) (size 9 to 14) (size 15 to 20)
#    0.000    1.667    1.667    2.500    2.333    2.000 
#    3.000    0.833    0.000    0.000    0.000    0.000 
#    0.000    0.000    0.000    0.000    0.000    0.000 
#
# Total GULP energy -133956.791453 kJ/mol
# GULP energy per Si atom -5581.532977 kJ/mol
# Density = 2.538371 g / cm^3
# Si number density = 25.441617 Si / 1000 Ang^3
#
#
#
# Elastic Constant Matrix: (Units=GPa)
#
#
# Indices 1 2 3 4 5 6 
#
# 1 212.4686 36.1516 107.5872 0.0000 -30.7760 0.0000
# 2 36.1516 75.0035 41.4164 0.0000 -7.1585 0.0000
# 3 107.5872 41.4164 208.1123 0.0000 -32.0546 0.0000
# 4 0.0000 0.0000 0.0000 45.4737 0.0000 7.7986
# 5 -30.7760 -7.1585 -32.0546 0.0000 61.6868 0.0000
# 6 0.0000 0.0000 0.0000 7.7986 0.0000 -0.2813
#
#
#
# Elastic Compliance Matrix: (Units=1/GPa)
#
#
# Indices 1 2 3 4 5 6 
#
# 1 0.006661 -0.001452 -0.002901 0.000000 0.001647 0.000000
# 2 -0.001452 0.015297 -0.002318 0.000000 -0.000153 0.000000
# 3 -0.002901 -0.002318 0.007067 0.000000 0.001956 0.000000
# 4 0.000000 0.000000 0.000000 0.003821 0.000000 0.105948
# 5 0.001647 -0.000153 0.001956 0.000000 0.018032 0.000000
# 6 0.000000 0.000000 0.000000 0.105948 0.000000 -0.617784
#
#
# Mechanical properties :
#
#
# Convention : Reuss Voigt Hill
#
# Bulk Modulus (GPa) = 63.75194 96.21053 79.98123
# Shear Modulus (GPa) = -9.11849 42.07113 16.47632
#
# Velocity S-wave (km/s) = -1.89522 4.07090 2.54758
# Velocity P-wave (km/s) = 4.50815 7.74562 6.33711
#
# Compressibility (1/GPa) = 0.01568580
#
# Stress axis : x y z
#
# Youngs Moduli (GPa) = 150.12443 65.37029 141.49628
#
# Poissons Ratio (x) = 0.09489 0.41048
# Poissons Ratio (y) = 0.21791 0.32793
# Poissons Ratio (z) = 0.43551 0.15150
#
# Static dielectric constant tensor:
#      x y z
#    x 1.822110 0.000000 -0.013420 
#    y 0.000000 2.448840 0.000000 
#    z -0.013420 0.000000 2.033400 
# 
# From -- ./inp_files/47474.got.cif
#   From: 2010.05.17/outbox.cif.g08.bks.cpg/sg15_24_cif.got.tgz:47474.got - 2010.06.03 18:47:42.
