data_PCOD9285632
_publ_section_title
;
Structure prediction by ZEFSAII (Michael W. Deem and Ramdas Pophale) SiO2 
 PCOD9285632
Probable space group: C 2/C
;
_chemical_formula_sum "Si O2"
_cell_formula_units_Z 44
_cell_length_a 17.013824
_cell_length_b 11.130206
_cell_length_c 9.524158
_cell_angle_alpha 90.000000
_cell_angle_beta 96.329233
_cell_angle_gamma 90.000000
_cell_volume 1792.571695
_symmetry_space_group_name_H-M "C 2/C"
_symmetry_group_IT_number 15
_symmetry_cell_setting 'monoclinic'
loop_
_space_group_symop_operation_xyz
x,y,z
-x,y,1/2-z
-x,-y,-z
x,-y,1/2+z
1/2+x,1/2+y,z
1/2-x,1/2+y,1/2-z
1/2-x,1/2-y,-z
1/2+x,1/2-y,1/2+z
loop_
_atom_site_type_symbol
_atom_site_label
_atom_site_fract_x
_atom_site_fract_y
_atom_site_fract_z
Si Si1 0.688509 0.993581 0.720725
Si Si2 0.755263 0.738833 0.168557
Si Si3 0.577569 0.058420 0.943484
Si Si4 0.083160 0.052436 0.069813
Si Si5 0.906572 0.152837 0.725375
Si Si6 0.500000 0.262666 0.750000
O O1 0.715408 0.136525 0.716131
O O2 0.614692 0.996761 0.813874
O O3 0.758307 0.899317 0.782495
O O4 0.650768 0.953434 0.565185
O O5 0.846946 0.740958 0.232422
O O6 0.750000 0.750000 0.000000
O O7 0.545860 0.184962 0.876115
O O8 0.500000 0.000000 0.000000
O O9 0.062236 0.156489 0.176465
O O10 0.115077 0.939703 0.158300
O O11 0.117079 0.099308 0.931180
O O12 0.000000 0.000000 0.000000
O O13 0.000000 0.179546 0.750000
#
# Coordination Sequence:
#
# PCOD9285632 Si02
#       6
#     8   8   8   8   8   4
#     4  12  29  55  81 115 163 224 267 339 415 486
#     4  12  30  53  79 114 168 213 273 335 410 492
#     4  12  27  50  81 119 155 209 274 336 410 489
#     4  10  21  42  65 115 149 198 250 329 392 458
#     4  10  24  43  76 110 153 196 271 327 393 466
#     4  12  24  40  78 112 166 192 262 336 408 476
#
# _framework density 24.545739999999999
#
# number of rings (size 3 to 8) (size 9 to 14) (size 15 to 20)
#    0.000    0.727    6.364    0.000   12.727    0.727 
#    0.000    0.000    0.000    0.000    0.000    0.000 
#    0.000    0.000    0.000    0.000    0.000    0.000 
#
# Total GULP energy -122764.074211 kJ/mol
# GULP energy per Si atom -5580.185191 kJ/mol
# Density = 2.448987 g / cm^3
# Si number density = 24.545740 Si / 1000 Ang^3
#
#
#
# Elastic Constant Matrix: (Units=GPa)
#
#
# Indices 1 2 3 4 5 6 
#
# 1 85.5595 32.5033 -0.5846 0.0000 16.2069 0.0000
# 2 32.5033 114.1166 8.7054 0.0000 8.0668 0.0000
# 3 -0.5846 8.7054 84.0746 0.0000 -3.6081 0.0000
# 4 0.0000 0.0000 0.0000 39.4561 0.0000 -6.5384
# 5 16.2069 8.0668 -3.6081 0.0000 28.9901 0.0000
# 6 0.0000 0.0000 0.0000 -6.5384 0.0000 39.6497
#
#
#
# Elastic Compliance Matrix: (Units=1/GPa)
#
#
# Indices 1 2 3 4 5 6 
#
# 1 0.014392 -0.003616 0.000173 0.000000 -0.007018 0.000000
# 2 -0.003616 0.009938 -0.001092 0.000000 -0.000880 0.000000
# 3 0.000173 -0.001092 0.012082 0.000000 0.001711 0.000000
# 4 0.000000 0.000000 0.000000 0.026057 0.000000 0.004297
# 5 -0.007018 -0.000880 0.001711 0.000000 0.038876 0.000000
# 6 0.000000 0.000000 0.000000 0.004297 0.000000 0.025929
#
#
# Mechanical properties :
#
#
# Convention : Reuss Voigt Hill
#
# Bulk Modulus (GPa) = 36.57304 40.55543 38.56424
# Shear Modulus (GPa) = 34.37406 37.82761 36.10083
#
# Velocity S-wave (km/s) = 3.74626 3.92995 3.83921
# Velocity P-wave (km/s) = 5.80043 6.09516 5.94962
#
# Compressibility (1/GPa) = 0.02734254
#
# Stress axis : x y z
#
# Youngs Moduli (GPa) = 69.48227 100.61900 82.76851
#
# Poissons Ratio (x) = 0.36388 -0.01435
# Poissons Ratio (y) = 0.25127 0.09038
# Poissons Ratio (z) = -0.01204 0.10987
#
# Static dielectric constant tensor:
#      x y z
#    x 1.977280 0.000000 0.016930 
#    y 0.000000 2.086530 0.000000 
#    z 0.016930 0.000000 1.957620 
# 
# From -- ./inp_files/54460.got.cif
#   From: 2010.05.17/outbox.cif.g08.bks.cpg/sg15_28_cif.got.tgz:54460.got - 2010.06.03 18:47:42.
