data_PCOD9285294
_publ_section_title
;
Structure prediction by ZEFSAII (Michael W. Deem and Ramdas Pophale) SiO2 
 PCOD9285294
Probable space group: C 2/C
;
_chemical_formula_sum "Si O2"
_cell_formula_units_Z 56
_cell_length_a 7.493786
_cell_length_b 20.001034
_cell_length_c 22.455736
_cell_angle_alpha 90.000000
_cell_angle_beta 46.456260
_cell_angle_gamma 90.000000
_cell_volume 2439.654756
_symmetry_space_group_name_H-M "C 2/C"
_symmetry_group_IT_number 15
_symmetry_cell_setting 'monoclinic'
loop_
_space_group_symop_operation_xyz
x,y,z
-x,y,1/2-z
-x,-y,-z
x,-y,1/2+z
1/2+x,1/2+y,z
1/2-x,1/2+y,1/2-z
1/2-x,1/2-y,-z
1/2+x,1/2-y,1/2+z
loop_
_atom_site_type_symbol
_atom_site_label
_atom_site_fract_x
_atom_site_fract_y
_atom_site_fract_z
Si Si1 0.658294 0.972858 0.544147
Si Si2 0.669770 0.300684 0.656322
Si Si3 0.403110 0.815222 0.145274
Si Si4 0.483250 0.066439 0.821576
Si Si5 0.176499 0.399289 0.976565
Si Si6 0.176992 0.248475 0.594673
Si Si7 0.977615 0.146690 0.963996
O O1 0.506800 0.936299 0.527077
O O2 0.826191 0.913358 0.527530
O O3 0.511863 0.006872 0.631930
O O4 0.792235 0.036374 0.482791
O O5 0.500000 0.321437 0.750000
O O6 0.563037 0.233220 0.650892
O O7 0.670610 0.353025 0.602485
O O8 0.938793 0.287953 0.624324
O O9 0.317315 0.877148 0.205748
O O10 0.204713 0.770475 0.156639
O O11 0.554992 0.852191 0.055917
O O12 0.500000 0.044533 0.750000
O O13 0.229434 0.109544 0.887675
O O14 0.146342 0.178570 0.566399
O O15 0.423878 0.289949 0.520060
#
# Coordination Sequence:
#
# PCOD9285294 Si02
#       7
#     8   8   8   8   8   8   8
#     4  10  21  41  70  94 130 181 232 273 326 400
#     4  12  25  44  66  99 145 172 216 292 347 393
#     4  11  23  41  73  95 132 179 225 274 339 405
#     4  11  25  43  65  99 142 179 221 283 338 398
#     4  10  21  41  69  97 125 180 235 272 323 407
#     4  11  23  40  70 102 128 172 229 279 331 403
#     4  11  21  42  67  99 133 167 229 280 323 399
#
# _framework density 22.954066999999998
#
# number of rings (size 3 to 8) (size 9 to 14) (size 15 to 20)
#    0.000    1.143    4.286    2.143    4.000    0.571 
#    2.571    0.000    0.000    0.000    0.000    0.000 
#    0.000    0.000    0.000    0.000    0.000    0.000 
#
# Total GULP energy -156068.028660 kJ/mol
# GULP energy per Si atom -5573.858166 kJ/mol
# Density = 2.290182 g / cm^3
# Si number density = 22.954067 Si / 1000 Ang^3
#
#
#
# Elastic Constant Matrix: (Units=GPa)
#
#
# Indices 1 2 3 4 5 6 
#
# 1 70.9844 -3.0237 3.7802 0.0000 15.7786 -0.0001
# 2 -3.0237 89.9545 18.6095 0.0000 3.5068 0.0000
# 3 3.7802 18.6095 92.2310 0.0000 22.6156 -0.0001
# 4 0.0000 0.0000 0.0000 9.4301 0.0000 2.9740
# 5 15.7786 3.5068 22.6156 0.0000 22.2773 0.0000
# 6 -0.0001 0.0000 -0.0001 2.9740 0.0000 8.0283
#
#
#
# Elastic Compliance Matrix: (Units=1/GPa)
#
#
# Indices 1 2 3 4 5 6 
#
# 1 0.017375 0.000575 0.002945 0.000000 -0.015387 0.000000
# 2 0.000575 0.011629 -0.002425 0.000000 0.000224 0.000000
# 3 0.002945 -0.002425 0.015483 0.000000 -0.017422 0.000000
# 4 0.000000 0.000000 0.000000 0.120071 0.000000 -0.044480
# 5 -0.015387 0.000224 -0.017422 0.000000 0.073438 0.000000
# 6 0.000000 0.000000 0.000000 -0.044480 0.000000 0.141037
#
#
# Mechanical properties :
#
#
# Convention : Reuss Voigt Hill
#
# Bulk Modulus (GPa) = 21.42402 32.43352 26.92877
# Shear Modulus (GPa) = 12.74201 23.53406 18.13804
#
# Velocity S-wave (km/s) = 2.35863 3.20545 2.81408
# Velocity P-wave (km/s) = 4.09527 5.27829 4.72396
#
# Compressibility (1/GPa) = 0.04667657
#
# Stress axis : x y z
#
# Youngs Moduli (GPa) = 57.55239 85.99212 64.58728
#
# Poissons Ratio (x) = -0.04942 -0.19020
# Poissons Ratio (y) = -0.03307 0.15662
# Poissons Ratio (z) = -0.16948 0.20852
#
# Static dielectric constant tensor:
#      x y z
#    x 2.031940 0.000000 -0.065400 
#    y 0.000000 1.885760 0.000000 
#    z -0.065400 0.000000 1.876740 
# 
# From -- ./inp_files/233744.got.cif
#   From: 2010.05.17/outbox.cif.g08.bks.cpg/sg15_117_cif.got.tgz:233744.got - 2010.06.03 18:47:42.
