data_PCOD9285983
_publ_section_title
;
Structure prediction by ZEFSAII (Michael W. Deem and Ramdas Pophale) SiO2 
 PCOD9285983
Probable space group: C 2/C
;
_chemical_formula_sum "Si O2"
_cell_formula_units_Z 40
_cell_length_a 29.656822
_cell_length_b 5.277934
_cell_length_c 10.624820
_cell_angle_alpha 90.000000
_cell_angle_beta 62.054968
_cell_angle_gamma 90.000000
_cell_volume 1469.150727
_symmetry_space_group_name_H-M "C 2/C"
_symmetry_group_IT_number 15
_symmetry_cell_setting 'monoclinic'
loop_
_space_group_symop_operation_xyz
x,y,z
-x,y,1/2-z
-x,-y,-z
x,-y,1/2+z
1/2+x,1/2+y,z
1/2-x,1/2+y,1/2-z
1/2-x,1/2-y,-z
1/2+x,1/2-y,1/2+z
loop_
_atom_site_type_symbol
_atom_site_label
_atom_site_fract_x
_atom_site_fract_y
_atom_site_fract_z
Si Si1 0.465717 0.444893 0.422409
Si Si2 0.681188 0.578585 0.809623
Si Si3 0.786346 0.321023 0.065984
Si Si4 0.559664 0.059446 0.637308
Si Si5 0.353458 0.082381 0.791048
O O1 0.500000 0.427828 0.250000
O O2 0.500000 0.500000 0.500000
O O3 0.428539 0.680844 0.449954
O O4 0.435800 0.181190 0.459464
O O5 0.743587 0.593659 0.720631
O O6 0.678083 0.413820 0.942104
O O7 0.661314 0.853157 0.786253
O O8 0.658805 0.359829 0.745710
O O9 0.750000 0.250000 0.000000
O O10 0.820636 0.540418 0.961980
O O11 0.500000 0.076813 0.750000
O O12 0.590236 0.043596 0.726437
#
# Coordination Sequence:
#
# PCOD9285983 Si02
#       5
#     8   8   8   8   8
#     4  10  21  42  69  95 130 179 233 279 341 397
#     4  11  23  41  67  97 130 172 217 277 337 399
#     4  10  22  42  67  93 132 170 214 271 339 404
#     4  10  22  44  67  96 135 179 226 282 334 396
#     4  11  24  43  65  99 132 173 229 267 332 404
#
# _framework density 27.226614999999999
#
# number of rings (size 3 to 8) (size 9 to 14) (size 15 to 20)
#    0.000    1.600    0.000    4.800    0.000    4.800 
#   21.600    0.000    0.000    0.000    0.000    0.000 
#    0.000    0.000    0.000    0.000    0.000    0.000 
#
# Total GULP energy -111854.023777 kJ/mol
# GULP energy per Si atom -5592.701189 kJ/mol
# Density = 2.716465 g / cm^3
# Si number density = 27.226615 Si / 1000 Ang^3
#
#
#
# Elastic Constant Matrix: (Units=GPa)
#
#
# Indices 1 2 3 4 5 6 
#
# 1 162.2689 34.0652 12.0166 0.0000 37.7197 0.0000
# 2 34.0652 234.9003 8.4713 0.0000 45.8345 0.0000
# 3 12.0166 8.4713 65.1066 0.0000 38.5249 0.0000
# 4 0.0000 0.0000 0.0000 38.8523 0.0000 19.8340
# 5 37.7197 45.8345 38.5249 0.0000 65.2327 0.0000
# 6 0.0000 0.0000 0.0000 19.8340 0.0000 50.1775
#
#
#
# Elastic Compliance Matrix: (Units=1/GPa)
#
#
# Indices 1 2 3 4 5 6 
#
# 1 0.007250 -0.000114 0.001706 0.000000 -0.005120 0.000000
# 2 -0.000114 0.005142 0.002230 0.000000 -0.004865 0.000000
# 3 0.001706 0.002230 0.025003 0.000000 -0.017320 0.000000
# 4 0.000000 0.000000 0.000000 0.032245 0.000000 -0.012746
# 5 -0.005120 -0.004865 -0.017320 0.000000 0.031937 0.000000
# 6 0.000000 0.000000 0.000000 -0.012746 0.000000 0.024967
#
#
# Mechanical properties :
#
#
# Convention : Reuss Voigt Hill
#
# Bulk Modulus (GPa) = 22.20203 63.48688 42.84445
# Shear Modulus (GPa) = 37.33758 58.03401 47.68579
#
# Velocity S-wave (km/s) = 3.70721 4.62184 4.18956
# Velocity P-wave (km/s) = 5.14750 7.20073 6.25888
#
# Compressibility (1/GPa) = 0.04504093
#
# Stress axis : x y z
#
# Youngs Moduli (GPa) = 137.92479 194.46174 39.99550
#
# Poissons Ratio (x) = 0.02216 -0.06824
# Poissons Ratio (y) = 0.01572 -0.08921
# Poissons Ratio (z) = -0.23534 -0.43372
#
# Static dielectric constant tensor:
#      x y z
#    x 2.044430 0.000000 0.022940 
#    y 0.000000 2.301370 0.000000 
#    z 0.022940 0.000000 1.934980 
# 
# From -- ./inp_files/120814.got.cif
#   From: 2010.05.17/outbox.cif.g08.bks.cpg/sg15_61_cif.got.tgz:120814.got - 2010.06.03 18:47:42.
