data_PCOD9285599
_publ_section_title
;
Structure prediction by ZEFSAII (Michael W. Deem and Ramdas Pophale) SiO2 
 PCOD9285599
Probable space group: C 2/C
;
_chemical_formula_sum "Si O2"
_cell_formula_units_Z 40
_cell_length_a 9.430532
_cell_length_b 17.681651
_cell_length_c 10.262781
_cell_angle_alpha 90.000000
_cell_angle_beta 82.038992
_cell_angle_gamma 90.000000
_cell_volume 1694.799312
_symmetry_space_group_name_H-M "C 2/C"
_symmetry_group_IT_number 15
_symmetry_cell_setting 'monoclinic'
loop_
_space_group_symop_operation_xyz
x,y,z
-x,y,1/2-z
-x,-y,-z
x,-y,1/2+z
1/2+x,1/2+y,z
1/2-x,1/2+y,1/2-z
1/2-x,1/2-y,-z
1/2+x,1/2-y,1/2+z
loop_
_atom_site_type_symbol
_atom_site_label
_atom_site_fract_x
_atom_site_fract_y
_atom_site_fract_z
Si Si1 0.645165 0.962148 0.297164
Si Si2 0.095866 0.965649 0.871421
Si Si3 0.336876 0.690239 0.239685
Si Si4 0.188628 0.680521 0.922871
Si Si5 0.428070 0.127522 0.117226
O O1 0.500000 0.929920 0.250000
O O2 0.727450 0.905327 0.382900
O O3 0.760216 0.987096 0.174454
O O4 0.591232 0.037297 0.378975
O O5 0.156047 0.878263 0.870079
O O6 0.000000 0.967300 0.750000
O O7 0.000000 0.000000 0.000000
O O8 0.500000 0.697696 0.250000
O O9 0.291642 0.775204 0.214672
O O10 0.231477 0.659224 0.361790
O O11 0.250000 0.750000 0.000000
O O12 0.029925 0.665692 0.999833
O O13 0.500000 0.145180 0.250000
#
# Coordination Sequence:
#
# PCOD9285599 Si02
#       5
#     8   8   8   8   8
#     4  10  24  43  70  98 137 184 241 289 365 429
#     4  10  24  44  71 103 142 187 241 297 361 436
#     4  10  23  42  61  94 137 173 227 300 360 410
#     4  12  24  39  68  98 135 181 240 292 360 424
#     4  10  21  42  64  94 134 180 227 290 350 427
#
# _framework density 23.601614000000001
#
# number of rings (size 3 to 8) (size 9 to 14) (size 15 to 20)
#    0.000    1.600    2.000    1.200    2.800    7.200 
#    0.000    0.000    0.000    0.000    0.000    0.000 
#    0.000    0.000    0.000    0.000    0.000    0.000 
#
# Total GULP energy -111400.993631 kJ/mol
# GULP energy per Si atom -5570.049682 kJ/mol
# Density = 2.354790 g / cm^3
# Si number density = 23.601614 Si / 1000 Ang^3
#
#
#
# Elastic Constant Matrix: (Units=GPa)
#
#
# Indices 1 2 3 4 5 6 
#
# 1 57.8184 22.2393 6.6691 0.0000 -19.9869 0.0000
# 2 22.2393 112.4154 27.9217 0.0000 -14.8451 0.0000
# 3 6.6691 27.9217 57.7029 0.0000 -22.9072 0.0000
# 4 0.0000 0.0000 0.0000 23.6751 0.0000 -12.6301
# 5 -19.9869 -14.8451 -22.9072 0.0000 43.6458 0.0000
# 6 0.0000 0.0000 0.0000 -12.6301 0.0000 21.5315
#
#
#
# Elastic Compliance Matrix: (Units=1/GPa)
#
#
# Indices 1 2 3 4 5 6 
#
# 1 0.022042 -0.003832 0.003532 0.000000 0.010644 0.000000
# 2 -0.003832 0.010819 -0.005088 0.000000 -0.000746 0.000000
# 3 0.003532 -0.005088 0.024429 0.000000 0.012708 0.000000
# 4 0.000000 0.000000 0.000000 0.061476 0.000000 0.036061
# 5 0.010644 -0.000746 0.012708 0.000000 0.034202 0.000000
# 6 0.000000 0.000000 0.000000 0.036061 0.000000 0.067597
#
#
# Mechanical properties :
#
#
# Convention : Reuss Voigt Hill
#
# Bulk Modulus (GPa) = 21.49912 37.95523 29.72718
# Shear Modulus (GPa) = 20.25556 29.17757 24.71657
#
# Velocity S-wave (km/s) = 2.93273 3.51985 3.23962
# Velocity P-wave (km/s) = 4.53837 5.71277 5.15910
#
# Compressibility (1/GPa) = 0.04651353
#
# Stress axis : x y z
#
# Youngs Moduli (GPa) = 45.36865 92.42912 40.93478
#
# Poissons Ratio (x) = 0.35422 -0.14460
# Poissons Ratio (y) = 0.17387 0.20829
# Poissons Ratio (z) = -0.16026 0.47031
#
# Static dielectric constant tensor:
#      x y z
#    x 1.966130 0.000000 0.201520 
#    y 0.000000 1.932760 0.000000 
#    z 0.201520 0.000000 2.098810 
# 
# From -- ./inp_files/76687.got.cif
#   From: 2010.05.17/outbox.cif.g08.bks.cpg/sg15_39_cif.got.tgz:76687.got - 2010.06.03 18:47:42.
