data_PCOD9285136
_publ_section_title
;
Structure prediction by ZEFSAII (Michael W. Deem and Ramdas Pophale) SiO2 
 PCOD9285136
Probable space group: C 2/C
;
_chemical_formula_sum "Si O2"
_cell_formula_units_Z 52
_cell_length_a 15.454534
_cell_length_b 12.680423
_cell_length_c 18.711608
_cell_angle_alpha 90.000000
_cell_angle_beta 134.552266
_cell_angle_gamma 90.000000
_cell_volume 2613.082672
_symmetry_space_group_name_H-M "C 2/C"
_symmetry_group_IT_number 15
_symmetry_cell_setting 'monoclinic'
loop_
_space_group_symop_operation_xyz
x,y,z
-x,y,1/2-z
-x,-y,-z
x,-y,1/2+z
1/2+x,1/2+y,z
1/2-x,1/2+y,1/2-z
1/2-x,1/2-y,-z
1/2+x,1/2-y,1/2+z
loop_
_atom_site_type_symbol
_atom_site_label
_atom_site_fract_x
_atom_site_fract_y
_atom_site_fract_z
Si Si1 0.412603 0.580669 0.494463
Si Si2 0.856548 0.529844 0.405000
Si Si3 0.620060 0.502181 0.862549
Si Si4 0.500000 0.902639 0.250000
Si Si5 0.604919 0.277705 0.069717
Si Si6 0.722965 0.022766 0.799678
Si Si7 0.891727 0.226643 0.089743
O O1 0.500000 0.500000 0.500000
O O2 0.379872 0.542301 0.555186
O O3 0.486385 0.688812 0.545165
O O4 0.299082 0.574673 0.375733
O O5 0.752642 0.488898 0.400885
O O6 0.852577 0.657777 0.399953
O O7 0.811937 0.488820 0.302467
O O8 0.000000 0.500000 0.500000
O O9 0.500000 0.543955 0.750000
O O10 0.597705 0.377270 0.857688
O O11 0.393960 0.971415 0.219307
O O12 0.454586 0.826104 0.161164
O O13 0.707008 0.365348 0.146864
O O14 0.563168 0.293101 0.963696
O O15 0.750000 0.250000 0.000000
#
# Coordination Sequence:
#
# PCOD9285136 Si02
#       7
#     8   8   8   4   8   8   8
#     4  10  21  41  67  95 132 175 220 274 342 417
#     4  12  28  43  65 101 141 180 231 289 337 408
#     4  12  22  40  68 100 137 175 228 278 344 414
#     4  12  22  36  66 100 130 166 214 294 346 394
#     4  11  23  43  66  99 135 172 224 280 349 406
#     4  11  24  40  67  94 133 175 224 275 352 404
#     4  12  20  35  63 102 129 158 213 290 350 395
#
# _framework density 19.899868000000001
#
# number of rings (size 3 to 8) (size 9 to 14) (size 15 to 20)
#    0.000    0.615    6.923    2.769    2.154    1.231 
#    0.000    0.769    5.077    0.000    0.000    0.000 
#    0.000    0.000    0.000    0.000    0.000    0.000 
#
# Total GULP energy -144982.594315 kJ/mol
# GULP energy per Si atom -5576.253627 kJ/mol
# Density = 1.985458 g / cm^3
# Si number density = 19.899868 Si / 1000 Ang^3
#
#
#
# Elastic Constant Matrix: (Units=GPa)
#
#
# Indices 1 2 3 4 5 6 
#
# 1 148.6098 33.0848 59.5293 0.0000 1.3770 0.0000
# 2 33.0848 31.8176 7.2660 0.0000 3.7445 0.0000
# 3 59.5293 7.2660 119.6365 0.0000 -5.4613 0.0000
# 4 0.0000 0.0000 0.0000 21.9949 0.0000 3.9027
# 5 1.3770 3.7445 -5.4613 0.0000 34.3049 0.0000
# 6 0.0000 0.0000 0.0000 3.9027 0.0000 25.8771
#
#
#
# Elastic Compliance Matrix: (Units=1/GPa)
#
#
# Indices 1 2 3 4 5 6 
#
# 1 0.010952 -0.010275 -0.004829 0.000000 -0.000087 0.000000
# 2 -0.010275 0.042015 0.002388 0.000000 -0.003794 0.000000
# 3 -0.004829 0.002388 0.010691 0.000000 0.001635 0.000000
# 4 0.000000 0.000000 0.000000 0.046715 0.000000 -0.007045
# 5 -0.000087 -0.003794 0.001635 0.000000 0.029828 0.000000
# 6 0.000000 0.000000 0.000000 -0.007045 0.000000 0.039707
#
#
# Mechanical properties :
#
#
# Convention : Reuss Voigt Hill
#
# Bulk Modulus (GPa) = 26.16120 55.53600 40.84860
# Shear Modulus (GPa) = 22.92707 29.78095 26.35401
#
# Velocity S-wave (km/s) = 3.39797 3.87271 3.64308
# Velocity P-wave (km/s) = 5.34508 6.92571 6.18609
#
# Compressibility (1/GPa) = 0.03822455
#
# Stress axis : x y z
#
# Youngs Moduli (GPa) = 91.30852 23.80128 93.53375
#
# Poissons Ratio (x) = 0.24456 0.45171
# Poissons Ratio (y) = 0.93819 -0.22334
# Poissons Ratio (z) = 0.44097 -0.05683
#
# Static dielectric constant tensor:
#      x y z
#    x 1.746610 0.000000 0.063510 
#    y 0.000000 1.723190 0.000000 
#    z 0.063510 0.000000 1.653720 
# 
# From -- ./inp_files/205760.got.cif
#   From: 2010.05.17/outbox.cif.g08.bks.cpg/sg15_103_cif.got.tgz:205760.got - 2010.06.03 18:47:42.
