data_PCOD9285258
_publ_section_title
;
Structure prediction by ZEFSAII (Michael W. Deem and Ramdas Pophale) SiO2 
 PCOD9285258
Probable space group: C 2/C
;
_chemical_formula_sum "Si O2"
_cell_formula_units_Z 60
_cell_length_a 11.710539
_cell_length_b 27.877261
_cell_length_c 8.132104
_cell_angle_alpha 90.000000
_cell_angle_beta 90.066142
_cell_angle_gamma 90.000000
_cell_volume 2654.786623
_symmetry_space_group_name_H-M "C 2/C"
_symmetry_group_IT_number 15
_symmetry_cell_setting 'monoclinic'
loop_
_space_group_symop_operation_xyz
x,y,z
-x,y,1/2-z
-x,-y,-z
x,-y,1/2+z
1/2+x,1/2+y,z
1/2-x,1/2+y,1/2-z
1/2-x,1/2-y,-z
1/2+x,1/2-y,1/2+z
loop_
_atom_site_type_symbol
_atom_site_label
_atom_site_fract_x
_atom_site_fract_y
_atom_site_fract_z
Si Si1 0.185500 0.059225 0.613694
Si Si2 0.289990 0.803944 0.489110
Si Si3 0.433056 0.043984 0.082308
Si Si4 0.086383 0.142860 0.105261
Si Si5 0.136479 0.629918 0.791184
Si Si6 0.000000 0.867325 0.250000
Si Si7 0.679412 0.543688 0.219004
Si Si8 0.004026 0.647388 0.057865
O O1 0.307626 0.077009 0.691299
O O2 0.192181 0.054840 0.414400
O O3 0.100654 0.100125 0.675123
O O4 0.137254 0.010169 0.690177
O O5 0.250000 0.750000 0.500000
O O6 0.212019 0.833901 0.615570
O O7 0.289203 0.834433 0.319057
O O8 0.424277 0.807531 0.523663
O O9 0.500000 0.047621 0.250000
O O10 0.301003 0.039054 0.125533
O O11 0.445827 0.096255 0.001032
O O12 0.500000 0.000000 0.000000
O O13 0.107039 0.085567 0.130976
O O14 0.000000 0.157818 0.250000
O O15 0.043958 0.156625 0.920900
O O16 0.000000 0.638038 0.750000
O O17 0.128747 0.647789 0.980403
O O18 0.000000 0.644096 0.250000
#
# Coordination Sequence:
#
# PCOD9285258 Si02
#       8
#     8   8   8   8   8   4   8   8
#     4  12  25  41  67 102 148 190 243 285 353 428
#     4  11  25  48  73 101 136 180 237 304 374 427
#     4  11  22  37  61  98 140 182 224 273 347 430
#     4  12  26  48  74  99 142 191 246 302 357 426
#     4  10  23  43  71  99 142 182 230 297 364 424
#     4  12  26  46  68 100 142 192 242 294 348 420
#     4  12  25  41  66 103 141 196 235 288 349 423
#     4  10  21  41  69 101 139 178 224 288 361 432
#
# _framework density 22.600688000000002
#
# number of rings (size 3 to 8) (size 9 to 14) (size 15 to 20)
#    0.000    0.800    4.000    4.000    0.933    6.933 
#    1.200    1.333    0.000    0.000    0.000    0.000 
#    0.000    0.000    0.000    0.000    0.000    0.000 
#
# Total GULP energy -167181.055963 kJ/mol
# GULP energy per Si atom -5572.701865 kJ/mol
# Density = 2.254925 g / cm^3
# Si number density = 22.600688 Si / 1000 Ang^3
#
#
#
# Elastic Constant Matrix: (Units=GPa)
#
#
# Indices 1 2 3 4 5 6 
#
# 1 70.4608 7.8513 20.1124 0.0000 -29.6772 0.0000
# 2 7.8513 102.1567 25.7275 0.0000 -11.1059 0.0000
# 3 20.1124 25.7275 115.7384 0.0000 -29.0112 0.0000
# 4 0.0000 0.0000 0.0000 13.0322 0.0000 -1.0237
# 5 -29.6772 -11.1059 -29.0112 0.0000 47.7397 0.0000
# 6 0.0000 0.0000 0.0000 -1.0237 0.0000 32.8762
#
#
#
# Elastic Compliance Matrix: (Units=1/GPa)
#
#
# Indices 1 2 3 4 5 6 
#
# 1 0.019244 -0.000109 -0.000386 0.000000 0.011703 0.000000
# 2 -0.000109 0.010428 -0.002015 0.000000 0.001133 0.000000
# 3 -0.000386 -0.002015 0.010591 0.000000 0.005727 0.000000
# 4 0.000000 0.000000 0.000000 0.076921 0.000000 0.002395
# 5 0.011703 0.001133 0.005727 0.000000 0.031966 0.000000
# 6 0.000000 0.000000 0.000000 0.002395 0.000000 0.030492
#
#
# Mechanical properties :
#
#
# Convention : Reuss Voigt Hill
#
# Bulk Modulus (GPa) = 28.37603 43.97092 36.17348
# Shear Modulus (GPa) = 25.45698 34.37392 29.91545
#
# Velocity S-wave (km/s) = 3.35980 3.90413 3.64215
# Velocity P-wave (km/s) = 5.25677 6.31037 5.80752
#
# Compressibility (1/GPa) = 0.03524101
#
# Stress axis : x y z
#
# Youngs Moduli (GPa) = 51.96497 95.89610 94.42198
#
# Poissons Ratio (x) = 0.01050 0.03648
# Poissons Ratio (y) = 0.00569 0.19025
# Poissons Ratio (z) = 0.02008 0.19322
#
# Static dielectric constant tensor:
#      x y z
#    x 2.044400 0.000000 0.177080 
#    y 0.000000 1.936660 0.000000 
#    z 0.177080 0.000000 2.213950 
# 
# From -- ./inp_files/34292.got.cif
#   From: 2010.05.17/outbox.cif.g08.bks.cpg/sg15_18_cif.got.tgz:34292.got - 2010.06.03 18:47:42.
