data_PCOD9285803
_publ_section_title
;
Structure prediction by ZEFSAII (Michael W. Deem and Ramdas Pophale) SiO2 
 PCOD9285803
Probable space group: C 2/C
;
_chemical_formula_sum "Si O2"
_cell_formula_units_Z 40
_cell_length_a 4.995783
_cell_length_b 14.327132
_cell_length_c 25.615920
_cell_angle_alpha 90.000000
_cell_angle_beta 81.136088
_cell_angle_gamma 90.000000
_cell_volume 1811.568815
_symmetry_space_group_name_H-M "C 2/C"
_symmetry_group_IT_number 15
_symmetry_cell_setting 'monoclinic'
loop_
_space_group_symop_operation_xyz
x,y,z
-x,y,1/2-z
-x,-y,-z
x,-y,1/2+z
1/2+x,1/2+y,z
1/2-x,1/2+y,1/2-z
1/2-x,1/2-y,-z
1/2+x,1/2-y,1/2+z
loop_
_atom_site_type_symbol
_atom_site_label
_atom_site_fract_x
_atom_site_fract_y
_atom_site_fract_z
Si Si1 0.274373 0.538239 0.968045
Si Si2 0.904491 0.781417 0.640183
Si Si3 0.075155 0.180693 0.901713
Si Si4 0.000000 0.297959 0.250000
Si Si5 0.531111 0.509514 0.360197
Si Si6 0.000000 0.065753 0.750000
O O1 0.378984 0.644867 0.954570
O O2 0.288640 0.496205 0.909174
O O3 0.500000 0.500000 0.000000
O O4 0.000000 0.500000 0.000000
O O5 0.638206 0.724103 0.632486
O O6 0.167004 0.747288 0.598790
O O7 0.987860 0.761709 0.697502
O O8 0.839090 0.890187 0.635923
O O9 0.192331 0.083024 0.874433
O O10 0.746415 0.366623 0.255444
O O11 0.447240 0.495018 0.303129
#
# Coordination Sequence:
#
# PCOD9285803 Si02
#       6
#     8   8   8   4   8   4
#     4  10  21  42  67  88 128 168 206 262 314 367
#     4  12  22  41  63  95 124 168 210 258 313 382
#     4  10  24  41  65  89 133 156 212 261 311 363
#     4  12  19  38  63  86 130 166 203 256 313 372
#     4  10  25  42  68  93 129 167 213 256 321 375
#     4  12  23  42  63  94 128 172 197 266 317 370
#
# _framework density 22.080310000000001
#
# number of rings (size 3 to 8) (size 9 to 14) (size 15 to 20)
#    1.200    0.000    4.000    1.800    0.000    6.400 
#    0.000    8.000    0.000    0.000    0.000    0.000 
#    0.000    0.000    0.000    0.000    0.000    0.000 
#
# Total GULP energy -111458.063900 kJ/mol
# GULP energy per Si atom -5572.903195 kJ/mol
# Density = 2.203005 g / cm^3
# Si number density = 22.080310 Si / 1000 Ang^3
#
#
#
# Elastic Constant Matrix: (Units=GPa)
#
#
# Indices 1 2 3 4 5 6 
#
# 1 123.2662 21.3794 6.2952 0.0000 1.2580 0.0000
# 2 21.3794 113.0202 -8.4478 0.0000 3.6292 0.0000
# 3 6.2952 -8.4478 82.4087 0.0000 -21.6385 0.0000
# 4 0.0000 0.0000 0.0000 -3.4303 0.0000 -3.2359
# 5 1.2580 3.6292 -21.6385 0.0000 25.3294 0.0000
# 6 0.0000 0.0000 0.0000 -3.2359 0.0000 9.2728
#
#
#
# Elastic Compliance Matrix: (Units=1/GPa)
#
#
# Indices 1 2 3 4 5 6 
#
# 1 0.008467 -0.001648 -0.001114 0.000000 -0.001136 0.000000
# 2 -0.001648 0.009245 0.000963 0.000000 -0.000420 0.000000
# 3 -0.001114 0.000963 0.015853 0.000000 0.013460 0.000000
# 4 0.000000 0.000000 0.000000 -0.219319 0.000000 -0.076536
# 5 -0.001136 -0.000420 0.013460 0.000000 0.051095 0.000000
# 6 0.000000 0.000000 0.000000 -0.076536 0.000000 0.081134
#
#
# Mechanical properties :
#
#
# Convention : Reuss Voigt Hill
#
# Bulk Modulus (GPa) = 33.37013 39.68318 36.52665
# Shear Modulus (GPa) = -125.19518 26.19892 -49.49813
#
# Velocity S-wave (km/s) = -7.53810 3.44834 -4.73983
# Velocity P-wave (km/s) = 7.78576 5.81945 3.65733
#
# Compressibility (1/GPa) = 0.02996692
#
# Stress axis : x y z
#
# Youngs Moduli (GPa) = 118.10672 108.16314 63.08037
#
# Poissons Ratio (x) = 0.17830 0.07028
# Poissons Ratio (y) = 0.19469 -0.06078
# Poissons Ratio (z) = 0.13158 -0.10421
#
# Static dielectric constant tensor:
#      x y z
#    x 1.776570 0.000000 -0.054230 
#    y 0.000000 1.836040 0.000000 
#    z -0.054230 0.000000 1.871790 
# 
# From -- ./inp_files/285327.got.cif
#   From: 2010.05.17/outbox.cif.g08.bks.cpg/sg15_143_cif.got.tgz:285327.got - 2010.06.03 18:47:42.
