data_PCOD9285414
_publ_section_title
;
Structure prediction by ZEFSAII (Michael W. Deem and Ramdas Pophale) SiO2 
 PCOD9285414
Probable space group: C 2/C
;
_chemical_formula_sum "Si O2"
_cell_formula_units_Z 40
_cell_length_a 12.942399
_cell_length_b 27.768198
_cell_length_c 7.737682
_cell_angle_alpha 90.000000
_cell_angle_beta 33.246251
_cell_angle_gamma 90.000000
_cell_volume 1524.554296
_symmetry_space_group_name_H-M "C 2/C"
_symmetry_group_IT_number 15
_symmetry_cell_setting 'monoclinic'
loop_
_space_group_symop_operation_xyz
x,y,z
-x,y,1/2-z
-x,-y,-z
x,-y,1/2+z
1/2+x,1/2+y,z
1/2-x,1/2+y,1/2-z
1/2-x,1/2-y,-z
1/2+x,1/2-y,1/2+z
loop_
_atom_site_type_symbol
_atom_site_label
_atom_site_fract_x
_atom_site_fract_y
_atom_site_fract_z
Si Si1 0.761900 0.552834 0.402713
Si Si2 0.414613 0.197166 0.097287
Si Si3 0.306215 0.693514 0.731425
Si Si4 0.787641 0.556486 0.768575
Si Si5 0.162615 0.125000 0.250001
O O1 0.732999 0.563452 0.645203
O O2 0.725718 0.496796 0.414118
O O3 0.658221 0.587202 0.414215
O O4 0.985065 0.559224 0.050018
O O5 0.389835 0.253204 0.085883
O O6 0.285086 0.190776 0.449980
O O7 0.322434 0.162798 0.085788
O O8 0.628203 0.186549 0.854793
O O9 0.475624 0.656267 0.486511
O O10 0.712134 0.593733 0.013490
#
# Coordination Sequence:
#
# PCOD9285414 Si02
#       5
#     8   8   8   8   8
#     4  10  21  42  77 125 174 224 283 354 431 510
#     4  10  21  42  77 125 174 224 283 354 431 510
#     4  10  21  41  77 127 172 226 287 352 427 516
#     4  10  21  41  77 127 172 226 287 352 427 516
#     4  12  22  39  84 133 170 226 284 350 440 508
#
# _framework density 26.237175000000001
#
# number of rings (size 3 to 8) (size 9 to 14) (size 15 to 20)
#    0.000    1.600    4.000    1.200    0.000    3.200 
#    0.000    0.000    0.000   36.000    0.000   11.200 
#    0.000    0.000    0.000    0.000    0.000    0.000 
#
# Total GULP energy -112472.803291 kJ/mol
# GULP energy per Si atom -5623.640165 kJ/mol
# Density = 2.617746 g / cm^3
# Si number density = 26.237175 Si / 1000 Ang^3
#
#
#
# Elastic Constant Matrix: (Units=GPa)
#
#
# Indices 1 2 3 4 5 6 
#
# 1 229.1645 153.9358 145.6419 0.0000 15.5805 0.0000
# 2 153.9358 275.4468 136.9127 0.0000 -4.8519 0.0000
# 3 145.6419 136.9127 199.2731 0.0000 -24.1009 0.0000
# 4 0.0000 0.0000 0.0000 84.6228 0.0000 -98.0323
# 5 15.5805 -4.8519 -24.1009 0.0000 57.7972 0.0000
# 6 0.0000 0.0000 0.0000 -98.0323 0.0000 428.6511
#
#
#
# Elastic Compliance Matrix: (Units=1/GPa)
#
#
# Indices 1 2 3 4 5 6 
#
# 1 0.011062 -0.002893 -0.006831 0.000000 -0.006073 0.000000
# 2 -0.002893 0.006347 -0.002198 0.000000 0.000396 0.000000
# 3 -0.006831 -0.002198 0.012344 0.000000 0.006804 0.000000
# 4 0.000000 0.000000 0.000000 0.016076 0.000000 0.003677
# 5 -0.006073 0.000396 0.006804 0.000000 0.021810 0.000000
# 6 0.000000 0.000000 0.000000 0.003677 0.000000 0.003174
#
#
# Mechanical properties :
#
#
# Convention : Reuss Voigt Hill
#
# Bulk Modulus (GPa) = 169.28213 175.20721 172.24467
# Shear Modulus (GPa) = 51.74527 132.04049 91.89288
#
# Velocity S-wave (km/s) = 4.44578 7.10176 5.92452
# Velocity P-wave (km/s) = 9.54009 11.58317 10.61092
#
# Compressibility (1/GPa) = 0.00590730
#
# Stress axis : x y z
#
# Youngs Moduli (GPa) = 90.40327 157.55264 81.01009
#
# Poissons Ratio (x) = 0.45586 0.55339
# Poissons Ratio (y) = 0.26157 0.17808
# Poissons Ratio (z) = 0.61755 0.34634
#
# Static dielectric constant tensor:
#      x y z
#    x 1.988430 0.000000 0.020660 
#    y 0.000000 2.015880 0.000000 
#    z 0.020660 0.000000 2.060950 
# 
# From -- ./inp_files/100906.got.cif
#   From: 2010.05.17/outbox.cif.g08.bks.cpg/sg15_51_cif.got.tgz:100906.got - 2010.06.03 18:47:42.
