data_PCOD9285704
_publ_section_title
;
Structure prediction by ZEFSAII (Michael W. Deem and Ramdas Pophale) SiO2 
 PCOD9285704
Probable space group: C 2/C
;
_chemical_formula_sum "Si O2"
_cell_formula_units_Z 64
_cell_length_a 27.734728
_cell_length_b 10.758290
_cell_length_c 9.343343
_cell_angle_alpha 90.000000
_cell_angle_beta 79.680631
_cell_angle_gamma 90.000000
_cell_volume 2742.755535
_symmetry_space_group_name_H-M "C 2/C"
_symmetry_group_IT_number 15
_symmetry_cell_setting 'monoclinic'
loop_
_space_group_symop_operation_xyz
x,y,z
-x,y,1/2-z
-x,-y,-z
x,-y,1/2+z
1/2+x,1/2+y,z
1/2-x,1/2+y,1/2-z
1/2-x,1/2-y,-z
1/2+x,1/2-y,1/2+z
loop_
_atom_site_type_symbol
_atom_site_label
_atom_site_fract_x
_atom_site_fract_y
_atom_site_fract_z
Si Si1 0.152251 0.238656 0.158970
Si Si2 0.868224 0.540874 0.613007
Si Si3 0.249753 0.898578 0.892738
Si Si4 0.093861 0.797537 0.425674
Si Si5 0.969678 0.413306 0.621844
Si Si6 0.780255 0.628221 0.065320
Si Si7 0.646091 0.779294 0.611017
Si Si8 0.363811 0.431393 0.581834
O O1 0.151766 0.346812 0.277688
O O2 0.141622 0.113305 0.251221
O O3 0.108906 0.260706 0.069772
O O4 0.199247 0.250149 0.027660
O O5 0.916939 0.481721 0.649091
O O6 0.825738 0.440877 0.620561
O O7 0.874101 0.594699 0.449576
O O8 0.247373 0.862658 0.725162
O O9 0.293769 0.803852 0.926154
O O10 0.191774 0.925301 0.951733
O O11 0.268148 0.029597 0.947264
O O12 0.043192 0.729474 0.414405
O O13 0.130684 0.762298 0.276345
O O14 0.104791 0.943972 0.441022
O O15 0.000000 0.411246 0.750000
O O16 0.000000 0.500000 0.500000
O O17 0.617068 0.679705 0.526828
#
# Coordination Sequence:
#
# PCOD9285704 Si02
#       8
#     8   8   8   8   8   8   8   8
#     4  11  22  41  66  91 127 192 226 277 351 422
#     4  10  21  42  66 100 136 168 221 294 377 418
#     4  11  23  38  62  98 139 181 256 301 334 385
#     4  12  24  43  66  96 140 183 228 284 369 427
#     4  12  25  42  75 112 132 159 223 305 373 444
#     4  11  21  37  65  95 137 180 227 305 344 396
#     4  10  22  42  66  90 139 196 231 289 342 414
#     4  11  27  41  60  94 141 199 245 279 332 431
#
# _framework density 23.334198000000001
#
# number of rings (size 3 to 8) (size 9 to 14) (size 15 to 20)
#    0.000    1.000    3.750    2.625    5.250    1.500 
#    0.000    0.000    0.000   15.000    0.000    0.000 
#    0.000    0.000    0.000    0.000    0.000    0.000 
#
# Total GULP energy -178220.210552 kJ/mol
# GULP energy per Si atom -5569.381580 kJ/mol
# Density = 2.328109 g / cm^3
# Si number density = 23.334198 Si / 1000 Ang^3
#
#
#
# Elastic Constant Matrix: (Units=GPa)
#
#
# Indices 1 2 3 4 5 6 
#
# 1 51.5959 8.2155 5.0569 0.0000 13.4854 0.0000
# 2 8.2155 74.3780 -5.7599 0.0000 6.9681 0.0000
# 3 5.0569 -5.7599 68.5272 0.0000 27.9369 0.0000
# 4 0.0000 0.0000 0.0000 31.7347 0.0000 7.9048
# 5 13.4854 6.9681 27.9369 0.0000 37.6399 0.0000
# 6 0.0000 0.0000 0.0000 7.9048 0.0000 18.1814
#
#
#
# Elastic Compliance Matrix: (Units=1/GPa)
#
#
# Indices 1 2 3 4 5 6 
#
# 1 0.021761 -0.001414 0.001931 0.000000 -0.008968 0.000000
# 2 -0.001414 0.014259 0.003115 0.000000 -0.004445 0.000000
# 3 0.001931 0.003115 0.021837 0.000000 -0.017476 0.000000
# 4 0.000000 0.000000 0.000000 0.035338 0.000000 -0.015364
# 5 -0.008968 -0.004445 -0.017476 0.000000 0.043575 0.000000
# 6 0.000000 0.000000 0.000000 -0.015364 0.000000 0.061681
#
#
# Mechanical properties :
#
#
# Convention : Reuss Voigt Hill
#
# Bulk Modulus (GPa) = 15.35590 23.28067 19.31828
# Shear Modulus (GPa) = 23.48599 29.97710 26.73155
#
# Velocity S-wave (km/s) = 3.17599 3.58814 3.38834
# Velocity P-wave (km/s) = 4.47709 5.21201 4.85847
#
# Compressibility (1/GPa) = 0.06512157
#
# Stress axis : x y z
#
# Youngs Moduli (GPa) = 45.95337 70.13281 45.79459
#
# Poissons Ratio (x) = 0.09916 -0.08845
# Poissons Ratio (y) = 0.06497 -0.14265
# Poissons Ratio (z) = -0.08876 -0.21846
#
# Static dielectric constant tensor:
#      x y z
#    x 2.003530 0.000000 -0.046550 
#    y 0.000000 1.992230 0.000000 
#    z -0.046550 0.000000 2.123850 
# 
# From -- ./inp_files/69372.got.cif
#   From: 2010.05.17/outbox.cif.g08.bks.cpg/sg15_35_cif.got.tgz:69372.got - 2010.06.03 18:47:42.
