data_PCOD9285362
_publ_section_title
;
Structure prediction by ZEFSAII (Michael W. Deem and Ramdas Pophale) SiO2 
 PCOD9285362
Probable space group: C 2/C
;
_chemical_formula_sum "Si O2"
_cell_formula_units_Z 64
_cell_length_a 20.853397
_cell_length_b 11.592930
_cell_length_c 20.871305
_cell_angle_alpha 90.000000
_cell_angle_beta 144.480949
_cell_angle_gamma 90.000000
_cell_volume 2931.406469
_symmetry_space_group_name_H-M "C 2/C"
_symmetry_group_IT_number 15
_symmetry_cell_setting 'monoclinic'
loop_
_space_group_symop_operation_xyz
x,y,z
-x,y,1/2-z
-x,-y,-z
x,-y,1/2+z
1/2+x,1/2+y,z
1/2-x,1/2+y,1/2-z
1/2-x,1/2-y,-z
1/2+x,1/2-y,1/2+z
loop_
_atom_site_type_symbol
_atom_site_label
_atom_site_fract_x
_atom_site_fract_y
_atom_site_fract_z
Si Si1 0.574861 0.723844 0.748306
Si Si2 0.911675 0.335665 0.130995
Si Si3 0.399372 0.365955 0.909285
Si Si4 0.999163 0.011541 0.606373
Si Si5 0.223361 0.553856 0.763132
Si Si6 0.298868 0.852196 0.385642
Si Si7 0.503359 0.041000 0.380655
Si Si8 0.802157 0.150000 0.955643
O O1 0.500000 0.741860 0.750000
O O2 0.539693 0.598587 0.692640
O O3 0.708662 0.710515 0.857530
O O4 0.542883 0.834090 0.678693
O O5 0.967370 0.453402 0.152587
O O6 0.804390 0.359318 0.086408
O O7 0.000000 0.274081 0.250000
O O8 0.870961 0.259898 0.037333
O O9 0.436730 0.398678 0.868179
O O10 0.288465 0.437277 0.832112
O O11 0.374554 0.237189 0.908023
O O12 0.487812 0.411359 0.032719
O O13 0.880777 0.960142 0.529071
O O14 0.261046 0.586678 0.722593
O O15 0.261271 0.645101 0.848424
O O16 0.094201 0.523734 0.660525
O O17 0.381752 0.935532 0.489861
#
# Coordination Sequence:
#
# PCOD9285362 Si02
#       8
#     8   8   8   8   8   8   8   8
#     4  12  27  44  69 103 143 189 239 293 358 437
#     4  11  24  48  71 106 144 186 240 296 356 436
#     4  10  21  41  71  91 136 176 227 294 356 420
#     4  10  22  44  66 100 131 179 228 290 356 421
#     4  11  23  45  69 103 139 186 237 302 363 421
#     4  12  26  44  68 105 142 188 250 300 360 433
#     4  12  26  45  71 104 146 193 243 300 363 425
#     4  10  25  44  75 100 139 190 237 288 367 427
#
# _framework density 21.832522999999998
#
# number of rings (size 3 to 8) (size 9 to 14) (size 15 to 20)
#    0.000    1.000    5.000    0.750    3.500    2.000 
#    2.250    0.000    0.000    0.000    0.000    0.000 
#    0.000    0.000    0.000    0.000    0.000    0.000 
#
# Total GULP energy -178520.638242 kJ/mol
# GULP energy per Si atom -5578.769945 kJ/mol
# Density = 2.178283 g / cm^3
# Si number density = 21.832523 Si / 1000 Ang^3
#
#
#
# Elastic Constant Matrix: (Units=GPa)
#
#
# Indices 1 2 3 4 5 6 
#
# 1 97.9097 20.3642 24.6519 0.0000 12.2522 0.0000
# 2 20.3642 49.3665 17.0400 0.0000 1.0306 0.0000
# 3 24.6519 17.0400 83.5869 0.0000 5.8703 0.0000
# 4 0.0000 0.0000 0.0000 26.1983 0.0000 7.8929
# 5 12.2522 1.0306 5.8703 0.0000 31.6286 0.0000
# 6 0.0000 0.0000 0.0000 7.8929 0.0000 13.9652
#
#
#
# Elastic Compliance Matrix: (Units=1/GPa)
#
#
# Indices 1 2 3 4 5 6 
#
# 1 0.012206 -0.004094 -0.002475 0.000000 -0.004135 0.000000
# 2 -0.004094 0.023164 -0.003620 0.000000 0.001503 0.000000
# 3 -0.002475 -0.003620 0.013532 0.000000 -0.001435 0.000000
# 4 0.000000 0.000000 0.000000 0.046004 0.000000 -0.026001
# 5 -0.004135 0.001503 -0.001435 0.000000 0.033436 0.000000
# 6 0.000000 0.000000 0.000000 -0.026001 0.000000 0.086302
#
#
# Mechanical properties :
#
#
# Convention : Reuss Voigt Hill
#
# Bulk Modulus (GPa) = 35.05917 39.44170 37.25044
# Shear Modulus (GPa) = 20.44742 25.61224 23.02983
#
# Velocity S-wave (km/s) = 3.06364 3.42880 3.25135
# Velocity P-wave (km/s) = 5.34861 5.81209 5.58516
#
# Compressibility (1/GPa) = 0.02852320
#
# Stress axis : x y z
#
# Youngs Moduli (GPa) = 81.92914 43.17063 73.89769
#
# Poissons Ratio (x) = 0.17676 0.18287
# Poissons Ratio (y) = 0.33546 0.26752
# Poissons Ratio (z) = 0.20274 0.15629
#
# Static dielectric constant tensor:
#      x y z
#    x 1.802040 0.000000 0.011810 
#    y 0.000000 1.821000 0.000000 
#    z 0.011810 0.000000 1.961520 
# 
# From -- ./inp_files/252585.got.cif
#   From: 2010.05.17/outbox.cif.g08.bks.cpg/sg15_127_cif.got.tgz:252585.got - 2010.06.03 18:47:42.
