data_PCOD9285790
_publ_section_title
;
Structure prediction by ZEFSAII (Michael W. Deem and Ramdas Pophale) SiO2 
 PCOD9285790
Probable space group: C 2/C
;
_chemical_formula_sum "Si O2"
_cell_formula_units_Z 48
_cell_length_a 12.147685
_cell_length_b 16.473789
_cell_length_c 11.658770
_cell_angle_alpha 90.000000
_cell_angle_beta 91.017991
_cell_angle_gamma 90.000000
_cell_volume 2332.766144
_symmetry_space_group_name_H-M "C 2/C"
_symmetry_group_IT_number 15
_symmetry_cell_setting 'monoclinic'
loop_
_space_group_symop_operation_xyz
x,y,z
-x,y,1/2-z
-x,-y,-z
x,-y,1/2+z
1/2+x,1/2+y,z
1/2-x,1/2+y,1/2-z
1/2-x,1/2-y,-z
1/2+x,1/2-y,1/2+z
loop_
_atom_site_type_symbol
_atom_site_label
_atom_site_fract_x
_atom_site_fract_y
_atom_site_fract_z
Si Si1 0.528754 0.404554 0.512628
Si Si2 0.943594 0.502904 0.626218
Si Si3 0.965648 0.746041 0.119292
Si Si4 0.763987 0.365725 0.620323
Si Si5 0.821569 0.839934 0.628679
Si Si6 0.860842 0.663767 0.549994
O O1 0.500000 0.500000 0.500000
O O2 0.512215 0.341164 0.406917
O O3 0.654315 0.384967 0.547530
O O4 0.443462 0.371867 0.606612
O O5 0.844263 0.441355 0.610560
O O6 0.904958 0.595622 0.634384
O O7 0.000000 0.481662 0.750000
O O8 0.000000 0.500000 0.500000
O O9 0.841252 0.713066 0.097366
O O10 0.000000 0.728120 0.250000
O O11 0.045138 0.695560 0.035519
O O12 0.724171 0.361754 0.750005
O O13 0.820282 0.742777 0.615925
O O14 0.739236 0.870800 0.527981
#
# Coordination Sequence:
#
# PCOD9285790 Si02
#       6
#     8   8   8   8   8   8
#     4  11  26  44  64  97 142 183 232 286 355 442
#     4  12  25  43  71 103 141 180 238 302 362 418
#     4  11  22  43  73 100 135 181 237 297 365 427
#     4  12  23  44  69  99 138 179 238 295 359 427
#     4  10  22  42  68  93 136 180 222 281 354 431
#     4  10  21  42  67 100 134 175 228 284 355 421
#
# _framework density 20.576430999999999
#
# number of rings (size 3 to 8) (size 9 to 14) (size 15 to 20)
#    0.000    1.000    3.333    3.500    0.000    4.000 
#    6.000    0.000    0.000    0.000    0.000    0.000 
#    0.000    0.000    0.000    0.000    0.000    0.000 
#
# Total GULP energy -133948.717721 kJ/mol
# GULP energy per Si atom -5581.196572 kJ/mol
# Density = 2.052960 g / cm^3
# Si number density = 20.576431 Si / 1000 Ang^3
#
#
#
# Elastic Constant Matrix: (Units=GPa)
#
#
# Indices 1 2 3 4 5 6 
#
# 1 114.6129 23.5002 36.7121 0.0000 1.1760 0.0000
# 2 23.5002 103.8264 27.2998 0.0000 0.5385 0.0000
# 3 36.7121 27.2998 77.4601 0.0000 -12.4855 0.0000
# 4 0.0000 0.0000 0.0000 41.9896 0.0000 -4.2325
# 5 1.1760 0.5385 -12.4855 0.0000 31.4664 0.0000
# 6 0.0000 0.0000 0.0000 -4.2325 0.0000 43.0551
#
#
#
# Elastic Compliance Matrix: (Units=1/GPa)
#
#
# Indices 1 2 3 4 5 6 
#
# 1 0.010575 -0.001061 -0.005020 0.000000 -0.002369 0.000000
# 2 -0.001061 0.010816 -0.003560 0.000000 -0.001558 0.000000
# 3 -0.005020 -0.003560 0.017717 0.000000 0.007278 0.000000
# 4 0.000000 0.000000 0.000000 0.024054 0.000000 0.002365
# 5 -0.002369 -0.001558 0.007278 0.000000 0.034783 0.000000
# 6 0.000000 0.000000 0.000000 0.002365 0.000000 0.023459
#
#
# Mechanical properties :
#
#
# Convention : Reuss Voigt Hill
#
# Bulk Modulus (GPa) = 50.44044 52.32485 51.38264
# Shear Modulus (GPa) = 33.94586 37.19469 35.57028
#
# Velocity S-wave (km/s) = 4.06611 4.25624 4.16226
# Velocity P-wave (km/s) = 6.82724 7.04548 6.93722
#
# Compressibility (1/GPa) = 0.01982536
#
# Stress axis : x y z
#
# Youngs Moduli (GPa) = 94.56423 92.45714 56.44363
#
# Poissons Ratio (x) = 0.09813 0.28333
# Poissons Ratio (y) = 0.10037 0.20094
# Poissons Ratio (z) = 0.47468 0.32915
#
# Static dielectric constant tensor:
#      x y z
#    x 1.765190 0.000000 0.035360 
#    y 0.000000 1.675570 0.000000 
#    z 0.035360 0.000000 1.756670 
# 
# From -- ./inp_files/87397.got.cif
#   From: 2010.05.17/outbox.cif.g08.bks.cpg/sg15_44_cif.got.tgz:87397.got - 2010.06.03 18:47:42.
