data_PCOD9285668
_publ_section_title
;
Structure prediction by ZEFSAII (Michael W. Deem and Ramdas Pophale) SiO2 
 PCOD9285668
Probable space group: C 2/C
;
_chemical_formula_sum "Si O2"
_cell_formula_units_Z 52
_cell_length_a 16.839616
_cell_length_b 26.499451
_cell_length_c 8.150071
_cell_angle_alpha 90.000000
_cell_angle_beta 140.844201
_cell_angle_gamma 90.000000
_cell_volume 2296.447630
_symmetry_space_group_name_H-M "C 2/C"
_symmetry_group_IT_number 15
_symmetry_cell_setting 'monoclinic'
loop_
_space_group_symop_operation_xyz
x,y,z
-x,y,1/2-z
-x,-y,-z
x,-y,1/2+z
1/2+x,1/2+y,z
1/2-x,1/2+y,1/2-z
1/2-x,1/2-y,-z
1/2+x,1/2-y,1/2+z
loop_
_atom_site_type_symbol
_atom_site_label
_atom_site_fract_x
_atom_site_fract_y
_atom_site_fract_z
Si Si1 0.981206 0.263700 0.026725
Si Si2 0.648118 0.427464 0.991531
Si Si3 0.781158 0.493850 0.928916
Si Si4 0.416073 0.932740 0.860448
Si Si5 0.224176 0.658891 0.296339
Si Si6 0.148185 0.637419 0.798144
Si Si7 0.500000 0.689930 0.750000
O O1 0.000000 0.249211 0.250000
O O2 0.074636 0.311097 0.140964
O O3 0.841466 0.287086 0.782468
O O4 0.005098 0.222640 0.925729
O O5 0.696926 0.460100 0.914048
O O6 0.692408 0.462789 0.211335
O O7 0.727883 0.375868 0.105526
O O8 0.500000 0.419214 0.750000
O O9 0.895659 0.523779 0.196830
O O10 0.842457 0.457842 0.893111
O O11 0.338724 0.882610 0.688144
O O12 0.552659 0.909799 0.116928
O O13 0.372066 0.658808 0.550299
O O14 0.182689 0.644152 0.044618
#
# Coordination Sequence:
#
# PCOD9285668 Si02
#       7
#     8   8   8   8   8   8   4
#     4   9  22  44  70  99 132 167 218 283 336 393
#     4  11  23  39  57  91 134 182 221 262 325 393
#     4  10  23  38  64  93 128 175 227 272 310 388
#     4  10  21  42  65  94 128 171 219 277 324 373
#     4  10  22  43  65  96 136 169 208 274 339 394
#     4  10  22  41  67  92 135 170 209 278 338 385
#     4  12  24  42  74  98 126 180 220 264 344 428
#
# _framework density 22.643668000000002
#
# number of rings (size 3 to 8) (size 9 to 14) (size 15 to 20)
#    0.000    1.846    1.538    2.308    0.000   10.462 
#    5.538    3.846    0.000    0.000    0.000    0.000 
#    0.000    0.000    0.000    0.000    0.000    0.000 
#
# Total GULP energy -145371.451114 kJ/mol
# GULP energy per Si atom -5591.209658 kJ/mol
# Density = 2.259213 g / cm^3
# Si number density = 22.643668 Si / 1000 Ang^3
#
#
#
# Elastic Constant Matrix: (Units=GPa)
#
#
# Indices 1 2 3 4 5 6 
#
# 1 84.1275 9.9106 38.5140 0.0000 24.7062 0.0000
# 2 9.9106 33.4093 20.1047 0.0000 5.3122 0.0000
# 3 38.5140 20.1047 92.4693 0.0000 33.3459 0.0000
# 4 0.0000 0.0000 0.0000 10.4735 0.0000 8.6125
# 5 24.7062 5.3122 33.3459 0.0000 45.4063 0.0000
# 6 0.0000 0.0000 0.0000 8.6125 0.0000 -11.0655
#
#
#
# Elastic Compliance Matrix: (Units=1/GPa)
#
#
# Indices 1 2 3 4 5 6 
#
# 1 0.015523 -0.001162 -0.004375 0.000000 -0.005098 0.000000
# 2 -0.001162 0.034658 -0.007913 0.000000 0.002388 0.000000
# 3 -0.004375 -0.007913 0.017907 0.000000 -0.009845 0.000000
# 4 0.000000 0.000000 0.000000 0.058218 0.000000 0.045312
# 5 -0.005098 0.002388 -0.009845 0.000000 0.031748 0.000000
# 6 0.000000 0.000000 0.000000 0.045312 0.000000 -0.055104
#
#
# Mechanical properties :
#
#
# Convention : Reuss Voigt Hill
#
# Bulk Modulus (GPa) = 24.27757 38.56274 31.42015
# Shear Modulus (GPa) = 34.82390 18.39466 26.60928
#
# Velocity S-wave (km/s) = 3.92587 2.85327 3.43174
# Velocity P-wave (km/s) = 5.59418 5.28414 5.44137
#
# Compressibility (1/GPa) = 0.04119029
#
# Stress axis : x y z
#
# Youngs Moduli (GPa) = 64.41873 28.85307 55.84398
#
# Poissons Ratio (x) = 0.03352 0.24430
# Poissons Ratio (y) = 0.07484 0.44188
# Poissons Ratio (z) = 0.28181 0.22831
#
# Static dielectric constant tensor:
#      x y z
#    x 1.845800 0.000000 -0.048740 
#    y 0.000000 1.850250 0.000000 
#    z -0.048740 0.000000 1.871100 
# 
# From -- ./inp_files/52228.got.cif
#   From: 2010.05.17/outbox.cif.g08.bks.cpg/sg15_27_cif.got.tgz:52228.got - 2010.06.03 18:47:42.
