data_PCOD9285320
_publ_section_title
;
Structure prediction by ZEFSAII (Michael W. Deem and Ramdas Pophale) SiO2 
 PCOD9285320
Probable space group: C 2/C
;
_chemical_formula_sum "Si O2"
_cell_formula_units_Z 48
_cell_length_a 18.334263
_cell_length_b 13.395790
_cell_length_c 9.568404
_cell_angle_alpha 90.000000
_cell_angle_beta 122.470116
_cell_angle_gamma 90.000000
_cell_volume 1982.643851
_symmetry_space_group_name_H-M "C 2/C"
_symmetry_group_IT_number 15
_symmetry_cell_setting 'monoclinic'
loop_
_space_group_symop_operation_xyz
x,y,z
-x,y,1/2-z
-x,-y,-z
x,-y,1/2+z
1/2+x,1/2+y,z
1/2-x,1/2+y,1/2-z
1/2-x,1/2-y,-z
1/2+x,1/2-y,1/2+z
loop_
_atom_site_type_symbol
_atom_site_label
_atom_site_fract_x
_atom_site_fract_y
_atom_site_fract_z
Si Si1 0.452749 0.135121 0.004072
Si Si2 0.634519 0.054349 0.126028
Si Si3 0.395624 0.476802 0.293698
Si Si4 0.778376 0.056515 0.934060
Si Si5 0.500000 0.306892 0.250000
Si Si6 0.363037 0.196413 0.630793
Si Si7 0.000000 0.866790 0.750000
O O1 0.548186 0.089804 0.116041
O O2 0.450810 0.235983 0.089353
O O3 0.429760 0.154311 0.817668
O O4 0.387757 0.047930 0.979244
O O5 0.708556 0.024429 0.308622
O O6 0.648411 0.137447 0.024568
O O7 0.354183 0.453807 0.399133
O O8 0.433158 0.377600 0.261512
O O9 0.469918 0.561138 0.346822
O O10 0.317052 0.521289 0.120275
O O11 0.729165 0.164413 0.890927
O O12 0.414710 0.297643 0.645798
#
# Coordination Sequence:
#
# PCOD9285320 Si02
#       7
#     8   8   8   8   4   8   4
#     4  10  23  38  69 103 143 177 244 287 363 424
#     4  10  21  41  70 104 144 181 228 303 365 425
#     4  11  28  49  72  96 153 191 245 287 371 417
#     4  11  25  47  71 105 144 189 228 311 361 425
#     4  11  28  45  70 102 136 201 240 293 346 454
#     4  11  22  43  73 107 134 187 245 295 359 428
#     4  11  26  45  76 102 138 199 250 287 344 462
#
# _framework density 24.210097000000001
#
# number of rings (size 3 to 8) (size 9 to 14) (size 15 to 20)
#    0.000    1.333    3.333    0.000   11.667    2.000 
#    3.000    4.167    0.000    0.000    0.000    0.000 
#    0.000    0.000    0.000    0.000    0.000    0.000 
#
# Total GULP energy -134146.203375 kJ/mol
# GULP energy per Si atom -5589.425141 kJ/mol
# Density = 2.415499 g / cm^3
# Si number density = 24.210097 Si / 1000 Ang^3
#
#
#
# Elastic Constant Matrix: (Units=GPa)
#
#
# Indices 1 2 3 4 5 6 
#
# 1 123.0069 49.5456 39.8417 0.0000 16.3184 0.0000
# 2 49.5456 153.0802 36.6016 0.0000 -0.4277 0.0000
# 3 39.8417 36.6016 107.7270 0.0000 17.4500 0.0000
# 4 0.0000 0.0000 0.0000 39.4434 0.0000 -11.2958
# 5 16.3184 -0.4277 17.4500 0.0000 44.2961 0.0000
# 6 0.0000 0.0000 0.0000 -11.2958 0.0000 23.3145
#
#
#
# Elastic Compliance Matrix: (Units=1/GPa)
#
#
# Indices 1 2 3 4 5 6 
#
# 1 0.010433 -0.002803 -0.002435 0.000000 -0.002912 0.000000
# 2 -0.002803 0.007913 -0.001956 0.000000 0.001880 0.000000
# 3 -0.002435 -0.001956 0.011435 0.000000 -0.003627 0.000000
# 4 0.000000 0.000000 0.000000 0.029437 0.000000 0.014262
# 5 -0.002912 0.001880 -0.003627 0.000000 0.025095 0.000000
# 6 0.000000 0.000000 0.000000 0.014262 0.000000 0.049802
#
#
# Mechanical properties :
#
#
# Convention : Reuss Voigt Hill
#
# Bulk Modulus (GPa) = 64.96185 70.64354 67.80270
# Shear Modulus (GPa) = 32.54477 38.59914 35.57196
#
# Velocity S-wave (km/s) = 3.67040 3.99725 3.83731
# Velocity P-wave (km/s) = 6.69726 7.10962 6.90652
#
# Compressibility (1/GPa) = 0.01539365
#
# Stress axis : x y z
#
# Youngs Moduli (GPa) = 95.84563 126.37927 87.44803
#
# Poissons Ratio (x) = 0.35422 0.21292
# Poissons Ratio (y) = 0.26864 0.17107
# Poissons Ratio (z) = 0.23336 0.24724
#
# Static dielectric constant tensor:
#      x y z
#    x 2.032710 0.000000 0.059990 
#    y 0.000000 1.961340 0.000000 
#    z 0.059990 0.000000 1.942360 
# 
# From -- ./inp_files/111821.got.cif
#   From: 2010.05.17/outbox.cif.g08.bks.cpg/sg15_56_cif.got.tgz:111821.got - 2010.06.03 18:47:42.
