data_PCOD9285349
_publ_section_title
;
Structure prediction by ZEFSAII (Michael W. Deem and Ramdas Pophale) SiO2 
 PCOD9285349
Probable space group: C 2/C
;
_chemical_formula_sum "Si O2"
_cell_formula_units_Z 48
_cell_length_a 27.421533
_cell_length_b 8.083636
_cell_length_c 9.945219
_cell_angle_alpha 90.000000
_cell_angle_beta 102.008688
_cell_angle_gamma 90.000000
_cell_volume 2156.270403
_symmetry_space_group_name_H-M "C 2/C"
_symmetry_group_IT_number 15
_symmetry_cell_setting 'monoclinic'
loop_
_space_group_symop_operation_xyz
x,y,z
-x,y,1/2-z
-x,-y,-z
x,-y,1/2+z
1/2+x,1/2+y,z
1/2-x,1/2+y,1/2-z
1/2-x,1/2-y,-z
1/2+x,1/2-y,1/2+z
loop_
_atom_site_type_symbol
_atom_site_label
_atom_site_fract_x
_atom_site_fract_y
_atom_site_fract_z
Si Si1 0.386460 0.274967 0.061030
Si Si2 0.003948 0.831608 0.413595
Si Si3 0.669211 0.594457 0.563429
Si Si4 0.598175 0.828985 0.639347
Si Si5 0.277029 0.602095 0.181374
Si Si6 0.323891 0.072331 0.841683
O O1 0.442143 0.246025 0.037362
O O2 0.368791 0.447371 0.991936
O O3 0.391941 0.280478 0.223058
O O4 0.343776 0.145934 0.994024
O O5 0.959381 0.704021 0.423846
O O6 0.000000 0.870562 0.250000
O O7 0.000000 0.000000 0.500000
O O8 0.634052 0.754154 0.546483
O O9 0.709291 0.594140 0.467118
O O10 0.695736 0.541780 0.717029
O O11 0.624250 0.002852 0.689065
O O12 0.298854 0.773833 0.250277
O O13 0.218734 0.566610 0.170613
#
# Coordination Sequence:
#
# PCOD9285349 Si02
#       6
#     8   8   8   8   8   8
#     4  10  23  43  67 100 133 172 221 278 331 389
#     4  10  21  41  71 100 131 172 219 268 330 397
#     4  11  22  42  69  98 131 172 226 268 331 396
#     4  11  23  41  67  99 136 171 217 279 331 390
#     4  11  26  42  68  98 129 180 226 273 330 393
#     4  11  27  43  67  95 137 175 227 273 333 392
#
# _framework density 22.260657999999999
#
# number of rings (size 3 to 8) (size 9 to 14) (size 15 to 20)
#    0.000    1.333    3.333    1.000    4.667    3.333 
#    0.000    0.000    0.000    0.000    0.000    0.000 
#    0.000    0.000    0.000    0.000    0.000    0.000 
#
# Total GULP energy -133901.487645 kJ/mol
# GULP energy per Si atom -5579.228652 kJ/mol
# Density = 2.220999 g / cm^3
# Si number density = 22.260658 Si / 1000 Ang^3
#
#
#
# Elastic Constant Matrix: (Units=GPa)
#
#
# Indices 1 2 3 4 5 6 
#
# 1 159.2939 53.0733 14.7074 0.0000 18.8760 0.0000
# 2 53.0733 72.1324 3.6087 0.0000 12.0038 0.0000
# 3 14.7074 3.6087 44.5942 0.0000 0.5490 0.0000
# 4 0.0000 0.0000 0.0000 11.3708 0.0000 11.1443
# 5 18.8760 12.0038 0.5490 0.0000 33.2019 0.0000
# 6 0.0000 0.0000 0.0000 11.1443 0.0000 27.8705
#
#
#
# Elastic Compliance Matrix: (Units=1/GPa)
#
#
# Indices 1 2 3 4 5 6 
#
# 1 0.008793 -0.005878 -0.002389 0.000000 -0.002834 0.000000
# 2 -0.005878 0.018738 0.000465 0.000000 -0.003440 0.000000
# 3 -0.002389 0.000465 0.023165 0.000000 0.000807 0.000000
# 4 0.000000 0.000000 0.000000 0.144620 0.000000 -0.057828
# 5 -0.002834 -0.003440 0.000807 0.000000 0.032960 0.000000
# 6 0.000000 0.000000 0.000000 -0.057828 0.000000 0.059003
#
#
# Mechanical properties :
#
#
# Convention : Reuss Voigt Hill
#
# Bulk Modulus (GPa) = 28.49843 46.53324 37.51584
# Shear Modulus (GPa) = 15.89417 28.13072 22.01244
#
# Velocity S-wave (km/s) = 2.67498 3.55871 3.14801
# Velocity P-wave (km/s) = 4.72976 6.15102 5.48661
#
# Compressibility (1/GPa) = 0.03508965
#
# Stress axis : x y z
#
# Youngs Moduli (GPa) = 113.73138 53.36826 43.16877
#
# Poissons Ratio (x) = 0.31371 0.10314
# Poissons Ratio (y) = 0.66854 -0.02006
# Poissons Ratio (z) = 0.27174 -0.02480
#
# Static dielectric constant tensor:
#      x y z
#    x 1.841680 0.000000 0.003090 
#    y 0.000000 1.890300 0.000000 
#    z 0.003090 0.000000 1.811240 
# 
# From -- ./inp_files/116446.got.cif
#   From: 2010.05.17/outbox.cif.g08.bks.cpg/sg15_59_cif.got.tgz:116446.got - 2010.06.03 18:47:42.
