data_PCOD9285872
_publ_section_title
;
Structure prediction by ZEFSAII (Michael W. Deem and Ramdas Pophale) SiO2 
 PCOD9285872
Probable space group: C 2/C
;
_chemical_formula_sum "Si O2"
_cell_formula_units_Z 48
_cell_length_a 20.869311
_cell_length_b 17.610235
_cell_length_c 5.909405
_cell_angle_alpha 90.000000
_cell_angle_beta 61.343252
_cell_angle_gamma 90.000000
_cell_volume 1905.760472
_symmetry_space_group_name_H-M "C 2/C"
_symmetry_group_IT_number 15
_symmetry_cell_setting 'monoclinic'
loop_
_space_group_symop_operation_xyz
x,y,z
-x,y,1/2-z
-x,-y,-z
x,-y,1/2+z
1/2+x,1/2+y,z
1/2-x,1/2+y,1/2-z
1/2-x,1/2-y,-z
1/2+x,1/2-y,1/2+z
loop_
_atom_site_type_symbol
_atom_site_label
_atom_site_fract_x
_atom_site_fract_y
_atom_site_fract_z
Si Si1 0.613292 0.148398 0.909368
Si Si2 0.759875 0.667566 0.096917
Si Si3 0.500000 0.211350 0.750000
Si Si4 0.639432 0.255291 0.251328
Si Si5 0.900602 0.902893 0.065727
Si Si6 0.000000 0.538828 0.250000
Si Si7 0.392601 0.583076 0.079798
O O1 0.685906 0.122315 0.660981
O O2 0.552121 0.164158 0.824448
O O3 0.628008 0.227485 0.015757
O O4 0.573740 0.089292 0.136887
O O5 0.750000 0.750000 0.000000
O O6 0.807179 0.692021 0.236148
O O7 0.686383 0.623121 0.272339
O O8 0.558484 0.255030 0.498606
O O9 0.662921 0.338872 0.296630
O O10 0.929753 0.896090 0.276791
O O11 0.881739 0.992294 0.095495
O O12 0.930344 0.894710 0.755718
O O13 0.000000 0.500000 0.500000
#
# Coordination Sequence:
#
# PCOD9285872 Si02
#       7
#     8   8   4   8   8   4   8
#     4  11  24  44  70  99 135 180 236 294 341 413
#     4  11  23  39  67 104 140 180 235 284 345 418
#     4  10  21  42  68 100 131 166 236 296 338 399
#     4  11  22  38  73  96 131 178 232 286 336 405
#     4  10  22  40  65  93 133 186 217 274 344 404
#     4  12  27  50  72  98 145 190 232 294 360 423
#     4  10  22  42  59  93 144 177 219 271 344 416
#
# _framework density 25.186798
#
# number of rings (size 3 to 8) (size 9 to 14) (size 15 to 20)
#    0.000    1.333    3.333    1.500    7.000    1.333 
#    6.000    0.000    0.000    4.000    0.000    0.000 
#    0.000    0.000    0.000    0.000    0.000    0.000 
#
# Total GULP energy -133829.171007 kJ/mol
# GULP energy per Si atom -5576.215459 kJ/mol
# Density = 2.512947 g / cm^3
# Si number density = 25.186798 Si / 1000 Ang^3
#
#
#
# Elastic Constant Matrix: (Units=GPa)
#
#
# Indices 1 2 3 4 5 6 
#
# 1 115.1593 9.9348 62.8279 0.0000 12.3347 0.0000
# 2 9.9348 62.8985 52.8732 0.0000 12.5510 0.0000
# 3 62.8279 52.8732 232.4521 0.0000 15.2547 0.0000
# 4 0.0000 0.0000 0.0000 44.8465 0.0000 11.7556
# 5 12.3347 12.5510 15.2547 0.0000 38.9634 0.0000
# 6 0.0000 0.0000 0.0000 11.7556 0.0000 4.3588
#
#
#
# Elastic Compliance Matrix: (Units=1/GPa)
#
#
# Indices 1 2 3 4 5 6 
#
# 1 0.010462 0.001358 -0.002967 0.000000 -0.002588 0.000000
# 2 0.001358 0.020710 -0.004733 0.000000 -0.005248 0.000000
# 3 -0.002967 -0.004733 0.006177 0.000000 0.000045 0.000000
# 4 0.000000 0.000000 0.000000 0.076092 0.000000 -0.205218
# 5 -0.002588 -0.005248 0.000045 0.000000 0.028157 0.000000
# 6 0.000000 0.000000 0.000000 -0.205218 0.000000 0.782887
#
#
# Mechanical properties :
#
#
# Convention : Reuss Voigt Hill
#
# Bulk Modulus (GPa) = 40.54265 73.53130 57.03698
# Shear Modulus (GPa) = 5.28881 36.62534 20.95707
#
# Velocity S-wave (km/s) = 1.45065 3.81747 2.88768
# Velocity P-wave (km/s) = 4.35173 6.97771 5.81490
#
# Compressibility (1/GPa) = 0.02466538
#
# Stress axis : x y z
#
# Youngs Moduli (GPa) = 95.58153 48.28536 161.87809
#
# Poissons Ratio (x) = -0.06556 0.48026
# Poissons Ratio (y) = -0.12978 0.76622
# Poissons Ratio (z) = 0.28357 0.22855
#
# Static dielectric constant tensor:
#      x y z
#    x 2.109190 0.000000 0.046950 
#    y 0.000000 2.099850 0.000000 
#    z 0.046950 0.000000 2.085110 
# 
# From -- ./inp_files/15430.got.cif
#   From: 2010.05.17/outbox.cif.g08.bks.cpg/sg15_8_cif.got.tgz:15430.got - 2010.06.03 18:47:42.
