data_PCOD9285817
_publ_section_title
;
Structure prediction by ZEFSAII (Michael W. Deem and Ramdas Pophale) SiO2 
 PCOD9285817
Probable space group: C 2/C
;
_chemical_formula_sum "Si O2"
_cell_formula_units_Z 48
_cell_length_a 20.606529
_cell_length_b 6.456443
_cell_length_c 16.683762
_cell_angle_alpha 90.000000
_cell_angle_beta 108.839376
_cell_angle_gamma 90.000000
_cell_volume 2100.774955
_symmetry_space_group_name_H-M "C 2/C"
_symmetry_group_IT_number 15
_symmetry_cell_setting 'monoclinic'
loop_
_space_group_symop_operation_xyz
x,y,z
-x,y,1/2-z
-x,-y,-z
x,-y,1/2+z
1/2+x,1/2+y,z
1/2-x,1/2+y,1/2-z
1/2-x,1/2-y,-z
1/2+x,1/2-y,1/2+z
loop_
_atom_site_type_symbol
_atom_site_label
_atom_site_fract_x
_atom_site_fract_y
_atom_site_fract_z
Si Si1 0.122225 0.207886 0.334483
Si Si2 0.736961 0.379890 0.348340
Si Si3 0.581466 0.728657 0.575326
Si Si4 0.841584 0.460115 0.760323
Si Si5 0.651849 0.019597 0.480959
Si Si6 0.568684 0.412842 0.435033
O O1 0.106027 0.379770 0.260693
O O2 0.158833 0.339544 0.419251
O O3 0.176625 0.048063 0.320502
O O4 0.065530 0.075383 0.360096
O O5 0.790918 0.416367 0.298439
O O6 0.705251 0.154887 0.323410
O O7 0.779192 0.422175 0.445692
O O8 0.623660 0.781922 0.671838
O O9 0.598754 0.532411 0.525284
O O10 0.504009 0.683317 0.570329
O O11 0.597905 0.925714 0.525173
O O12 0.618319 0.226052 0.432595
#
# Coordination Sequence:
#
# PCOD9285817 Si02
#       6
#     8   8   8   8   8   8
#     4  11  23  40  60  94 128 167 213 269 326 388
#     4  11  23  39  62  90 129 169 212 268 327 388
#     4   9  22  41  66  94 125 170 216 267 324 382
#     4  11  23  39  63  93 131 170 217 264 328 390
#     4  10  22  39  66  93 124 166 217 269 322 389
#     4  10  21  42  67  93 127 168 221 267 318 390
#
# _framework density 22.848711000000002
#
# number of rings (size 3 to 8) (size 9 to 14) (size 15 to 20)
#    0.000    1.667    1.667    2.000    2.333    4.000 
#    0.000    5.000    0.000    0.000    0.000    0.000 
#    0.000    0.000    0.000    0.000    0.000    0.000 
#
# Total GULP energy -134067.974214 kJ/mol
# GULP energy per Si atom -5586.165592 kJ/mol
# Density = 2.279671 g / cm^3
# Si number density = 22.848711 Si / 1000 Ang^3
#
#
#
# Elastic Constant Matrix: (Units=GPa)
#
#
# Indices 1 2 3 4 5 6 
#
# 1 46.1218 34.6066 31.1400 0.0000 -10.7836 0.0000
# 2 34.6066 87.3512 22.3825 0.0000 -5.5282 0.0000
# 3 31.1400 22.3825 48.3574 0.0000 -23.9802 0.0000
# 4 0.0000 0.0000 0.0000 26.8573 0.0000 -8.7637
# 5 -10.7836 -5.5282 -23.9802 0.0000 19.2281 0.0000
# 6 0.0000 0.0000 0.0000 -8.7637 0.0000 34.4544
#
#
#
# Elastic Compliance Matrix: (Units=1/GPa)
#
#
# Indices 1 2 3 4 5 6 
#
# 1 0.051818 -0.011862 -0.039728 0.000000 -0.023896 0.000000
# 2 -0.011862 0.016459 -0.002443 0.000000 -0.004967 0.000000
# 3 -0.039728 -0.002443 0.094342 0.000000 0.094676 0.000000
# 4 0.000000 0.000000 0.000000 0.040604 0.000000 0.010328
# 5 -0.023896 -0.004967 0.094676 0.000000 0.155252 0.000000
# 6 0.000000 0.000000 0.000000 0.010328 0.000000 0.031651
#
#
# Mechanical properties :
#
#
# Convention : Reuss Voigt Hill
#
# Bulk Modulus (GPa) = 18.33038 39.78761 29.05900
# Shear Modulus (GPa) = 9.68286 22.35470 16.01878
#
# Velocity S-wave (km/s) = 2.06083 3.13130 2.65066
# Velocity P-wave (km/s) = 3.70170 5.52491 4.70251
#
# Compressibility (1/GPa) = 0.05455424
#
# Stress axis : x y z
#
# Youngs Moduli (GPa) = 19.29835 60.75719 10.59968
#
# Poissons Ratio (x) = 0.72068 0.42111
# Poissons Ratio (y) = 0.22891 0.02589
# Poissons Ratio (z) = 0.76669 0.14841
#
# Static dielectric constant tensor:
#      x y z
#    x 1.833460 0.000000 -0.035220 
#    y 0.000000 1.824250 0.000000 
#    z -0.035220 0.000000 1.868580 
# 
# From -- ./inp_files/217819.got.cif
#   From: 2010.05.17/outbox.cif.g08.bks.cpg/sg15_109_cif.got.tgz:217819.got - 2010.06.03 18:47:42.
