data_PCOD9285302
_publ_section_title
;
Structure prediction by ZEFSAII (Michael W. Deem and Ramdas Pophale) SiO2 
 PCOD9285302
Probable space group: C 2/C
;
_chemical_formula_sum "Si O2"
_cell_formula_units_Z 48
_cell_length_a 13.810800
_cell_length_b 28.416193
_cell_length_c 5.442412
_cell_angle_alpha 90.000000
_cell_angle_beta 67.590458
_cell_angle_gamma 90.000000
_cell_volume 1974.580606
_symmetry_space_group_name_H-M "C 2/C"
_symmetry_group_IT_number 15
_symmetry_cell_setting 'monoclinic'
loop_
_space_group_symop_operation_xyz
x,y,z
-x,y,1/2-z
-x,-y,-z
x,-y,1/2+z
1/2+x,1/2+y,z
1/2-x,1/2+y,1/2-z
1/2-x,1/2-y,-z
1/2+x,1/2-y,1/2+z
loop_
_atom_site_type_symbol
_atom_site_label
_atom_site_fract_x
_atom_site_fract_y
_atom_site_fract_z
Si Si1 0.732550 0.975267 0.933178
Si Si2 0.822364 0.331664 0.866841
Si Si3 0.000000 0.598536 0.250000
Si Si4 0.500000 0.952661 0.250000
Si Si5 0.323024 0.611557 0.614715
Si Si6 0.892594 0.822519 0.667369
Si Si7 0.500000 0.598438 0.750000
Si Si8 0.500000 0.246140 0.250000
O O1 0.606127 0.977027 0.056215
O O2 0.768979 0.922478 0.967867
O O3 0.766818 0.008254 0.129350
O O4 0.908239 0.370562 0.714151
O O5 0.729470 0.314285 0.781028
O O6 0.897949 0.286826 0.828607
O O7 0.763072 0.360191 0.142882
O O8 0.961666 0.572384 0.532744
O O9 0.388585 0.655259 0.439876
O O10 0.411885 0.578016 0.655685
O O11 0.925182 0.867373 0.475621
O O12 0.964777 0.779728 0.509496
#
# Coordination Sequence:
#
# PCOD9285302 Si02
#       8
#     8   8   4   4   8   8   4   4
#     4  12  27  44  70 110 145 185 240 300 349 426
#     4  10  22  40  65 102 144 181 229 298 341 434
#     4  11  22  38  70 104 140 194 238 274 348 438
#     4  12  22  43  69 100 147 190 229 281 362 429
#     4  11  23  44  72  98 136 193 231 285 369 418
#     4  10  21  41  69  98 136 185 231 288 356 424
#     4   9  22  41  72  96 131 180 237 290 342 439
#     4  10  22  42  65 108 140 172 244 291 350 414
#
# _framework density 24.308959999999999
#
# number of rings (size 3 to 8) (size 9 to 14) (size 15 to 20)
#    0.000    1.333    1.667    3.500    4.667    0.667 
#    0.000    5.833    0.000    3.000    0.000    0.000 
#    0.000    0.000    0.000    0.000    0.000    0.000 
#
# Total GULP energy -133689.383052 kJ/mol
# GULP energy per Si atom -5570.390960 kJ/mol
# Density = 2.425363 g / cm^3
# Si number density = 24.308960 Si / 1000 Ang^3
#
#
#
# Elastic Constant Matrix: (Units=GPa)
#
#
# Indices 1 2 3 4 5 6 
#
# 1 145.8232 48.7824 25.1525 0.0000 0.5776 0.0000
# 2 48.7824 93.4614 27.7465 0.0000 -2.4112 0.0000
# 3 25.1525 27.7465 70.2048 0.0000 -9.9523 0.0000
# 4 0.0000 0.0000 0.0000 17.5678 0.0000 -3.2513
# 5 0.5776 -2.4112 -9.9523 0.0000 37.6913 0.0000
# 6 0.0000 0.0000 0.0000 -3.2513 0.0000 -8.5120
#
#
#
# Elastic Compliance Matrix: (Units=1/GPa)
#
#
# Indices 1 2 3 4 5 6 
#
# 1 0.008460 -0.003969 -0.001576 0.000000 -0.000800 0.000000
# 2 -0.003969 0.013993 -0.004127 0.000000 -0.000134 0.000000
# 3 -0.001576 -0.004127 0.017044 0.000000 0.004260 0.000000
# 4 0.000000 0.000000 0.000000 0.053164 0.000000 -0.020307
# 5 -0.000800 -0.000134 0.004260 0.000000 0.027660 0.000000
# 6 0.000000 0.000000 0.000000 -0.020307 0.000000 -0.109725
#
#
# Mechanical properties :
#
#
# Convention : Reuss Voigt Hill
#
# Bulk Modulus (GPa) = 49.62031 56.98357 53.30194
# Shear Modulus (GPa) = 136.39679 23.20328 79.80004
#
# Velocity S-wave (km/s) = 7.49877 3.09288 5.73574
# Velocity P-wave (km/s) = 9.76893 6.02053 8.11415
#
# Compressibility (1/GPa) = 0.02015304
#
# Stress axis : x y z
#
# Youngs Moduli (GPa) = 118.19995 71.46473 58.67211
#
# Poissons Ratio (x) = 0.28362 0.09246
# Poissons Ratio (y) = 0.46909 0.24217
# Poissons Ratio (z) = 0.18628 0.29497
#
# Static dielectric constant tensor:
#      x y z
#    x 2.092000 0.000000 0.097730 
#    y 0.000000 1.947700 0.000000 
#    z 0.097730 0.000000 2.116120 
# 
# From -- ./inp_files/8997.got.cif
#   From: 2010.05.17/outbox.cif.g08.bks.cpg/sg15_5_cif.got.tgz:8997.got - 2010.06.03 18:47:42.
