data_PCOD9285390
_publ_section_title
;
Structure prediction by ZEFSAII (Michael W. Deem and Ramdas Pophale) SiO2 
 PCOD9285390
Probable space group: C 2/C
;
_chemical_formula_sum "Si O2"
_cell_formula_units_Z 56
_cell_length_a 5.522260
_cell_length_b 28.882378
_cell_length_c 16.353530
_cell_angle_alpha 90.000000
_cell_angle_beta 113.341697
_cell_angle_gamma 90.000000
_cell_volume 2394.853022
_symmetry_space_group_name_H-M "C 2/C"
_symmetry_group_IT_number 15
_symmetry_cell_setting 'monoclinic'
loop_
_space_group_symop_operation_xyz
x,y,z
-x,y,1/2-z
-x,-y,-z
x,-y,1/2+z
1/2+x,1/2+y,z
1/2-x,1/2+y,1/2-z
1/2-x,1/2-y,-z
1/2+x,1/2-y,1/2+z
loop_
_atom_site_type_symbol
_atom_site_label
_atom_site_fract_x
_atom_site_fract_y
_atom_site_fract_z
Si Si1 0.789840 0.709464 0.068768
Si Si2 0.495343 0.126552 0.651318
Si Si3 0.808998 0.467846 0.305848
Si Si4 0.485587 0.618645 0.483766
Si Si5 0.278903 0.346597 0.652613
Si Si6 0.182785 0.274689 0.193983
Si Si7 0.458375 0.939708 0.646485
O O1 0.699418 0.661352 0.015855
O O2 0.655051 0.729851 0.132494
O O3 0.087938 0.697195 0.131961
O O4 0.750000 0.750000 0.000000
O O5 0.500000 0.130299 0.750000
O O6 0.676880 0.082904 0.651337
O O7 0.208804 0.112044 0.580470
O O8 0.581334 0.177944 0.636346
O O9 0.500000 0.478269 0.250000
O O10 0.000000 0.463680 0.250000
O O11 0.931202 0.511423 0.370741
O O12 0.617319 0.642501 0.422846
O O13 0.325420 0.574243 0.429019
O O14 0.500000 0.342924 0.750000
O O15 0.123236 0.393909 0.650927
O O16 0.500000 0.280862 0.250000
O O17 0.000000 0.270397 0.250000
O O18 0.500000 0.943830 0.750000
#
# Coordination Sequence:
#
# PCOD9285390 Si02
#       7
#     8   8   8   8   8   8   8
#     4  11  28  44  67 103 145 191 250 312 364 447
#     4  10  24  48  71  99 145 195 244 303 356 436
#     4  10  22  43  76 107 142 189 240 293 361 437
#     4  11  25  44  70 104 144 190 243 299 372 434
#     4  11  23  42  70 102 147 188 237 305 374 437
#     4  11  27  46  74 102 142 195 253 306 369 432
#     4  10  21  41  72 105 143 184 230 299 369 442
#
# _framework density 23.383479000000001
#
# number of rings (size 3 to 8) (size 9 to 14) (size 15 to 20)
#    0.000    1.429    1.429    1.714   10.000    1.714 
#   10.286    0.714    0.000    0.000    0.000    0.000 
#    0.000    0.000    0.000    0.000    0.000    0.000 
#
# Total GULP energy -156342.228301 kJ/mol
# GULP energy per Si atom -5583.651011 kJ/mol
# Density = 2.333026 g / cm^3
# Si number density = 23.383479 Si / 1000 Ang^3
#
#
#
# Elastic Constant Matrix: (Units=GPa)
#
#
# Indices 1 2 3 4 5 6 
#
# 1 98.7541 23.6860 34.4988 0.0000 9.4761 0.0000
# 2 23.6860 123.7836 14.3023 0.0000 23.8809 0.0000
# 3 34.4988 14.3023 113.6355 0.0000 21.6821 0.0000
# 4 0.0000 0.0000 0.0000 82.4264 0.0000 11.4991
# 5 9.4761 23.8809 21.6821 0.0000 36.5271 0.0000
# 6 0.0000 0.0000 0.0000 11.4991 0.0000 14.0287
#
#
#
# Elastic Compliance Matrix: (Units=1/GPa)
#
#
# Indices 1 2 3 4 5 6 
#
# 1 0.011736 -0.001894 -0.003361 0.000000 0.000188 0.000000
# 2 -0.001894 0.009550 0.000531 0.000000 -0.006067 0.000000
# 3 -0.003361 0.000531 0.010886 0.000000 -0.005937 0.000000
# 4 0.000000 0.000000 0.000000 0.013698 0.000000 -0.011228
# 5 0.000188 -0.006067 -0.005937 0.000000 0.034819 0.000000
# 6 0.000000 0.000000 0.000000 -0.011228 0.000000 0.080486
#
#
# Mechanical properties :
#
#
# Convention : Reuss Voigt Hill
#
# Bulk Modulus (GPa) = 44.00359 53.46083 48.73221
# Shear Modulus (GPa) = 28.05847 44.17552 36.11699
#
# Velocity S-wave (km/s) = 3.46775 4.35118 3.93434
# Velocity P-wave (km/s) = 5.90702 6.93945 6.44394
#
# Compressibility (1/GPa) = 0.02272542
#
# Stress axis : x y z
#
# Youngs Moduli (GPa) = 85.20560 104.70934 91.85814
#
# Poissons Ratio (x) = 0.19829 0.30870
# Poissons Ratio (y) = 0.16136 -0.04874
# Poissons Ratio (z) = 0.28634 -0.05556
#
# Static dielectric constant tensor:
#      x y z
#    x 2.218120 0.000000 -0.059780 
#    y 0.000000 1.966130 0.000000 
#    z -0.059780 0.000000 1.913800 
# 
# From -- ./inp_files/186795.got.cif
#   From: 2010.05.17/outbox.cif.g08.bks.cpg/sg15_94_cif.got.tgz:186795.got - 2010.06.03 18:47:42.
