data_PCOD9285849
_publ_section_title
;
Structure prediction by ZEFSAII (Michael W. Deem and Ramdas Pophale) SiO2 
 PCOD9285849
Probable space group: C 2/C
;
_chemical_formula_sum "Si O2"
_cell_formula_units_Z 64
_cell_length_a 25.714816
_cell_length_b 14.909517
_cell_length_c 10.986470
_cell_angle_alpha 90.000000
_cell_angle_beta 134.684715
_cell_angle_gamma 90.000000
_cell_volume 2994.793544
_symmetry_space_group_name_H-M "C 2/C"
_symmetry_group_IT_number 15
_symmetry_cell_setting 'monoclinic'
loop_
_space_group_symop_operation_xyz
x,y,z
-x,y,1/2-z
-x,-y,-z
x,-y,1/2+z
1/2+x,1/2+y,z
1/2-x,1/2+y,1/2-z
1/2-x,1/2-y,-z
1/2+x,1/2-y,1/2+z
loop_
_atom_site_type_symbol
_atom_site_label
_atom_site_fract_x
_atom_site_fract_y
_atom_site_fract_z
Si Si1 0.001554 0.890199 0.114525
Si Si2 0.625854 0.501942 0.719889
Si Si3 0.580070 0.063483 0.348624
Si Si4 0.832554 0.419651 0.906629
Si Si5 0.713432 0.455173 0.113626
Si Si6 0.578812 0.213544 0.548844
Si Si7 0.472860 0.100855 0.485221
Si Si8 0.242268 0.748983 0.843810
O O1 0.000000 0.928619 0.250000
O O2 0.080569 0.910110 0.187646
O O3 0.979736 0.786985 0.086397
O O4 0.939348 0.934100 0.926187
O O5 0.670760 0.517615 0.668700
O O6 0.671146 0.470483 0.914703
O O7 0.500000 0.022700 0.250000
O O8 0.591575 0.132275 0.476956
O O9 0.570526 0.120058 0.211665
O O10 0.643053 0.989241 0.447103
O O11 0.785071 0.481102 0.736528
O O12 0.911003 0.392228 0.982816
O O13 0.787401 0.332188 0.866009
O O14 0.733106 0.349998 0.157857
O O15 0.543105 0.165174 0.608047
O O16 0.656233 0.261178 0.681885
O O17 0.500000 0.000000 0.500000
O O18 0.250000 0.750000 0.000000
#
# Coordination Sequence:
#
# PCOD9285849 Si02
#       8
#     8   8   8   8   8   8   8   8
#     4  11  22  44  73 100 138 182 254 289 363 428
#     4  11  26  45  73 103 141 199 234 305 364 433
#     4  10  21  42  67  97 135 179 229 296 364 415
#     4  12  26  42  71 103 140 192 240 296 373 439
#     4  12  25  50  68 105 153 186 244 297 372 446
#     4  11  23  45  67 100 136 187 234 304 355 429
#     4  11  22  41  69 100 134 179 238 291 363 423
#     4  12  28  45  71 105 146 196 238 297 378 439
#
# _framework density 21.370421
#
# number of rings (size 3 to 8) (size 9 to 14) (size 15 to 20)
#    0.000    0.750    5.000    3.375    7.000    0.000 
#    0.000    1.250    0.000    0.000    0.000    0.000 
#    0.000    0.000    0.000    0.000    0.000    0.000 
#
# Total GULP energy -178506.150276 kJ/mol
# GULP energy per Si atom -5578.317196 kJ/mol
# Density = 2.132178 g / cm^3
# Si number density = 21.370421 Si / 1000 Ang^3
#
#
#
# Elastic Constant Matrix: (Units=GPa)
#
#
# Indices 1 2 3 4 5 6 
#
# 1 92.1353 33.3795 15.5405 0.0000 2.4497 0.0000
# 2 33.3795 126.0511 36.5413 0.0000 18.9214 0.0000
# 3 15.5405 36.5413 91.8320 0.0000 -0.9807 0.0000
# 4 0.0000 0.0000 0.0000 36.8376 0.0000 13.5463
# 5 2.4497 18.9214 -0.9807 0.0000 32.8737 0.0000
# 6 0.0000 0.0000 0.0000 13.5463 0.0000 35.4858
#
#
#
# Elastic Compliance Matrix: (Units=1/GPa)
#
#
# Indices 1 2 3 4 5 6 
#
# 1 0.012088 -0.003097 -0.000804 0.000000 0.000858 0.000000
# 2 -0.003097 0.010777 -0.003829 0.000000 -0.006086 0.000000
# 3 -0.000804 -0.003829 0.012577 0.000000 0.002639 0.000000
# 4 0.000000 0.000000 0.000000 0.031579 0.000000 -0.012055
# 5 0.000858 -0.006086 0.002639 0.000000 0.033938 0.000000
# 6 0.000000 0.000000 0.000000 -0.012055 0.000000 0.032782
#
#
# Mechanical properties :
#
#
# Convention : Reuss Voigt Hill
#
# Bulk Modulus (GPa) = 50.04429 53.43790 51.74110
# Shear Modulus (GPa) = 32.07944 36.00988 34.04466
#
# Velocity S-wave (km/s) = 3.87862 4.10937 3.99566
# Velocity P-wave (km/s) = 6.59748 6.89752 6.74916
#
# Compressibility (1/GPa) = 0.01998230
#
# Stress axis : x y z
#
# Youngs Moduli (GPa) = 82.72428 92.78979 79.50714
#
# Poissons Ratio (x) = 0.28734 0.06395
# Poissons Ratio (y) = 0.25617 0.30446
# Poissons Ratio (z) = 0.06654 0.35532
#
# Static dielectric constant tensor:
#      x y z
#    x 2.065020 0.000000 -0.173110 
#    y 0.000000 1.789540 0.000000 
#    z -0.173110 0.000000 1.724410 
# 
# From -- ./inp_files/123544.got.cif
#   From: 2010.05.17/outbox.cif.g08.bks.cpg/sg15_62_cif.got.tgz:123544.got - 2010.06.03 18:47:42.
