data_PCOD9285480
_publ_section_title
;
Structure prediction by ZEFSAII (Michael W. Deem and Ramdas Pophale) SiO2 
 PCOD9285480
Probable space group: C 2/C
;
_chemical_formula_sum "Si O2"
_cell_formula_units_Z 56
_cell_length_a 11.027655
_cell_length_b 28.958686
_cell_length_c 14.132535
_cell_angle_alpha 90.000000
_cell_angle_beta 138.414916
_cell_angle_gamma 90.000000
_cell_volume 2995.535911
_symmetry_space_group_name_H-M "C 2/C"
_symmetry_group_IT_number 15
_symmetry_cell_setting 'monoclinic'
loop_
_space_group_symop_operation_xyz
x,y,z
-x,y,1/2-z
-x,-y,-z
x,-y,1/2+z
1/2+x,1/2+y,z
1/2-x,1/2+y,1/2-z
1/2-x,1/2-y,-z
1/2+x,1/2-y,1/2+z
loop_
_atom_site_type_symbol
_atom_site_label
_atom_site_fract_x
_atom_site_fract_y
_atom_site_fract_z
Si Si1 0.450008 0.878313 0.491354
Si Si2 0.431457 0.638178 0.485391
Si Si3 0.890449 0.969035 0.511205
Si Si4 0.180206 0.616161 0.798179
Si Si5 0.862055 0.107245 0.247215
Si Si6 0.658896 0.440132 0.422176
Si Si7 0.650188 0.798636 0.922919
O O1 0.356946 0.880939 0.334714
O O2 0.656045 0.895531 0.592225
O O3 0.339486 0.914326 0.491906
O O4 0.430011 0.828629 0.534406
O O5 0.641797 0.648034 0.586141
O O6 0.340064 0.635978 0.330275
O O7 0.414641 0.589289 0.530842
O O8 0.321530 0.671802 0.486688
O O9 0.749136 0.933480 0.379890
O O10 0.034417 0.938913 0.656322
O O11 0.799652 0.007385 0.525209
O O12 0.000000 0.000000 0.500000
O O13 0.000000 0.629716 0.750000
O O14 0.000000 0.127467 0.250000
O O15 0.500000 0.438846 0.250000
O O16 0.500000 0.795709 0.750000
O O17 0.750000 0.750000 0.000000
#
# Coordination Sequence:
#
# PCOD9285480 Si02
#       7
#     8   8   8   8   8   8   8
#     4  11  23  41  66  94 124 174 212 255 341 380
#     4  10  21  42  62  88 129 164 203 257 326 382
#     4  11  21  38  56  83 130 166 222 277 308 355
#     4  11  23  39  60  89 125 177 221 256 307 379
#     4  11  22  39  61  83 123 175 214 256 309 377
#     4  11  20  37  61  86 122 169 217 275 323 359
#     4  11  25  42  73 107 126 150 202 270 328 392
#
# _framework density 18.694483999999999
#
# number of rings (size 3 to 8) (size 9 to 14) (size 15 to 20)
#    0.000    1.143    5.714    2.143    2.000    1.143 
#    0.000    2.857    0.000    5.143    0.000    0.000 
#    0.000    0.000    0.000    0.000    0.000    0.000 
#
# Total GULP energy -155995.033410 kJ/mol
# GULP energy per Si atom -5571.251193 kJ/mol
# Density = 1.865193 g / cm^3
# Si number density = 18.694484 Si / 1000 Ang^3
#
#
#
# Elastic Constant Matrix: (Units=GPa)
#
#
# Indices 1 2 3 4 5 6 
#
# 1 75.3617 24.1218 -9.7782 0.0000 9.6580 0.0000
# 2 24.1218 99.9039 32.1104 0.0000 -0.2195 0.0000
# 3 -9.7782 32.1104 71.9161 0.0000 4.5032 0.0000
# 4 0.0000 0.0000 0.0000 16.3499 0.0000 -1.1327
# 5 9.6580 -0.2195 4.5032 0.0000 39.0251 0.0000
# 6 0.0000 0.0000 0.0000 -1.1327 0.0000 16.1992
#
#
#
# Elastic Compliance Matrix: (Units=1/GPa)
#
#
# Indices 1 2 3 4 5 6 
#
# 1 0.016283 -0.005542 0.004979 0.000000 -0.004636 0.000000
# 2 -0.005542 0.013591 -0.006963 0.000000 0.002251 0.000000
# 3 0.004979 -0.006963 0.017900 0.000000 -0.003337 0.000000
# 4 0.000000 0.000000 0.000000 0.061460 0.000000 0.004297
# 5 -0.004636 0.002251 -0.003337 0.000000 0.027169 0.000000
# 6 0.000000 0.000000 0.000000 0.004297 0.000000 0.062032
#
#
# Mechanical properties :
#
#
# Convention : Reuss Voigt Hill
#
# Bulk Modulus (GPa) = 30.56069 37.78775 34.17422
# Shear Modulus (GPa) = 22.28218 27.69667 24.98943
#
# Velocity S-wave (km/s) = 3.45615 3.85326 3.66009
# Velocity P-wave (km/s) = 5.68415 6.32882 6.01513
#
# Compressibility (1/GPa) = 0.03272178
#
# Stress axis : x y z
#
# Youngs Moduli (GPa) = 61.41266 73.58041 55.86655
#
# Poissons Ratio (x) = 0.40778 -0.27815
# Poissons Ratio (y) = 0.34035 0.38898
# Poissons Ratio (z) = -0.30576 0.51232
#
# Static dielectric constant tensor:
#      x y z
#    x 1.669540 0.000000 -0.018700 
#    y 0.000000 1.662570 0.000000 
#    z -0.018700 0.000000 1.685870 
# 
# From -- ./inp_files/148578.got.cif
#   From: 2010.05.17/outbox.cif.g08.bks.cpg/sg15_75_cif.got.tgz:148578.got - 2010.06.03 18:47:42.
