data_PCOD9285797
_publ_section_title
;
Structure prediction by ZEFSAII (Michael W. Deem and Ramdas Pophale) SiO2 
 PCOD9285797
Probable space group: C 2/C
;
_chemical_formula_sum "Si O2"
_cell_formula_units_Z 48
_cell_length_a 19.039590
_cell_length_b 11.785601
_cell_length_c 12.898441
_cell_angle_alpha 90.000000
_cell_angle_beta 44.692728
_cell_angle_gamma 90.000000
_cell_volume 2035.588238
_symmetry_space_group_name_H-M "C 2/C"
_symmetry_group_IT_number 15
_symmetry_cell_setting 'monoclinic'
loop_
_space_group_symop_operation_xyz
x,y,z
-x,y,1/2-z
-x,-y,-z
x,-y,1/2+z
1/2+x,1/2+y,z
1/2-x,1/2+y,1/2-z
1/2-x,1/2-y,-z
1/2+x,1/2-y,1/2+z
loop_
_atom_site_type_symbol
_atom_site_label
_atom_site_fract_x
_atom_site_fract_y
_atom_site_fract_z
Si Si1 0.361408 0.516049 0.724111
Si Si2 0.392203 0.230573 0.463197
Si Si3 0.554682 0.255442 0.470639
Si Si4 0.500000 0.820950 0.250000
Si Si5 0.500000 0.434695 0.250000
Si Si6 0.760846 0.627940 0.292578
Si Si7 0.669684 0.010714 0.078626
O O1 0.395690 0.627436 0.623077
O O2 0.453728 0.497171 0.704440
O O3 0.332561 0.419483 0.673334
O O4 0.263112 0.511286 0.901209
O O5 0.469934 0.221686 0.475691
O O6 0.417017 0.344643 0.373933
O O7 0.279664 0.255001 0.617044
O O8 0.392862 0.120700 0.391711
O O9 0.513023 0.249946 0.630648
O O10 0.641409 0.160048 0.373720
O O11 0.597873 0.902074 0.155519
O O12 0.790190 0.537607 0.348877
#
# Coordination Sequence:
#
# PCOD9285797 Si02
#       7
#     8   8   8   4   4   8   8
#     4  11  24  46  72 107 144 192 240 305 362 435
#     4  11  23  43  71 105 139 189 242 301 348 430
#     4  11  26  46  72 103 152 187 245 299 369 427
#     4  12  27  46  71 112 146 196 237 304 369 430
#     4  10  21  42  67 102 138 182 241 292 357 426
#     4  12  24  44  74 107 140 189 245 302 362 433
#     4  12  23  42  74 106 144 186 244 299 363 426
#
# _framework density 23.580404999999999
#
# number of rings (size 3 to 8) (size 9 to 14) (size 15 to 20)
#    0.000    0.667    5.000    4.000    2.333    4.000 
#    3.000    2.500    0.000    0.000    0.000    0.000 
#    0.000    0.000    0.000    0.000    0.000    0.000 
#
# Total GULP energy -134240.102783 kJ/mol
# GULP energy per Si atom -5593.337616 kJ/mol
# Density = 2.352674 g / cm^3
# Si number density = 23.580405 Si / 1000 Ang^3
#
#
#
# Elastic Constant Matrix: (Units=GPa)
#
#
# Indices 1 2 3 4 5 6 
#
# 1 110.5161 55.9635 21.7564 0.0000 13.0433 0.0000
# 2 55.9635 89.8260 37.5358 0.0000 5.6711 0.0000
# 3 21.7564 37.5358 136.4177 0.0000 8.4787 0.0000
# 4 0.0000 0.0000 0.0000 -3.8545 0.0000 1.3115
# 5 13.0433 5.6711 8.4787 0.0000 37.1868 0.0000
# 6 0.0000 0.0000 0.0000 1.3115 0.0000 30.0214
#
#
#
# Elastic Compliance Matrix: (Units=1/GPa)
#
#
# Indices 1 2 3 4 5 6 
#
# 1 0.013678 -0.008448 0.000366 0.000000 -0.003593 0.000000
# 2 -0.008448 0.017845 -0.003629 0.000000 0.001069 0.000000
# 3 0.000366 -0.003629 0.008363 0.000000 -0.001482 0.000000
# 4 0.000000 0.000000 0.000000 -0.255640 0.000000 0.011168
# 5 -0.003593 0.001069 -0.001482 0.000000 0.028326 0.000000
# 6 0.000000 0.000000 0.000000 0.011168 0.000000 0.032822
#
#
# Mechanical properties :
#
#
# Convention : Reuss Voigt Hill
#
# Bulk Modulus (GPa) = 60.73840 63.03012 61.88426
# Shear Modulus (GPa) = -39.77874 27.43769 -6.17053
#
# Velocity S-wave (km/s) = -4.11169 3.41483 -1.61941
# Velocity P-wave (km/s) = 1.80902 6.50661 4.77538
#
# Compressibility (1/GPa) = 0.01646405
#
# Stress axis : x y z
#
# Youngs Moduli (GPa) = 73.10800 56.03777 119.57873
#
# Poissons Ratio (x) = 0.47342 -0.04381
# Poissons Ratio (y) = 0.61763 0.43398
# Poissons Ratio (z) = -0.02679 0.20337
#
# Static dielectric constant tensor:
#      x y z
#    x 1.921970 0.000000 -0.007300 
#    y 0.000000 1.865150 0.000000 
#    z -0.007300 0.000000 1.993280 
# 
# From -- ./inp_files/167877.got.cif
#   From: 2010.05.17/outbox.cif.g08.bks.cpg/sg15_84_cif.got.tgz:167877.got - 2010.06.03 18:47:42.
