data_PCOD9285468
_publ_section_title
;
Structure prediction by ZEFSAII (Michael W. Deem and Ramdas Pophale) SiO2 
 PCOD9285468
Probable space group: C 2/C
;
_chemical_formula_sum "Si O2"
_cell_formula_units_Z 56
_cell_length_a 19.322018
_cell_length_b 5.391037
_cell_length_c 23.412816
_cell_angle_alpha 90.000000
_cell_angle_beta 112.142936
_cell_angle_gamma 90.000000
_cell_volume 2258.941571
_symmetry_space_group_name_H-M "C 2/C"
_symmetry_group_IT_number 15
_symmetry_cell_setting 'monoclinic'
loop_
_space_group_symop_operation_xyz
x,y,z
-x,y,1/2-z
-x,-y,-z
x,-y,1/2+z
1/2+x,1/2+y,z
1/2-x,1/2+y,1/2-z
1/2-x,1/2-y,-z
1/2+x,1/2-y,1/2+z
loop_
_atom_site_type_symbol
_atom_site_label
_atom_site_fract_x
_atom_site_fract_y
_atom_site_fract_z
Si Si1 0.796438 0.580543 0.055963
Si Si2 0.003227 0.476467 0.183256
Si Si3 0.891963 0.018449 0.894271
Si Si4 0.253794 0.271344 0.156094
Si Si5 0.348505 0.290952 0.492586
Si Si6 0.044410 0.005915 0.890545
Si Si7 0.332932 0.895036 0.792269
O O1 0.806475 0.730703 0.117846
O O2 0.738037 0.350320 0.050406
O O3 0.750000 0.750000 0.000000
O O4 0.856461 0.450636 0.034152
O O5 0.090672 0.447000 0.191274
O O6 0.000000 0.519084 0.250000
O O7 0.958136 0.223507 0.154909
O O8 0.972675 0.726573 0.142805
O O9 0.827841 0.823171 0.889448
O O10 0.975543 0.936332 0.910944
O O11 0.889966 0.214812 0.945266
O O12 0.864167 0.137575 0.826298
O O13 0.292890 0.120878 0.219204
O O14 0.229060 0.520510 0.180800
O O15 0.384573 0.495856 0.545855
#
# Coordination Sequence:
#
# PCOD9285468 Si02
#       7
#     8   8   8   8   8   8   8
#     4  10  23  41  62  96 133 171 226 285 343 413
#     4  11  26  45  66 101 138 181 229 292 339 421
#     4  10  21  42  61  95 132 170 226 284 336 414
#     4  11  21  38  63  93 128 174 223 282 343 416
#     4  10  23  41  65  94 131 178 224 282 346 411
#     4  11  24  44  69  97 136 178 236 275 355 409
#     4  11  22  39  65  94 132 175 230 282 351 404
#
# _framework density 24.790368999999998
#
# number of rings (size 3 to 8) (size 9 to 14) (size 15 to 20)
#    0.000    1.429    2.857    1.714    4.000    0.000 
#    0.000    2.143    0.000    0.000    0.000    0.000 
#    0.000    0.000    0.000    0.000    0.000    0.000 
#
# Total GULP energy -156275.696217 kJ/mol
# GULP energy per Si atom -5581.274865 kJ/mol
# Density = 2.473394 g / cm^3
# Si number density = 24.790369 Si / 1000 Ang^3
#
#
#
# Elastic Constant Matrix: (Units=GPa)
#
#
# Indices 1 2 3 4 5 6 
#
# 1 59.8861 2.4153 23.6330 0.0002 11.0797 0.0000
# 2 2.4153 78.7961 23.9701 -0.0003 9.8474 0.0000
# 3 23.6330 23.9701 133.7986 0.0001 -7.6584 0.0000
# 4 0.0002 -0.0003 0.0001 38.5546 -0.0001 1.9990
# 5 11.0797 9.8474 -7.6584 -0.0001 44.9617 -0.0001
# 6 0.0000 0.0000 0.0000 1.9990 -0.0001 29.1464
#
#
#
# Elastic Compliance Matrix: (Units=1/GPa)
#
#
# Indices 1 2 3 4 5 6 
#
# 1 0.019269 0.001331 -0.003969 0.000000 -0.005716 0.000000
# 2 0.001331 0.014044 -0.002975 0.000000 -0.003911 0.000000
# 3 -0.003969 -0.002975 0.008888 0.000000 0.003144 0.000000
# 4 0.000000 0.000000 0.000000 0.026030 0.000000 -0.001785
# 5 -0.005716 -0.003911 0.003144 0.000000 0.025042 0.000000
# 6 0.000000 0.000000 0.000000 -0.001785 0.000000 0.034432
#
#
# Mechanical properties :
#
#
# Convention : Reuss Voigt Hill
#
# Bulk Modulus (GPa) = 32.28459 41.39084 36.83772
# Shear Modulus (GPa) = 33.49988 37.36337 35.43163
#
# Velocity S-wave (km/s) = 3.68003 3.88644 3.78464
# Velocity P-wave (km/s) = 5.57746 6.07222 5.83009
#
# Compressibility (1/GPa) = 0.03097453
#
# Stress axis : x y z
#
# Youngs Moduli (GPa) = 51.89816 71.20534 112.51303
#
# Poissons Ratio (x) = -0.09478 0.44657
# Poissons Ratio (y) = -0.06908 0.33472
# Poissons Ratio (z) = 0.20599 0.21183
#
# Static dielectric constant tensor:
#      x y z
#    x 2.094880 0.000000 0.018440 
#    y 0.000000 2.125280 0.000000 
#    z 0.018440 0.000000 1.934760 
# 
# From -- ./inp_files/254374.got.cif
#   From: 2010.05.17/outbox.cif.g08.bks.cpg/sg15_128_cif.got.tgz:254374.got - 2010.06.03 18:47:42.
