data_PCOD9285783
_publ_section_title
;
Structure prediction by ZEFSAII (Michael W. Deem and Ramdas Pophale) SiO2 
 PCOD9285783
Probable space group: C 2/C
;
_chemical_formula_sum "Si O2"
_cell_formula_units_Z 52
_cell_length_a 7.954874
_cell_length_b 12.083615
_cell_length_c 26.225767
_cell_angle_alpha 90.000000
_cell_angle_beta 101.869710
_cell_angle_gamma 90.000000
_cell_volume 2467.013470
_symmetry_space_group_name_H-M "C 2/C"
_symmetry_group_IT_number 15
_symmetry_cell_setting 'monoclinic'
loop_
_space_group_symop_operation_xyz
x,y,z
-x,y,1/2-z
-x,-y,-z
x,-y,1/2+z
1/2+x,1/2+y,z
1/2-x,1/2+y,1/2-z
1/2-x,1/2-y,-z
1/2+x,1/2-y,1/2+z
loop_
_atom_site_type_symbol
_atom_site_label
_atom_site_fract_x
_atom_site_fract_y
_atom_site_fract_z
Si Si1 0.140256 0.668509 0.715626
Si Si2 0.898700 0.445752 0.130786
Si Si3 0.097598 0.586442 0.470012
Si Si4 0.452858 0.273037 0.889192
Si Si5 0.500000 0.430743 0.250000
Si Si6 0.475725 0.507367 0.859294
Si Si7 0.351422 0.685151 0.559268
O O1 0.142893 0.761212 0.671789
O O2 0.329043 0.642546 0.746820
O O3 0.000000 0.694894 0.750000
O O4 0.059898 0.563542 0.679188
O O5 0.906670 0.531884 0.085666
O O6 0.727535 0.472382 0.150264
O O7 0.903978 0.322863 0.105827
O O8 0.279533 0.607608 0.509664
O O9 0.038555 0.713626 0.456828
O O10 0.000000 0.500000 0.500000
O O11 0.519392 0.397152 0.893818
O O12 0.316050 0.239523 0.923555
O O13 0.471873 0.498353 0.196344
O O14 0.560422 0.611711 0.892430
#
# Coordination Sequence:
#
# PCOD9285783 Si02
#       7
#     8   8   8   8   4   8   8
#     4  10  21  42  66  98 138 174 231 279 336 415
#     4  10  22  41  66  94 137 169 221 289 329 398
#     4  11  22  44  70  94 132 179 222 285 343 397
#     4  10  22  43  63  93 137 170 219 285 323 408
#     4  12  22  42  72  98 138 188 220 276 352 400
#     4  12  24  42  67 103 135 176 228 274 340 408
#     4  11  24  42  69  96 130 177 228 273 343 409
#
# _framework density 21.078118
#
# number of rings (size 3 to 8) (size 9 to 14) (size 15 to 20)
#    0.923    0.308    6.154    0.000    1.077    1.846 
#    0.000    3.077    1.692    0.000    0.000    0.000 
#    0.000    0.000    0.000    0.000    0.000    0.000 
#
# Total GULP energy -144884.996416 kJ/mol
# GULP energy per Si atom -5572.499862 kJ/mol
# Density = 2.103014 g / cm^3
# Si number density = 21.078118 Si / 1000 Ang^3
#
#
#
# Elastic Constant Matrix: (Units=GPa)
#
#
# Indices 1 2 3 4 5 6 
#
# 1 60.9788 18.7607 12.5613 0.0000 -8.7022 0.0000
# 2 18.7607 109.9320 9.2611 0.0000 8.6091 0.0000
# 3 12.5613 9.2611 85.5515 0.0000 8.2390 0.0000
# 4 0.0000 0.0000 0.0000 -58.2266 0.0000 -11.8068
# 5 -8.7022 8.6091 8.2390 0.0000 17.2917 0.0000
# 6 0.0000 0.0000 0.0000 -11.8068 0.0000 22.1131
#
#
#
# Elastic Compliance Matrix: (Units=1/GPa)
#
#
# Indices 1 2 3 4 5 6 
#
# 1 0.020590 -0.004308 -0.003942 0.000000 0.014385 0.000000
# 2 -0.004308 0.010396 0.000225 0.000000 -0.007451 0.000000
# 3 -0.003942 0.000225 0.013044 0.000000 -0.008311 0.000000
# 4 0.000000 0.000000 0.000000 -0.015497 0.000000 -0.008274
# 5 0.014385 -0.007451 -0.008311 0.000000 0.072741 0.000000
# 6 0.000000 0.000000 0.000000 -0.008274 0.000000 0.040804
#
#
# Mechanical properties :
#
#
# Convention : Reuss Voigt Hill
#
# Bulk Modulus (GPa) = 35.74176 37.51429 36.62802
# Shear Modulus (GPa) = 29.85871 10.62758 20.24315
#
# Velocity S-wave (km/s) = 3.76782 2.24787 3.10237
# Velocity P-wave (km/s) = 5.99352 4.95718 5.49981
#
# Compressibility (1/GPa) = 0.02797848
#
# Stress axis : x y z
#
# Youngs Moduli (GPa) = 48.56835 96.18748 76.66522
#
# Poissons Ratio (x) = 0.41440 0.30222
# Poissons Ratio (y) = 0.20924 -0.01723
# Poissons Ratio (z) = 0.19146 -0.02162
#
# Static dielectric constant tensor:
#      x y z
#    x 1.759390 0.000000 -0.007290 
#    y 0.000000 1.789810 0.000000 
#    z -0.007290 0.000000 1.790620 
# 
# From -- ./inp_files/287717.got.cif
#   From: 2010.05.17/outbox.cif.g08.bks.cpg/sg15_144_cif.got.tgz:287717.got - 2010.06.03 18:47:42.
