data_PCOD9285024
_publ_section_title
;
Structure prediction by ZEFSAII (Michael W. Deem and Ramdas Pophale) SiO2 
 PCOD9285024
Probable space group: C 2/C
;
_chemical_formula_sum "Si O2"
_cell_formula_units_Z 56
_cell_length_a 25.841948
_cell_length_b 8.311819
_cell_length_c 18.008817
_cell_angle_alpha 90.000000
_cell_angle_beta 44.813406
_cell_angle_gamma 90.000000
_cell_volume 2726.293063
_symmetry_space_group_name_H-M "C 2/C"
_symmetry_group_IT_number 15
_symmetry_cell_setting 'monoclinic'
loop_
_space_group_symop_operation_xyz
x,y,z
-x,y,1/2-z
-x,-y,-z
x,-y,1/2+z
1/2+x,1/2+y,z
1/2-x,1/2+y,1/2-z
1/2-x,1/2-y,-z
1/2+x,1/2-y,1/2+z
loop_
_atom_site_type_symbol
_atom_site_label
_atom_site_fract_x
_atom_site_fract_y
_atom_site_fract_z
Si Si1 0.274201 0.660110 0.141577
Si Si2 0.306372 0.706232 0.632423
Si Si3 0.732233 0.903480 0.970103
Si Si4 0.576228 0.791679 0.895321
Si Si5 0.914563 0.626718 0.537620
Si Si6 0.080773 0.426942 0.636520
Si Si7 0.658568 0.692655 0.660042
O O1 0.279229 0.469264 0.139043
O O2 0.225998 0.732211 0.257164
O O3 0.350035 0.749114 0.083805
O O4 0.232856 0.708852 0.107900
O O5 0.285207 0.839651 0.594633
O O6 0.391592 0.696825 0.566958
O O7 0.802949 0.020817 0.893469
O O8 0.750000 0.750000 0.000000
O O9 0.654615 0.972302 0.078971
O O10 0.606709 0.722440 0.785815
O O11 0.598490 0.980319 0.890704
O O12 0.488917 0.787166 0.985616
O O13 0.929510 0.556036 0.440857
O O14 0.109198 0.256307 0.641955
O O15 0.000000 0.465479 0.750000
#
# Coordination Sequence:
#
# PCOD9285024 Si02
#       7
#     8   8   8   8   8   8   8
#     4  11  22  39  69  94 127 171 220 279 330 392
#     4  11  22  40  62  97 128 166 222 277 331 390
#     4  12  26  44  66 102 138 176 225 285 337 410
#     4  10  21  41  66  95 131 174 224 276 331 406
#     4  11  22  40  66  98 134 175 225 274 341 403
#     4  12  24  44  67 100 134 184 219 273 346 413
#     4  11  22  41  70  95 129 176 227 274 337 403
#
# _framework density 20.540711000000002
#
# number of rings (size 3 to 8) (size 9 to 14) (size 15 to 20)
#    0.000    0.857    4.286    4.714    2.000    0.571 
#    0.000    2.143    0.000    0.000    0.000    0.000 
#    0.000    0.000    0.000    0.000    0.000    0.000 
#
# Total GULP energy -156019.747810 kJ/mol
# GULP energy per Si atom -5572.133850 kJ/mol
# Density = 2.049396 g / cm^3
# Si number density = 20.540711 Si / 1000 Ang^3
#
#
#
# Elastic Constant Matrix: (Units=GPa)
#
#
# Indices 1 2 3 4 5 6 
#
# 1 77.2827 0.6081 20.5371 -0.0038 -0.5456 -0.0860
# 2 0.6081 74.2070 35.2883 -0.0044 -0.4161 -0.1073
# 3 20.5371 35.2883 86.6315 -0.0060 -12.0899 -0.0206
# 4 -0.0038 -0.0044 -0.0060 28.4568 0.0039 1.9417
# 5 -0.5456 -0.4161 -12.0899 0.0039 30.4286 0.0438
# 6 -0.0860 -0.1073 -0.0206 1.9417 0.0438 61.2093
#
#
#
# Elastic Compliance Matrix: (Units=1/GPa)
#
#
# Indices 1 2 3 4 5 6 
#
# 1 0.014063 0.001932 -0.004321 0.000000 -0.001438 0.000023
# 2 0.001932 0.017179 -0.007853 -0.000001 -0.002851 0.000032
# 3 -0.004321 -0.007853 0.016665 0.000002 0.006436 -0.000019
# 4 0.000000 -0.000001 0.000002 0.035217 -0.000002 -0.001117
# 5 -0.001438 -0.002851 0.006436 -0.000002 0.035356 -0.000030
# 6 0.000023 0.000032 -0.000019 -0.001117 -0.000030 0.016373
#
#
# Mechanical properties :
#
#
# Convention : Reuss Voigt Hill
#
# Bulk Modulus (GPa) = 36.46961 38.99870 37.73415
# Shear Modulus (GPa) = 30.39919 36.13146 33.26532
#
# Velocity S-wave (km/s) = 3.85118 4.19861 4.02865
# Velocity P-wave (km/s) = 6.12934 6.52164 6.32853
#
# Compressibility (1/GPa) = 0.02742009
#
# Stress axis : x y z
#
# Youngs Moduli (GPa) = 71.11105 58.21208 60.00707
#
# Poissons Ratio (x) = -0.11245 0.25931
# Poissons Ratio (y) = -0.13736 0.47125
# Poissons Ratio (z) = 0.30729 0.45715
#
# Static dielectric constant tensor:
#      x y z
#    x 1.925490 -0.000010 -0.007180 
#    y -0.000010 1.748280 0.000000 
#    z -0.007180 0.000000 1.839070 
# 
# From -- ./inp_files/218530.got.cif
#   From: 2010.05.17/outbox.cif.g08.bks.cpg/sg15_110_cif.got.tgz:218530.got - 2010.06.03 18:47:42.
