data_PCOD9285341
_publ_section_title
;
Structure prediction by ZEFSAII (Michael W. Deem and Ramdas Pophale) SiO2 
 PCOD9285341
Probable space group: C 2/C
;
_chemical_formula_sum "Si O2"
_cell_formula_units_Z 56
_cell_length_a 16.326346
_cell_length_b 28.893365
_cell_length_c 5.084850
_cell_angle_alpha 90.000000
_cell_angle_beta 94.441920
_cell_angle_gamma 90.000000
_cell_volume 2391.436406
_symmetry_space_group_name_H-M "C 2/C"
_symmetry_group_IT_number 15
_symmetry_cell_setting 'monoclinic'
loop_
_space_group_symop_operation_xyz
x,y,z
-x,y,1/2-z
-x,-y,-z
x,-y,1/2+z
1/2+x,1/2+y,z
1/2-x,1/2+y,1/2-z
1/2-x,1/2-y,-z
1/2+x,1/2-y,1/2+z
loop_
_atom_site_type_symbol
_atom_site_label
_atom_site_fract_x
_atom_site_fract_y
_atom_site_fract_z
Si Si1 0.347791 0.808951 0.958366
Si Si2 0.000000 0.638621 0.750000
Si Si3 0.751747 0.885456 0.817700
Si Si4 0.090546 0.021818 0.578007
Si Si5 0.000000 0.576703 0.250000
Si Si6 0.693976 0.280519 0.282101
Si Si7 0.841056 0.472570 0.920960
Si Si8 0.850071 0.121530 0.836672
O O1 0.423116 0.831318 0.129900
O O2 0.267110 0.799433 0.114641
O O3 0.314603 0.844542 0.730304
O O4 0.365713 0.758543 0.848517
O O5 0.027645 0.608318 0.504062
O O6 0.714874 0.930422 0.678316
O O7 0.826565 0.872575 0.637562
O O8 0.777197 0.894119 0.121826
O O9 0.091034 0.076161 0.645971
O O10 0.132152 0.008867 0.313409
O O11 0.000000 0.000000 0.500000
O O12 0.931353 0.545176 0.365821
O O13 0.750000 0.250000 0.500000
O O14 0.638468 0.327325 0.293486
O O15 0.828879 0.515128 0.719930
#
# Coordination Sequence:
#
# PCOD9285341 Si02
#       8
#     8   4   8   8   4   8   8   8
#     4  10  23  42  65 100 131 177 223 278 342 415
#     4  12  26  41  72  94 132 182 228 267 334 426
#     4  11  23  39  62  96 130 170 222 274 334 397
#     4  10  22  42  67  95 131 176 219 272 338 404
#     4  12  26  43  64  88 128 182 222 265 336 388
#     4  10  21  41  70  97 136 171 220 289 349 400
#     4  12  25  41  60  89 129 172 222 273 322 383
#     4  11  23  39  69  98 129 174 221 274 338 414
#
# _framework density 23.416888
#
# number of rings (size 3 to 8) (size 9 to 14) (size 15 to 20)
#    0.000    1.143    2.857    3.000    6.000    3.429 
#    0.000    1.429    3.143    0.000    0.000    0.000 
#    0.000    0.000    0.000    0.000    0.000    0.000 
#
# Total GULP energy -156133.711483 kJ/mol
# GULP energy per Si atom -5576.203982 kJ/mol
# Density = 2.336359 g / cm^3
# Si number density = 23.416888 Si / 1000 Ang^3
#
#
#
# Elastic Constant Matrix: (Units=GPa)
#
#
# Indices 1 2 3 4 5 6 
#
# 1 34.0547 37.8387 11.3216 0.0000 0.6537 0.0000
# 2 37.8387 188.6601 37.8198 0.0000 23.6767 0.0000
# 3 11.3216 37.8198 117.0032 0.0000 1.3334 0.0000
# 4 0.0000 0.0000 0.0000 51.3494 0.0000 3.2556
# 5 0.6537 23.6767 1.3334 0.0000 20.0251 0.0000
# 6 0.0000 0.0000 0.0000 3.2556 0.0000 3.7295
#
#
#
# Elastic Compliance Matrix: (Units=1/GPa)
#
#
# Indices 1 2 3 4 5 6 
#
# 1 0.039364 -0.008843 -0.001056 0.000000 0.009241 0.000000
# 2 -0.008843 0.008679 -0.001837 0.000000 -0.009850 0.000000
# 3 -0.001056 -0.001837 0.009225 0.000000 0.001593 0.000000
# 4 0.000000 0.000000 0.000000 0.020615 0.000000 -0.017996
# 5 0.009241 -0.009850 0.001593 0.000000 0.061176 0.000000
# 6 0.000000 0.000000 0.000000 -0.017996 0.000000 0.283843
#
#
# Mechanical properties :
#
#
# Convention : Reuss Voigt Hill
#
# Bulk Modulus (GPa) = 29.59047 57.07534 43.33291
# Shear Modulus (GPa) = 10.92564 31.86999 21.39782
#
# Velocity S-wave (km/s) = 2.16237 3.69315 3.02615
# Velocity P-wave (km/s) = 4.34721 6.52781 5.54575
#
# Compressibility (1/GPa) = 0.03379466
#
# Stress axis : x y z
#
# Youngs Moduli (GPa) = 25.40399 115.22514 108.40473
#
# Poissons Ratio (x) = 1.01895 0.11446
# Poissons Ratio (y) = 0.22465 0.19917
# Poissons Ratio (z) = 0.02682 0.21171
#
# Static dielectric constant tensor:
#      x y z
#    x 1.404880 0.000000 0.290450 
#    y 0.000000 1.962380 0.000000 
#    z 0.290450 0.000000 1.761090 
# 
# From -- ./inp_files/11602.got.cif
#   From: 2010.05.17/outbox.cif.g08.bks.cpg/sg15_6_cif.got.tgz:11602.got - 2010.06.03 18:47:42.
