data_PCOD9285526
_publ_section_title
;
Structure prediction by ZEFSAII (Michael W. Deem and Ramdas Pophale) SiO2 
 PCOD9285526
Probable space group: C 2/C
;
_chemical_formula_sum "Si O2"
_cell_formula_units_Z 36
_cell_length_a 7.838709
_cell_length_b 15.715490
_cell_length_c 13.244030
_cell_angle_alpha 90.000000
_cell_angle_beta 60.089912
_cell_angle_gamma 90.000000
_cell_volume 1414.216892
_symmetry_space_group_name_H-M "C 2/C"
_symmetry_group_IT_number 15
_symmetry_cell_setting 'monoclinic'
loop_
_space_group_symop_operation_xyz
x,y,z
-x,y,1/2-z
-x,-y,-z
x,-y,1/2+z
1/2+x,1/2+y,z
1/2-x,1/2+y,1/2-z
1/2-x,1/2-y,-z
1/2+x,1/2-y,1/2+z
loop_
_atom_site_type_symbol
_atom_site_label
_atom_site_fract_x
_atom_site_fract_y
_atom_site_fract_z
Si Si1 0.480435 0.886718 0.645053
Si Si2 0.500000 0.831981 0.250000
Si Si3 0.834325 0.825745 0.880799
Si Si4 0.167879 0.959003 0.263613
Si Si5 0.646146 0.495550 0.023103
O O1 0.500000 0.849095 0.750000
O O2 0.380062 0.817794 0.604460
O O3 0.321909 0.962614 0.699843
O O4 0.674423 0.930978 0.548538
O O5 0.584342 0.769721 0.135738
O O6 0.319721 0.882788 0.251169
O O7 0.000000 0.858038 0.750000
O O8 0.818027 0.904419 0.961129
O O9 0.103067 0.988100 0.406048
O O10 0.904586 0.953433 0.341396
#
# Coordination Sequence:
#
# PCOD9285526 Si02
#       5
#     8   4   8   8   8
#     4  12  21  39  72  93 126 170 223 276 317 380
#     4  10  24  44  64  90 146 172 204 270 334 382
#     4  10  21  42  63  92 128 169 211 268 322 379
#     4  12  22  42  65  98 132 174 216 271 325 389
#     4  12  21  38  70  98 123 169 227 267 321 381
#
# _framework density 25.455784000000001
#
# number of rings (size 3 to 8) (size 9 to 14) (size 15 to 20)
#    0.667    0.000    7.778    0.667    0.000    0.889 
#    0.000    5.556    0.000    0.000    0.000    0.000 
#    0.000    0.000    0.000    0.000    0.000    0.000 
#
# Total GULP energy -100217.310760 kJ/mol
# GULP energy per Si atom -5567.628376 kJ/mol
# Density = 2.539785 g / cm^3
# Si number density = 25.455784 Si / 1000 Ang^3
#
#
#
# Elastic Constant Matrix: (Units=GPa)
#
#
# Indices 1 2 3 4 5 6 
#
# 1 190.7029 41.7386 69.4672 0.0000 13.3207 0.0000
# 2 41.7386 101.8382 30.5866 0.0000 -9.0495 0.0000
# 3 69.4672 30.5866 182.1346 0.0000 2.8609 0.0000
# 4 0.0000 0.0000 0.0000 62.5633 0.0000 -3.7373
# 5 13.3207 -9.0495 2.8609 0.0000 41.2530 0.0000
# 6 0.0000 0.0000 0.0000 -3.7373 0.0000 56.6143
#
#
#
# Elastic Compliance Matrix: (Units=1/GPa)
#
#
# Indices 1 2 3 4 5 6 
#
# 1 0.006706 -0.002335 -0.002126 0.000000 -0.002530 0.000000
# 2 -0.002335 0.011395 -0.001075 0.000000 0.003328 0.000000
# 3 -0.002126 -0.001075 0.006482 0.000000 0.000001 0.000000
# 4 0.000000 0.000000 0.000000 0.016047 0.000000 0.001059
# 5 -0.002530 0.003328 0.000001 0.000000 0.025788 0.000000
# 6 0.000000 0.000000 0.000000 0.001059 0.000000 0.017733
#
#
# Mechanical properties :
#
#
# Convention : Reuss Voigt Hill
#
# Bulk Modulus (GPa) = 74.01467 84.25115 79.13291
# Shear Modulus (GPa) = 50.13711 54.27832 52.20772
#
# Velocity S-wave (km/s) = 4.44281 4.62265 4.53362
# Velocity P-wave (km/s) = 7.44694 7.85244 7.65237
#
# Compressibility (1/GPa) = 0.01351084
#
# Stress axis : x y z
#
# Youngs Moduli (GPa) = 149.12328 87.75665 154.27735
#
# Poissons Ratio (x) = 0.20489 0.32797
# Poissons Ratio (y) = 0.34817 0.16591
# Poissons Ratio (z) = 0.31701 0.09438
#
# Static dielectric constant tensor:
#      x y z
#    x 2.162910 0.000000 0.186670 
#    y 0.000000 1.912870 0.000000 
#    z 0.186670 0.000000 2.196660 
# 
# From -- ./inp_files/133756.got.cif
#   From: 2010.05.17/outbox.cif.g08.bks.cpg/sg15_67_cif.got.tgz:133756.got - 2010.06.03 18:47:42.
