data_PCOD9285665
_publ_section_title
;
Structure prediction by ZEFSAII (Michael W. Deem and Ramdas Pophale) SiO2 
 PCOD9285665
Probable space group: C 2/C
;
_chemical_formula_sum "Si O2"
_cell_formula_units_Z 64
_cell_length_a 11.567419
_cell_length_b 11.464868
_cell_length_c 24.614150
_cell_angle_alpha 90.000000
_cell_angle_beta 126.913497
_cell_angle_gamma 90.000000
_cell_volume 2609.950684
_symmetry_space_group_name_H-M "C 2/C"
_symmetry_group_IT_number 15
_symmetry_cell_setting 'monoclinic'
loop_
_space_group_symop_operation_xyz
x,y,z
-x,y,1/2-z
-x,-y,-z
x,-y,1/2+z
1/2+x,1/2+y,z
1/2-x,1/2+y,1/2-z
1/2-x,1/2-y,-z
1/2+x,1/2-y,1/2+z
loop_
_atom_site_type_symbol
_atom_site_label
_atom_site_fract_x
_atom_site_fract_y
_atom_site_fract_z
Si Si1 0.063885 0.436522 0.070574
Si Si2 0.321682 0.624857 0.157475
Si Si3 0.804165 0.339564 0.072025
Si Si4 0.279383 0.817469 0.234923
Si Si5 0.973035 0.072251 0.650344
Si Si6 0.274849 0.737898 0.656713
Si Si7 0.459070 0.452775 0.547658
Si Si8 0.217209 0.513583 0.332649
O O1 0.187726 0.531499 0.125218
O O2 0.144996 0.312465 0.082375
O O3 0.936488 0.395923 0.075461
O O4 0.000000 0.500000 0.000000
O O5 0.308792 0.714875 0.103206
O O6 0.325321 0.710573 0.210244
O O7 0.461811 0.549474 0.179864
O O8 0.789155 0.426558 0.119183
O O9 0.655713 0.351840 0.995826
O O10 0.280833 0.786847 0.298090
O O11 0.348969 0.941760 0.236689
O O12 0.116600 0.858128 0.175119
O O13 0.889479 0.045655 0.570089
O O14 0.899443 0.153830 0.672855
O O15 0.348358 0.862961 0.672963
O O16 0.500000 0.500000 0.500000
O O17 0.613692 0.437790 0.621700
#
# Coordination Sequence:
#
# PCOD9285665 Si02
#       8
#     8   8   8   8   8   8   8   8
#     4  11  26  42  63 102 135 172 225 279 338 405
#     4  10  24  43  70  98 136 173 228 279 333 402
#     4  10  21  42  65  93 132 178 209 272 342 389
#     4  10  23  45  68  94 131 179 223 282 337 394
#     4  10  22  41  65  98 129 175 223 269 343 398
#     4  11  24  41  65  99 130 173 225 279 333 400
#     4   9  19  40  65  95 131 171 222 267 329 407
#     4   9  22  40  65  95 127 168 227 271 332 403
#
# _framework density 24.521535
#
# number of rings (size 3 to 8) (size 9 to 14) (size 15 to 20)
#    0.000    2.000    0.000    2.625   10.500    1.000 
#    0.000    4.375    0.000    0.000    0.000    0.000 
#    0.000    0.000    0.000    0.000    0.000    0.000 
#
# Total GULP energy -178328.496857 kJ/mol
# GULP energy per Si atom -5572.765527 kJ/mol
# Density = 2.446572 g / cm^3
# Si number density = 24.521535 Si / 1000 Ang^3
#
#
#
# Elastic Constant Matrix: (Units=GPa)
#
#
# Indices 1 2 3 4 5 6 
#
# 1 107.6320 33.4151 8.3644 0.0000 -18.1135 0.0000
# 2 33.4151 167.6245 25.8179 0.0000 -12.1794 0.0000
# 3 8.3644 25.8179 66.1197 0.0000 -26.6185 0.0000
# 4 0.0000 0.0000 0.0000 32.6832 0.0000 -6.9662
# 5 -18.1135 -12.1794 -26.6185 0.0000 40.1406 0.0000
# 6 0.0000 0.0000 0.0000 -6.9662 0.0000 38.3222
#
#
#
# Elastic Compliance Matrix: (Units=1/GPa)
#
#
# Indices 1 2 3 4 5 6 
#
# 1 0.010667 -0.001982 0.001528 0.000000 0.005225 0.000000
# 2 -0.001982 0.006720 -0.002609 0.000000 -0.000586 0.000000
# 3 0.001528 -0.002609 0.021702 0.000000 0.014289 0.000000
# 4 0.000000 0.000000 0.000000 0.031830 0.000000 0.005786
# 5 0.005225 -0.000586 0.014289 0.000000 0.036568 0.000000
# 6 0.000000 0.000000 0.000000 0.005786 0.000000 0.027146
#
#
# Mechanical properties :
#
#
# Convention : Reuss Voigt Hill
#
# Bulk Modulus (GPa) = 30.33669 52.95233 41.64451
# Shear Modulus (GPa) = 32.94947 40.48113 36.71530
#
# Velocity S-wave (km/s) = 3.66962 4.06746 3.87365
# Velocity P-wave (km/s) = 5.50937 6.61060 6.08495
#
# Compressibility (1/GPa) = 0.03296339
#
# Stress axis : x y z
#
# Youngs Moduli (GPa) = 93.74789 148.80651 46.07845
#
# Poissons Ratio (x) = 0.29495 -0.07042
# Poissons Ratio (y) = 0.18582 0.12022
# Poissons Ratio (z) = -0.14327 0.38824
#
# Static dielectric constant tensor:
#      x y z
#    x 2.225760 0.000000 0.099150 
#    y 0.000000 2.084640 0.000000 
#    z 0.099150 0.000000 1.905760 
# 
# From -- ./inp_files/269281.got.cif
#   From: 2010.05.17/outbox.cif.g08.bks.cpg/sg15_135_cif.got.tgz:269281.got - 2010.06.03 18:47:42.
