data_PCOD9285156
_publ_section_title
;
Structure prediction by ZEFSAII (Michael W. Deem and Ramdas Pophale) SiO2 
 PCOD9285156
Probable space group: C 2/C
;
_chemical_formula_sum "Si O2"
_cell_formula_units_Z 48
_cell_length_a 25.201080
_cell_length_b 8.364627
_cell_length_c 9.704162
_cell_angle_alpha 90.000000
_cell_angle_beta 73.937644
_cell_angle_gamma 90.000000
_cell_volume 1965.755949
_symmetry_space_group_name_H-M "C 2/C"
_symmetry_group_IT_number 15
_symmetry_cell_setting 'monoclinic'
loop_
_space_group_symop_operation_xyz
x,y,z
-x,y,1/2-z
-x,-y,-z
x,-y,1/2+z
1/2+x,1/2+y,z
1/2-x,1/2+y,1/2-z
1/2-x,1/2-y,-z
1/2+x,1/2-y,1/2+z
loop_
_atom_site_type_symbol
_atom_site_label
_atom_site_fract_x
_atom_site_fract_y
_atom_site_fract_z
Si Si1 0.820925 0.764016 0.320594
Si Si2 0.410590 0.216155 0.056188
Si Si3 0.213049 0.693198 0.736387
Si Si4 0.983838 0.157932 0.923454
Si Si5 0.637463 0.572437 0.465638
Si Si6 0.820656 0.529177 0.003937
O O1 0.879373 0.701342 0.223675
O O2 0.777052 0.789563 0.231917
O O3 0.832255 0.916123 0.409060
O O4 0.801844 0.630734 0.440086
O O5 0.475352 0.214304 0.035649
O O6 0.386347 0.393754 0.035512
O O7 0.384010 0.085879 0.975285
O O8 0.177252 0.840972 0.825321
O O9 0.203193 0.662157 0.582774
O O10 0.195489 0.531112 0.831279
O O11 0.000000 0.138261 0.750000
O O12 0.918567 0.178634 0.987358
O O13 0.000000 0.000000 0.000000
#
# Coordination Sequence:
#
# PCOD9285156 Si02
#       6
#     8   8   8   8   8   8
#     4  11  24  43  64  96 138 169 225 273 332 390
#     4  11  24  39  72  96 126 181 220 271 334 391
#     4  11  26  43  67  96 137 174 217 279 331 395
#     4  10  21  41  67  99 133 168 218 276 324 386
#     4  10  23  41  67  98 134 166 225 271 328 393
#     4  11  24  46  63  95 135 175 220 270 334 398
#
# _framework density 24.418087
#
# number of rings (size 3 to 8) (size 9 to 14) (size 15 to 20)
#    0.000    1.333    3.333    2.000    7.000    2.000 
#    0.000    3.333    7.333    0.000    0.000    0.000 
#    0.000    0.000    0.000    0.000    0.000    0.000 
#
# Total GULP energy -133837.809603 kJ/mol
# GULP energy per Si atom -5576.575400 kJ/mol
# Density = 2.436251 g / cm^3
# Si number density = 24.418087 Si / 1000 Ang^3
#
#
#
# Elastic Constant Matrix: (Units=GPa)
#
#
# Indices 1 2 3 4 5 6 
#
# 1 157.5091 27.3155 28.3061 0.0000 9.2458 0.0000
# 2 27.3155 70.3312 22.8104 0.0000 13.5416 0.0000
# 3 28.3061 22.8104 74.1729 0.0000 27.1181 0.0000
# 4 0.0000 0.0000 0.0000 26.1437 0.0000 1.1957
# 5 9.2458 13.5416 27.1181 0.0000 43.4159 0.0000
# 6 0.0000 0.0000 0.0000 1.1957 0.0000 33.3530
#
#
#
# Elastic Compliance Matrix: (Units=1/GPa)
#
#
# Indices 1 2 3 4 5 6 
#
# 1 0.007091 -0.002131 -0.002257 0.000000 0.000564 0.000000
# 2 -0.002131 0.016638 -0.003333 0.000000 -0.002654 0.000000
# 3 -0.002257 -0.003333 0.019196 0.000000 -0.010470 0.000000
# 4 0.000000 0.000000 0.000000 0.038313 0.000000 -0.001374
# 5 0.000564 -0.002654 -0.010470 0.000000 0.030280 0.000000
# 6 0.000000 0.000000 0.000000 -0.001374 0.000000 0.030032
#
#
# Mechanical properties :
#
#
# Convention : Reuss Voigt Hill
#
# Bulk Modulus (GPa) = 36.38617 50.98635 43.68626
# Shear Modulus (GPa) = 30.09274 35.48794 32.79034
#
# Velocity S-wave (km/s) = 3.51436 3.81641 3.66850
# Velocity P-wave (km/s) = 5.60368 6.35184 5.98946
#
# Compressibility (1/GPa) = 0.02748297
#
# Stress axis : x y z
#
# Youngs Moduli (GPa) = 141.02713 60.10352 52.09309
#
# Poissons Ratio (x) = 0.12805 0.11758
# Poissons Ratio (y) = 0.30047 0.17365
# Poissons Ratio (z) = 0.31832 0.20035
#
# Static dielectric constant tensor:
#      x y z
#    x 1.919160 0.000000 -0.047970 
#    y 0.000000 2.073250 0.000000 
#    z -0.047970 0.000000 2.080740 
# 
# From -- ./inp_files/116273.got.cif
#   From: 2010.05.17/outbox.cif.g08.bks.cpg/sg15_59_cif.got.tgz:116273.got - 2010.06.03 18:47:42.
