data_PCOD9285585
_publ_section_title
;
Structure prediction by ZEFSAII (Michael W. Deem and Ramdas Pophale) SiO2 
 PCOD9285585
Probable space group: C 2/C
;
_chemical_formula_sum "Si O2"
_cell_formula_units_Z 36
_cell_length_a 6.298942
_cell_length_b 13.184251
_cell_length_c 16.637122
_cell_angle_alpha 90.000000
_cell_angle_beta 104.345252
_cell_angle_gamma 90.000000
_cell_volume 1338.580598
_symmetry_space_group_name_H-M "C 2/C"
_symmetry_group_IT_number 15
_symmetry_cell_setting 'monoclinic'
loop_
_space_group_symop_operation_xyz
x,y,z
-x,y,1/2-z
-x,-y,-z
x,-y,1/2+z
1/2+x,1/2+y,z
1/2-x,1/2+y,1/2-z
1/2-x,1/2-y,-z
1/2+x,1/2-y,1/2+z
loop_
_atom_site_type_symbol
_atom_site_label
_atom_site_fract_x
_atom_site_fract_y
_atom_site_fract_z
Si Si1 0.445015 0.190766 0.157191
Si Si2 0.740521 0.395391 0.945349
Si Si3 0.500000 0.855886 0.250000
Si Si4 0.557919 0.207712 0.577403
Si Si5 0.115758 0.011516 0.176381
O O1 0.500000 0.233300 0.250000
O O2 0.644055 0.145461 0.125309
O O3 0.279862 0.098774 0.161336
O O4 0.314575 0.271535 0.091109
O O5 0.575775 0.307736 0.960294
O O6 0.584925 0.489197 0.906740
O O7 0.940759 0.390414 0.027720
O O8 0.463032 0.796635 0.328303
O O9 0.281140 0.920226 0.209809
O O10 0.000000 0.035553 0.250000
#
# Coordination Sequence:
#
# PCOD9285585 Si02
#       5
#     8   8   4   8   8
#     4  11  19  38  68  90 120 171 214 259 315 386
#     4  10  21  42  64  93 124 172 208 267 316 387
#     4  12  24  40  60 100 130 170 208 268 316 384
#     4  10  24  38  63  97 130 156 220 266 320 371
#     4  11  22  40  62  88 127 173 215 248 326 381
#
# _framework density 26.894159999999999
#
# number of rings (size 3 to 8) (size 9 to 14) (size 15 to 20)
#    0.000    1.333    3.333    2.000    3.111    3.556 
#    0.000    4.444    0.000    0.000    0.000    0.000 
#    0.000    0.000    0.000    0.000    0.000    0.000 
#
# Total GULP energy -100710.746854 kJ/mol
# GULP energy per Si atom -5595.041492 kJ/mol
# Density = 2.683295 g / cm^3
# Si number density = 26.894160 Si / 1000 Ang^3
#
#
#
# Elastic Constant Matrix: (Units=GPa)
#
#
# Indices 1 2 3 4 5 6 
#
# 1 146.9694 28.3739 22.0955 0.0000 4.7856 0.0000
# 2 28.3739 57.0107 -7.2367 0.0000 5.4808 0.0000
# 3 22.0955 -7.2367 106.0325 0.0000 8.6370 0.0000
# 4 0.0000 0.0000 0.0000 17.5192 0.0000 -0.3406
# 5 4.7856 5.4808 8.6370 0.0000 64.1950 0.0000
# 6 0.0000 0.0000 0.0000 -0.3406 0.0000 22.6998
#
#
#
# Elastic Compliance Matrix: (Units=1/GPa)
#
#
# Indices 1 2 3 4 5 6 
#
# 1 0.007901 -0.004181 -0.001934 0.000000 0.000028 0.000000
# 2 -0.004181 0.020089 0.002383 0.000000 -0.001724 0.000000
# 3 -0.001934 0.002383 0.010112 0.000000 -0.001420 0.000000
# 4 0.000000 0.000000 0.000000 0.057097 0.000000 0.000857
# 5 0.000028 -0.001724 -0.001420 0.000000 0.015914 0.000000
# 6 0.000000 0.000000 0.000000 0.000857 0.000000 0.044066
#
#
# Mechanical properties :
#
#
# Convention : Reuss Voigt Hill
#
# Bulk Modulus (GPa) = 32.63810 44.05309 38.34559
# Shear Modulus (GPa) = 28.92574 38.66813 33.79694
#
# Velocity S-wave (km/s) = 3.28310 3.79593 3.54879
# Velocity P-wave (km/s) = 5.15109 5.96891 5.57502
#
# Compressibility (1/GPa) = 0.03063904
#
# Stress axis : x y z
#
# Youngs Moduli (GPa) = 126.56497 49.77753 98.88878
#
# Poissons Ratio (x) = 0.20810 0.19126
# Poissons Ratio (y) = 0.52911 -0.23562
# Poissons Ratio (z) = 0.24479 -0.11860
#
# Static dielectric constant tensor:
#      x y z
#    x 2.105230 0.000000 0.076110 
#    y 0.000000 2.096240 0.000000 
#    z 0.076110 0.000000 2.131640 
# 
# From -- ./inp_files/184094.got.cif
#   From: 2010.05.17/outbox.cif.g08.bks.cpg/sg15_93_cif.got.tgz:184094.got - 2010.06.03 18:47:42.
