data_PCOD9285081
_publ_section_title
;
Structure prediction by ZEFSAII (Michael W. Deem and Ramdas Pophale) SiO2 
 PCOD9285081
Probable space group: C 2/C
;
_chemical_formula_sum "Si O2"
_cell_formula_units_Z 40
_cell_length_a 12.185409
_cell_length_b 14.610397
_cell_length_c 18.882567
_cell_angle_alpha 90.000000
_cell_angle_beta 147.283123
_cell_angle_gamma 90.000000
_cell_volume 1816.976692
_symmetry_space_group_name_H-M "C 2/C"
_symmetry_group_IT_number 15
_symmetry_cell_setting 'monoclinic'
loop_
_space_group_symop_operation_xyz
x,y,z
-x,y,1/2-z
-x,-y,-z
x,-y,1/2+z
1/2+x,1/2+y,z
1/2-x,1/2+y,1/2-z
1/2-x,1/2-y,-z
1/2+x,1/2-y,1/2+z
loop_
_atom_site_type_symbol
_atom_site_label
_atom_site_fract_x
_atom_site_fract_y
_atom_site_fract_z
Si Si1 0.757542 0.904256 0.326949
Si Si2 0.037113 0.525219 0.100334
Si Si3 0.724473 0.436840 0.550632
Si Si4 0.791545 0.756790 0.159974
Si Si5 0.849301 0.714276 0.354685
O O1 0.743350 0.797168 0.339851
O O2 0.983292 0.923314 0.418806
O O3 0.612541 0.938886 0.186264
O O4 0.733123 0.972561 0.379997
O O5 0.202223 0.607645 0.184170
O O6 0.843638 0.558589 0.041571
O O7 0.000000 0.500000 0.000000
O O8 0.796119 0.346333 0.631016
O O9 0.815539 0.751420 0.256954
O O10 0.000000 0.805836 0.250000
O O11 0.577469 0.791101 0.012008
#
# Coordination Sequence:
#
# PCOD9285081 Si02
#       5
#     8   8   8   8   8
#     4  10  22  40  66  94 127 171 219 271 334 401
#     4  12  24  42  63  96 136 171 222 283 327 391
#     4  10  21  41  67  88 129 178 218 263 341 400
#     4  11  19  35  61  96 129 163 214 279 333 387
#     4  11  23  37  65  99 128 168 225 274 332 390
#
# _framework density 22.014592
#
# number of rings (size 3 to 8) (size 9 to 14) (size 15 to 20)
#    0.000    1.200    4.000    2.400    2.800    0.800 
#    0.000    1.000    4.400    0.000    0.000    0.000 
#    0.000    0.000    0.000    0.000    0.000    0.000 
#
# Total GULP energy -111471.736998 kJ/mol
# GULP energy per Si atom -5573.586850 kJ/mol
# Density = 2.196449 g / cm^3
# Si number density = 22.014592 Si / 1000 Ang^3
#
#
#
# Elastic Constant Matrix: (Units=GPa)
#
#
# Indices 1 2 3 4 5 6 
#
# 1 60.6002 26.8488 25.6697 0.0000 -24.1609 0.0000
# 2 26.8488 103.9156 -12.4720 0.0001 -6.2488 0.0000
# 3 25.6697 -12.4720 101.8764 0.0008 -11.4178 0.0002
# 4 0.0000 0.0001 0.0008 26.3779 0.0002 -6.9477
# 5 -24.1609 -6.2488 -11.4178 0.0002 36.8008 0.0000
# 6 0.0000 0.0000 0.0002 -6.9477 0.0000 22.0618
#
#
#
# Elastic Compliance Matrix: (Units=1/GPa)
#
#
# Indices 1 2 3 4 5 6 
#
# 1 0.028596 -0.007213 -0.006342 0.000000 0.015582 0.000000
# 2 -0.007213 0.011745 0.003054 0.000000 -0.001793 0.000000
# 3 -0.006342 0.003054 0.011789 0.000000 0.000013 0.000000
# 4 0.000000 0.000000 0.000000 0.041340 0.000000 0.013019
# 5 0.015582 -0.001793 0.000013 0.000000 0.037103 0.000000
# 6 0.000000 0.000000 0.000000 0.013019 0.000000 0.049427
#
#
# Mechanical properties :
#
#
# Convention : Reuss Voigt Hill
#
# Bulk Modulus (GPa) = 32.12333 38.49835 35.31084
# Shear Modulus (GPa) = 23.65444 32.13779 27.89612
#
# Velocity S-wave (km/s) = 3.28150 3.82493 3.56359
# Velocity P-wave (km/s) = 5.38341 6.08543 5.74515
#
# Compressibility (1/GPa) = 0.03113003
#
# Stress axis : x y z
#
# Youngs Moduli (GPa) = 34.97016 85.13937 84.82406
#
# Poissons Ratio (x) = 0.61407 0.53795
# Poissons Ratio (y) = 0.25222 -0.25908
# Poissons Ratio (z) = 0.22178 -0.26004
#
# Static dielectric constant tensor:
#      x y z
#    x 1.802250 0.000000 0.041220 
#    y 0.000000 1.911380 0.000000 
#    z 0.041220 0.000000 1.859650 
# 
# From -- ./inp_files/85542.got.cif
#   From: 2010.05.17/outbox.cif.g08.bks.cpg/sg15_43_cif.got.tgz:85542.got - 2010.06.03 18:47:42.
