data_PCOD9285150
_publ_section_title
;
Structure prediction by ZEFSAII (Michael W. Deem and Ramdas Pophale) SiO2 
 PCOD9285150
Probable space group: C 2/C
;
_chemical_formula_sum "Si O2"
_cell_formula_units_Z 60
_cell_length_a 12.573755
_cell_length_b 13.726641
_cell_length_c 16.177751
_cell_angle_alpha 90.000000
_cell_angle_beta 113.130328
_cell_angle_gamma 90.000000
_cell_volume 2567.750641
_symmetry_space_group_name_H-M "C 2/C"
_symmetry_group_IT_number 15
_symmetry_cell_setting 'monoclinic'
loop_
_space_group_symop_operation_xyz
x,y,z
-x,y,1/2-z
-x,-y,-z
x,-y,1/2+z
1/2+x,1/2+y,z
1/2-x,1/2+y,1/2-z
1/2-x,1/2-y,-z
1/2+x,1/2-y,1/2+z
loop_
_atom_site_type_symbol
_atom_site_label
_atom_site_fract_x
_atom_site_fract_y
_atom_site_fract_z
Si Si1 0.325065 0.152135 0.505540
Si Si2 0.060133 0.792223 0.071143
Si Si3 0.691009 0.878322 0.310854
Si Si4 0.802704 0.044050 0.555336
Si Si5 0.111569 0.213026 0.836077
Si Si6 0.996088 0.095045 0.110575
Si Si7 0.741944 0.091123 0.345287
Si Si8 0.500000 0.740846 0.250000
O O1 0.250000 0.250000 0.500000
O O2 0.415994 0.190578 0.467832
O O3 0.355556 0.123722 0.608169
O O4 0.263437 0.056997 0.450204
O O5 0.178717 0.832961 0.150287
O O6 0.948437 0.774819 0.092742
O O7 0.037740 0.868199 0.990488
O O8 0.600233 0.807074 0.240732
O O9 0.689442 0.992367 0.290828
O O10 0.792524 0.130136 0.618524
O O11 0.768678 0.075213 0.451824
O O12 0.936948 0.009413 0.602062
O O13 0.165069 0.312162 0.816707
O O14 0.000000 0.181464 0.750000
O O15 0.133181 0.098308 0.158777
O O16 0.949861 0.169676 0.164893
#
# Coordination Sequence:
#
# PCOD9285150 Si02
#       8
#     8   8   8   8   8   8   8   4
#     4   9  16  37  68  97 119 158 220 268 317 387
#     4  11  20  44  71  91 132 174 219 265 332 394
#     4  10  21  41  67  98 127 173 217 267 331 399
#     4  11  21  43  71  98 127 171 229 267 321 396
#     4  12  29  44  60  97 138 177 218 274 326 389
#     4  12  22  42  71 102 125 174 222 274 326 391
#     4  11  24  45  68  90 133 186 224 253 333 407
#     4  12  26  38  68 108 136 152 220 292 328 378
#
# _framework density 23.366754
#
# number of rings (size 3 to 8) (size 9 to 14) (size 15 to 20)
#    0.000    1.067    6.667    2.400    3.733    0.000 
#    0.000    4.000    0.000    0.000    0.000    0.000 
#    0.000    0.000    0.000    0.000    0.000    0.000 
#
# Total GULP energy -167586.581194 kJ/mol
# GULP energy per Si atom -5586.219373 kJ/mol
# Density = 2.331357 g / cm^3
# Si number density = 23.366754 Si / 1000 Ang^3
#
#
#
# Elastic Constant Matrix: (Units=GPa)
#
#
# Indices 1 2 3 4 5 6 
#
# 1 36.0817 12.9630 -8.9908 0.0000 -0.9001 0.0000
# 2 12.9630 103.7619 12.1204 0.0000 -4.7203 0.0000
# 3 -8.9908 12.1204 26.0458 0.0000 12.2412 0.0000
# 4 0.0000 0.0000 0.0000 33.8637 0.0000 8.8949
# 5 -0.9001 -4.7203 12.2412 0.0000 18.6468 0.0000
# 6 0.0000 0.0000 0.0000 8.8949 0.0000 28.9067
#
#
#
# Elastic Compliance Matrix: (Units=1/GPa)
#
#
# Indices 1 2 3 4 5 6 
#
# 1 0.036055 -0.007971 0.023552 0.000000 -0.015739 0.000000
# 2 -0.007971 0.012910 -0.014627 0.000000 0.012486 0.000000
# 3 0.023552 -0.014627 0.078871 0.000000 -0.054343 0.000000
# 4 0.000000 0.000000 0.000000 0.032127 0.000000 -0.009886
# 5 -0.015739 0.012486 -0.054343 0.000000 0.091705 0.000000
# 6 0.000000 0.000000 0.000000 -0.009886 0.000000 0.037636
#
#
# Mechanical properties :
#
#
# Convention : Reuss Voigt Hill
#
# Bulk Modulus (GPa) = 7.70754 22.00829 14.85792
# Shear Modulus (GPa) = 15.12200 26.26991 20.69595
#
# Velocity S-wave (km/s) = 2.54669 3.35661 2.97930
# Velocity P-wave (km/s) = 3.45734 4.94586 4.26701
#
# Compressibility (1/GPa) = 0.12974309
#
# Stress axis : x y z
#
# Youngs Moduli (GPa) = 27.73552 77.45966 12.67889
#
# Poissons Ratio (x) = 0.61747 -0.29862
# Poissons Ratio (y) = 0.22109 0.18546
# Poissons Ratio (z) = -0.65324 1.13304
#
# Static dielectric constant tensor:
#      x y z
#    x 1.957490 0.000000 0.009530 
#    y 0.000000 1.900350 0.000000 
#    z 0.009530 0.000000 1.941240 
# 
# From -- ./inp_files/204509.got.cif
#   From: 2010.05.17/outbox.cif.g08.bks.cpg/sg15_103_cif.got.tgz:204509.got - 2010.06.03 18:47:42.
