data_PCOD9285415
_publ_section_title
;
Structure prediction by ZEFSAII (Michael W. Deem and Ramdas Pophale) SiO2 
 PCOD9285415
Probable space group: C 2/C
;
_chemical_formula_sum "Si O2"
_cell_formula_units_Z 40
_cell_length_a 9.295317
_cell_length_b 11.700376
_cell_length_c 22.769837
_cell_angle_alpha 90.000000
_cell_angle_beta 36.572275
_cell_angle_gamma 90.000000
_cell_volume 1475.539784
_symmetry_space_group_name_H-M "C 2/C"
_symmetry_group_IT_number 15
_symmetry_cell_setting 'monoclinic'
loop_
_space_group_symop_operation_xyz
x,y,z
-x,y,1/2-z
-x,-y,-z
x,-y,1/2+z
1/2+x,1/2+y,z
1/2-x,1/2+y,1/2-z
1/2-x,1/2-y,-z
1/2+x,1/2-y,1/2+z
loop_
_atom_site_type_symbol
_atom_site_label
_atom_site_fract_x
_atom_site_fract_y
_atom_site_fract_z
Si Si1 0.465840 0.266473 0.381537
Si Si2 0.500000 0.193275 0.750000
Si Si3 0.500000 0.115959 0.250000
Si Si4 0.768175 0.991758 0.384603
Si Si5 0.491621 0.375800 0.898127
Si Si6 0.010719 0.388947 0.118068
O O1 0.250000 0.250000 0.500000
O O2 0.475605 0.184351 0.320736
O O3 0.405645 0.388546 0.371520
O O4 0.726482 0.256839 0.327685
O O5 0.478034 0.121472 0.817037
O O6 0.761917 0.062206 0.169813
O O7 0.703361 0.964233 0.338928
O O8 0.500000 0.000000 0.500000
O O9 0.906707 0.104585 0.359214
O O10 0.526056 0.240118 0.895598
O O11 0.274716 0.422281 0.008554
#
# Coordination Sequence:
#
# PCOD9285415 Si02
#       6
#     8   4   4   8   8   8
#     4  12  26  44  72 106 149 200 246 308 390 450
#     4  12  24  41  71 108 144 208 240 296 395 453
#     4  12  22  47  73 104 150 196 240 314 387 445
#     4  10  23  45  75 103 138 196 254 313 371 449
#     4  10  21  41  78 104 140 194 251 311 372 450
#     4  10  21  44  73 103 146 193 247 306 380 447
#
# _framework density 27.108726000000001
#
# number of rings (size 3 to 8) (size 9 to 14) (size 15 to 20)
#    0.000    1.200    4.000    1.200    5.600    0.800 
#    0.000   20.000    0.000    0.000    0.000    0.000 
#    0.000    0.000    0.000    0.000    0.000    0.000 
#
# Total GULP energy -111956.120602 kJ/mol
# GULP energy per Si atom -5597.806030 kJ/mol
# Density = 2.704703 g / cm^3
# Si number density = 27.108726 Si / 1000 Ang^3
#
#
#
# Elastic Constant Matrix: (Units=GPa)
#
#
# Indices 1 2 3 4 5 6 
#
# 1 257.6830 26.2202 99.4970 -0.0002 -21.0709 0.0002
# 2 26.2202 37.8849 15.4295 -0.0007 -16.5072 0.0001
# 3 99.4970 15.4295 222.5399 -0.0014 -12.3975 -0.0013
# 4 -0.0002 -0.0007 -0.0014 29.0255 -0.0004 -0.9420
# 5 -21.0709 -16.5072 -12.3975 -0.0004 64.5975 0.0000
# 6 0.0002 0.0001 -0.0013 -0.9420 0.0000 64.7769
#
#
#
# Elastic Compliance Matrix: (Units=1/GPa)
#
#
# Indices 1 2 3 4 5 6 
#
# 1 0.004947 -0.002328 -0.002015 0.000000 0.000632 0.000000
# 2 -0.002328 0.031413 -0.000740 0.000001 0.007126 0.000000
# 3 -0.002015 -0.000740 0.005457 0.000000 0.000201 0.000000
# 4 0.000000 0.000001 0.000000 0.034469 0.000000 0.000501
# 5 0.000632 0.007126 0.000201 0.000000 0.017546 0.000000
# 6 0.000000 0.000000 0.000000 0.000501 0.000000 0.015445
#
#
# Mechanical properties :
#
#
# Convention : Reuss Voigt Hill
#
# Bulk Modulus (GPa) = 31.59468 88.93346 60.26407
# Shear Modulus (GPa) = 38.46301 56.81070 47.63685
#
# Velocity S-wave (km/s) = 3.77084 4.58281 4.19651
# Velocity P-wave (km/s) = 5.53526 7.80258 6.76459
#
# Compressibility (1/GPa) = 0.03165090
#
# Stress axis : x y z
#
# Youngs Moduli (GPa) = 202.12279 31.83366 183.24547
#
# Poissons Ratio (x) = 0.07411 0.36931
# Poissons Ratio (y) = 0.47052 0.13564
# Poissons Ratio (z) = 0.40736 0.02356
#
# Static dielectric constant tensor:
#      x y z
#    x 2.064910 0.000000 0.040650 
#    y 0.000000 2.305400 0.000000 
#    z 0.040650 0.000000 2.117890 
# 
# From -- ./inp_files/264120.got.cif
#   From: 2010.05.17/outbox.cif.g08.bks.cpg/sg15_133_cif.got.tgz:264120.got - 2010.06.03 18:47:42.
