data_PCOD9285351
_publ_section_title
;
Structure prediction by ZEFSAII (Michael W. Deem and Ramdas Pophale) SiO2 
 PCOD9285351
Probable space group: C 2/C
;
_chemical_formula_sum "Si O2"
_cell_formula_units_Z 60
_cell_length_a 19.509479
_cell_length_b 7.705894
_cell_length_c 27.003981
_cell_angle_alpha 90.000000
_cell_angle_beta 33.788817
_cell_angle_gamma 90.000000
_cell_volume 2257.748098
_symmetry_space_group_name_H-M "C 2/C"
_symmetry_group_IT_number 15
_symmetry_cell_setting 'monoclinic'
loop_
_space_group_symop_operation_xyz
x,y,z
-x,y,1/2-z
-x,-y,-z
x,-y,1/2+z
1/2+x,1/2+y,z
1/2-x,1/2+y,1/2-z
1/2-x,1/2-y,-z
1/2+x,1/2-y,1/2+z
loop_
_atom_site_type_symbol
_atom_site_label
_atom_site_fract_x
_atom_site_fract_y
_atom_site_fract_z
Si Si1 0.500000 0.442229 0.750000
Si Si2 0.742189 0.386927 0.428406
Si Si3 0.804597 0.974382 0.938103
Si Si4 0.862700 0.179018 0.237869
Si Si5 0.587878 0.123224 0.010521
Si Si6 0.757693 0.155212 0.153351
Si Si7 0.635284 0.688447 0.816569
Si Si8 0.508611 0.763758 0.433126
O O1 0.415816 0.551605 0.838780
O O2 0.590137 0.338520 0.734337
O O3 0.809836 0.227397 0.415757
O O4 0.687956 0.491397 0.507948
O O5 0.790556 0.519033 0.358212
O O6 0.625280 0.300011 0.472285
O O7 0.672657 0.050593 0.003274
O O8 0.740356 0.282406 0.295166
O O9 0.969248 0.255725 0.138931
O O10 0.845387 0.987527 0.225530
O O11 0.494258 0.967122 0.053102
O O12 0.496890 0.277628 0.080114
O O13 0.692799 0.178962 0.908213
O O14 0.661334 0.177560 0.255580
O O15 0.888800 0.140065 0.104111
#
# Coordination Sequence:
#
# PCOD9285351 Si02
#       8
#     4   8   8   8   8   8   8   8
#     4  12  24  44  76 106 142 194 242 306 372 440
#     4  10  21  43  62  99 138 183 241 291 363 430
#     4  10  24  43  68  97 142 191 239 298 368 441
#     4  11  24  45  73 107 149 188 250 297 369 443
#     4  11  24  44  72 101 149 188 240 308 363 438
#     4  11  23  40  67 104 137 184 243 297 365 428
#     4  11  25  46  71 110 144 194 243 306 366 445
#     4  10  21  41  71 100 140 187 239 297 364 437
#
# _framework density 26.575151999999999
#
# number of rings (size 3 to 8) (size 9 to 14) (size 15 to 20)
#    0.000    1.333    1.333    4.000    0.000    6.933 
#    2.400    0.000    0.000    0.800    0.000    0.000 
#    0.000    0.000    0.000    0.000    0.000    0.000 
#
# Total GULP energy -167616.952370 kJ/mol
# GULP energy per Si atom -5587.231746 kJ/mol
# Density = 2.651467 g / cm^3
# Si number density = 26.575152 Si / 1000 Ang^3
#
#
#
# Elastic Constant Matrix: (Units=GPa)
#
#
# Indices 1 2 3 4 5 6 
#
# 1 151.6602 46.1161 32.2032 -0.0045 23.6892 0.0065
# 2 46.1161 69.2782 -3.8160 -0.0098 1.6844 -0.0008
# 3 32.2032 -3.8160 99.4566 -0.0021 27.9096 0.0059
# 4 -0.0045 -0.0098 -0.0021 35.4470 0.0006 -2.2119
# 5 23.6892 1.6844 27.9096 0.0006 60.2462 -0.0015
# 6 0.0065 -0.0008 0.0059 -2.2119 -0.0015 25.2451
#
#
#
# Elastic Compliance Matrix: (Units=1/GPa)
#
#
# Indices 1 2 3 4 5 6 
#
# 1 0.009462 -0.006389 -0.002661 -0.000001 -0.002309 -0.000002
# 2 -0.006389 0.018810 0.002567 0.000005 0.000797 0.000002
# 3 -0.002661 0.002567 0.012346 0.000001 -0.004745 -0.000002
# 4 -0.000001 0.000005 0.000001 0.028366 -0.000001 0.002485
# 5 -0.002309 0.000797 -0.004745 -0.000001 0.019682 0.000003
# 6 -0.000002 0.000002 -0.000002 0.002485 0.000003 0.039829
#
#
# Mechanical properties :
#
#
# Convention : Reuss Voigt Hill
#
# Bulk Modulus (GPa) = 36.16452 52.15573 44.16012
# Shear Modulus (GPa) = 33.18300 40.58045 36.88173
#
# Velocity S-wave (km/s) = 3.53745 3.91193 3.72940
# Velocity P-wave (km/s) = 5.50661 6.33030 5.93276
#
# Compressibility (1/GPa) = 0.02765141
#
# Stress axis : x y z
#
# Youngs Moduli (GPa) = 105.68425 53.16456 80.99638
#
# Poissons Ratio (x) = 0.33967 0.21552
# Poissons Ratio (y) = 0.67522 -0.20789
# Poissons Ratio (z) = 0.28121 -0.13646
#
# Static dielectric constant tensor:
#      x y z
#    x 2.149470 0.000000 0.035080 
#    y 0.000000 2.244670 0.000010 
#    z 0.035080 0.000010 2.120440 
# 
# From -- ./inp_files/300512.got.cif
#   From: 2010.05.17/outbox.cif.g08.bks.cpg/sg15_151_cif.got.tgz:300512.got - 2010.06.03 18:47:42.
