data_PCOD9285070
_publ_section_title
;
Structure prediction by ZEFSAII (Michael W. Deem and Ramdas Pophale) SiO2 
 PCOD9285070
Probable space group: C 2/C
;
_chemical_formula_sum "Si O2"
_cell_formula_units_Z 52
_cell_length_a 13.848357
_cell_length_b 26.224551
_cell_length_c 8.996946
_cell_angle_alpha 90.000000
_cell_angle_beta 46.284578
_cell_angle_gamma 90.000000
_cell_volume 2361.610378
_symmetry_space_group_name_H-M "C 2/C"
_symmetry_group_IT_number 15
_symmetry_cell_setting 'monoclinic'
loop_
_space_group_symop_operation_xyz
x,y,z
-x,y,1/2-z
-x,-y,-z
x,-y,1/2+z
1/2+x,1/2+y,z
1/2-x,1/2+y,1/2-z
1/2-x,1/2-y,-z
1/2+x,1/2-y,1/2+z
loop_
_atom_site_type_symbol
_atom_site_label
_atom_site_fract_x
_atom_site_fract_y
_atom_site_fract_z
Si Si1 0.208229 0.994898 0.640122
Si Si2 0.000000 0.922980 0.250000
Si Si3 0.115367 0.533473 0.802830
Si Si4 0.463337 0.887586 0.622836
Si Si5 0.669884 0.390839 0.810393
Si Si6 0.297197 0.724770 0.296339
Si Si7 0.955129 0.266071 0.632792
O O1 0.342175 0.980431 0.407038
O O2 0.139851 0.940318 0.742141
O O3 0.251507 0.020251 0.748135
O O4 0.118977 0.037917 0.660616
O O5 0.946377 0.888927 0.442663
O O6 0.000000 0.500000 0.000000
O O7 0.064869 0.589861 0.893365
O O8 0.500000 0.906522 0.750000
O O9 0.312266 0.902016 0.739972
O O10 0.472906 0.827009 0.615237
O O11 0.694094 0.336891 0.705279
O O12 0.250000 0.750000 0.500000
O O13 0.194705 0.741013 0.271815
O O14 0.442830 0.743260 0.094140
O O15 0.000000 0.247567 0.750000
#
# Coordination Sequence:
#
# PCOD9285070 Si02
#       7
#     8   4   8   8   8   8   8
#     4  12  25  42  62  98 136 182 223 283 327 405
#     4  12  24  48  64  96 142 180 240 266 332 424
#     4  12  22  38  65  94 131 167 224 273 336 395
#     4  10  21  41  67 101 129 172 229 280 343 400
#     4  11  25  43  70  95 139 187 220 285 347 403
#     4  11  25  47  70 105 143 176 233 295 360 424
#     4  10  23  45  72 100 136 179 235 291 351 424
#
# _framework density 22.018874
#
# number of rings (size 3 to 8) (size 9 to 14) (size 15 to 20)
#    0.000    0.923    3.077    3.692    3.231    0.000 
#    5.538    0.000    0.000    0.000    0.000    0.000 
#    0.000    0.000    0.000    0.000    0.000    0.000 
#
# Total GULP energy -145278.632861 kJ/mol
# GULP energy per Si atom -5587.639725 kJ/mol
# Density = 2.196876 g / cm^3
# Si number density = 22.018874 Si / 1000 Ang^3
#
#
#
# Elastic Constant Matrix: (Units=GPa)
#
#
# Indices 1 2 3 4 5 6 
#
# 1 46.3092 19.2805 -2.0559 0.0000 7.6386 0.0000
# 2 19.2805 60.8918 31.4243 0.0000 0.4839 0.0000
# 3 -2.0559 31.4243 99.8323 0.0000 8.4138 0.0000
# 4 0.0000 0.0000 0.0000 39.7180 0.0000 2.0884
# 5 7.6386 0.4839 8.4138 0.0000 30.3062 0.0000
# 6 0.0000 0.0000 0.0000 2.0884 0.0000 26.5309
#
#
#
# Elastic Compliance Matrix: (Units=1/GPa)
#
#
# Indices 1 2 3 4 5 6 
#
# 1 0.027824 -0.011218 0.004792 0.000000 -0.008164 0.000000
# 2 -0.011218 0.024192 -0.008245 0.000000 0.004730 0.000000
# 3 0.004792 -0.008245 0.013108 0.000000 -0.004715 0.000000
# 4 0.000000 0.000000 0.000000 0.025282 0.000000 -0.001990
# 5 -0.008164 0.004730 -0.004715 0.000000 0.036288 0.000000
# 6 0.000000 0.000000 0.000000 -0.001990 0.000000 0.037849
#
#
# Mechanical properties :
#
#
# Convention : Reuss Voigt Hill
#
# Bulk Modulus (GPa) = 27.94645 33.81456 30.88051
# Shear Modulus (GPa) = 24.29408 29.86998 27.08203
#
# Velocity S-wave (km/s) = 3.32524 3.68715 3.51086
# Velocity P-wave (km/s) = 5.24048 5.78940 5.52177
#
# Compressibility (1/GPa) = 0.03578271
#
# Stress axis : x y z
#
# Youngs Moduli (GPa) = 35.94011 41.33618 76.28900
#
# Poissons Ratio (x) = 0.46372 -0.36560
# Poissons Ratio (y) = 0.40319 0.62897
# Poissons Ratio (z) = -0.17224 0.34080
#
# Static dielectric constant tensor:
#      x y z
#    x 1.764220 0.000000 0.011670 
#    y 0.000000 1.822710 0.000000 
#    z 0.011670 0.000000 1.784640 
# 
# From -- ./inp_files/44762.got.cif
#   From: 2010.05.17/outbox.cif.g08.bks.cpg/sg15_23_cif.got.tgz:44762.got - 2010.06.03 18:47:42.
