data_PCOD9285297
_publ_section_title
;
Structure prediction by ZEFSAII (Michael W. Deem and Ramdas Pophale) SiO2 
 PCOD9285297
Probable space group: C 2/C
;
_chemical_formula_sum "Si O2"
_cell_formula_units_Z 48
_cell_length_a 11.199598
_cell_length_b 14.567497
_cell_length_c 14.598133
_cell_angle_alpha 90.000000
_cell_angle_beta 112.567873
_cell_angle_gamma 90.000000
_cell_volume 2199.310647
_symmetry_space_group_name_H-M "C 2/C"
_symmetry_group_IT_number 15
_symmetry_cell_setting 'monoclinic'
loop_
_space_group_symop_operation_xyz
x,y,z
-x,y,1/2-z
-x,-y,-z
x,-y,1/2+z
1/2+x,1/2+y,z
1/2-x,1/2+y,1/2-z
1/2-x,1/2-y,-z
1/2+x,1/2-y,1/2+z
loop_
_atom_site_type_symbol
_atom_site_label
_atom_site_fract_x
_atom_site_fract_y
_atom_site_fract_z
Si Si1 0.269582 0.846575 0.272208
Si Si2 0.906752 0.932149 0.030547
Si Si3 0.006158 0.404071 0.052424
Si Si4 0.280988 0.062232 0.604133
Si Si5 0.500000 0.369210 0.250000
Si Si6 0.500000 0.269365 0.750000
Si Si7 0.434702 0.704762 0.023572
O O1 0.348463 0.872933 0.385408
O O2 0.255944 0.937284 0.204787
O O3 0.125150 0.813883 0.250771
O O4 0.368349 0.782233 0.245193
O O5 0.945463 0.927751 0.148169
O O6 0.943222 0.835480 0.996356
O O7 0.768574 0.973424 0.964608
O O8 0.000000 0.000000 0.000000
O O9 0.929770 0.422033 0.124904
O O10 0.931645 0.312512 0.997229
O O11 0.000000 0.500000 0.000000
O O12 0.191518 0.147801 0.543663
O O13 0.542718 0.311854 0.860904
#
# Coordination Sequence:
#
# PCOD9285297 Si02
#       7
#     8   8   8   8   4   4   8
#     4  11  21  40  67  93 136 171 215 275 334 382
#     4  10  22  38  64 100 130 168 218 275 324 391
#     4  11  23  41  64  97 130 178 216 268 335 393
#     4  11  20  41  67  95 131 169 223 272 328 389
#     4  12  22  39  64  97 140 170 212 277 342 371
#     4  10  22  41  68  99 130 174 224 277 324 391
#     4  10  21  41  69  97 129 172 230 269 318 399
#
# _framework density 21.825021
#
# number of rings (size 3 to 8) (size 9 to 14) (size 15 to 20)
#    0.000    1.333    6.667    1.500    0.000    2.667 
#    3.000    7.500    3.667    0.000    0.000    0.000 
#    0.000    0.000    0.000    0.000    0.000    0.000 
#
# Total GULP energy -133628.588249 kJ/mol
# GULP energy per Si atom -5567.857844 kJ/mol
# Density = 2.177535 g / cm^3
# Si number density = 21.825021 Si / 1000 Ang^3
#
#
#
# Elastic Constant Matrix: (Units=GPa)
#
#
# Indices 1 2 3 4 5 6 
#
# 1 126.2788 11.2449 5.8656 0.0000 15.2549 0.0000
# 2 11.2449 77.9212 15.6435 0.0000 -7.1400 0.0000
# 3 5.8656 15.6435 85.3123 0.0000 -6.0657 0.0000
# 4 0.0000 0.0000 0.0000 16.4826 0.0000 -6.1464
# 5 15.2549 -7.1400 -6.0657 0.0000 39.8862 0.0000
# 6 0.0000 0.0000 0.0000 -6.1464 0.0000 7.3642
#
#
#
# Elastic Compliance Matrix: (Units=1/GPa)
#
#
# Indices 1 2 3 4 5 6 
#
# 1 0.008509 -0.001442 -0.000577 0.000000 -0.003600 0.000000
# 2 -0.001442 0.013734 -0.002229 0.000000 0.002671 0.000000
# 3 -0.000577 -0.002229 0.012290 0.000000 0.001690 0.000000
# 4 0.000000 0.000000 0.000000 0.088085 0.000000 0.073518
# 5 -0.003600 0.002671 0.001690 0.000000 0.027184 0.000000
# 6 0.000000 0.000000 0.000000 0.073518 0.000000 0.197152
#
#
# Mechanical properties :
#
#
# Convention : Reuss Voigt Hill
#
# Bulk Modulus (GPa) = 38.40641 39.44670 38.92656
# Shear Modulus (GPa) = 13.73138 29.86381 21.79759
#
# Velocity S-wave (km/s) = 2.51102 3.70311 3.16372
# Velocity P-wave (km/s) = 5.10320 6.03302 5.58748
#
# Compressibility (1/GPa) = 0.02603732
#
# Stress axis : x y z
#
# Youngs Moduli (GPa) = 117.52115 72.81256 81.36532
#
# Poissons Ratio (x) = 0.10500 0.04691
# Poissons Ratio (y) = 0.16948 0.18139
# Poissons Ratio (z) = 0.06776 0.16232
#
# Static dielectric constant tensor:
#      x y z
#    x 1.884310 0.000000 0.007620 
#    y 0.000000 1.868780 0.000000 
#    z 0.007620 0.000000 1.870180 
# 
# From -- ./inp_files/144414.got.cif
#   From: 2010.05.17/outbox.cif.g08.bks.cpg/sg15_73_cif.got.tgz:144414.got - 2010.06.03 18:47:42.
