data_PCOD9285728
_publ_section_title
;
Structure prediction by ZEFSAII (Michael W. Deem and Ramdas Pophale) SiO2 
 PCOD9285728
Probable space group: C 2/C
;
_chemical_formula_sum "Si O2"
_cell_formula_units_Z 44
_cell_length_a 12.217912
_cell_length_b 9.336477
_cell_length_c 13.925901
_cell_angle_alpha 90.000000
_cell_angle_beta 86.205476
_cell_angle_gamma 90.000000
_cell_volume 1585.076479
_symmetry_space_group_name_H-M "C 2/C"
_symmetry_group_IT_number 15
_symmetry_cell_setting 'monoclinic'
loop_
_space_group_symop_operation_xyz
x,y,z
-x,y,1/2-z
-x,-y,-z
x,-y,1/2+z
1/2+x,1/2+y,z
1/2-x,1/2+y,1/2-z
1/2-x,1/2-y,-z
1/2+x,1/2-y,1/2+z
loop_
_atom_site_type_symbol
_atom_site_label
_atom_site_fract_x
_atom_site_fract_y
_atom_site_fract_z
Si Si1 0.207048 0.405849 0.069702
Si Si2 0.472461 0.661267 0.470325
Si Si3 0.500000 0.720164 0.250000
Si Si4 0.283492 0.979127 0.126718
Si Si5 0.982326 0.380886 0.864967
Si Si6 0.240984 0.740220 0.737254
O O1 0.135569 0.267531 0.040194
O O2 0.291226 0.347924 0.145427
O O3 0.126353 0.526518 0.115234
O O4 0.260506 0.480520 0.974670
O O5 0.500000 0.500000 0.500000
O O6 0.511031 0.652203 0.355128
O O7 0.523064 0.757505 0.554374
O O8 0.386727 0.803923 0.262456
O O9 0.414218 0.013672 0.114098
O O10 0.246443 0.095898 0.208374
O O11 0.234396 0.828023 0.162762
O O12 0.000000 0.338849 0.750000
#
# Coordination Sequence:
#
# PCOD9285728 Si02
#       6
#     8   8   4   8   8   8
#     4  10  21  42  66  91 126 179 220 259 324 405
#     4  10  22  36  63  99 127 163 213 280 319 375
#     4  10  22  44  66  86 132 182 212 248 344 400
#     4  11  22  39  62  95 129 165 220 267 325 377
#     4  11  21  41  72  95 127 177 231 254 320 412
#     4  11  22  40  64  92 125 172 213 273 318 387
#
# _framework density 27.758914000000001
#
# number of rings (size 3 to 8) (size 9 to 14) (size 15 to 20)
#    0.000    1.455    1.818    6.000    2.545    2.909 
#    3.273    0.909    0.000    0.000    0.000    0.000 
#    0.000    0.000    0.000    0.000    0.000    0.000 
#
# Total GULP energy -122712.129126 kJ/mol
# GULP energy per Si atom -5577.824051 kJ/mol
# Density = 2.769573 g / cm^3
# Si number density = 27.758914 Si / 1000 Ang^3
#
#
#
# Elastic Constant Matrix: (Units=GPa)
#
#
# Indices 1 2 3 4 5 6 
#
# 1 63.4469 15.4891 12.0746 0.0000 6.4329 0.0000
# 2 15.4891 148.7552 85.5182 0.0000 -11.6875 0.0000
# 3 12.0746 85.5182 222.4606 0.0000 14.7756 0.0000
# 4 0.0000 0.0000 0.0000 71.1883 0.0000 5.8727
# 5 6.4329 -11.6875 14.7756 0.0000 37.9326 0.0000
# 6 0.0000 0.0000 0.0000 5.8727 0.0000 19.4281
#
#
#
# Elastic Compliance Matrix: (Units=1/GPa)
#
#
# Indices 1 2 3 4 5 6 
#
# 1 0.016599 -0.002079 0.000131 0.000000 -0.003507 0.000000
# 2 -0.002079 0.009544 -0.003875 0.000000 0.004803 0.000000
# 3 0.000131 -0.003875 0.006219 0.000000 -0.003639 0.000000
# 4 0.000000 0.000000 0.000000 0.014406 0.000000 -0.004355
# 5 -0.003507 0.004803 -0.003639 0.000000 0.029854 0.000000
# 6 0.000000 0.000000 0.000000 -0.004355 0.000000 0.052788
#
#
# Mechanical properties :
#
#
# Convention : Reuss Voigt Hill
#
# Bulk Modulus (GPa) = 48.27059 73.42516 60.84787
# Shear Modulus (GPa) = 33.79204 47.14853 40.47029
#
# Velocity S-wave (km/s) = 3.49283 4.12576 3.82241
# Velocity P-wave (km/s) = 5.80460 7.01458 6.43808
#
# Compressibility (1/GPa) = 0.02071655
#
# Stress axis : x y z
#
# Youngs Moduli (GPa) = 60.24297 104.77735 160.78792
#
# Poissons Ratio (x) = 0.21788 -0.02112
# Poissons Ratio (y) = 0.12527 0.62306
# Poissons Ratio (z) = -0.00791 0.40602
#
# Static dielectric constant tensor:
#      x y z
#    x 2.335920 0.000000 0.041020 
#    y 0.000000 2.085810 0.000000 
#    z 0.041020 0.000000 2.514740 
# 
# From -- ./inp_files/159214.got.cif
#   From: 2010.05.17/outbox.cif.g08.bks.cpg/sg15_80_cif.got.tgz:159214.got - 2010.06.03 18:47:42.
