data_PCOD9285645
_publ_section_title
;
Structure prediction by ZEFSAII (Michael W. Deem and Ramdas Pophale) SiO2 
 PCOD9285645
Probable space group: C 2/C
;
_chemical_formula_sum "Si O2"
_cell_formula_units_Z 56
_cell_length_a 8.550631
_cell_length_b 13.774360
_cell_length_c 23.421031
_cell_angle_alpha 90.000000
_cell_angle_beta 113.697858
_cell_angle_gamma 90.000000
_cell_volume 2525.911922
_symmetry_space_group_name_H-M "C 2/C"
_symmetry_group_IT_number 15
_symmetry_cell_setting 'monoclinic'
loop_
_space_group_symop_operation_xyz
x,y,z
-x,y,1/2-z
-x,-y,-z
x,-y,1/2+z
1/2+x,1/2+y,z
1/2-x,1/2+y,1/2-z
1/2-x,1/2-y,-z
1/2+x,1/2-y,1/2+z
loop_
_atom_site_type_symbol
_atom_site_label
_atom_site_fract_x
_atom_site_fract_y
_atom_site_fract_z
Si Si1 0.865504 0.968760 0.529380
Si Si2 0.745250 0.600763 0.268204
Si Si3 0.744058 0.850006 0.416813
Si Si4 0.981790 0.240768 0.811515
Si Si5 0.638484 0.318380 0.444484
Si Si6 0.692198 0.910502 0.293489
Si Si7 0.040749 0.840837 0.851096
O O1 0.734054 0.897519 0.477818
O O2 0.953303 0.912403 0.594236
O O3 0.797692 0.071048 0.542470
O O4 0.000000 0.000000 0.500000
O O5 0.932018 0.646286 0.303570
O O6 0.749890 0.495134 0.240644
O O7 0.643734 0.664971 0.205956
O O8 0.652305 0.612050 0.315510
O O9 0.706926 0.932030 0.363195
O O10 0.619312 0.760646 0.384154
O O11 0.941420 0.815693 0.438079
O O12 0.815266 0.181543 0.807096
O O13 0.000000 0.207182 0.750000
O O14 0.128787 0.216268 0.877582
O O15 0.750000 0.250000 0.500000
O O16 0.500000 0.884411 0.250000
#
# Coordination Sequence:
#
# PCOD9285645 Si02
#       7
#     8   8   8   8   8   8   8
#     4  10  22  39  64  91 123 175 219 267 326 392
#     4  11  23  38  68  95 133 171 216 275 342 394
#     4  10  21  42  65  90 127 171 227 270 323 403
#     4  11  24  41  65  99 134 173 223 276 336 393
#     4  10  22  41  62  88 134 169 218 277 331 390
#     4  11  23  42  67  97 133 171 221 273 327 409
#     4  11  21  40  68  97 130 172 221 280 335 395
#
# _framework density 22.170210999999998
#
# number of rings (size 3 to 8) (size 9 to 14) (size 15 to 20)
#    0.000    1.429    2.857    4.286    4.000    4.571 
#    0.000    2.143    0.000    0.000    0.000    0.000 
#    0.000    0.000    0.000    0.000    0.000    0.000 
#
# Total GULP energy -156383.441215 kJ/mol
# GULP energy per Si atom -5585.122901 kJ/mol
# Density = 2.211975 g / cm^3
# Si number density = 22.170211 Si / 1000 Ang^3
#
#
#
# Elastic Constant Matrix: (Units=GPa)
#
#
# Indices 1 2 3 4 5 6 
#
# 1 22.1337 8.0390 32.5628 0.0000 2.2588 0.0000
# 2 8.0390 112.2323 63.3692 0.0000 -1.8415 0.0000
# 3 32.5628 63.3692 206.5155 0.0000 -10.8353 0.0000
# 4 0.0000 0.0000 0.0000 50.4688 0.0000 -1.6583
# 5 2.2588 -1.8415 -10.8353 0.0000 32.6663 0.0000
# 6 0.0000 0.0000 0.0000 -1.6583 0.0000 16.4144
#
#
#
# Elastic Compliance Matrix: (Units=1/GPa)
#
#
# Indices 1 2 3 4 5 6 
#
# 1 0.060754 0.001400 -0.010406 0.000000 -0.007574 0.000000
# 2 0.001400 0.010818 -0.003575 0.000000 -0.000673 0.000000
# 3 -0.010406 -0.003575 0.007742 0.000000 0.003086 0.000000
# 4 0.000000 0.000000 0.000000 0.019880 0.000000 0.002008
# 5 -0.007574 -0.000673 0.003086 0.000000 0.032122 0.000000
# 6 0.000000 0.000000 0.000000 0.002008 0.000000 0.061125
#
#
# Mechanical properties :
#
#
# Convention : Reuss Voigt Hill
#
# Bulk Modulus (GPa) = 18.46729 60.98040 39.72385
# Shear Modulus (GPa) = 21.21742 35.70394 28.46068
#
# Velocity S-wave (km/s) = 3.09694 4.01739 3.58681
# Velocity P-wave (km/s) = 4.59738 7.00603 5.92539
#
# Compressibility (1/GPa) = 0.05414979
#
# Stress axis : x y z
#
# Youngs Moduli (GPa) = 16.45975 92.44245 129.16329
#
# Poissons Ratio (x) = -0.12940 1.34413
# Poissons Ratio (y) = -0.02304 0.46181
# Poissons Ratio (z) = 0.17129 0.33052
#
# Static dielectric constant tensor:
#      x y z
#    x 1.871520 0.000000 -0.018170 
#    y 0.000000 1.836810 0.000000 
#    z -0.018170 0.000000 1.891310 
# 
# From -- ./inp_files/264784.got.cif
#   From: 2010.05.17/outbox.cif.g08.bks.cpg/sg15_133_cif.got.tgz:264784.got - 2010.06.03 18:47:42.
