data_PCOD9285624
_publ_section_title
;
Structure prediction by ZEFSAII (Michael W. Deem and Ramdas Pophale) SiO2 
 PCOD9285624
Probable space group: C 2/C
;
_chemical_formula_sum "Si O2"
_cell_formula_units_Z 64
_cell_length_a 18.344403
_cell_length_b 8.606452
_cell_length_c 28.593658
_cell_angle_alpha 90.000000
_cell_angle_beta 142.469070
_cell_angle_gamma 90.000000
_cell_volume 2750.109234
_symmetry_space_group_name_H-M "C 2/C"
_symmetry_group_IT_number 15
_symmetry_cell_setting 'monoclinic'
loop_
_space_group_symop_operation_xyz
x,y,z
-x,y,1/2-z
-x,-y,-z
x,-y,1/2+z
1/2+x,1/2+y,z
1/2-x,1/2+y,1/2-z
1/2-x,1/2-y,-z
1/2+x,1/2-y,1/2+z
loop_
_atom_site_type_symbol
_atom_site_label
_atom_site_fract_x
_atom_site_fract_y
_atom_site_fract_z
Si Si1 0.604955 0.721772 0.773889
Si Si2 0.087022 0.751669 0.871585
Si Si3 0.490099 0.825345 0.475068
Si Si4 0.310920 0.747697 0.455832
Si Si5 0.135792 0.537358 0.748071
Si Si6 0.785107 0.533193 0.814737
Si Si7 0.261367 0.748811 0.875721
Si Si8 0.240791 0.002988 0.492011
O O1 0.500000 0.644622 0.750000
O O2 0.709114 0.746711 0.864745
O O3 0.661421 0.622180 0.761178
O O4 0.567437 0.889203 0.734640
O O5 0.147252 0.766087 0.851134
O O6 0.120298 0.912731 0.913342
O O7 0.954122 0.683620 0.801838
O O8 0.164028 0.624295 0.939388
O O9 0.432662 0.732370 0.489056
O O10 0.393253 0.849689 0.385011
O O11 0.620260 0.756341 0.531782
O O12 0.500000 0.000000 0.500000
O O13 0.289350 0.614755 0.482055
O O14 0.300371 0.908244 0.479535
O O15 0.189576 0.491537 0.725544
O O16 0.240132 0.591737 0.836153
O O17 0.779110 0.386694 0.846928
#
# Coordination Sequence:
#
# PCOD9285624 Si02
#       8
#     8   8   8   8   8   8   8   8
#     4  11  23  45  67  92 132 177 213 267 342 395
#     4  11  24  40  68  95 135 177 214 277 336 403
#     4   9  20  39  67  87 131 169 214 258 336 388
#     4  10  21  42  65 100 128 176 220 281 320 407
#     4  12  25  43  65  99 134 169 223 280 332 396
#     4  10  24  43  67  96 128 174 226 268 325 404
#     4  11  23  43  66  94 132 175 216 266 343 396
#     4  10  22  39  65 100 131 164 235 267 332 388
#
# _framework density 23.271802000000001
#
# number of rings (size 3 to 8) (size 9 to 14) (size 15 to 20)
#    0.000    1.500    0.000    5.625    7.000    2.000 
#    9.000    1.875    0.000    0.000    0.000    0.000 
#    0.000    0.000    0.000    0.000    0.000    0.000 
#
# Total GULP energy -179022.392120 kJ/mol
# GULP energy per Si atom -5594.449754 kJ/mol
# Density = 2.321883 g / cm^3
# Si number density = 23.271802 Si / 1000 Ang^3
#
#
#
# Elastic Constant Matrix: (Units=GPa)
#
#
# Indices 1 2 3 4 5 6 
#
# 1 120.7099 8.5145 16.1979 0.0000 -9.6804 0.0000
# 2 8.5145 29.0929 -1.1053 0.0000 -1.9696 0.0000
# 3 16.1979 -1.1053 39.9095 0.0000 3.3756 0.0000
# 4 0.0000 0.0000 0.0000 26.6594 0.0000 -2.7522
# 5 -9.6804 -1.9696 3.3756 0.0000 38.3345 0.0000
# 6 0.0000 0.0000 0.0000 -2.7522 0.0000 30.9900
#
#
#
# Elastic Compliance Matrix: (Units=1/GPa)
#
#
# Indices 1 2 3 4 5 6 
#
# 1 0.009218 -0.002679 -0.004031 0.000000 0.002545 0.000000
# 2 -0.002679 0.035297 0.001983 0.000000 0.000962 0.000000
# 3 -0.004031 0.001983 0.027026 0.000000 -0.003296 0.000000
# 4 0.000000 0.000000 0.000000 0.037857 0.000000 0.003362
# 5 0.002545 0.000962 -0.003296 0.000000 0.027069 0.000000
# 6 0.000000 0.000000 0.000000 0.003362 0.000000 0.032567
#
#
# Mechanical properties :
#
#
# Convention : Reuss Voigt Hill
#
# Bulk Modulus (GPa) = 16.10580 26.32516 21.21548
# Shear Modulus (GPa) = 25.10249 30.27048 27.68649
#
# Velocity S-wave (km/s) = 3.28787 3.61049 3.45295
# Velocity P-wave (km/s) = 4.62052 5.35886 5.00333
#
# Compressibility (1/GPa) = 0.06208943
#
# Stress axis : x y z
#
# Youngs Moduli (GPa) = 108.48016 28.33089 37.00092
#
# Poissons Ratio (x) = 0.07589 0.14914
# Poissons Ratio (y) = 0.29059 -0.07339
# Poissons Ratio (z) = 0.43727 -0.05619
#
# Static dielectric constant tensor:
#      x y z
#    x 1.876130 0.000000 0.037330 
#    y 0.000000 1.890600 0.000000 
#    z 0.037330 0.000000 1.915790 
# 
# From -- ./inp_files/315739.got.cif
#   From: 2010.05.17/outbox.cif.g08.bks.cpg/sg15_158_cif.got.tgz:315739.got - 2010.06.03 18:47:42.
