data_PCOD9285352
_publ_section_title
;
Structure prediction by ZEFSAII (Michael W. Deem and Ramdas Pophale) SiO2 
 PCOD9285352
Probable space group: C 2/C
;
_chemical_formula_sum "Si O2"
_cell_formula_units_Z 40
_cell_length_a 12.479155
_cell_length_b 6.957617
_cell_length_c 19.696891
_cell_angle_alpha 90.000000
_cell_angle_beta 109.059480
_cell_angle_gamma 90.000000
_cell_volume 1616.433871
_symmetry_space_group_name_H-M "C 2/C"
_symmetry_group_IT_number 15
_symmetry_cell_setting 'monoclinic'
loop_
_space_group_symop_operation_xyz
x,y,z
-x,y,1/2-z
-x,-y,-z
x,-y,1/2+z
1/2+x,1/2+y,z
1/2-x,1/2+y,1/2-z
1/2-x,1/2-y,-z
1/2+x,1/2-y,1/2+z
loop_
_atom_site_type_symbol
_atom_site_label
_atom_site_fract_x
_atom_site_fract_y
_atom_site_fract_z
Si Si1 0.266351 0.902853 0.336975
Si Si2 0.249996 0.429907 0.447579
Si Si3 0.487487 0.044015 0.576930
Si Si4 0.085223 0.010004 0.415223
Si Si5 0.835339 0.961340 0.331737
O O1 0.391514 0.998902 0.364789
O O2 0.299334 0.677850 0.345676
O O3 0.182042 0.961721 0.380153
O O4 0.204247 0.935249 0.252773
O O5 0.250000 0.250000 0.500000
O O6 0.139252 0.961252 0.500112
O O7 0.266698 0.350988 0.375783
O O8 0.133403 0.547501 0.427551
O O9 0.456623 0.266217 0.589209
O O10 0.500000 0.000000 0.500000
O O11 0.967059 0.914462 0.369834
#
# Coordination Sequence:
#
# PCOD9285352 Si02
#       5
#     8   8   8   8   8
#     4  11  25  45  68 100 143 184 234 292 354 424
#     4  10  22  43  71  99 134 180 230 293 352 416
#     4  10  21  41  71 101 131 179 232 286 349 422
#     4  10  22  44  70  96 138 180 228 292 355 418
#     4  11  26  44  68 103 137 186 239 287 357 423
#
# _framework density 24.745832
#
# number of rings (size 3 to 8) (size 9 to 14) (size 15 to 20)
#    0.000    1.600    2.000    1.200    5.600    1.600 
#   14.400    0.000    0.000    0.000    0.000    0.000 
#    0.000    0.000    0.000    0.000    0.000    0.000 
#
# Total GULP energy -111725.254009 kJ/mol
# GULP energy per Si atom -5586.262700 kJ/mol
# Density = 2.468951 g / cm^3
# Si number density = 24.745832 Si / 1000 Ang^3
#
#
#
# Elastic Constant Matrix: (Units=GPa)
#
#
# Indices 1 2 3 4 5 6 
#
# 1 213.1354 19.7342 63.0452 0.0000 21.3363 0.0000
# 2 19.7342 96.9217 -13.7406 0.0000 -12.9538 0.0000
# 3 63.0452 -13.7406 147.2721 0.0000 1.6213 0.0000
# 4 0.0000 0.0000 0.0000 30.7109 0.0000 -6.8531
# 5 21.3363 -12.9538 1.6213 0.0000 45.4176 0.0000
# 6 0.0000 0.0000 0.0000 -6.8531 0.0000 36.8595
#
#
#
# Elastic Compliance Matrix: (Units=1/GPa)
#
#
# Indices 1 2 3 4 5 6 
#
# 1 0.006023 -0.002058 -0.002734 0.000000 -0.003319 0.000000
# 2 -0.002058 0.011569 0.001914 0.000000 0.004198 0.000000
# 3 -0.002734 0.001914 0.008122 0.000000 0.001540 0.000000
# 4 0.000000 0.000000 0.000000 0.033971 0.000000 0.006316
# 5 -0.003319 0.004198 0.001540 0.000000 0.024719 0.000000
# 6 0.000000 0.000000 0.000000 0.006316 0.000000 0.028304
#
#
# Mechanical properties :
#
#
# Convention : Reuss Voigt Hill
#
# Bulk Modulus (GPa) = 50.10173 66.15631 58.12902
# Shear Modulus (GPa) = 39.96244 48.48362 44.22303
#
# Velocity S-wave (km/s) = 4.02296 4.43116 4.23198
# Velocity P-wave (km/s) = 6.47066 7.27823 6.88629
#
# Compressibility (1/GPa) = 0.01995939
#
# Stress axis : x y z
#
# Youngs Moduli (GPa) = 166.02191 86.43817 123.12041
#
# Poissons Ratio (x) = 0.17785 0.33660
# Poissons Ratio (y) = 0.34160 -0.23565
# Poissons Ratio (z) = 0.45389 -0.16544
#
# Static dielectric constant tensor:
#      x y z
#    x 2.065430 0.000000 0.006120 
#    y 0.000000 2.254170 0.000000 
#    z 0.006120 0.000000 1.944510 
# 
# From -- ./inp_files/235885.got.cif
#   From: 2010.05.17/outbox.cif.g08.bks.cpg/sg15_118_cif.got.tgz:235885.got - 2010.06.03 18:47:42.
