data_PCOD9285939
_publ_section_title
;
Structure prediction by ZEFSAII (Michael W. Deem and Ramdas Pophale) SiO2 
 PCOD9285939
Probable space group: C 2/C
;
_chemical_formula_sum "Si O2"
_cell_formula_units_Z 48
_cell_length_a 17.788364
_cell_length_b 10.277514
_cell_length_c 11.676924
_cell_angle_alpha 90.000000
_cell_angle_beta 94.348547
_cell_angle_gamma 90.000000
_cell_volume 2128.631616
_symmetry_space_group_name_H-M "C 2/C"
_symmetry_group_IT_number 15
_symmetry_cell_setting 'monoclinic'
loop_
_space_group_symop_operation_xyz
x,y,z
-x,y,1/2-z
-x,-y,-z
x,-y,1/2+z
1/2+x,1/2+y,z
1/2-x,1/2+y,1/2-z
1/2-x,1/2-y,-z
1/2+x,1/2-y,1/2+z
loop_
_atom_site_type_symbol
_atom_site_label
_atom_site_fract_x
_atom_site_fract_y
_atom_site_fract_z
Si Si1 0.790663 0.402006 0.244436
Si Si2 0.589714 0.678130 0.269302
Si Si3 0.225183 0.455474 0.999423
Si Si4 0.625698 0.698833 0.973640
Si Si5 0.969644 0.148116 0.002981
Si Si6 0.119309 0.878917 0.225420
O O1 0.853468 0.290149 0.263015
O O2 0.788365 0.487499 0.364649
O O3 0.797459 0.463303 0.117080
O O4 0.706898 0.342551 0.232151
O O5 0.500000 0.700650 0.250000
O O6 0.593100 0.664879 0.407528
O O7 0.610279 0.535924 0.222546
O O8 0.175809 0.326035 0.980105
O O9 0.313630 0.416016 0.995727
O O10 0.549166 0.719471 0.035507
O O11 0.592458 0.667895 0.845180
O O12 0.928355 0.181244 0.881209
O O13 0.000000 0.000000 0.000000
#
# Coordination Sequence:
#
# PCOD9285939 Si02
#       6
#     8   8   8   8   8   8
#     4  11  27  44  69 102 138 185 228 284 348 418
#     4  12  25  43  70  99 140 180 227 288 352 407
#     4  10  24  45  70  94 143 185 234 272 356 416
#     4  10  21  42  68  98 132 186 219 289 345 416
#     4  12  21  38  66 102 136 168 238 291 341 398
#     4  11  24  40  67 102 136 175 235 283 347 407
#
# _framework density 22.549697999999999
#
# number of rings (size 3 to 8) (size 9 to 14) (size 15 to 20)
#    0.000    1.000    3.333    2.500    9.333    2.000 
#    0.000    5.000    0.000    0.000    0.000    0.000 
#    0.000    0.000    0.000    0.000    0.000    0.000 
#
# Total GULP energy -133857.477317 kJ/mol
# GULP energy per Si atom -5577.394888 kJ/mol
# Density = 2.249837 g / cm^3
# Si number density = 22.549698 Si / 1000 Ang^3
#
#
#
# Elastic Constant Matrix: (Units=GPa)
#
#
# Indices 1 2 3 4 5 6 
#
# 1 130.8234 26.0754 45.1069 0.0000 -6.6037 0.0000
# 2 26.0754 19.2476 20.2170 0.0000 -1.9249 0.0000
# 3 45.1069 20.2170 147.2761 0.0000 -3.2003 0.0000
# 4 0.0000 0.0000 0.0000 20.7644 0.0000 -0.5125
# 5 -6.6037 -1.9249 -3.2003 0.0000 50.5612 0.0000
# 6 0.0000 0.0000 0.0000 -0.5125 0.0000 30.6458
#
#
#
# Elastic Compliance Matrix: (Units=1/GPa)
#
#
# Indices 1 2 3 4 5 6 
#
# 1 0.010786 -0.012945 -0.001509 0.000000 0.000820 0.000000
# 2 -0.012945 0.076407 -0.006506 0.000000 0.000806 0.000000
# 3 -0.001509 -0.006506 0.008147 0.000000 0.000071 0.000000
# 4 0.000000 0.000000 0.000000 0.048179 0.000000 0.000806
# 5 0.000820 0.000806 0.000071 0.000000 0.019920 0.000000
# 6 0.000000 0.000000 0.000000 0.000806 0.000000 0.032644
#
#
# Mechanical properties :
#
#
# Convention : Reuss Voigt Hill
#
# Bulk Modulus (GPa) = 18.71994 53.34953 36.03473
# Shear Modulus (GPa) = 19.54584 34.12414 26.83499
#
# Velocity S-wave (km/s) = 2.94732 3.89432 3.45343
# Velocity P-wave (km/s) = 4.46116 6.62804 5.64946
#
# Compressibility (1/GPa) = 0.05341898
#
# Stress axis : x y z
#
# Youngs Moduli (GPa) = 92.71595 13.08788 122.74967
#
# Poissons Ratio (x) = 0.16942 0.18517
# Poissons Ratio (y) = 1.20022 0.79864
# Poissons Ratio (z) = 0.13986 0.08515
#
# Static dielectric constant tensor:
#      x y z
#    x 1.813790 0.000000 -0.034620 
#    y 0.000000 1.814950 0.000000 
#    z -0.034620 0.000000 2.198640 
# 
# From -- ./inp_files/103756.got.cif
#   From: 2010.05.17/outbox.cif.g08.bks.cpg/sg15_52_cif.got.tgz:103756.got - 2010.06.03 18:47:42.
