data_PCOD9285723
_publ_section_title
;
Structure prediction by ZEFSAII (Michael W. Deem and Ramdas Pophale) SiO2 
 PCOD9285723
Probable space group: C 2/C
;
_chemical_formula_sum "Si O2"
_cell_formula_units_Z 56
_cell_length_a 9.161428
_cell_length_b 27.379988
_cell_length_c 11.727883
_cell_angle_alpha 90.000000
_cell_angle_beta 68.239083
_cell_angle_gamma 90.000000
_cell_volume 2732.182477
_symmetry_space_group_name_H-M "C 2/C"
_symmetry_group_IT_number 15
_symmetry_cell_setting 'monoclinic'
loop_
_space_group_symop_operation_xyz
x,y,z
-x,y,1/2-z
-x,-y,-z
x,-y,1/2+z
1/2+x,1/2+y,z
1/2-x,1/2+y,1/2-z
1/2-x,1/2-y,-z
1/2+x,1/2-y,1/2+z
loop_
_atom_site_type_symbol
_atom_site_label
_atom_site_fract_x
_atom_site_fract_y
_atom_site_fract_z
Si Si1 0.559564 0.119561 0.602444
Si Si2 0.084482 0.490132 0.098811
Si Si3 0.500000 0.762885 0.250000
Si Si4 0.726783 0.831678 0.333298
Si Si5 0.013642 0.850480 0.082035
Si Si6 0.000000 0.095922 0.250000
Si Si7 0.603935 0.547788 0.452924
Si Si8 0.166068 0.177748 0.079295
O O1 0.500000 0.123250 0.750000
O O2 0.392943 0.126447 0.588184
O O3 0.673519 0.162961 0.529789
O O4 0.638176 0.066688 0.569159
O O5 0.221267 0.529358 0.074047
O O6 0.000000 0.490676 0.250000
O O7 0.000000 0.500000 0.000000
O O8 0.610557 0.792155 0.308909
O O9 0.629868 0.728356 0.150669
O O10 0.845965 0.820127 0.400797
O O11 0.854271 0.849639 0.203070
O O12 0.060452 0.906567 0.046225
O O13 0.969517 0.827251 0.975210
O O14 0.934536 0.065118 0.164146
O O15 0.862322 0.132900 0.326979
O O16 0.500000 0.500000 0.500000
#
# Coordination Sequence:
#
# PCOD9285723 Si02
#       8
#     8   8   4   8   8   4   8   8
#     4  11  21  40  66  92 128 174 219 268 337 393
#     4  11  26  41  65 101 139 179 233 283 332 406
#     4  11  24  40  66 100 120 166 216 268 336 409
#     4  11  22  39  64  94 123 164 217 266 330 399
#     4  10  22  41  62  89 130 167 208 267 330 389
#     4   9  22  40  64  92 130 166 216 270 338 399
#     4  11  24  40  66  94 129 180 226 270 327 400
#     4  10  21  42  66  90 128 164 211 272 338 397
#
# _framework density 20.496435000000002
#
# number of rings (size 3 to 8) (size 9 to 14) (size 15 to 20)
#    0.000    1.429    2.143    2.571    6.000    4.000 
#    0.000    1.429    0.000    0.000    0.000    0.000 
#    0.000    0.000    0.000    0.000    0.000    0.000 
#
# Total GULP energy -155939.385294 kJ/mol
# GULP energy per Si atom -5569.263761 kJ/mol
# Density = 2.044978 g / cm^3
# Si number density = 20.496435 Si / 1000 Ang^3
#
#
#
# Elastic Constant Matrix: (Units=GPa)
#
#
# Indices 1 2 3 4 5 6 
#
# 1 127.8313 58.9463 50.8103 0.0000 1.1124 0.0000
# 2 58.9463 120.1824 51.6003 0.0000 2.9318 0.0000
# 3 50.8103 51.6003 92.9171 0.0000 2.5725 0.0000
# 4 0.0000 0.0000 0.0000 31.3815 0.0000 -4.8770
# 5 1.1124 2.9318 2.5725 0.0000 30.6242 0.0000
# 6 0.0000 0.0000 0.0000 -4.8770 0.0000 21.5577
#
#
#
# Elastic Compliance Matrix: (Units=1/GPa)
#
#
# Indices 1 2 3 4 5 6 
#
# 1 0.011147 -0.003747 -0.004023 0.000000 0.000292 0.000000
# 2 -0.003747 0.012194 -0.004705 0.000000 -0.000636 0.000000
# 3 -0.004023 -0.004705 0.015595 0.000000 -0.000713 0.000000
# 4 0.000000 0.000000 0.000000 0.033027 0.000000 0.007472
# 5 0.000292 -0.000636 -0.000713 0.000000 0.032764 0.000000
# 6 0.000000 0.000000 0.000000 0.007472 0.000000 0.048078
#
#
# Mechanical properties :
#
#
# Convention : Reuss Voigt Hill
#
# Bulk Modulus (GPa) = 71.50107 73.73830 72.61969
# Shear Modulus (GPa) = 27.40965 28.68428 28.04697
#
# Velocity S-wave (km/s) = 3.66086 3.74502 3.70318
# Velocity P-wave (km/s) = 7.26840 7.39963 7.33430
#
# Compressibility (1/GPa) = 0.01398580
#
# Stress axis : x y z
#
# Youngs Moduli (GPa) = 89.70835 82.00519 64.12421
#
# Poissons Ratio (x) = 0.30731 0.25795
# Poissons Ratio (y) = 0.33617 0.30171
# Poissons Ratio (z) = 0.36087 0.38585
#
# Static dielectric constant tensor:
#      x y z
#    x 1.787470 0.000000 0.009060 
#    y 0.000000 1.780260 0.000000 
#    z 0.009060 0.000000 1.801810 
# 
# From -- ./inp_files/81326.got.cif
#   From: 2010.05.17/outbox.cif.g08.bks.cpg/sg15_41_cif.got.tgz:81326.got - 2010.06.03 18:47:42.
