data_PCOD9285839
_publ_section_title
;
Structure prediction by ZEFSAII (Michael W. Deem and Ramdas Pophale) SiO2 
 PCOD9285839
Probable space group: C 2/C
;
_chemical_formula_sum "Si O2"
_cell_formula_units_Z 60
_cell_length_a 13.061051
_cell_length_b 8.489330
_cell_length_c 24.179742
_cell_angle_alpha 90.000000
_cell_angle_beta 110.211058
_cell_angle_gamma 90.000000
_cell_volume 2515.958097
_symmetry_space_group_name_H-M "C 2/C"
_symmetry_group_IT_number 15
_symmetry_cell_setting 'monoclinic'
loop_
_space_group_symop_operation_xyz
x,y,z
-x,y,1/2-z
-x,-y,-z
x,-y,1/2+z
1/2+x,1/2+y,z
1/2-x,1/2+y,1/2-z
1/2-x,1/2-y,-z
1/2+x,1/2-y,1/2+z
loop_
_atom_site_type_symbol
_atom_site_label
_atom_site_fract_x
_atom_site_fract_y
_atom_site_fract_z
Si Si1 0.152572 0.804976 0.442131
Si Si2 0.939653 0.630982 0.454328
Si Si3 0.932001 0.108669 0.030375
Si Si4 0.172099 0.599723 0.172628
Si Si5 0.729040 0.942308 0.288515
Si Si6 0.500000 0.848423 0.250000
Si Si7 0.973590 0.219347 0.680407
Si Si8 0.564611 0.376794 0.659650
O O1 0.250000 0.750000 0.500000
O O2 0.141181 0.767434 0.374358
O O3 0.038652 0.727171 0.443100
O O4 0.147533 0.991399 0.452793
O O5 0.882023 0.754206 0.484391
O O6 0.854199 0.561179 0.394978
O O7 0.000000 0.500000 0.500000
O O8 0.011797 0.177665 0.092391
O O9 0.000000 0.000000 0.000000
O O10 0.228820 0.471889 0.222001
O O11 0.054403 0.641756 0.176176
O O12 0.233411 0.767261 0.188454
O O13 0.808864 0.078262 0.324357
O O14 0.605301 0.950141 0.285486
O O15 0.462903 0.739047 0.294815
O O16 0.000000 0.206462 0.750000
O O17 0.016011 0.049409 0.665354
#
# Coordination Sequence:
#
# PCOD9285839 Si02
#       8
#     8   8   8   8   8   4   8   8
#     4   9  19  40  61  92 124 165 225 278 332 420
#     4  10  22  42  63  89 127 175 223 276 349 413
#     4   9  19  41  70  87 128 186 224 275 355 422
#     4  10  23  42  63  93 137 176 223 286 350 421
#     4  11  23  44  66  99 139 180 232 289 355 424
#     4  12  24  40  68 106 140 176 234 288 358 428
#     4   9  18  37  61  90 132 168 220 276 345 413
#     4  10  21  42  67  96 135 181 226 288 356 420
#
# _framework density 23.847773
#
# number of rings (size 3 to 8) (size 9 to 14) (size 15 to 20)
#    0.000    2.133    2.000    2.400    2.800    0.000 
#   16.800    0.667    0.000    0.000    0.000    0.000 
#    0.000    0.000    0.000    0.000    0.000    0.000 
#
# Total GULP energy -167469.333269 kJ/mol
# GULP energy per Si atom -5582.311109 kJ/mol
# Density = 2.379349 g / cm^3
# Si number density = 23.847773 Si / 1000 Ang^3
#
#
#
# Elastic Constant Matrix: (Units=GPa)
#
#
# Indices 1 2 3 4 5 6 
#
# 1 79.7604 4.8818 30.9188 0.0000 15.0538 0.0000
# 2 4.8818 46.4731 14.0834 0.0000 -1.3023 0.0000
# 3 30.9188 14.0834 161.0103 0.0000 17.8413 0.0000
# 4 0.0000 0.0000 0.0000 31.9406 0.0000 7.1412
# 5 15.0538 -1.3023 17.8413 0.0000 35.4873 0.0000
# 6 0.0000 0.0000 0.0000 7.1412 0.0000 26.9163
#
#
#
# Elastic Compliance Matrix: (Units=1/GPa)
#
#
# Indices 1 2 3 4 5 6 
#
# 1 0.014375 -0.001013 -0.002110 0.000000 -0.005075 0.000000
# 2 -0.001013 0.022295 -0.002006 0.000000 0.002256 0.000000
# 3 -0.002110 -0.002006 0.007096 0.000000 -0.002746 0.000000
# 4 0.000000 0.000000 0.000000 0.033282 0.000000 -0.008830
# 5 -0.005075 0.002256 -0.002746 0.000000 0.031795 0.000000
# 6 0.000000 0.000000 0.000000 -0.008830 0.000000 0.039495
#
#
# Mechanical properties :
#
#
# Convention : Reuss Voigt Hill
#
# Bulk Modulus (GPa) = 29.84213 43.00131 36.42172
# Shear Modulus (GPa) = 29.45258 34.69283 32.07270
#
# Velocity S-wave (km/s) = 3.51810 3.81827 3.67126
# Velocity P-wave (km/s) = 5.38920 6.12451 5.76859
#
# Compressibility (1/GPa) = 0.03350967
#
# Stress axis : x y z
#
# Youngs Moduli (GPa) = 69.56489 44.85261 140.93255
#
# Poissons Ratio (x) = 0.04543 0.29730
# Poissons Ratio (y) = 0.07046 0.28266
# Poissons Ratio (z) = 0.14675 0.08996
#
# Static dielectric constant tensor:
#      x y z
#    x 1.977350 0.000000 -0.007020 
#    y 0.000000 1.909740 0.000000 
#    z -0.007020 0.000000 1.947220 
# 
# From -- ./inp_files/273213.got.cif
#   From: 2010.05.17/outbox.cif.g08.bks.cpg/sg15_137_cif.got.tgz:273213.got - 2010.06.03 18:47:42.
