data_PCOD9285041
_publ_section_title
;
Structure prediction by ZEFSAII (Michael W. Deem and Ramdas Pophale) SiO2 
 PCOD9285041
Probable space group: C 2/C
;
_chemical_formula_sum "Si O2"
_cell_formula_units_Z 32
_cell_length_a 17.621362
_cell_length_b 9.891342
_cell_length_c 14.456979
_cell_angle_alpha 90.000000
_cell_angle_beta 34.260850
_cell_angle_gamma 90.000000
_cell_volume 1418.570408
_symmetry_space_group_name_H-M "C 2/C"
_symmetry_group_IT_number 15
_symmetry_cell_setting 'monoclinic'
loop_
_space_group_symop_operation_xyz
x,y,z
-x,y,1/2-z
-x,-y,-z
x,-y,1/2+z
1/2+x,1/2+y,z
1/2-x,1/2+y,1/2-z
1/2-x,1/2-y,-z
1/2+x,1/2-y,1/2+z
loop_
_atom_site_type_symbol
_atom_site_label
_atom_site_fract_x
_atom_site_fract_y
_atom_site_fract_z
Si Si1 0.436306 0.872570 0.440661
Si Si2 0.854922 0.150582 0.945391
Si Si3 0.260618 0.868084 0.381233
Si Si4 0.610800 0.147728 0.935962
O O1 0.583118 0.853807 0.247872
O O2 0.324340 0.767787 0.523136
O O3 0.474258 0.848912 0.512080
O O4 0.396623 0.029444 0.480736
O O5 0.000000 0.156123 0.750000
O O6 0.750000 0.250000 0.000000
O O7 0.868062 0.211953 0.034933
O O8 0.804251 0.997184 0.005298
O O9 0.276551 0.888123 0.253733
#
# Coordination Sequence:
#
# PCOD9285041 Si02
#       4
#     8   8   8   8
#     4   9  20  37  69  91 122 164 236 265 301 372
#     4  12  27  43  65 100 139 170 209 278 344 377
#     4  10  21  41  66  97 125 175 224 258 319 396
#     4   9  21  41  68  91 132 172 225 261 319 392
#
# _framework density 22.557922999999999
#
# number of rings (size 3 to 8) (size 9 to 14) (size 15 to 20)
#    1.500    0.500    0.000    3.000    3.500    3.000 
#    0.000    6.250    0.000    0.000    0.000    0.000 
#    0.000    0.000    0.000    0.000    0.000    0.000 
#
# Total GULP energy -89362.929171 kJ/mol
# GULP energy per Si atom -5585.183073 kJ/mol
# Density = 2.250658 g / cm^3
# Si number density = 22.557923 Si / 1000 Ang^3
#
#
#
# Elastic Constant Matrix: (Units=GPa)
#
#
# Indices 1 2 3 4 5 6 
#
# 1 62.7545 33.1075 27.4040 0.0000 -3.3867 0.0000
# 2 33.1075 122.8596 64.7274 0.0000 -19.8450 0.0000
# 3 27.4040 64.7274 167.6374 0.0000 -13.8260 0.0000
# 4 0.0000 0.0000 0.0000 -63.9981 0.0000 5.6904
# 5 -3.3867 -19.8450 -13.8260 0.0000 30.4209 0.0000
# 6 0.0000 0.0000 0.0000 5.6904 0.0000 33.7185
#
#
#
# Elastic Compliance Matrix: (Units=1/GPa)
#
#
# Indices 1 2 3 4 5 6 
#
# 1 0.018900 -0.004579 -0.001449 0.000000 -0.001541 0.000000
# 2 -0.004579 0.012137 -0.003456 0.000000 0.005837 0.000000
# 3 -0.001449 -0.003456 0.007623 0.000000 0.001049 0.000000
# 4 0.000000 0.000000 0.000000 -0.015394 0.000000 0.002598
# 5 -0.001541 0.005837 0.001049 0.000000 0.036985 0.000000
# 6 0.000000 0.000000 0.000000 0.002598 0.000000 0.029219
#
#
# Mechanical properties :
#
#
# Convention : Reuss Voigt Hill
#
# Bulk Modulus (GPa) = 50.78103 67.08104 58.93103
# Shear Modulus (GPa) = 43.47758 15.22910 29.35334
#
# Velocity S-wave (km/s) = 4.39495 2.60111 3.61119
# Velocity P-wave (km/s) = 6.95086 6.23080 6.60065
#
# Compressibility (1/GPa) = 0.01969239
#
# Stress axis : x y z
#
# Youngs Moduli (GPa) = 52.90929 82.39257 131.17948
#
# Poissons Ratio (x) = 0.37726 0.19006
# Poissons Ratio (y) = 0.24226 0.45341
# Poissons Ratio (z) = 0.07666 0.28478
#
# Static dielectric constant tensor:
#      x y z
#    x 1.946120 0.000000 0.059900 
#    y 0.000000 1.776520 0.000000 
#    z 0.059900 0.000000 1.850950 
# 
# From -- ./inp_files/213641.got.cif
#   From: 2010.05.17/outbox.cif.g08.bks.cpg/sg15_107_cif.got.tgz:213641.got - 2010.06.03 18:47:42.
