data_PCOD9285100
_publ_section_title
;
Structure prediction by ZEFSAII (Michael W. Deem and Ramdas Pophale) SiO2 
 PCOD9285100
Probable space group: C 2/C
;
_chemical_formula_sum "Si O2"
_cell_formula_units_Z 56
_cell_length_a 11.052484
_cell_length_b 11.501170
_cell_length_c 25.450862
_cell_angle_alpha 90.000000
_cell_angle_beta 132.570003
_cell_angle_gamma 90.000000
_cell_volume 2382.585441
_symmetry_space_group_name_H-M "C 2/C"
_symmetry_group_IT_number 15
_symmetry_cell_setting 'monoclinic'
loop_
_space_group_symop_operation_xyz
x,y,z
-x,y,1/2-z
-x,-y,-z
x,-y,1/2+z
1/2+x,1/2+y,z
1/2-x,1/2+y,1/2-z
1/2-x,1/2-y,-z
1/2+x,1/2-y,1/2+z
loop_
_atom_site_type_symbol
_atom_site_label
_atom_site_fract_x
_atom_site_fract_y
_atom_site_fract_z
Si Si1 0.901636 0.576413 0.847899
Si Si2 0.833933 0.235701 0.081388
Si Si3 0.913083 0.677107 0.398210
Si Si4 0.165343 0.841091 0.525766
Si Si5 0.624313 0.711292 0.831361
Si Si6 0.980659 0.955526 0.565001
Si Si7 0.652628 0.388537 0.186189
O O1 0.930391 0.455004 0.885417
O O2 0.784858 0.656032 0.851288
O O3 0.795653 0.563400 0.763929
O O4 0.063621 0.647555 0.880012
O O5 0.709903 0.195614 0.089419
O O6 0.956488 0.129313 0.106505
O O7 0.750000 0.250000 0.000000
O O8 0.835571 0.754553 0.328429
O O9 0.083912 0.736341 0.468423
O O10 0.313586 0.801803 0.606608
O O11 0.027668 0.881761 0.528063
O O12 0.169888 0.957071 0.491436
O O13 0.500000 0.758191 0.750000
O O14 0.515967 0.613758 0.829330
O O15 0.127141 0.040277 0.625506
#
# Coordination Sequence:
#
# PCOD9285100 Si02
#       7
#     8   8   8   8   8   8   8
#     4  11  25  44  69 101 142 182 238 295 354 430
#     4  12  24  43  71 104 139 184 234 293 359 426
#     4  11  25  45  70 104 142 181 238 293 359 425
#     4  10  21  42  67  96 132 177 231 288 346 417
#     4  10  21  42  66  97 130 177 235 284 351 420
#     4  10  21  41  67  91 136 176 225 283 349 412
#     4  10  25  43  66 100 132 187 232 288 359 425
#
# _framework density 23.503879000000001
#
# number of rings (size 3 to 8) (size 9 to 14) (size 15 to 20)
#    0.000    1.429    2.857    0.857    2.000    7.429 
#    0.000    0.000    0.000    0.000    0.000    0.000 
#    0.000    0.000    0.000    0.000    0.000    0.000 
#
# Total GULP energy -156561.141482 kJ/mol
# GULP energy per Si atom -5591.469339 kJ/mol
# Density = 2.345038 g / cm^3
# Si number density = 23.503879 Si / 1000 Ang^3
#
#
#
# Elastic Constant Matrix: (Units=GPa)
#
#
# Indices 1 2 3 4 5 6 
#
# 1 63.6936 26.2839 26.8614 0.0000 -5.5337 0.0000
# 2 26.2839 136.8051 69.1118 0.0000 7.7569 0.0000
# 3 26.8614 69.1118 155.3843 0.0000 -2.9384 0.0000
# 4 0.0000 0.0000 0.0000 35.0140 0.0000 -9.4169
# 5 -5.5337 7.7569 -2.9384 0.0000 32.2835 0.0000
# 6 0.0000 0.0000 0.0000 -9.4169 0.0000 24.3719
#
#
#
# Elastic Compliance Matrix: (Units=1/GPa)
#
#
# Indices 1 2 3 4 5 6 
#
# 1 0.017899 -0.002723 -0.001816 0.000000 0.003557 0.000000
# 2 -0.002723 0.010075 -0.004072 0.000000 -0.003258 0.000000
# 3 -0.001816 -0.004072 0.008588 0.000000 0.001449 0.000000
# 4 0.000000 0.000000 0.000000 0.031872 0.000000 0.012315
# 5 0.003557 -0.003258 0.001449 0.000000 0.032500 0.000000
# 6 0.000000 0.000000 0.000000 0.012315 0.000000 0.045789
#
#
# Mechanical properties :
#
#
# Convention : Reuss Voigt Hill
#
# Bulk Modulus (GPa) = 51.70673 66.71079 59.20876
# Shear Modulus (GPa) = 29.34436 33.90894 31.62665
#
# Velocity S-wave (km/s) = 3.53723 3.80240 3.67221
# Velocity P-wave (km/s) = 6.22332 6.90813 6.57464
#
# Compressibility (1/GPa) = 0.01933984
#
# Stress axis : x y z
#
# Youngs Moduli (GPa) = 55.87003 99.25910 116.44157
#
# Poissons Ratio (x) = 0.27031 0.21142
# Poissons Ratio (y) = 0.15215 0.47413
# Poissons Ratio (z) = 0.10144 0.40417
#
# Static dielectric constant tensor:
#      x y z
#    x 1.991480 0.000000 0.018490 
#    y 0.000000 1.957650 0.000000 
#    z 0.018490 0.000000 1.877190 
# 
# From -- ./inp_files/292303.got.cif
#   From: 2010.05.17/outbox.cif.g08.bks.cpg/sg15_147_cif.got.tgz:292303.got - 2010.06.03 18:47:42.
