data_PCOD9285426
_publ_section_title
;
Structure prediction by ZEFSAII (Michael W. Deem and Ramdas Pophale) SiO2 
 PCOD9285426
Probable space group: C 2/C
;
_chemical_formula_sum "Si O2"
_cell_formula_units_Z 44
_cell_length_a 31.522367
_cell_length_b 7.030870
_cell_length_c 8.192712
_cell_angle_alpha 90.000000
_cell_angle_beta 97.693314
_cell_angle_gamma 90.000000
_cell_volume 1799.404152
_symmetry_space_group_name_H-M "C 2/C"
_symmetry_group_IT_number 15
_symmetry_cell_setting 'monoclinic'
loop_
_space_group_symop_operation_xyz
x,y,z
-x,y,1/2-z
-x,-y,-z
x,-y,1/2+z
1/2+x,1/2+y,z
1/2-x,1/2+y,1/2-z
1/2-x,1/2-y,-z
1/2+x,1/2-y,1/2+z
loop_
_atom_site_type_symbol
_atom_site_label
_atom_site_fract_x
_atom_site_fract_y
_atom_site_fract_z
Si Si1 0.500000 0.374750 0.750000
Si Si2 0.304306 0.100006 0.853783
Si Si3 0.969589 0.751372 0.378010
Si Si4 0.254934 0.466229 0.443008
Si Si5 0.376219 0.221895 0.378579
Si Si6 0.342422 0.566879 0.150795
O O1 0.486161 0.265780 0.575511
O O2 0.534206 0.529045 0.691990
O O3 0.257531 0.045701 0.752868
O O4 0.323627 0.275182 0.765062
O O5 0.340508 0.940080 0.868439
O O6 0.285070 0.098902 0.024810
O O7 0.923459 0.654009 0.357584
O O8 0.000000 0.667057 0.250000
O O9 0.250000 0.250000 0.500000
O O10 0.303573 0.500367 0.514281
O O11 0.361789 0.384063 0.245716
O O12 0.376232 0.324948 0.554064
#
# Coordination Sequence:
#
# PCOD9285426 Si02
#       6
#     4   8   8   8   8   8
#     4   8  16  34  60  88 130 170 204 282 334 408
#     4  11  23  43  61  89 140 173 218 285 315 391
#     4   9  18  36  63  97 130 169 224 277 344 416
#     4  10  21  42  59  87 128 179 221 256 328 377
#     4  12  24  41  66 100 128 173 227 274 342 401
#     4  11  26  40  63  98 129 178 229 270 330 400
#
# _framework density 24.452535999999998
#
# number of rings (size 3 to 8) (size 9 to 14) (size 15 to 20)
#    0.545    1.091    3.636    2.182    5.091    0.727 
#    0.000    0.000    0.000    2.182    0.000    1.273 
#    0.000    0.000    0.000    0.000    0.000    0.000 
#
# Total GULP energy -122689.559217 kJ/mol
# GULP energy per Si atom -5576.798146 kJ/mol
# Density = 2.439688 g / cm^3
# Si number density = 24.452536 Si / 1000 Ang^3
#
#
#
# Elastic Constant Matrix: (Units=GPa)
#
#
# Indices 1 2 3 4 5 6 
#
# 1 134.4723 20.6220 32.5618 0.0000 -20.4313 0.0000
# 2 20.6220 78.6993 15.8488 0.0000 0.6663 0.0000
# 3 32.5618 15.8488 102.2146 0.0000 -12.4635 0.0000
# 4 0.0000 0.0000 0.0000 23.7307 0.0000 -3.2970
# 5 -20.4313 0.6663 -12.4635 0.0000 30.5754 0.0000
# 6 0.0000 0.0000 0.0000 -3.2970 0.0000 16.7796
#
#
#
# Elastic Compliance Matrix: (Units=1/GPa)
#
#
# Indices 1 2 3 4 5 6 
#
# 1 0.009013 -0.002021 -0.001913 0.000000 0.005287 0.000000
# 2 -0.002021 0.013610 -0.001754 0.000000 -0.002362 0.000000
# 3 -0.001913 -0.001754 0.011063 0.000000 0.003270 0.000000
# 4 0.000000 0.000000 0.000000 0.043322 0.000000 0.008512
# 5 0.005287 -0.002362 0.003270 0.000000 0.037623 0.000000
# 6 0.000000 0.000000 0.000000 0.008512 0.000000 0.061269
#
#
# Mechanical properties :
#
#
# Convention : Reuss Voigt Hill
#
# Bulk Modulus (GPa) = 44.82589 50.38349 47.60469
# Shear Modulus (GPa) = 25.67870 30.64071 28.15971
#
# Velocity S-wave (km/s) = 3.24411 3.54371 3.39721
# Velocity P-wave (km/s) = 5.69244 6.11500 5.90750
#
# Compressibility (1/GPa) = 0.02230854
#
# Stress axis : x y z
#
# Youngs Moduli (GPa) = 110.95116 73.47796 90.38734
#
# Poissons Ratio (x) = 0.14851 0.17292
# Poissons Ratio (y) = 0.22426 0.15857
# Poissons Ratio (z) = 0.21227 0.12891
#
# Static dielectric constant tensor:
#      x y z
#    x 1.929950 0.000000 -0.136520 
#    y 0.000000 2.002780 0.000000 
#    z -0.136520 0.000000 2.327750 
# 
# From -- ./inp_files/68397.got.cif
#   From: 2010.05.17/outbox.cif.g08.bks.cpg/sg15_35_cif.got.tgz:68397.got - 2010.06.03 18:47:42.
