data_PCOD9285485
_publ_section_title
;
Structure prediction by ZEFSAII (Michael W. Deem and Ramdas Pophale) SiO2 
 PCOD9285485
Probable space group: C 2/C
;
_chemical_formula_sum "Si O2"
_cell_formula_units_Z 32
_cell_length_a 17.531043
_cell_length_b 7.606618
_cell_length_c 11.106072
_cell_angle_alpha 90.000000
_cell_angle_beta 79.066075
_cell_angle_gamma 90.000000
_cell_volume 1454.130811
_symmetry_space_group_name_H-M "C 2/C"
_symmetry_group_IT_number 15
_symmetry_cell_setting 'monoclinic'
loop_
_space_group_symop_operation_xyz
x,y,z
-x,y,1/2-z
-x,-y,-z
x,-y,1/2+z
1/2+x,1/2+y,z
1/2-x,1/2+y,1/2-z
1/2-x,1/2-y,-z
1/2+x,1/2-y,1/2+z
loop_
_atom_site_type_symbol
_atom_site_label
_atom_site_fract_x
_atom_site_fract_y
_atom_site_fract_z
Si Si1 0.411738 0.539019 0.990299
Si Si2 0.692711 0.710116 0.844634
Si Si3 0.857494 0.711925 0.881983
Si Si4 0.582872 0.152602 0.173088
O O1 0.392091 0.407077 0.884329
O O2 0.403544 0.738808 0.952775
O O3 0.500000 0.500000 0.000000
O O4 0.351024 0.472377 0.108841
O O5 0.785048 0.696883 0.813848
O O6 0.650942 0.794016 0.744098
O O7 0.675212 0.821406 0.972032
O O8 0.916790 0.556146 0.841434
O O9 0.500000 0.211560 0.250000
#
# Coordination Sequence:
#
# PCOD9285485 Si02
#       4
#     8   8   8   8
#     4  10  21  42  62  90 126 156 205 254 301 360
#     4   9  22  44  59  91 126 152 212 249 297 372
#     4   9  23  43  59  91 125 157 205 256 298 361
#     4  12  23  39  65  91 120 168 201 245 315 361
#
# _framework density 22.006274999999999
#
# number of rings (size 3 to 8) (size 9 to 14) (size 15 to 20)
#    1.500    0.500    2.500    0.000    3.500    6.000 
#    4.500    0.000    0.000    0.000    0.000    0.000 
#    0.000    0.000    0.000    0.000    0.000    0.000 
#
# Total GULP energy -89223.485202 kJ/mol
# GULP energy per Si atom -5576.467825 kJ/mol
# Density = 2.195619 g / cm^3
# Si number density = 22.006275 Si / 1000 Ang^3
#
#
#
# Elastic Constant Matrix: (Units=GPa)
#
#
# Indices 1 2 3 4 5 6 
#
# 1 115.1177 19.9767 4.7308 0.0000 20.4618 0.0000
# 2 19.9767 59.1703 -5.4771 0.0000 -13.0765 0.0000
# 3 4.7308 -5.4771 23.4104 0.0000 9.5283 0.0000
# 4 0.0000 0.0000 0.0000 21.9536 0.0000 -11.2230
# 5 20.4618 -13.0765 9.5283 0.0000 24.5005 0.0000
# 6 0.0000 0.0000 0.0000 -11.2230 0.0000 29.6309
#
#
#
# Elastic Compliance Matrix: (Units=1/GPa)
#
#
# Indices 1 2 3 4 5 6 
#
# 1 0.012613 -0.007453 0.001917 0.000000 -0.015257 0.000000
# 2 -0.007453 0.023567 -0.000752 0.000000 0.019095 0.000000
# 3 0.001917 -0.000752 0.051048 0.000000 -0.021855 0.000000
# 4 0.000000 0.000000 0.000000 0.056488 0.000000 0.021396
# 5 -0.015257 0.019095 -0.021855 0.000000 0.072248 0.000000
# 6 0.000000 0.000000 0.000000 0.021396 0.000000 0.041852
#
#
# Mechanical properties :
#
#
# Convention : Reuss Voigt Hill
#
# Bulk Modulus (GPa) = 13.39529 26.23991 19.81760
# Shear Modulus (GPa) = 16.93329 27.11486 22.02408
#
# Velocity S-wave (km/s) = 2.77695 3.51400 3.16699
# Velocity P-wave (km/s) = 4.04749 5.33047 4.73266
#
# Compressibility (1/GPa) = 0.07465313
#
# Stress axis : x y z
#
# Youngs Moduli (GPa) = 79.28212 42.43259 19.58944
#
# Poissons Ratio (x) = 0.31624 -0.03756
# Poissons Ratio (y) = 0.59087 0.01473
# Poissons Ratio (z) = -0.15201 0.03191
#
# Static dielectric constant tensor:
#      x y z
#    x 1.787890 0.000000 0.009080 
#    y 0.000000 1.802550 0.000000 
#    z 0.009080 0.000000 1.802470 
# 
# From -- ./inp_files/102230.got.cif
#   From: 2010.05.17/outbox.cif.g08.bks.cpg/sg15_52_cif.got.tgz:102230.got - 2010.06.03 18:47:42.
