data_PCOD9285976
_publ_section_title
;
Structure prediction by ZEFSAII (Michael W. Deem and Ramdas Pophale) SiO2 
 PCOD9285976
Probable space group: C 2/C
;
_chemical_formula_sum "Si O2"
_cell_formula_units_Z 48
_cell_length_a 11.679189
_cell_length_b 17.204742
_cell_length_c 13.144727
_cell_angle_alpha 90.000000
_cell_angle_beta 110.159137
_cell_angle_gamma 90.000000
_cell_volume 2479.461135
_symmetry_space_group_name_H-M "C 2/C"
_symmetry_group_IT_number 15
_symmetry_cell_setting 'monoclinic'
loop_
_space_group_symop_operation_xyz
x,y,z
-x,y,1/2-z
-x,-y,-z
x,-y,1/2+z
1/2+x,1/2+y,z
1/2-x,1/2+y,1/2-z
1/2-x,1/2-y,-z
1/2+x,1/2-y,1/2+z
loop_
_atom_site_type_symbol
_atom_site_label
_atom_site_fract_x
_atom_site_fract_y
_atom_site_fract_z
Si Si1 0.184338 0.903978 0.911670
Si Si2 0.477070 0.913382 0.026335
Si Si3 0.302714 0.750813 0.213621
Si Si4 0.371961 0.241051 0.971266
Si Si5 0.578883 0.643857 0.597535
Si Si6 0.500000 0.130704 0.750000
Si Si7 0.500000 0.474186 0.250000
O O1 0.330911 0.907157 0.969312
O O2 0.170398 0.828518 0.835846
O O3 0.130219 0.892134 0.008300
O O4 0.107608 0.972886 0.833300
O O5 0.552344 0.841107 0.998856
O O6 0.525317 0.915093 0.157007
O O7 0.500000 0.000000 0.000000
O O8 0.339564 0.748132 0.342632
O O9 0.169627 0.787652 0.162075
O O10 0.389130 0.813935 0.187167
O O11 0.250000 0.250000 0.000000
O O12 0.455923 0.311750 0.032037
O O13 0.556773 0.580500 0.678789
#
# Coordination Sequence:
#
# PCOD9285976 Si02
#       7
#     8   8   8   8   8   4   4
#     4  12  24  46  69 103 132 179 234 284 338 409
#     4  11  25  43  67  99 138 175 226 283 340 404
#     4  11  22  43  73  97 129 175 237 274 337 414
#     4  11  25  45  70  99 139 180 225 284 345 409
#     4  12  24  46  71 101 136 180 229 284 342 411
#     4  10  21  42  69  94 122 178 218 278 333 404
#     4  12  29  42  69 104 146 180 224 290 353 404
#
# _framework density 19.359044000000001
#
# number of rings (size 3 to 8) (size 9 to 14) (size 15 to 20)
#    0.000    0.667    3.333    5.500    7.000    0.000 
#    3.000    0.000    0.000    0.000    0.000    0.000 
#    0.000    0.000    0.000    0.000    0.000    0.000 
#
# Total GULP energy -133913.696642 kJ/mol
# GULP energy per Si atom -5579.737360 kJ/mol
# Density = 1.931498 g / cm^3
# Si number density = 19.359044 Si / 1000 Ang^3
#
#
#
# Elastic Constant Matrix: (Units=GPa)
#
#
# Indices 1 2 3 4 5 6 
#
# 1 142.1996 66.5717 57.2070 0.0000 -7.5826 0.0000
# 2 66.5717 140.2326 87.0166 0.0000 -26.4153 0.0000
# 3 57.2070 87.0166 103.9193 0.0000 -4.7804 0.0000
# 4 0.0000 0.0000 0.0000 5.9636 0.0000 3.1176
# 5 -7.5826 -26.4153 -4.7804 0.0000 30.8384 0.0000
# 6 0.0000 0.0000 0.0000 3.1176 0.0000 32.6353
#
#
#
# Elastic Compliance Matrix: (Units=1/GPa)
#
#
# Indices 1 2 3 4 5 6 
#
# 1 0.009482 -0.002799 -0.002899 0.000000 -0.000516 0.000000
# 2 -0.002799 0.020448 -0.014914 0.000000 0.014515 0.000000
# 3 -0.002899 -0.014914 0.023252 0.000000 -0.009883 0.000000
# 4 0.000000 0.000000 0.000000 0.176497 0.000000 -0.016860
# 5 -0.000516 0.014515 -0.009883 0.000000 0.043202 0.000000
# 6 0.000000 0.000000 0.000000 -0.016860 0.000000 0.032252
#
#
# Mechanical properties :
#
#
# Convention : Reuss Voigt Hill
#
# Bulk Modulus (GPa) = 83.62841 89.77131 86.69986
# Shear Modulus (GPa) = 14.27172 25.59121 19.93147
#
# Velocity S-wave (km/s) = 2.71811 3.63977 3.21217
# Velocity P-wave (km/s) = 7.28994 8.00852 7.65766
#
# Compressibility (1/GPa) = 0.01195766
#
# Stress axis : x y z
#
# Youngs Moduli (GPa) = 105.46519 48.90407 43.00659
#
# Poissons Ratio (x) = 0.13689 0.12470
# Poissons Ratio (y) = 0.29522 0.64138
# Poissons Ratio (z) = 0.30580 0.72934
#
# Static dielectric constant tensor:
#      x y z
#    x 1.772820 0.000000 -0.028220 
#    y 0.000000 1.666940 0.000000 
#    z -0.028220 0.000000 1.689280 
# 
# From -- ./inp_files/87905.got.cif
#   From: 2010.05.17/outbox.cif.g08.bks.cpg/sg15_44_cif.got.tgz:87905.got - 2010.06.03 18:47:42.
