data_PCOD9285834
_publ_section_title
;
Structure prediction by ZEFSAII (Michael W. Deem and Ramdas Pophale) SiO2 
 PCOD9285834
Probable space group: C 2/C
;
_chemical_formula_sum "Si O2"
_cell_formula_units_Z 60
_cell_length_a 11.553317
_cell_length_b 20.726202
_cell_length_c 21.344369
_cell_angle_alpha 90.000000
_cell_angle_beta 145.113002
_cell_angle_gamma 90.000000
_cell_volume 2923.312202
_symmetry_space_group_name_H-M "C 2/C"
_symmetry_group_IT_number 15
_symmetry_cell_setting 'monoclinic'
loop_
_space_group_symop_operation_xyz
x,y,z
-x,y,1/2-z
-x,-y,-z
x,-y,1/2+z
1/2+x,1/2+y,z
1/2-x,1/2+y,1/2-z
1/2-x,1/2-y,-z
1/2+x,1/2-y,1/2+z
loop_
_atom_site_type_symbol
_atom_site_label
_atom_site_fract_x
_atom_site_fract_y
_atom_site_fract_z
Si Si1 0.745403 0.937722 0.526766
Si Si2 0.192053 0.412288 0.136245
Si Si3 0.345481 0.731674 0.274754
Si Si4 0.000000 0.128350 0.250000
Si Si5 0.757724 0.764261 0.144515
Si Si6 0.514702 0.307635 0.440271
Si Si7 0.430627 0.432113 0.113355
Si Si8 0.653884 0.842848 0.371582
O O1 0.517307 0.948788 0.448857
O O2 0.870073 0.911666 0.642141
O O3 0.710551 0.886546 0.455675
O O4 0.861659 0.000563 0.553488
O O5 0.168150 0.334528 0.122436
O O6 0.301020 0.427767 0.119532
O O7 0.339130 0.429210 0.259420
O O8 0.361700 0.673946 0.232641
O O9 0.330022 0.716283 0.341108
O O10 0.534316 0.778892 0.342551
O O11 0.136615 0.769849 0.172409
O O12 0.000000 0.769409 0.250000
O O13 0.679304 0.738994 0.043486
O O14 0.601334 0.370507 0.444727
O O15 0.357482 0.327179 0.425057
O O16 0.500000 0.871303 0.250000
#
# Coordination Sequence:
#
# PCOD9285834 Si02
#       8
#     8   8   8   4   8   8   8   8
#     4  12  25  41  68  95 133 173 217 273 320 387
#     4  11  21  44  64  88 128 176 218 265 335 382
#     4  11  21  40  65 100 133 164 213 275 333 391
#     4  12  24  38  66 114 130 158 226 280 326 384
#     4  12  23  38  64  96 130 172 214 270 331 396
#     4  11  22  40  64  91 130 173 212 264 330 387
#     4  11  24  43  63  92 129 177 225 257 320 407
#     4  10  21  42  67  96 125 175 215 263 336 390
#
# _framework density 20.524663
#
# number of rings (size 3 to 8) (size 9 to 14) (size 15 to 20)
#    0.000    0.800    6.000    3.600    0.000    4.800 
#    0.000    2.000    0.000    0.000    0.000    0.000 
#    0.000    0.000    0.000    0.000    0.000    0.000 
#
# Total GULP energy -167618.736718 kJ/mol
# GULP energy per Si atom -5587.291224 kJ/mol
# Density = 2.047795 g / cm^3
# Si number density = 20.524663 Si / 1000 Ang^3
#
#
#
# Elastic Constant Matrix: (Units=GPa)
#
#
# Indices 1 2 3 4 5 6 
#
# 1 58.1190 7.0831 15.5151 -0.0016 -4.7387 0.0007
# 2 7.0831 77.2969 50.2724 -0.0016 12.1635 0.0009
# 3 15.5151 50.2724 116.1185 -0.0124 -5.2374 0.0035
# 4 -0.0016 -0.0016 -0.0124 2.8455 -0.0014 4.8176
# 5 -4.7387 12.1635 -5.2374 -0.0014 23.1728 0.0006
# 6 0.0007 0.0009 0.0035 4.8176 0.0006 14.2332
#
#
#
# Elastic Compliance Matrix: (Units=1/GPa)
#
#
# Indices 1 2 3 4 5 6 
#
# 1 0.018131 -0.001135 -0.001755 0.000011 0.003907 -0.000004
# 2 -0.001135 0.021598 -0.009821 -0.000096 -0.013789 0.000034
# 3 -0.001755 -0.009821 0.013452 0.000143 0.007837 -0.000051
# 4 0.000011 -0.000096 0.000143 0.823145 0.000144 -0.278615
# 5 0.003907 -0.013789 0.007837 0.000144 0.052962 -0.000052
# 6 -0.000004 0.000034 -0.000051 -0.278615 -0.000052 0.164563
#
#
# Mechanical properties :
#
#
# Convention : Reuss Voigt Hill
#
# Bulk Modulus (GPa) = 36.02349 44.14175 40.08262
# Shear Modulus (GPa) = 4.43055 19.96122 12.19588
#
# Velocity S-wave (km/s) = 1.47083 3.12195 2.44028
# Velocity P-wave (km/s) = 4.52481 5.87783 5.24513
#
# Compressibility (1/GPa) = 0.02775966
#
# Stress axis : x y z
#
# Youngs Moduli (GPa) = 55.15283 46.29958 74.33903
#
# Poissons Ratio (x) = 0.05254 0.13048
# Poissons Ratio (y) = 0.06258 0.73010
# Poissons Ratio (z) = 0.09680 0.45472
#
# Static dielectric constant tensor:
#      x y z
#    x 1.750310 0.000000 -0.028600 
#    y 0.000000 1.765930 0.000000 
#    z -0.028600 0.000000 1.765510 
# 
# From -- ./inp_files/240874.got.cif
#   From: 2010.05.17/outbox.cif.g08.bks.cpg/sg15_121_cif.got.tgz:240874.got - 2010.06.03 18:47:42.
