data_PCOD9285260
_publ_section_title
;
Structure prediction by ZEFSAII (Michael W. Deem and Ramdas Pophale) SiO2 
 PCOD9285260
Probable space group: C 2/C
;
_chemical_formula_sum "Si O2"
_cell_formula_units_Z 40
_cell_length_a 22.689635
_cell_length_b 14.737512
_cell_length_c 16.003328
_cell_angle_alpha 90.000000
_cell_angle_beta 161.998374
_cell_angle_gamma 90.000000
_cell_volume 1653.797314
_symmetry_space_group_name_H-M "C 2/C"
_symmetry_group_IT_number 15
_symmetry_cell_setting 'monoclinic'
loop_
_space_group_symop_operation_xyz
x,y,z
-x,y,1/2-z
-x,-y,-z
x,-y,1/2+z
1/2+x,1/2+y,z
1/2-x,1/2+y,1/2-z
1/2-x,1/2-y,-z
1/2+x,1/2-y,1/2+z
loop_
_atom_site_type_symbol
_atom_site_label
_atom_site_fract_x
_atom_site_fract_y
_atom_site_fract_z
Si Si1 0.246811 0.531405 0.718609
Si Si2 0.972212 0.680753 0.978032
Si Si3 0.415270 0.302658 0.058439
Si Si4 0.958778 0.380245 0.288190
Si Si5 0.849048 0.971594 0.177007
O O1 0.252857 0.566753 0.631832
O O2 0.124335 0.590239 0.616479
O O3 0.148484 0.433765 0.574288
O O4 0.463135 0.527121 0.041469
O O5 0.198953 0.674996 0.288207
O O6 0.913256 0.756575 0.964949
O O7 0.914614 0.689972 0.802896
O O8 0.500000 0.244962 0.250000
O O9 0.559943 0.387473 0.248042
O O10 0.000000 0.345506 0.250000
O O11 0.797481 0.459236 0.063708
#
# Coordination Sequence:
#
# PCOD9285260 Si02
#       5
#     8   8   8   8   8
#     4  10  21  41  69 101 140 185 241 296 345 430
#     4  12  25  44  69 102 150 188 234 298 364 423
#     4  12  26  43  70 105 143 189 239 301 367 422
#     4  10  22  42  71 106 142 187 246 295 348 428
#     4  10  22  41  73 104 139 182 244 292 356 422
#
# _framework density 24.186761000000001
#
# number of rings (size 3 to 8) (size 9 to 14) (size 15 to 20)
#    0.000    1.200    2.000    3.600    2.800    2.400 
#    0.000    1.000    0.000    0.000    0.000    0.000 
#    0.000    0.000    0.000    0.000    0.000    0.000 
#
# Total GULP energy -111863.919847 kJ/mol
# GULP energy per Si atom -5593.195992 kJ/mol
# Density = 2.413171 g / cm^3
# Si number density = 24.186761 Si / 1000 Ang^3
#
#
#
# Elastic Constant Matrix: (Units=GPa)
#
#
# Indices 1 2 3 4 5 6 
#
# 1 181.4435 48.7328 43.6039 0.0000 2.0202 0.0000
# 2 48.7328 36.2614 15.5488 0.0000 -8.1102 0.0000
# 3 43.6039 15.5488 106.5846 -0.0002 1.0195 -0.0001
# 4 0.0000 0.0000 -0.0002 11.2803 -0.0001 19.0986
# 5 2.0202 -8.1102 1.0195 -0.0001 36.8477 -0.0001
# 6 0.0000 0.0000 -0.0001 19.0986 -0.0001 16.0678
#
#
#
# Elastic Compliance Matrix: (Units=1/GPa)
#
#
# Indices 1 2 3 4 5 6 
#
# 1 0.009370 -0.012457 -0.001985 0.000000 -0.003201 0.000000
# 2 -0.012457 0.047674 -0.001966 0.000000 0.011230 0.000000
# 3 -0.001985 -0.001966 0.010487 0.000000 -0.000614 0.000000
# 4 0.000000 0.000000 0.000000 -0.087560 0.000000 0.104076
# 5 -0.003201 0.011230 -0.000614 0.000000 0.029803 0.000000
# 6 0.000000 0.000000 0.000000 0.104076 0.000000 -0.061471
#
#
# Mechanical properties :
#
#
# Convention : Reuss Voigt Hill
#
# Bulk Modulus (GPa) = 28.80688 60.00673 44.40681
# Shear Modulus (GPa) = -684.10934 27.26607 -328.42163
#
# Velocity S-wave (km/s) = -16.83623 3.36119 -11.66535
# Velocity P-wave (km/s) = 19.13135 6.31879 12.76874
#
# Compressibility (1/GPa) = 0.03471392
#
# Stress axis : x y z
#
# Youngs Moduli (GPa) = 106.72541 20.97599 95.35520
#
# Poissons Ratio (x) = 0.26130 0.18931
# Poissons Ratio (y) = 1.32947 0.18747
# Poissons Ratio (z) = 0.21189 0.04124
#
# Static dielectric constant tensor:
#      x y z
#    x 1.996100 0.000000 -0.041790 
#    y 0.000000 1.971660 0.000000 
#    z -0.041790 0.000000 1.873340 
# 
# From -- ./inp_files/29329.got.cif
#   From: 2010.05.17/outbox.cif.g08.bks.cpg/sg15_15_cif.got.tgz:29329.got - 2010.06.03 18:47:42.
