data_PCOD9285212
_publ_section_title
;
Structure prediction by ZEFSAII (Michael W. Deem and Ramdas Pophale) SiO2 
 PCOD9285212
Probable space group: C 2/C
;
_chemical_formula_sum "Si O2"
_cell_formula_units_Z 48
_cell_length_a 8.322985
_cell_length_b 21.835917
_cell_length_c 11.791355
_cell_angle_alpha 90.000000
_cell_angle_beta 91.140067
_cell_angle_gamma 90.000000
_cell_volume 2142.536757
_symmetry_space_group_name_H-M "C 2/C"
_symmetry_group_IT_number 15
_symmetry_cell_setting 'monoclinic'
loop_
_space_group_symop_operation_xyz
x,y,z
-x,y,1/2-z
-x,-y,-z
x,-y,1/2+z
1/2+x,1/2+y,z
1/2-x,1/2+y,1/2-z
1/2-x,1/2-y,-z
1/2+x,1/2-y,1/2+z
loop_
_atom_site_type_symbol
_atom_site_label
_atom_site_fract_x
_atom_site_fract_y
_atom_site_fract_z
Si Si1 0.260337 0.581483 0.592435
Si Si2 0.197398 0.535256 0.370482
Si Si3 0.500000 0.256633 0.750000
Si Si4 0.818538 0.750968 0.372691
Si Si5 0.892806 0.200630 0.492804
Si Si6 0.000000 0.357873 0.750000
Si Si7 0.500000 0.071257 0.750000
Si Si8 0.500000 0.493869 0.250000
O O1 0.195820 0.530577 0.505399
O O2 0.326529 0.633923 0.513902
O O3 0.396480 0.550203 0.668336
O O4 0.113674 0.606324 0.665330
O O5 0.114621 0.474802 0.319688
O O6 0.376326 0.533875 0.321431
O O7 0.102085 0.595543 0.328846
O O8 0.327977 0.226423 0.709665
O O9 0.538039 0.292889 0.633662
O O10 0.750000 0.750000 0.500000
O O11 0.883257 0.686727 0.321375
O O12 0.981305 0.788326 0.401891
O O13 0.750000 0.250000 0.500000
#
# Coordination Sequence:
#
# PCOD9285212 Si02
#       8
#     8   8   4   8   8   4   4   4
#     4  11  22  41  64  91 130 173 209 261 326 387
#     4  10  21  41  68  95 125 164 216 269 321 393
#     4  10  22  42  64  87 124 169 216 266 312 376
#     4  10  22  40  61  94 127 163 215 266 317 379
#     4  11  24  41  65  97 133 173 217 266 323 395
#     4  11  22  41  68  93 124 166 214 269 326 386
#     4   9  22  41  64  96 128 164 212 268 328 382
#     4  10  24  40  62  98 128 163 212 269 328 388
#
# _framework density 22.40335
#
# number of rings (size 3 to 8) (size 9 to 14) (size 15 to 20)
#    0.000    1.667    0.000    4.000    0.000    6.667 
#    0.000   20.000    0.000    1.000    0.000    0.000 
#    0.000    0.000    0.000    0.000    0.000    0.000 
#
# Total GULP energy -133976.912364 kJ/mol
# GULP energy per Si atom -5582.371348 kJ/mol
# Density = 2.235236 g / cm^3
# Si number density = 22.403350 Si / 1000 Ang^3
#
#
#
# Elastic Constant Matrix: (Units=GPa)
#
#
# Indices 1 2 3 4 5 6 
#
# 1 140.7712 18.5541 58.5334 0.0000 14.8239 0.0000
# 2 18.5541 45.8152 27.3010 0.0000 -5.5625 0.0000
# 3 58.5334 27.3010 138.5744 0.0000 10.5271 0.0000
# 4 0.0000 0.0000 0.0000 103.3315 0.0000 76.3578
# 5 14.8239 -5.5625 10.5271 0.0000 53.2611 0.0000
# 6 0.0000 0.0000 0.0000 76.3578 0.0000 83.4728
#
#
#
# Elastic Compliance Matrix: (Units=1/GPa)
#
#
# Indices 1 2 3 4 5 6 
#
# 1 0.008917 -0.001935 -0.003230 0.000000 -0.002046 0.000000
# 2 -0.001935 0.025849 -0.004590 0.000000 0.004145 0.000000
# 3 -0.003230 -0.004590 0.009597 0.000000 -0.001477 0.000000
# 4 0.000000 0.000000 0.000000 0.029867 0.000000 -0.027321
# 5 -0.002046 0.004145 -0.001477 0.000000 0.020070 0.000000
# 6 0.000000 0.000000 0.000000 -0.027321 0.000000 0.036972
#
#
# Mechanical properties :
#
#
# Convention : Reuss Voigt Hill
#
# Bulk Modulus (GPa) = 40.23624 59.32643 49.78133
# Shear Modulus (GPa) = 31.43340 62.73122 47.08231
#
# Velocity S-wave (km/s) = 3.74982 5.29732 4.58927
# Velocity P-wave (km/s) = 6.06194 7.99713 7.09581
#
# Compressibility (1/GPa) = 0.02485322
#
# Stress axis : x y z
#
# Youngs Moduli (GPa) = 112.14271 38.68624 104.19646
#
# Poissons Ratio (x) = 0.07485 0.33656
# Poissons Ratio (y) = 0.21698 0.47829
# Poissons Ratio (z) = 0.36222 0.17758
#
# Static dielectric constant tensor:
#      x y z
#    x 1.916120 0.000000 0.009020 
#    y 0.000000 1.806330 0.000000 
#    z 0.009020 0.000000 1.865820 
# 
# From -- ./inp_files/79339.got.cif
#   From: 2010.05.17/outbox.cif.g08.bks.cpg/sg15_40_cif.got.tgz:79339.got - 2010.06.03 18:47:42.
