data_PCOD9285880
_publ_section_title
;
Structure prediction by ZEFSAII (Michael W. Deem and Ramdas Pophale) SiO2 
 PCOD9285880
Probable space group: C 2/C
;
_chemical_formula_sum "Si O2"
_cell_formula_units_Z 36
_cell_length_a 7.931060
_cell_length_b 22.315310
_cell_length_c 11.006408
_cell_angle_alpha 90.000000
_cell_angle_beta 52.928934
_cell_angle_gamma 90.000000
_cell_volume 1554.253816
_symmetry_space_group_name_H-M "C 2/C"
_symmetry_group_IT_number 15
_symmetry_cell_setting 'monoclinic'
loop_
_space_group_symop_operation_xyz
x,y,z
-x,y,1/2-z
-x,-y,-z
x,-y,1/2+z
1/2+x,1/2+y,z
1/2-x,1/2+y,1/2-z
1/2-x,1/2-y,-z
1/2+x,1/2-y,1/2+z
loop_
_atom_site_type_symbol
_atom_site_label
_atom_site_fract_x
_atom_site_fract_y
_atom_site_fract_z
Si Si1 0.813361 0.822959 0.246793
Si Si2 0.000000 0.232401 0.250000
Si Si3 0.375913 0.485868 0.682597
Si Si4 0.477182 0.079899 0.625149
Si Si5 0.416277 0.624151 0.449008
O O1 0.667423 0.772024 0.251346
O O2 0.665546 0.871538 0.381100
O O3 0.000000 0.799557 0.250000
O O4 0.914473 0.861367 0.092242
O O5 0.892236 0.186905 0.391744
O O6 0.500000 0.506429 0.750000
O O7 0.500000 0.500000 0.500000
O O8 0.150141 0.518747 0.796748
O O9 0.377715 0.413717 0.675124
O O10 0.500000 0.108346 0.750000
O O11 0.722675 0.081193 0.488174
#
# Coordination Sequence:
#
# PCOD9285880 Si02
#       5
#     8   4   8   8   8
#     4  11  23  42  73 102 139 187 242 299 363 430
#     4  12  24  48  68 102 150 192 240 302 358 448
#     4  12  24  44  70 104 143 189 244 299 361 445
#     4  10  21  42  68 102 139 192 230 300 369 425
#     4  11  24  46  69 102 147 194 236 299 376 424
#
# _framework density 23.162240000000001
#
# number of rings (size 3 to 8) (size 9 to 14) (size 15 to 20)
#    0.000    0.889    8.889    1.333    0.000    1.778 
#    0.000    1.111    0.000    0.000    0.000    0.000 
#    0.000    0.000    0.000    0.000    0.000    0.000 
#
# Total GULP energy -100309.328715 kJ/mol
# GULP energy per Si atom -5572.740484 kJ/mol
# Density = 2.310952 g / cm^3
# Si number density = 23.162240 Si / 1000 Ang^3
#
#
#
# Elastic Constant Matrix: (Units=GPa)
#
#
# Indices 1 2 3 4 5 6 
#
# 1 165.0560 72.6889 25.6098 0.0000 5.0456 0.0000
# 2 72.6889 144.4299 15.4477 0.0000 -18.5480 0.0000
# 3 25.6098 15.4477 86.1039 0.0000 7.5670 0.0000
# 4 0.0000 0.0000 0.0000 35.2157 0.0000 -8.2997
# 5 5.0456 -18.5480 7.5670 0.0000 22.7777 0.0000
# 6 0.0000 0.0000 0.0000 -8.2997 0.0000 30.0249
#
#
#
# Elastic Compliance Matrix: (Units=1/GPa)
#
#
# Indices 1 2 3 4 5 6 
#
# 1 0.008562 -0.004886 -0.001188 0.000000 -0.005480 0.000000
# 2 -0.004886 0.010870 -0.001411 0.000000 0.010402 0.000000
# 3 -0.001188 -0.001411 0.012668 0.000000 -0.005094 0.000000
# 4 0.000000 0.000000 0.000000 0.030375 0.000000 0.008397
# 5 -0.005480 0.010402 -0.005094 0.000000 0.055280 0.000000
# 6 0.000000 0.000000 0.000000 0.008397 0.000000 0.035627
#
#
# Mechanical properties :
#
#
# Convention : Reuss Voigt Hill
#
# Bulk Modulus (GPa) = 58.37988 69.23139 63.80564
# Shear Modulus (GPa) = 28.72539 36.39321 32.55930
#
# Velocity S-wave (km/s) = 3.52544 3.96818 3.75334
# Velocity P-wave (km/s) = 6.46770 7.13792 6.81106
#
# Compressibility (1/GPa) = 0.01712919
#
# Stress axis : x y z
#
# Youngs Moduli (GPa) = 116.79287 92.00019 78.93780
#
# Poissons Ratio (x) = 0.44950 0.09381
# Poissons Ratio (y) = 0.57064 0.11138
# Poissons Ratio (z) = 0.13880 0.12982
#
# Static dielectric constant tensor:
#      x y z
#    x 1.943400 0.000000 -0.050390 
#    y 0.000000 1.921270 0.000000 
#    z -0.050390 0.000000 2.056990 
# 
# From -- ./inp_files/77576.got.cif
#   From: 2010.05.17/outbox.cif.g08.bks.cpg/sg15_39_cif.got.tgz:77576.got - 2010.06.03 18:47:42.
