data_PCOD9285757
_publ_section_title
;
Structure prediction by ZEFSAII (Michael W. Deem and Ramdas Pophale) SiO2 
 PCOD9285757
Probable space group: C 2/C
;
_chemical_formula_sum "Si O2"
_cell_formula_units_Z 32
_cell_length_a 19.657851
_cell_length_b 4.918592
_cell_length_c 13.280288
_cell_angle_alpha 90.000000
_cell_angle_beta 103.142953
_cell_angle_gamma 90.000000
_cell_volume 1250.422210
_symmetry_space_group_name_H-M "C 2/C"
_symmetry_group_IT_number 15
_symmetry_cell_setting 'monoclinic'
loop_
_space_group_symop_operation_xyz
x,y,z
-x,y,1/2-z
-x,-y,-z
x,-y,1/2+z
1/2+x,1/2+y,z
1/2-x,1/2+y,1/2-z
1/2-x,1/2-y,-z
1/2+x,1/2-y,1/2+z
loop_
_atom_site_type_symbol
_atom_site_label
_atom_site_fract_x
_atom_site_fract_y
_atom_site_fract_z
Si Si1 0.710364 0.830326 0.272892
Si Si2 0.091121 0.973929 0.613442
Si Si3 0.040772 0.710195 0.400078
Si Si4 0.871956 0.199572 0.076296
O O1 0.728788 0.133219 0.246925
O O2 0.641157 0.708177 0.197087
O O3 0.694606 0.800161 0.385696
O O4 0.133691 0.154921 0.545596
O O5 0.035097 0.169284 0.648527
O O6 0.049620 0.768495 0.523621
O O7 0.065096 0.410941 0.382786
O O8 0.101168 0.907588 0.377670
#
# Coordination Sequence:
#
# PCOD9285757 Si02
#       4
#     8   8   8   8
#     4  12  28  42  60  96 136 181 223 253 310 397
#     4   9  23  41  70  92 132 158 218 273 324 388
#     4   9  20  41  69  97 120 160 212 277 342 366
#     4  10  21  42  66  95 125 168 212 270 331 367
#
# _framework density 25.591356000000001
#
# number of rings (size 3 to 8) (size 9 to 14) (size 15 to 20)
#    1.500    0.500    0.000    2.250    3.500    3.000 
#    0.000    2.500    0.000    0.000    0.000    0.000 
#    0.000    0.000    0.000    0.000    0.000    0.000 
#
# Total GULP energy -89447.912733 kJ/mol
# GULP energy per Si atom -5590.494546 kJ/mol
# Density = 2.553311 g / cm^3
# Si number density = 25.591356 Si / 1000 Ang^3
#
#
#
# Elastic Constant Matrix: (Units=GPa)
#
#
# Indices 1 2 3 4 5 6 
#
# 1 73.9247 -13.0300 13.5828 0.0000 -16.6298 0.0000
# 2 -13.0300 73.7450 -0.9968 0.0000 -2.2775 0.0000
# 3 13.5828 -0.9968 55.1087 0.0000 -3.8378 0.0000
# 4 0.0000 0.0000 0.0000 20.7748 0.0000 -1.9654
# 5 -16.6298 -2.2775 -3.8378 0.0000 61.5926 0.0000
# 6 0.0000 0.0000 0.0000 -1.9654 0.0000 52.2219
#
#
#
# Elastic Compliance Matrix: (Units=1/GPa)
#
#
# Indices 1 2 3 4 5 6 
#
# 1 0.015593 0.002834 -0.003507 0.000000 0.004096 0.000000
# 2 0.002834 0.014095 -0.000356 0.000000 0.001264 0.000000
# 3 -0.003507 -0.000356 0.019019 0.000000 0.000225 0.000000
# 4 0.000000 0.000000 0.000000 0.048307 0.000000 0.001818
# 5 0.004096 0.001264 0.000225 0.000000 0.017402 0.000000
# 6 0.000000 0.000000 0.000000 0.001818 0.000000 0.019217
#
#
# Mechanical properties :
#
#
# Convention : Reuss Voigt Hill
#
# Bulk Modulus (GPa) = 21.43561 22.43226 21.93393
# Shear Modulus (GPa) = 33.05980 40.46601 36.76291
#
# Velocity S-wave (km/s) = 3.59811 3.98079 3.79428
# Velocity P-wave (km/s) = 5.06519 5.46933 5.27113
#
# Compressibility (1/GPa) = 0.04665134
#
# Stress axis : x y z
#
# Youngs Moduli (GPa) = 64.13295 70.94588 52.57765
#
# Poissons Ratio (x) = -0.20107 0.18437
# Poissons Ratio (y) = -0.18176 0.01869
# Poissons Ratio (z) = 0.22489 0.02522
#
# Static dielectric constant tensor:
#      x y z
#    x 2.031900 0.000000 0.005430 
#    y 0.000000 1.926510 0.000000 
#    z 0.005430 0.000000 2.087230 
# 
# From -- ./inp_files/158222.got.cif
#   From: 2010.05.17/outbox.cif.g08.bks.cpg/sg15_80_cif.got.tgz:158222.got - 2010.06.03 18:47:42.
