data_PCOD9285643
_publ_section_title
;
Structure prediction by ZEFSAII (Michael W. Deem and Ramdas Pophale) SiO2 
 PCOD9285643
Probable space group: C 2/C
;
_chemical_formula_sum "Si O2"
_cell_formula_units_Z 56
_cell_length_a 13.353237
_cell_length_b 18.771739
_cell_length_c 18.133368
_cell_angle_alpha 90.000000
_cell_angle_beta 145.721228
_cell_angle_gamma 90.000000
_cell_volume 2560.044787
_symmetry_space_group_name_H-M "C 2/C"
_symmetry_group_IT_number 15
_symmetry_cell_setting 'monoclinic'
loop_
_space_group_symop_operation_xyz
x,y,z
-x,y,1/2-z
-x,-y,-z
x,-y,1/2+z
1/2+x,1/2+y,z
1/2-x,1/2+y,1/2-z
1/2-x,1/2-y,-z
1/2+x,1/2-y,1/2+z
loop_
_atom_site_type_symbol
_atom_site_label
_atom_site_fract_x
_atom_site_fract_y
_atom_site_fract_z
Si Si1 0.834298 0.075737 0.698846
Si Si2 0.500000 0.325727 0.750000
Si Si3 0.787193 0.076221 0.209713
Si Si4 0.978290 0.323785 0.530114
Si Si5 0.482045 0.789975 0.360056
Si Si6 0.577562 0.680957 0.617320
Si Si7 0.000000 0.410973 0.250000
Si Si8 0.092463 0.937477 0.010110
O O1 0.697936 0.128902 0.577067
O O2 0.911554 0.120793 0.814034
O O3 0.000000 0.053671 0.750000
O O4 0.731029 0.004707 0.660806
O O5 0.661016 0.378123 0.829942
O O6 0.451180 0.275289 0.650317
O O7 0.975028 0.068147 0.365729
O O8 0.635429 0.124464 0.154617
O O9 0.019718 0.300866 0.469449
O O10 0.951183 0.247926 0.552838
O O11 0.269022 0.781273 0.229606
O O12 0.515376 0.860672 0.331713
O O13 0.557686 0.637235 0.530247
O O14 0.193765 0.448814 0.364188
O O15 0.000000 0.000000 0.000000
#
# Coordination Sequence:
#
# PCOD9285643 Si02
#       8
#     8   4   8   8   8   8   4   8
#     4  11  25  45  63  93 132 170 222 274 324 384
#     4  11  20  36  64 102 133 164 210 266 335 408
#     4  12  24  40  65 101 130 170 210 271 337 398
#     4  11  24  42  71  93 133 173 218 273 333 394
#     4   9  20  38  61 103 130 161 210 268 338 397
#     4  10  21  42  65  90 126 175 215 272 319 384
#     4   9  22  38  66  92 137 180 204 270 333 394
#     4  11  23  43  64  94 136 174 223 263 331 394
#
# _framework density 21.874617000000001
#
# number of rings (size 3 to 8) (size 9 to 14) (size 15 to 20)
#    0.000    1.429    3.571    1.286    4.000    1.143 
#    2.571    0.000    1.571    0.000    0.000    0.000 
#    0.000    0.000    0.000    0.000    0.000    0.000 
#
# Total GULP energy -156207.839574 kJ/mol
# GULP energy per Si atom -5578.851413 kJ/mol
# Density = 2.182483 g / cm^3
# Si number density = 21.874617 Si / 1000 Ang^3
#
#
#
# Elastic Constant Matrix: (Units=GPa)
#
#
# Indices 1 2 3 4 5 6 
#
# 1 34.9092 10.2827 13.9573 0.0003 1.1201 -0.0001
# 2 10.2827 128.3394 37.9547 0.0003 12.5385 -0.0002
# 3 13.9573 37.9547 78.6769 -0.0010 6.9470 0.0003
# 4 0.0003 0.0003 -0.0010 7.1344 -0.0001 9.2043
# 5 1.1201 12.5385 6.9470 -0.0001 13.1410 0.0000
# 6 -0.0001 -0.0002 0.0003 9.2043 0.0000 35.6968
#
#
#
# Elastic Compliance Matrix: (Units=1/GPa)
#
#
# Indices 1 2 3 4 5 6 
#
# 1 0.030955 -0.001088 -0.005061 -0.000003 0.001076 0.000001
# 2 -0.001088 0.009720 -0.003866 -0.000002 -0.007138 0.000001
# 3 -0.005061 -0.003866 0.015849 0.000004 -0.004259 -0.000001
# 4 -0.000003 -0.000002 0.000004 0.210035 0.000001 -0.054157
# 5 0.001076 -0.007138 -0.004259 0.000001 0.085068 0.000000
# 6 0.000001 0.000001 -0.000001 -0.054157 0.000000 0.041978
#
#
# Mechanical properties :
#
#
# Convention : Reuss Voigt Hill
#
# Bulk Modulus (GPa) = 27.40239 40.70166 34.05203
# Shear Modulus (GPa) = 11.74260 23.17649 17.45955
#
# Velocity S-wave (km/s) = 2.31944 3.25855 2.82825
# Velocity P-wave (km/s) = 4.44154 5.72754 5.12504
#
# Compressibility (1/GPa) = 0.03649317
#
# Stress axis : x y z
#
# Youngs Moduli (GPa) = 32.30450 102.88541 63.09578
#
# Poissons Ratio (x) = 0.11198 0.31936
# Poissons Ratio (y) = 0.03516 0.24390
# Poissons Ratio (z) = 0.16351 0.39770
#
# Static dielectric constant tensor:
#      x y z
#    x 1.836800 0.000000 -0.023940 
#    y 0.000000 1.836380 0.000000 
#    z -0.023940 0.000000 1.855330 
# 
# From -- ./inp_files/245214.got.cif
#   From: 2010.05.17/outbox.cif.g08.bks.cpg/sg15_123_cif.got.tgz:245214.got - 2010.06.03 18:47:42.
