data_PCOD9285517
_publ_section_title
;
Structure prediction by ZEFSAII (Michael W. Deem and Ramdas Pophale) SiO2 
 PCOD9285517
Probable space group: C 2/C
;
_chemical_formula_sum "Si O2"
_cell_formula_units_Z 44
_cell_length_a 7.368485
_cell_length_b 16.095998
_cell_length_c 16.573371
_cell_angle_alpha 90.000000
_cell_angle_beta 94.939192
_cell_angle_gamma 90.000000
_cell_volume 1958.354318
_symmetry_space_group_name_H-M "C 2/C"
_symmetry_group_IT_number 15
_symmetry_cell_setting 'monoclinic'
loop_
_space_group_symop_operation_xyz
x,y,z
-x,y,1/2-z
-x,-y,-z
x,-y,1/2+z
1/2+x,1/2+y,z
1/2-x,1/2+y,1/2-z
1/2-x,1/2-y,-z
1/2+x,1/2-y,1/2+z
loop_
_atom_site_type_symbol
_atom_site_label
_atom_site_fract_x
_atom_site_fract_y
_atom_site_fract_z
Si Si1 0.099890 0.227977 0.896316
Si Si2 0.001491 0.371073 0.493222
Si Si3 0.879730 0.955433 0.063224
Si Si4 0.993555 0.277803 0.156896
Si Si5 0.000000 0.338782 0.750000
Si Si6 0.220398 0.896299 0.848937
O O1 0.078290 0.285496 0.973087
O O2 0.042861 0.134891 0.912072
O O3 0.298852 0.228728 0.864406
O O4 0.988977 0.276813 0.824552
O O5 0.827472 0.431474 0.474474
O O6 0.086711 0.344183 0.410461
O O7 0.143471 0.397183 0.567628
O O8 0.880146 0.017035 0.139502
O O9 0.000000 0.000000 0.000000
O O10 0.000000 0.305289 0.250000
O O11 0.901669 0.186716 0.149423
O O12 0.827279 0.394810 0.767462
#
# Coordination Sequence:
#
# PCOD9285517 Si02
#       6
#     8   8   8   8   4   8
#     4  10  21  42  63  89 127 166 216 256 313 396
#     4  10  22  40  67  90 125 171 209 261 315 394
#     4  11  22  40  63  97 123 163 217 268 325 377
#     4  11  20  37  64  93 122 165 217 257 317 388
#     4  10  22  42  58  90 124 170 208 260 316 388
#     4  11  22  40  63  92 128 163 212 269 328 376
#
# _framework density 22.467842999999998
#
# number of rings (size 3 to 8) (size 9 to 14) (size 15 to 20)
#    0.000    1.455    1.818    5.455    0.000    1.455 
#    8.182    0.000    0.000    0.000    0.000    0.000 
#    0.000    0.000    0.000    0.000    0.000    0.000 
#
# Total GULP energy -122712.063658 kJ/mol
# GULP energy per Si atom -5577.821075 kJ/mol
# Density = 2.241670 g / cm^3
# Si number density = 22.467843 Si / 1000 Ang^3
#
#
#
# Elastic Constant Matrix: (Units=GPa)
#
#
# Indices 1 2 3 4 5 6 
#
# 1 56.1463 43.0914 14.5493 0.0000 -21.6413 0.0000
# 2 43.0914 135.9274 55.8003 0.0000 -37.9368 0.0000
# 3 14.5493 55.8003 126.8344 0.0000 -20.0510 0.0000
# 4 0.0000 0.0000 0.0000 27.1530 0.0000 -8.9516
# 5 -21.6413 -37.9368 -20.0510 0.0000 38.5981 0.0000
# 6 0.0000 0.0000 0.0000 -8.9516 0.0000 27.8793
#
#
#
# Elastic Compliance Matrix: (Units=1/GPa)
#
#
# Indices 1 2 3 4 5 6 
#
# 1 0.025659 -0.006102 0.001163 0.000000 0.008993 0.000000
# 2 -0.006102 0.012886 -0.003822 0.000000 0.007259 0.000000
# 3 0.001163 -0.003822 0.009742 0.000000 0.001956 0.000000
# 4 0.000000 0.000000 0.000000 0.041188 0.000000 0.013225
# 5 0.008993 0.007259 0.001956 0.000000 0.039101 0.000000
# 6 0.000000 0.000000 0.000000 0.013225 0.000000 0.040115
#
#
# Mechanical properties :
#
#
# Convention : Reuss Voigt Hill
#
# Bulk Modulus (GPa) = 32.50438 60.64334 46.57386
# Shear Modulus (GPa) = 25.44962 32.42389 28.93675
#
# Velocity S-wave (km/s) = 3.36923 3.80297 3.59265
# Velocity P-wave (km/s) = 5.44372 6.80685 6.16309
#
# Compressibility (1/GPa) = 0.03076508
#
# Stress axis : x y z
#
# Youngs Moduli (GPa) = 38.97332 77.60399 102.65353
#
# Poissons Ratio (x) = 0.47351 -0.11936
# Poissons Ratio (y) = 0.23780 0.39231
# Poissons Ratio (z) = -0.04532 0.29658
#
# Static dielectric constant tensor:
#      x y z
#    x 2.024370 0.000000 0.044900 
#    y 0.000000 1.877570 0.000000 
#    z 0.044900 0.000000 1.893600 
# 
# From -- ./inp_files/188902.got.cif
#   From: 2010.05.17/outbox.cif.g08.bks.cpg/sg15_95_cif.got.tgz:188902.got - 2010.06.03 18:47:42.
