data_PCOD9285715
_publ_section_title
;
Structure prediction by ZEFSAII (Michael W. Deem and Ramdas Pophale) SiO2 
 PCOD9285715
Probable space group: C 2/C
;
_chemical_formula_sum "Si O2"
_cell_formula_units_Z 60
_cell_length_a 23.206123
_cell_length_b 23.314428
_cell_length_c 9.821121
_cell_angle_alpha 90.000000
_cell_angle_beta 36.466393
_cell_angle_gamma 90.000000
_cell_volume 3158.141217
_symmetry_space_group_name_H-M "C 2/C"
_symmetry_group_IT_number 15
_symmetry_cell_setting 'monoclinic'
loop_
_space_group_symop_operation_xyz
x,y,z
-x,y,1/2-z
-x,-y,-z
x,-y,1/2+z
1/2+x,1/2+y,z
1/2-x,1/2+y,1/2-z
1/2-x,1/2-y,-z
1/2+x,1/2-y,1/2+z
loop_
_atom_site_type_symbol
_atom_site_label
_atom_site_fract_x
_atom_site_fract_y
_atom_site_fract_z
Si Si1 0.659121 0.770845 0.581926
Si Si2 0.491866 0.320876 0.425132
Si Si3 0.386308 0.124026 0.954573
Si Si4 0.221561 0.214246 0.184112
Si Si5 0.571322 0.991714 0.240236
Si Si6 0.816428 0.599423 0.389584
Si Si7 0.000000 0.000175 0.750000
Si Si8 0.091648 0.070051 0.829726
O O1 0.750000 0.750000 0.500000
O O2 0.560895 0.735656 0.807355
O O3 0.688906 0.753302 0.373218
O O4 0.651087 0.839038 0.613425
O O5 0.500000 0.336954 0.250000
O O6 0.378276 0.316347 0.666436
O O7 0.531274 0.371456 0.442496
O O8 0.500000 0.142399 0.750000
O O9 0.380646 0.071052 0.859403
O O10 0.309982 0.173221 0.060703
O O11 0.354838 0.099957 0.161616
O O12 0.250000 0.250000 0.000000
O O13 0.500000 0.993949 0.250000
O O14 0.500000 0.000000 0.500000
O O15 0.642684 0.045137 0.107364
O O16 0.701723 0.590713 0.608093
O O17 0.938439 0.035987 0.752874
O O18 0.067710 0.963975 0.515409
#
# Coordination Sequence:
#
# PCOD9285715 Si02
#       8
#     8   8   8   8   8   8   4   8
#     4  11  22  43  67  95 126 179 223 262 334 404
#     4  10  21  42  66  88 135 167 210 268 328 387
#     4  11  24  44  68  96 140 178 220 277 347 399
#     4  11  26  41  67 102 130 172 222 279 331 386
#     4  11  24  43  65 100 135 176 225 285 341 404
#     4  12  24  42  74  97 132 182 228 274 341 413
#     4  10  26  40  62  96 134 170 224 276 324 390
#     4  11  23  42  65  94 131 175 220 270 331 393
#
# _framework density 18.998518000000001
#
# number of rings (size 3 to 8) (size 9 to 14) (size 15 to 20)
#    0.000    1.067    6.000    0.800    3.733    4.800 
#    0.000    0.000    0.000    0.000    0.000    0.000 
#    0.000    0.000    0.000    0.000    0.000    0.000 
#
# Total GULP energy -167322.336260 kJ/mol
# GULP energy per Si atom -5577.411209 kJ/mol
# Density = 1.895528 g / cm^3
# Si number density = 18.998518 Si / 1000 Ang^3
#
#
#
# Elastic Constant Matrix: (Units=GPa)
#
#
# Indices 1 2 3 4 5 6 
#
# 1 61.4197 28.4552 36.3616 0.0000 -7.7282 0.0000
# 2 28.4552 113.1114 44.6465 0.0000 -6.8036 0.0000
# 3 36.3616 44.6465 115.3929 0.0000 -9.7346 0.0000
# 4 0.0000 0.0000 0.0000 21.2168 0.0000 -10.3401
# 5 -7.7282 -6.8036 -9.7346 0.0000 38.9894 0.0000
# 6 0.0000 0.0000 0.0000 -10.3401 0.0000 34.4096
#
#
#
# Elastic Compliance Matrix: (Units=1/GPa)
#
#
# Indices 1 2 3 4 5 6 
#
# 1 0.021125 -0.003097 -0.005261 0.000000 0.002333 0.000000
# 2 -0.003097 0.010915 -0.003206 0.000000 0.000490 0.000000
# 3 -0.005261 -0.003206 0.011675 0.000000 0.001313 0.000000
# 4 0.000000 0.000000 0.000000 0.055219 0.000000 0.016593
# 5 0.002333 0.000490 0.001313 0.000000 0.026524 0.000000
# 6 0.000000 0.000000 0.000000 0.016593 0.000000 0.034048
#
#
# Mechanical properties :
#
#
# Convention : Reuss Voigt Hill
#
# Bulk Modulus (GPa) = 48.57708 56.53895 52.55802
# Shear Modulus (GPa) = 26.38574 30.95389 28.66982
#
# Velocity S-wave (km/s) = 3.73075 4.04081 3.88887
# Velocity P-wave (km/s) = 6.64698 7.18298 6.92017
#
# Compressibility (1/GPa) = 0.02058584
#
# Stress axis : x y z
#
# Youngs Moduli (GPa) = 47.33774 91.61845 85.65275
#
# Poissons Ratio (x) = 0.28376 0.45066
# Poissons Ratio (y) = 0.14662 0.27458
# Poissons Ratio (z) = 0.24907 0.29370
#
# Static dielectric constant tensor:
#      x y z
#    x 1.478990 0.000000 0.142170 
#    y 0.000000 1.787710 0.000000 
#    z 0.142170 0.000000 1.530020 
# 
# From -- ./inp_files/58741.got.cif
#   From: 2010.05.17/outbox.cif.g08.bks.cpg/sg15_30_cif.got.tgz:58741.got - 2010.06.03 18:47:42.
