data_PCOD9285407
_publ_section_title
;
Structure prediction by ZEFSAII (Michael W. Deem and Ramdas Pophale) SiO2 
 PCOD9285407
Probable space group: C 2/C
;
_chemical_formula_sum "Si O2"
_cell_formula_units_Z 48
_cell_length_a 17.051170
_cell_length_b 5.852659
_cell_length_c 23.037990
_cell_angle_alpha 90.000000
_cell_angle_beta 105.049788
_cell_angle_gamma 90.000000
_cell_volume 2220.212139
_symmetry_space_group_name_H-M "C 2/C"
_symmetry_group_IT_number 15
_symmetry_cell_setting 'monoclinic'
loop_
_space_group_symop_operation_xyz
x,y,z
-x,y,1/2-z
-x,-y,-z
x,-y,1/2+z
1/2+x,1/2+y,z
1/2-x,1/2+y,1/2-z
1/2-x,1/2-y,-z
1/2+x,1/2-y,1/2+z
loop_
_atom_site_type_symbol
_atom_site_label
_atom_site_fract_x
_atom_site_fract_y
_atom_site_fract_z
Si Si1 0.712732 0.969495 0.263806
Si Si2 0.545157 0.472253 0.385185
Si Si3 0.457210 0.142184 0.824576
Si Si4 0.133153 0.415298 0.861948
Si Si5 0.157544 0.685712 0.979668
Si Si6 0.945910 0.598864 0.438049
O O1 0.753526 0.719216 0.254366
O O2 0.619258 0.940913 0.225521
O O3 0.702226 0.002953 0.331364
O O4 0.481396 0.593873 0.330118
O O5 0.613478 0.351771 0.359012
O O6 0.594930 0.637083 0.437701
O O7 0.492748 0.302313 0.414888
O O8 0.544313 0.023106 0.829726
O O9 0.433730 0.087687 0.886525
O O10 0.150265 0.477096 0.932540
O O11 0.250000 0.750000 0.000000
O O12 0.133467 0.660057 0.042000
O O13 0.000000 0.500000 0.500000
#
# Coordination Sequence:
#
# PCOD9285407 Si02
#       6
#     8   8   8   8   8   8
#     4  12  31  50  72 107 145 184 241 309 369 426
#     4  10  21  41  74  95 134 186 238 284 346 434
#     4  10  24  44  74  98 135 190 237 296 348 439
#     4  10  24  47  68  99 134 189 241 284 358 428
#     4  11  24  37  64 102 143 177 226 291 354 422
#     4  11  20  41  65 103 136 181 238 276 351 429
#
# _framework density 21.619554000000001
#
# number of rings (size 3 to 8) (size 9 to 14) (size 15 to 20)
#    0.000    1.333    5.000    1.000   11.667    0.667 
#    0.000    0.000    0.000    0.000    0.000    0.000 
#    0.000    0.000    0.000    0.000    0.000    0.000 
#
# Total GULP energy -133666.848192 kJ/mol
# GULP energy per Si atom -5569.452008 kJ/mol
# Density = 2.157035 g / cm^3
# Si number density = 21.619554 Si / 1000 Ang^3
#
#
#
# Elastic Constant Matrix: (Units=GPa)
#
#
# Indices 1 2 3 4 5 6 
#
# 1 117.6748 27.9626 19.0921 0.0000 -17.2947 0.0000
# 2 27.9626 80.6079 8.8981 0.0000 -18.0860 0.0000
# 3 19.0921 8.8981 54.8158 0.0000 -13.5194 0.0000
# 4 0.0000 0.0000 0.0000 9.9134 0.0000 -2.6090
# 5 -17.2947 -18.0860 -13.5194 0.0000 32.7272 0.0000
# 6 0.0000 0.0000 0.0000 -2.6090 0.0000 25.4408
#
#
#
# Elastic Compliance Matrix: (Units=1/GPa)
#
#
# Indices 1 2 3 4 5 6 
#
# 1 0.009900 -0.002533 -0.002329 0.000000 0.002869 0.000000
# 2 -0.002533 0.014818 0.000185 0.000000 0.006927 0.000000
# 3 -0.002329 0.000185 0.020872 0.000000 0.007494 0.000000
# 4 0.000000 0.000000 0.000000 0.103671 0.000000 0.010632
# 5 0.002869 0.006927 0.007494 0.000000 0.038996 0.000000
# 6 0.000000 0.000000 0.000000 0.010632 0.000000 0.040397
#
#
# Mechanical properties :
#
#
# Convention : Reuss Voigt Hill
#
# Bulk Modulus (GPa) = 27.59683 40.55602 34.07643
# Shear Modulus (GPa) = 19.99304 26.75933 23.37619
#
# Velocity S-wave (km/s) = 3.04430 3.52197 3.29181
# Velocity P-wave (km/s) = 5.01492 5.94463 5.49946
#
# Compressibility (1/GPa) = 0.03623604
#
# Stress axis : x y z
#
# Youngs Moduli (GPa) = 101.01466 67.48449 47.91043
#
# Poissons Ratio (x) = 0.17095 0.11159
# Poissons Ratio (y) = 0.25589 -0.00888
# Poissons Ratio (z) = 0.23527 -0.01250
#
# Static dielectric constant tensor:
#      x y z
#    x 1.987170 0.000000 -0.096290 
#    y 0.000000 2.234020 0.000000 
#    z -0.096290 0.000000 1.836240 
# 
# From -- ./inp_files/275891.got.cif
#   From: 2010.05.17/outbox.cif.g08.bks.cpg/sg15_138_cif.got.tgz:275891.got - 2010.06.03 18:47:42.
