data_PCOD9285831
_publ_section_title
;
Structure prediction by ZEFSAII (Michael W. Deem and Ramdas Pophale) SiO2 
 PCOD9285831
Probable space group: C 2/C
;
_chemical_formula_sum "Si O2"
_cell_formula_units_Z 40
_cell_length_a 7.593834
_cell_length_b 12.850247
_cell_length_c 18.104813
_cell_angle_alpha 90.000000
_cell_angle_beta 71.280485
_cell_angle_gamma 90.000000
_cell_volume 1673.258051
_symmetry_space_group_name_H-M "C 2/C"
_symmetry_group_IT_number 15
_symmetry_cell_setting 'monoclinic'
loop_
_space_group_symop_operation_xyz
x,y,z
-x,y,1/2-z
-x,-y,-z
x,-y,1/2+z
1/2+x,1/2+y,z
1/2-x,1/2+y,1/2-z
1/2-x,1/2-y,-z
1/2+x,1/2-y,1/2+z
loop_
_atom_site_type_symbol
_atom_site_label
_atom_site_fract_x
_atom_site_fract_y
_atom_site_fract_z
Si Si1 0.030443 0.094990 0.158904
Si Si2 0.464741 0.814755 0.400485
Si Si3 0.122974 0.532901 0.158598
Si Si4 0.113749 0.872660 0.158897
Si Si5 0.455668 0.787048 0.945382
O O1 0.103270 0.204841 0.121437
O O2 0.831841 0.067657 0.149569
O O3 0.000000 0.105149 0.250000
O O4 0.150613 0.991300 0.129213
O O5 0.687677 0.819576 0.354616
O O6 0.444759 0.812216 0.491414
O O7 0.384167 0.917223 0.373538
O O8 0.050888 0.613624 0.106951
O O9 0.000000 0.537682 0.250000
O O10 0.996064 0.809864 0.114043
O O11 0.000000 0.875106 0.250000
O O12 0.250000 0.750000 0.000000
#
# Coordination Sequence:
#
# PCOD9285831 Si02
#       5
#     8   8   8   8   8
#     4  11  24  41  65  96 130 168 220 269 320 373
#     4  11  24  45  66  97 134 168 215 270 325 385
#     4  12  23  43  71  95 129 172 219 265 321 387
#     4  10  21  42  67  95 135 171 215 267 321 380
#     4  10  21  42  69  93 133 175 205 268 331 380
#
# _framework density 23.905457999999999
#
# number of rings (size 3 to 8) (size 9 to 14) (size 15 to 20)
#    0.000    1.200    4.000    4.200    0.000    0.800 
#    3.600    1.000    0.000    0.000    0.000    0.000 
#    0.000    0.000    0.000    0.000    0.000    0.000 
#
# Total GULP energy -112020.181694 kJ/mol
# GULP energy per Si atom -5601.009085 kJ/mol
# Density = 2.385105 g / cm^3
# Si number density = 23.905458 Si / 1000 Ang^3
#
#
#
# Elastic Constant Matrix: (Units=GPa)
#
#
# Indices 1 2 3 4 5 6 
#
# 1 50.4237 22.4454 20.0894 0.0000 -9.4078 0.0000
# 2 22.4454 204.4227 92.4278 0.0000 0.4192 0.0000
# 3 20.0894 92.4278 149.4226 0.0000 18.6091 0.0000
# 4 0.0000 0.0000 0.0000 29.9989 0.0000 21.4946
# 5 -9.4078 0.4192 18.6091 0.0000 28.1124 0.0000
# 6 0.0000 0.0000 0.0000 21.4946 0.0000 29.0095
#
#
#
# Elastic Compliance Matrix: (Units=1/GPa)
#
#
# Indices 1 2 3 4 5 6 
#
# 1 0.023778 -0.000817 -0.004015 0.000000 0.010627 0.000000
# 2 -0.000817 0.007047 -0.004579 0.000000 0.002653 0.000000
# 3 -0.004015 -0.004579 0.011142 0.000000 -0.008651 0.000000
# 4 0.000000 0.000000 0.000000 0.071061 0.000000 -0.052653
# 5 0.010627 0.002653 -0.008651 0.000000 0.044815 0.000000
# 6 0.000000 0.000000 0.000000 -0.052653 0.000000 0.073484
#
#
# Mechanical properties :
#
#
# Convention : Reuss Voigt Hill
#
# Bulk Modulus (GPa) = 43.20770 74.91046 59.05908
# Shear Modulus (GPa) = 19.39004 35.37794 27.38399
#
# Velocity S-wave (km/s) = 2.85110 3.85113 3.38821
# Velocity P-wave (km/s) = 5.38070 7.15396 6.32974
#
# Compressibility (1/GPa) = 0.02314402
#
# Stress axis : x y z
#
# Youngs Moduli (GPa) = 42.05551 141.91254 89.74921
#
# Poissons Ratio (x) = 0.11599 0.36033
# Poissons Ratio (y) = 0.03437 0.41098
# Poissons Ratio (z) = 0.16885 0.64985
#
# Static dielectric constant tensor:
#      x y z
#    x 2.063310 0.000000 0.062250 
#    y 0.000000 1.902920 0.000000 
#    z 0.062250 0.000000 1.883650 
# 
# From -- ./inp_files/187790.got.cif
#   From: 2010.05.17/outbox.cif.g08.bks.cpg/sg15_94_cif.got.tgz:187790.got - 2010.06.03 18:47:42.
