data_PCOD9285615
_publ_section_title
;
Structure prediction by ZEFSAII (Michael W. Deem and Ramdas Pophale) SiO2 
 PCOD9285615
Probable space group: C 2/C
;
_chemical_formula_sum "Si O2"
_cell_formula_units_Z 40
_cell_length_a 12.724578
_cell_length_b 4.916243
_cell_length_c 26.075251
_cell_angle_alpha 90.000000
_cell_angle_beta 91.544841
_cell_angle_gamma 90.000000
_cell_volume 1630.599655
_symmetry_space_group_name_H-M "C 2/C"
_symmetry_group_IT_number 15
_symmetry_cell_setting 'monoclinic'
loop_
_space_group_symop_operation_xyz
x,y,z
-x,y,1/2-z
-x,-y,-z
x,-y,1/2+z
1/2+x,1/2+y,z
1/2-x,1/2+y,1/2-z
1/2-x,1/2-y,-z
1/2+x,1/2-y,1/2+z
loop_
_atom_site_type_symbol
_atom_site_label
_atom_site_fract_x
_atom_site_fract_y
_atom_site_fract_z
Si Si1 0.860758 0.167973 0.860877
Si Si2 0.479612 0.727102 0.192787
Si Si3 0.964181 0.881664 0.053372
Si Si4 0.633414 0.089664 0.899769
Si Si5 0.260276 0.462934 0.215160
O O1 0.823928 0.433640 0.828096
O O2 0.927515 0.967767 0.825310
O O3 0.932873 0.192665 0.912051
O O4 0.105156 0.890144 0.918881
O O5 0.500000 0.839225 0.250000
O O6 0.445949 0.945660 0.149651
O O7 0.374939 0.542669 0.196709
O O8 0.750096 0.448766 0.119903
O O9 0.894208 0.612155 0.054558
O O10 0.000000 0.000000 0.000000
O O11 0.240611 0.658460 0.264101
#
# Coordination Sequence:
#
# PCOD9285615 Si02
#       5
#     8   8   8   8   8
#     4  10  24  44  67  96 141 172 221 281 324 393
#     4  10  21  42  64  97 131 183 217 267 324 394
#     4  11  25  46  72 100 131 174 226 280 342 400
#     4  10  25  44  67 103 133 173 228 273 336 405
#     4  11  24  41  63  94 129 175 222 262 325 390
#
# _framework density 24.530854000000001
#
# number of rings (size 3 to 8) (size 9 to 14) (size 15 to 20)
#    0.000    1.600    2.000    0.600    2.800   14.400 
#    0.000    0.000    0.000    0.000    0.000    0.000 
#    0.000    0.000    0.000    0.000    0.000    0.000 
#
# Total GULP energy -112046.601591 kJ/mol
# GULP energy per Si atom -5602.330080 kJ/mol
# Density = 2.447502 g / cm^3
# Si number density = 24.530854 Si / 1000 Ang^3
#
#
#
# Elastic Constant Matrix: (Units=GPa)
#
#
# Indices 1 2 3 4 5 6 
#
# 1 161.4284 15.8126 25.9143 0.0000 -12.9017 0.0000
# 2 15.8126 50.0904 -23.1750 0.0000 -0.4095 0.0000
# 3 25.9143 -23.1750 79.2139 0.0000 -9.1061 0.0000
# 4 0.0000 0.0000 0.0000 35.1275 0.0000 -10.5037
# 5 -12.9017 -0.4095 -9.1061 0.0000 35.7802 0.0000
# 6 0.0000 0.0000 0.0000 -10.5037 0.0000 30.5808
#
#
#
# Elastic Compliance Matrix: (Units=1/GPa)
#
#
# Indices 1 2 3 4 5 6 
#
# 1 0.007229 -0.003782 -0.003272 0.000000 0.001730 0.000000
# 2 -0.003782 0.025214 0.008746 0.000000 0.001151 0.000000
# 3 -0.003272 0.008746 0.016615 0.000000 0.003149 0.000000
# 4 0.000000 0.000000 0.000000 0.031726 0.000000 0.010897
# 5 0.001730 0.001151 0.003149 0.000000 0.029387 0.000000
# 6 0.000000 0.000000 0.000000 0.010897 0.000000 0.036443
#
#
# Mechanical properties :
#
#
# Convention : Reuss Voigt Hill
#
# Bulk Modulus (GPa) = 19.06884 36.42627 27.74755
# Shear Modulus (GPa) = 31.11179 38.44308 34.77744
#
# Velocity S-wave (km/s) = 3.56514 3.96300 3.76932
# Velocity P-wave (km/s) = 4.97366 5.98514 5.50269
#
# Compressibility (1/GPa) = 0.05244157
#
# Stress axis : x y z
#
# Youngs Moduli (GPa) = 138.33638 39.66104 60.18541
#
# Poissons Ratio (x) = 0.14999 0.19695
# Poissons Ratio (y) = 0.52316 -0.52639
# Poissons Ratio (z) = 0.45268 -0.34688
#
# Static dielectric constant tensor:
#      x y z
#    x 1.969640 0.000000 0.033790 
#    y 0.000000 1.957690 0.000000 
#    z 0.033790 0.000000 1.959260 
# 
# From -- ./inp_files/290560.got.cif
#   From: 2010.05.17/outbox.cif.g08.bks.cpg/sg15_146_cif.got.tgz:290560.got - 2010.06.03 18:47:42.
