data_PCOD9285108
_publ_section_title
;
Structure prediction by ZEFSAII (Michael W. Deem and Ramdas Pophale) SiO2 
 PCOD9285108
Probable space group: C 2/C
;
_chemical_formula_sum "Si O2"
_cell_formula_units_Z 48
_cell_length_a 9.740052
_cell_length_b 20.028791
_cell_length_c 11.183950
_cell_angle_alpha 90.000000
_cell_angle_beta 115.032428
_cell_angle_gamma 90.000000
_cell_volume 1976.843256
_symmetry_space_group_name_H-M "C 2/C"
_symmetry_group_IT_number 15
_symmetry_cell_setting 'monoclinic'
loop_
_space_group_symop_operation_xyz
x,y,z
-x,y,1/2-z
-x,-y,-z
x,-y,1/2+z
1/2+x,1/2+y,z
1/2-x,1/2+y,1/2-z
1/2-x,1/2-y,-z
1/2+x,1/2-y,1/2+z
loop_
_atom_site_type_symbol
_atom_site_label
_atom_site_fract_x
_atom_site_fract_y
_atom_site_fract_z
Si Si1 0.461912 0.408796 0.052910
Si Si2 0.797656 0.017926 0.294520
Si Si3 0.916282 0.817543 0.599059
Si Si4 0.582001 0.209145 0.073508
Si Si5 0.085375 0.571336 0.034952
Si Si6 0.000000 0.434532 0.250000
Si Si7 0.500000 0.696058 0.750000
O O1 0.557983 0.468655 0.147910
O O2 0.408667 0.355446 0.131666
O O3 0.329738 0.433481 0.917594
O O4 0.575947 0.372587 0.002064
O O5 0.749550 0.053097 0.152242
O O6 0.646417 0.977739 0.270261
O O7 0.749412 0.802147 0.583788
O O8 0.992545 0.753471 0.560089
O O9 0.000000 0.837959 0.750000
O O10 0.523102 0.135153 0.084973
O O11 0.587092 0.256174 0.191224
O O12 0.058532 0.600168 0.891491
O O13 0.000000 0.500000 0.000000
#
# Coordination Sequence:
#
# PCOD9285108 Si02
#       7
#     8   8   8   8   8   4   4
#     4  10  22  42  70 105 140 185 233 288 354 414
#     4  10  22  40  67 104 138 183 226 292 347 423
#     4  10  21  41  67  93 128 176 235 281 332 417
#     4  10  22  42  66  96 132 178 229 284 344 413
#     4  10  22  40  62  96 132 173 225 280 342 412
#     4  10  22  39  64  98 133 182 226 286 348 414
#     4  10  24  45  68  98 147 182 232 294 352 422
#
# _framework density 24.281136
#
# number of rings (size 3 to 8) (size 9 to 14) (size 15 to 20)
#    0.000    2.000    0.000    2.000    3.500    2.667 
#    9.000    7.500    0.000    0.000    0.000    0.000 
#    0.000    0.000    0.000    0.000    0.000    0.000 
#
# Total GULP energy -133798.431459 kJ/mol
# GULP energy per Si atom -5574.934644 kJ/mol
# Density = 2.422587 g / cm^3
# Si number density = 24.281136 Si / 1000 Ang^3
#
#
#
# Elastic Constant Matrix: (Units=GPa)
#
#
# Indices 1 2 3 4 5 6 
#
# 1 28.9641 6.4764 36.3163 0.0000 0.4727 0.0000
# 2 6.4764 140.1886 72.8463 0.0000 -3.7844 0.0000
# 3 36.3163 72.8463 200.0536 0.0000 1.9531 0.0000
# 4 0.0000 0.0000 0.0000 37.5277 0.0000 -13.1328
# 5 0.4727 -3.7844 1.9531 0.0000 36.3214 0.0000
# 6 0.0000 0.0000 0.0000 -13.1328 0.0000 26.6166
#
#
#
# Elastic Compliance Matrix: (Units=1/GPa)
#
#
# Indices 1 2 3 4 5 6 
#
# 1 0.045516 0.002709 -0.009251 0.000000 0.000187 0.000000
# 2 0.002709 0.009003 -0.003781 0.000000 0.001106 0.000000
# 3 -0.009251 -0.003781 0.008062 0.000000 -0.000707 0.000000
# 4 0.000000 0.000000 0.000000 0.032208 0.000000 0.015892
# 5 0.000187 0.001106 -0.000707 0.000000 0.027683 0.000000
# 6 0.000000 0.000000 0.000000 0.015892 0.000000 0.045412
#
#
# Mechanical properties :
#
#
# Convention : Reuss Voigt Hill
#
# Bulk Modulus (GPa) = 23.84625 66.72048 45.28337
# Shear Modulus (GPa) = 24.69060 36.99763 30.84411
#
# Velocity S-wave (km/s) = 3.19229 3.90772 3.56798
# Velocity P-wave (km/s) = 4.84044 6.92086 5.97194
#
# Compressibility (1/GPa) = 0.04193531
#
# Stress axis : x y z
#
# Youngs Moduli (GPa) = 21.97033 111.07973 124.04415
#
# Poissons Ratio (x) = -0.30096 1.14754
# Poissons Ratio (y) = -0.05953 0.46898
# Poissons Ratio (z) = 0.20325 0.41997
#
# Static dielectric constant tensor:
#      x y z
#    x 1.947910 0.000000 -0.102260 
#    y 0.000000 2.095170 0.000000 
#    z -0.102260 0.000000 2.143820 
# 
# From -- ./inp_files/89181.got.cif
#   From: 2010.05.17/outbox.cif.g08.bks.cpg/sg15_45_cif.got.tgz:89181.got - 2010.06.03 18:47:42.
