data_PCOD9285037
_publ_section_title
;
Structure prediction by ZEFSAII (Michael W. Deem and Ramdas Pophale) SiO2 
 PCOD9285037
Probable space group: C 2/C
;
_chemical_formula_sum "Si O2"
_cell_formula_units_Z 52
_cell_length_a 11.680167
_cell_length_b 27.339731
_cell_length_c 10.168787
_cell_angle_alpha 90.000000
_cell_angle_beta 131.658006
_cell_angle_gamma 90.000000
_cell_volume 2426.085093
_symmetry_space_group_name_H-M "C 2/C"
_symmetry_group_IT_number 15
_symmetry_cell_setting 'monoclinic'
loop_
_space_group_symop_operation_xyz
x,y,z
-x,y,1/2-z
-x,-y,-z
x,-y,1/2+z
1/2+x,1/2+y,z
1/2-x,1/2+y,1/2-z
1/2-x,1/2-y,-z
1/2+x,1/2-y,1/2+z
loop_
_atom_site_type_symbol
_atom_site_label
_atom_site_fract_x
_atom_site_fract_y
_atom_site_fract_z
Si Si1 0.704843 0.845384 0.887718
Si Si2 0.170548 0.499498 0.194304
Si Si3 0.500000 0.060836 0.750000
Si Si4 0.803324 0.394660 0.874888
Si Si5 0.000000 0.740118 0.250000
Si Si6 0.833260 0.910114 0.189281
Si Si7 0.051025 0.181426 0.576542
Si Si8 0.000000 0.841137 0.750000
O O1 0.636116 0.859178 0.693784
O O2 0.630236 0.797881 0.894079
O O3 0.710668 0.891109 0.989248
O O4 0.880021 0.833868 0.988559
O O5 0.232344 0.553986 0.225943
O O6 0.278999 0.460694 0.206923
O O7 0.136558 0.475395 0.309403
O O8 0.000000 0.500000 0.000000
O O9 0.431395 0.093846 0.581577
O O10 0.647827 0.373237 0.819607
O O11 0.927134 0.772396 0.311217
O O12 0.847340 0.865478 0.304840
O O13 0.000000 0.915328 0.250000
O O14 0.049277 0.188596 0.418568
#
# Coordination Sequence:
#
# PCOD9285037 Si02
#       8
#     8   8   4   8   4   8   8   4
#     4  10  23  38  64  96 125 162 227 270 329 392
#     4  10  23  37  63  90 133 176 219 267 331 399
#     4  10  22  41  53  88 132 176 213 267 340 388
#     4  10  23  40  62  92 130 175 216 273 333 399
#     4  12  22  39  71  92 126 175 226 275 342 400
#     4  10  21  41  66  96 132 170 224 280 333 392
#     4  10  21  43  64  95 127 167 212 285 333 402
#     4  10  22  44  64  92 134 163 219 282 336 400
#
# _framework density 21.433707999999999
#
# number of rings (size 3 to 8) (size 9 to 14) (size 15 to 20)
#    0.000    1.846    2.308    1.385    9.692    0.000 
#    0.000    6.923    0.000    0.000    0.000    0.000 
#    0.000    0.000    0.000    0.000    0.000    0.000 
#
# Total GULP energy -145086.357526 kJ/mol
# GULP energy per Si atom -5580.244520 kJ/mol
# Density = 2.138492 g / cm^3
# Si number density = 21.433708 Si / 1000 Ang^3
#
#
#
# Elastic Constant Matrix: (Units=GPa)
#
#
# Indices 1 2 3 4 5 6 
#
# 1 78.2371 35.8107 24.9093 0.0000 -6.3630 0.0000
# 2 35.8107 103.6742 25.0833 0.0000 -8.9558 0.0000
# 3 24.9093 25.0833 77.4283 0.0000 -17.5754 0.0000
# 4 0.0000 0.0000 0.0000 25.9810 0.0000 5.7075
# 5 -6.3630 -8.9558 -17.5754 0.0000 27.2710 0.0000
# 6 0.0000 0.0000 0.0000 5.7075 0.0000 15.8052
#
#
#
# Elastic Compliance Matrix: (Units=1/GPa)
#
#
# Indices 1 2 3 4 5 6 
#
# 1 0.016086 -0.004676 -0.003698 0.000000 -0.000165 0.000000
# 2 -0.004676 0.011875 -0.001997 0.000000 0.001522 0.000000
# 3 -0.003698 -0.001997 0.016876 0.000000 0.009357 0.000000
# 4 0.000000 0.000000 0.000000 0.041806 0.000000 -0.015097
# 5 -0.000165 0.001522 0.009357 0.000000 0.043161 0.000000
# 6 0.000000 0.000000 0.000000 -0.015097 0.000000 0.068722
#
#
# Mechanical properties :
#
#
# Convention : Reuss Voigt Hill
#
# Bulk Modulus (GPa) = 41.50251 47.88292 44.69272
# Shear Modulus (GPa) = 21.99740 25.38052 23.68896
#
# Velocity S-wave (km/s) = 3.20707 3.44487 3.32809
# Velocity P-wave (km/s) = 5.75490 6.18153 5.97203
#
# Compressibility (1/GPa) = 0.02409493
#
# Stress axis : x y z
#
# Youngs Moduli (GPa) = 62.16676 84.20732 59.25630
#
# Poissons Ratio (x) = 0.39375 0.21911
# Poissons Ratio (y) = 0.29069 0.11836
# Poissons Ratio (z) = 0.22987 0.16820
#
# Static dielectric constant tensor:
#      x y z
#    x 1.803680 0.000000 -0.025080 
#    y 0.000000 1.765690 0.000000 
#    z -0.025080 0.000000 1.854640 
# 
# From -- ./inp_files/91343.got.cif
#   From: 2010.05.17/outbox.cif.g08.bks.cpg/sg15_46_cif.got.tgz:91343.got - 2010.06.03 18:47:42.
