data_PCOD9285477
_publ_section_title
;
Structure prediction by ZEFSAII (Michael W. Deem and Ramdas Pophale) SiO2 
 PCOD9285477
Probable space group: C 2/C
;
_chemical_formula_sum "Si O2"
_cell_formula_units_Z 56
_cell_length_a 11.798116
_cell_length_b 8.189408
_cell_length_c 27.933050
_cell_angle_alpha 90.000000
_cell_angle_beta 99.401574
_cell_angle_gamma 90.000000
_cell_volume 2662.627483
_symmetry_space_group_name_H-M "C 2/C"
_symmetry_group_IT_number 15
_symmetry_cell_setting 'monoclinic'
loop_
_space_group_symop_operation_xyz
x,y,z
-x,y,1/2-z
-x,-y,-z
x,-y,1/2+z
1/2+x,1/2+y,z
1/2-x,1/2+y,1/2-z
1/2-x,1/2-y,-z
1/2+x,1/2-y,1/2+z
loop_
_atom_site_type_symbol
_atom_site_label
_atom_site_fract_x
_atom_site_fract_y
_atom_site_fract_z
Si Si1 0.384909 0.229217 0.267468
Si Si2 0.727456 0.475813 0.312166
Si Si3 0.035511 0.843046 0.439437
Si Si4 0.681724 0.511749 0.033149
Si Si5 0.057366 0.524039 0.952236
Si Si6 0.506808 0.518049 0.162449
Si Si7 0.369925 0.766493 0.388083
O O1 0.500000 0.161810 0.250000
O O2 0.308443 0.321112 0.222621
O O3 0.313809 0.093792 0.290578
O O4 0.428432 0.372610 0.305825
O O5 0.606973 0.563516 0.316106
O O6 0.785422 0.407263 0.364430
O O7 0.136187 0.897350 0.482506
O O8 0.045632 0.653916 0.427435
O O9 0.915997 0.881415 0.458939
O O10 0.032963 0.949676 0.391722
O O11 0.807751 0.438854 0.035171
O O12 0.683132 0.644147 0.076399
O O13 0.983899 0.656974 0.919261
O O14 0.000000 0.500000 0.000000
O O15 0.590950 0.665063 0.155715
#
# Coordination Sequence:
#
# PCOD9285477 Si02
#       7
#     8   8   8   8   8   8   8
#     4  10  23  43  64  95 119 156 198 253 316 376
#     4  11  23  41  69  90 125 158 198 257 313 373
#     4  10  21  42  62  86 124 172 207 260 308 353
#     4  10  23  42  59  86 130 167 213 258 300 360
#     4  12  24  36  59  89 122 164 213 255 302 357
#     4  10  23  41  63  90 125 158 210 252 310 367
#     4  11  24  40  60  95 121 168 209 250 307 365
#
# _framework density 21.031856000000001
#
# number of rings (size 3 to 8) (size 9 to 14) (size 15 to 20)
#    0.000    1.429    1.429    3.000    2.000    6.286 
#    0.000    0.000    0.000    0.000    0.000    0.000 
#    0.000    0.000    0.000    0.000    0.000    0.000 
#
# Total GULP energy -156624.793880 kJ/mol
# GULP energy per Si atom -5593.742639 kJ/mol
# Density = 2.098399 g / cm^3
# Si number density = 21.031856 Si / 1000 Ang^3
#
#
#
# Elastic Constant Matrix: (Units=GPa)
#
#
# Indices 1 2 3 4 5 6 
#
# 1 142.8750 25.1859 36.1595 0.0000 14.2884 0.0000
# 2 25.1859 26.6594 -6.6469 0.0000 2.8145 0.0000
# 3 36.1595 -6.6469 68.8539 0.0000 10.8193 0.0000
# 4 0.0000 0.0000 0.0000 26.3853 0.0000 -0.6972
# 5 14.2884 2.8145 10.8193 0.0000 21.6072 0.0000
# 6 0.0000 0.0000 0.0000 -0.6972 0.0000 27.2393
#
#
#
# Elastic Compliance Matrix: (Units=1/GPa)
#
#
# Indices 1 2 3 4 5 6 
#
# 1 0.010953 -0.011707 -0.006495 0.000000 -0.002466 0.000000
# 2 -0.011707 0.052085 0.011967 0.000000 -0.005035 0.000000
# 3 -0.006495 0.011967 0.020253 0.000000 -0.007405 0.000000
# 4 0.000000 0.000000 0.000000 0.037925 0.000000 0.000971
# 5 -0.002466 -0.005035 -0.007405 0.000000 0.052275 0.000000
# 6 0.000000 0.000000 0.000000 0.000971 0.000000 0.036737
#
#
# Mechanical properties :
#
#
# Convention : Reuss Voigt Hill
#
# Bulk Modulus (GPa) = 14.11963 38.64281 26.38122
# Shear Modulus (GPa) = 20.29999 27.29235 23.79617
#
# Velocity S-wave (km/s) = 3.11014 3.60622 3.36733
# Velocity P-wave (km/s) = 4.43005 5.97939 5.26206
#
# Compressibility (1/GPa) = 0.07082338
#
# Stress axis : x y z
#
# Youngs Moduli (GPa) = 91.29802 19.19923 49.37480
#
# Poissons Ratio (x) = 0.22476 0.32068
# Poissons Ratio (y) = 1.06880 -0.59089
# Poissons Ratio (z) = 0.59296 -0.22976
#
# Static dielectric constant tensor:
#      x y z
#    x 1.767020 0.000000 -0.006050 
#    y 0.000000 1.754190 0.000000 
#    z -0.006050 0.000000 1.746590 
# 
# From -- ./inp_files/291615.got.cif
#   From: 2010.05.17/outbox.cif.g08.bks.cpg/sg15_146_cif.got.tgz:291615.got - 2010.06.03 18:47:42.
