data_PCOD9285764
_publ_section_title
;
Structure prediction by ZEFSAII (Michael W. Deem and Ramdas Pophale) SiO2 
 PCOD9285764
Probable space group: C 2/C
;
_chemical_formula_sum "Si O2"
_cell_formula_units_Z 32
_cell_length_a 18.198842
_cell_length_b 4.788479
_cell_length_c 13.605592
_cell_angle_alpha 90.000000
_cell_angle_beta 95.425366
_cell_angle_gamma 90.000000
_cell_volume 1180.344724
_symmetry_space_group_name_H-M "C 2/C"
_symmetry_group_IT_number 15
_symmetry_cell_setting 'monoclinic'
loop_
_space_group_symop_operation_xyz
x,y,z
-x,y,1/2-z
-x,-y,-z
x,-y,1/2+z
1/2+x,1/2+y,z
1/2-x,1/2+y,1/2-z
1/2-x,1/2-y,-z
1/2+x,1/2-y,1/2+z
loop_
_atom_site_type_symbol
_atom_site_label
_atom_site_fract_x
_atom_site_fract_y
_atom_site_fract_z
Si Si1 0.034098 0.267715 0.899433
Si Si2 0.376064 0.600381 0.967508
Si Si3 0.598902 0.740482 0.324605
Si Si4 0.206276 0.612308 0.215129
O O1 0.031793 0.572861 0.855775
O O2 0.955176 0.198276 0.933750
O O3 0.065238 0.066783 0.816323
O O4 0.097040 0.208560 0.991880
O O5 0.318458 0.702698 0.880325
O O6 0.352737 0.729732 0.069269
O O7 0.641623 0.911923 0.248577
O O8 0.232221 0.866673 0.290798
#
# Coordination Sequence:
#
# PCOD9285764 Si02
#       4
#     8   8   8   8
#     4   9  20  41  70  97 120 162 219 280 344 371
#     4   9  23  41  71  92 134 162 221 277 326 396
#     4  10  21  42  66  96 125 168 222 268 337 373
#     4  12  28  42  60  97 139 183 225 259 315 398
#
# _framework density 27.110726
#
# number of rings (size 3 to 8) (size 9 to 14) (size 15 to 20)
#    1.500    0.500    0.000    2.250    3.500    3.000 
#    0.000    2.500    0.000    0.000    0.000    0.000 
#    0.000    0.000    0.000    0.000    0.000    0.000 
#
# Total GULP energy -89118.340611 kJ/mol
# GULP energy per Si atom -5569.896288 kJ/mol
# Density = 2.704902 g / cm^3
# Si number density = 27.110726 Si / 1000 Ang^3
#
#
#
# Elastic Constant Matrix: (Units=GPa)
#
#
# Indices 1 2 3 4 5 6 
#
# 1 94.6295 16.3966 25.5151 0.0000 -0.4178 0.0000
# 2 16.3966 115.6815 4.8891 0.0000 4.6531 0.0000
# 3 25.5151 4.8891 121.3290 0.0000 19.7775 0.0000
# 4 0.0000 0.0000 0.0000 17.0552 0.0000 -15.9056
# 5 -0.4178 4.6531 19.7775 0.0000 27.6947 0.0000
# 6 0.0000 0.0000 0.0000 -15.9056 0.0000 38.2948
#
#
#
# Elastic Compliance Matrix: (Units=1/GPa)
#
#
# Indices 1 2 3 4 5 6 
#
# 1 0.011607 -0.001626 -0.002771 0.000000 0.002427 0.000000
# 2 -0.001626 0.008933 0.000261 0.000000 -0.001712 0.000000
# 3 -0.002771 0.000261 0.009991 0.000000 -0.007221 0.000000
# 4 0.000000 0.000000 0.000000 0.095704 0.000000 0.039750
# 5 0.002427 -0.001712 -0.007221 0.000000 0.041589 0.000000
# 6 0.000000 0.000000 0.000000 0.039750 0.000000 0.042623
#
#
# Mechanical properties :
#
#
# Convention : Reuss Voigt Hill
#
# Bulk Modulus (GPa) = 44.92477 47.24907 46.08692
# Shear Modulus (GPa) = 22.11040 35.59823 28.85432
#
# Velocity S-wave (km/s) = 2.85890 3.62756 3.26592
# Velocity P-wave (km/s) = 5.24448 5.91706 5.59089
#
# Compressibility (1/GPa) = 0.02225944
#
# Stress axis : x y z
#
# Youngs Moduli (GPa) = 86.15419 111.94867 100.08698
#
# Poissons Ratio (x) = 0.18199 0.27735
# Poissons Ratio (y) = 0.14006 -0.02612
# Poissons Ratio (z) = 0.23874 -0.02921
#
# Static dielectric constant tensor:
#      x y z
#    x 2.162270 0.000000 0.085150 
#    y 0.000000 2.118630 0.000000 
#    z 0.085150 0.000000 2.226320 
# 
# From -- ./inp_files/165145.got.cif
#   From: 2010.05.17/outbox.cif.g08.bks.cpg/sg15_83_cif.got.tgz:165145.got - 2010.06.03 18:47:42.
