data_PCOD9285664
_publ_section_title
;
Structure prediction by ZEFSAII (Michael W. Deem and Ramdas Pophale) SiO2 
 PCOD9285664
Probable space group: C 2/C
;
_chemical_formula_sum "Si O2"
_cell_formula_units_Z 40
_cell_length_a 22.461840
_cell_length_b 9.219732
_cell_length_c 14.243499
_cell_angle_alpha 90.000000
_cell_angle_beta 32.217273
_cell_angle_gamma 90.000000
_cell_volume 1572.586491
_symmetry_space_group_name_H-M "C 2/C"
_symmetry_group_IT_number 15
_symmetry_cell_setting 'monoclinic'
loop_
_space_group_symop_operation_xyz
x,y,z
-x,y,1/2-z
-x,-y,-z
x,-y,1/2+z
1/2+x,1/2+y,z
1/2-x,1/2+y,1/2-z
1/2-x,1/2-y,-z
1/2+x,1/2-y,1/2+z
loop_
_atom_site_type_symbol
_atom_site_label
_atom_site_fract_x
_atom_site_fract_y
_atom_site_fract_z
Si Si1 0.158464 0.957858 0.845930
Si Si2 0.345862 0.851242 0.466325
Si Si3 0.132556 0.008166 0.079346
Si Si4 0.410442 0.328495 0.195111
Si Si5 0.534856 0.004742 0.344335
O O1 0.147669 0.126167 0.825943
O O2 0.231422 0.872180 0.674274
O O3 0.197736 0.953132 0.900740
O O4 0.035749 0.888251 0.011672
O O5 0.367605 0.681356 0.424505
O O6 0.431550 0.941497 0.420141
O O7 0.364292 0.913028 0.336342
O O8 0.000000 0.969870 0.250000
O O9 0.159501 0.922429 0.137225
O O10 0.428244 0.170950 0.213694
O O11 0.500000 0.000000 0.500000
#
# Coordination Sequence:
#
# PCOD9285664 Si02
#       5
#     8   8   8   8   8
#     4  10  24  40  68  96 130 167 225 265 326 391
#     4  11  25  41  66 101 128 170 222 274 327 387
#     4  10  21  42  65  93 132 175 212 267 328 389
#     4  10  24  43  67  94 131 179 214 266 334 397
#     4  11  25  44  66  95 136 173 218 275 332 381
#
# _framework density 25.435804000000001
#
# number of rings (size 3 to 8) (size 9 to 14) (size 15 to 20)
#    0.000    1.600    2.000    1.200   16.800    3.200 
#    0.000    0.000    0.000    0.000    0.000    0.000 
#    0.000    0.000    0.000    0.000    0.000    0.000 
#
# Total GULP energy -111722.501275 kJ/mol
# GULP energy per Si atom -5586.125064 kJ/mol
# Density = 2.537791 g / cm^3
# Si number density = 25.435804 Si / 1000 Ang^3
#
#
#
# Elastic Constant Matrix: (Units=GPa)
#
#
# Indices 1 2 3 4 5 6 
#
# 1 70.7356 8.3662 40.6634 0.0000 30.0918 0.0000
# 2 8.3662 84.9443 49.9224 0.0001 13.8837 -0.0001
# 3 40.6634 49.9224 195.4114 0.0000 46.7606 0.0000
# 4 0.0000 0.0001 0.0000 45.1383 0.0000 6.5499
# 5 30.0918 13.8837 46.7606 0.0000 37.4282 0.0000
# 6 0.0000 -0.0001 0.0000 6.5499 0.0000 28.6233
#
#
#
# Elastic Compliance Matrix: (Units=1/GPa)
#
#
# Indices 1 2 3 4 5 6 
#
# 1 0.021598 0.001057 -0.000735 0.000000 -0.016838 0.000000
# 2 0.001057 0.013931 -0.003337 0.000000 -0.001849 0.000000
# 3 -0.000735 -0.003337 0.008110 0.000000 -0.008303 0.000000
# 4 0.000000 0.000000 0.000000 0.022915 0.000000 -0.005244
# 5 -0.016838 -0.001849 -0.008303 0.000000 0.051314 0.000000
# 6 0.000000 0.000000 0.000000 -0.005244 0.000000 0.036136
#
#
# Mechanical properties :
#
#
# Convention : Reuss Voigt Hill
#
# Bulk Modulus (GPa) = 26.58910 60.99949 43.79429
# Shear Modulus (GPa) = 28.97359 39.04727 34.01043
#
# Velocity S-wave (km/s) = 3.37870 3.92232 3.66062
# Velocity P-wave (km/s) = 5.06921 6.67433 5.92636
#
# Compressibility (1/GPa) = 0.03760940
#
# Stress axis : x y z
#
# Youngs Moduli (GPa) = 46.30091 71.77990 123.30996
#
# Poissons Ratio (x) = -0.07587 0.09065
# Poissons Ratio (y) = -0.04894 0.41144
# Poissons Ratio (z) = 0.03404 0.23950
#
# Static dielectric constant tensor:
#      x y z
#    x 2.241940 0.000000 -0.065140 
#    y 0.000000 1.986820 0.000000 
#    z -0.065140 0.000000 2.037000 
# 
# From -- ./inp_files/150621.got.cif
#   From: 2010.05.17/outbox.cif.g08.bks.cpg/sg15_76_cif.got.tgz:150621.got - 2010.06.03 18:47:42.
