data_PCOD9285183
_publ_section_title
;
Structure prediction by ZEFSAII (Michael W. Deem and Ramdas Pophale) SiO2 
 PCOD9285183
Probable space group: C 2/C
;
_chemical_formula_sum "Si O2"
_cell_formula_units_Z 32
_cell_length_a 7.764494
_cell_length_b 12.673950
_cell_length_c 17.247109
_cell_angle_alpha 90.000000
_cell_angle_beta 136.620757
_cell_angle_gamma 90.000000
_cell_volume 1165.700742
_symmetry_space_group_name_H-M "C 2/C"
_symmetry_group_IT_number 15
_symmetry_cell_setting 'monoclinic'
loop_
_space_group_symop_operation_xyz
x,y,z
-x,y,1/2-z
-x,-y,-z
x,-y,1/2+z
1/2+x,1/2+y,z
1/2-x,1/2+y,1/2-z
1/2-x,1/2-y,-z
1/2+x,1/2-y,1/2+z
loop_
_atom_site_type_symbol
_atom_site_label
_atom_site_fract_x
_atom_site_fract_y
_atom_site_fract_z
Si Si1 0.287375 0.082837 0.071628
Si Si2 0.831877 0.928105 0.785471
Si Si3 0.171904 0.636422 0.006379
Si Si4 0.085904 0.146440 0.856046
O O1 0.206162 0.081907 0.133910
O O2 0.578072 0.117288 0.166884
O O3 0.108206 0.153214 0.957937
O O4 0.296939 0.963599 0.041519
O O5 0.106320 0.882065 0.859085
O O6 0.882001 0.051333 0.784527
O O7 0.250000 0.750000 0.000000
O O8 0.884717 0.629873 0.939495
O O9 0.000000 0.209588 0.750000
#
# Coordination Sequence:
#
# PCOD9285183 Si02
#       4
#     8   8   8   8
#     4  10  21  42  67  92 123 171 222 252 313 399
#     4  10  21  41  68  90 124 173 215 258 311 396
#     4  11  23  39  62  97 132 157 213 274 317 372
#     4  11  21  37  67  89 124 169 216 251 317 388
#
# _framework density 27.451301999999998
#
# number of rings (size 3 to 8) (size 9 to 14) (size 15 to 20)
#    0.000    1.500    2.500    6.000    0.000    0.000 
#    4.500   10.000    0.000    0.000    0.000    0.000 
#    0.000    0.000    0.000    0.000    0.000    0.000 
#
# Total GULP energy -89227.470431 kJ/mol
# GULP energy per Si atom -5576.716902 kJ/mol
# Density = 2.738882 g / cm^3
# Si number density = 27.451302 Si / 1000 Ang^3
#
#
#
# Elastic Constant Matrix: (Units=GPa)
#
#
# Indices 1 2 3 4 5 6 
#
# 1 153.0273 -4.6858 54.7695 0.0000 -4.6169 0.0000
# 2 -4.6858 123.5072 6.2288 0.0000 -26.9923 0.0000
# 3 54.7695 6.2288 247.6930 0.0000 -5.4205 0.0000
# 4 0.0000 0.0000 0.0000 -5.0166 0.0000 -2.8719
# 5 -4.6169 -26.9923 -5.4205 0.0000 61.9997 0.0000
# 6 0.0000 0.0000 0.0000 -2.8719 0.0000 17.4086
#
#
#
# Elastic Compliance Matrix: (Units=1/GPa)
#
#
# Indices 1 2 3 4 5 6 
#
# 1 0.007132 0.000482 -0.001576 0.000000 0.000603 0.000000
# 2 0.000482 0.008985 -0.000247 0.000000 0.003926 0.000000
# 3 -0.001576 -0.000247 0.004395 0.000000 0.000160 0.000000
# 4 0.000000 0.000000 0.000000 -0.182135 0.000000 -0.030047
# 5 0.000603 0.003926 0.000160 0.000000 0.017897 0.000000
# 6 0.000000 0.000000 0.000000 -0.030047 0.000000 0.052486
#
#
# Mechanical properties :
#
#
# Convention : Reuss Voigt Hill
#
# Bulk Modulus (GPa) = 56.08078 70.76140 63.42109
# Shear Modulus (GPa) = -60.52235 46.07266 -7.22485
#
# Velocity S-wave (km/s) = -4.70054 4.10120 -1.62407
# Velocity P-wave (km/s) = 2.99775 6.94691 4.43131
#
# Compressibility (1/GPa) = 0.01783142
#
# Stress axis : x y z
#
# Youngs Moduli (GPa) = 140.21806 111.29055 227.51032
#
# Poissons Ratio (x) = -0.05363 0.35853
# Poissons Ratio (y) = -0.06756 0.05610
# Poissons Ratio (z) = 0.22097 0.02744
#
# Static dielectric constant tensor:
#      x y z
#    x 1.692130 0.000000 0.435260 
#    y 0.000000 2.328290 0.000000 
#    z 0.435260 0.000000 1.583510 
# 
# From -- ./inp_files/231474.got.cif
#   From: 2010.05.17/outbox.cif.g08.bks.cpg/sg15_116_cif.got.tgz:231474.got - 2010.06.03 18:47:42.
