data_PCOD9285048
_publ_section_title
;
Structure prediction by ZEFSAII (Michael W. Deem and Ramdas Pophale) SiO2 
 PCOD9285048
Probable space group: C 2/C
;
_chemical_formula_sum "Si O2"
_cell_formula_units_Z 36
_cell_length_a 10.395238
_cell_length_b 16.749001
_cell_length_c 14.036652
_cell_angle_alpha 90.000000
_cell_angle_beta 47.041349
_cell_angle_gamma 90.000000
_cell_volume 1788.571885
_symmetry_space_group_name_H-M "C 2/C"
_symmetry_group_IT_number 15
_symmetry_cell_setting 'monoclinic'
loop_
_space_group_symop_operation_xyz
x,y,z
-x,y,1/2-z
-x,-y,-z
x,-y,1/2+z
1/2+x,1/2+y,z
1/2-x,1/2+y,1/2-z
1/2-x,1/2-y,-z
1/2+x,1/2-y,1/2+z
loop_
_atom_site_type_symbol
_atom_site_label
_atom_site_fract_x
_atom_site_fract_y
_atom_site_fract_z
Si Si1 0.879681 0.879142 0.098234
Si Si2 0.000000 0.563650 0.750000
Si Si3 0.451813 0.771336 0.886677
Si Si4 0.445467 0.458996 0.667354
Si Si5 0.030467 0.551286 0.391493
O O1 0.667532 0.887889 0.202926
O O2 0.936020 0.795034 0.113737
O O3 0.963592 0.949767 0.121020
O O4 0.953041 0.899482 0.955492
O O5 0.069056 0.501734 0.636392
O O6 0.500000 0.774520 0.750000
O O7 0.470761 0.858435 0.922939
O O8 0.250000 0.750000 0.000000
O O9 0.500000 0.451197 0.750000
O O10 0.237036 0.444646 0.763699
O O11 0.000000 0.500000 0.500000
#
# Coordination Sequence:
#
# PCOD9285048 Si02
#       5
#     8   4   8   8   8
#     4  10  23  40  71  97 133 180 226 281 338 402
#     4  10  22  44  66  94 134 174 224 270 342 404
#     4  12  27  45  71 103 137 175 232 287 335 403
#     4  10  21  41  66  97 135 179 227 274 341 407
#     4  11  24  42  68  97 133 179 219 275 340 402
#
# _framework density 20.127790999999998
#
# number of rings (size 3 to 8) (size 9 to 14) (size 15 to 20)
#    0.000    1.333    1.111    3.333   15.556    0.000 
#    2.000    2.222    0.000    0.000    0.000    0.000 
#    0.000    0.000    0.000    0.000    0.000    0.000 
#
# Total GULP energy -100567.367253 kJ/mol
# GULP energy per Si atom -5587.075958 kJ/mol
# Density = 2.008198 g / cm^3
# Si number density = 20.127791 Si / 1000 Ang^3
#
#
#
# Elastic Constant Matrix: (Units=GPa)
#
#
# Indices 1 2 3 4 5 6 
#
# 1 101.5861 78.3515 25.0572 0.0000 8.0524 0.0000
# 2 78.3515 187.2779 57.9191 0.0000 6.1840 0.0000
# 3 25.0572 57.9191 88.3582 0.0000 10.4587 0.0000
# 4 0.0000 0.0000 0.0000 21.6681 0.0000 -2.1343
# 5 8.0524 6.1840 10.4587 0.0000 53.8454 0.0000
# 6 0.0000 0.0000 0.0000 -2.1343 0.0000 32.2637
#
#
#
# Elastic Compliance Matrix: (Units=1/GPa)
#
#
# Indices 1 2 3 4 5 6 
#
# 1 0.014652 -0.006084 0.000010 0.000000 -0.001494 0.000000
# 2 -0.006084 0.009224 -0.004405 0.000000 0.000706 0.000000
# 3 0.000010 -0.004405 0.014475 0.000000 -0.002307 0.000000
# 4 0.000000 0.000000 0.000000 0.046454 0.000000 0.003073
# 5 -0.001494 0.000706 -0.002307 0.000000 0.019162 0.000000
# 6 0.000000 0.000000 0.000000 0.003073 0.000000 0.031198
#
#
# Mechanical properties :
#
#
# Convention : Reuss Voigt Hill
#
# Bulk Modulus (GPa) = 57.49159 77.76420 67.62790
# Shear Modulus (GPa) = 30.87949 35.94839 33.41394
#
# Velocity S-wave (km/s) = 3.92110 4.23070 4.07884
# Velocity P-wave (km/s) = 7.00895 7.91102 7.47361
#
# Compressibility (1/GPa) = 0.01739385
#
# Stress axis : x y z
#
# Youngs Moduli (GPa) = 68.24934 108.41586 69.08398
#
# Poissons Ratio (x) = 0.65956 -0.00066
# Poissons Ratio (y) = 0.41520 0.30428
# Poissons Ratio (z) = -0.00065 0.47752
#
# Static dielectric constant tensor:
#      x y z
#    x 1.644100 0.000000 -0.026640 
#    y 0.000000 1.720300 0.000000 
#    z -0.026640 0.000000 1.698050 
# 
# From -- ./inp_files/28829.got.cif
#   From: 2010.05.17/outbox.cif.g08.bks.cpg/sg15_15_cif.got.tgz:28829.got - 2010.06.03 18:47:42.
