data_PCOD9285350
_publ_section_title
;
Structure prediction by ZEFSAII (Michael W. Deem and Ramdas Pophale) SiO2 
 PCOD9285350
Probable space group: C 2/C
;
_chemical_formula_sum "Si O2"
_cell_formula_units_Z 64
_cell_length_a 8.272448
_cell_length_b 30.642576
_cell_length_c 14.753919
_cell_angle_alpha 90.000000
_cell_angle_beta 50.213470
_cell_angle_gamma 90.000000
_cell_volume 2873.910764
_symmetry_space_group_name_H-M "C 2/C"
_symmetry_group_IT_number 15
_symmetry_cell_setting 'monoclinic'
loop_
_space_group_symop_operation_xyz
x,y,z
-x,y,1/2-z
-x,-y,-z
x,-y,1/2+z
1/2+x,1/2+y,z
1/2-x,1/2+y,1/2-z
1/2-x,1/2-y,-z
1/2+x,1/2-y,1/2+z
loop_
_atom_site_type_symbol
_atom_site_label
_atom_site_fract_x
_atom_site_fract_y
_atom_site_fract_z
Si Si1 0.515862 0.298592 0.040572
Si Si2 0.047207 0.698668 0.009642
Si Si3 0.748248 0.925197 0.176526
Si Si4 0.877456 0.362862 0.702247
Si Si5 0.437678 0.382088 0.943398
Si Si6 0.085192 0.428133 0.952383
Si Si7 0.832045 0.664548 0.727018
Si Si8 0.236480 0.982831 0.184267
O O1 0.742156 0.307650 0.004853
O O2 0.347675 0.301348 0.181921
O O3 0.518849 0.249823 0.001550
O O4 0.446925 0.334997 0.991294
O O5 0.072214 0.674733 0.904692
O O6 0.867548 0.678465 0.138726
O O7 0.500000 0.920239 0.250000
O O8 0.779848 0.883056 0.230373
O O9 0.758535 0.973691 0.211009
O O10 0.902166 0.916342 0.038031
O O11 0.651653 0.382482 0.809970
O O12 0.000065 0.399624 0.600285
O O13 0.000000 0.351969 0.750000
O O14 0.241925 0.396211 0.950819
O O15 0.215157 0.469035 0.866644
O O16 0.905339 0.450323 0.077678
O O17 0.000000 0.667114 0.750000
O O18 0.000000 0.969569 0.250000
#
# Coordination Sequence:
#
# PCOD9285350 Si02
#       8
#     8   8   8   8   8   8   8   8
#     4  10  24  42  71  98 140 191 244 301 370 424
#     4  11  24  43  69 101 143 187 247 307 355 443
#     4  10  21  41  71 100 136 178 239 302 366 434
#     4  12  26  43  67 103 145 195 246 294 381 454
#     4  11  23  46  69 101 144 199 235 304 379 444
#     4  11  26  48  69 102 153 188 239 312 372 445
#     4  10  23  41  66 102 139 180 242 304 365 431
#     4  11  24  44  74 106 136 191 248 302 373 430
#
# _framework density 22.269307000000001
#
# number of rings (size 3 to 8) (size 9 to 14) (size 15 to 20)
#    0.000    1.250    2.500    2.250    7.000    3.000 
#    0.000    1.250    0.000    0.000    0.000    0.000 
#    0.000    0.000    0.000    0.000    0.000    0.000 
#
# Total GULP energy -178559.640605 kJ/mol
# GULP energy per Si atom -5579.988769 kJ/mol
# Density = 2.221862 g / cm^3
# Si number density = 22.269307 Si / 1000 Ang^3
#
#
#
# Elastic Constant Matrix: (Units=GPa)
#
#
# Indices 1 2 3 4 5 6 
#
# 1 42.5912 48.9891 24.2796 0.0000 4.9920 0.0000
# 2 48.9891 84.9785 47.7403 0.0000 11.2107 0.0000
# 3 24.2796 47.7403 116.0702 0.0000 10.9370 0.0000
# 4 0.0000 0.0000 0.0000 2.7117 0.0000 0.1576
# 5 4.9920 11.2107 10.9370 0.0000 40.8502 0.0000
# 6 0.0000 0.0000 0.0000 0.1576 0.0000 33.1265
#
#
#
# Elastic Compliance Matrix: (Units=1/GPa)
#
#
# Indices 1 2 3 4 5 6 
#
# 1 0.070480 -0.042310 0.002438 0.000000 0.002346 0.000000
# 2 -0.042310 0.040973 -0.007622 0.000000 -0.004033 0.000000
# 3 0.002438 -0.007622 0.011358 0.000000 -0.001247 0.000000
# 4 0.000000 0.000000 0.000000 0.368870 0.000000 -0.001755
# 5 0.002346 -0.004033 -0.001247 0.000000 0.025634 0.000000
# 6 0.000000 0.000000 0.000000 -0.001755 0.000000 0.030196
#
#
# Mechanical properties :
#
#
# Convention : Reuss Voigt Hill
#
# Bulk Modulus (GPa) = 35.94094 53.96198 44.95146
# Shear Modulus (GPa) = 7.67138 23.51308 15.59223
#
# Velocity S-wave (km/s) = 1.85804 3.25291 2.64894
# Velocity P-wave (km/s) = 4.55822 6.19619 5.43921
#
# Compressibility (1/GPa) = 0.02782342
#
# Stress axis : x y z
#
# Youngs Moduli (GPa) = 14.18840 24.40623 88.04461
#
# Poissons Ratio (x) = 1.03264 -0.21469
# Poissons Ratio (y) = 0.60032 0.67107
# Poissons Ratio (z) = -0.03460 0.18602
#
# Static dielectric constant tensor:
#      x y z
#    x 1.586010 0.000000 0.032750 
#    y 0.000000 1.830370 0.000000 
#    z 0.032750 0.000000 1.848900 
# 
# From -- ./inp_files/139797.got.cif
#   From: 2010.05.17/outbox.cif.g08.bks.cpg/sg15_70_cif.got.tgz:139797.got - 2010.06.03 18:47:42.
