data_PCOD9285959
_publ_section_title
;
Structure prediction by ZEFSAII (Michael W. Deem and Ramdas Pophale) SiO2 
 PCOD9285959
Probable space group: C 2/C
;
_chemical_formula_sum "Si O2"
_cell_formula_units_Z 36
_cell_length_a 14.339997
_cell_length_b 15.240105
_cell_length_c 12.037699
_cell_angle_alpha 90.000000
_cell_angle_beta 30.809275
_cell_angle_gamma 90.000000
_cell_volume 1347.425404
_symmetry_space_group_name_H-M "C 2/C"
_symmetry_group_IT_number 15
_symmetry_cell_setting 'monoclinic'
loop_
_space_group_symop_operation_xyz
x,y,z
-x,y,1/2-z
-x,-y,-z
x,-y,1/2+z
1/2+x,1/2+y,z
1/2-x,1/2+y,1/2-z
1/2-x,1/2-y,-z
1/2+x,1/2-y,1/2+z
loop_
_atom_site_type_symbol
_atom_site_label
_atom_site_fract_x
_atom_site_fract_y
_atom_site_fract_z
Si Si1 0.887112 0.324817 0.647764
Si Si2 0.140408 0.181566 0.005762
Si Si3 0.134953 0.559219 0.015721
Si Si4 0.988462 0.134121 0.591245
Si Si5 0.500000 0.889665 0.250000
O O1 0.847071 0.275833 0.571091
O O2 0.939015 0.236579 0.663436
O O3 0.056397 0.389496 0.489956
O O4 0.704589 0.372245 0.875875
O O5 0.000000 0.179630 0.250000
O O6 0.066674 0.119763 0.982049
O O7 0.335179 0.157053 0.855489
O O8 0.000000 0.594937 0.250000
O O9 0.096900 0.456650 0.063503
O O10 0.347820 0.578610 0.806865
#
# Coordination Sequence:
#
# PCOD9285959 Si02
#       5
#     8   8   8   8   4
#     4  10  21  43  68 110 136 186 240 304 352 422
#     4  10  24  45  73 106 148 188 243 299 365 432
#     4  10  24  45  70 103 147 191 240 297 361 433
#     4  10  21  42  69 103 141 183 237 298 357 420
#     4  10  26  48  68 104 152 196 232 292 374 438
#
# _framework density 26.71762
#
# number of rings (size 3 to 8) (size 9 to 14) (size 15 to 20)
#    2.000    0.000    2.222    0.000    0.000   10.667 
#    2.000    2.222    0.000    0.000    0.000    0.000 
#    0.000    0.000    0.000    0.000    0.000    0.000 
#
# Total GULP energy -100690.315227 kJ/mol
# GULP energy per Si atom -5593.906402 kJ/mol
# Density = 2.665681 g / cm^3
# Si number density = 26.717620 Si / 1000 Ang^3
#
#
#
# Elastic Constant Matrix: (Units=GPa)
#
#
# Indices 1 2 3 4 5 6 
#
# 1 112.7657 35.2161 38.6486 -0.0030 -20.6050 0.0012
# 2 35.2161 99.8487 25.6294 -0.0031 -17.0696 0.0015
# 3 38.6486 25.6294 190.1418 -0.0045 -31.5308 0.0028
# 4 -0.0030 -0.0031 -0.0045 16.6552 0.0032 2.3470
# 5 -20.6050 -17.0696 -31.5308 0.0032 66.7483 -0.0016
# 6 0.0012 0.0015 0.0028 2.3470 -0.0016 22.5266
#
#
#
# Elastic Compliance Matrix: (Units=1/GPa)
#
#
# Indices 1 2 3 4 5 6 
#
# 1 0.010658 -0.003076 -0.001450 0.000001 0.001818 0.000000
# 2 -0.003076 0.011557 -0.000651 0.000001 0.001699 -0.000001
# 3 -0.001450 -0.000651 0.006011 0.000001 0.002225 -0.000001
# 4 0.000001 0.000001 0.000001 0.060936 -0.000002 -0.006349
# 5 0.001818 0.001699 0.002225 -0.000002 0.017029 0.000001
# 6 0.000000 -0.000001 -0.000001 -0.006349 0.000001 0.045053
#
#
# Mechanical properties :
#
#
# Convention : Reuss Voigt Hill
#
# Bulk Modulus (GPa) = 55.95340 66.86049 61.40694
# Shear Modulus (GPa) = 29.84087 41.40348 35.62218
#
# Velocity S-wave (km/s) = 3.34563 3.94086 3.65538
# Velocity P-wave (km/s) = 5.99269 6.76656 6.39135
#
# Compressibility (1/GPa) = 0.01787202
#
# Stress axis : x y z
#
# Youngs Moduli (GPa) = 93.82792 86.52422 166.36856
#
# Poissons Ratio (x) = 0.26614 0.24127
# Poissons Ratio (y) = 0.28860 0.10830
# Poissons Ratio (z) = 0.13607 0.05632
#
# Static dielectric constant tensor:
#      x y z
#    x 2.115560 0.000000 0.145840 
#    y 0.000000 2.117850 0.000000 
#    z 0.145840 0.000000 2.105000 
# 
# From -- ./inp_files/99602.got.cif
#   From: 2010.05.17/outbox.cif.g08.bks.cpg/sg15_50_cif.got.tgz:99602.got - 2010.06.03 18:47:42.
