data_PCOD9285819
_publ_section_title
;
Structure prediction by ZEFSAII (Michael W. Deem and Ramdas Pophale) SiO2 
 PCOD9285819
Probable space group: C 2/C
;
_chemical_formula_sum "Si O2"
_cell_formula_units_Z 44
_cell_length_a 25.903558
_cell_length_b 11.943002
_cell_length_c 12.654025
_cell_angle_alpha 90.000000
_cell_angle_beta 143.779504
_cell_angle_gamma 90.000000
_cell_volume 2313.190570
_symmetry_space_group_name_H-M "C 2/C"
_symmetry_group_IT_number 15
_symmetry_cell_setting 'monoclinic'
loop_
_space_group_symop_operation_xyz
x,y,z
-x,y,1/2-z
-x,-y,-z
x,-y,1/2+z
1/2+x,1/2+y,z
1/2-x,1/2+y,1/2-z
1/2-x,1/2-y,-z
1/2+x,1/2-y,1/2+z
loop_
_atom_site_type_symbol
_atom_site_label
_atom_site_fract_x
_atom_site_fract_y
_atom_site_fract_z
Si Si1 0.777913 0.655792 0.461231
Si Si2 0.238982 0.427507 0.956475
Si Si3 0.329906 0.539194 0.393871
Si Si4 0.410158 0.703693 0.038116
Si Si5 0.000000 0.832724 0.250000
Si Si6 0.394001 0.727815 0.770531
O O1 0.750000 0.750000 0.500000
O O2 0.798183 0.541665 0.557285
O O3 0.700744 0.609598 0.257981
O O4 0.853727 0.707319 0.512571
O O5 0.256819 0.442686 0.862198
O O6 0.171256 0.328706 0.861948
O O7 0.332781 0.384163 0.157784
O O8 0.350394 0.407311 0.425173
O O9 0.419298 0.592805 0.580861
O O10 0.500000 0.680839 0.250000
O O11 0.428444 0.738254 0.946902
O O12 0.966901 0.770374 0.300228
#
# Coordination Sequence:
#
# PCOD9285819 Si02
#       6
#     8   8   8   8   4   8
#     4  12  25  41  69 103 136 177 224 279 341 408
#     4  10  21  42  67  93 130 184 226 267 334 409
#     4  11  22  41  67  99 133 175 226 279 330 399
#     4  12  25  42  68 104 136 174 222 286 340 391
#     4  10  24  38  66  98 130 176 230 280 330 394
#     4  10  22  42  66  94 133 179 226 274 336 400
#
# _framework density 19.021346999999999
#
# number of rings (size 3 to 8) (size 9 to 14) (size 15 to 20)
#    0.000    1.091    6.364    0.000    2.545    0.727 
#    1.636    0.909    0.000    0.000    0.000    0.000 
#    0.000    0.000    0.000    0.000    0.000    0.000 
#
# Total GULP energy -122641.115698 kJ/mol
# GULP energy per Si atom -5574.596168 kJ/mol
# Density = 1.897805 g / cm^3
# Si number density = 19.021347 Si / 1000 Ang^3
#
#
#
# Elastic Constant Matrix: (Units=GPa)
#
#
# Indices 1 2 3 4 5 6 
#
# 1 162.3764 60.2396 29.0305 0.0000 -15.8142 0.0000
# 2 60.2396 115.2192 23.4963 0.0000 -5.2903 0.0000
# 3 29.0305 23.4963 57.0239 0.0000 -18.8110 0.0000
# 4 0.0000 0.0000 0.0000 14.7711 0.0000 -3.0985
# 5 -15.8142 -5.2903 -18.8110 0.0000 30.2131 0.0000
# 6 0.0000 0.0000 0.0000 -3.0985 0.0000 37.4078
#
#
#
# Elastic Compliance Matrix: (Units=1/GPa)
#
#
# Indices 1 2 3 4 5 6 
#
# 1 0.008114 -0.003770 -0.001754 0.000000 0.002494 0.000000
# 2 -0.003770 0.011249 -0.003420 0.000000 -0.002132 0.000000
# 3 -0.001754 -0.003420 0.024337 0.000000 0.013635 0.000000
# 4 0.000000 0.000000 0.000000 0.068897 0.000000 0.005707
# 5 0.002494 -0.002132 0.013635 0.000000 0.042520 0.000000
# 6 0.000000 0.000000 0.000000 0.005707 0.000000 0.027205
#
#
# Mechanical properties :
#
#
# Convention : Reuss Voigt Hill
#
# Bulk Modulus (GPa) = 38.74125 62.23914 50.49020
# Shear Modulus (GPa) = 23.94486 31.26860 27.60673
#
# Velocity S-wave (km/s) = 3.55187 4.05886 3.81380
# Velocity P-wave (km/s) = 6.10184 7.39983 6.78196
#
# Compressibility (1/GPa) = 0.02581228
#
# Stress axis : x y z
#
# Youngs Moduli (GPa) = 123.24890 88.89326 41.09027
#
# Poissons Ratio (x) = 0.33510 0.07209
# Poissons Ratio (y) = 0.46461 0.14051
# Poissons Ratio (z) = 0.21623 0.30398
#
# Static dielectric constant tensor:
#      x y z
#    x 1.679430 0.000000 -0.031460 
#    y 0.000000 1.660230 0.000000 
#    z -0.031460 0.000000 1.681820 
# 
# From -- ./inp_files/95059.got.cif
#   From: 2010.05.17/outbox.cif.g08.bks.cpg/sg15_48_cif.got.tgz:95059.got - 2010.06.03 18:47:42.
