data_PCOD9285672
_publ_section_title
;
Structure prediction by ZEFSAII (Michael W. Deem and Ramdas Pophale) SiO2 
 PCOD9285672
Probable space group: C 2/C
;
_chemical_formula_sum "Si O2"
_cell_formula_units_Z 56
_cell_length_a 17.778400
_cell_length_b 17.226661
_cell_length_c 9.555881
_cell_angle_alpha 90.000000
_cell_angle_beta 70.782842
_cell_angle_gamma 90.000000
_cell_volume 2763.530826
_symmetry_space_group_name_H-M "C 2/C"
_symmetry_group_IT_number 15
_symmetry_cell_setting 'monoclinic'
loop_
_space_group_symop_operation_xyz
x,y,z
-x,y,1/2-z
-x,-y,-z
x,-y,1/2+z
1/2+x,1/2+y,z
1/2-x,1/2+y,1/2-z
1/2-x,1/2-y,-z
1/2+x,1/2-y,1/2+z
loop_
_atom_site_type_symbol
_atom_site_label
_atom_site_fract_x
_atom_site_fract_y
_atom_site_fract_z
Si Si1 0.970075 0.425943 0.106245
Si Si2 0.539987 0.217155 0.078626
Si Si3 0.210788 0.329874 0.571119
Si Si4 0.419022 0.301598 0.717071
Si Si5 0.763325 0.099836 0.316727
Si Si6 0.221632 0.428861 0.316806
Si Si7 0.297394 0.819526 0.398168
O O1 0.873189 0.432171 0.159990
O O2 0.000000 0.426531 0.250000
O O3 0.997590 0.349069 0.001041
O O4 0.000000 0.500000 0.000000
O O5 0.500000 0.240742 0.250000
O O6 0.619514 0.176794 0.086180
O O7 0.562344 0.286366 0.958136
O O8 0.250000 0.250000 0.500000
O O9 0.226805 0.344974 0.721318
O O10 0.240323 0.402557 0.462427
O O11 0.500000 0.316131 0.750000
O O12 0.352667 0.367719 0.783108
O O13 0.378354 0.221220 0.797626
O O14 0.706435 0.111663 0.486202
O O15 0.759877 0.011755 0.268918
O O16 0.248115 0.356470 0.205259
O O17 0.250000 0.750000 0.500000
#
# Coordination Sequence:
#
# PCOD9285672 Si02
#       7
#     8   8   8   8   8   8   8
#     4  11  25  38  57  93 140 173 209 257 332 413
#     4  11  24  39  62  94 126 177 214 268 334 390
#     4  11  21  42  64  93 130 163 219 270 320 385
#     4  11  23  44  66  94 132 174 229 280 321 395
#     4  11  24  39  66  95 132 174 219 267 333 397
#     4  11  24  39  64  94 134 171 208 273 328 390
#     4  10  21  42  65  95 120 173 222 262 327 393
#
# _framework density 20.263930999999999
#
# number of rings (size 3 to 8) (size 9 to 14) (size 15 to 20)
#    0.000    1.143    4.286    2.571   10.000    0.000 
#    0.000    0.000    0.000    8.571    0.000    0.000 
#    0.000    0.000    0.000    0.000    0.000    0.000 
#
# Total GULP energy -156223.676648 kJ/mol
# GULP energy per Si atom -5579.417023 kJ/mol
# Density = 2.021781 g / cm^3
# Si number density = 20.263931 Si / 1000 Ang^3
#
#
#
# Elastic Constant Matrix: (Units=GPa)
#
#
# Indices 1 2 3 4 5 6 
#
# 1 82.6458 27.1624 36.0300 0.0000 13.5806 0.0000
# 2 27.1624 85.9564 15.1430 0.0000 -12.5151 0.0000
# 3 36.0300 15.1430 130.3138 0.0000 2.9244 0.0000
# 4 0.0000 0.0000 0.0000 33.9080 0.0000 2.9383
# 5 13.5806 -12.5151 2.9244 0.0000 23.0232 0.0000
# 6 0.0000 0.0000 0.0000 2.9383 0.0000 26.1602
#
#
#
# Elastic Compliance Matrix: (Units=1/GPa)
#
#
# Indices 1 2 3 4 5 6 
#
# 1 0.018591 -0.007274 -0.003971 0.000000 -0.014415 0.000000
# 2 -0.007274 0.015833 -0.000119 0.000000 0.012912 0.000000
# 3 -0.003971 -0.000119 0.008759 0.000000 0.001165 0.000000
# 4 0.000000 0.000000 0.000000 0.029781 0.000000 -0.003345
# 5 -0.014415 0.012912 0.001165 0.000000 0.058809 0.000000
# 6 0.000000 0.000000 0.000000 -0.003345 0.000000 0.038602
#
#
# Mechanical properties :
#
#
# Convention : Reuss Voigt Hill
#
# Bulk Modulus (GPa) = 48.88581 50.62075 49.75328
# Shear Modulus (GPa) = 25.00987 31.32365 28.16676
#
# Velocity S-wave (km/s) = 3.51694 3.93591 3.73231
# Velocity P-wave (km/s) = 6.37720 6.75945 6.57111
#
# Compressibility (1/GPa) = 0.02045583
#
# Stress axis : x y z
#
# Youngs Moduli (GPa) = 53.79070 63.15814 114.16291
#
# Poissons Ratio (x) = 0.45941 0.45337
# Poissons Ratio (y) = 0.39127 0.01353
# Poissons Ratio (z) = 0.21362 0.00749
#
# Static dielectric constant tensor:
#      x y z
#    x 1.721270 0.000000 -0.037360 
#    y 0.000000 1.714420 0.000000 
#    z -0.037360 0.000000 1.884530 
# 
# From -- ./inp_files/49009.got.cif
#   From: 2010.05.17/outbox.cif.g08.bks.cpg/sg15_25_cif.got.tgz:49009.got - 2010.06.03 18:47:42.
