data_PCOD9285804
_publ_section_title
;
Structure prediction by ZEFSAII (Michael W. Deem and Ramdas Pophale) SiO2 
 PCOD9285804
Probable space group: C 2/C
;
_chemical_formula_sum "Si O2"
_cell_formula_units_Z 36
_cell_length_a 22.036842
_cell_length_b 10.164902
_cell_length_c 16.445830
_cell_angle_alpha 90.000000
_cell_angle_beta 154.085806
_cell_angle_gamma 90.000000
_cell_volume 1609.956933
_symmetry_space_group_name_H-M "C 2/C"
_symmetry_group_IT_number 15
_symmetry_cell_setting 'monoclinic'
loop_
_space_group_symop_operation_xyz
x,y,z
-x,y,1/2-z
-x,-y,-z
x,-y,1/2+z
1/2+x,1/2+y,z
1/2-x,1/2+y,1/2-z
1/2-x,1/2-y,-z
1/2+x,1/2-y,1/2+z
loop_
_atom_site_type_symbol
_atom_site_label
_atom_site_fract_x
_atom_site_fract_y
_atom_site_fract_z
Si Si1 0.820482 0.260564 0.712649
Si Si2 0.500000 0.823916 0.250000
Si Si3 0.985653 0.100143 0.355598
Si Si4 0.731182 0.036237 0.489617
Si Si5 0.122096 0.139181 0.101435
O O1 0.732972 0.143617 0.564413
O O2 0.805738 0.385351 0.636084
O O3 0.753204 0.294066 0.717867
O O4 0.979619 0.216194 0.908534
O O5 0.533749 0.728931 0.366712
O O6 0.626487 0.918117 0.378733
O O7 0.882761 0.130892 0.307503
O O8 0.887081 0.018908 0.175701
O O9 0.099796 0.005212 0.534065
#
# Coordination Sequence:
#
# PCOD9285804 Si02
#       5
#     8   4   8   8   8
#     4  10  21  42  67  89 124 167 220 261 310 387
#     4  12  22  38  62  96 124 162 214 270 306 386
#     4  10  23  39  59  89 133 168 201 260 333 383
#     4  10  22  39  62  93 122 168 214 261 320 379
#     4  10  22  41  64  91 124 172 209 263 318 378
#
# _framework density 22.360847
#
# number of rings (size 3 to 8) (size 9 to 14) (size 15 to 20)
#    0.000    1.778    0.000    3.333    3.111    6.222 
#    8.000    2.222    0.000    0.000    0.000    0.000 
#    0.000    0.000    0.000    0.000    0.000    0.000 
#
# Total GULP energy -100703.857789 kJ/mol
# GULP energy per Si atom -5594.658766 kJ/mol
# Density = 2.230995 g / cm^3
# Si number density = 22.360847 Si / 1000 Ang^3
#
#
#
# Elastic Constant Matrix: (Units=GPa)
#
#
# Indices 1 2 3 4 5 6 
#
# 1 105.9987 72.3499 28.7944 0.0000 6.2311 0.0000
# 2 72.3499 129.4935 25.3930 0.0000 2.3143 0.0000
# 3 28.7944 25.3930 47.4721 0.0000 -10.7492 0.0000
# 4 0.0000 0.0000 0.0000 16.1997 0.0000 2.9448
# 5 6.2311 2.3143 -10.7492 0.0000 26.3261 0.0000
# 6 0.0000 0.0000 0.0000 2.9448 0.0000 24.2081
#
#
#
# Elastic Compliance Matrix: (Units=1/GPa)
#
#
# Indices 1 2 3 4 5 6 
#
# 1 0.017469 -0.008125 -0.007740 0.000000 -0.006581 0.000000
# 2 -0.008125 0.012614 -0.001801 0.000000 0.000079 0.000000
# 3 -0.007740 -0.001801 0.029942 0.000000 0.014216 0.000000
# 4 0.000000 0.000000 0.000000 0.063126 0.000000 -0.007679
# 5 -0.006581 0.000079 0.014216 0.000000 0.045340 0.000000
# 6 0.000000 0.000000 0.000000 -0.007679 0.000000 0.042243
#
#
# Mechanical properties :
#
#
# Convention : Reuss Voigt Hill
#
# Bulk Modulus (GPa) = 40.49746 59.55986 50.02866
# Shear Modulus (GPa) = 19.66210 23.77524 21.71867
#
# Velocity S-wave (km/s) = 2.96853 3.26429 3.11992
# Velocity P-wave (km/s) = 5.46807 6.39540 5.94983
#
# Compressibility (1/GPa) = 0.02469291
#
# Stress axis : x y z
#
# Youngs Moduli (GPa) = 57.24375 79.27918 33.39777
#
# Poissons Ratio (x) = 0.64413 0.25850
# Poissons Ratio (y) = 0.46510 0.06015
# Poissons Ratio (z) = 0.44307 0.14279
#
# Static dielectric constant tensor:
#      x y z
#    x 1.829740 0.000000 -0.023420 
#    y 0.000000 1.835280 0.000000 
#    z -0.023420 0.000000 1.802790 
# 
# From -- ./inp_files/102628.got.cif
#   From: 2010.05.17/outbox.cif.g08.bks.cpg/sg15_52_cif.got.tgz:102628.got - 2010.06.03 18:47:42.
