data_PCOD9285800
_publ_section_title
;
Structure prediction by ZEFSAII (Michael W. Deem and Ramdas Pophale) SiO2 
 PCOD9285800
Probable space group: C 2/C
;
_chemical_formula_sum "Si O2"
_cell_formula_units_Z 40
_cell_length_a 17.583537
_cell_length_b 5.043394
_cell_length_c 31.594468
_cell_angle_alpha 90.000000
_cell_angle_beta 147.040858
_cell_angle_gamma 90.000000
_cell_volume 1524.304327
_symmetry_space_group_name_H-M "C 2/C"
_symmetry_group_IT_number 15
_symmetry_cell_setting 'monoclinic'
loop_
_space_group_symop_operation_xyz
x,y,z
-x,y,1/2-z
-x,-y,-z
x,-y,1/2+z
1/2+x,1/2+y,z
1/2-x,1/2+y,1/2-z
1/2-x,1/2-y,-z
1/2+x,1/2-y,1/2+z
loop_
_atom_site_type_symbol
_atom_site_label
_atom_site_fract_x
_atom_site_fract_y
_atom_site_fract_z
Si Si1 0.690314 0.833180 0.067339
Si Si2 0.578738 0.090961 0.603221
Si Si3 0.470277 0.826050 0.839504
Si Si4 0.656349 0.471791 0.979322
Si Si5 0.526654 0.350770 0.811717
O O1 0.679447 0.814370 0.112812
O O2 0.707243 0.561352 0.049435
O O3 0.817199 0.025639 0.115325
O O4 0.544142 0.936213 0.979661
O O5 0.624822 0.912777 0.664812
O O6 0.495428 0.336315 0.584249
O O7 0.612094 0.723284 0.929619
O O8 0.497511 0.084632 0.824047
O O9 0.437114 0.584998 0.792559
O O10 0.750000 0.250000 0.000000
O O11 0.500000 0.304947 0.750000
#
# Coordination Sequence:
#
# PCOD9285800 Si02
#       5
#     8   8   8   8   8
#     4  10  24  39  67 105 140 175 221 282 352 407
#     4  10  21  42  67 104 141 169 217 288 357 412
#     4  11  24  45  69  99 133 179 232 279 345 410
#     4  11  21  39  72 106 142 176 224 285 352 422
#     4  12  26  47  68  97 132 184 240 281 330 409
#
# _framework density 26.241481
#
# number of rings (size 3 to 8) (size 9 to 14) (size 15 to 20)
#    0.000    1.200    2.000    3.600    2.800    5.600 
#    0.000    2.000    0.000    0.000    0.000    0.000 
#    0.000    0.000    0.000    0.000    0.000    0.000 
#
# Total GULP energy -111895.756088 kJ/mol
# GULP energy per Si atom -5594.787804 kJ/mol
# Density = 2.618175 g / cm^3
# Si number density = 26.241481 Si / 1000 Ang^3
#
#
#
# Elastic Constant Matrix: (Units=GPa)
#
#
# Indices 1 2 3 4 5 6 
#
# 1 215.0896 93.5339 64.1005 0.0029 -62.9426 0.0043
# 2 93.5339 206.6716 44.1111 -0.0177 -35.6623 0.0192
# 3 64.1005 44.1111 77.2016 -0.0023 -39.3477 0.0106
# 4 0.0029 -0.0177 -0.0023 19.7728 0.0045 -17.4170
# 5 -62.9426 -35.6623 -39.3477 0.0045 58.0332 -0.0037
# 6 0.0043 0.0192 0.0106 -17.4170 -0.0037 29.3999
#
#
#
# Elastic Compliance Matrix: (Units=1/GPa)
#
#
# Indices 1 2 3 4 5 6 
#
# 1 0.007964 -0.002089 -0.002553 -0.000006 0.005623 -0.000002
# 2 -0.002089 0.006201 -0.001560 0.000006 0.000487 0.000000
# 3 -0.002553 -0.001560 0.021491 -0.000011 0.010844 -0.000012
# 4 -0.000006 0.000006 -0.000011 0.105768 -0.000015 0.062659
# 5 0.005623 0.000487 0.010844 -0.000015 0.030981 -0.000010
# 6 -0.000002 0.000000 -0.000012 0.062659 -0.000010 0.071134
#
#
# Mechanical properties :
#
#
# Convention : Reuss Voigt Hill
#
# Bulk Modulus (GPa) = 43.00862 100.27264 71.64063
# Shear Modulus (GPa) = 18.96133 41.25568 30.10851
#
# Velocity S-wave (km/s) = 2.69098 3.96934 3.39095
# Velocity P-wave (km/s) = 5.10689 7.70078 6.53385
#
# Compressibility (1/GPa) = 0.02325115
#
# Stress axis : x y z
#
# Youngs Moduli (GPa) = 125.56505 161.26082 46.53091
#
# Poissons Ratio (x) = 0.33689 0.11879
# Poissons Ratio (y) = 0.26232 0.07261
# Poissons Ratio (z) = 0.32056 0.25164
#
# Static dielectric constant tensor:
#      x y z
#    x 2.113910 0.000000 0.023760 
#    y 0.000000 2.125080 0.000030 
#    z 0.023760 0.000030 2.111380 
# 
# From -- ./inp_files/246260.got.cif
#   From: 2010.05.17/outbox.cif.g08.bks.cpg/sg15_124_cif.got.tgz:246260.got - 2010.06.03 18:47:42.
