data_PCOD9285751
_publ_section_title
;
Structure prediction by ZEFSAII (Michael W. Deem and Ramdas Pophale) SiO2 
 PCOD9285751
Probable space group: C 2/C
;
_chemical_formula_sum "Si O2"
_cell_formula_units_Z 48
_cell_length_a 10.540358
_cell_length_b 23.782561
_cell_length_c 9.496709
_cell_angle_alpha 90.000000
_cell_angle_beta 63.529557
_cell_angle_gamma 90.000000
_cell_volume 2131.031769
_symmetry_space_group_name_H-M "C 2/C"
_symmetry_group_IT_number 15
_symmetry_cell_setting 'monoclinic'
loop_
_space_group_symop_operation_xyz
x,y,z
-x,y,1/2-z
-x,-y,-z
x,-y,1/2+z
1/2+x,1/2+y,z
1/2-x,1/2+y,1/2-z
1/2-x,1/2-y,-z
1/2+x,1/2-y,1/2+z
loop_
_atom_site_type_symbol
_atom_site_label
_atom_site_fract_x
_atom_site_fract_y
_atom_site_fract_z
Si Si1 0.001577 0.164424 0.942733
Si Si2 0.327214 0.140664 0.404367
Si Si3 0.500000 0.366008 0.750000
Si Si4 0.314961 0.034292 0.607591
Si Si5 0.000000 0.063807 0.750000
Si Si6 0.500000 0.089388 0.750000
Si Si7 0.320189 0.904431 0.593043
Si Si8 0.000000 0.741496 0.250000
O O1 0.834774 0.158560 0.993688
O O2 0.011624 0.169599 0.102847
O O3 0.047045 0.104468 0.856378
O O4 0.071122 0.215314 0.824065
O O5 0.357376 0.085594 0.482656
O O6 0.352142 0.122586 0.229476
O O7 0.407095 0.199043 0.387140
O O8 0.648771 0.399416 0.673545
O O9 0.378238 0.053956 0.726928
O O10 0.145092 0.030518 0.660520
O O11 0.362423 0.970104 0.565458
O O12 0.591712 0.121037 0.582653
#
# Coordination Sequence:
#
# PCOD9285751 Si02
#       8
#     8   8   4   8   4   4   8   4
#     4   9  20  37  61  88 117 152 208 272 312 358
#     4  10  22  39  61  87 118 163 211 246 309 387
#     4  10  21  42  66  94 123 158 210 266 320 372
#     4  11  22  39  62  93 130 170 210 255 308 378
#     4   9  19  38  64  91 120 169 219 253 308 384
#     4  12  24  35  55  91 132 167 203 253 306 356
#     4  11  23  40  62  92 130 168 204 256 314 379
#     4  11  20  39  59  80 115 164 208 258 316 374
#
# _framework density 22.5243
#
# number of rings (size 3 to 8) (size 9 to 14) (size 15 to 20)
#    0.000    1.667    0.000    4.500    0.000    1.333 
#    0.000   15.000    0.000    0.000    0.000    0.000 
#    0.000    0.000    0.000    0.000    0.000    0.000 
#
# Total GULP energy -133706.804385 kJ/mol
# GULP energy per Si atom -5571.116849 kJ/mol
# Density = 2.247303 g / cm^3
# Si number density = 22.524300 Si / 1000 Ang^3
#
#
#
# Elastic Constant Matrix: (Units=GPa)
#
#
# Indices 1 2 3 4 5 6 
#
# 1 80.0202 18.1537 18.0478 0.0000 3.4914 0.0000
# 2 18.1537 87.1612 31.6875 0.0000 7.8955 0.0000
# 3 18.0478 31.6875 142.3746 0.0000 20.7575 0.0000
# 4 0.0000 0.0000 0.0000 19.2613 0.0000 -0.8404
# 5 3.4914 7.8955 20.7575 0.0000 41.1857 0.0000
# 6 0.0000 0.0000 0.0000 -0.8404 0.0000 -7.5675
#
#
#
# Elastic Compliance Matrix: (Units=1/GPa)
#
#
# Indices 1 2 3 4 5 6 
#
# 1 0.013292 -0.002342 -0.001149 0.000000 -0.000099 0.000000
# 2 -0.002342 0.012940 -0.002429 0.000000 -0.001058 0.000000
# 3 -0.001149 -0.002429 0.008233 0.000000 -0.003586 0.000000
# 4 0.000000 0.000000 0.000000 0.051667 0.000000 -0.005738
# 5 -0.000099 -0.001058 -0.003586 0.000000 0.026299 0.000000
# 6 0.000000 0.000000 0.000000 -0.005738 0.000000 -0.131508
#
#
# Mechanical properties :
#
#
# Convention : Reuss Voigt Hill
#
# Bulk Modulus (GPa) = 44.19984 49.48153 46.84068
# Shear Modulus (GPa) = 16481.22056 26.68704 8253.95380
#
# Velocity S-wave (km/s) = 85.63276 3.44584 60.60051
# Velocity P-wave (km/s) = 98.97958 6.15203 70.12420
#
# Compressibility (1/GPa) = 0.02262452
#
# Stress axis : x y z
#
# Youngs Moduli (GPa) = 75.23559 77.28264 121.46463
#
# Poissons Ratio (x) = 0.18096 0.13961
# Poissons Ratio (y) = 0.17617 0.29501
# Poissons Ratio (z) = 0.08647 0.18770
#
# Static dielectric constant tensor:
#      x y z
#    x 2.178260 0.000000 -0.190080 
#    y 0.000000 1.772810 0.000000 
#    z -0.190080 0.000000 2.012550 
# 
# From -- ./inp_files/32612.got.cif
#   From: 2010.05.17/outbox.cif.g08.bks.cpg/sg15_17_cif.got.tgz:32612.got - 2010.06.03 18:47:42.
