data_PCOD9285085
_publ_section_title
;
Structure prediction by ZEFSAII (Michael W. Deem and Ramdas Pophale) SiO2 
 PCOD9285085
Probable space group: C 2/C
;
_chemical_formula_sum "Si O2"
_cell_formula_units_Z 48
_cell_length_a 25.118471
_cell_length_b 15.337335
_cell_length_c 9.091013
_cell_angle_alpha 90.000000
_cell_angle_beta 42.465780
_cell_angle_gamma 90.000000
_cell_volume 2364.588055
_symmetry_space_group_name_H-M "C 2/C"
_symmetry_group_IT_number 15
_symmetry_cell_setting 'monoclinic'
loop_
_space_group_symop_operation_xyz
x,y,z
-x,y,1/2-z
-x,-y,-z
x,-y,1/2+z
1/2+x,1/2+y,z
1/2-x,1/2+y,1/2-z
1/2-x,1/2-y,-z
1/2+x,1/2-y,1/2+z
loop_
_atom_site_type_symbol
_atom_site_label
_atom_site_fract_x
_atom_site_fract_y
_atom_site_fract_z
Si Si1 0.693359 0.780602 0.484206
Si Si2 0.951521 0.567054 0.697650
Si Si3 0.488687 0.774129 0.596824
Si Si4 0.715624 0.029829 0.969287
Si Si5 0.470051 0.417529 0.145457
Si Si6 0.706063 0.407184 0.899132
O O1 0.750000 0.750000 0.500000
O O2 0.604921 0.791154 0.727922
O O3 0.714428 0.877077 0.386598
O O4 0.703113 0.695621 0.360903
O O5 0.864814 0.525146 0.887913
O O6 0.000000 0.575875 0.750000
O O7 0.000000 0.500000 0.500000
O O8 0.957168 0.658614 0.600364
O O9 0.500000 0.781142 0.750000
O O10 0.500702 0.674830 0.522574
O O11 0.730049 0.059846 0.109187
O O12 0.782913 0.968501 0.763722
O O13 0.500000 0.422005 0.250000
O O14 0.375934 0.417025 0.347838
O O15 0.500000 0.500000 0.000000
#
# Coordination Sequence:
#
# PCOD9285085 Si02
#       6
#     8   8   8   8   8   8
#     4   9  20  38  61  80 122 165 200 241 315 368
#     4  12  24  38  62  94 127 163 210 254 316 379
#     4  10  22  40  63  90 127 165 207 260 316 373
#     4  11  22  38  61  87 124 159 206 251 304 369
#     4  10  21  41  67  90 123 165 214 258 311 366
#     4  10  22  40  60  90 120 164 202 250 314 367
#
# _framework density 20.299519
#
# number of rings (size 3 to 8) (size 9 to 14) (size 15 to 20)
#    0.000    1.667    1.667    2.500    4.667    0.667 
#    3.000    0.833    0.000    0.000    0.000    0.000 
#    0.000    0.000    0.000    0.000    0.000    0.000 
#
# Total GULP energy -133834.196297 kJ/mol
# GULP energy per Si atom -5576.424846 kJ/mol
# Density = 2.025332 g / cm^3
# Si number density = 20.299519 Si / 1000 Ang^3
#
#
#
# Elastic Constant Matrix: (Units=GPa)
#
#
# Indices 1 2 3 4 5 6 
#
# 1 76.3795 15.8052 7.4754 0.0000 -14.4757 0.0000
# 2 15.8052 210.3986 62.1997 0.0000 -0.7824 0.0000
# 3 7.4754 62.1997 45.2605 0.0000 -2.4261 0.0000
# 4 0.0000 0.0000 0.0000 43.2944 0.0000 -0.8316
# 5 -14.4757 -0.7824 -2.4261 0.0000 25.6065 0.0000
# 6 0.0000 0.0000 0.0000 -0.8316 0.0000 23.6768
#
#
#
# Elastic Compliance Matrix: (Units=1/GPa)
#
#
# Indices 1 2 3 4 5 6 
#
# 1 0.014929 -0.000831 -0.000877 0.000000 0.008331 0.000000
# 2 -0.000831 0.008068 -0.011018 0.000000 -0.001267 0.000000
# 3 -0.000877 -0.011018 0.037527 0.000000 0.002723 0.000000
# 4 0.000000 0.000000 0.000000 0.023113 0.000000 0.000812
# 5 0.008331 -0.001267 0.002723 0.000000 0.043982 0.000000
# 6 0.000000 0.000000 0.000000 0.000812 0.000000 0.042264
#
#
# Mechanical properties :
#
#
# Convention : Reuss Voigt Hill
#
# Bulk Modulus (GPa) = 28.51294 55.88879 42.20086
# Shear Modulus (GPa) = 24.15162 34.95274 29.55218
#
# Velocity S-wave (km/s) = 3.45304 4.15402 3.81964
# Velocity P-wave (km/s) = 5.47490 7.11335 6.34721
#
# Compressibility (1/GPa) = 0.03507180
#
# Stress axis : x y z
#
# Youngs Moduli (GPa) = 66.98219 123.94906 26.64773
#
# Poissons Ratio (x) = 0.10304 0.02336
# Poissons Ratio (y) = 0.05568 0.29360
# Poissons Ratio (z) = 0.05873 1.36566
#
# Static dielectric constant tensor:
#      x y z
#    x 1.803720 0.000000 -0.016670 
#    y 0.000000 1.795600 0.000000 
#    z -0.016670 0.000000 1.639980 
# 
# From -- ./inp_files/66411.got.cif
#   From: 2010.05.17/outbox.cif.g08.bks.cpg/sg15_34_cif.got.tgz:66411.got - 2010.06.03 18:47:42.
