data_PCOD9285886
_publ_section_title
;
Structure prediction by ZEFSAII (Michael W. Deem and Ramdas Pophale) SiO2 
 PCOD9285886
Probable space group: C 2/C
;
_chemical_formula_sum "Si O2"
_cell_formula_units_Z 64
_cell_length_a 23.898639
_cell_length_b 9.600158
_cell_length_c 13.620114
_cell_angle_alpha 90.000000
_cell_angle_beta 94.995825
_cell_angle_gamma 90.000000
_cell_volume 3113.001185
_symmetry_space_group_name_H-M "C 2/C"
_symmetry_group_IT_number 15
_symmetry_cell_setting 'monoclinic'
loop_
_space_group_symop_operation_xyz
x,y,z
-x,y,1/2-z
-x,-y,-z
x,-y,1/2+z
1/2+x,1/2+y,z
1/2-x,1/2+y,1/2-z
1/2-x,1/2-y,-z
1/2+x,1/2-y,1/2+z
loop_
_atom_site_type_symbol
_atom_site_label
_atom_site_fract_x
_atom_site_fract_y
_atom_site_fract_z
Si Si1 0.624343 0.498980 0.097420
Si Si2 0.836189 0.249712 0.532606
Si Si3 0.487492 0.896817 0.135195
Si Si4 0.501532 0.515128 0.866277
Si Si5 0.039035 0.312742 0.944213
Si Si6 0.395614 0.308715 0.567452
Si Si7 0.738418 0.141495 0.648212
Si Si8 0.695756 0.619329 0.283072
O O1 0.559671 0.535139 0.109687
O O2 0.659615 0.526105 0.200575
O O3 0.649748 0.605668 0.021831
O O4 0.624273 0.347781 0.045500
O O5 0.895696 0.309073 0.572387
O O6 0.794762 0.214014 0.614473
O O7 0.805148 0.347180 0.448790
O O8 0.500000 0.856921 0.250000
O O9 0.426617 0.837075 0.092427
O O10 0.488733 0.061856 0.119856
O O11 0.530185 0.839847 0.059033
O O12 0.500000 0.525927 0.750000
O O13 0.511900 0.666701 0.912325
O O14 0.553382 0.416813 0.902418
O O15 0.344905 0.338219 0.633949
O O16 0.715673 0.240184 0.731465
O O17 0.754071 0.983742 0.677629
#
# Coordination Sequence:
#
# PCOD9285886 Si02
#       8
#     8   8   8   8   8   8   8   8
#     4  11  21  38  66  98 125 158 208 259 311 365
#     4  10  21  42  68  83 122 171 207 260 314 362
#     4  11  26  40  59  93 133 166 200 245 313 389
#     4  12  21  35  67 101 126 164 205 249 303 380
#     4  11  23  43  60  90 133 167 202 248 310 380
#     4  12  22  39  65  94 129 158 209 255 307 373
#     4  10  23  43  64  91 120 159 220 263 313 368
#     4  11  24  42  65  95 122 164 211 269 314 372
#
# _framework density 20.55894
#
# number of rings (size 3 to 8) (size 9 to 14) (size 15 to 20)
#    0.000    1.000    5.000    1.875    3.500    1.000 
#    2.250    0.625    0.000    0.000    0.000    0.000 
#    0.000    0.000    0.000    0.000    0.000    0.000 
#
# Total GULP energy -178834.660307 kJ/mol
# GULP energy per Si atom -5588.583135 kJ/mol
# Density = 2.051215 g / cm^3
# Si number density = 20.558940 Si / 1000 Ang^3
#
#
#
# Elastic Constant Matrix: (Units=GPa)
#
#
# Indices 1 2 3 4 5 6 
#
# 1 76.3765 -0.9772 2.0356 0.0000 -17.6381 0.0000
# 2 -0.9772 58.5496 -13.3657 0.0000 2.0742 0.0000
# 3 2.0356 -13.3657 57.7418 0.0000 -21.1484 0.0000
# 4 0.0000 0.0000 0.0000 13.5434 0.0000 1.4159
# 5 -17.6381 2.0742 -21.1484 0.0000 28.9490 0.0000
# 6 0.0000 0.0000 0.0000 1.4159 0.0000 27.3090
#
#
#
# Elastic Compliance Matrix: (Units=1/GPa)
#
#
# Indices 1 2 3 4 5 6 
#
# 1 0.015947 0.000797 0.004314 0.000000 0.012811 0.000000
# 2 0.000797 0.018195 0.005303 0.000000 0.003056 0.000000
# 3 0.004314 0.005303 0.026238 0.000000 0.021416 0.000000
# 4 0.000000 0.000000 0.000000 0.074239 0.000000 -0.003849
# 5 0.012811 0.003056 0.021416 0.000000 0.057775 0.000000
# 6 0.000000 0.000000 0.000000 -0.003849 0.000000 0.036817
#
#
# Mechanical properties :
#
#
# Convention : Reuss Voigt Hill
#
# Bulk Modulus (GPa) = 12.31396 18.67258 15.49327
# Shear Modulus (GPa) = 21.23572 27.62531 24.43051
#
# Velocity S-wave (km/s) = 3.21739 3.66965 3.45094
# Velocity P-wave (km/s) = 4.45025 5.20166 4.84056
#
# Compressibility (1/GPa) = 0.08120861
#
# Stress axis : x y z
#
# Youngs Moduli (GPa) = 62.70890 54.95980 38.11292
#
# Poissons Ratio (x) = -0.04381 -0.16443
# Poissons Ratio (y) = -0.04999 -0.20211
# Poissons Ratio (z) = -0.27055 -0.29145
#
# Static dielectric constant tensor:
#      x y z
#    x 1.715770 0.000000 0.010410 
#    y 0.000000 1.744010 0.000000 
#    z 0.010410 0.000000 1.745080 
# 
# From -- ./inp_files/172374.got.cif
#   From: 2010.05.17/outbox.cif.g08.bks.cpg/sg15_87_cif.got.tgz:172374.got - 2010.06.03 18:47:42.
