data_PCOD9285744
_publ_section_title
;
Structure prediction by ZEFSAII (Michael W. Deem and Ramdas Pophale) SiO2 
 PCOD9285744
Probable space group: C 2/C
;
_chemical_formula_sum "Si O2"
_cell_formula_units_Z 48
_cell_length_a 21.609594
_cell_length_b 11.270039
_cell_length_c 12.826387
_cell_angle_alpha 90.000000
_cell_angle_beta 48.459671
_cell_angle_gamma 90.000000
_cell_volume 2338.093454
_symmetry_space_group_name_H-M "C 2/C"
_symmetry_group_IT_number 15
_symmetry_cell_setting 'monoclinic'
loop_
_space_group_symop_operation_xyz
x,y,z
-x,y,1/2-z
-x,-y,-z
x,-y,1/2+z
1/2+x,1/2+y,z
1/2-x,1/2+y,1/2-z
1/2-x,1/2-y,-z
1/2+x,1/2-y,1/2+z
loop_
_atom_site_type_symbol
_atom_site_label
_atom_site_fract_x
_atom_site_fract_y
_atom_site_fract_z
Si Si1 0.510422 0.385632 0.413772
Si Si2 0.553353 0.166514 0.892356
Si Si3 0.890816 0.541907 0.048313
Si Si4 0.625082 0.315964 0.108917
Si Si5 0.680248 0.151769 0.581705
Si Si6 0.808468 0.606344 0.351133
O O1 0.500000 0.500000 0.500000
O O2 0.498294 0.272955 0.501892
O O3 0.594460 0.380653 0.250560
O O4 0.438165 0.361519 0.408469
O O5 0.606908 0.204988 0.734053
O O6 0.608134 0.097211 0.918666
O O7 0.487393 0.071028 0.925369
O O8 0.850603 0.609491 0.191579
O O9 0.846379 0.597466 0.998863
O O10 0.630290 0.177199 0.138373
O O11 0.717217 0.340633 0.965361
O O12 0.750000 0.250000 0.500000
O O13 0.704983 0.031857 0.612714
#
# Coordination Sequence:
#
# PCOD9285744 Si02
#       6
#     8   8   8   8   8   8
#     4  11  24  41  65  95 129 170 214 271 328 390
#     4  10  22  42  66  93 125 171 216 262 326 391
#     4  10  21  42  66  93 126 167 219 268 320 389
#     4  10  23  43  65  91 128 173 220 259 319 404
#     4  11  25  39  64 100 132 163 213 278 333 378
#     4  10  22  43  65  92 125 177 218 261 322 393
#
# _framework density 20.529547999999998
#
# number of rings (size 3 to 8) (size 9 to 14) (size 15 to 20)
#    0.000    1.667    1.667    1.500    4.667    1.333 
#    6.000    0.000    0.000    0.000    0.000    0.000 
#    0.000    0.000    0.000    0.000    0.000    0.000 
#
# Total GULP energy -133676.300937 kJ/mol
# GULP energy per Si atom -5569.845872 kJ/mol
# Density = 2.048282 g / cm^3
# Si number density = 20.529548 Si / 1000 Ang^3
#
#
#
# Elastic Constant Matrix: (Units=GPa)
#
#
# Indices 1 2 3 4 5 6 
#
# 1 45.3970 11.1003 19.4491 0.0000 1.8748 0.0000
# 2 11.1003 77.5736 29.7361 0.0000 7.2622 0.0000
# 3 19.4491 29.7361 134.8195 0.0000 -6.9511 0.0000
# 4 0.0000 0.0000 0.0000 34.6269 0.0000 -0.5714
# 5 1.8748 7.2622 -6.9511 0.0000 26.5055 0.0000
# 6 0.0000 0.0000 0.0000 -0.5714 0.0000 29.2640
#
#
#
# Elastic Compliance Matrix: (Units=1/GPa)
#
#
# Indices 1 2 3 4 5 6 
#
# 1 0.023939 -0.002055 -0.003100 0.000000 -0.001943 0.000000
# 2 -0.002055 0.014870 -0.003230 0.000000 -0.004776 0.000000
# 3 -0.003100 -0.003230 0.008752 0.000000 0.003399 0.000000
# 4 0.000000 0.000000 0.000000 0.028889 0.000000 0.000564
# 5 -0.001943 -0.004776 0.003399 0.000000 0.040066 0.000000
# 6 0.000000 0.000000 0.000000 0.000564 0.000000 0.034183
#
#
# Mechanical properties :
#
#
# Convention : Reuss Voigt Hill
#
# Bulk Modulus (GPa) = 32.47686 42.04012 37.25849
# Shear Modulus (GPa) = 28.13226 31.24623 29.68924
#
# Velocity S-wave (km/s) = 3.70581 3.90553 3.80698
# Velocity P-wave (km/s) = 5.84505 6.39217 6.12473
#
# Compressibility (1/GPa) = 0.03079115
#
# Stress axis : x y z
#
# Youngs Moduli (GPa) = 41.77299 67.24888 114.25748
#
# Poissons Ratio (x) = 0.13821 0.35424
# Poissons Ratio (y) = 0.08585 0.36900
# Poissons Ratio (z) = 0.12951 0.21718
#
# Static dielectric constant tensor:
#      x y z
#    x 1.777500 0.000000 0.021260 
#    y 0.000000 0.559470 0.000000 
#    z 0.021260 0.000000 1.738690 
# 
# From -- ./inp_files/111465.got.cif
#   From: 2010.05.17/outbox.cif.g08.bks.cpg/sg15_56_cif.got.tgz:111465.got - 2010.06.03 18:47:42.
