data_PCOD9285498
_publ_section_title
;
Structure prediction by ZEFSAII (Michael W. Deem and Ramdas Pophale) SiO2 
 PCOD9285498
Probable space group: C 2/C
;
_chemical_formula_sum "Si O2"
_cell_formula_units_Z 60
_cell_length_a 8.692812
_cell_length_b 28.042735
_cell_length_c 11.242289
_cell_angle_alpha 90.000000
_cell_angle_beta 98.767182
_cell_angle_gamma 90.000000
_cell_volume 2708.514466
_symmetry_space_group_name_H-M "C 2/C"
_symmetry_group_IT_number 15
_symmetry_cell_setting 'monoclinic'
loop_
_space_group_symop_operation_xyz
x,y,z
-x,y,1/2-z
-x,-y,-z
x,-y,1/2+z
1/2+x,1/2+y,z
1/2-x,1/2+y,1/2-z
1/2-x,1/2-y,-z
1/2+x,1/2-y,1/2+z
loop_
_atom_site_type_symbol
_atom_site_label
_atom_site_fract_x
_atom_site_fract_y
_atom_site_fract_z
Si Si1 0.324142 0.632947 0.062094
Si Si2 0.340056 0.731543 0.687838
Si Si3 0.374920 0.311452 0.929191
Si Si4 0.265552 0.056926 0.801120
Si Si5 0.837942 0.656710 0.691486
Si Si6 0.829871 0.610954 0.205391
Si Si7 0.985744 0.049555 0.934128
Si Si8 0.500000 0.018158 0.250000
O O1 0.189950 0.646950 0.951250
O O2 0.419133 0.590381 0.010791
O O3 0.449948 0.675251 0.087450
O O4 0.261019 0.614909 0.180270
O O5 0.500000 0.754558 0.750000
O O6 0.365712 0.706550 0.563366
O O7 0.205091 0.770270 0.658085
O O8 0.296979 0.690795 0.776956
O O9 0.267197 0.358076 0.897972
O O10 0.330418 0.107422 0.764500
O O11 0.142980 0.042948 0.683739
O O12 0.153593 0.062329 0.900114
O O13 0.401209 0.017244 0.822853
O O14 0.000000 0.679437 0.750000
O O15 0.000000 0.632760 0.250000
O O16 0.875530 0.555984 0.180170
O O17 0.000000 0.000000 0.000000
#
# Coordination Sequence:
#
# PCOD9285498 Si02
#       8
#     8   8   8   8   8   8   8   4
#     4  11  23  45  66 100 137 186 236 288 351 419
#     4  11  24  47  74 107 139 177 236 283 360 417
#     4  11  24  45  76 101 139 185 225 296 346 428
#     4  10  21  42  62  93 139 174 238 282 348 405
#     4  11  24  42  68  99 136 181 229 292 342 413
#     4  10  25  42  68  98 143 189 236 279 357 418
#     4  10  22  37  65  95 126 180 229 289 340 412
#     4  10  22  42  62  98 146 194 226 298 334 428
#
# _framework density 22.152365
#
# number of rings (size 3 to 8) (size 9 to 14) (size 15 to 20)
#    0.400    1.067    2.000    2.400    5.600    1.067 
#    2.400    3.333    0.000    0.000    0.000    0.000 
#    0.000    0.000    0.000    0.000    0.000    0.000 
#
# Total GULP energy -167629.420826 kJ/mol
# GULP energy per Si atom -5587.647361 kJ/mol
# Density = 2.210194 g / cm^3
# Si number density = 22.152365 Si / 1000 Ang^3
#
#
#
# Elastic Constant Matrix: (Units=GPa)
#
#
# Indices 1 2 3 4 5 6 
#
# 1 118.4887 32.8487 37.4782 0.0000 -3.4974 0.0000
# 2 32.8487 93.0469 35.9866 0.0000 3.6118 0.0000
# 3 37.4782 35.9866 76.6869 0.0000 0.5004 0.0000
# 4 0.0000 0.0000 0.0000 25.4903 0.0000 16.2449
# 5 -3.4974 3.6118 0.5004 0.0000 29.5313 0.0000
# 6 0.0000 0.0000 0.0000 16.2449 0.0000 42.6658
#
#
#
# Elastic Compliance Matrix: (Units=1/GPa)
#
#
# Indices 1 2 3 4 5 6 
#
# 1 0.010368 -0.002147 -0.004070 0.000000 0.001559 0.000000
# 2 -0.002147 0.013642 -0.005340 0.000000 -0.001832 0.000000
# 3 -0.004070 -0.005340 0.017536 0.000000 -0.000126 0.000000
# 4 0.000000 0.000000 0.000000 0.051800 0.000000 -0.019723
# 5 0.001559 -0.001832 -0.000126 0.000000 0.034273 0.000000
# 6 0.000000 0.000000 0.000000 -0.019723 0.000000 0.030947
#
#
# Mechanical properties :
#
#
# Convention : Reuss Voigt Hill
#
# Bulk Modulus (GPa) = 54.25462 55.64995 54.95229
# Shear Modulus (GPa) = 26.62058 31.66472 29.14265
#
# Velocity S-wave (km/s) = 3.47032 3.78485 3.63099
# Velocity P-wave (km/s) = 6.37199 6.65403 6.51454
#
# Compressibility (1/GPa) = 0.01843161
#
# Stress axis : x y z
#
# Youngs Moduli (GPa) = 96.44964 73.30437 57.02561
#
# Poissons Ratio (x) = 0.15737 0.23209
# Poissons Ratio (y) = 0.20706 0.30454
# Poissons Ratio (z) = 0.39253 0.39148
#
# Static dielectric constant tensor:
#      x y z
#    x 1.881080 0.000000 0.014540 
#    y 0.000000 1.771540 0.000000 
#    z 0.014540 0.000000 1.799670 
# 
# From -- ./inp_files/81379.got.cif
#   From: 2010.05.17/outbox.cif.g08.bks.cpg/sg15_41_cif.got.tgz:81379.got - 2010.06.03 18:47:42.
