data_PCOD9285110
_publ_section_title
;
Structure prediction by ZEFSAII (Michael W. Deem and Ramdas Pophale) SiO2 
 PCOD9285110
Probable space group: C 2/C
;
_chemical_formula_sum "Si O2"
_cell_formula_units_Z 56
_cell_length_a 33.234570
_cell_length_b 7.592620
_cell_length_c 10.416033
_cell_angle_alpha 90.000000
_cell_angle_beta 116.449767
_cell_angle_gamma 90.000000
_cell_volume 2353.232787
_symmetry_space_group_name_H-M "C 2/C"
_symmetry_group_IT_number 15
_symmetry_cell_setting 'monoclinic'
loop_
_space_group_symop_operation_xyz
x,y,z
-x,y,1/2-z
-x,-y,-z
x,-y,1/2+z
1/2+x,1/2+y,z
1/2-x,1/2+y,1/2-z
1/2-x,1/2-y,-z
1/2+x,1/2-y,1/2+z
loop_
_atom_site_type_symbol
_atom_site_label
_atom_site_fract_x
_atom_site_fract_y
_atom_site_fract_z
Si Si1 0.187181 0.557548 0.895830
Si Si2 0.868244 0.801419 0.204610
Si Si3 0.878915 0.840316 0.786740
Si Si4 0.531829 0.191422 0.180150
Si Si5 0.521248 0.232298 0.646195
Si Si6 0.317699 0.598660 0.404621
Si Si7 0.760524 0.586659 0.794247
O O1 0.160628 0.375348 0.826073
O O2 0.151103 0.715625 0.849652
O O3 0.220947 0.588454 0.825123
O O4 0.214297 0.539794 0.068048
O O5 0.917002 0.743705 0.225254
O O6 0.878120 0.949846 0.323945
O O7 0.841874 0.934637 0.071509
O O8 0.930040 0.806219 0.821591
O O9 0.854322 0.779168 0.883916
O O10 0.500000 0.251658 0.250000
O O11 0.528313 0.979139 0.167803
O O12 0.513008 0.263268 0.019094
O O13 0.500000 0.295062 0.750000
O O14 0.292350 0.449810 0.287764
O O15 0.274402 0.723417 0.368304
#
# Coordination Sequence:
#
# PCOD9285110 Si02
#       7
#     8   8   8   8   8   8   8
#     4  10  24  44  63  95 132 174 216 273 322 385
#     4  11  24  40  66  95 131 172 217 271 324 388
#     4  11  24  41  65  96 134 169 220 269 326 385
#     4  10  21  41  67  93 131 172 212 263 324 390
#     4  10  22  40  67  97 128 172 216 261 320 392
#     4  10  25  41  63  99 130 171 222 273 323 387
#     4  10  24  41  67  89 131 174 215 275 320 384
#
# _framework density 23.797049999999999
#
# number of rings (size 3 to 8) (size 9 to 14) (size 15 to 20)
#    0.000    1.714    1.429    0.857    6.000    5.714 
#    0.000    0.000    0.000    0.000    0.000    0.000 
#    0.000    0.000    0.000    0.000    0.000    0.000 
#
# Total GULP energy -156056.746600 kJ/mol
# GULP energy per Si atom -5573.455236 kJ/mol
# Density = 2.374289 g / cm^3
# Si number density = 23.797050 Si / 1000 Ang^3
#
#
#
# Elastic Constant Matrix: (Units=GPa)
#
#
# Indices 1 2 3 4 5 6 
#
# 1 137.0924 23.0646 35.2446 0.0000 27.9947 0.0000
# 2 23.0646 90.3473 3.0743 0.0000 7.6377 0.0000
# 3 35.2446 3.0743 53.2324 0.0000 6.9381 0.0000
# 4 0.0000 0.0000 0.0000 -16.7931 0.0000 -4.5102
# 5 27.9947 7.6377 6.9381 0.0000 32.2535 0.0000
# 6 0.0000 0.0000 0.0000 -4.5102 0.0000 4.9505
#
#
#
# Elastic Compliance Matrix: (Units=1/GPa)
#
#
# Indices 1 2 3 4 5 6 
#
# 1 0.010692 -0.001888 -0.005986 0.000000 -0.007545 0.000000
# 2 -0.001888 0.011633 0.000744 0.000000 -0.001276 0.000000
# 3 -0.005986 0.000744 0.022688 0.000000 0.000139 0.000000
# 4 0.000000 0.000000 0.000000 -0.047842 0.000000 -0.043587
# 5 -0.007545 -0.001276 0.000139 0.000000 0.037826 0.000000
# 6 0.000000 0.000000 0.000000 -0.043587 0.000000 0.162290
#
#
# Mechanical properties :
#
#
# Convention : Reuss Voigt Hill
#
# Bulk Modulus (GPa) = 32.51732 44.82658 38.67195
# Shear Modulus (GPa) = 22.54315 18.70143 20.62229
#
# Velocity S-wave (km/s) = 3.08118 2.80638 2.94698
# Velocity P-wave (km/s) = 5.13345 5.42024 5.27879
#
# Compressibility (1/GPa) = 0.03075284
#
# Stress axis : x y z
#
# Youngs Moduli (GPa) = 93.52999 85.96300 44.07620
#
# Poissons Ratio (x) = 0.16229 0.26386
# Poissons Ratio (y) = 0.17658 -0.03281
# Poissons Ratio (z) = 0.55991 -0.06400
#
# Static dielectric constant tensor:
#      x y z
#    x 1.947860 0.000000 0.002350 
#    y 0.000000 2.234600 0.000000 
#    z 0.002350 0.000000 2.037550 
# 
# From -- ./inp_files/125998.got.cif
#   From: 2010.05.17/outbox.cif.g08.bks.cpg/sg15_63_cif.got.tgz:125998.got - 2010.06.03 18:47:42.
