data_PCOD9285925
_publ_section_title
;
Structure prediction by ZEFSAII (Michael W. Deem and Ramdas Pophale) SiO2 
 PCOD9285925
Probable space group: C 2/C
;
_chemical_formula_sum "Si O2"
_cell_formula_units_Z 56
_cell_length_a 14.856945
_cell_length_b 16.655263
_cell_length_c 17.193566
_cell_angle_alpha 90.000000
_cell_angle_beta 143.660924
_cell_angle_gamma 90.000000
_cell_volume 2521.048916
_symmetry_space_group_name_H-M "C 2/C"
_symmetry_group_IT_number 15
_symmetry_cell_setting 'monoclinic'
loop_
_space_group_symop_operation_xyz
x,y,z
-x,y,1/2-z
-x,-y,-z
x,-y,1/2+z
1/2+x,1/2+y,z
1/2-x,1/2+y,1/2-z
1/2-x,1/2-y,-z
1/2+x,1/2-y,1/2+z
loop_
_atom_site_type_symbol
_atom_site_label
_atom_site_fract_x
_atom_site_fract_y
_atom_site_fract_z
Si Si1 0.437141 0.921959 0.060275
Si Si2 0.571197 0.235453 0.377081
Si Si3 0.605243 0.603404 0.718278
Si Si4 0.977396 0.950049 0.566720
Si Si5 0.275745 0.846524 0.176427
Si Si6 0.579757 0.092341 0.487975
Si Si7 0.351452 0.663234 0.200419
O O1 0.268749 0.888785 0.932538
O O2 0.453770 0.016133 0.089227
O O3 0.549292 0.872285 0.192734
O O4 0.500590 0.915396 0.016042
O O5 0.500000 0.198202 0.250000
O O6 0.750000 0.250000 0.500000
O O7 0.494324 0.320595 0.332860
O O8 0.532747 0.176172 0.419688
O O9 0.502174 0.524426 0.641650
O O10 0.692239 0.627458 0.698663
O O11 0.740337 0.591078 0.872625
O O12 0.821185 0.900237 0.451499
O O13 0.099530 0.884255 0.685567
O O14 0.000000 0.000000 0.500000
O O15 0.277454 0.750827 0.164811
O O16 0.500000 0.673363 0.250000
#
# Coordination Sequence:
#
# PCOD9285925 Si02
#       7
#     8   8   8   8   8   8   8
#     4  10  22  42  72  95 128 179 229 280 338 397
#     4  12  25  41  63  96 138 180 223 275 346 414
#     4  10  21  43  66  94 136 176 223 281 344 405
#     4  10  23  43  70 101 129 178 230 278 332 407
#     4  10  23  42  68 104 130 170 234 283 329 402
#     4  10  21  42  68  96 131 178 229 280 337 408
#     4  12  25  43  69  99 145 184 215 280 355 408
#
# _framework density 22.212976000000001
#
# number of rings (size 3 to 8) (size 9 to 14) (size 15 to 20)
#    0.000    1.429    2.857    1.714    2.000    8.571 
#    2.571    0.714    0.000    0.000    0.000    0.000 
#    0.000    0.000    0.000    0.000    0.000    0.000 
#
# Total GULP energy -156332.114477 kJ/mol
# GULP energy per Si atom -5583.289803 kJ/mol
# Density = 2.216242 g / cm^3
# Si number density = 22.212976 Si / 1000 Ang^3
#
#
#
# Elastic Constant Matrix: (Units=GPa)
#
#
# Indices 1 2 3 4 5 6 
#
# 1 47.2554 26.8872 31.5670 0.0001 4.6099 0.0000
# 2 26.8872 143.0333 16.4644 0.0001 -5.8895 0.0000
# 3 31.5670 16.4644 93.2022 0.0003 2.8368 -0.0001
# 4 0.0001 0.0001 0.0003 20.1101 0.0001 23.6189
# 5 4.6099 -5.8895 2.8368 0.0001 26.3221 0.0000
# 6 0.0000 0.0000 -0.0001 23.6189 0.0000 -2.4501
#
#
#
# Elastic Compliance Matrix: (Units=1/GPa)
#
#
# Indices 1 2 3 4 5 6 
#
# 1 0.030769 -0.004929 -0.009384 0.000000 -0.005480 0.000000
# 2 -0.004929 0.008006 0.000175 0.000000 0.002636 0.000000
# 3 -0.009384 0.000175 0.013871 0.000000 0.000188 0.000000
# 4 0.000000 0.000000 0.000000 0.004036 0.000000 0.038903
# 5 -0.005480 0.002636 0.000188 0.000000 0.039520 0.000000
# 6 0.000000 0.000000 0.000000 0.038903 0.000000 -0.033124
#
#
# Mechanical properties :
#
#
# Convention : Reuss Voigt Hill
#
# Bulk Modulus (GPa) = 41.03362 48.14757 44.59060
# Shear Modulus (GPa) = 50.26179 22.70124 36.48151
#
# Velocity S-wave (km/s) = 4.76197 3.20031 4.05699
# Velocity P-wave (km/s) = 6.98198 5.94798 6.48562
#
# Compressibility (1/GPa) = 0.02437026
#
# Stress axis : x y z
#
# Youngs Moduli (GPa) = 32.49973 124.90003 72.09305
#
# Poissons Ratio (x) = 0.61569 0.67651
# Poissons Ratio (y) = 0.16021 -0.01262
# Poissons Ratio (z) = 0.30497 -0.02186
#
# Static dielectric constant tensor:
#      x y z
#    x 1.870950 0.000000 -0.010160 
#    y 0.000000 1.755400 0.000000 
#    z -0.010160 0.000000 1.804020 
# 
# From -- ./inp_files/249230.got.cif
#   From: 2010.05.17/outbox.cif.g08.bks.cpg/sg15_125_cif.got.tgz:249230.got - 2010.06.03 18:47:42.
