data_PCOD9285220
_publ_section_title
;
Structure prediction by ZEFSAII (Michael W. Deem and Ramdas Pophale) SiO2 
 PCOD9285220
Probable space group: C 2/C
;
_chemical_formula_sum "Si O2"
_cell_formula_units_Z 52
_cell_length_a 15.284932
_cell_length_b 28.467220
_cell_length_c 5.364022
_cell_angle_alpha 90.000000
_cell_angle_beta 66.672544
_cell_angle_gamma 90.000000
_cell_volume 2143.202661
_symmetry_space_group_name_H-M "C 2/C"
_symmetry_group_IT_number 15
_symmetry_cell_setting 'monoclinic'
loop_
_space_group_symop_operation_xyz
x,y,z
-x,y,1/2-z
-x,-y,-z
x,-y,1/2+z
1/2+x,1/2+y,z
1/2-x,1/2+y,1/2-z
1/2-x,1/2-y,-z
1/2+x,1/2-y,1/2+z
loop_
_atom_site_type_symbol
_atom_site_label
_atom_site_fract_x
_atom_site_fract_y
_atom_site_fract_z
Si Si1 0.615054 0.475420 0.130469
Si Si2 0.114572 0.819687 0.648820
Si Si3 0.392915 0.784990 0.252408
Si Si4 0.183349 0.870375 0.073449
Si Si5 0.500000 0.172777 0.250000
Si Si6 0.630691 0.876177 0.933689
Si Si7 0.391155 0.017486 0.057783
O O1 0.500000 0.478016 0.250000
O O2 0.648278 0.508537 0.319427
O O3 0.643171 0.422393 0.155325
O O4 0.148086 0.765876 0.647644
O O5 0.158506 0.840986 0.347008
O O6 0.000000 0.820484 0.750000
O O7 0.138119 0.848143 0.873668
O O8 0.500000 0.782270 0.250000
O O9 0.345241 0.832024 0.415625
O O10 0.414480 0.794150 0.936882
O O11 0.294000 0.874632 0.876535
O O12 0.470719 0.138153 0.064902
O O13 0.621343 0.929589 0.030655
O O14 0.349459 0.014429 0.384032
O O15 0.500000 0.000000 0.000000
#
# Coordination Sequence:
#
# PCOD9285220 Si02
#       7
#     8   8   8   8   4   8   8
#     4  10  21  41  68  95 130 176 225 273 346 415
#     4  11  25  46  71 101 140 182 234 283 359 416
#     4   9  23  41  70  97 133 190 233 286 336 428
#     4  12  27  42  70 107 143 177 227 299 342 418
#     4  10  22  44  70  90 136 190 232 280 338 410
#     4  11  26  42  67 102 141 182 237 284 354 411
#     4  10  23  39  64  94 128 179 230 283 333 402
#
# _framework density 24.262754000000001
#
# number of rings (size 3 to 8) (size 9 to 14) (size 15 to 20)
#    0.000    1.538    0.000    3.231   17.231    3.692 
#    0.000    0.000    0.000    0.000    0.000    0.000 
#    0.000    0.000    0.000    0.000    0.000    0.000 
#
# Total GULP energy -145330.184788 kJ/mol
# GULP energy per Si atom -5589.622492 kJ/mol
# Density = 2.420753 g / cm^3
# Si number density = 24.262754 Si / 1000 Ang^3
#
#
#
# Elastic Constant Matrix: (Units=GPa)
#
#
# Indices 1 2 3 4 5 6 
#
# 1 53.0630 9.4093 9.9960 0.0000 1.5386 0.0000
# 2 9.4093 179.1836 51.8661 0.0000 12.6406 0.0000
# 3 9.9960 51.8661 131.8553 0.0000 11.1788 0.0000
# 4 0.0000 0.0000 0.0000 41.6439 0.0000 5.4554
# 5 1.5386 12.6406 11.1788 0.0000 37.7943 0.0000
# 6 0.0000 0.0000 0.0000 5.4554 0.0000 16.2721
#
#
#
# Elastic Compliance Matrix: (Units=1/GPa)
#
#
# Indices 1 2 3 4 5 6 
#
# 1 0.019190 -0.000651 -0.001181 0.000000 -0.000214 0.000000
# 2 -0.000651 0.006394 -0.002346 0.000000 -0.001418 0.000000
# 3 -0.001181 -0.002346 0.008745 0.000000 -0.001754 0.000000
# 4 0.000000 0.000000 0.000000 0.025116 0.000000 -0.008421
# 5 -0.000214 -0.001418 -0.001754 0.000000 0.027461 0.000000
# 6 0.000000 0.000000 0.000000 -0.008421 0.000000 0.064278
#
#
# Mechanical properties :
#
#
# Convention : Reuss Voigt Hill
#
# Bulk Modulus (GPa) = 38.49922 56.29386 47.39654
# Shear Modulus (GPa) = 29.72728 38.66410 34.19569
#
# Velocity S-wave (km/s) = 3.50412 3.99627 3.75826
# Velocity P-wave (km/s) = 5.68101 6.67426 6.19756
#
# Compressibility (1/GPa) = 0.02597455
#
# Stress axis : x y z
#
# Youngs Moduli (GPa) = 52.11171 156.39578 114.35214
#
# Poissons Ratio (x) = 0.10179 0.13500
# Poissons Ratio (y) = 0.03392 0.26822
# Poissons Ratio (z) = 0.06152 0.36683
#
# Static dielectric constant tensor:
#      x y z
#    x 1.993020 0.000000 -0.078040 
#    y 0.000000 1.893260 0.000000 
#    z -0.078040 0.000000 2.090300 
# 
# From -- ./inp_files/11460.got.cif
#   From: 2010.05.17/outbox.cif.g08.bks.cpg/sg15_6_cif.got.tgz:11460.got - 2010.06.03 18:47:42.
