data_PCOD9285891
_publ_section_title
;
Structure prediction by ZEFSAII (Michael W. Deem and Ramdas Pophale) SiO2 
 PCOD9285891
Probable space group: C 2/C
;
_chemical_formula_sum "Si O2"
_cell_formula_units_Z 40
_cell_length_a 12.290276
_cell_length_b 28.381825
_cell_length_c 9.483157
_cell_angle_alpha 90.000000
_cell_angle_beta 142.757356
_cell_angle_gamma 90.000000
_cell_volume 2001.925540
_symmetry_space_group_name_H-M "C 2/C"
_symmetry_group_IT_number 15
_symmetry_cell_setting 'monoclinic'
loop_
_space_group_symop_operation_xyz
x,y,z
-x,y,1/2-z
-x,-y,-z
x,-y,1/2+z
1/2+x,1/2+y,z
1/2-x,1/2+y,1/2-z
1/2-x,1/2-y,-z
1/2+x,1/2-y,1/2+z
loop_
_atom_site_type_symbol
_atom_site_label
_atom_site_fract_x
_atom_site_fract_y
_atom_site_fract_z
Si Si1 0.820352 0.380366 0.001660
Si Si2 0.332056 0.362218 0.356037
Si Si3 0.103141 0.789551 0.502763
Si Si4 0.973234 0.048448 0.390464
Si Si5 0.489390 0.810327 0.957847
O O1 0.707852 0.418914 0.797412
O O2 0.895959 0.335713 0.994454
O O3 0.706794 0.360261 0.016121
O O4 0.000000 0.404277 0.250000
O O5 0.497270 0.329770 0.479030
O O6 0.381729 0.416417 0.390155
O O7 0.152571 0.345394 0.091200
O O8 0.084253 0.740516 0.568445
O O9 0.000000 0.784185 0.250000
O O10 0.310247 0.801405 0.682371
O O11 0.000000 0.040699 0.250000
O O12 0.000000 0.000000 0.500000
#
# Coordination Sequence:
#
# PCOD9285891 Si02
#       5
#     8   8   8   8   8
#     4   9  20  41  64  90 122 157 205 259 309 363
#     4  10  22  40  61  89 120 161 200 258 304 361
#     4  12  24  37  58  87 131 170 207 249 302 361
#     4  10  21  42  68  90 124 158 204 260 321 369
#     4  11  22  39  60  90 123 167 205 247 303 361
#
# _framework density 19.980764000000001
#
# number of rings (size 3 to 8) (size 9 to 14) (size 15 to 20)
#    0.000    1.600    4.000    0.600    0.000    1.600 
#    3.600    9.000    0.000    0.000    0.000    0.000 
#    0.000    0.000    0.000    0.000    0.000    0.000 
#
# Total GULP energy -111387.612103 kJ/mol
# GULP energy per Si atom -5569.380605 kJ/mol
# Density = 1.993529 g / cm^3
# Si number density = 19.980764 Si / 1000 Ang^3
#
#
#
# Elastic Constant Matrix: (Units=GPa)
#
#
# Indices 1 2 3 4 5 6 
#
# 1 50.8973 63.0805 26.7061 0.0000 6.8361 0.0000
# 2 63.0805 181.4639 62.5546 0.0000 -0.5391 0.0000
# 3 26.7061 62.5546 146.6119 0.0000 29.2939 0.0000
# 4 0.0000 0.0000 0.0000 20.1523 0.0000 -4.7972
# 5 6.8361 -0.5391 29.2939 0.0000 21.9796 0.0000
# 6 0.0000 0.0000 0.0000 -4.7972 0.0000 26.9953
#
#
#
# Elastic Compliance Matrix: (Units=1/GPa)
#
#
# Indices 1 2 3 4 5 6 
#
# 1 0.037747 -0.013844 0.001969 0.000000 -0.014704 0.000000
# 2 -0.013844 0.012011 -0.004800 0.000000 0.010998 0.000000
# 3 0.001969 -0.004800 0.011798 0.000000 -0.016454 0.000000
# 4 0.000000 0.000000 0.000000 0.051814 0.000000 0.009208
# 5 -0.014704 0.010998 -0.016454 0.000000 0.072269 0.000000
# 6 0.000000 0.000000 0.000000 0.009208 0.000000 0.038680
#
#
# Mechanical properties :
#
#
# Convention : Reuss Voigt Hill
#
# Bulk Modulus (GPa) = 35.45519 75.96172 55.70846
# Shear Modulus (GPa) = 18.72165 28.93424 23.82794
#
# Velocity S-wave (km/s) = 3.06434 3.80953 3.45707
# Velocity P-wave (km/s) = 5.50485 7.57957 6.62395
#
# Compressibility (1/GPa) = 0.02820461
#
# Stress axis : x y z
#
# Youngs Moduli (GPa) = 26.49217 83.25973 84.76170
#
# Poissons Ratio (x) = 1.15265 -0.16688
# Poissons Ratio (y) = 0.36676 0.40688
# Poissons Ratio (z) = -0.05216 0.39967
#
# Static dielectric constant tensor:
#      x y z
#    x 1.740180 0.000000 0.004670 
#    y 0.000000 1.693360 0.000000 
#    z 0.004670 0.000000 1.812700 
# 
# From -- ./inp_files/100739.got.cif
#   From: 2010.05.17/outbox.cif.g08.bks.cpg/sg15_51_cif.got.tgz:100739.got - 2010.06.03 18:47:42.
