data_PCOD9285482
_publ_section_title
;
Structure prediction by ZEFSAII (Michael W. Deem and Ramdas Pophale) SiO2 
 PCOD9285482
Probable space group: C 2/C
;
_chemical_formula_sum "Si O2"
_cell_formula_units_Z 48
_cell_length_a 14.176593
_cell_length_b 19.504970
_cell_length_c 9.480682
_cell_angle_alpha 90.000000
_cell_angle_beta 110.408500
_cell_angle_gamma 90.000000
_cell_volume 2456.988044
_symmetry_space_group_name_H-M "C 2/C"
_symmetry_group_IT_number 15
_symmetry_cell_setting 'monoclinic'
loop_
_space_group_symop_operation_xyz
x,y,z
-x,y,1/2-z
-x,-y,-z
x,-y,1/2+z
1/2+x,1/2+y,z
1/2-x,1/2+y,1/2-z
1/2-x,1/2-y,-z
1/2+x,1/2-y,1/2+z
loop_
_atom_site_type_symbol
_atom_site_label
_atom_site_fract_x
_atom_site_fract_y
_atom_site_fract_z
Si Si1 0.495616 0.204279 0.079272
Si Si2 0.401826 0.112401 0.604527
Si Si3 0.242218 0.503266 0.597894
Si Si4 0.416203 0.346749 0.319783
Si Si5 0.803437 0.653551 0.830988
Si Si6 0.381820 0.491945 0.420019
O O1 0.500000 0.189373 0.250000
O O2 0.533738 0.281959 0.079773
O O3 0.561011 0.155332 0.011432
O O4 0.383070 0.194486 0.964632
O O5 0.500000 0.091734 0.750000
O O6 0.336782 0.049283 0.510579
O O7 0.335657 0.155760 0.682784
O O8 0.190016 0.572632 0.624377
O O9 0.323625 0.520596 0.522353
O O10 0.316532 0.476152 0.758973
O O11 0.500000 0.370768 0.250000
O O12 0.310227 0.322774 0.198996
O O13 0.378206 0.409679 0.395193
O O14 0.500000 0.500000 0.500000
#
# Coordination Sequence:
#
# PCOD9285482 Si02
#       6
#     8   8   8   8   8   8
#     4  10  24  39  64  91 121 168 215 252 311 377
#     4  10  22  42  61  93 129 164 206 262 316 368
#     4  11  21  39  63  92 125 170 201 261 319 364
#     4  10  21  42  62  89 129 166 202 260 313 367
#     4  10  22  42  61  89 133 162 203 263 317 363
#     4  11  22  40  63  93 127 161 210 259 317 373
#
# _framework density 19.536114000000001
#
# number of rings (size 3 to 8) (size 9 to 14) (size 15 to 20)
#    0.000    1.667    3.333    2.500    2.333    6.667 
#    3.000    3.333    0.000    0.000    0.000    0.000 
#    0.000    0.000    0.000    0.000    0.000    0.000 
#
# Total GULP energy -133702.581284 kJ/mol
# GULP energy per Si atom -5570.940887 kJ/mol
# Density = 1.949165 g / cm^3
# Si number density = 19.536114 Si / 1000 Ang^3
#
#
#
# Elastic Constant Matrix: (Units=GPa)
#
#
# Indices 1 2 3 4 5 6 
#
# 1 107.1968 14.1803 27.7262 0.0000 8.6167 0.0000
# 2 14.1803 53.2090 16.2003 0.0000 14.8454 0.0000
# 3 27.7262 16.2003 115.0019 0.0000 5.2407 0.0000
# 4 0.0000 0.0000 0.0000 19.4394 0.0000 7.6822
# 5 8.6167 14.8454 5.2407 0.0000 46.3954 0.0000
# 6 0.0000 0.0000 0.0000 7.6822 0.0000 30.8740
#
#
#
# Elastic Compliance Matrix: (Units=1/GPa)
#
#
# Indices 1 2 3 4 5 6 
#
# 1 0.010208 -0.001758 -0.002164 0.000000 -0.001089 0.000000
# 2 -0.001758 0.021755 -0.002351 0.000000 -0.006369 0.000000
# 3 -0.002164 -0.002351 0.009545 0.000000 0.000076 0.000000
# 4 0.000000 0.000000 0.000000 0.057052 0.000000 -0.014196
# 5 -0.001089 -0.006369 0.000076 0.000000 0.023785 0.000000
# 6 0.000000 0.000000 0.000000 -0.014196 0.000000 0.035922
#
#
# Mechanical properties :
#
#
# Convention : Reuss Voigt Hill
#
# Bulk Modulus (GPa) = 34.52622 43.51347 39.01985
# Shear Modulus (GPa) = 27.70592 33.82849 30.76721
#
# Velocity S-wave (km/s) = 3.76997 4.16575 3.97279
# Velocity P-wave (km/s) = 6.05489 6.74238 6.40786
#
# Compressibility (1/GPa) = 0.02896349
#
# Stress axis : x y z
#
# Youngs Moduli (GPa) = 97.95856 45.96659 104.76819
#
# Poissons Ratio (x) = 0.08080 0.22671
# Poissons Ratio (y) = 0.17220 0.24626
# Poissons Ratio (z) = 0.21197 0.10805
#
# Static dielectric constant tensor:
#      x y z
#    x 1.710850 0.000000 0.017720 
#    y 0.000000 1.684820 0.000000 
#    z 0.017720 0.000000 1.653730 
# 
# From -- ./inp_files/40966.got.cif
#   From: 2010.05.17/outbox.cif.g08.bks.cpg/sg15_21_cif.got.tgz:40966.got - 2010.06.03 18:47:42.
