data_PCOD9285904
_publ_section_title
;
Structure prediction by ZEFSAII (Michael W. Deem and Ramdas Pophale) SiO2 
 PCOD9285904
Probable space group: C 2/C
;
_chemical_formula_sum "Si O2"
_cell_formula_units_Z 40
_cell_length_a 11.303289
_cell_length_b 12.037057
_cell_length_c 13.442374
_cell_angle_alpha 90.000000
_cell_angle_beta 110.083942
_cell_angle_gamma 90.000000
_cell_volume 1717.729715
_symmetry_space_group_name_H-M "C 2/C"
_symmetry_group_IT_number 15
_symmetry_cell_setting 'monoclinic'
loop_
_space_group_symop_operation_xyz
x,y,z
-x,y,1/2-z
-x,-y,-z
x,-y,1/2+z
1/2+x,1/2+y,z
1/2-x,1/2+y,1/2-z
1/2-x,1/2-y,-z
1/2+x,1/2-y,1/2+z
loop_
_atom_site_type_symbol
_atom_site_label
_atom_site_fract_x
_atom_site_fract_y
_atom_site_fract_z
Si Si1 0.722138 0.890091 0.569923
Si Si2 0.656037 0.682499 0.046897
Si Si3 0.134154 0.671485 0.254600
Si Si4 0.448015 0.785229 0.124541
Si Si5 0.612735 0.415591 0.340534
O O1 0.649852 0.837654 0.642275
O O2 0.635038 0.882860 0.448168
O O3 0.850078 0.818656 0.593792
O O4 0.763166 0.011774 0.614622
O O5 0.747948 0.620946 0.151225
O O6 0.563579 0.756587 0.085494
O O7 0.750000 0.750000 0.000000
O O8 0.578189 0.610649 0.945051
O O9 0.134304 0.801693 0.286279
O O10 0.000000 0.625427 0.250000
O O11 0.500000 0.803796 0.250000
O O12 0.500000 0.475828 0.250000
#
# Coordination Sequence:
#
# PCOD9285904 Si02
#       5
#     8   8   8   8   8
#     4  11  23  41  68 102 134 172 225 282 337 382
#     4  10  21  42  68  92 132 184 216 266 335 402
#     4  10  21  44  69  94 138 179 222 270 333 405
#     4  11  22  41  66  98 137 174 218 283 338 383
#     4  10  22  41  68 101 129 177 232 268 322 410
#
# _framework density 23.286552
#
# number of rings (size 3 to 8) (size 9 to 14) (size 15 to 20)
#    0.000    1.600    2.000    4.200    0.000    0.800 
#    7.200   10.000    0.000    1.200    0.000    0.000 
#    0.000    0.000    0.000    0.000    0.000    0.000 
#
# Total GULP energy -111784.057441 kJ/mol
# GULP energy per Si atom -5589.202872 kJ/mol
# Density = 2.323355 g / cm^3
# Si number density = 23.286552 Si / 1000 Ang^3
#
#
#
# Elastic Constant Matrix: (Units=GPa)
#
#
# Indices 1 2 3 4 5 6 
#
# 1 123.4318 16.0366 69.5826 0.0000 2.6222 0.0000
# 2 16.0366 40.9077 39.5275 0.0000 3.7598 0.0000
# 3 69.5826 39.5275 189.8844 0.0000 35.3335 0.0000
# 4 0.0000 0.0000 0.0000 6.5989 0.0000 8.0933
# 5 2.6222 3.7598 35.3335 0.0000 54.2775 0.0000
# 6 0.0000 0.0000 0.0000 8.0933 0.0000 17.1485
#
#
#
# Elastic Compliance Matrix: (Units=1/GPa)
#
#
# Indices 1 2 3 4 5 6 
#
# 1 0.010452 -0.000249 -0.004195 0.000000 0.002244 0.000000
# 2 -0.000249 0.030862 -0.006756 0.000000 0.002272 0.000000
# 3 -0.004195 -0.006756 0.009200 0.000000 -0.005318 0.000000
# 4 0.000000 0.000000 0.000000 0.359817 0.000000 -0.169817
# 5 0.002244 0.002272 -0.005318 0.000000 0.021620 0.000000
# 6 0.000000 0.000000 0.000000 -0.169817 0.000000 0.138460
#
#
# Mechanical properties :
#
#
# Convention : Reuss Voigt Hill
#
# Bulk Modulus (GPa) = 35.57223 67.16858 51.37041
# Shear Modulus (GPa) = 8.30313 30.87679 19.58996
#
# Velocity S-wave (km/s) = 1.89034 3.64531 2.90359
# Velocity P-wave (km/s) = 4.48035 6.82823 5.77487
#
# Compressibility (1/GPa) = 0.02811182
#
# Stress axis : x y z
#
# Youngs Moduli (GPa) = 95.67993 32.40214 108.69912
#
# Poissons Ratio (x) = 0.00808 0.45604
# Poissons Ratio (y) = 0.02387 0.73435
# Poissons Ratio (z) = 0.40142 0.21890
#
# Static dielectric constant tensor:
#      x y z
#    x 1.929000 0.000000 0.068450 
#    y 0.000000 1.956390 0.000000 
#    z 0.068450 0.000000 1.904420 
# 
# From -- ./inp_files/85714.got.cif
#   From: 2010.05.17/outbox.cif.g08.bks.cpg/sg15_43_cif.got.tgz:85714.got - 2010.06.03 18:47:42.
