data_PCOD9285234
_publ_section_title
;
Structure prediction by ZEFSAII (Michael W. Deem and Ramdas Pophale) SiO2 
 PCOD9285234
Probable space group: C 2/C
;
_chemical_formula_sum "Si O2"
_cell_formula_units_Z 56
_cell_length_a 11.714789
_cell_length_b 9.447090
_cell_length_c 19.474239
_cell_angle_alpha 90.000000
_cell_angle_beta 90.204991
_cell_angle_gamma 90.000000
_cell_volume 2155.213206
_symmetry_space_group_name_H-M "C 2/C"
_symmetry_group_IT_number 15
_symmetry_cell_setting 'monoclinic'
loop_
_space_group_symop_operation_xyz
x,y,z
-x,y,1/2-z
-x,-y,-z
x,-y,1/2+z
1/2+x,1/2+y,z
1/2-x,1/2+y,1/2-z
1/2-x,1/2-y,-z
1/2+x,1/2-y,1/2+z
loop_
_atom_site_type_symbol
_atom_site_label
_atom_site_fract_x
_atom_site_fract_y
_atom_site_fract_z
Si Si1 0.752447 0.764373 0.764270
Si Si2 0.248150 0.517764 0.159430
Si Si3 0.460552 0.801061 0.058525
Si Si4 0.004177 0.593851 0.094008
Si Si5 0.370109 0.479613 0.529013
Si Si6 0.041071 0.157592 0.685293
Si Si7 0.842407 0.909350 0.894114
O O1 0.661598 0.538934 0.896577
O O2 0.628241 0.751072 0.730823
O O3 0.807144 0.853995 0.701879
O O4 0.764400 0.853102 0.833478
O O5 0.215052 0.395183 0.213721
O O6 0.136390 0.557913 0.114667
O O7 0.559858 0.710364 0.095575
O O8 0.437905 0.945046 0.099680
O O9 0.361018 0.688689 0.042149
O O10 0.996732 0.648521 0.016104
O O11 0.974870 0.725306 0.141777
O O12 0.500000 0.500000 0.500000
O O13 0.295749 0.552889 0.469669
O O14 0.104293 0.055537 0.633025
O O15 0.000000 0.063694 0.750000
#
# Coordination Sequence:
#
# PCOD9285234 Si02
#       7
#     8   8   8   8   8   8   8
#     4  11  24  45  71 101 140 191 238 291 361 428
#     4  11  24  46  71 103 144 186 241 296 359 434
#     4  10  21  41  68  97 140 177 231 289 353 422
#     4  10  22  44  63  97 147 178 229 293 357 419
#     4  10  24  43  71 105 136 183 241 292 353 425
#     4  11  25  44  70 101 139 189 239 293 353 434
#     4  11  22  43  69  99 138 182 243 288 352 430
#
# _framework density 25.983509999999999
#
# number of rings (size 3 to 8) (size 9 to 14) (size 15 to 20)
#    0.000    1.429    4.286    0.000    4.000    1.143 
#   10.286    0.714    0.000    0.000    0.000    0.000 
#    0.000    0.000    0.000    0.000    0.000    0.000 
#
# Total GULP energy -156336.904713 kJ/mol
# GULP energy per Si atom -5583.460883 kJ/mol
# Density = 2.592437 g / cm^3
# Si number density = 25.983510 Si / 1000 Ang^3
#
#
#
# Elastic Constant Matrix: (Units=GPa)
#
#
# Indices 1 2 3 4 5 6 
#
# 1 54.9104 10.0949 27.8474 0.0000 7.0802 0.0000
# 2 10.0949 147.6154 56.9323 0.0000 -2.6873 0.0000
# 3 27.8474 56.9323 158.3318 0.0000 -11.2098 0.0000
# 4 0.0000 0.0000 0.0000 63.6957 0.0000 11.0572
# 5 7.0802 -2.6873 -11.2098 0.0000 38.6616 0.0000
# 6 0.0000 0.0000 0.0000 11.0572 0.0000 18.1436
#
#
#
# Elastic Compliance Matrix: (Units=1/GPa)
#
#
# Indices 1 2 3 4 5 6 
#
# 1 0.020899 0.000039 -0.004044 0.000000 -0.004997 0.000000
# 2 0.000039 0.007868 -0.002857 0.000000 -0.000289 0.000000
# 3 -0.004044 -0.002857 0.008262 0.000000 0.002938 0.000000
# 4 0.000000 0.000000 0.000000 0.017557 0.000000 -0.010700
# 5 -0.004997 -0.000289 0.002938 0.000000 0.027612 0.000000
# 6 0.000000 0.000000 0.000000 -0.010700 0.000000 0.061637
#
#
# Mechanical properties :
#
#
# Convention : Reuss Voigt Hill
#
# Bulk Modulus (GPa) = 42.90398 61.17854 52.04126
# Shear Modulus (GPa) = 30.24317 41.83238 36.03777
#
# Velocity S-wave (km/s) = 3.41535 4.01678 3.72822
# Velocity P-wave (km/s) = 5.66575 6.71632 6.21328
#
# Compressibility (1/GPa) = 0.02330786
#
# Stress axis : x y z
#
# Youngs Moduli (GPa) = 47.84844 127.09507 121.03342
#
# Poissons Ratio (x) = -0.00500 0.48942
# Poissons Ratio (y) = -0.00188 0.34574
# Poissons Ratio (z) = 0.19349 0.36305
#
# Static dielectric constant tensor:
#      x y z
#    x 2.411110 0.000000 -0.099130 
#    y 0.000000 2.104310 0.000000 
#    z -0.099130 0.000000 2.080930 
# 
# From -- ./inp_files/297996.got.cif
#   From: 2010.05.17/outbox.cif.g08.bks.cpg/sg15_149_cif.got.tgz:297996.got - 2010.06.03 18:47:42.
