data_PCOD9285445
_publ_section_title
;
Structure prediction by ZEFSAII (Michael W. Deem and Ramdas Pophale) SiO2 
 PCOD9285445
Probable space group: C 2/C
;
_chemical_formula_sum "Si O2"
_cell_formula_units_Z 48
_cell_length_a 24.281255
_cell_length_b 20.085309
_cell_length_c 14.564503
_cell_angle_alpha 90.000000
_cell_angle_beta 21.276324
_cell_angle_gamma 90.000000
_cell_volume 2577.459418
_symmetry_space_group_name_H-M "C 2/C"
_symmetry_group_IT_number 15
_symmetry_cell_setting 'monoclinic'
loop_
_space_group_symop_operation_xyz
x,y,z
-x,y,1/2-z
-x,-y,-z
x,-y,1/2+z
1/2+x,1/2+y,z
1/2-x,1/2+y,1/2-z
1/2-x,1/2-y,-z
1/2+x,1/2-y,1/2+z
loop_
_atom_site_type_symbol
_atom_site_label
_atom_site_fract_x
_atom_site_fract_y
_atom_site_fract_z
Si Si1 0.052350 0.304794 0.566521
Si Si2 0.936391 0.927804 0.619997
Si Si3 0.393854 0.350928 0.497697
Si Si4 0.703461 0.039195 0.632370
Si Si5 0.868461 0.870553 0.020272
Si Si6 0.888290 0.394004 0.674854
O O1 0.056641 0.224999 0.560474
O O2 0.220945 0.327863 0.274898
O O3 0.000000 0.326211 0.750000
O O4 0.938747 0.339648 0.671350
O O5 0.913864 0.890177 0.560301
O O6 0.051947 0.891455 0.509335
O O7 0.783030 0.937131 0.916169
O O8 0.000000 0.000000 0.500000
O O9 0.500000 0.376691 0.250000
O O10 0.224003 0.360233 0.723244
O O11 0.804540 0.066596 0.560639
O O12 0.689064 0.959539 0.660117
O O13 0.540380 0.074488 0.894730
O O14 0.000000 0.839829 0.750000
#
# Coordination Sequence:
#
# PCOD9285445 Si02
#       6
#     8   8   8   8   8   8
#     4  10  24  39  63  89 117 171 206 247 307 365
#     4  11  22  36  64  93 119 160 204 244 309 374
#     4  11  25  39  59  92 126 162 201 254 305 359
#     4   9  20  40  63  92 121 161 197 258 312 351
#     4   9  20  41  60  88 125 156 202 251 307 367
#     4  10  21  42  61  87 130 153 203 263 301 366
#
# _framework density 18.622990999999999
#
# number of rings (size 3 to 8) (size 9 to 14) (size 15 to 20)
#    0.000    2.000    0.000    2.000    7.000    3.333 
#    3.000    2.500    0.000    0.000    0.000    0.000 
#    0.000    0.000    0.000    0.000    0.000    0.000 
#
# Total GULP energy -133954.456817 kJ/mol
# GULP energy per Si atom -5581.435701 kJ/mol
# Density = 1.858060 g / cm^3
# Si number density = 18.622991 Si / 1000 Ang^3
#
#
#
# Elastic Constant Matrix: (Units=GPa)
#
#
# Indices 1 2 3 4 5 6 
#
# 1 181.0820 74.4467 71.4676 0.0019 7.5311 0.0000
# 2 74.4467 88.6831 33.7568 0.0089 5.1686 0.0003
# 3 71.4676 33.7568 95.6321 0.0105 6.0309 0.0009
# 4 0.0019 0.0089 0.0105 17.9348 -0.0011 -0.1568
# 5 7.5311 5.1686 6.0309 -0.0011 28.0885 -0.0006
# 6 0.0000 0.0003 0.0009 -0.1568 -0.0006 18.0697
#
#
#
# Elastic Compliance Matrix: (Units=1/GPa)
#
#
# Indices 1 2 3 4 5 6 
#
# 1 0.010409 -0.006657 -0.005403 0.000005 -0.000406 0.000000
# 2 -0.006657 0.017341 -0.001072 -0.000007 -0.001176 0.000000
# 3 -0.005403 -0.001072 0.014972 -0.000008 -0.001569 -0.000001
# 4 0.000005 -0.000007 -0.000008 0.055762 0.000004 0.000484
# 5 -0.000406 -0.001176 -0.001569 0.000004 0.036264 0.000001
# 6 0.000000 0.000000 -0.000001 0.000484 0.000001 0.055346
#
#
# Mechanical properties :
#
#
# Convention : Reuss Voigt Hill
#
# Bulk Modulus (GPa) = 60.76385 80.52660 70.64522
# Shear Modulus (GPa) = 22.53844 25.20034 23.86939
#
# Velocity S-wave (km/s) = 3.48264 3.68256 3.58399
# Velocity P-wave (km/s) = 6.99077 7.83683 7.42586
#
# Compressibility (1/GPa) = 0.01645715
#
# Stress axis : x y z
#
# Youngs Moduli (GPa) = 96.07370 57.66554 66.79230
#
# Poissons Ratio (x) = 0.38391 0.36088
# Poissons Ratio (y) = 0.63961 0.07159
# Poissons Ratio (z) = 0.51909 0.06181
#
# Static dielectric constant tensor:
#      x y z
#    x 1.609300 0.000000 0.004460 
#    y 0.000000 1.630290 0.000000 
#    z 0.004460 0.000000 1.679000 
# 
# From -- ./inp_files/174481.got.cif
#   From: 2010.05.17/outbox.cif.g08.bks.cpg/sg15_88_cif.got.tgz:174481.got - 2010.06.03 18:47:42.
