data_PCOD9285042
_publ_section_title
;
Structure prediction by ZEFSAII (Michael W. Deem and Ramdas Pophale) SiO2 
 PCOD9285042
Probable space group: C 2/C
;
_chemical_formula_sum "Si O2"
_cell_formula_units_Z 60
_cell_length_a 9.469504
_cell_length_b 29.162528
_cell_length_c 10.599961
_cell_angle_alpha 90.000000
_cell_angle_beta 101.194423
_cell_angle_gamma 90.000000
_cell_volume 2871.535502
_symmetry_space_group_name_H-M "C 2/C"
_symmetry_group_IT_number 15
_symmetry_cell_setting 'monoclinic'
loop_
_space_group_symop_operation_xyz
x,y,z
-x,y,1/2-z
-x,-y,-z
x,-y,1/2+z
1/2+x,1/2+y,z
1/2-x,1/2+y,1/2-z
1/2-x,1/2-y,-z
1/2+x,1/2-y,1/2+z
loop_
_atom_site_type_symbol
_atom_site_label
_atom_site_fract_x
_atom_site_fract_y
_atom_site_fract_z
Si Si1 0.160453 0.151518 0.727056
Si Si2 0.317872 0.230461 0.636717
Si Si3 0.496855 0.921744 0.606923
Si Si4 0.433536 0.612241 0.043327
Si Si5 0.178050 0.039814 0.047077
Si Si6 0.210322 0.031890 0.339149
Si Si7 0.031503 0.644551 0.620903
Si Si8 0.000000 0.189921 0.250000
O O1 0.196128 0.202644 0.688362
O O2 0.163333 0.122689 0.596348
O O3 0.293519 0.144133 0.846437
O O4 0.000000 0.145925 0.750000
O O5 0.250000 0.250000 0.500000
O O6 0.445212 0.193329 0.620738
O O7 0.370074 0.273803 0.726501
O O8 0.500000 0.902768 0.750000
O O9 0.339837 0.942322 0.558406
O O10 0.618256 0.961002 0.621868
O O11 0.523637 0.883012 0.507898
O O12 0.567835 0.581768 0.022114
O O13 0.352409 0.581523 0.133519
O O14 0.484459 0.657985 0.124367
O O15 0.170310 0.020157 0.188705
O O16 0.153238 0.003120 0.933354
O O17 0.000000 0.620563 0.750000
#
# Coordination Sequence:
#
# PCOD9285042 Si02
#       8
#     8   8   8   8   8   8   8   4
#     4  11  23  40  63  99 135 166 223 280 330 387
#     4  11  22  41  68  94 127 179 225 269 326 397
#     4  10  23  41  65  96 135 174 214 266 333 397
#     4  12  24  41  69  92 128 175 217 266 330 397
#     4  11  24  42  63  99 130 168 219 273 330 394
#     4  11  23  42  66  96 129 172 220 269 330 399
#     4  10  21  41  66  97 131 174 232 267 324 398
#     4  12  22  42  72  90 128 174 226 260 326 394
#
# _framework density 20.894742999999998
#
# number of rings (size 3 to 8) (size 9 to 14) (size 15 to 20)
#    0.000    1.067    4.667    3.200    0.000    3.200 
#    0.000    4.667    0.000    0.000    0.000    0.000 
#    0.000    0.000    0.000    0.000    0.000    0.000 
#
# Total GULP energy -167448.215639 kJ/mol
# GULP energy per Si atom -5581.607188 kJ/mol
# Density = 2.084719 g / cm^3
# Si number density = 20.894743 Si / 1000 Ang^3
#
#
#
# Elastic Constant Matrix: (Units=GPa)
#
#
# Indices 1 2 3 4 5 6 
#
# 1 102.1315 12.0965 20.4161 0.0000 2.8851 0.0000
# 2 12.0965 69.4008 62.4459 0.0000 -3.4329 0.0000
# 3 20.4161 62.4459 117.6554 0.0000 -1.5953 0.0000
# 4 0.0000 0.0000 0.0000 32.8777 0.0000 10.1832
# 5 2.8851 -3.4329 -1.5953 0.0000 33.3067 0.0000
# 6 0.0000 0.0000 0.0000 10.1832 0.0000 10.2975
#
#
#
# Elastic Compliance Matrix: (Units=1/GPa)
#
#
# Indices 1 2 3 4 5 6 
#
# 1 0.010181 -0.000425 -0.001554 0.000000 -0.001000 0.000000
# 2 -0.000425 0.027752 -0.014626 0.000000 0.002197 0.000000
# 3 -0.001554 -0.014626 0.016524 0.000000 -0.000581 0.000000
# 4 0.000000 0.000000 0.000000 0.043845 0.000000 -0.043359
# 5 -0.001000 0.002197 -0.000581 0.000000 0.030309 0.000000
# 6 0.000000 0.000000 0.000000 -0.043359 0.000000 0.139989
#
#
# Mechanical properties :
#
#
# Convention : Reuss Voigt Hill
#
# Bulk Modulus (GPa) = 47.06890 53.23385 50.15138
# Shear Modulus (GPa) = 16.18685 28.24498 22.21592
#
# Velocity S-wave (km/s) = 2.78634 3.68064 3.26426
# Velocity P-wave (km/s) = 5.73822 6.60267 6.18556
#
# Compressibility (1/GPa) = 0.02124545
#
# Stress axis : x y z
#
# Youngs Moduli (GPa) = 98.22549 36.03342 60.51818
#
# Poissons Ratio (x) = 0.01532 0.09407
# Poissons Ratio (y) = 0.04177 0.88513
# Poissons Ratio (z) = 0.15268 0.52702
#
# Static dielectric constant tensor:
#      x y z
#    x 1.798460 0.000000 0.047510 
#    y 0.000000 1.748590 0.000000 
#    z 0.047510 0.000000 1.683410 
# 
# From -- ./inp_files/81382.got.cif
#   From: 2010.05.17/outbox.cif.g08.bks.cpg/sg15_41_cif.got.tgz:81382.got - 2010.06.03 18:47:42.
