data_PCOD9285745
_publ_section_title
;
Structure prediction by ZEFSAII (Michael W. Deem and Ramdas Pophale) SiO2 
 PCOD9285745
Probable space group: C 2/C
;
_chemical_formula_sum "Si O2"
_cell_formula_units_Z 64
_cell_length_a 9.057049
_cell_length_b 19.011648
_cell_length_c 24.310887
_cell_angle_alpha 90.000000
_cell_angle_beta 43.978195
_cell_angle_gamma 90.000000
_cell_volume 2906.747739
_symmetry_space_group_name_H-M "C 2/C"
_symmetry_group_IT_number 15
_symmetry_cell_setting 'monoclinic'
loop_
_space_group_symop_operation_xyz
x,y,z
-x,y,1/2-z
-x,-y,-z
x,-y,1/2+z
1/2+x,1/2+y,z
1/2-x,1/2+y,1/2-z
1/2-x,1/2-y,-z
1/2+x,1/2-y,1/2+z
loop_
_atom_site_type_symbol
_atom_site_label
_atom_site_fract_x
_atom_site_fract_y
_atom_site_fract_z
Si Si1 0.990183 0.179347 0.977924
Si Si2 0.961573 0.448232 0.820616
Si Si3 0.311964 0.314903 0.642244
Si Si4 0.661004 0.079340 0.582161
Si Si5 0.801541 0.447560 0.552699
Si Si6 0.926713 0.090960 0.212158
Si Si7 0.882724 0.664204 0.496478
Si Si8 0.724275 0.654107 0.665006
O O1 0.786638 0.141612 0.004460
O O2 0.200138 0.132971 0.918601
O O3 0.967110 0.193407 0.049109
O O4 0.967261 0.257537 0.959739
O O5 0.857281 0.372148 0.836000
O O6 0.834891 0.503329 0.890683
O O7 0.000000 0.480629 0.750000
O O8 0.192834 0.438714 0.783946
O O9 0.410834 0.351370 0.668701
O O10 0.237046 0.237001 0.677050
O O11 0.752550 0.069150 0.495939
O O12 0.424182 0.110782 0.636021
O O13 0.592994 0.466180 0.643330
O O14 0.000000 0.500000 0.500000
O O15 0.905799 0.380850 0.554506
O O16 0.000000 0.120624 0.250000
O O17 0.761323 0.656233 0.588316
O O18 0.500000 0.627939 0.750000
#
# Coordination Sequence:
#
# PCOD9285745 Si02
#       8
#     8   8   8   8   8   8   8   8
#     4  10  21  42  66  93 127 165 224 270 323 383
#     4  10  24  43  61  96 133 169 213 272 336 383
#     4  10  22  43  67  90 128 172 217 269 326 392
#     4  11  24  40  68  95 127 177 219 271 322 399
#     4  11  24  40  61  96 128 170 218 261 329 394
#     4  11  23  40  62  92 129 168 212 275 323 387
#     4   9  23  40  64  93 131 171 211 277 323 385
#     4  10  22  42  65  93 133 177 216 263 334 394
#
# _framework density 22.017733
#
# number of rings (size 3 to 8) (size 9 to 14) (size 15 to 20)
#    0.000    1.750    1.250    1.875    5.250    7.500 
#    2.250    0.625    0.000    0.000    0.000    0.000 
#    0.000    0.000    0.000    0.000    0.000    0.000 
#
# Total GULP energy -178611.673883 kJ/mol
# GULP energy per Si atom -5581.614809 kJ/mol
# Density = 2.196762 g / cm^3
# Si number density = 22.017733 Si / 1000 Ang^3
#
#
#
# Elastic Constant Matrix: (Units=GPa)
#
#
# Indices 1 2 3 4 5 6 
#
# 1 100.0115 11.9979 13.2001 -0.0009 9.2149 0.0003
# 2 11.9979 70.0580 6.1615 -0.0003 -6.0441 0.0004
# 3 13.2001 6.1615 54.1206 -0.0030 0.1541 0.0008
# 4 -0.0009 -0.0003 -0.0030 16.4236 0.0027 0.4201
# 5 9.2149 -6.0441 0.1541 0.0027 26.7364 -0.0001
# 6 0.0003 0.0004 0.0008 0.4201 -0.0001 16.2501
#
#
#
# Elastic Compliance Matrix: (Units=1/GPa)
#
#
# Indices 1 2 3 4 5 6 
#
# 1 0.010951 -0.002026 -0.002428 0.000001 -0.004218 0.000000
# 2 -0.002026 0.015084 -0.001235 -0.000001 0.004115 0.000000
# 3 -0.002428 -0.001235 0.019209 0.000003 0.000447 -0.000001
# 4 0.000001 -0.000001 0.000003 0.060928 -0.000007 -0.001575
# 5 -0.004218 0.004115 0.000447 -0.000007 0.039784 0.000000
# 6 0.000000 0.000000 -0.000001 -0.001575 0.000000 0.061579
#
#
# Mechanical properties :
#
#
# Convention : Reuss Voigt Hill
#
# Bulk Modulus (GPa) = 29.52797 31.87880 30.70338
# Shear Modulus (GPa) = 21.72002 24.73739 23.22870
#
# Velocity S-wave (km/s) = 3.14423 3.35553 3.25160
# Velocity P-wave (km/s) = 5.15962 5.43350 5.29833
#
# Compressibility (1/GPa) = 0.03386620
#
# Stress axis : x y z
#
# Youngs Moduli (GPa) = 91.31541 66.29335 52.05938
#
# Poissons Ratio (x) = 0.13430 0.12642
# Poissons Ratio (y) = 0.18499 0.06429
# Poissons Ratio (z) = 0.22174 0.08187
#
# Static dielectric constant tensor:
#      x y z
#    x 1.826150 0.000000 -0.035260 
#    y 0.000000 1.844510 0.000000 
#    z -0.035260 0.000000 1.851640 
# 
# From -- ./inp_files/266073.got.cif
#   From: 2010.05.17/outbox.cif.g08.bks.cpg/sg15_134_cif.got.tgz:266073.got - 2010.06.03 18:47:42.
