data_PCOD9285160
_publ_section_title
;
Structure prediction by ZEFSAII (Michael W. Deem and Ramdas Pophale) SiO2 
 PCOD9285160
Probable space group: C 2/C
;
_chemical_formula_sum "Si O2"
_cell_formula_units_Z 36
_cell_length_a 13.851494
_cell_length_b 11.708753
_cell_length_c 31.101445
_cell_angle_alpha 90.000000
_cell_angle_beta 163.274217
_cell_angle_gamma 90.000000
_cell_volume 1451.662996
_symmetry_space_group_name_H-M "C 2/C"
_symmetry_group_IT_number 15
_symmetry_cell_setting 'monoclinic'
loop_
_space_group_symop_operation_xyz
x,y,z
-x,y,1/2-z
-x,-y,-z
x,-y,1/2+z
1/2+x,1/2+y,z
1/2-x,1/2+y,1/2-z
1/2-x,1/2-y,-z
1/2+x,1/2-y,1/2+z
loop_
_atom_site_type_symbol
_atom_site_label
_atom_site_fract_x
_atom_site_fract_y
_atom_site_fract_z
Si Si1 0.460724 0.206685 0.909285
Si Si2 0.634034 0.199659 0.083066
Si Si3 0.879282 0.416321 0.770197
Si Si4 0.159744 0.464563 0.978644
Si Si5 0.000000 0.415801 0.250000
O O1 0.169435 0.296654 0.774899
O O2 0.413328 0.073416 0.879880
O O3 0.750000 0.250000 0.000000
O O4 0.580342 0.212099 0.009511
O O5 0.368427 0.121100 0.993657
O O6 0.000000 0.145341 0.250000
O O7 0.693540 0.327759 0.126433
O O8 0.520678 0.478456 0.625115
O O9 0.068578 0.504786 0.819971
O O10 0.037620 0.400630 0.884075
#
# Coordination Sequence:
#
# PCOD9285160 Si02
#       5
#     8   8   8   8   4
#     4  10  21  41  67  99 139 179 224 281 346 409
#     4  10  22  42  69  98 142 177 228 289 340 407
#     4  11  25  45  72  99 141 185 228 289 351 417
#     4  11  24  43  73 101 138 180 233 285 351 406
#     4  10  24  44  66  98 144 176 234 280 354 408
#
# _framework density 24.799143000000001
#
# number of rings (size 3 to 8) (size 9 to 14) (size 15 to 20)
#    0.667    0.889    0.000    6.000    3.111    4.444 
#    6.000    0.000    0.000    0.000    0.000    0.000 
#    0.000    0.000    0.000    0.000    0.000    0.000 
#
# Total GULP energy -100740.443323 kJ/mol
# GULP energy per Si atom -5596.691296 kJ/mol
# Density = 2.474270 g / cm^3
# Si number density = 24.799143 Si / 1000 Ang^3
#
#
#
# Elastic Constant Matrix: (Units=GPa)
#
#
# Indices 1 2 3 4 5 6 
#
# 1 116.6082 65.4734 51.7706 0.0017 -30.1980 0.0206
# 2 65.4734 159.9598 29.1864 -0.0059 -1.6814 0.0239
# 3 51.7706 29.1864 94.6810 -0.0640 -22.9864 0.0473
# 4 0.0017 -0.0059 -0.0640 25.9340 0.0326 -1.4343
# 5 -30.1980 -1.6814 -22.9864 0.0326 47.6040 -0.0003
# 6 0.0206 0.0239 0.0473 -1.4343 -0.0003 50.7641
#
#
#
# Elastic Compliance Matrix: (Units=1/GPa)
#
#
# Indices 1 2 3 4 5 6 
#
# 1 0.015858 -0.005465 -0.005201 -0.000024 0.007355 0.000000
# 2 -0.005465 0.008538 -0.000467 0.000005 -0.003390 -0.000001
# 3 -0.005201 -0.000467 0.014437 0.000031 0.003656 -0.000010
# 4 -0.000024 0.000005 0.000031 0.038620 -0.000027 0.001091
# 5 0.007355 -0.003390 0.003656 -0.000027 0.027318 -0.000005
# 6 0.000000 -0.000001 -0.000010 0.001091 -0.000005 0.019730
#
#
# Mechanical properties :
#
#
# Convention : Reuss Voigt Hill
#
# Bulk Modulus (GPa) = 60.35732 73.79000 67.07366
# Shear Modulus (GPa) = 32.83271 39.84831 36.34051
#
# Velocity S-wave (km/s) = 3.64255 4.01289 3.83220
# Velocity P-wave (km/s) = 6.48708 7.16175 6.83275
#
# Compressibility (1/GPa) = 0.01656800
#
# Stress axis : x y z
#
# Youngs Moduli (GPa) = 63.06101 117.12564 69.26685
#
# Poissons Ratio (x) = 0.64003 0.36023
# Poissons Ratio (y) = 0.34460 0.03235
# Poissons Ratio (z) = 0.32796 0.05471
#
# Static dielectric constant tensor:
#      x y z
#    x 1.957010 0.000000 0.100870 
#    y 0.000000 1.931250 -0.000020 
#    z 0.100870 -0.000020 2.051740 
# 
# From -- ./inp_files/313683.got.cif
#   From: 2010.05.17/outbox.cif.g08.bks.cpg/sg15_157_cif.got.tgz:313683.got - 2010.06.03 18:47:42.
