data_PCOD9285147
_publ_section_title
;
Structure prediction by ZEFSAII (Michael W. Deem and Ramdas Pophale) SiO2 
 PCOD9285147
Probable space group: C 2/C
;
_chemical_formula_sum "Si O2"
_cell_formula_units_Z 56
_cell_length_a 14.639223
_cell_length_b 19.568158
_cell_length_c 13.733806
_cell_angle_alpha 90.000000
_cell_angle_beta 43.271857
_cell_angle_gamma 90.000000
_cell_volume 2696.755063
_symmetry_space_group_name_H-M "C 2/C"
_symmetry_group_IT_number 15
_symmetry_cell_setting 'monoclinic'
loop_
_space_group_symop_operation_xyz
x,y,z
-x,y,1/2-z
-x,-y,-z
x,-y,1/2+z
1/2+x,1/2+y,z
1/2-x,1/2+y,1/2-z
1/2-x,1/2-y,-z
1/2+x,1/2-y,1/2+z
loop_
_atom_site_type_symbol
_atom_site_label
_atom_site_fract_x
_atom_site_fract_y
_atom_site_fract_z
Si Si1 0.309957 0.116175 0.266828
Si Si2 0.207694 0.765503 0.144154
Si Si3 0.500000 0.618600 0.750000
Si Si4 0.220115 0.362897 0.254555
Si Si5 0.635720 0.199559 0.616966
Si Si6 0.000000 0.527531 0.250000
Si Si7 0.515506 0.574261 0.532738
Si Si8 0.550485 0.921676 0.040872
O O1 0.343175 0.195669 0.266089
O O2 0.381372 0.073118 0.297058
O O3 0.149013 0.110644 0.389696
O O4 0.366305 0.084514 0.122937
O O5 0.108013 0.828085 0.204726
O O6 0.302782 0.800924 0.150786
O O7 0.250000 0.750000 0.000000
O O8 0.542593 0.572698 0.627224
O O9 0.184928 0.340165 0.173489
O O10 0.372203 0.388987 0.131749
O O11 0.106054 0.417998 0.367626
O O12 0.500000 0.238159 0.750000
O O13 0.750000 0.250000 0.500000
O O14 0.595768 0.145880 0.565010
O O15 0.057357 0.481339 0.116559
O O16 0.500000 0.500000 0.500000
#
# Coordination Sequence:
#
# PCOD9285147 Si02
#       8
#     8   8   4   8   8   4   8   8
#     4  12  27  41  72 107 130 183 238 291 338 429
#     4  11  23  42  68 101 140 168 229 284 361 404
#     4  10  23  44  66  96 139 178 212 286 344 408
#     4  10  23  43  70  92 141 181 217 291 352 413
#     4  10  21  41  67  97 132 176 232 285 350 408
#     4  12  25  46  70  98 147 184 242 280 356 418
#     4  11  25  44  65  97 139 178 225 271 351 412
#     4  11  24  46  69  99 136 184 238 287 343 419
#
# _framework density 20.765698
#
# number of rings (size 3 to 8) (size 9 to 14) (size 15 to 20)
#    0.000    1.143    3.571    2.571    4.000    4.571 
#    0.000    0.000    0.000    0.000    0.000    0.000 
#    0.000    0.000    0.000    0.000    0.000    0.000 
#
# Total GULP energy -156083.454429 kJ/mol
# GULP energy per Si atom -5574.409087 kJ/mol
# Density = 2.071843 g / cm^3
# Si number density = 20.765698 Si / 1000 Ang^3
#
#
#
# Elastic Constant Matrix: (Units=GPa)
#
#
# Indices 1 2 3 4 5 6 
#
# 1 82.9453 44.5620 79.9362 0.0001 -9.0710 0.0000
# 2 44.5620 101.0448 32.1377 -0.0006 14.1091 0.0004
# 3 79.9362 32.1377 121.1628 -0.0016 8.8543 0.0010
# 4 0.0001 -0.0006 -0.0016 24.7936 0.0009 8.8393
# 5 -9.0710 14.1091 8.8543 0.0009 38.8961 -0.0005
# 6 0.0000 0.0004 0.0010 8.8393 -0.0005 51.5677
#
#
#
# Elastic Compliance Matrix: (Units=1/GPa)
#
#
# Indices 1 2 3 4 5 6 
#
# 1 0.064060 -0.020136 -0.039200 -0.000005 0.031167 0.000002
# 2 -0.020136 0.017577 0.009591 0.000002 -0.013255 -0.000001
# 3 -0.039200 0.009591 0.033044 0.000004 -0.020143 -0.000002
# 4 -0.000005 0.000002 0.000004 0.042958 -0.000004 -0.007364
# 5 0.031167 -0.013255 -0.020143 -0.000004 0.042371 0.000002
# 6 0.000002 -0.000001 -0.000002 -0.007364 0.000002 0.020654
#
#
# Mechanical properties :
#
#
# Convention : Reuss Voigt Hill
#
# Bulk Modulus (GPa) = 65.82865 68.71386 67.27125
# Shear Modulus (GPa) = 15.37428 32.95262 24.16345
#
# Velocity S-wave (km/s) = 2.72392 3.98788 3.41489
# Velocity P-wave (km/s) = 6.45465 7.37334 6.92924
#
# Compressibility (1/GPa) = 0.01519096
#
# Stress axis : x y z
#
# Youngs Moduli (GPa) = 15.61025 56.89233 30.26312
#
# Poissons Ratio (x) = 1.14556 1.18632
# Poissons Ratio (y) = 0.31432 -0.29024
# Poissons Ratio (z) = 0.61193 -0.54564
#
# Static dielectric constant tensor:
#      x y z
#    x 1.786410 0.000000 0.002110 
#    y 0.000000 1.753220 0.000000 
#    z 0.002110 0.000000 1.806050 
# 
# From -- ./inp_files/156184.got.cif
#   From: 2010.05.17/outbox.cif.g08.bks.cpg/sg15_79_cif.got.tgz:156184.got - 2010.06.03 18:47:42.
