data_PCOD9285167
_publ_section_title
;
Structure prediction by ZEFSAII (Michael W. Deem and Ramdas Pophale) SiO2 
 PCOD9285167
Probable space group: C 2/C
;
_chemical_formula_sum "Si O2"
_cell_formula_units_Z 52
_cell_length_a 5.165096
_cell_length_b 22.795955
_cell_length_c 21.952313
_cell_angle_alpha 90.000000
_cell_angle_beta 120.020344
_cell_angle_gamma 90.000000
_cell_volume 2237.989477
_symmetry_space_group_name_H-M "C 2/C"
_symmetry_group_IT_number 15
_symmetry_cell_setting 'monoclinic'
loop_
_space_group_symop_operation_xyz
x,y,z
-x,y,1/2-z
-x,-y,-z
x,-y,1/2+z
1/2+x,1/2+y,z
1/2-x,1/2+y,1/2-z
1/2-x,1/2-y,-z
1/2+x,1/2-y,1/2+z
loop_
_atom_site_type_symbol
_atom_site_label
_atom_site_fract_x
_atom_site_fract_y
_atom_site_fract_z
Si Si1 0.000000 0.509076 0.250000
Si Si2 0.522491 0.407826 0.050931
Si Si3 0.655731 0.390654 0.656371
Si Si4 0.500000 0.682112 0.250000
Si Si5 0.500000 0.573338 0.750000
Si Si6 0.838939 0.351038 0.391840
Si Si7 0.327905 0.526561 0.053736
Si Si8 0.422691 0.772198 0.667911
O O1 0.875260 0.554323 0.184454
O O2 0.754529 0.468212 0.252348
O O3 0.258775 0.371248 0.051650
O O4 0.517104 0.467975 0.089578
O O5 0.824661 0.370133 0.084893
O O6 0.514954 0.437465 0.983083
O O7 0.655596 0.361856 0.722527
O O8 0.341568 0.422993 0.605996
O O9 0.757279 0.333147 0.631491
O O10 0.736506 0.720857 0.315222
O O11 0.366886 0.614319 0.681065
O O12 0.762073 0.282969 0.375633
O O13 0.000000 0.500000 0.000000
O O14 0.500000 0.764429 0.750000
#
# Coordination Sequence:
#
# PCOD9285167 Si02
#       8
#     4   8   8   4   4   8   8   8
#     4  12  24  40  66 107 139 168 236 286 356 422
#     4  11  26  44  70 102 133 187 229 290 342 418
#     4  11  23  43  67 103 136 182 233 289 353 422
#     4  10  21  41  68 102 137 181 234 282 364 402
#     4  12  25  37  64 103 134 185 202 298 348 410
#     4  12  24  45  67 101 144 174 240 275 357 415
#     4  11  24  48  72  98 144 189 238 290 356 413
#     4  10  23  42  66  99 138 192 224 292 352 423
#
# _framework density 23.235140999999999
#
# number of rings (size 3 to 8) (size 9 to 14) (size 15 to 20)
#    0.000    0.923    4.615    3.231    4.308    3.077 
#    2.769    1.538    0.000    0.000    0.000    0.000 
#    0.000    0.000    0.000    0.000    0.000    0.000 
#
# Total GULP energy -144951.933804 kJ/mol
# GULP energy per Si atom -5575.074377 kJ/mol
# Density = 2.318226 g / cm^3
# Si number density = 23.235141 Si / 1000 Ang^3
#
#
#
# Elastic Constant Matrix: (Units=GPa)
#
#
# Indices 1 2 3 4 5 6 
#
# 1 117.5122 51.2048 5.1127 0.0000 17.3213 0.0000
# 2 51.2048 187.2738 26.0426 0.0000 31.5515 0.0000
# 3 5.1127 26.0426 22.2049 0.0000 8.9474 0.0000
# 4 0.0000 0.0000 0.0000 39.6605 0.0000 17.0786
# 5 17.3213 31.5515 8.9474 0.0000 31.1417 0.0000
# 6 0.0000 0.0000 0.0000 17.0786 0.0000 23.0701
#
#
#
# Elastic Compliance Matrix: (Units=1/GPa)
#
#
# Indices 1 2 3 4 5 6 
#
# 1 0.010012 -0.002388 0.001995 0.000000 -0.003723 0.000000
# 2 -0.002388 0.007680 -0.006625 0.000000 -0.004550 0.000000
# 3 0.001995 -0.006625 0.056646 0.000000 -0.010673 0.000000
# 4 0.000000 0.000000 0.000000 0.037013 0.000000 -0.027401
# 5 -0.003723 -0.004550 -0.010673 0.000000 0.041858 0.000000
# 6 0.000000 0.000000 0.000000 -0.027401 0.000000 0.063630
#
#
# Mechanical properties :
#
#
# Convention : Reuss Voigt Hill
#
# Bulk Modulus (GPa) = 16.58259 54.63455 35.60857
# Shear Modulus (GPa) = 19.92220 35.08319 27.50269
#
# Velocity S-wave (km/s) = 2.93134 3.88998 3.44418
# Velocity P-wave (km/s) = 4.31386 6.61368 5.58346
#
# Compressibility (1/GPa) = 0.06030423
#
# Stress axis : x y z
#
# Youngs Moduli (GPa) = 99.87853 130.20026 17.65354
#
# Poissons Ratio (x) = 0.31089 -0.03522
# Poissons Ratio (y) = 0.23849 0.11695
# Poissons Ratio (z) = -0.19929 0.86253
#
# Static dielectric constant tensor:
#      x y z
#    x 2.040360 0.000000 0.023500 
#    y 0.000000 1.838750 0.000000 
#    z 0.023500 0.000000 2.004550 
# 
# From -- ./inp_files/286163.got.cif
#   From: 2010.05.17/outbox.cif.g08.bks.cpg/sg15_144_cif.got.tgz:286163.got - 2010.06.03 18:47:42.
