data_PCOD9285215
_publ_section_title
;
Structure prediction by ZEFSAII (Michael W. Deem and Ramdas Pophale) SiO2 
 PCOD9285215
Probable space group: C 2/C
;
_chemical_formula_sum "Si O2"
_cell_formula_units_Z 48
_cell_length_a 10.824582
_cell_length_b 13.271194
_cell_length_c 14.256748
_cell_angle_alpha 90.000000
_cell_angle_beta 105.250029
_cell_angle_gamma 90.000000
_cell_volume 1975.937186
_symmetry_space_group_name_H-M "C 2/C"
_symmetry_group_IT_number 15
_symmetry_cell_setting 'monoclinic'
loop_
_space_group_symop_operation_xyz
x,y,z
-x,y,1/2-z
-x,-y,-z
x,-y,1/2+z
1/2+x,1/2+y,z
1/2-x,1/2+y,1/2-z
1/2-x,1/2-y,-z
1/2+x,1/2-y,1/2+z
loop_
_atom_site_type_symbol
_atom_site_label
_atom_site_fract_x
_atom_site_fract_y
_atom_site_fract_z
Si Si1 0.059924 0.537386 0.914154
Si Si2 0.851591 0.977720 0.246524
Si Si3 0.252354 0.245099 0.780738
Si Si4 0.671654 0.446750 0.951862
Si Si5 0.500000 0.870762 0.750000
Si Si6 0.395869 0.618208 0.431700
Si Si7 0.000000 0.302056 0.250000
O O1 0.998361 0.627091 0.841357
O O2 0.052243 0.442062 0.843136
O O3 0.202234 0.576048 0.965204
O O4 0.000000 0.500000 0.000000
O O5 0.782472 0.871536 0.236697
O O6 0.793637 0.040838 0.149448
O O7 0.000000 0.962747 0.250000
O O8 0.849859 0.039470 0.342063
O O9 0.314363 0.282876 0.892127
O O10 0.371127 0.262073 0.733418
O O11 0.119751 0.303908 0.740485
O O12 0.549337 0.376115 0.948046
O O13 0.629084 0.559982 0.976916
#
# Coordination Sequence:
#
# PCOD9285215 Si02
#       7
#     8   8   8   8   4   8   4
#     4  11  24  47  72 100 138 189 233 292 348 418
#     4  10  22  41  68  95 134 181 225 276 343 413
#     4  12  24  45  69 104 138 187 229 291 346 420
#     4  10  21  41  68  95 128 180 228 272 346 412
#     4  11  26  46  73  96 142 190 233 282 359 408
#     4  10  23  41  69  95 136 176 224 284 345 404
#     4  11  28  44  69 106 146 178 237 292 355 416
#
# _framework density 24.292272000000001
#
# number of rings (size 3 to 8) (size 9 to 14) (size 15 to 20)
#    0.000    1.333    2.500    2.000    8.167    0.667 
#    3.000    1.667    0.000    0.000    0.000    0.000 
#    0.000    0.000    0.000    0.000    0.000    0.000 
#
# Total GULP energy -134327.362249 kJ/mol
# GULP energy per Si atom -5596.973427 kJ/mol
# Density = 2.423698 g / cm^3
# Si number density = 24.292272 Si / 1000 Ang^3
#
#
#
# Elastic Constant Matrix: (Units=GPa)
#
#
# Indices 1 2 3 4 5 6 
#
# 1 144.4629 40.4454 37.9389 0.0000 21.3406 0.0000
# 2 40.4454 97.1988 38.4978 0.0000 7.1850 0.0000
# 3 37.9389 38.4978 125.6632 0.0000 5.6183 0.0000
# 4 0.0000 0.0000 0.0000 23.4835 0.0000 3.3049
# 5 21.3406 7.1850 5.6183 0.0000 50.9408 0.0000
# 6 0.0000 0.0000 0.0000 3.3049 0.0000 33.0106
#
#
#
# Elastic Compliance Matrix: (Units=1/GPa)
#
#
# Indices 1 2 3 4 5 6 
#
# 1 0.008548 -0.002691 -0.001621 0.000000 -0.003023 0.000000
# 2 -0.002691 0.012638 -0.003045 0.000000 -0.000319 0.000000
# 3 -0.001621 -0.003045 0.009377 0.000000 0.000074 0.000000
# 4 0.000000 0.000000 0.000000 0.043192 0.000000 -0.004324
# 5 -0.003023 -0.000319 0.000074 0.000000 0.020934 0.000000
# 6 0.000000 0.000000 0.000000 -0.004324 0.000000 0.030726
#
#
# Mechanical properties :
#
#
# Convention : Reuss Voigt Hill
#
# Bulk Modulus (GPa) = 63.10034 66.78766 64.94400
# Shear Modulus (GPa) = 34.38535 38.18319 36.28427
#
# Velocity S-wave (km/s) = 3.76638 3.96893 3.86898
# Velocity P-wave (km/s) = 6.70418 6.96823 6.83748
#
# Compressibility (1/GPa) = 0.01584778
#
# Stress axis : x y z
#
# Youngs Moduli (GPa) = 116.98748 79.12848 106.64782
#
# Poissons Ratio (x) = 0.21297 0.17288
# Poissons Ratio (y) = 0.31486 0.32472
# Poissons Ratio (z) = 0.18964 0.24093
#
# Static dielectric constant tensor:
#      x y z
#    x 1.967670 0.000000 0.005130 
#    y 0.000000 1.925050 0.000000 
#    z 0.005130 0.000000 1.935070 
# 
# From -- ./inp_files/143867.got.cif
#   From: 2010.05.17/outbox.cif.g08.bks.cpg/sg15_72_cif.got.tgz:143867.got - 2010.06.03 18:47:42.
