data_PCOD9285966
_publ_section_title
;
Structure prediction by ZEFSAII (Michael W. Deem and Ramdas Pophale) SiO2 
 PCOD9285966
Probable space group: C 2/C
;
_chemical_formula_sum "Si O2"
_cell_formula_units_Z 32
_cell_length_a 9.914325
_cell_length_b 11.323532
_cell_length_c 14.936343
_cell_angle_alpha 90.000000
_cell_angle_beta 128.057494
_cell_angle_gamma 90.000000
_cell_volume 1320.324406
_symmetry_space_group_name_H-M "C 2/C"
_symmetry_group_IT_number 15
_symmetry_cell_setting 'monoclinic'
loop_
_space_group_symop_operation_xyz
x,y,z
-x,y,1/2-z
-x,-y,-z
x,-y,1/2+z
1/2+x,1/2+y,z
1/2-x,1/2+y,1/2-z
1/2-x,1/2-y,-z
1/2+x,1/2-y,1/2+z
loop_
_atom_site_type_symbol
_atom_site_label
_atom_site_fract_x
_atom_site_fract_y
_atom_site_fract_z
Si Si1 0.508972 0.811790 0.851755
Si Si2 0.828666 0.452613 0.035677
Si Si3 0.287582 0.009324 0.825832
Si Si4 0.410159 0.387065 0.420385
O O1 0.500000 0.757687 0.750000
O O2 0.641554 0.920750 0.903743
O O3 0.333678 0.881700 0.802697
O O4 0.530149 0.721044 0.941224
O O5 0.737738 0.363768 0.066262
O O6 0.026641 0.423732 0.091883
O O7 0.730465 0.482329 0.903535
O O8 0.174812 0.076746 0.708504
O O9 0.500000 0.500000 0.500000
#
# Coordination Sequence:
#
# PCOD9285966 Si02
#       4
#     8   8   8   8
#     4  10  21  42  69  91 127 185 212 259 348 372
#     4   9  20  45  66  85 134 171 219 263 327 388
#     4   9  20  45  66  87 129 181 210 271 329 388
#     4  12  25  35  64 103 131 163 224 277 316 396
#
# _framework density 24.236469
#
# number of rings (size 3 to 8) (size 9 to 14) (size 15 to 20)
#    1.500    0.500    2.500    0.750    3.500    4.000 
#    0.000    0.000    5.500    0.000    0.000    0.000 
#    0.000    0.000    0.000    0.000    0.000    0.000 
#
# Total GULP energy -89227.243681 kJ/mol
# GULP energy per Si atom -5576.702730 kJ/mol
# Density = 2.418131 g / cm^3
# Si number density = 24.236469 Si / 1000 Ang^3
#
#
#
# Elastic Constant Matrix: (Units=GPa)
#
#
# Indices 1 2 3 4 5 6 
#
# 1 50.9839 13.8511 21.6918 0.0000 -27.9029 0.0000
# 2 13.8511 44.5662 4.4824 0.0000 -20.2722 0.0000
# 3 21.6918 4.4824 136.9898 0.0000 -40.0118 0.0000
# 4 0.0000 0.0000 0.0000 43.0648 0.0000 -16.8125
# 5 -27.9029 -20.2722 -40.0118 0.0000 44.7083 0.0000
# 6 0.0000 0.0000 0.0000 -16.8125 0.0000 22.8372
#
#
#
# Elastic Compliance Matrix: (Units=1/GPa)
#
#
# Indices 1 2 3 4 5 6 
#
# 1 0.029899 -0.000674 0.000878 0.000000 0.019140 0.000000
# 2 -0.000674 0.029839 0.004007 0.000000 0.016695 0.000000
# 3 0.000878 0.004007 0.010453 0.000000 0.011719 0.000000
# 4 0.000000 0.000000 0.000000 0.032586 0.000000 0.023990
# 5 0.019140 0.016695 0.011719 0.000000 0.052371 0.000000
# 6 0.000000 0.000000 0.000000 0.023990 0.000000 0.061449
#
#
# Mechanical properties :
#
#
# Convention : Reuss Voigt Hill
#
# Bulk Modulus (GPa) = 12.72070 34.73228 23.72649
# Shear Modulus (GPa) = 21.33280 34.95635 28.14458
#
# Velocity S-wave (km/s) = 2.97003 3.80189 3.41141
# Velocity P-wave (km/s) = 4.12570 5.79950 5.03267
#
# Compressibility (1/GPa) = 0.07861203
#
# Stress axis : x y z
#
# Youngs Moduli (GPa) = 33.44613 33.51273 95.66937
#
# Poissons Ratio (x) = 0.02260 -0.08401
# Poissons Ratio (y) = 0.02255 -0.38332
# Poissons Ratio (z) = -0.02937 -0.13428
#
# Static dielectric constant tensor:
#      x y z
#    x 2.140260 0.000000 0.022230 
#    y 0.000000 1.992170 0.000000 
#    z 0.022230 0.000000 1.895690 
# 
# From -- ./inp_files/151079.got.cif
#   From: 2010.05.17/outbox.cif.g08.bks.cpg/sg15_76_cif.got.tgz:151079.got - 2010.06.03 18:47:42.
