data_PCOD9285727
_publ_section_title
;
Structure prediction by ZEFSAII (Michael W. Deem and Ramdas Pophale) SiO2 
 PCOD9285727
Probable space group: C 2/C
;
_chemical_formula_sum "Si O2"
_cell_formula_units_Z 64
_cell_length_a 24.299562
_cell_length_b 11.574731
_cell_length_c 11.693594
_cell_angle_alpha 90.000000
_cell_angle_beta 83.518860
_cell_angle_gamma 90.000000
_cell_volume 3267.931227
_symmetry_space_group_name_H-M "C 2/C"
_symmetry_group_IT_number 15
_symmetry_cell_setting 'monoclinic'
loop_
_space_group_symop_operation_xyz
x,y,z
-x,y,1/2-z
-x,-y,-z
x,-y,1/2+z
1/2+x,1/2+y,z
1/2-x,1/2+y,1/2-z
1/2-x,1/2-y,-z
1/2+x,1/2-y,1/2+z
loop_
_atom_site_type_symbol
_atom_site_label
_atom_site_fract_x
_atom_site_fract_y
_atom_site_fract_z
Si Si1 0.573656 0.411070 0.927995
Si Si2 0.882241 0.678540 0.206045
Si Si3 0.061618 0.763099 0.719492
Si Si4 0.839588 0.773283 0.446175
Si Si5 0.770124 0.595036 0.602507
Si Si6 0.706418 0.155031 0.468052
Si Si7 0.954048 0.827294 0.034146
Si Si8 0.151571 0.579701 0.713937
O O1 0.566953 0.375128 0.797508
O O2 0.573434 0.548925 0.933504
O O3 0.626824 0.352563 0.973339
O O4 0.519330 0.356973 0.004241
O O5 0.875590 0.744696 0.326739
O O6 0.936169 0.728609 0.128162
O O7 0.873937 0.544124 0.244115
O O8 0.832146 0.699095 0.126887
O O9 0.067676 0.789606 0.585235
O O10 0.105959 0.673951 0.754815
O O11 0.000000 0.714826 0.750000
O O12 0.817145 0.656968 0.513029
O O13 0.785567 0.837928 0.411434
O O14 0.762293 0.460376 0.579286
O O15 0.793319 0.601440 0.725123
O O16 0.750000 0.250000 0.500000
O O17 0.667740 0.106106 0.579495
#
# Coordination Sequence:
#
# PCOD9285727 Si02
#       8
#     8   8   8   8   8   8   8   8
#     4  10  23  42  68  90 131 168 208 272 327 376
#     4  11  24  40  65  94 129 162 212 266 318 387
#     4  10  21  42  66  91 124 169 217 260 321 386
#     4  11  22  41  61  90 127 167 207 263 316 380
#     4  10  23  40  60  89 124 167 212 252 314 378
#     4  11  23  41  63  90 127 171 212 264 313 375
#     4  10  23  43  64  99 125 164 218 265 321 395
#     4  11  21  43  63  89 129 168 203 274 312 372
#
# _framework density 19.584254999999999
#
# number of rings (size 3 to 8) (size 9 to 14) (size 15 to 20)
#    0.000    1.500    3.750    0.750    3.500    0.500 
#    2.250    1.250    0.000    0.000    0.000    0.000 
#    0.000    0.000    0.000    0.000    0.000    0.000 
#
# Total GULP energy -178526.337074 kJ/mol
# GULP energy per Si atom -5578.948034 kJ/mol
# Density = 1.953968 g / cm^3
# Si number density = 19.584255 Si / 1000 Ang^3
#
#
#
# Elastic Constant Matrix: (Units=GPa)
#
#
# Indices 1 2 3 4 5 6 
#
# 1 40.0463 26.7773 0.2786 0.0000 7.4620 0.0000
# 2 26.7773 63.0990 -0.9815 0.0000 4.6660 0.0000
# 3 0.2786 -0.9815 68.7269 0.0000 -8.8620 0.0000
# 4 0.0000 0.0000 0.0000 16.3780 0.0000 -1.2526
# 5 7.4620 4.6660 -8.8620 0.0000 25.8424 0.0000
# 6 0.0000 0.0000 0.0000 -1.2526 0.0000 28.9324
#
#
#
# Elastic Compliance Matrix: (Units=1/GPa)
#
#
# Indices 1 2 3 4 5 6 
#
# 1 0.036493 -0.014892 -0.001436 0.000000 -0.008341 0.000000
# 2 -0.014892 0.022141 0.000435 0.000000 0.000451 0.000000
# 3 -0.001436 0.000435 0.015281 0.000000 0.005577 0.000000
# 4 0.000000 0.000000 0.000000 0.061260 0.000000 0.002652
# 5 -0.008341 0.000451 0.005577 0.000000 0.042935 0.000000
# 6 0.000000 0.000000 0.000000 0.002652 0.000000 0.034678
#
#
# Mechanical properties :
#
#
# Convention : Reuss Voigt Hill
#
# Bulk Modulus (GPa) = 23.73674 24.89124 24.31399
# Shear Modulus (GPa) = 19.33344 23.95041 21.64193
#
# Velocity S-wave (km/s) = 3.14537 3.50085 3.32786
# Velocity P-wave (km/s) = 5.03366 5.39247 5.21615
#
# Compressibility (1/GPa) = 0.04212879
#
# Stress axis : x y z
#
# Youngs Moduli (GPa) = 27.40254 45.16455 65.43880
#
# Poissons Ratio (x) = 0.67259 0.09398
# Poissons Ratio (y) = 0.40808 -0.02845
# Poissons Ratio (z) = 0.03935 -0.01964
#
# Static dielectric constant tensor:
#      x y z
#    x 1.683430 0.000000 -0.031640 
#    y 0.000000 1.677430 0.000000 
#    z -0.031640 0.000000 1.695230 
# 
# From -- ./inp_files/117587.got.cif
#   From: 2010.05.17/outbox.cif.g08.bks.cpg/sg15_59_cif.got.tgz:117587.got - 2010.06.03 18:47:42.
