data_PCOD9285660
_publ_section_title
;
Structure prediction by ZEFSAII (Michael W. Deem and Ramdas Pophale) SiO2 
 PCOD9285660
Probable space group: C 2/C
;
_chemical_formula_sum "Si O2"
_cell_formula_units_Z 60
_cell_length_a 11.610541
_cell_length_b 9.020614
_cell_length_c 29.705453
_cell_angle_alpha 90.000000
_cell_angle_beta 111.613010
_cell_angle_gamma 90.000000
_cell_volume 2892.439189
_symmetry_space_group_name_H-M "C 2/C"
_symmetry_group_IT_number 15
_symmetry_cell_setting 'monoclinic'
loop_
_space_group_symop_operation_xyz
x,y,z
-x,y,1/2-z
-x,-y,-z
x,-y,1/2+z
1/2+x,1/2+y,z
1/2-x,1/2+y,1/2-z
1/2-x,1/2-y,-z
1/2+x,1/2-y,1/2+z
loop_
_atom_site_type_symbol
_atom_site_label
_atom_site_fract_x
_atom_site_fract_y
_atom_site_fract_z
Si Si1 0.811757 0.681458 0.685191
Si Si2 0.129564 0.651307 0.330170
Si Si3 0.580646 0.927293 0.551202
Si Si4 0.285732 0.620533 0.729467
Si Si5 0.500000 0.611382 0.250000
Si Si6 0.767447 0.827097 0.069981
Si Si7 0.949867 0.150508 0.513826
Si Si8 0.395105 0.090366 0.349137
O O1 0.828319 0.519699 0.666762
O O2 0.777734 0.660691 0.732925
O O3 0.935714 0.781984 0.703866
O O4 0.699695 0.779792 0.650234
O O5 0.159267 0.738118 0.288674
O O6 0.192575 0.744130 0.379239
O O7 0.985937 0.646695 0.323450
O O8 0.568279 0.756421 0.537272
O O9 0.530423 0.951210 0.594840
O O10 0.500000 0.000000 0.500000
O O11 0.710282 0.011121 0.570506
O O12 0.392899 0.497779 0.752478
O O13 0.185547 0.542621 0.682475
O O14 0.656792 0.728655 0.032074
O O15 0.880650 0.852262 0.052030
O O16 0.000000 0.000000 0.500000
#
# Coordination Sequence:
#
# PCOD9285660 Si02
#       8
#     8   8   8   8   4   8   8   8
#     4  11  25  40  63  94 127 161 216 263 315 378
#     4  12  23  39  67  94 124 168 212 257 320 377
#     4  10  21  42  65  92 131 169 209 265 324 380
#     4  11  23  42  64  89 127 169 209 259 323 378
#     4  10  22  42  58  86 120 162 204 256 308 368
#     4  10  22  40  63  93 127 164 205 259 313 379
#     4  10  22  41  66  91 125 163 210 258 318 376
#     4  11  23  41  64  94 129 166 212 266 316 384
#
# _framework density 20.743738
#
# number of rings (size 3 to 8) (size 9 to 14) (size 15 to 20)
#    0.000    1.333    2.667    3.200    1.867    2.133 
#    0.000    2.667    0.000    0.000    0.000    0.000 
#    0.000    0.000    0.000    0.000    0.000    0.000 
#
# Total GULP energy -167524.875675 kJ/mol
# GULP energy per Si atom -5584.162522 kJ/mol
# Density = 2.069652 g / cm^3
# Si number density = 20.743738 Si / 1000 Ang^3
#
#
#
# Elastic Constant Matrix: (Units=GPa)
#
#
# Indices 1 2 3 4 5 6 
#
# 1 64.7172 36.8550 17.6437 0.0000 3.4528 0.0000
# 2 36.8550 108.8717 15.7837 0.0000 -5.7561 0.0000
# 3 17.6437 15.7837 94.5326 0.0000 -11.0397 0.0000
# 4 0.0000 0.0000 0.0000 29.5500 0.0000 -7.1656
# 5 3.4528 -5.7561 -11.0397 0.0000 18.4965 0.0000
# 6 0.0000 0.0000 0.0000 -7.1656 0.0000 33.5483
#
#
#
# Elastic Compliance Matrix: (Units=1/GPa)
#
#
# Indices 1 2 3 4 5 6 
#
# 1 0.020868 -0.006965 -0.003698 0.000000 -0.008270 0.000000
# 2 -0.006965 0.011817 -0.000099 0.000000 0.004919 0.000000
# 3 -0.003698 -0.000099 0.012213 0.000000 0.007949 0.000000
# 4 0.000000 0.000000 0.000000 0.035689 0.000000 0.007623
# 5 -0.008270 0.004919 0.007949 0.000000 0.061883 0.000000
# 6 0.000000 0.000000 0.000000 0.007623 0.000000 0.031436
#
#
# Mechanical properties :
#
#
# Convention : Reuss Voigt Hill
#
# Bulk Modulus (GPa) = 42.78021 45.40960 44.09491
# Shear Modulus (GPa) = 24.60368 29.50824 27.05596
#
# Velocity S-wave (km/s) = 3.44768 3.77571 3.61542
# Velocity P-wave (km/s) = 6.04290 6.39893 6.22346
#
# Compressibility (1/GPa) = 0.02337529
#
# Stress axis : x y z
#
# Youngs Moduli (GPa) = 47.92091 84.62122 81.87822
#
# Poissons Ratio (x) = 0.58941 0.30275
# Poissons Ratio (y) = 0.33378 0.00808
# Poissons Ratio (z) = 0.17719 0.00835
#
# Static dielectric constant tensor:
#      x y z
#    x 1.665250 0.000000 -0.104300 
#    y 0.000000 1.753310 0.000000 
#    z -0.104300 0.000000 1.624080 
# 
# From -- ./inp_files/291581.got.cif
#   From: 2010.05.17/outbox.cif.g08.bks.cpg/sg15_146_cif.got.tgz:291581.got - 2010.06.03 18:47:42.
