data_PCOD9285837
_publ_section_title
;
Structure prediction by ZEFSAII (Michael W. Deem and Ramdas Pophale) SiO2 
 PCOD9285837
Probable space group: C 2/C
;
_chemical_formula_sum "Si O2"
_cell_formula_units_Z 60
_cell_length_a 8.048955
_cell_length_b 20.432208
_cell_length_c 21.284350
_cell_angle_alpha 90.000000
_cell_angle_beta 127.634657
_cell_angle_gamma 90.000000
_cell_volume 2772.022441
_symmetry_space_group_name_H-M "C 2/C"
_symmetry_group_IT_number 15
_symmetry_cell_setting 'monoclinic'
loop_
_space_group_symop_operation_xyz
x,y,z
-x,y,1/2-z
-x,-y,-z
x,-y,1/2+z
1/2+x,1/2+y,z
1/2-x,1/2+y,1/2-z
1/2-x,1/2-y,-z
1/2+x,1/2-y,1/2+z
loop_
_atom_site_type_symbol
_atom_site_label
_atom_site_fract_x
_atom_site_fract_y
_atom_site_fract_z
Si Si1 0.500000 0.134209 0.250000
Si Si2 0.635837 0.663964 0.944529
Si Si3 0.182348 0.022221 0.930472
Si Si4 0.057486 0.590945 0.947022
Si Si5 0.643155 0.177033 0.844989
Si Si6 0.846584 0.815089 0.582459
Si Si7 0.274363 0.278021 0.907017
Si Si8 0.099237 0.067241 0.204985
O O1 0.367486 0.182153 0.174305
O O2 0.339867 0.088834 0.252798
O O3 0.657690 0.587707 0.962648
O O4 0.387034 0.672013 0.884719
O O5 0.718101 0.701425 0.900831
O O6 0.760206 0.694194 0.031786
O O7 0.344742 0.050728 0.914668
O O8 0.969107 0.995323 0.851448
O O9 0.274347 0.965092 0.995320
O O10 0.076622 0.623566 0.882823
O O11 0.130657 0.650394 0.011096
O O12 0.500000 0.171778 0.750000
O O13 0.636231 0.250168 0.872307
O O14 0.984845 0.795076 0.553624
O O15 0.970180 0.871490 0.647498
O O16 0.000000 0.056285 0.250000
#
# Coordination Sequence:
#
# PCOD9285837 Si02
#       8
#     4   8   8   8   8   8   8   8
#     4  10  24  44  72 106 136 182 230 298 346 414
#     4  11  25  42  65 100 135 177 221 288 354 415
#     4  10  24  45  69  95 133 186 231 281 346 425
#     4  10  22  44  69  94 131 186 233 278 341 421
#     4  12  26  40  65 104 137 179 224 295 359 408
#     4  10  21  42  67  96 132 179 239 284 336 422
#     4  10  23  42  68 102 133 177 227 287 357 401
#     4  10  23  44  68 100 137 186 232 287 349 416
#
# _framework density 21.644845
#
# number of rings (size 3 to 8) (size 9 to 14) (size 15 to 20)
#    0.000    1.600    1.333    1.600    9.333    3.733 
#    4.800    0.000    0.000    0.000    0.000    0.000 
#    0.000    0.000    0.000    0.000    0.000    0.000 
#
# Total GULP energy -167233.660480 kJ/mol
# GULP energy per Si atom -5574.455349 kJ/mol
# Density = 2.159558 g / cm^3
# Si number density = 21.644845 Si / 1000 Ang^3
#
#
#
# Elastic Constant Matrix: (Units=GPa)
#
#
# Indices 1 2 3 4 5 6 
#
# 1 43.8523 7.4195 23.6975 0.0000 12.6761 0.0000
# 2 7.4195 132.9020 38.3396 0.0000 -7.0345 0.0000
# 3 23.6975 38.3396 100.9168 0.0000 -0.1083 0.0000
# 4 0.0000 0.0000 0.0000 4.4187 0.0000 -6.3880
# 5 12.6761 -7.0345 -0.1083 0.0000 28.3831 0.0000
# 6 0.0000 0.0000 0.0000 -6.3880 0.0000 21.9560
#
#
#
# Elastic Compliance Matrix: (Units=1/GPa)
#
#
# Indices 1 2 3 4 5 6 
#
# 1 0.030691 -0.000407 -0.007067 0.000000 -0.013835 0.000000
# 2 -0.000407 0.008581 -0.003162 0.000000 0.002296 0.000000
# 3 -0.007067 -0.003162 0.012773 0.000000 0.002421 0.000000
# 4 0.000000 0.000000 0.000000 0.390609 0.000000 0.113646
# 5 -0.013835 0.002296 0.002421 0.000000 0.041989 0.000000
# 6 0.000000 0.000000 0.000000 0.113646 0.000000 0.078610
#
#
# Mechanical properties :
#
#
# Convention : Reuss Voigt Hill
#
# Bulk Modulus (GPa) = 32.49693 46.28713 39.39203
# Shear Modulus (GPa) = 8.40645 24.83252 16.61948
#
# Velocity S-wave (km/s) = 1.97288 3.39081 2.77397
# Velocity P-wave (km/s) = 4.49844 6.06312 5.33842
#
# Compressibility (1/GPa) = 0.03077214
#
# Stress axis : x y z
#
# Youngs Moduli (GPa) = 32.58313 116.53989 78.29313
#
# Poissons Ratio (x) = 0.04742 0.55331
# Poissons Ratio (y) = 0.01326 0.24756
# Poissons Ratio (z) = 0.23027 0.36849
#
# Static dielectric constant tensor:
#      x y z
#    x 1.941610 0.000000 -0.016590 
#    y 0.000000 1.807190 0.000000 
#    z -0.016590 0.000000 1.766570 
# 
# From -- ./inp_files/234096.got.cif
#   From: 2010.05.17/outbox.cif.g08.bks.cpg/sg15_118_cif.got.tgz:234096.got - 2010.06.03 18:47:42.
