data_PCOD9285228
_publ_section_title
;
Structure prediction by ZEFSAII (Michael W. Deem and Ramdas Pophale) SiO2 
 PCOD9285228
Probable space group: C 2/C
;
_chemical_formula_sum "Si O2"
_cell_formula_units_Z 64
_cell_length_a 16.772420
_cell_length_b 14.903516
_cell_length_c 17.075361
_cell_angle_alpha 90.000000
_cell_angle_beta 44.925258
_cell_angle_gamma 90.000000
_cell_volume 3014.200165
_symmetry_space_group_name_H-M "C 2/C"
_symmetry_group_IT_number 15
_symmetry_cell_setting 'monoclinic'
loop_
_space_group_symop_operation_xyz
x,y,z
-x,y,1/2-z
-x,-y,-z
x,-y,1/2+z
1/2+x,1/2+y,z
1/2-x,1/2+y,1/2-z
1/2-x,1/2-y,-z
1/2+x,1/2-y,1/2+z
loop_
_atom_site_type_symbol
_atom_site_label
_atom_site_fract_x
_atom_site_fract_y
_atom_site_fract_z
Si Si1 0.869901 0.553477 0.993550
Si Si2 0.278515 0.169854 0.810549
Si Si3 0.544759 0.273771 0.420352
Si Si4 0.507454 0.759126 0.122198
Si Si5 0.204361 0.488721 0.785540
Si Si6 0.463421 0.522426 0.613533
Si Si7 0.654400 0.594634 0.049145
Si Si8 0.522429 0.892121 0.824648
O O1 0.930580 0.645841 0.928899
O O2 0.742423 0.562724 0.051784
O O3 0.936849 0.471780 0.907657
O O4 0.864905 0.538060 0.089594
O O5 0.178001 0.232371 0.849305
O O6 0.390227 0.225669 0.747213
O O7 0.227583 0.115346 0.919419
O O8 0.310687 0.093422 0.725421
O O9 0.486508 0.273791 0.546661
O O10 0.535661 0.369748 0.384044
O O11 0.506600 0.193183 0.392075
O O12 0.588869 0.687702 0.105829
O O13 0.337889 0.481767 0.708794
O O14 0.148367 0.431151 0.754627
O O15 0.500000 0.500000 0.500000
O O16 0.556775 0.477795 0.602984
O O17 0.500000 0.869577 0.750000
#
# Coordination Sequence:
#
# PCOD9285228 Si02
#       8
#     8   8   8   8   8   8   8   8
#     4  12  25  42  66 101 140 171 232 281 344 410
#     4  10  21  41  68  97 131 176 226 274 338 410
#     4  10  23  42  65 101 133 174 233 274 333 408
#     4  11  21  40  70  97 136 173 220 284 344 406
#     4  11  22  42  70  94 132 182 220 281 340 396
#     4  11  22  45  73  93 136 184 228 276 334 414
#     4  11  25  43  65 105 135 178 228 279 343 407
#     4  12  25  43  70 100 134 180 227 285 338 406
#
# _framework density 21.23283
#
# number of rings (size 3 to 8) (size 9 to 14) (size 15 to 20)
#    0.000    1.000    6.250    2.250    1.750    0.500 
#    4.500    1.875    0.000    0.000    0.000    0.000 
#    0.000    0.000    0.000    0.000    0.000    0.000 
#
# Total GULP energy -178998.831923 kJ/mol
# GULP energy per Si atom -5593.713498 kJ/mol
# Density = 2.118450 g / cm^3
# Si number density = 21.232830 Si / 1000 Ang^3
#
#
#
# Elastic Constant Matrix: (Units=GPa)
#
#
# Indices 1 2 3 4 5 6 
#
# 1 116.9079 39.8958 42.7842 0.0000 -2.8338 0.0000
# 2 39.8958 112.6649 34.7445 0.0000 -6.3308 0.0000
# 3 42.7842 34.7445 53.9679 0.0000 -20.1392 0.0000
# 4 0.0000 0.0000 0.0000 18.3819 0.0000 -8.2625
# 5 -2.8338 -6.3308 -20.1392 0.0000 34.6279 0.0000
# 6 0.0000 0.0000 0.0000 -8.2625 0.0000 31.9449
#
#
#
# Elastic Compliance Matrix: (Units=1/GPa)
#
#
# Indices 1 2 3 4 5 6 
#
# 1 0.013212 -0.001362 -0.011861 0.000000 -0.006066 0.000000
# 2 -0.001362 0.011418 -0.007068 0.000000 -0.002135 0.000000
# 3 -0.011861 -0.007068 0.040409 0.000000 0.021238 0.000000
# 4 0.000000 0.000000 0.000000 0.061558 0.000000 0.015922
# 5 -0.006066 -0.002135 0.021238 0.000000 0.040344 0.000000
# 6 0.000000 0.000000 0.000000 0.015922 0.000000 0.035422
#
#
# Mechanical properties :
#
#
# Convention : Reuss Voigt Hill
#
# Bulk Modulus (GPa) = 40.88810 57.59885 49.24348
# Shear Modulus (GPa) = 19.91264 28.06534 23.98899
#
# Velocity S-wave (km/s) = 3.06571 3.63959 3.36491
# Velocity P-wave (km/s) = 5.64183 6.69689 6.19187
#
# Compressibility (1/GPa) = 0.02445699
#
# Stress axis : x y z
#
# Youngs Moduli (GPa) = 75.68779 87.58307 24.74712
#
# Poissons Ratio (x) = 0.11925 0.29353
# Poissons Ratio (y) = 0.10305 0.17491
# Poissons Ratio (z) = 0.89776 0.61903
#
# Static dielectric constant tensor:
#      x y z
#    x 1.799340 0.000000 -0.009880 
#    y 0.000000 1.765360 0.000000 
#    z -0.009880 0.000000 1.776530 
# 
# From -- ./inp_files/205710.got.cif
#   From: 2010.05.17/outbox.cif.g08.bks.cpg/sg15_103_cif.got.tgz:205710.got - 2010.06.03 18:47:42.
