data_PCOD9285778
_publ_section_title
;
Structure prediction by ZEFSAII (Michael W. Deem and Ramdas Pophale) SiO2 
 PCOD9285778
Probable space group: C 2/C
;
_chemical_formula_sum "Si O2"
_cell_formula_units_Z 56
_cell_length_a 14.996796
_cell_length_b 13.963379
_cell_length_c 17.499382
_cell_angle_alpha 90.000000
_cell_angle_beta 47.606290
_cell_angle_gamma 90.000000
_cell_volume 2706.322123
_symmetry_space_group_name_H-M "C 2/C"
_symmetry_group_IT_number 15
_symmetry_cell_setting 'monoclinic'
loop_
_space_group_symop_operation_xyz
x,y,z
-x,y,1/2-z
-x,-y,-z
x,-y,1/2+z
1/2+x,1/2+y,z
1/2-x,1/2+y,1/2-z
1/2-x,1/2-y,-z
1/2+x,1/2-y,1/2+z
loop_
_atom_site_type_symbol
_atom_site_label
_atom_site_fract_x
_atom_site_fract_y
_atom_site_fract_z
Si Si1 0.208572 0.454702 0.726133
Si Si2 0.000000 0.632324 0.250000
Si Si3 0.500000 0.333779 0.750000
Si Si4 0.741972 0.139394 0.362557
Si Si5 0.036025 0.275830 0.071820
Si Si6 0.515549 0.682261 0.822273
Si Si7 0.728130 0.170125 0.751577
Si Si8 0.547224 0.392843 0.981309
O O1 0.101542 0.431431 0.730093
O O2 0.185624 0.423726 0.827068
O O3 0.241795 0.565970 0.706702
O O4 0.322218 0.392075 0.633121
O O5 0.035148 0.710359 0.164163
O O6 0.621812 0.393606 0.696834
O O7 0.463634 0.267149 0.843127
O O8 0.647687 0.156226 0.485385
O O9 0.765450 0.244296 0.312812
O O10 0.905979 0.326205 0.135504
O O11 0.033211 0.184758 0.016604
O O12 0.500000 0.631238 0.750000
O O13 0.658153 0.686995 0.758658
O O14 0.452156 0.634558 0.930480
O O15 0.500000 0.500000 0.000000
#
# Coordination Sequence:
#
# PCOD9285778 Si02
#       8
#     8   4   4   8   8   8   8   8
#     4  12  23  41  69  98 136 177 231 282 350 411
#     4  10  22  43  65  98 136 182 224 285 337 424
#     4  10  22  37  67  94 124 174 228 267 337 412
#     4  11  21  44  63  95 135 175 222 288 345 411
#     4  11  22  41  68  88 135 181 222 278 359 399
#     4  10  21  42  66  97 134 176 230 285 344 408
#     4  11  22  42  67  95 138 179 220 289 348 407
#     4  12  21  41  71  98 133 183 224 291 348 407
#
# _framework density 20.692288999999999
#
# number of rings (size 3 to 8) (size 9 to 14) (size 15 to 20)
#    0.429    0.571    7.143    0.429    0.000    3.429 
#    7.714    1.429    0.000    0.000    0.000    0.000 
#    0.000    0.000    0.000    0.000    0.000    0.000 
#
# Total GULP energy -156244.006977 kJ/mol
# GULP energy per Si atom -5580.143106 kJ/mol
# Density = 2.064519 g / cm^3
# Si number density = 20.692289 Si / 1000 Ang^3
#
#
#
# Elastic Constant Matrix: (Units=GPa)
#
#
# Indices 1 2 3 4 5 6 
#
# 1 107.0317 6.8956 12.8605 0.0000 -0.5348 0.0000
# 2 6.8956 59.3541 -10.3057 0.0000 7.4263 0.0000
# 3 12.8605 -10.3057 83.3062 0.0000 4.6760 0.0000
# 4 0.0000 0.0000 0.0000 19.3788 0.0000 -9.7109
# 5 -0.5348 7.4263 4.6760 0.0000 42.6600 0.0000
# 6 0.0000 0.0000 0.0000 -9.7109 0.0000 6.3657
#
#
#
# Elastic Compliance Matrix: (Units=1/GPa)
#
#
# Indices 1 2 3 4 5 6 
#
# 1 0.009647 -0.001488 -0.001705 0.000000 0.000567 0.000000
# 2 -0.001488 0.017907 0.002637 0.000000 -0.003425 0.000000
# 3 -0.001705 0.002637 0.012698 0.000000 -0.001872 0.000000
# 4 0.000000 0.000000 0.000000 0.219072 0.000000 0.334197
# 5 0.000567 -0.003425 -0.001872 0.000000 0.024250 0.000000
# 6 0.000000 0.000000 0.000000 0.334197 0.000000 0.666914
#
#
# Mechanical properties :
#
#
# Convention : Reuss Voigt Hill
#
# Bulk Modulus (GPa) = 25.54846 29.84362 27.69604
# Shear Modulus (GPa) = 5.18325 29.69700 17.44012
#
# Velocity S-wave (km/s) = 1.58441 3.79248 2.90631
# Velocity P-wave (km/s) = 3.96495 5.79923 4.96749
#
# Compressibility (1/GPa) = 0.03914131
#
# Stress axis : x y z
#
# Youngs Moduli (GPa) = 103.66370 55.84312 78.74962
#
# Poissons Ratio (x) = 0.08308 0.13427
# Poissons Ratio (y) = 0.15422 -0.20768
# Poissons Ratio (z) = 0.17675 -0.14727
#
# Static dielectric constant tensor:
#      x y z
#    x 1.781490 0.000000 -0.029680 
#    y 0.000000 1.729750 0.000000 
#    z -0.029680 0.000000 1.780660 
# 
# From -- ./inp_files/205362.got.cif
#   From: 2010.05.17/outbox.cif.g08.bks.cpg/sg15_103_cif.got.tgz:205362.got - 2010.06.03 18:47:42.
