data_PCOD9285333
_publ_section_title
;
Structure prediction by ZEFSAII (Michael W. Deem and Ramdas Pophale) SiO2 
 PCOD9285333
Probable space group: C 2/C
;
_chemical_formula_sum "Si O2"
_cell_formula_units_Z 48
_cell_length_a 19.493897
_cell_length_b 8.560869
_cell_length_c 24.126500
_cell_angle_alpha 90.000000
_cell_angle_beta 33.238339
_cell_angle_gamma 90.000000
_cell_volume 2206.931636
_symmetry_space_group_name_H-M "C 2/C"
_symmetry_group_IT_number 15
_symmetry_cell_setting 'monoclinic'
loop_
_space_group_symop_operation_xyz
x,y,z
-x,y,1/2-z
-x,-y,-z
x,-y,1/2+z
1/2+x,1/2+y,z
1/2-x,1/2+y,1/2-z
1/2-x,1/2-y,-z
1/2+x,1/2-y,1/2+z
loop_
_atom_site_type_symbol
_atom_site_label
_atom_site_fract_x
_atom_site_fract_y
_atom_site_fract_z
Si Si1 0.001670 0.530223 0.865284
Si Si2 0.640681 0.767104 0.480685
Si Si3 0.716497 0.798360 0.164869
Si Si4 0.751080 0.969383 0.030151
Si Si5 0.520328 0.820309 0.004064
Si Si6 0.134533 0.005250 0.163338
O O1 0.135655 0.567849 0.748578
O O2 0.892795 0.538207 0.892780
O O3 0.987294 0.658776 0.924308
O O4 0.971230 0.360637 0.912400
O O5 0.698415 0.634275 0.480377
O O6 0.584271 0.722855 0.458845
O O7 0.752320 0.891672 0.397116
O O8 0.761825 0.858764 0.074871
O O9 0.631270 0.647826 0.208658
O O10 0.844013 0.740056 0.106403
O O11 0.829587 0.933603 0.922104
O O12 0.500000 0.000000 0.000000
O O13 0.000000 0.925782 0.250000
#
# Coordination Sequence:
#
# PCOD9285333 Si02
#       6
#     8   8   8   8   8   8
#     4  10  21  41  70  95 134 177 230 278 340 403
#     4  10  23  46  66  93 143 184 216 287 349 402
#     4  12  23  39  71 101 127 177 232 282 334 410
#     4  11  23  41  65  97 137 169 230 291 338 394
#     4  10  21  46  66  92 141 182 220 280 351 410
#     4  11  22  38  67  96 128 178 228 277 342 399
#
# _framework density 21.749652999999999
#
# number of rings (size 3 to 8) (size 9 to 14) (size 15 to 20)
#    0.000    1.333    5.000    4.000    2.333    3.333 
#    9.000    0.000    0.000    0.000    0.000    0.000 
#    0.000    0.000    0.000    0.000    0.000    0.000 
#
# Total GULP energy -133874.542884 kJ/mol
# GULP energy per Si atom -5578.105953 kJ/mol
# Density = 2.170015 g / cm^3
# Si number density = 21.749653 Si / 1000 Ang^3
#
#
#
# Elastic Constant Matrix: (Units=GPa)
#
#
# Indices 1 2 3 4 5 6 
#
# 1 118.6110 36.1481 50.3284 0.0000 -25.5104 0.0000
# 2 36.1481 57.7284 17.4925 0.0000 -9.5592 -0.0002
# 3 50.3284 17.4925 94.2568 0.0000 -26.9145 0.0000
# 4 0.0000 0.0000 0.0000 20.7088 0.0000 -13.5573
# 5 -25.5104 -9.5592 -26.9145 0.0000 22.2902 0.0000
# 6 0.0000 -0.0002 0.0000 -13.5573 0.0000 29.2677
#
#
#
# Elastic Compliance Matrix: (Units=1/GPa)
#
#
# Indices 1 2 3 4 5 6 
#
# 1 0.013701 -0.006024 -0.003751 0.000000 0.008568 0.000000
# 2 -0.006024 0.021497 -0.000167 0.000000 0.002124 0.000000
# 3 -0.003751 -0.000167 0.017394 0.000000 0.016638 0.000000
# 4 0.000000 0.000000 0.000000 0.069306 0.000000 0.032103
# 5 0.008568 0.002124 0.016638 0.000000 0.075668 0.000000
# 6 0.000000 0.000000 0.000000 0.032103 0.000000 0.049038
#
#
# Mechanical properties :
#
#
# Convention : Reuss Voigt Hill
#
# Bulk Modulus (GPa) = 30.57335 53.17046 41.87191
# Shear Modulus (GPa) = 18.02513 25.56183 21.79348
#
# Velocity S-wave (km/s) = 2.88193 3.43195 3.16890
# Velocity P-wave (km/s) = 5.01612 6.34066 5.71688
#
# Compressibility (1/GPa) = 0.03270822
#
# Stress axis : x y z
#
# Youngs Moduli (GPa) = 72.98604 46.51883 57.49058
#
# Poissons Ratio (x) = 0.28023 0.21567
# Poissons Ratio (y) = 0.43966 0.00958
# Poissons Ratio (z) = 0.27380 0.00775
#
# Static dielectric constant tensor:
#      x y z
#    x 1.882350 0.000000 0.001260 
#    y 0.000000 1.851210 0.000000 
#    z 0.001260 0.000000 1.777750 
# 
# From -- ./inp_files/300459.got.cif
#   From: 2010.05.17/outbox.cif.g08.bks.cpg/sg15_151_cif.got.tgz:300459.got - 2010.06.03 18:47:42.
