data_PCOD9285732
_publ_section_title
;
Structure prediction by ZEFSAII (Michael W. Deem and Ramdas Pophale) SiO2 
 PCOD9285732
Probable space group: C 2/C
;
_chemical_formula_sum "Si O2"
_cell_formula_units_Z 48
_cell_length_a 12.081902
_cell_length_b 12.173247
_cell_length_c 15.543010
_cell_angle_alpha 90.000000
_cell_angle_beta 123.122807
_cell_angle_gamma 90.000000
_cell_volume 1914.530740
_symmetry_space_group_name_H-M "C 2/C"
_symmetry_group_IT_number 15
_symmetry_cell_setting 'monoclinic'
loop_
_space_group_symop_operation_xyz
x,y,z
-x,y,1/2-z
-x,-y,-z
x,-y,1/2+z
1/2+x,1/2+y,z
1/2-x,1/2+y,1/2-z
1/2-x,1/2-y,-z
1/2+x,1/2-y,1/2+z
loop_
_atom_site_type_symbol
_atom_site_label
_atom_site_fract_x
_atom_site_fract_y
_atom_site_fract_z
Si Si1 0.146974 0.511724 0.233015
Si Si2 0.544447 0.786015 0.177976
Si Si3 0.451147 0.749528 0.503859
Si Si4 0.749055 0.439556 0.400117
Si Si5 0.148189 0.759109 0.239564
Si Si6 0.349336 0.478030 0.963277
O O1 0.035730 0.418825 0.177836
O O2 0.212254 0.513189 0.165548
O O3 0.111844 0.633973 0.243663
O O4 0.252294 0.474891 0.350030
O O5 0.500000 0.739377 0.250000
O O6 0.481019 0.747576 0.061681
O O7 0.699757 0.762729 0.228585
O O8 0.378507 0.867224 0.482186
O O9 0.551144 0.716630 0.620034
O O10 0.340139 0.655234 0.457348
O O11 0.650377 0.347518 0.317443
O O12 0.690069 0.503914 0.455675
O O13 0.500000 0.500000 0.000000
#
# Coordination Sequence:
#
# PCOD9285732 Si02
#       6
#     8   8   8   8   8   8
#     4  10  22  41  63  95 128 175 224 273 324 410
#     4  10  23  41  61  96 138 170 228 278 331 405
#     4  10  22  41  65  90 132 182 216 278 336 403
#     4  10  24  43  63  99 137 167 231 278 332 406
#     4  10  21  42  66  91 135 175 222 273 341 400
#     4  12  23  41  66  97 133 177 228 276 338 399
#
# _framework density 25.071418000000001
#
# number of rings (size 3 to 8) (size 9 to 14) (size 15 to 20)
#    0.000    2.000    3.333    2.500    0.000   10.000 
#    0.000    0.000    0.000    0.000    0.000    0.000 
#    0.000    0.000    0.000    0.000    0.000    0.000 
#
# Total GULP energy -134188.407310 kJ/mol
# GULP energy per Si atom -5591.183638 kJ/mol
# Density = 2.501435 g / cm^3
# Si number density = 25.071418 Si / 1000 Ang^3
#
#
#
# Elastic Constant Matrix: (Units=GPa)
#
#
# Indices 1 2 3 4 5 6 
#
# 1 117.6742 -10.4892 41.0320 0.0000 -50.4002 0.0000
# 2 -10.4892 60.0066 -9.5198 0.0000 7.8701 0.0000
# 3 41.0320 -9.5198 146.2120 0.0000 -24.9105 0.0000
# 4 0.0000 0.0000 0.0000 33.9974 0.0000 -12.2134
# 5 -50.4002 7.8701 -24.9105 0.0000 47.5527 0.0000
# 6 0.0000 0.0000 0.0000 -12.2134 0.0000 0.1138
#
#
#
# Elastic Compliance Matrix: (Units=1/GPa)
#
#
# Indices 1 2 3 4 5 6 
#
# 1 0.015973 0.000425 -0.001738 0.000000 0.015949 0.000000
# 2 0.000425 0.017110 0.000647 0.000000 -0.002043 0.000000
# 3 -0.001738 0.000647 0.007727 0.000000 0.002099 0.000000
# 4 0.000000 0.000000 0.000000 -0.000783 0.000000 -0.084056
# 5 0.015949 -0.002043 0.002099 0.000000 0.039371 0.000000
# 6 0.000000 0.000000 0.000000 -0.084056 0.000000 -0.233979
#
#
# Mechanical properties :
#
#
# Convention : Reuss Voigt Hill
#
# Bulk Modulus (GPa) = 25.33145 40.65986 32.99566
# Shear Modulus (GPa) = -35.69093 36.52408 0.41658
#
# Velocity S-wave (km/s) = -3.77712 3.82095 0.40806
# Velocity P-wave (km/s) = 2.98270 5.97654 3.66214
#
# Compressibility (1/GPa) = 0.03947662
#
# Stress axis : x y z
#
# Youngs Moduli (GPa) = 62.60723 58.44673 129.42087
#
# Poissons Ratio (x) = -0.02482 0.22488
# Poissons Ratio (y) = -0.02659 -0.08371
# Poissons Ratio (z) = 0.10879 -0.03780
#
# Static dielectric constant tensor:
#      x y z
#    x 2.034050 0.000000 -0.036760 
#    y 0.000000 2.048000 0.000000 
#    z -0.036760 0.000000 2.010460 
# 
# From -- ./inp_files/153593.got.cif
#   From: 2010.05.17/outbox.cif.g08.bks.cpg/sg15_77_cif.got.tgz:153593.got - 2010.06.03 18:47:42.
