data_PCOD9285590
_publ_section_title
;
Structure prediction by ZEFSAII (Michael W. Deem and Ramdas Pophale) SiO2 
 PCOD9285590
Probable space group: C 2/C
;
_chemical_formula_sum "Si O2"
_cell_formula_units_Z 56
_cell_length_a 13.834379
_cell_length_b 24.763047
_cell_length_c 14.371209
_cell_angle_alpha 90.000000
_cell_angle_beta 28.660347
_cell_angle_gamma 90.000000
_cell_volume 2361.299196
_symmetry_space_group_name_H-M "C 2/C"
_symmetry_group_IT_number 15
_symmetry_cell_setting 'monoclinic'
loop_
_space_group_symop_operation_xyz
x,y,z
-x,y,1/2-z
-x,-y,-z
x,-y,1/2+z
1/2+x,1/2+y,z
1/2-x,1/2+y,1/2-z
1/2-x,1/2-y,-z
1/2+x,1/2-y,1/2+z
loop_
_atom_site_type_symbol
_atom_site_label
_atom_site_fract_x
_atom_site_fract_y
_atom_site_fract_z
Si Si1 0.455196 0.559955 0.155375
Si Si2 0.559412 0.053192 0.597231
Si Si3 0.624115 0.850051 0.729203
Si Si4 0.498558 0.677299 0.037385
Si Si5 0.089751 0.642548 0.899378
Si Si6 0.577756 0.780702 0.091134
Si Si7 0.234928 0.466373 0.647333
O O1 0.291462 0.559639 0.375427
O O2 0.513986 0.622227 0.085677
O O3 0.328713 0.545078 0.169055
O O4 0.624421 0.512969 0.016571
O O5 0.500000 0.072360 0.750000
O O6 0.422188 0.083996 0.637094
O O7 0.486236 0.991614 0.655503
O O8 0.500000 0.823585 0.750000
O O9 0.814413 0.822571 0.619608
O O10 0.713438 0.907812 0.619435
O O11 0.464604 0.859236 0.947513
O O12 0.481318 0.729846 0.117286
O O13 0.708015 0.673625 0.801917
O O14 0.909863 0.674178 0.997436
O O15 0.500000 0.810477 0.250000
O O16 0.750000 0.750000 0.000000
#
# Coordination Sequence:
#
# PCOD9285590 Si02
#       7
#     8   8   8   8   8   8   8
#     4  10  22  39  66  95 136 186 232 285 347 414
#     4  12  24  37  63 101 144 181 226 285 356 424
#     4  11  26  48  72  97 135 188 245 300 354 409
#     4  11  24  44  71 103 142 182 235 291 350 422
#     4  12  25  44  70 104 141 184 236 293 352 428
#     4  12  25  44  74 106 146 188 222 272 357 445
#     4  10  21  42  64  93 130 183 240 294 342 409
#
# _framework density 23.715758000000001
#
# number of rings (size 3 to 8) (size 9 to 14) (size 15 to 20)
#    0.000    0.857    5.714    2.143    0.000    1.143 
#    0.000    3.571    0.000    0.000    0.000    0.000 
#    0.000    0.000    0.000    0.000    0.000    0.000 
#
# Total GULP energy -156306.659226 kJ/mol
# GULP energy per Si atom -5582.380687 kJ/mol
# Density = 2.366178 g / cm^3
# Si number density = 23.715758 Si / 1000 Ang^3
#
#
#
# Elastic Constant Matrix: (Units=GPa)
#
#
# Indices 1 2 3 4 5 6 
#
# 1 123.6900 20.3889 21.6488 0.0085 7.7567 -0.0080
# 2 20.3889 95.1128 6.9755 -0.0280 -0.3967 0.0009
# 3 21.6488 6.9755 113.3807 -0.0335 5.9229 -0.0032
# 4 0.0085 -0.0280 -0.0335 19.6568 0.0097 -3.1965
# 5 7.7567 -0.3967 5.9229 0.0097 45.6821 0.0037
# 6 -0.0080 0.0009 -0.0032 -3.1965 0.0037 25.0187
#
#
#
# Elastic Compliance Matrix: (Units=1/GPa)
#
#
# Indices 1 2 3 4 5 6 
#
# 1 0.008718 -0.001765 -0.001488 -0.000008 -0.001303 0.000002
# 2 -0.001765 0.010920 -0.000358 0.000016 0.000441 0.000001
# 3 -0.001488 -0.000358 0.009175 0.000017 -0.000940 0.000003
# 4 -0.000008 0.000016 0.000017 0.051952 -0.000012 0.006638
# 5 -0.001303 0.000441 -0.000940 -0.000012 0.022237 -0.000005
# 6 0.000002 0.000001 0.000003 0.006638 -0.000005 0.040818
#
#
# Mechanical properties :
#
#
# Convention : Reuss Voigt Hill
#
# Bulk Modulus (GPa) = 46.31472 47.80111 47.05791
# Shear Modulus (GPa) = 31.59757 36.94953 34.27355
#
# Velocity S-wave (km/s) = 3.65409 3.95145 3.80568
# Velocity P-wave (km/s) = 6.11348 6.40455 6.26071
#
# Compressibility (1/GPa) = 0.02159141
#
# Stress axis : x y z
#
# Youngs Moduli (GPa) = 114.70783 91.57258 108.99093
#
# Poissons Ratio (x) = 0.16164 0.16217
# Poissons Ratio (y) = 0.20247 0.03900
# Poissons Ratio (z) = 0.17068 0.03277
#
# Static dielectric constant tensor:
#      x y z
#    x 1.905270 0.000000 -0.084620 
#    y 0.000000 1.838780 0.000010 
#    z -0.084620 0.000010 2.021010 
# 
# From -- ./inp_files/156908.got.cif
#   From: 2010.05.17/outbox.cif.g08.bks.cpg/sg15_79_cif.got.tgz:156908.got - 2010.06.03 18:47:42.
