data_PCOD9285752
_publ_section_title
;
Structure prediction by ZEFSAII (Michael W. Deem and Ramdas Pophale) SiO2 
 PCOD9285752
Probable space group: C 2/C
;
_chemical_formula_sum "Si O2"
_cell_formula_units_Z 60
_cell_length_a 16.464697
_cell_length_b 5.463494
_cell_length_c 27.738708
_cell_angle_alpha 90.000000
_cell_angle_beta 74.767030
_cell_angle_gamma 90.000000
_cell_volume 2407.560464
_symmetry_space_group_name_H-M "C 2/C"
_symmetry_group_IT_number 15
_symmetry_cell_setting 'monoclinic'
loop_
_space_group_symop_operation_xyz
x,y,z
-x,y,1/2-z
-x,-y,-z
x,-y,1/2+z
1/2+x,1/2+y,z
1/2-x,1/2+y,1/2-z
1/2-x,1/2-y,-z
1/2+x,1/2-y,1/2+z
loop_
_atom_site_type_symbol
_atom_site_label
_atom_site_fract_x
_atom_site_fract_y
_atom_site_fract_z
Si Si1 0.935816 0.037194 0.466905
Si Si2 0.380135 0.777689 0.826461
Si Si3 0.585966 0.982797 0.585084
Si Si4 0.000000 0.082879 0.250000
Si Si5 0.143951 0.788549 0.788730
Si Si6 0.712278 0.937735 0.377687
Si Si7 0.223508 0.917995 0.959310
Si Si8 0.738591 0.658701 0.814966
O O1 0.954964 0.273958 0.430877
O O2 0.931270 0.774325 0.440082
O O3 0.846972 0.092245 0.507643
O O4 0.000000 0.000000 0.500000
O O5 0.434583 0.926763 0.856250
O O6 0.435301 0.598928 0.786178
O O7 0.313234 0.603294 0.863984
O O8 0.312457 0.958583 0.812245
O O9 0.687115 0.027663 0.570120
O O10 0.944352 0.248043 0.222991
O O11 0.150960 0.061757 0.808049
O O12 0.170719 0.637704 0.832263
O O13 0.215847 0.799349 0.735834
O O14 0.683110 0.765013 0.425260
O O15 0.711433 0.227375 0.370474
O O16 0.250000 0.750000 0.000000
#
# Coordination Sequence:
#
# PCOD9285752 Si02
#       8
#     8   8   8   4   8   8   8   8
#     4  11  23  43  67  98 138 174 218 284 349 407
#     4  10  24  39  63  93 127 175 219 276 334 409
#     4  10  23  43  69  92 132 179 228 273 337 409
#     4  12  24  42  56 100 134 168 222 280 350 400
#     4  11  22  38  63  91 127 171 220 280 329 413
#     4  10  21  42  66  94 125 180 225 270 343 402
#     4   9  21  41  68 101 128 171 232 283 336 405
#     4  11  20  41  65  84 127 174 224 266 337 404
#
# _framework density 24.921493000000002
#
# number of rings (size 3 to 8) (size 9 to 14) (size 15 to 20)
#    0.000    1.600    2.667    1.600    5.600    1.600 
#    9.600    0.000    0.000    0.000    0.000    0.000 
#    0.000    0.000    0.000    0.000    0.000    0.000 
#
# Total GULP energy -167283.585775 kJ/mol
# GULP energy per Si atom -5576.119526 kJ/mol
# Density = 2.486477 g / cm^3
# Si number density = 24.921493 Si / 1000 Ang^3
#
#
#
# Elastic Constant Matrix: (Units=GPa)
#
#
# Indices 1 2 3 4 5 6 
#
# 1 76.0923 20.0364 32.5476 0.0000 37.7754 -0.0001
# 2 20.0364 74.0179 21.4046 -0.0005 19.4675 -0.0005
# 3 32.5476 21.4046 80.5168 0.0000 31.6468 -0.0003
# 4 0.0000 -0.0005 0.0000 42.4023 0.0000 8.1668
# 5 37.7754 19.4675 31.6468 0.0000 48.6307 0.0001
# 6 -0.0001 -0.0005 -0.0003 8.1668 0.0001 27.8870
#
#
#
# Elastic Compliance Matrix: (Units=1/GPa)
#
#
# Indices 1 2 3 4 5 6 
#
# 1 0.021991 -0.001271 -0.002738 0.000000 -0.014792 0.000000
# 2 -0.001271 0.015470 -0.002086 0.000000 -0.003848 0.000000
# 3 -0.002738 -0.002086 0.017356 0.000000 -0.008333 0.000000
# 4 0.000000 0.000000 0.000000 0.024993 0.000000 -0.007319
# 5 -0.014792 -0.003848 -0.008333 0.000000 0.039016 0.000000
# 6 0.000000 0.000000 0.000000 -0.007319 0.000000 0.038003
#
#
# Mechanical properties :
#
#
# Convention : Reuss Voigt Hill
#
# Bulk Modulus (GPa) = 23.45934 42.06712 32.76323
# Shear Modulus (GPa) = 27.28847 34.22657 30.75752
#
# Velocity S-wave (km/s) = 3.31263 3.70993 3.51690
# Velocity P-wave (km/s) = 4.90562 5.93868 5.44670
#
# Compressibility (1/GPa) = 0.04262694
#
# Stress axis : x y z
#
# Youngs Moduli (GPa) = 45.47345 64.64292 57.61589
#
# Poissons Ratio (x) = 0.08215 0.15774
# Poissons Ratio (y) = 0.05779 0.12021
# Poissons Ratio (z) = 0.12450 0.13487
#
# Static dielectric constant tensor:
#      x y z
#    x 1.947930 0.000000 0.007100 
#    y 0.000000 2.325520 0.000000 
#    z 0.007100 0.000000 2.091750 
# 
# From -- ./inp_files/314877.got.cif
#   From: 2010.05.17/outbox.cif.g08.bks.cpg/sg15_158_cif.got.tgz:314877.got - 2010.06.03 18:47:42.
