data_PCOD9285539
_publ_section_title
;
Structure prediction by ZEFSAII (Michael W. Deem and Ramdas Pophale) SiO2 
 PCOD9285539
Probable space group: C 2/C
;
_chemical_formula_sum "Si O2"
_cell_formula_units_Z 60
_cell_length_a 24.895804
_cell_length_b 5.466126
_cell_length_c 19.529721
_cell_angle_alpha 90.000000
_cell_angle_beta 84.606072
_cell_angle_gamma 90.000000
_cell_volume 2645.906407
_symmetry_space_group_name_H-M "C 2/C"
_symmetry_group_IT_number 15
_symmetry_cell_setting 'monoclinic'
loop_
_space_group_symop_operation_xyz
x,y,z
-x,y,1/2-z
-x,-y,-z
x,-y,1/2+z
1/2+x,1/2+y,z
1/2-x,1/2+y,1/2-z
1/2-x,1/2-y,-z
1/2+x,1/2-y,1/2+z
loop_
_atom_site_type_symbol
_atom_site_label
_atom_site_fract_x
_atom_site_fract_y
_atom_site_fract_z
Si Si1 0.537105 0.265889 0.442083
Si Si2 0.580027 0.934646 0.317202
Si Si3 0.632499 0.635572 0.416688
Si Si4 0.235200 0.962083 0.342091
Si Si5 0.906959 0.763342 0.314328
Si Si6 0.295176 0.465932 0.314896
Si Si7 0.079283 0.387386 0.541367
Si Si8 0.000000 0.070763 0.250000
O O1 0.577020 0.483194 0.417882
O O2 0.473106 0.293211 0.457305
O O3 0.546076 0.071832 0.379634
O O4 0.559497 0.135447 0.507956
O O5 0.629886 0.819626 0.352493
O O6 0.541417 0.737052 0.286723
O O7 0.599137 0.112828 0.254983
O O8 0.684552 0.471814 0.399421
O O9 0.626666 0.778122 0.488597
O O10 0.268807 0.713526 0.346140
O O11 0.213840 0.961739 0.266123
O O12 0.269014 0.213328 0.345737
O O13 0.858425 0.954466 0.323301
O O14 0.905898 0.596040 0.381469
O O15 0.964002 0.899458 0.302284
#
# Coordination Sequence:
#
# PCOD9285539 Si02
#       8
#     8   8   8   8   8   8   8   4
#     4  10  21  42  63  96 130 180 228 275 333 419
#     4  11  23  37  67  97 130 173 223 287 336 410
#     4  11  23  40  69  92 129 176 232 277 338 408
#     4  10  23  43  69 102 127 179 228 296 339 408
#     4  12  25  42  63 103 137 176 219 285 349 412
#     4  10  24  42  70  98 138 169 231 290 352 398
#     4  10  23  39  62  95 137 181 218 275 343 417
#     4  12  24  38  64  98 138 170 216 282 346 410
#
# _framework density 22.676537
#
# number of rings (size 3 to 8) (size 9 to 14) (size 15 to 20)
#    0.000    1.333    0.000    5.600   11.200    3.200 
#    0.000    1.333    0.000    0.000    0.000    0.000 
#    0.000    0.000    0.000    0.000    0.000    0.000 
#
# Total GULP energy -167933.459342 kJ/mol
# GULP energy per Si atom -5597.781978 kJ/mol
# Density = 2.262492 g / cm^3
# Si number density = 22.676537 Si / 1000 Ang^3
#
#
#
# Elastic Constant Matrix: (Units=GPa)
#
#
# Indices 1 2 3 4 5 6 
#
# 1 74.7776 23.6157 27.6550 0.0000 -23.1779 0.0000
# 2 23.6157 89.6161 36.9959 0.0000 -12.6250 0.0000
# 3 27.6550 36.9959 106.2036 0.0000 -10.7200 0.0000
# 4 0.0000 0.0000 0.0000 28.8101 0.0000 -3.4011
# 5 -23.1779 -12.6250 -10.7200 0.0000 19.0640 0.0000
# 6 0.0000 0.0000 0.0000 -3.4011 0.0000 34.6292
#
#
#
# Elastic Compliance Matrix: (Units=1/GPa)
#
#
# Indices 1 2 3 4 5 6 
#
# 1 0.022597 -0.001219 -0.002934 0.000000 0.025016 0.000000
# 2 -0.001219 0.013891 -0.003968 0.000000 0.005486 0.000000
# 3 -0.002934 -0.003968 0.011595 0.000000 0.000325 0.000000
# 4 0.000000 0.000000 0.000000 0.035117 0.000000 0.003449
# 5 0.025016 0.005486 0.000325 0.000000 0.086685 0.000000
# 6 0.000000 0.000000 0.000000 0.003449 0.000000 0.029216
#
#
# Mechanical properties :
#
#
# Convention : Reuss Voigt Hill
#
# Bulk Modulus (GPa) = 31.40675 49.68116 40.54396
# Shear Modulus (GPa) = 22.12813 28.65604 25.39209
#
# Velocity S-wave (km/s) = 3.12719 3.55869 3.34990
# Velocity P-wave (km/s) = 5.18836 6.23233 5.73415
#
# Compressibility (1/GPa) = 0.03184029
#
# Stress axis : x y z
#
# Youngs Moduli (GPa) = 44.25335 71.99034 86.24482
#
# Poissons Ratio (x) = 0.08777 0.25308
# Poissons Ratio (y) = 0.05395 0.34219
# Poissons Ratio (z) = 0.12986 0.28563
#
# Static dielectric constant tensor:
#      x y z
#    x 1.847280 0.000000 -0.017510 
#    y 0.000000 1.886210 0.000000 
#    z -0.017510 0.000000 1.826540 
# 
# From -- ./inp_files/256526.got.cif
#   From: 2010.05.17/outbox.cif.g08.bks.cpg/sg15_129_cif.got.tgz:256526.got - 2010.06.03 18:47:42.
