data_PCOD9285388
_publ_section_title
;
Structure prediction by ZEFSAII (Michael W. Deem and Ramdas Pophale) SiO2 
 PCOD9285388
Probable space group: C 2/C
;
_chemical_formula_sum "Si O2"
_cell_formula_units_Z 52
_cell_length_a 5.043130
_cell_length_b 23.380559
_cell_length_c 20.831522
_cell_angle_alpha 90.000000
_cell_angle_beta 93.766345
_cell_angle_gamma 90.000000
_cell_volume 2450.964735
_symmetry_space_group_name_H-M "C 2/C"
_symmetry_group_IT_number 15
_symmetry_cell_setting 'monoclinic'
loop_
_space_group_symop_operation_xyz
x,y,z
-x,y,1/2-z
-x,-y,-z
x,-y,1/2+z
1/2+x,1/2+y,z
1/2-x,1/2+y,1/2-z
1/2-x,1/2-y,-z
1/2+x,1/2-y,1/2+z
loop_
_atom_site_type_symbol
_atom_site_label
_atom_site_fract_x
_atom_site_fract_y
_atom_site_fract_z
Si Si1 0.895596 0.991982 0.568577
Si Si2 0.500000 0.927550 0.250000
Si Si3 0.806071 0.264898 0.346990
Si Si4 0.694254 0.114725 0.131149
Si Si5 0.831776 0.260205 0.927416
Si Si6 0.500000 0.352244 0.250000
Si Si7 0.080514 0.501262 0.367331
Si Si8 0.000000 0.828670 0.750000
O O1 0.876174 0.926173 0.590201
O O2 0.601251 0.015396 0.574708
O O3 0.119244 0.017056 0.618868
O O4 0.000000 0.000000 0.500000
O O5 0.242943 0.890381 0.227936
O O6 0.439291 0.969606 0.307332
O O7 0.621000 0.258400 0.406829
O O8 0.659108 0.313699 0.303964
O O9 0.106610 0.269622 0.378511
O O10 0.831262 0.211832 0.296474
O O11 0.659943 0.172649 0.091043
O O12 0.453405 0.070068 0.139672
O O13 0.818374 0.133211 0.200843
O O14 0.750000 0.250000 0.000000
#
# Coordination Sequence:
#
# PCOD9285388 Si02
#       8
#     8   4   8   8   8   4   8   4
#     4  10  22  43  61  89 135 173 220 261 322 397
#     4  12  25  42  67  96 133 168 233 278 330 408
#     4  11  24  44  68  95 137 173 218 282 341 402
#     4   9  24  37  70  97 130 172 215 271 343 383
#     4  11  24  45  66 102 134 174 225 276 330 420
#     4  12  24  45  65  96 133 177 224 270 344 406
#     4  10  24  40  64  92 129 166 221 276 324 382
#     4  10  21  41  72 104 132 171 219 284 342 402
#
# _framework density 21.216135999999999
#
# number of rings (size 3 to 8) (size 9 to 14) (size 15 to 20)
#    0.923    0.615    0.000    5.077    6.462    0.000 
#    8.308    0.000    0.000    0.000    0.000    0.000 
#    0.000    0.000    0.000    0.000    0.000    0.000 
#
# Total GULP energy -144819.656419 kJ/mol
# GULP energy per Si atom -5569.986785 kJ/mol
# Density = 2.116785 g / cm^3
# Si number density = 21.216136 Si / 1000 Ang^3
#
#
#
# Elastic Constant Matrix: (Units=GPa)
#
#
# Indices 1 2 3 4 5 6 
#
# 1 93.9316 22.4209 -8.4816 0.0000 2.8968 0.0000
# 2 22.4209 39.7255 17.3498 0.0000 5.0783 0.0000
# 3 -8.4816 17.3498 80.2153 0.0000 -6.9529 0.0000
# 4 0.0000 0.0000 0.0000 -2.8093 0.0000 -27.9272
# 5 2.8968 5.0783 -6.9529 0.0000 36.0473 0.0000
# 6 0.0000 0.0000 0.0000 -27.9272 0.0000 8.6265
#
#
#
# Elastic Compliance Matrix: (Units=1/GPa)
#
#
# Indices 1 2 3 4 5 6 
#
# 1 0.013067 -0.008970 0.003397 0.000000 0.000869 0.000000
# 2 -0.008970 0.034933 -0.009019 0.000000 -0.005940 0.000000
# 3 0.003397 -0.009019 0.015116 0.000000 0.003913 0.000000
# 4 0.000000 0.000000 0.000000 -0.010727 0.000000 -0.034728
# 5 0.000869 -0.005940 0.003913 0.000000 0.029263 0.000000
# 6 0.000000 0.000000 0.000000 -0.034728 0.000000 0.003493
#
#
# Mechanical properties :
#
#
# Convention : Reuss Voigt Hill
#
# Bulk Modulus (GPa) = 29.47014 30.71674 30.09344
# Shear Modulus (GPa) = 39.79639 20.54512 30.17075
#
# Velocity S-wave (km/s) = 4.33570 3.11524 3.77512
# Velocity P-wave (km/s) = 6.24380 5.23919 5.76342
#
# Compressibility (1/GPa) = 0.03393265
#
# Stress axis : x y z
#
# Youngs Moduli (GPa) = 76.52882 28.62583 66.15712
#
# Poissons Ratio (x) = 0.25676 -0.22473
# Poissons Ratio (y) = 0.68643 0.59667
# Poissons Ratio (z) = -0.25997 0.25818
#
# Static dielectric constant tensor:
#      x y z
#    x 1.803070 0.000000 -0.012780 
#    y 0.000000 1.797770 0.000000 
#    z -0.012780 0.000000 1.752860 
# 
# From -- ./inp_files/227602.got.cif
#   From: 2010.05.17/outbox.cif.g08.bks.cpg/sg15_114_cif.got.tgz:227602.got - 2010.06.03 18:47:42.
