data_PCOD9285073
_publ_section_title
;
Structure prediction by ZEFSAII (Michael W. Deem and Ramdas Pophale) SiO2 
 PCOD9285073
Probable space group: C 2/C
;
_chemical_formula_sum "Si O2"
_cell_formula_units_Z 44
_cell_length_a 15.918801
_cell_length_b 11.028159
_cell_length_c 27.022743
_cell_angle_alpha 90.000000
_cell_angle_beta 158.467122
_cell_angle_gamma 90.000000
_cell_volume 1741.206834
_symmetry_space_group_name_H-M "C 2/C"
_symmetry_group_IT_number 15
_symmetry_cell_setting 'monoclinic'
loop_
_space_group_symop_operation_xyz
x,y,z
-x,y,1/2-z
-x,-y,-z
x,-y,1/2+z
1/2+x,1/2+y,z
1/2-x,1/2+y,1/2-z
1/2-x,1/2-y,-z
1/2+x,1/2-y,1/2+z
loop_
_atom_site_type_symbol
_atom_site_label
_atom_site_fract_x
_atom_site_fract_y
_atom_site_fract_z
Si Si1 0.746097 0.863308 0.626210
Si Si2 0.363905 0.471686 0.282320
Si Si3 0.617841 0.988172 0.958251
Si Si4 0.926242 0.113613 0.993921
Si Si5 0.131106 0.306340 0.729013
Si Si6 0.500000 0.971098 0.750000
O O1 0.666789 0.953396 0.538713
O O2 0.597459 0.741265 0.547461
O O3 0.000000 0.823912 0.750000
O O4 0.771355 0.935819 0.690462
O O5 0.138116 0.456575 0.195574
O O6 0.374457 0.335326 0.266576
O O7 0.638113 0.499985 0.436191
O O8 0.546656 0.847900 0.910394
O O9 0.679944 0.063398 0.872852
O O10 0.107274 0.146611 0.136230
O O11 0.000000 0.000000 0.000000
O O12 0.072417 0.380130 0.746294
#
# Coordination Sequence:
#
# PCOD9285073 Si02
#       6
#     8   8   8   8   8   4
#     4  10  21  43  73 101 140 190 244 296 363 434
#     4  11  25  46  73 107 141 191 241 302 363 436
#     4  11  25  44  69 108 145 183 243 300 363 434
#     4  10  21  41  67 102 136 185 242 293 358 433
#     4  11  25  44  69 102 145 190 240 294 374 434
#     4  10  24  42  68  96 142 190 240 298 358 440
#
# _framework density 25.269829000000001
#
# number of rings (size 3 to 8) (size 9 to 14) (size 15 to 20)
#    0.000    1.455    2.727    1.091    6.364    1.455 
#    6.545    1.818    0.000    0.000    0.000    0.000 
#    0.000    0.000    0.000    0.000    0.000    0.000 
#
# Total GULP energy -122488.176795 kJ/mol
# GULP energy per Si atom -5567.644400 kJ/mol
# Density = 2.521231 g / cm^3
# Si number density = 25.269829 Si / 1000 Ang^3
#
#
#
# Elastic Constant Matrix: (Units=GPa)
#
#
# Indices 1 2 3 4 5 6 
#
# 1 89.9827 55.0877 57.0383 0.0005 18.5813 -0.0001
# 2 55.0877 125.4045 60.6456 0.0061 7.3798 -0.0024
# 3 57.0383 60.6456 185.4905 0.0189 18.7139 -0.0066
# 4 0.0005 0.0061 0.0189 48.4613 -0.0053 6.2529
# 5 18.5813 7.3798 18.7139 -0.0053 42.0345 0.0006
# 6 -0.0001 -0.0024 -0.0066 6.2529 0.0006 9.1479
#
#
#
# Elastic Compliance Matrix: (Units=1/GPa)
#
#
# Indices 1 2 3 4 5 6 
#
# 1 0.017844 -0.006093 -0.002939 0.000002 -0.005510 -0.000004
# 2 -0.006093 0.011556 -0.002064 -0.000001 0.001584 0.000002
# 3 -0.002939 -0.002064 0.007122 -0.000004 -0.001509 0.000007
# 4 0.000002 -0.000001 -0.000004 0.022631 0.000004 -0.015469
# 5 -0.005510 0.001584 -0.001509 0.000004 0.026619 -0.000005
# 6 -0.000004 0.000002 0.000007 -0.015469 -0.000005 0.119889
#
#
# Mechanical properties :
#
#
# Convention : Reuss Voigt Hill
#
# Bulk Modulus (GPa) = 69.78750 82.93566 76.36158
# Shear Modulus (GPa) = 21.49330 35.13580 28.31455
#
# Velocity S-wave (km/s) = 2.91959 3.73289 3.35100
# Velocity P-wave (km/s) = 6.24838 7.17430 6.72728
#
# Compressibility (1/GPa) = 0.01432921
#
# Stress axis : x y z
#
# Youngs Moduli (GPa) = 56.04054 86.53628 140.40861
#
# Poissons Ratio (x) = 0.52727 0.41268
# Poissons Ratio (y) = 0.34146 0.28985
# Poissons Ratio (z) = 0.16471 0.17864
#
# Static dielectric constant tensor:
#      x y z
#    x 2.151710 0.000000 0.068950 
#    y 0.000000 2.011450 0.000000 
#    z 0.068950 0.000000 2.132780 
# 
# From -- ./inp_files/316267.got.cif
#   From: 2010.05.17/outbox.cif.g08.bks.cpg/sg15_159_cif.got.tgz:316267.got - 2010.06.03 18:47:42.
