data_PCOD9285518
_publ_section_title
;
Structure prediction by ZEFSAII (Michael W. Deem and Ramdas Pophale) SiO2 
 PCOD9285518
Probable space group: C 2/C
;
_chemical_formula_sum "Si O2"
_cell_formula_units_Z 56
_cell_length_a 12.417430
_cell_length_b 21.969940
_cell_length_c 15.764224
_cell_angle_alpha 90.000000
_cell_angle_beta 143.612455
_cell_angle_gamma 90.000000
_cell_volume 2551.329044
_symmetry_space_group_name_H-M "C 2/C"
_symmetry_group_IT_number 15
_symmetry_cell_setting 'monoclinic'
loop_
_space_group_symop_operation_xyz
x,y,z
-x,y,1/2-z
-x,-y,-z
x,-y,1/2+z
1/2+x,1/2+y,z
1/2-x,1/2+y,1/2-z
1/2-x,1/2-y,-z
1/2+x,1/2-y,1/2+z
loop_
_atom_site_type_symbol
_atom_site_label
_atom_site_fract_x
_atom_site_fract_y
_atom_site_fract_z
Si Si1 0.175640 0.981920 0.798988
Si Si2 0.291755 0.380962 0.143051
Si Si3 0.765949 0.345054 0.214647
Si Si4 0.232187 0.711229 0.170748
Si Si5 0.504996 0.613094 0.422475
Si Si6 0.588061 0.200488 0.398266
Si Si7 0.145485 0.385409 0.476283
O O1 0.000000 0.979666 0.750000
O O2 0.109371 0.947696 0.671695
O O3 0.234419 0.051507 0.836377
O O4 0.325121 0.939863 0.938283
O O5 0.500000 0.373859 0.250000
O O6 0.246302 0.336755 0.191957
O O7 0.171558 0.362678 0.986531
O O8 0.791889 0.279486 0.188791
O O9 0.944810 0.384587 0.312078
O O10 0.579383 0.375087 0.063475
O O11 0.385836 0.669527 0.312594
O O12 0.065744 0.716844 0.130739
O O13 0.173768 0.675744 0.049319
O O14 0.691338 0.610835 0.486766
O O15 0.500000 0.195757 0.250000
O O16 0.750000 0.250000 0.500000
#
# Coordination Sequence:
#
# PCOD9285518 Si02
#       7
#     8   8   8   8   8   8   8
#     4   8  19  43  65  85 127 173 217 263 333 382
#     4  11  24  44  66  93 128 176 214 276 330 388
#     4  12  23  36  62  98 132 161 222 265 328 394
#     4  11  23  40  61  92 129 172 216 262 328 401
#     4  10  23  39  65  93 128 176 211 274 323 384
#     4  12  26  44  68  95 132 173 214 273 330 385
#     4  10  21  42  63  90 129 173 213 272 324 382
#
# _framework density 21.949344
#
# number of rings (size 3 to 8) (size 9 to 14) (size 15 to 20)
#    0.000    1.429    1.429    4.714    4.000    4.571 
#    0.000    4.286    0.000    0.000    0.000    0.000 
#    0.000    0.000    0.000    0.000    0.000    0.000 
#
# Total GULP energy -156536.226097 kJ/mol
# GULP energy per Si atom -5590.579503 kJ/mol
# Density = 2.189939 g / cm^3
# Si number density = 21.949344 Si / 1000 Ang^3
#
#
#
# Elastic Constant Matrix: (Units=GPa)
#
#
# Indices 1 2 3 4 5 6 
#
# 1 49.8077 -16.0492 6.9198 -0.0001 3.5287 0.0000
# 2 -16.0492 105.9053 47.9874 0.0000 -1.7696 0.0000
# 3 6.9198 47.9874 152.0692 -0.0001 -7.7038 0.0000
# 4 -0.0001 0.0000 -0.0001 7.4437 -0.0001 -0.9808
# 5 3.5287 -1.7696 -7.7038 -0.0001 40.6708 0.0000
# 6 0.0000 0.0000 0.0000 -0.9808 0.0000 5.8355
#
#
#
# Elastic Compliance Matrix: (Units=1/GPa)
#
#
# Indices 1 2 3 4 5 6 
#
# 1 0.022012 0.004438 -0.002513 0.000000 -0.002193 0.000000
# 2 0.004438 0.011914 -0.003993 0.000000 -0.000623 0.000000
# 3 -0.002513 -0.003993 0.008030 0.000000 0.001565 0.000000
# 4 0.000000 0.000000 0.000000 0.137384 0.000000 0.023091
# 5 -0.002193 -0.000623 0.001565 0.000000 0.025047 0.000000
# 6 0.000000 0.000000 0.000000 0.023091 0.000000 0.175247
#
#
# Mechanical properties :
#
#
# Convention : Reuss Voigt Hill
#
# Bulk Modulus (GPa) = 26.44217 42.83313 34.63765
# Shear Modulus (GPa) = 12.61428 28.71828 20.66628
#
# Velocity S-wave (km/s) = 2.39989 3.62109 3.07179
# Velocity P-wave (km/s) = 4.44436 6.08605 5.32880
#
# Compressibility (1/GPa) = 0.03781838
#
# Stress axis : x y z
#
# Youngs Moduli (GPa) = 45.43050 83.93619 124.53820
#
# Poissons Ratio (x) = -0.37249 0.31298
# Poissons Ratio (y) = -0.20161 0.49729
# Poissons Ratio (z) = 0.11417 0.33516
#
# Static dielectric constant tensor:
#      x y z
#    x 1.806230 0.000000 -0.000180 
#    y 0.000000 1.820950 0.000000 
#    z -0.000180 0.000000 1.819930 
# 
# From -- ./inp_files/206995.got.cif
#   From: 2010.05.17/outbox.cif.g08.bks.cpg/sg15_104_cif.got.tgz:206995.got - 2010.06.03 18:47:42.
