data_PCOD9285135
_publ_section_title
;
Structure prediction by ZEFSAII (Michael W. Deem and Ramdas Pophale) SiO2 
 PCOD9285135
Probable space group: C 2/C
;
_chemical_formula_sum "Si O2"
_cell_formula_units_Z 60
_cell_length_a 24.532292
_cell_length_b 18.275356
_cell_length_c 5.622842
_cell_angle_alpha 90.000000
_cell_angle_beta 106.051668
_cell_angle_gamma 90.000000
_cell_volume 2422.640633
_symmetry_space_group_name_H-M "C 2/C"
_symmetry_group_IT_number 15
_symmetry_cell_setting 'monoclinic'
loop_
_space_group_symop_operation_xyz
x,y,z
-x,y,1/2-z
-x,-y,-z
x,-y,1/2+z
1/2+x,1/2+y,z
1/2-x,1/2+y,1/2-z
1/2-x,1/2-y,-z
1/2+x,1/2-y,1/2+z
loop_
_atom_site_type_symbol
_atom_site_label
_atom_site_fract_x
_atom_site_fract_y
_atom_site_fract_z
Si Si1 0.000000 0.712177 0.250000
Si Si2 0.934199 0.027976 0.950978
Si Si3 0.233294 0.165042 0.461485
Si Si4 0.582834 0.299725 0.040517
Si Si5 0.802257 0.191539 0.578255
Si Si6 0.410876 0.021902 0.555793
Si Si7 0.936746 0.328627 0.278618
Si Si8 0.716918 0.977064 0.604868
O O1 0.027055 0.766253 0.092148
O O2 0.050428 0.665629 0.427109
O O3 0.927175 0.114216 0.995090
O O4 0.909830 0.011659 0.657525
O O5 0.000000 0.000000 0.000000
O O6 0.250000 0.250000 0.500000
O O7 0.211974 0.144699 0.700157
O O8 0.282276 0.109125 0.449989
O O9 0.193318 0.158720 0.181094
O O10 0.636205 0.280304 0.270710
O O11 0.589026 0.250395 0.812467
O O12 0.750000 0.250000 0.500000
O O13 0.404689 0.107058 0.610479
O O14 0.346765 0.990748 0.454764
O O15 0.437908 0.009575 0.330388
O O16 0.000000 0.338819 0.250000
O O17 0.743392 0.988824 0.897394
#
# Coordination Sequence:
#
# PCOD9285135 Si02
#       8
#     4   8   8   8   8   8   8   8
#     4  10  24  42  68 102 136 182 238 294 354 406
#     4  10  23  40  67  97 134 185 225 287 357 424
#     4  10  22  41  64  98 132 176 227 281 344 409
#     4  11  25  43  71 102 144 183 247 296 356 439
#     4  10  24  41  66 105 134 180 229 292 354 413
#     4  10  24  42  66  99 134 181 228 277 355 422
#     4  10  25  41  65 102 135 182 227 296 351 415
#     4  10  21  41  67  95 131 179 227 280 337 417
#
# _framework density 24.766365
#
# number of rings (size 3 to 8) (size 9 to 14) (size 15 to 20)
#    0.000    1.867    0.000    1.600   16.800    1.600 
#    2.400    4.000    0.000    0.000    0.000    0.000 
#    0.000    0.000    0.000    0.000    0.000    0.000 
#
# Total GULP energy -167192.902955 kJ/mol
# GULP energy per Si atom -5573.096765 kJ/mol
# Density = 2.471000 g / cm^3
# Si number density = 24.766365 Si / 1000 Ang^3
#
#
#
# Elastic Constant Matrix: (Units=GPa)
#
#
# Indices 1 2 3 4 5 6 
#
# 1 48.1442 19.0128 29.4662 0.0000 9.5540 0.0000
# 2 19.0128 108.5175 41.3426 0.0000 -14.0346 0.0000
# 3 29.4662 41.3426 222.4696 0.0000 -23.8844 0.0000
# 4 0.0000 0.0000 0.0000 13.3825 0.0000 2.0079
# 5 9.5540 -14.0346 -23.8844 0.0000 38.2015 0.0000
# 6 0.0000 0.0000 0.0000 2.0079 0.0000 21.4944
#
#
#
# Elastic Compliance Matrix: (Units=1/GPa)
#
#
# Indices 1 2 3 4 5 6 
#
# 1 0.027192 -0.004694 -0.003907 0.000000 -0.010968 0.000000
# 2 -0.004694 0.010988 -0.000923 0.000000 0.004634 0.000000
# 3 -0.003907 -0.000923 0.005630 0.000000 0.004158 0.000000
# 4 0.000000 0.000000 0.000000 0.075787 0.000000 -0.007080
# 5 -0.010968 0.004634 0.004158 0.000000 0.033222 0.000000
# 6 0.000000 0.000000 0.000000 -0.007080 0.000000 0.047185
#
#
# Mechanical properties :
#
#
# Convention : Reuss Voigt Hill
#
# Bulk Modulus (GPa) = 40.38201 62.08606 51.23404
# Shear Modulus (GPa) = 21.99663 33.90300 27.94982
#
# Velocity S-wave (km/s) = 2.98344 3.70390 3.36302
# Velocity P-wave (km/s) = 5.31117 6.58900 5.98429
#
# Compressibility (1/GPa) = 0.02476350
#
# Stress axis : x y z
#
# Youngs Moduli (GPa) = 36.77485 91.00467 177.60816
#
# Poissons Ratio (x) = 0.42721 0.69388
# Poissons Ratio (y) = 0.17263 0.16389
# Poissons Ratio (z) = 0.14367 0.08397
#
# Static dielectric constant tensor:
#      x y z
#    x 1.998520 0.000000 0.008900 
#    y 0.000000 1.996550 0.000000 
#    z 0.008900 0.000000 2.312690 
# 
# From -- ./inp_files/18470.got.cif
#   From: 2010.05.17/outbox.cif.g08.bks.cpg/sg15_10_cif.got.tgz:18470.got - 2010.06.03 18:47:42.
