data_PCOD9285464
_publ_section_title
;
Structure prediction by ZEFSAII (Michael W. Deem and Ramdas Pophale) SiO2 
 PCOD9285464
Probable space group: C 2/C
;
_chemical_formula_sum "Si O2"
_cell_formula_units_Z 52
_cell_length_a 28.509566
_cell_length_b 8.547676
_cell_length_c 27.699932
_cell_angle_alpha 90.000000
_cell_angle_beta 158.756726
_cell_angle_gamma 90.000000
_cell_volume 2445.794752
_symmetry_space_group_name_H-M "C 2/C"
_symmetry_group_IT_number 15
_symmetry_cell_setting 'monoclinic'
loop_
_space_group_symop_operation_xyz
x,y,z
-x,y,1/2-z
-x,-y,-z
x,-y,1/2+z
1/2+x,1/2+y,z
1/2-x,1/2+y,1/2-z
1/2-x,1/2-y,-z
1/2+x,1/2-y,1/2+z
loop_
_atom_site_type_symbol
_atom_site_label
_atom_site_fract_x
_atom_site_fract_y
_atom_site_fract_z
Si Si1 0.810213 0.865027 0.815084
Si Si2 0.172464 0.678344 0.283420
Si Si3 0.915013 0.798734 0.076941
Si Si4 0.592162 0.700039 0.555708
Si Si5 0.592658 0.664064 0.441120
Si Si6 0.134474 0.619693 0.809087
Si Si7 0.000000 0.397981 0.750000
O O1 0.740271 0.812838 0.797169
O O2 0.699376 0.833296 0.668876
O O3 0.852033 0.044968 0.863950
O O4 0.945067 0.775406 0.933301
O O5 0.276754 0.745303 0.421540
O O6 0.151585 0.498206 0.279903
O O7 0.033305 0.757928 0.154353
O O8 0.942181 0.707138 0.152014
O O9 0.917067 0.984812 0.084978
O O10 0.581203 0.668801 0.488140
O O11 0.735332 0.717608 0.562825
O O12 0.486113 0.771264 0.315435
O O13 0.107029 0.507936 0.827929
#
# Coordination Sequence:
#
# PCOD9285464 Si02
#       7
#     8   8   8   8   8   8   4
#     4  11  23  41  63  92 129 168 215 260 293 370
#     4  10  21  42  61  94 123 171 203 266 302 370
#     4  10  22  41  70  88 129 154 218 250 321 364
#     4  11  24  41  61  94 129 166 218 251 305 361
#     4  11  23  44  62  95 126 174 193 267 305 377
#     4  10  23  42  66  88 134 154 214 248 324 366
#     4  10  24  44  66 102 112 164 202 270 302 392
#
# _framework density 21.260981999999998
#
# number of rings (size 3 to 8) (size 9 to 14) (size 15 to 20)
#    0.000    1.538    3.077    1.846    2.154    9.846 
#    5.538    0.000    0.000    0.000    0.000    0.000 
#    0.000    0.000    0.000    0.000    0.000    0.000 
#
# Total GULP energy -145323.144922 kJ/mol
# GULP energy per Si atom -5589.351728 kJ/mol
# Density = 2.121259 g / cm^3
# Si number density = 21.260982 Si / 1000 Ang^3
#
#
#
# Elastic Constant Matrix: (Units=GPa)
#
#
# Indices 1 2 3 4 5 6 
#
# 1 119.0746 20.7326 39.7560 -0.0004 -21.7814 -0.0001
# 2 20.7326 36.3407 32.8459 0.0006 11.6256 0.0000
# 3 39.7560 32.8459 120.8970 0.0006 16.7404 0.0001
# 4 -0.0004 0.0006 0.0006 35.8463 0.0014 3.0729
# 5 -21.7814 11.6256 16.7404 0.0014 71.4056 0.0001
# 6 -0.0001 0.0000 0.0001 3.0729 0.0001 14.4231
#
#
#
# Elastic Compliance Matrix: (Units=1/GPa)
#
#
# Indices 1 2 3 4 5 6 
#
# 1 0.011216 -0.005348 -0.002925 0.000000 0.004978 0.000000
# 2 -0.005348 0.040014 -0.008253 0.000000 -0.006211 0.000000
# 3 -0.002925 -0.008253 0.011796 0.000000 -0.002314 0.000000
# 4 0.000000 0.000000 0.000000 0.028416 0.000000 -0.006054
# 5 0.004978 -0.006211 -0.002314 0.000000 0.017077 0.000000
# 6 0.000000 0.000000 0.000000 -0.006054 0.000000 0.070623
#
#
# Mechanical properties :
#
#
# Convention : Reuss Voigt Hill
#
# Bulk Modulus (GPa) = 33.36000 51.44237 42.40118
# Shear Modulus (GPa) = 22.50381 36.53352 29.51867
#
# Velocity S-wave (km/s) = 3.25692 4.14978 3.73016
# Velocity P-wave (km/s) = 5.46518 6.87089 6.20795
#
# Compressibility (1/GPa) = 0.02997602
#
# Stress axis : x y z
#
# Youngs Moduli (GPa) = 89.15622 24.99097 84.77606
#
# Poissons Ratio (x) = 0.13365 0.24794
# Poissons Ratio (y) = 0.47680 0.69962
# Poissons Ratio (z) = 0.26075 0.20624
#
# Static dielectric constant tensor:
#      x y z
#    x 1.771020 0.000000 0.021030 
#    y 0.000000 1.760670 0.000000 
#    z 0.021030 0.000000 1.753200 
# 
# From -- ./inp_files/121455.got.cif
#   From: 2010.05.17/outbox.cif.g08.bks.cpg/sg15_61_cif.got.tgz:121455.got - 2010.06.03 18:47:42.
