data_PCOD9285403
_publ_section_title
;
Structure prediction by ZEFSAII (Michael W. Deem and Ramdas Pophale) SiO2 
 PCOD9285403
Probable space group: C 2/C
;
_chemical_formula_sum "Si O2"
_cell_formula_units_Z 60
_cell_length_a 18.300491
_cell_length_b 17.882560
_cell_length_c 9.328136
_cell_angle_alpha 90.000000
_cell_angle_beta 55.323206
_cell_angle_gamma 90.000000
_cell_volume 2510.481126
_symmetry_space_group_name_H-M "C 2/C"
_symmetry_group_IT_number 15
_symmetry_cell_setting 'monoclinic'
loop_
_space_group_symop_operation_xyz
x,y,z
-x,y,1/2-z
-x,-y,-z
x,-y,1/2+z
1/2+x,1/2+y,z
1/2-x,1/2+y,1/2-z
1/2-x,1/2-y,-z
1/2+x,1/2-y,1/2+z
loop_
_atom_site_type_symbol
_atom_site_label
_atom_site_fract_x
_atom_site_fract_y
_atom_site_fract_z
Si Si1 0.500000 0.338777 0.750000
Si Si2 0.609326 0.545977 0.287142
Si Si3 0.128590 0.912126 0.087307
Si Si4 0.603636 0.011971 0.857675
Si Si5 0.831690 0.592693 0.442196
Si Si6 0.642175 0.251154 0.123980
Si Si7 0.223476 0.375983 0.052335
Si Si8 0.339340 0.742523 0.567832
O O1 0.467282 0.394225 0.661547
O O2 0.581761 0.287268 0.618351
O O3 0.631516 0.548322 0.429738
O O4 0.581255 0.465509 0.255521
O O5 0.695713 0.572685 0.097562
O O6 0.226316 0.902899 0.046435
O O7 0.101781 0.825395 0.099264
O O8 0.642355 0.076868 0.709065
O O9 0.637250 0.936758 0.746346
O O10 0.644914 0.033304 0.963096
O O11 0.500000 0.000000 0.000000
O O12 0.880126 0.671213 0.419133
O O13 0.624560 0.252095 0.312694
O O14 0.750000 0.250000 0.000000
O O15 0.263075 0.320724 0.131432
O O16 0.196220 0.320462 0.954429
#
# Coordination Sequence:
#
# PCOD9285403 Si02
#       8
#     4   8   8   8   8   8   8   8
#     4  10  26  44  66 104 150 180 246 300 374 440
#     4  11  24  43  72 104 138 189 244 300 365 440
#     4  11  23  42  75 101 139 183 242 302 361 433
#     4  12  26  43  68 103 144 188 241 302 366 433
#     4  11  24  43  68 101 139 182 241 291 364 438
#     4  10  22  40  70 100 138 177 242 298 361 428
#     4  10  21  41  73  99 143 187 248 288 364 453
#     4  10  22  43  70 106 141 194 237 306 369 441
#
# _framework density 23.899802000000001
#
# number of rings (size 3 to 8) (size 9 to 14) (size 15 to 20)
#    0.000    1.333    1.333    4.400    5.600    3.733 
#    0.000    1.333    0.000    0.000    0.000    0.000 
#    0.000    0.000    0.000    0.000    0.000    0.000 
#
# Total GULP energy -167856.195372 kJ/mol
# GULP energy per Si atom -5595.206512 kJ/mol
# Density = 2.384541 g / cm^3
# Si number density = 23.899802 Si / 1000 Ang^3
#
#
#
# Elastic Constant Matrix: (Units=GPa)
#
#
# Indices 1 2 3 4 5 6 
#
# 1 53.4357 17.2522 21.9139 0.0000 2.2426 0.0000
# 2 17.2522 133.8969 31.0396 0.0000 5.0016 0.0000
# 3 21.9139 31.0396 70.8098 0.0000 17.0220 0.0000
# 4 0.0000 0.0000 0.0000 29.6906 0.0000 11.5700
# 5 2.2426 5.0016 17.0220 0.0000 51.4687 0.0000
# 6 0.0000 0.0000 0.0000 11.5700 0.0000 6.8112
#
#
#
# Elastic Compliance Matrix: (Units=1/GPa)
#
#
# Indices 1 2 3 4 5 6 
#
# 1 0.021742 -0.001355 -0.006451 0.000000 0.001318 0.000000
# 2 -0.001355 0.008406 -0.003350 0.000000 0.000350 0.000000
# 3 -0.006451 -0.003350 0.018948 0.000000 -0.005660 0.000000
# 4 0.000000 0.000000 0.000000 0.099634 0.000000 -0.169246
# 5 0.001318 0.000350 -0.005660 0.000000 0.021210 0.000000
# 6 0.000000 0.000000 0.000000 -0.169246 0.000000 0.434312
#
#
# Mechanical properties :
#
#
# Convention : Reuss Voigt Hill
#
# Bulk Modulus (GPa) = 37.33603 44.28374 40.80989
# Shear Modulus (GPa) = 7.86791 30.12321 18.99556
#
# Velocity S-wave (km/s) = 1.81637 3.55406 2.82228
# Velocity P-wave (km/s) = 4.47825 5.95071 5.26620
#
# Compressibility (1/GPa) = 0.02678378
#
# Stress axis : x y z
#
# Youngs Moduli (GPa) = 45.99396 118.95574 52.77642
#
# Poissons Ratio (x) = 0.16119 0.34048
# Poissons Ratio (y) = 0.06232 0.17679
# Poissons Ratio (z) = 0.29673 0.39847
#
# Static dielectric constant tensor:
#      x y z
#    x 1.907580 0.000000 -0.011210 
#    y 0.000000 1.973630 0.000000 
#    z -0.011210 0.000000 1.912720 
# 
# From -- ./inp_files/56991.got.cif
#   From: 2010.05.17/outbox.cif.g08.bks.cpg/sg15_29_cif.got.tgz:56991.got - 2010.06.03 18:47:42.
