data_PCOD9285159
_publ_section_title
;
Structure prediction by ZEFSAII (Michael W. Deem and Ramdas Pophale) SiO2 
 PCOD9285159
Probable space group: C 2/C
;
_chemical_formula_sum "Si O2"
_cell_formula_units_Z 64
_cell_length_a 8.336717
_cell_length_b 18.213555
_cell_length_c 28.810852
_cell_angle_alpha 90.000000
_cell_angle_beta 136.830434
_cell_angle_gamma 90.000000
_cell_volume 2992.977381
_symmetry_space_group_name_H-M "C 2/C"
_symmetry_group_IT_number 15
_symmetry_cell_setting 'monoclinic'
loop_
_space_group_symop_operation_xyz
x,y,z
-x,y,1/2-z
-x,-y,-z
x,-y,1/2+z
1/2+x,1/2+y,z
1/2-x,1/2+y,1/2-z
1/2-x,1/2-y,-z
1/2+x,1/2-y,1/2+z
loop_
_atom_site_type_symbol
_atom_site_label
_atom_site_fract_x
_atom_site_fract_y
_atom_site_fract_z
Si Si1 0.040182 0.426321 0.456332
Si Si2 0.259168 0.110133 0.600211
Si Si3 0.546743 0.137878 0.138714
Si Si4 0.935555 0.251764 0.188726
Si Si5 0.909579 0.488624 0.779725
Si Si6 0.784113 0.585493 0.992331
Si Si7 0.546556 0.750352 0.706386
Si Si8 0.529418 0.584109 0.811568
O O1 0.194605 0.396089 0.445679
O O2 0.181374 0.497627 0.503073
O O3 0.943145 0.385024 0.482524
O O4 0.786886 0.443064 0.379393
O O5 0.357050 0.189513 0.635223
O O6 0.991395 0.103966 0.561880
O O7 0.412804 0.047952 0.659296
O O8 0.748165 0.189111 0.158966
O O9 0.631543 0.071523 0.189045
O O10 0.393558 0.109371 0.064227
O O11 0.411668 0.193414 0.145131
O O12 0.000000 0.295073 0.250000
O O13 0.188984 0.218523 0.234245
O O14 0.673735 0.530603 0.715346
O O15 0.000000 0.456135 0.750000
O O16 0.500000 0.744893 0.750000
O O17 0.512775 0.667676 0.680353
O O18 0.500000 0.585862 0.750000
#
# Coordination Sequence:
#
# PCOD9285159 Si02
#       8
#     8   8   8   8   8   8   8   8
#     4  11  24  43  69 102 136 182 239 297 351 410
#     4  12  22  46  73 100 139 181 248 291 338 436
#     4  11  25  44  60 100 147 177 222 292 356 412
#     4  10  23  42  69 100 140 180 223 294 367 420
#     4  12  24  40  74 111 132 179 243 295 354 427
#     4  11  26  45  67  99 141 195 231 290 355 421
#     4  10  21  41  67  99 138 178 224 293 365 421
#     4  11  20  40  71 101 136 173 236 296 355 422
#
# _framework density 21.383389999999999
#
# number of rings (size 3 to 8) (size 9 to 14) (size 15 to 20)
#    0.000    1.000    3.750    2.625    5.250    5.000 
#    2.250    0.625    0.000    0.000    0.000    0.000 
#    0.000    0.000    0.000    0.000    0.000    0.000 
#
# Total GULP energy -178354.123130 kJ/mol
# GULP energy per Si atom -5573.566348 kJ/mol
# Density = 2.133472 g / cm^3
# Si number density = 21.383390 Si / 1000 Ang^3
#
#
#
# Elastic Constant Matrix: (Units=GPa)
#
#
# Indices 1 2 3 4 5 6 
#
# 1 88.6274 13.0736 19.4110 0.0000 -20.4954 0.0000
# 2 13.0736 67.7082 8.8872 0.0000 -9.4287 0.0000
# 3 19.4110 8.8872 47.2241 0.0002 -14.5094 0.0001
# 4 0.0000 0.0000 0.0002 12.8083 0.0001 -1.2125
# 5 -20.4954 -9.4287 -14.5094 0.0001 32.3235 0.0001
# 6 0.0000 0.0000 0.0001 -1.2125 0.0001 26.2122
#
#
#
# Elastic Compliance Matrix: (Units=1/GPa)
#
#
# Indices 1 2 3 4 5 6 
#
# 1 0.013788 -0.001269 -0.003313 0.000000 0.006885 0.000000
# 2 -0.001269 0.015638 -0.001470 0.000000 0.003097 0.000000
# 3 -0.003313 -0.001470 0.025562 0.000000 0.008945 0.000000
# 4 0.000000 0.000000 0.000000 0.078418 0.000000 0.003627
# 5 0.006885 0.003097 0.008945 0.000000 0.040222 0.000000
# 6 0.000000 0.000000 0.000000 0.003627 0.000000 0.038318
#
#
# Mechanical properties :
#
#
# Convention : Reuss Voigt Hill
#
# Bulk Modulus (GPa) = 23.31786 31.81147 27.56467
# Shear Modulus (GPa) = 20.97797 25.08133 23.02965
#
# Velocity S-wave (km/s) = 3.13555 3.42853 3.28531
# Velocity P-wave (km/s) = 4.90278 5.53011 5.22587
#
# Compressibility (1/GPa) = 0.04288558
#
# Stress axis : x y z
#
# Youngs Moduli (GPa) = 72.52535 63.94485 39.11992
#
# Poissons Ratio (x) = 0.08112 0.12962
# Poissons Ratio (y) = 0.09201 0.05750
# Poissons Ratio (z) = 0.24030 0.09399
#
# Static dielectric constant tensor:
#      x y z
#    x 1.933670 0.000000 -0.062120 
#    y 0.000000 1.783880 0.000000 
#    z -0.062120 0.000000 1.817830 
# 
# From -- ./inp_files/308805.got.cif
#   From: 2010.05.17/outbox.cif.g08.bks.cpg/sg15_155_cif.got.tgz:308805.got - 2010.06.03 18:47:42.
