data_PCOD9285365
_publ_section_title
;
Structure prediction by ZEFSAII (Michael W. Deem and Ramdas Pophale) SiO2 
 PCOD9285365
Probable space group: C 2/C
;
_chemical_formula_sum "Si O2"
_cell_formula_units_Z 52
_cell_length_a 9.532875
_cell_length_b 16.768782
_cell_length_c 20.312520
_cell_angle_alpha 90.000000
_cell_angle_beta 128.740134
_cell_angle_gamma 90.000000
_cell_volume 2532.675281
_symmetry_space_group_name_H-M "C 2/C"
_symmetry_group_IT_number 15
_symmetry_cell_setting 'monoclinic'
loop_
_space_group_symop_operation_xyz
x,y,z
-x,y,1/2-z
-x,-y,-z
x,-y,1/2+z
1/2+x,1/2+y,z
1/2-x,1/2+y,1/2-z
1/2-x,1/2-y,-z
1/2+x,1/2-y,1/2+z
loop_
_atom_site_type_symbol
_atom_site_label
_atom_site_fract_x
_atom_site_fract_y
_atom_site_fract_z
Si Si1 0.443025 0.856717 0.655059
Si Si2 0.669252 0.423280 0.252565
Si Si3 0.637641 0.290161 0.141064
Si Si4 0.973804 0.095679 0.481332
Si Si5 0.500000 0.708565 0.250000
Si Si6 0.392548 0.019981 0.402100
Si Si7 0.982250 0.921067 0.648592
O O1 0.500000 0.858801 0.750000
O O2 0.505215 0.774554 0.636755
O O3 0.231344 0.876904 0.590669
O O4 0.521556 0.923102 0.627508
O O5 0.500000 0.407874 0.250000
O O6 0.699965 0.349224 0.216316
O O7 0.840179 0.440555 0.347614
O O8 0.611608 0.501704 0.193002
O O9 0.824307 0.252237 0.171154
O O10 0.547626 0.346922 0.059944
O O11 0.067529 0.105485 0.438560
O O12 0.000000 0.000000 0.500000
O O13 0.428295 0.651785 0.287077
O O14 0.200434 0.055789 0.367702
O O15 0.500000 0.000000 0.500000
#
# Coordination Sequence:
#
# PCOD9285365 Si02
#       7
#     8   8   8   8   4   8   8
#     4  12  26  48  74 107 150 193 240 300 373 430
#     4  10  21  41  71  93 135 188 239 282 352 438
#     4  12  26  45  69 109 143 188 243 304 364 429
#     4  12  26  44  74 107 145 183 244 304 354 431
#     4  12  24  46  70  96 146 190 238 292 368 426
#     4  11  23  43  74 105 139 189 247 290 358 432
#     4  11  21  47  70  94 139 195 226 290 362 424
#
# _framework density 20.531649000000002
#
# number of rings (size 3 to 8) (size 9 to 14) (size 15 to 20)
#    0.000    0.615    5.385    3.692    2.154    3.077 
#    5.538    0.000    0.000    0.000    0.000    0.000 
#    0.000    0.000    0.000    0.000    0.000    0.000 
#
# Total GULP energy -145044.948117 kJ/mol
# GULP energy per Si atom -5578.651851 kJ/mol
# Density = 2.048492 g / cm^3
# Si number density = 20.531649 Si / 1000 Ang^3
#
#
#
# Elastic Constant Matrix: (Units=GPa)
#
#
# Indices 1 2 3 4 5 6 
#
# 1 59.0187 26.4317 19.1473 0.0000 -12.2804 0.0000
# 2 26.4317 90.2704 48.0000 0.0000 -2.4893 0.0000
# 3 19.1473 48.0000 136.5742 0.0000 -13.1597 0.0000
# 4 0.0000 0.0000 0.0000 29.6809 0.0000 -7.4445
# 5 -12.2804 -2.4893 -13.1597 0.0000 41.8971 0.0000
# 6 0.0000 0.0000 0.0000 -7.4445 0.0000 16.0227
#
#
#
# Elastic Compliance Matrix: (Units=1/GPa)
#
#
# Indices 1 2 3 4 5 6 
#
# 1 0.020808 -0.005750 -0.000352 0.000000 0.005647 0.000000
# 2 -0.005750 0.015234 -0.004767 0.000000 -0.002278 0.000000
# 3 -0.000352 -0.004767 0.009291 0.000000 0.002532 0.000000
# 4 0.000000 0.000000 0.000000 0.038136 0.000000 0.017719
# 5 0.005647 -0.002278 0.002532 0.000000 0.026183 0.000000
# 6 0.000000 0.000000 0.000000 0.017719 0.000000 0.070644
#
#
# Mechanical properties :
#
#
# Convention : Reuss Voigt Hill
#
# Bulk Modulus (GPa) = 42.38401 52.55791 47.47096
# Shear Modulus (GPa) = 23.82101 30.33908 27.08005
#
# Velocity S-wave (km/s) = 3.40988 3.84822 3.63566
# Velocity P-wave (km/s) = 6.01590 6.73789 6.38711
#
# Compressibility (1/GPa) = 0.02359380
#
# Stress axis : x y z
#
# Youngs Moduli (GPa) = 48.05826 65.64476 107.63244
#
# Poissons Ratio (x) = 0.37743 0.03793
# Poissons Ratio (y) = 0.27632 0.51312
# Poissons Ratio (z) = 0.01693 0.31295
#
# Static dielectric constant tensor:
#      x y z
#    x 1.766700 0.000000 0.020040 
#    y 0.000000 1.774370 0.000000 
#    z 0.020040 0.000000 1.819390 
# 
# From -- ./inp_files/233113.got.cif
#   From: 2010.05.17/outbox.cif.g08.bks.cpg/sg15_117_cif.got.tgz:233113.got - 2010.06.03 18:47:42.
