data_PCOD9285873
_publ_section_title
;
Structure prediction by ZEFSAII (Michael W. Deem and Ramdas Pophale) SiO2 
 PCOD9285873
Probable space group: C 2/C
;
_chemical_formula_sum "Si O2"
_cell_formula_units_Z 44
_cell_length_a 7.475849
_cell_length_b 25.035959
_cell_length_c 11.811155
_cell_angle_alpha 90.000000
_cell_angle_beta 120.223934
_cell_angle_gamma 90.000000
_cell_volume 1910.131800
_symmetry_space_group_name_H-M "C 2/C"
_symmetry_group_IT_number 15
_symmetry_cell_setting 'monoclinic'
loop_
_space_group_symop_operation_xyz
x,y,z
-x,y,1/2-z
-x,-y,-z
x,-y,1/2+z
1/2+x,1/2+y,z
1/2-x,1/2+y,1/2-z
1/2-x,1/2-y,-z
1/2+x,1/2-y,1/2+z
loop_
_atom_site_type_symbol
_atom_site_label
_atom_site_fract_x
_atom_site_fract_y
_atom_site_fract_z
Si Si1 0.000000 0.696089 0.250000
Si Si2 0.886352 0.745342 0.824596
Si Si3 0.080382 0.350016 0.998939
Si Si4 0.648990 0.547942 0.587240
Si Si5 0.597153 0.043409 0.615942
Si Si6 0.095692 0.858643 0.903251
O O1 0.159008 0.731416 0.229357
O O2 0.886542 0.660079 0.122316
O O3 0.000000 0.722382 0.750000
O O4 0.017944 0.797949 0.900423
O O5 0.852738 0.701350 0.908799
O O6 0.837700 0.355560 0.951037
O O7 0.172325 0.405303 0.069700
O O8 0.500000 0.500000 0.500000
O O9 0.711699 0.534443 0.737519
O O10 0.558423 0.601967 0.497899
O O11 0.883890 0.553138 0.615314
O O12 0.500000 0.000000 0.500000
O O13 0.000000 0.875965 0.750000
#
# Coordination Sequence:
#
# PCOD9285873 Si02
#       6
#     4   8   8   8   8   8
#     4  12  24  42  64 106 140 186 232 292 346 426
#     4  11  24  42  70 100 141 188 230 291 355 420
#     4  11  24  42  69  96 141 181 238 289 351 425
#     4  10  24  41  71  98 133 182 237 291 344 426
#     4  10  25  45  65 101 138 180 236 292 351 417
#     4  10  21  42  68 100 132 185 232 281 355 419
#
# _framework density 23.035059
#
# number of rings (size 3 to 8) (size 9 to 14) (size 15 to 20)
#    0.000    1.455    3.636    1.091   10.182    2.909 
#    0.000    1.818    0.000    0.000    0.000    0.000 
#    0.000    0.000    0.000    0.000    0.000    0.000 
#
# Total GULP energy -122600.117714 kJ/mol
# GULP energy per Si atom -5572.732623 kJ/mol
# Density = 2.298263 g / cm^3
# Si number density = 23.035059 Si / 1000 Ang^3
#
#
#
# Elastic Constant Matrix: (Units=GPa)
#
#
# Indices 1 2 3 4 5 6 
#
# 1 45.0243 -12.8541 4.6265 0.0000 -4.8113 0.0000
# 2 -12.8541 104.2591 91.5587 0.0000 -9.3213 0.0000
# 3 4.6265 91.5587 182.3467 0.0000 -4.1263 0.0000
# 4 0.0000 0.0000 0.0000 -162.9894 0.0000 78.4849
# 5 -4.8113 -9.3213 -4.1263 0.0000 35.2241 0.0000
# 6 0.0000 0.0000 0.0000 78.4849 0.0000 2.1761
#
#
#
# Elastic Compliance Matrix: (Units=1/GPa)
#
#
# Indices 1 2 3 4 5 6 
#
# 1 0.025199 0.007165 -0.004127 0.000000 0.004855 0.000000
# 2 0.007165 0.019646 -0.009933 0.000000 0.005014 0.000000
# 3 -0.004127 -0.009933 0.010532 0.000000 -0.001959 0.000000
# 4 0.000000 0.000000 0.000000 -0.000334 0.000000 0.012048
# 5 0.004855 0.005014 -0.001959 0.000000 0.030150 0.000000
# 6 0.000000 0.000000 0.000000 0.012048 0.000000 0.025019
#
#
# Mechanical properties :
#
#
# Convention : Reuss Voigt Hill
#
# Bulk Modulus (GPa) = 24.04602 55.36581 39.70592
# Shear Modulus (GPa) = 36.26759 -8.56456 13.85151
#
# Velocity S-wave (km/s) = 3.97224 -1.93032 2.45485
# Velocity P-wave (km/s) = 5.61247 4.37258 5.03087
#
# Compressibility (1/GPa) = 0.04158693
#
# Stress axis : x y z
#
# Youngs Moduli (GPa) = 39.68453 50.90074 94.94965
#
# Poissons Ratio (x) = -0.36472 0.39188
# Poissons Ratio (y) = -0.28435 0.94312
# Poissons Ratio (z) = 0.16379 0.50559
#
# Static dielectric constant tensor:
#      x y z
#    x 1.888200 0.000000 -0.109740 
#    y 0.000000 1.891140 0.000000 
#    z -0.109740 0.000000 1.328950 
# 
# From -- ./inp_files/79995.got.cif
#   From: 2010.05.17/outbox.cif.g08.bks.cpg/sg15_40_cif.got.tgz:79995.got - 2010.06.03 18:47:42.
