data_PCOD9285132
_publ_section_title
;
Structure prediction by ZEFSAII (Michael W. Deem and Ramdas Pophale) SiO2 
 PCOD9285132
Probable space group: C 2/C
;
_chemical_formula_sum "Si O2"
_cell_formula_units_Z 60
_cell_length_a 11.842695
_cell_length_b 8.442690
_cell_length_c 26.144492
_cell_angle_alpha 90.000000
_cell_angle_beta 102.018721
_cell_angle_gamma 90.000000
_cell_volume 2556.735506
_symmetry_space_group_name_H-M "C 2/C"
_symmetry_group_IT_number 15
_symmetry_cell_setting 'monoclinic'
loop_
_space_group_symop_operation_xyz
x,y,z
-x,y,1/2-z
-x,-y,-z
x,-y,1/2+z
1/2+x,1/2+y,z
1/2-x,1/2+y,1/2-z
1/2-x,1/2-y,-z
1/2+x,1/2-y,1/2+z
loop_
_atom_site_type_symbol
_atom_site_label
_atom_site_fract_x
_atom_site_fract_y
_atom_site_fract_z
Si Si1 0.439561 0.908587 0.327062
Si Si2 0.799058 0.019850 0.672115
Si Si3 0.405233 0.859092 0.989052
Si Si4 0.051784 0.291436 0.811619
Si Si5 0.000000 0.161708 0.250000
Si Si6 0.918918 0.792941 0.927090
Si Si7 0.780998 0.071579 0.554132
Si Si8 0.036400 0.144789 0.593153
O O1 0.438274 0.775961 0.284229
O O2 0.438524 0.822648 0.380946
O O3 0.323318 0.013128 0.313971
O O4 0.545664 0.027175 0.328586
O O5 0.904671 0.938435 0.710767
O O6 0.796947 0.988572 0.611496
O O7 0.823869 0.208857 0.677974
O O8 0.284038 0.945878 0.988149
O O9 0.401420 0.781900 0.932579
O O10 0.461449 0.727271 0.030432
O O11 0.500000 0.000000 0.000000
O O12 0.984289 0.193436 0.849780
O O13 0.000000 0.281816 0.750000
O O14 0.808022 0.718154 0.945582
O O15 0.905933 0.973875 0.908690
O O16 0.908580 0.132316 0.555286
#
# Coordination Sequence:
#
# PCOD9285132 Si02
#       8
#     8   8   8   8   4   8   8   8
#     4  11  24  43  62  90 127 162 206 263 306 372
#     4  10  23  40  62  88 125 161 207 256 310 367
#     4  10  21  41  67  95 129 165 207 258 313 374
#     4  11  22  41  62  90 123 165 210 250 315 370
#     4  12  24  38  64  90 118 164 212 252 310 368
#     4  10  22  41  65  96 125 163 212 254 313 373
#     4   9  21  42  62  92 126 163 210 250 315 376
#     4  11  22  41  66  89 133 165 203 269 303 366
#
# _framework density 23.467424999999999
#
# number of rings (size 3 to 8) (size 9 to 14) (size 15 to 20)
#    0.000    1.600    1.333    4.400    1.867    2.667 
#    0.000   16.000    0.000    0.000    0.000    0.000 
#    0.000    0.000    0.000    0.000    0.000    0.000 
#
# Total GULP energy -167714.291701 kJ/mol
# GULP energy per Si atom -5590.476390 kJ/mol
# Density = 2.341401 g / cm^3
# Si number density = 23.467425 Si / 1000 Ang^3
#
#
#
# Elastic Constant Matrix: (Units=GPa)
#
#
# Indices 1 2 3 4 5 6 
#
# 1 63.2314 18.5192 8.2388 0.0000 15.9147 0.0000
# 2 18.5192 113.9523 23.5330 0.0000 1.2344 0.0000
# 3 8.2388 23.5330 80.3825 0.0000 3.8258 0.0000
# 4 0.0000 0.0000 0.0000 38.4344 0.0000 1.6173
# 5 15.9147 1.2344 3.8258 0.0000 26.7656 0.0000
# 6 0.0000 0.0000 0.0000 1.6173 0.0000 32.2965
#
#
#
# Elastic Compliance Matrix: (Units=1/GPa)
#
#
# Indices 1 2 3 4 5 6 
#
# 1 0.019639 -0.002942 -0.000606 0.000000 -0.011455 0.000000
# 2 -0.002942 0.009781 -0.002642 0.000000 0.001676 0.000000
# 3 -0.000606 -0.002642 0.013344 0.000000 -0.001425 0.000000
# 4 0.000000 0.000000 0.000000 0.026073 0.000000 -0.001306
# 5 -0.011455 0.001676 -0.001425 0.000000 0.044299 0.000000
# 6 0.000000 0.000000 0.000000 -0.001306 0.000000 0.031028
#
#
# Mechanical properties :
#
#
# Convention : Reuss Voigt Hill
#
# Bulk Modulus (GPa) = 32.91309 39.79425 36.35367
# Shear Modulus (GPa) = 29.99891 33.31764 31.65828
#
# Velocity S-wave (km/s) = 3.57924 3.77203 3.67690
# Velocity P-wave (km/s) = 5.58003 5.99708 5.79231
#
# Compressibility (1/GPa) = 0.03038305
#
# Stress axis : x y z
#
# Youngs Moduli (GPa) = 50.91985 102.23702 74.94065
#
# Poissons Ratio (x) = 0.30082 0.04543
# Poissons Ratio (y) = 0.14982 0.19798
# Poissons Ratio (z) = 0.03087 0.27009
#
# Static dielectric constant tensor:
#      x y z
#    x 1.864060 0.000000 -0.011860 
#    y 0.000000 1.895800 0.000000 
#    z -0.011860 0.000000 1.925060 
# 
# From -- ./inp_files/310024.got.cif
#   From: 2010.05.17/outbox.cif.g08.bks.cpg/sg15_156_cif.got.tgz:310024.got - 2010.06.03 18:47:42.
