data_PCOD9285990
_publ_section_title
;
Structure prediction by ZEFSAII (Michael W. Deem and Ramdas Pophale) SiO2 
 PCOD9285990
Probable space group: C 2/C
;
_chemical_formula_sum "Si O2"
_cell_formula_units_Z 28
_cell_length_a 5.245948
_cell_length_b 27.058972
_cell_length_c 9.383534
_cell_angle_alpha 90.000000
_cell_angle_beta 56.286204
_cell_angle_gamma 90.000000
_cell_volume 1107.978481
_symmetry_space_group_name_H-M "C 2/C"
_symmetry_group_IT_number 15
_symmetry_cell_setting 'monoclinic'
loop_
_space_group_symop_operation_xyz
x,y,z
-x,y,1/2-z
-x,-y,-z
x,-y,1/2+z
1/2+x,1/2+y,z
1/2-x,1/2+y,1/2-z
1/2-x,1/2-y,-z
1/2+x,1/2-y,1/2+z
loop_
_atom_site_type_symbol
_atom_site_label
_atom_site_fract_x
_atom_site_fract_y
_atom_site_fract_z
Si Si1 0.190645 0.020257 0.807097
Si Si2 0.500000 0.307421 0.250000
Si Si3 0.500000 0.261035 0.750000
Si Si4 0.142902 0.155847 0.408717
Si Si5 0.000000 0.070954 0.250000
O O1 0.500000 0.046256 0.750000
O O2 0.000000 0.049650 0.750000
O O3 0.268910 0.969108 0.694100
O O4 0.000000 0.000000 0.000000
O O5 0.742318 0.272518 0.256746
O O6 0.359497 0.338779 0.421954
O O7 0.555196 0.300328 0.604289
O O8 0.500000 0.159320 0.250000
O O9 0.001993 0.106181 0.385598
#
# Coordination Sequence:
#
# PCOD9285990 Si02
#       5
#     8   4   4   8   4
#     4  10  21  42  69  96 128 164 211 258 316 382
#     4  12  26  40  63  96 119 170 229 256 321 380
#     4  11  24  42  64  92 123 168 219 276 308 378
#     4  11  24  43  65  89 134 168 208 271 322 373
#     4   9  24  40  65  92 136 164 208 252 335 370
#
# _framework density 25.271252
#
# number of rings (size 3 to 8) (size 9 to 14) (size 15 to 20)
#    0.857    0.571    1.429    3.429    8.000    0.000 
#    2.571    0.000    0.000    0.000    0.000    0.000 
#    0.000    0.000    0.000    0.000    0.000    0.000 
#
# Total GULP energy -78137.518445 kJ/mol
# GULP energy per Si atom -5581.251317 kJ/mol
# Density = 2.521373 g / cm^3
# Si number density = 25.271252 Si / 1000 Ang^3
#
#
#
# Elastic Constant Matrix: (Units=GPa)
#
#
# Indices 1 2 3 4 5 6 
#
# 1 192.6486 21.5073 56.2142 0.0000 25.9081 0.0000
# 2 21.5073 109.2689 33.2092 0.0000 12.2552 0.0000
# 3 56.2142 33.2092 171.4870 0.0000 34.2207 0.0000
# 4 0.0000 0.0000 0.0000 -23.1334 0.0000 -20.7735
# 5 25.9081 12.2552 34.2207 0.0000 41.1862 0.0000
# 6 0.0000 0.0000 0.0000 -20.7735 0.0000 -2.7826
#
#
#
# Elastic Compliance Matrix: (Units=1/GPa)
#
#
# Indices 1 2 3 4 5 6 
#
# 1 0.005978 -0.000482 -0.001372 0.000000 -0.002477 0.000000
# 2 -0.000482 0.009851 -0.001469 0.000000 -0.001408 0.000000
# 3 -0.001372 -0.001469 0.007559 0.000000 -0.004981 0.000000
# 4 0.000000 0.000000 0.000000 0.007578 0.000000 -0.056578
# 5 -0.002477 -0.001408 -0.004981 0.000000 0.030396 0.000000
# 6 0.000000 0.000000 0.000000 -0.056578 0.000000 0.063005
#
#
# Mechanical properties :
#
#
# Convention : Reuss Voigt Hill
#
# Bulk Modulus (GPa) = 59.72609 77.25175 68.48892
# Shear Modulus (GPa) = 36.60494 27.21896 31.91195
#
# Velocity S-wave (km/s) = 3.81002 3.28544 3.55741
# Velocity P-wave (km/s) = 6.56051 6.71026 6.63581
#
# Compressibility (1/GPa) = 0.01674310
#
# Stress axis : x y z
#
# Youngs Moduli (GPa) = 167.27798 101.51397 132.28414
#
# Poissons Ratio (x) = 0.04891 0.18149
# Poissons Ratio (y) = 0.08060 0.19430
# Poissons Ratio (z) = 0.22951 0.14910
#
# Static dielectric constant tensor:
#      x y z
#    x 2.219160 0.000000 -0.102350 
#    y 0.000000 1.999330 0.000000 
#    z -0.102350 0.000000 2.150250 
# 
# From -- ./inp_files/19892.got.cif
#   From: 2010.05.17/outbox.cif.g08.bks.cpg/sg15_10_cif.got.tgz:19892.got - 2010.06.03 18:47:42.
