data_PCOD9285450
_publ_section_title
;
Structure prediction by ZEFSAII (Michael W. Deem and Ramdas Pophale) SiO2 
 PCOD9285450
Probable space group: C 2/C
;
_chemical_formula_sum "Si O2"
_cell_formula_units_Z 52
_cell_length_a 9.461121
_cell_length_b 25.391726
_cell_length_c 12.495524
_cell_angle_alpha 90.000000
_cell_angle_beta 122.586922
_cell_angle_gamma 90.000000
_cell_volume 2529.286600
_symmetry_space_group_name_H-M "C 2/C"
_symmetry_group_IT_number 15
_symmetry_cell_setting 'monoclinic'
loop_
_space_group_symop_operation_xyz
x,y,z
-x,y,1/2-z
-x,-y,-z
x,-y,1/2+z
1/2+x,1/2+y,z
1/2-x,1/2+y,1/2-z
1/2-x,1/2-y,-z
1/2+x,1/2-y,1/2+z
loop_
_atom_site_type_symbol
_atom_site_label
_atom_site_fract_x
_atom_site_fract_y
_atom_site_fract_z
Si Si1 0.468831 0.216649 0.538667
Si Si2 0.170355 0.186764 0.786068
Si Si3 0.685026 0.331421 0.046947
Si Si4 0.913049 0.086735 0.371928
Si Si5 0.500000 0.494938 0.250000
Si Si6 0.429205 0.865312 0.840391
Si Si7 0.742178 0.414915 0.455371
O O1 0.664710 0.221388 0.640929
O O2 0.396938 0.274883 0.511923
O O3 0.374237 0.177588 0.582961
O O4 0.439809 0.187678 0.414057
O O5 0.169497 0.162097 0.667685
O O6 0.189902 0.140339 0.880463
O O7 0.000000 0.215161 0.750000
O O8 0.577708 0.376582 0.946249
O O9 0.956294 0.032626 0.331303
O O10 0.760845 0.114729 0.246237
O O11 0.842521 0.079210 0.463034
O O12 0.660022 0.459234 0.347104
O O13 0.500000 0.856887 0.750000
O O14 0.557302 0.908120 0.946069
#
# Coordination Sequence:
#
# PCOD9285450 Si02
#       7
#     8   8   8   8   4   8   8
#     4  10  24  39  60  92 126 174 207 257 317 375
#     4  11  21  41  64  89 122 165 215 260 310 374
#     4  11  23  40  60  89 133 164 212 261 314 374
#     4  11  22  39  61  94 124 163 210 265 316 379
#     4  12  22  36  68  88 120 170 210 258 338 378
#     4   9  21  41  62  89 130 161 211 266 313 373
#     4  10  21  42  61  89 122 162 211 270 311 377
#
# _framework density 20.559156999999999
#
# number of rings (size 3 to 8) (size 9 to 14) (size 15 to 20)
#    0.000    1.538    2.308    1.846    2.154    1.846 
#    0.000    0.000    0.000    3.692    0.000    0.000 
#    0.000    0.000    0.000    0.000    0.000    0.000 
#
# Total GULP energy -145248.773836 kJ/mol
# GULP energy per Si atom -5586.491301 kJ/mol
# Density = 2.051236 g / cm^3
# Si number density = 20.559157 Si / 1000 Ang^3
#
#
#
# Elastic Constant Matrix: (Units=GPa)
#
#
# Indices 1 2 3 4 5 6 
#
# 1 73.2595 -4.7436 22.3111 0.0000 4.1075 0.0000
# 2 -4.7436 49.7969 8.7277 0.0000 1.4148 0.0000
# 3 22.3111 8.7277 79.8838 0.0000 4.9505 0.0000
# 4 0.0000 0.0000 0.0000 5.8259 0.0000 16.9831
# 5 4.1075 1.4148 4.9505 0.0000 36.6402 0.0000
# 6 0.0000 0.0000 0.0000 16.9831 0.0000 6.1419
#
#
#
# Elastic Compliance Matrix: (Units=1/GPa)
#
#
# Indices 1 2 3 4 5 6 
#
# 1 0.015210 0.002258 -0.004421 0.000000 -0.001195 0.000000
# 2 0.002258 0.020818 -0.002863 0.000000 -0.000670 0.000000
# 3 -0.004421 -0.002863 0.014147 0.000000 -0.001305 0.000000
# 4 0.000000 0.000000 0.000000 -0.024311 0.000000 0.067221
# 5 -0.001195 -0.000670 -0.001305 0.000000 0.027629 0.000000
# 6 0.000000 0.000000 0.000000 0.067221 0.000000 -0.023060
#
#
# Mechanical properties :
#
#
# Convention : Reuss Voigt Hill
#
# Bulk Modulus (GPa) = 24.92470 28.39229 26.65850
# Shear Modulus (GPa) = 92.83595 21.49794 57.16694
#
# Velocity S-wave (km/s) = 6.72708 3.23718 5.27887
# Velocity P-wave (km/s) = 8.51398 5.27375 7.08168
#
# Compressibility (1/GPa) = 0.04012084
#
# Stress axis : x y z
#
# Youngs Moduli (GPa) = 65.74816 48.03645 70.68859
#
# Poissons Ratio (x) = -0.10845 0.31248
# Poissons Ratio (y) = -0.14843 0.20241
# Poissons Ratio (z) = 0.29064 0.13755
#
# Static dielectric constant tensor:
#      x y z
#    x 1.768830 0.000000 0.014760 
#    y 0.000000 1.691000 0.000000 
#    z 0.014760 0.000000 1.766710 
# 
# From -- ./inp_files/81506.got.cif
#   From: 2010.05.17/outbox.cif.g08.bks.cpg/sg15_41_cif.got.tgz:81506.got - 2010.06.03 18:47:42.
