data_PCOD9285049
_publ_section_title
;
Structure prediction by ZEFSAII (Michael W. Deem and Ramdas Pophale) SiO2 
 PCOD9285049
Probable space group: C 2/C
;
_chemical_formula_sum "Si O2"
_cell_formula_units_Z 48
_cell_length_a 23.132801
_cell_length_b 5.086131
_cell_length_c 18.373255
_cell_angle_alpha 90.000000
_cell_angle_beta 84.978124
_cell_angle_gamma 90.000000
_cell_volume 2153.433938
_symmetry_space_group_name_H-M "C 2/C"
_symmetry_group_IT_number 15
_symmetry_cell_setting 'monoclinic'
loop_
_space_group_symop_operation_xyz
x,y,z
-x,y,1/2-z
-x,-y,-z
x,-y,1/2+z
1/2+x,1/2+y,z
1/2-x,1/2+y,1/2-z
1/2-x,1/2-y,-z
1/2+x,1/2-y,1/2+z
loop_
_atom_site_type_symbol
_atom_site_label
_atom_site_fract_x
_atom_site_fract_y
_atom_site_fract_z
Si Si1 0.470796 0.186281 0.879397
Si Si2 0.609242 0.188242 0.176199
Si Si3 0.234348 0.451432 0.708438
Si Si4 0.500000 0.458618 0.250000
Si Si5 0.407351 0.558568 0.979309
Si Si6 0.277228 0.498294 0.038415
Si Si7 0.500000 0.000000 0.000000
O O1 0.505446 0.361566 0.820906
O O2 0.451046 0.305722 0.961377
O O3 0.412398 0.098828 0.846447
O O4 0.503031 0.937987 0.909219
O O5 0.670536 0.170334 0.206051
O O6 0.557603 0.292348 0.231771
O O7 0.609289 0.355001 0.101391
O O8 0.231544 0.729002 0.750270
O O9 0.259259 0.494230 0.624781
O O10 0.442166 0.793146 0.012301
O O11 0.347017 0.491677 0.023672
O O12 0.250000 0.750000 0.000000
O O13 0.250000 0.250000 0.000000
#
# Coordination Sequence:
#
# PCOD9285049 Si02
#       7
#     8   8   8   4   8   8   4
#     4  10  21  41  66  97 136 177 233 284 355 426
#     4  10  22  43  68  96 139 187 236 288 363 433
#     4  12  28  48  70 111 150 188 239 313 363 424
#     4  10  22  38  68  98 128 192 226 286 350 450
#     4  10  22  41  70  98 137 182 241 298 347 444
#     4  12  25  47  78 104 138 201 253 288 370 449
#     4  10  22  40  64 102 134 174 226 298 358 400
#
# _framework density 22.28998
#
# number of rings (size 3 to 8) (size 9 to 14) (size 15 to 20)
#    0.000    1.333    1.667    3.000    7.000    1.333 
#    9.000    0.000    0.000    0.000    0.000    0.000 
#    0.000    0.000    0.000    0.000    0.000    0.000 
#
# Total GULP energy -133753.086041 kJ/mol
# GULP energy per Si atom -5573.045252 kJ/mol
# Density = 2.223925 g / cm^3
# Si number density = 22.289980 Si / 1000 Ang^3
#
#
#
# Elastic Constant Matrix: (Units=GPa)
#
#
# Indices 1 2 3 4 5 6 
#
# 1 140.7599 21.4671 57.2847 0.0000 -17.9354 0.0000
# 2 21.4671 101.9346 48.8006 0.0000 -7.0383 0.0000
# 3 57.2847 48.8006 135.1709 0.0000 -21.4210 0.0000
# 4 0.0000 0.0000 0.0000 38.3458 0.0000 6.6386
# 5 -17.9354 -7.0383 -21.4210 0.0000 39.3090 0.0000
# 6 0.0000 0.0000 0.0000 6.6386 0.0000 31.1764
#
#
#
# Elastic Compliance Matrix: (Units=1/GPa)
#
#
# Indices 1 2 3 4 5 6 
#
# 1 0.008750 -0.000099 -0.003330 0.000000 0.002160 0.000000
# 2 -0.000099 0.011863 -0.004281 0.000000 -0.000254 0.000000
# 3 -0.003330 -0.004281 0.010937 0.000000 0.003674 0.000000
# 4 0.000000 0.000000 0.000000 0.027077 0.000000 -0.005766
# 5 0.002160 -0.000254 0.003674 0.000000 0.028382 0.000000
# 6 0.000000 0.000000 0.000000 -0.005766 0.000000 0.033303
#
#
# Mechanical properties :
#
#
# Convention : Reuss Voigt Hill
#
# Bulk Modulus (GPa) = 61.99926 70.33002 66.16464
# Shear Modulus (GPa) = 35.43361 38.45377 36.94369
#
# Velocity S-wave (km/s) = 3.99139 4.15801 4.07555
# Velocity P-wave (km/s) = 7.00834 7.39411 7.20381
#
# Compressibility (1/GPa) = 0.01612923
#
# Stress axis : x y z
#
# Youngs Moduli (GPa) = 114.28770 84.29473 91.43158
#
# Poissons Ratio (x) = 0.00837 0.30447
# Poissons Ratio (y) = 0.01135 0.39143
# Poissons Ratio (z) = 0.38058 0.36088
#
# Static dielectric constant tensor:
#      x y z
#    x 1.523540 0.000000 -0.199310 
#    y 0.000000 1.039980 0.000000 
#    z -0.199310 0.000000 1.676820 
# 
# From -- ./inp_files/175741.got.cif
#   From: 2010.05.17/outbox.cif.g08.bks.cpg/sg15_88_cif.got.tgz:175741.got - 2010.06.03 18:47:42.
