data_PCOD9285638
_publ_section_title
;
Structure prediction by ZEFSAII (Michael W. Deem and Ramdas Pophale) SiO2 
 PCOD9285638
Probable space group: C 2/C
;
_chemical_formula_sum "Si O2"
_cell_formula_units_Z 48
_cell_length_a 15.713332
_cell_length_b 6.719740
_cell_length_c 21.599326
_cell_angle_alpha 90.000000
_cell_angle_beta 106.634824
_cell_angle_gamma 90.000000
_cell_volume 2185.213609
_symmetry_space_group_name_H-M "C 2/C"
_symmetry_group_IT_number 15
_symmetry_cell_setting 'monoclinic'
loop_
_space_group_symop_operation_xyz
x,y,z
-x,y,1/2-z
-x,-y,-z
x,-y,1/2+z
1/2+x,1/2+y,z
1/2-x,1/2+y,1/2-z
1/2-x,1/2-y,-z
1/2+x,1/2-y,1/2+z
loop_
_atom_site_type_symbol
_atom_site_label
_atom_site_fract_x
_atom_site_fract_y
_atom_site_fract_z
Si Si1 0.127523 0.338426 0.740587
Si Si2 0.983112 0.349513 0.606895
Si Si3 0.612888 0.439535 0.056347
Si Si4 0.473639 0.293114 0.576984
Si Si5 0.393399 0.534231 0.657139
Si Si6 0.729754 0.187209 0.829556
O O1 0.043874 0.388642 0.680150
O O2 0.102218 0.148854 0.777187
O O3 0.208035 0.267863 0.713009
O O4 0.160419 0.527742 0.787197
O O5 0.047148 0.222562 0.575411
O O6 0.958434 0.560788 0.575043
O O7 0.899328 0.218385 0.610453
O O8 0.566917 0.647338 0.065217
O O9 0.707554 0.418582 0.107126
O O10 0.601612 0.393535 0.981896
O O11 0.470450 0.392847 0.644401
O O12 0.314077 0.378689 0.647497
#
# Coordination Sequence:
#
# PCOD9285638 Si02
#       6
#     8   8   8   8   8   8
#     4  11  23  38  59  89 121 165 211 259 326 383
#     4  10  22  38  63  90 122 166 213 261 319 385
#     4   9  22  40  64  94 121 165 219 260 321 385
#     4  10  21  42  65  89 127 168 212 267 315 385
#     4  11  23  39  58  91 124 161 211 262 314 385
#     4  11  23  39  62  88 127 164 210 269 322 383
#
# _framework density 21.965817000000001
#
# number of rings (size 3 to 8) (size 9 to 14) (size 15 to 20)
#    0.000    1.667    1.667    2.000    2.333    3.333 
#    0.000    1.667    0.000    0.000    0.000    0.000 
#    0.000    0.000    0.000    0.000    0.000    0.000 
#
# Total GULP energy -133975.369223 kJ/mol
# GULP energy per Si atom -5582.307051 kJ/mol
# Density = 2.191582 g / cm^3
# Si number density = 21.965817 Si / 1000 Ang^3
#
#
#
# Elastic Constant Matrix: (Units=GPa)
#
#
# Indices 1 2 3 4 5 6 
#
# 1 62.4286 38.1369 40.4605 0.0000 -1.9953 0.0000
# 2 38.1369 109.5400 39.7425 0.0000 -0.9306 0.0000
# 3 40.4605 39.7425 97.7121 0.0000 7.2624 0.0000
# 4 0.0000 0.0000 0.0000 26.9061 0.0000 -8.6542
# 5 -1.9953 -0.9306 7.2624 0.0000 22.2324 0.0000
# 6 0.0000 0.0000 0.0000 -8.6542 0.0000 33.8209
#
#
#
# Elastic Compliance Matrix: (Units=1/GPa)
#
#
# Indices 1 2 3 4 5 6 
#
# 1 0.025088 -0.005626 -0.008455 0.000000 0.004778 0.000000
# 2 -0.005626 0.012052 -0.002636 0.000000 0.000861 0.000000
# 3 -0.008455 -0.002636 0.015242 0.000000 -0.005848 0.000000
# 4 0.000000 0.000000 0.000000 0.040500 0.000000 0.010363
# 5 0.004778 0.000861 -0.005848 0.000000 0.047355 0.000000
# 6 0.000000 0.000000 0.000000 0.010363 0.000000 0.032219
#
#
# Mechanical properties :
#
#
# Convention : Reuss Voigt Hill
#
# Bulk Modulus (GPa) = 52.77952 56.26230 54.52091
# Shear Modulus (GPa) = 23.56212 26.68127 25.12169
#
# Velocity S-wave (km/s) = 3.27872 3.48900 3.38549
# Velocity P-wave (km/s) = 6.19787 6.47302 6.33694
#
# Compressibility (1/GPa) = 0.01894674
#
# Stress axis : x y z
#
# Youngs Moduli (GPa) = 39.85993 82.97671 65.60809
#
# Poissons Ratio (x) = 0.46685 0.55472
# Poissons Ratio (y) = 0.22426 0.17294
# Poissons Ratio (z) = 0.33702 0.21873
#
# Static dielectric constant tensor:
#      x y z
#    x 1.810990 0.000000 -0.044130 
#    y 0.000000 1.789630 0.000000 
#    z -0.044130 0.000000 1.836570 
# 
# From -- ./inp_files/275822.got.cif
#   From: 2010.05.17/outbox.cif.g08.bks.cpg/sg15_138_cif.got.tgz:275822.got - 2010.06.03 18:47:42.
