data_PCOD9285197
_publ_section_title
;
Structure prediction by ZEFSAII (Michael W. Deem and Ramdas Pophale) SiO2 
 PCOD9285197
Probable space group: C 2/C
;
_chemical_formula_sum "Si O2"
_cell_formula_units_Z 44
_cell_length_a 8.705809
_cell_length_b 28.243670
_cell_length_c 12.364858
_cell_angle_alpha 90.000000
_cell_angle_beta 42.852484
_cell_angle_gamma 90.000000
_cell_volume 2067.762026
_symmetry_space_group_name_H-M "C 2/C"
_symmetry_group_IT_number 15
_symmetry_cell_setting 'monoclinic'
loop_
_space_group_symop_operation_xyz
x,y,z
-x,y,1/2-z
-x,-y,-z
x,-y,1/2+z
1/2+x,1/2+y,z
1/2-x,1/2+y,1/2-z
1/2-x,1/2-y,-z
1/2+x,1/2-y,1/2+z
loop_
_atom_site_type_symbol
_atom_site_label
_atom_site_fract_x
_atom_site_fract_y
_atom_site_fract_z
Si Si1 0.500000 0.752808 0.750000
Si Si2 0.706380 0.803105 0.061901
Si Si3 0.921060 0.182982 0.967104
Si Si4 0.854979 0.593530 0.433715
Si Si5 0.611009 0.008256 0.568321
Si Si6 0.263047 0.106508 0.084335
O O1 0.295724 0.786119 0.888509
O O2 0.439396 0.716992 0.684922
O O3 0.500000 0.802070 0.250000
O O4 0.750000 0.750000 0.000000
O O5 0.660432 0.842015 0.995890
O O6 0.926392 0.823969 0.007846
O O7 0.830694 0.134507 0.963516
O O8 0.749786 0.540866 0.494531
O O9 0.000000 0.599797 0.250000
O O10 0.054483 0.597089 0.417231
O O11 0.500000 0.008599 0.750000
O O12 0.715039 0.060520 0.504516
O O13 0.500000 0.000000 0.500000
O O14 0.000000 0.109245 0.250000
#
# Coordination Sequence:
#
# PCOD9285197 Si02
#       6
#     4   8   8   8   8   8
#     4  10  24  38  66  88 128 168 224 266 334 390
#     4  12  27  43  66  97 136 177 225 278 349 416
#     4  11  23  42  64  93 129 173 222 276 333 411
#     4  10  21  41  68  93 129 173 227 279 341 410
#     4   9  20  43  68  97 134 183 234 294 354 424
#     4  11  24  42  66  98 137 178 225 288 353 415
#
# _framework density 21.279045
#
# number of rings (size 3 to 8) (size 9 to 14) (size 15 to 20)
#    0.000    1.455    0.909    3.273    7.636    0.000 
#    1.636   14.545    0.000    0.000    0.000    0.000 
#    0.000    0.000    0.000    0.000    0.000    0.000 
#
# Total GULP energy -122474.583917 kJ/mol
# GULP energy per Si atom -5567.026542 kJ/mol
# Density = 2.123061 g / cm^3
# Si number density = 21.279045 Si / 1000 Ang^3
#
#
#
# Elastic Constant Matrix: (Units=GPa)
#
#
# Indices 1 2 3 4 5 6 
#
# 1 67.7665 25.6346 9.3712 0.0000 5.9723 0.0000
# 2 25.6346 200.1441 65.3392 0.0000 -1.9350 0.0000
# 3 9.3712 65.3392 69.0390 0.0000 10.3303 0.0000
# 4 0.0000 0.0000 0.0000 30.9417 0.0000 15.1899
# 5 5.9723 -1.9350 10.3303 0.0000 24.0950 0.0000
# 6 0.0000 0.0000 0.0000 15.1899 0.0000 37.6616
#
#
#
# Elastic Compliance Matrix: (Units=1/GPa)
#
#
# Indices 1 2 3 4 5 6 
#
# 1 0.015924 -0.002305 0.000682 0.000000 -0.004425 0.000000
# 2 -0.002305 0.007897 -0.007844 0.000000 0.004568 0.000000
# 3 0.000682 -0.007844 0.023439 0.000000 -0.010848 0.000000
# 4 0.000000 0.000000 0.000000 0.040298 0.000000 -0.016253
# 5 -0.004425 0.004568 -0.010848 0.000000 0.047617 0.000000
# 6 0.000000 0.000000 0.000000 -0.016253 0.000000 0.033108
#
#
# Mechanical properties :
#
#
# Convention : Reuss Voigt Hill
#
# Bulk Modulus (GPa) = 35.30396 59.73772 47.52084
# Shear Modulus (GPa) = 25.42485 34.31330 29.86907
#
# Velocity S-wave (km/s) = 3.46038 4.02000 3.75064
# Velocity P-wave (km/s) = 5.70900 7.04852 6.41382
#
# Compressibility (1/GPa) = 0.02832543
#
# Stress axis : x y z
#
# Youngs Moduli (GPa) = 62.79785 126.63688 42.66405
#
# Poissons Ratio (x) = 0.29190 -0.02910
# Poissons Ratio (y) = 0.14475 0.33466
# Poissons Ratio (z) = -0.04283 0.99336
#
# Static dielectric constant tensor:
#      x y z
#    x 1.826910 0.000000 0.071120 
#    y 0.000000 1.791730 0.000000 
#    z 0.071120 0.000000 1.801130 
# 
# From -- ./inp_files/81112.got.cif
#   From: 2010.05.17/outbox.cif.g08.bks.cpg/sg15_41_cif.got.tgz:81112.got - 2010.06.03 18:47:42.
