data_PCOD9285544
_publ_section_title
;
Structure prediction by ZEFSAII (Michael W. Deem and Ramdas Pophale) SiO2 
 PCOD9285544
Probable space group: C 2/C
;
_chemical_formula_sum "Si O2"
_cell_formula_units_Z 52
_cell_length_a 25.698358
_cell_length_b 8.650633
_cell_length_c 12.281306
_cell_angle_alpha 90.000000
_cell_angle_beta 47.670398
_cell_angle_gamma 90.000000
_cell_volume 2018.406800
_symmetry_space_group_name_H-M "C 2/C"
_symmetry_group_IT_number 15
_symmetry_cell_setting 'monoclinic'
loop_
_space_group_symop_operation_xyz
x,y,z
-x,y,1/2-z
-x,-y,-z
x,-y,1/2+z
1/2+x,1/2+y,z
1/2-x,1/2+y,1/2-z
1/2-x,1/2-y,-z
1/2+x,1/2-y,1/2+z
loop_
_atom_site_type_symbol
_atom_site_label
_atom_site_fract_x
_atom_site_fract_y
_atom_site_fract_z
Si Si1 0.834504 0.074525 0.447478
Si Si2 0.584587 0.198706 0.814977
Si Si3 0.297729 0.003533 0.238700
Si Si4 0.136973 0.344959 0.525088
Si Si5 0.905435 0.054302 0.034326
Si Si6 0.000000 0.529974 0.750000
Si Si7 0.836077 0.190740 0.787350
O O1 0.857612 0.216281 0.342072
O O2 0.770844 0.085778 0.621695
O O3 0.906551 0.024281 0.412032
O O4 0.805034 0.945530 0.405879
O O5 0.630407 0.067398 0.810769
O O6 0.552473 0.330948 0.941897
O O7 0.528312 0.128847 0.811612
O O8 0.307775 0.969826 0.096734
O O9 0.295938 0.182600 0.273248
O O10 0.146303 0.193236 0.435714
O O11 0.061130 0.421145 0.618795
O O12 0.136304 0.294773 0.651034
O O13 0.884686 0.910683 0.139381
#
# Coordination Sequence:
#
# PCOD9285544 Si02
#       7
#     8   8   8   8   8   4   8
#     4  10  22  41  67 103 147 171 229 291 356 432
#     4  10  23  43  67  98 136 188 231 290 345 409
#     4  11  22  39  70 105 136 182 231 282 364 418
#     4  10  24  44  66  98 134 182 238 289 336 426
#     4   9  22  42  65  97 138 175 228 275 368 415
#     4  12  24  48  70  90 144 186 252 292 340 414
#     4  10  21  42  64 101 139 178 220 288 360 417
#
# _framework density 25.762893999999999
#
# number of rings (size 3 to 8) (size 9 to 14) (size 15 to 20)
#    0.000    1.846    1.538    0.923    2.154    8.615 
#    0.000    8.462    0.000    0.000    0.000    0.000 
#    0.000    0.000    0.000    0.000    0.000    0.000 
#
# Total GULP energy -144790.262265 kJ/mol
# GULP energy per Si atom -5568.856241 kJ/mol
# Density = 2.570426 g / cm^3
# Si number density = 25.762894 Si / 1000 Ang^3
#
#
#
# Elastic Constant Matrix: (Units=GPa)
#
#
# Indices 1 2 3 4 5 6 
#
# 1 137.3737 68.0542 38.4775 0.0000 25.3764 0.0000
# 2 68.0542 98.3855 63.8277 0.0000 21.4331 0.0000
# 3 38.4775 63.8277 85.4312 0.0000 16.5833 0.0000
# 4 0.0000 0.0000 0.0000 25.5481 0.0000 28.4342
# 5 25.3764 21.4331 16.5833 0.0000 36.8200 0.0000
# 6 0.0000 0.0000 0.0000 28.4342 0.0000 29.0841
#
#
#
# Elastic Compliance Matrix: (Units=1/GPa)
#
#
# Indices 1 2 3 4 5 6 
#
# 1 0.011647 -0.008322 0.001742 0.000000 -0.003967 0.000000
# 2 -0.008322 0.026666 -0.015642 0.000000 -0.002741 0.000000
# 3 0.001742 -0.015642 0.023092 0.000000 -0.002496 0.000000
# 4 0.000000 0.000000 0.000000 -0.444333 0.000000 0.434403
# 5 -0.003967 -0.002741 -0.002496 0.000000 0.032613 0.000000
# 6 0.000000 0.000000 0.000000 0.434403 0.000000 -0.390312
#
#
# Mechanical properties :
#
#
# Convention : Reuss Voigt Hill
#
# Bulk Modulus (GPa) = 58.96242 73.54544 66.25393
# Shear Modulus (GPa) = -7.24083 28.34586 10.55252
#
# Velocity S-wave (km/s) = -1.67829 3.32061 2.02606
# Velocity P-wave (km/s) = 4.37958 6.58111 5.58980
#
# Compressibility (1/GPa) = 0.01695996
#
# Stress axis : x y z
#
# Youngs Moduli (GPa) = 85.85746 37.50090 43.30541
#
# Poissons Ratio (x) = 0.31210 -0.07545
# Poissons Ratio (y) = 0.71455 0.67740
# Poissons Ratio (z) = -0.14958 0.58660
#
# Static dielectric constant tensor:
#      x y z
#    x 2.147110 0.000000 0.046000 
#    y 0.000000 2.053770 0.000000 
#    z 0.046000 0.000000 2.071890 
# 
# From -- ./inp_files/121481.got.cif
#   From: 2010.05.17/outbox.cif.g08.bks.cpg/sg15_61_cif.got.tgz:121481.got - 2010.06.03 18:47:42.
