data_PCOD9285915
_publ_section_title
;
Structure prediction by ZEFSAII (Michael W. Deem and Ramdas Pophale) SiO2 
 PCOD9285915
Probable space group: C 2/C
;
_chemical_formula_sum "Si O2"
_cell_formula_units_Z 60
_cell_length_a 15.856916
_cell_length_b 17.080041
_cell_length_c 10.880975
_cell_angle_alpha 90.000000
_cell_angle_beta 99.331105
_cell_angle_gamma 90.000000
_cell_volume 2907.973424
_symmetry_space_group_name_H-M "C 2/C"
_symmetry_group_IT_number 15
_symmetry_cell_setting 'monoclinic'
loop_
_space_group_symop_operation_xyz
x,y,z
-x,y,1/2-z
-x,-y,-z
x,-y,1/2+z
1/2+x,1/2+y,z
1/2-x,1/2+y,1/2-z
1/2-x,1/2-y,-z
1/2+x,1/2-y,1/2+z
loop_
_atom_site_type_symbol
_atom_site_label
_atom_site_fract_x
_atom_site_fract_y
_atom_site_fract_z
Si Si1 0.759005 0.697851 0.329394
Si Si2 0.906116 0.464148 0.962910
Si Si3 0.940668 0.312041 0.841732
Si Si4 0.488100 0.639262 0.947307
Si Si5 0.300283 0.995108 0.684402
Si Si6 0.206517 0.867493 0.055873
Si Si7 0.000000 0.005899 0.750000
Si Si8 0.365909 0.389162 0.825115
O O1 0.843817 0.691327 0.267849
O O2 0.774662 0.780689 0.394284
O O3 0.750473 0.630389 0.432490
O O4 0.668190 0.689923 0.245132
O O5 0.928288 0.370690 0.953234
O O6 0.857650 0.486563 0.821721
O O7 0.855276 0.495402 0.071566
O O8 0.000000 0.500000 0.000000
O O9 0.000000 0.346419 0.750000
O O10 0.975527 0.225719 0.884746
O O11 0.394664 0.621544 0.981268
O O12 0.507425 0.566443 0.863260
O O13 0.566459 0.636588 0.057947
O O14 0.245340 0.075011 0.665313
O O15 0.223937 0.930475 0.658334
O O16 0.918525 0.950491 0.754149
#
# Coordination Sequence:
#
# PCOD9285915 Si02
#       8
#     8   8   8   8   8   8   4   8
#     4  10  22  42  65  93 131 177 222 276 347 397
#     4  12  27  46  72 100 134 182 230 292 343 400
#     4  11  22  44  66  91 134 177 219 278 347 403
#     4  11  25  40  66  97 134 181 217 273 349 411
#     4  12  24  44  71 102 135 178 233 284 344 406
#     4  10  21  42  68  94 132 179 222 279 338 411
#     4  12  24  42  62 100 142 174 220 278 350 402
#     4  12  25  39  67 101 138 172 231 282 338 412
#
# _framework density 20.632925
#
# number of rings (size 3 to 8) (size 9 to 14) (size 15 to 20)
#    0.000    0.800    4.667    2.400    3.733    1.067 
#    0.000    0.667    0.000    0.000    0.000    0.000 
#    0.000    0.000    0.000    0.000    0.000    0.000 
#
# Total GULP energy -167087.199633 kJ/mol
# GULP energy per Si atom -5569.573321 kJ/mol
# Density = 2.058596 g / cm^3
# Si number density = 20.632925 Si / 1000 Ang^3
#
#
#
# Elastic Constant Matrix: (Units=GPa)
#
#
# Indices 1 2 3 4 5 6 
#
# 1 160.5924 38.5068 80.0094 0.0000 10.5887 0.0000
# 2 38.5068 39.9631 28.7783 0.0000 12.1516 0.0000
# 3 80.0094 28.7783 124.8273 0.0000 22.4821 0.0000
# 4 0.0000 0.0000 0.0000 -134.4370 0.0000 -1.8821
# 5 10.5887 12.1516 22.4821 0.0000 43.9277 0.0000
# 6 0.0000 0.0000 0.0000 -1.8821 0.0000 27.7793
#
#
#
# Elastic Compliance Matrix: (Units=1/GPa)
#
#
# Indices 1 2 3 4 5 6 
#
# 1 0.010464 -0.006755 -0.005543 0.000000 0.002183 0.000000
# 2 -0.006755 0.035503 -0.002621 0.000000 -0.006851 0.000000
# 3 -0.005543 -0.002621 0.012995 0.000000 -0.004589 0.000000
# 4 0.000000 0.000000 0.000000 -0.007431 0.000000 -0.000503
# 5 0.002183 -0.006851 -0.004589 0.000000 0.026483 0.000000
# 6 0.000000 0.000000 0.000000 -0.000503 0.000000 0.035964
#
#
# Mechanical properties :
#
#
# Convention : Reuss Voigt Hill
#
# Bulk Modulus (GPa) = 34.33692 68.88575 51.61134
# Shear Modulus (GPa) = 32.56812 -0.67346 15.94733
#
# Velocity S-wave (km/s) = 3.97729 -0.57194 2.78314
# Velocity P-wave (km/s) = 6.14570 5.74653 5.94947
#
# Compressibility (1/GPa) = 0.02912317
#
# Stress axis : x y z
#
# Youngs Moduli (GPa) = 95.56203 28.16662 76.95328
#
# Poissons Ratio (x) = 0.19027 0.42656
# Poissons Ratio (y) = 0.64554 0.20172
# Poissons Ratio (z) = 0.52971 0.07383
#
# Static dielectric constant tensor:
#      x y z
#    x 1.821600 0.000000 -0.069450 
#    y 0.000000 1.787220 0.000000 
#    z -0.069450 0.000000 1.834880 
# 
# From -- ./inp_files/98798.got.cif
#   From: 2010.05.17/outbox.cif.g08.bks.cpg/sg15_50_cif.got.tgz:98798.got - 2010.06.03 18:47:42.
