data_PCOD9285639
_publ_section_title
;
Structure prediction by ZEFSAII (Michael W. Deem and Ramdas Pophale) SiO2 
 PCOD9285639
Probable space group: C 2/C
;
_chemical_formula_sum "Si O2"
_cell_formula_units_Z 48
_cell_length_a 8.888377
_cell_length_b 28.536133
_cell_length_c 17.166757
_cell_angle_alpha 90.000000
_cell_angle_beta 27.585156
_cell_angle_gamma 90.000000
_cell_volume 2016.272098
_symmetry_space_group_name_H-M "C 2/C"
_symmetry_group_IT_number 15
_symmetry_cell_setting 'monoclinic'
loop_
_space_group_symop_operation_xyz
x,y,z
-x,y,1/2-z
-x,-y,-z
x,-y,1/2+z
1/2+x,1/2+y,z
1/2-x,1/2+y,1/2-z
1/2-x,1/2-y,-z
1/2+x,1/2-y,1/2+z
loop_
_atom_site_type_symbol
_atom_site_label
_atom_site_fract_x
_atom_site_fract_y
_atom_site_fract_z
Si Si1 0.696354 0.043897 0.943385
Si Si2 0.145669 0.605338 0.505580
Si Si3 0.374280 0.380801 0.592147
Si Si4 0.765628 0.953613 0.182746
Si Si5 0.722260 0.200301 0.823734
Si Si6 0.611165 0.281236 0.421887
O O1 0.449019 0.087126 0.037483
O O2 0.000000 0.055803 0.750000
O O3 0.898950 0.029150 0.928761
O O4 0.500000 0.000000 0.000000
O O5 0.507518 0.607939 0.374504
O O6 0.954340 0.569851 0.649997
O O7 0.012487 0.657158 0.585289
O O8 0.593632 0.412696 0.435848
O O9 0.446148 0.327855 0.531626
O O10 0.000000 0.391260 0.750000
O O11 0.500000 0.981126 0.250000
O O12 0.907908 0.220969 0.663245
O O13 0.000000 0.179136 0.750000
O O14 0.531216 0.239227 0.961069
O O15 0.000000 0.283422 0.250000
#
# Coordination Sequence:
#
# PCOD9285639 Si02
#       6
#     8   8   8   8   8   8
#     4  10  22  41  67  97 131 167 214 275 341 406
#     4  10  21  42  65  89 127 181 218 268 346 408
#     4  11  22  39  63  92 128 172 227 281 334 398
#     4   9  18  40  67  90 123 176 221 261 331 409
#     4  12  24  42  67  97 133 180 234 283 343 404
#     4  12  24  44  64  93 140 179 232 286 337 409
#
# _framework density 23.80631
#
# number of rings (size 3 to 8) (size 9 to 14) (size 15 to 20)
#    0.000    1.333    3.333    3.500    0.000    1.333 
#    0.000    9.167    0.000    0.000    0.000    0.000 
#    0.000    0.000    0.000    0.000    0.000    0.000 
#
# Total GULP energy -133745.896942 kJ/mol
# GULP energy per Si atom -5572.745706 kJ/mol
# Density = 2.375213 g / cm^3
# Si number density = 23.806310 Si / 1000 Ang^3
#
#
#
# Elastic Constant Matrix: (Units=GPa)
#
#
# Indices 1 2 3 4 5 6 
#
# 1 186.4258 33.9439 61.2327 0.0000 -37.7277 0.0000
# 2 33.9439 79.1436 32.1115 0.0000 4.5051 0.0000
# 3 61.2327 32.1115 99.1273 0.0000 -2.7386 0.0002
# 4 0.0000 0.0000 0.0000 20.1883 0.0000 -4.7878
# 5 -37.7277 4.5051 -2.7386 0.0000 55.4626 0.0000
# 6 0.0000 0.0000 0.0002 -4.7878 0.0000 14.0319
#
#
#
# Elastic Compliance Matrix: (Units=1/GPa)
#
#
# Indices 1 2 3 4 5 6 
#
# 1 0.008291 -0.002141 -0.004273 0.000000 0.005603 0.000000
# 2 -0.002141 0.015212 -0.003685 0.000000 -0.002874 0.000000
# 3 -0.004273 -0.003685 0.013868 0.000000 -0.001923 0.000000
# 4 0.000000 0.000000 0.000000 0.053895 0.000000 0.018389
# 5 0.005603 -0.002874 -0.001923 0.000000 0.021980 0.000000
# 6 0.000000 0.000000 0.000000 0.018389 0.000000 0.077541
#
#
# Mechanical properties :
#
#
# Convention : Reuss Voigt Hill
#
# Bulk Modulus (GPa) = 58.22911 68.80810 63.51861
# Shear Modulus (GPa) = 23.07230 33.76381 28.41805
#
# Velocity S-wave (km/s) = 3.11652 3.77008 3.45877
# Velocity P-wave (km/s) = 6.12070 6.92224 6.53377
#
# Compressibility (1/GPa) = 0.01717354
#
# Stress axis : x y z
#
# Youngs Moduli (GPa) = 120.60611 65.73676 72.10722
#
# Poissons Ratio (x) = 0.14076 0.30814
# Poissons Ratio (y) = 0.25824 0.26569
# Poissons Ratio (z) = 0.51539 0.24221
#
# Static dielectric constant tensor:
#      x y z
#    x 2.140770 0.000000 0.001050 
#    y 0.000000 1.852480 0.000000 
#    z 0.001050 0.000000 1.884340 
# 
# From -- ./inp_files/194150.got.cif
#   From: 2010.05.17/outbox.cif.g08.bks.cpg/sg15_98_cif.got.tgz:194150.got - 2010.06.03 18:47:42.
