data_PCOD9285327
_publ_section_title
;
Structure prediction by ZEFSAII (Michael W. Deem and Ramdas Pophale) SiO2 
 PCOD9285327
Probable space group: C 2/C
;
_chemical_formula_sum "Si O2"
_cell_formula_units_Z 52
_cell_length_a 26.078780
_cell_length_b 10.697867
_cell_length_c 9.255052
_cell_angle_alpha 90.000000
_cell_angle_beta 121.051047
_cell_angle_gamma 90.000000
_cell_volume 2212.056411
_symmetry_space_group_name_H-M "C 2/C"
_symmetry_group_IT_number 15
_symmetry_cell_setting 'monoclinic'
loop_
_space_group_symop_operation_xyz
x,y,z
-x,y,1/2-z
-x,-y,-z
x,-y,1/2+z
1/2+x,1/2+y,z
1/2-x,1/2+y,1/2-z
1/2-x,1/2-y,-z
1/2+x,1/2-y,1/2+z
loop_
_atom_site_type_symbol
_atom_site_label
_atom_site_fract_x
_atom_site_fract_y
_atom_site_fract_z
Si Si1 0.578210 0.050583 0.614038
Si Si2 0.500000 0.987513 0.250000
Si Si3 0.338216 0.159818 0.284620
Si Si4 0.429655 0.405093 0.174853
Si Si5 0.259213 0.346666 0.647371
Si Si6 0.661794 0.190039 0.532730
Si Si7 0.859756 0.951172 0.334922
O O1 0.551909 0.082437 0.733053
O O2 0.636426 0.119062 0.637421
O O3 0.529039 0.068441 0.418880
O O4 0.596848 0.905219 0.628552
O O5 0.302306 0.105373 0.370048
O O6 0.316238 0.132024 0.087783
O O7 0.339108 0.308109 0.311589
O O8 0.500000 0.400764 0.250000
O O9 0.394932 0.274649 0.098624
O O10 0.417585 0.450319 0.317663
O O11 0.387177 0.497213 0.021157
O O12 0.250000 0.250000 0.500000
O O13 0.307058 0.458914 0.696878
O O14 0.286420 0.272950 0.824541
#
# Coordination Sequence:
#
# PCOD9285327 Si02
#       7
#     8   4   8   8   8   8   8
#     4  11  23  44  68 102 131 177 227 275 348 404
#     4  10  24  42  68  96 140 168 222 294 324 410
#     4  11  24  44  68  96 136 184 217 279 343 406
#     4  10  21  41  70  93 131 174 216 276 333 397
#     4  11  25  43  71  99 136 173 223 290 330 400
#     4  10  24  43  68  97 134 174 228 269 344 411
#     4  10  23  44  63 102 130 168 227 266 337 406
#
# _framework density 23.507536000000002
#
# number of rings (size 3 to 8) (size 9 to 14) (size 15 to 20)
#    0.000    1.538    1.538    1.846    5.385    1.231 
#    1.385    0.000    0.000    0.000    0.000    0.000 
#    0.000    0.000    0.000    0.000    0.000    0.000 
#
# Total GULP energy -144928.997574 kJ/mol
# GULP energy per Si atom -5574.192214 kJ/mol
# Density = 2.345403 g / cm^3
# Si number density = 23.507536 Si / 1000 Ang^3
#
#
#
# Elastic Constant Matrix: (Units=GPa)
#
#
# Indices 1 2 3 4 5 6 
#
# 1 156.9567 28.7669 23.0713 0.0000 -21.5974 0.0000
# 2 28.7669 61.6317 10.6897 0.0000 -1.7169 0.0000
# 3 23.0713 10.6897 77.1140 0.0000 -11.3424 0.0000
# 4 0.0000 0.0000 0.0000 17.0755 0.0000 -9.0140
# 5 -21.5974 -1.7169 -11.3424 0.0000 51.3962 0.0000
# 6 0.0000 0.0000 0.0000 -9.0140 0.0000 21.6544
#
#
#
# Elastic Compliance Matrix: (Units=1/GPa)
#
#
# Indices 1 2 3 4 5 6 
#
# 1 0.007543 -0.003200 -0.001408 0.000000 0.002752 0.000000
# 2 -0.003200 0.017983 -0.001700 0.000000 -0.001119 0.000000
# 3 -0.001408 -0.001700 0.013983 0.000000 0.002437 0.000000
# 4 0.000000 0.000000 0.000000 0.075056 0.000000 0.031243
# 5 0.002752 -0.001119 0.002437 0.000000 0.021114 0.000000
# 6 0.000000 0.000000 0.000000 0.031243 0.000000 0.059186
#
#
# Mechanical properties :
#
#
# Convention : Reuss Voigt Hill
#
# Bulk Modulus (GPa) = 37.18507 46.75093 41.96800
# Shear Modulus (GPa) = 23.10042 33.57018 28.33530
#
# Velocity S-wave (km/s) = 3.13818 3.78307 3.47561
# Velocity P-wave (km/s) = 5.38364 6.24603 5.83080
#
# Compressibility (1/GPa) = 0.02689251
#
# Stress axis : x y z
#
# Youngs Moduli (GPa) = 132.56616 55.60904 71.51363
#
# Poissons Ratio (x) = 0.17795 0.10073
# Poissons Ratio (y) = 0.42421 0.12157
# Poissons Ratio (z) = 0.18672 0.09454
#
# Static dielectric constant tensor:
#      x y z
#    x 2.011400 0.000000 -0.000300 
#    y 0.000000 1.964330 0.000000 
#    z -0.000300 0.000000 1.873290 
# 
# From -- ./inp_files/65606.got.cif
#   From: 2010.05.17/outbox.cif.g08.bks.cpg/sg15_33_cif.got.tgz:65606.got - 2010.06.03 18:47:42.
