data_PCOD9285305
_publ_section_title
;
Structure prediction by ZEFSAII (Michael W. Deem and Ramdas Pophale) SiO2 
 PCOD9285305
Probable space group: C 2/C
;
_chemical_formula_sum "Si O2"
_cell_formula_units_Z 52
_cell_length_a 15.774144
_cell_length_b 17.137167
_cell_length_c 10.762709
_cell_angle_alpha 90.000000
_cell_angle_beta 118.931461
_cell_angle_gamma 90.000000
_cell_volume 2546.321597
_symmetry_space_group_name_H-M "C 2/C"
_symmetry_group_IT_number 15
_symmetry_cell_setting 'monoclinic'
loop_
_space_group_symop_operation_xyz
x,y,z
-x,y,1/2-z
-x,-y,-z
x,-y,1/2+z
1/2+x,1/2+y,z
1/2-x,1/2+y,1/2-z
1/2-x,1/2-y,-z
1/2+x,1/2-y,1/2+z
loop_
_atom_site_type_symbol
_atom_site_label
_atom_site_fract_x
_atom_site_fract_y
_atom_site_fract_z
Si Si1 0.689885 0.361856 0.484218
Si Si2 0.818635 0.289461 0.373038
Si Si3 0.273233 0.978367 0.096185
Si Si4 0.500000 0.294967 0.250000
Si Si5 0.890803 0.531660 0.424776
Si Si6 0.690600 0.692357 0.546215
Si Si7 0.032444 0.703221 0.020079
O O1 0.783992 0.335355 0.471479
O O2 0.678449 0.301138 0.588109
O O3 0.701379 0.448936 0.536019
O O4 0.594587 0.347180 0.335616
O O5 0.735936 0.298501 0.214448
O O6 0.923345 0.316063 0.398219
O O7 0.213776 0.897970 0.037354
O O8 0.330813 0.992310 0.267823
O O9 0.343780 0.983758 0.026352
O O10 0.515463 0.239493 0.143498
O O11 0.902125 0.625951 0.422533
O O12 0.000000 0.500000 0.500000
O O13 0.750000 0.750000 0.500000
O O14 0.583555 0.729102 0.475961
#
# Coordination Sequence:
#
# PCOD9285305 Si02
#       7
#     8   8   8   4   8   8   8
#     4  10  21  41  69  99 127 165 225 279 332 388
#     4  10  22  41  69  97 128 168 217 278 331 394
#     4  12  26  42  67  96 138 182 217 282 331 396
#     4  10  22  40  74  96 128 170 226 282 324 400
#     4  12  26  41  67 103 137 170 223 281 344 398
#     4  12  24  44  61  91 142 179 215 262 333 409
#     4  11  23  42  69  99 127 177 220 271 341 403
#
# _framework density 20.421616
#
# number of rings (size 3 to 8) (size 9 to 14) (size 15 to 20)
#    0.000    0.923    3.077    4.154    6.462    0.615 
#    0.000    4.615    0.000    0.000    0.000    0.000 
#    0.000    0.000    0.000    0.000    0.000    0.000 
#
# Total GULP energy -145211.630885 kJ/mol
# GULP energy per Si atom -5585.062726 kJ/mol
# Density = 2.037514 g / cm^3
# Si number density = 20.421616 Si / 1000 Ang^3
#
#
#
# Elastic Constant Matrix: (Units=GPa)
#
#
# Indices 1 2 3 4 5 6 
#
# 1 84.0714 23.1523 4.3032 0.0000 -1.1610 0.0000
# 2 23.1523 161.5855 11.9340 0.0000 4.9171 0.0000
# 3 4.3032 11.9340 40.5527 0.0000 -3.0954 0.0000
# 4 0.0000 0.0000 0.0000 20.4062 0.0000 7.3365
# 5 -1.1610 4.9171 -3.0954 0.0000 33.8954 0.0000
# 6 0.0000 0.0000 0.0000 7.3365 0.0000 25.9717
#
#
#
# Elastic Compliance Matrix: (Units=1/GPa)
#
#
# Indices 1 2 3 4 5 6 
#
# 1 0.012422 -0.001742 -0.000759 0.000000 0.000609 0.000000
# 2 -0.001742 0.006611 -0.001851 0.000000 -0.001188 0.000000
# 3 -0.000759 -0.001851 0.025481 0.000000 0.002570 0.000000
# 4 0.000000 0.000000 0.000000 0.054544 0.000000 -0.015408
# 5 0.000609 -0.001188 0.002570 0.000000 0.029930 0.000000
# 6 0.000000 0.000000 0.000000 -0.015408 0.000000 0.042856
#
#
# Mechanical properties :
#
#
# Convention : Reuss Voigt Hill
#
# Bulk Modulus (GPa) = 27.92627 40.55428 34.24028
# Shear Modulus (GPa) = 25.97603 32.50934 29.24268
#
# Velocity S-wave (km/s) = 3.57036 3.99420 3.78821
# Velocity P-wave (km/s) = 5.54087 6.41663 5.99476
#
# Compressibility (1/GPa) = 0.03580857
#
# Stress axis : x y z
#
# Youngs Moduli (GPa) = 80.50418 151.25865 39.24526
#
# Poissons Ratio (x) = 0.26354 0.02978
# Poissons Ratio (y) = 0.14026 0.07266
# Poissons Ratio (z) = 0.06110 0.28003
#
# Static dielectric constant tensor:
#      x y z
#    x 1.771340 0.000000 -0.035890 
#    y 0.000000 1.788070 0.000000 
#    z -0.035890 0.000000 1.829010 
# 
# From -- ./inp_files/105471.got.cif
#   From: 2010.05.17/outbox.cif.g08.bks.cpg/sg15_53_cif.got.tgz:105471.got - 2010.06.03 18:47:42.
