data_PCOD9285588
_publ_section_title
;
Structure prediction by ZEFSAII (Michael W. Deem and Ramdas Pophale) SiO2 
 PCOD9285588
Probable space group: C 2/C
;
_chemical_formula_sum "Si O2"
_cell_formula_units_Z 52
_cell_length_a 21.703186
_cell_length_b 14.250845
_cell_length_c 7.895748
_cell_angle_alpha 90.000000
_cell_angle_beta 96.942461
_cell_angle_gamma 90.000000
_cell_volume 2424.160813
_symmetry_space_group_name_H-M "C 2/C"
_symmetry_group_IT_number 15
_symmetry_cell_setting 'monoclinic'
loop_
_space_group_symop_operation_xyz
x,y,z
-x,y,1/2-z
-x,-y,-z
x,-y,1/2+z
1/2+x,1/2+y,z
1/2-x,1/2+y,1/2-z
1/2-x,1/2-y,-z
1/2+x,1/2-y,1/2+z
loop_
_atom_site_type_symbol
_atom_site_label
_atom_site_fract_x
_atom_site_fract_y
_atom_site_fract_z
Si Si1 0.500000 0.265685 0.750000
Si Si2 0.856623 0.803981 0.323008
Si Si3 0.869460 0.529055 0.877386
Si Si4 0.572976 0.137484 0.305028
Si Si5 0.769244 0.668794 0.877200
Si Si6 0.481008 0.603234 0.937423
Si Si7 0.633953 0.184051 0.857418
O O1 0.510845 0.327785 0.585808
O O2 0.562234 0.209842 0.811854
O O3 0.890679 0.736183 0.197217
O O4 0.794900 0.852762 0.238447
O O5 0.907480 0.875353 0.413444
O O6 0.840376 0.731163 0.466638
O O7 0.897320 0.428601 0.833800
O O8 0.804163 0.570351 0.933776
O O9 0.863353 0.573607 0.682904
O O10 0.917429 0.587127 0.010804
O O11 0.500000 0.150504 0.250000
O O12 0.820838 0.718486 0.776398
O O13 0.750000 0.750000 0.000000
O O14 0.500000 0.618162 0.750000
O O15 0.500000 0.500000 0.000000
#
# Coordination Sequence:
#
# PCOD9285588 Si02
#       7
#     4   8   8   8   8   8   8
#     4  10  22  40  66 102 126 178 218 284 354 392
#     4  11  22  41  68  96 130 184 224 276 345 407
#     4  10  24  39  62  93 136 174 219 280 330 408
#     4  12  24  39  64 100 135 177 221 278 343 409
#     4  10  21  42  64  93 127 176 229 269 331 410
#     4  11  24  42  67  96 135 171 227 287 342 407
#     4   9  22  37  67  93 133 168 225 276 330 410
#
# _framework density 21.450723
#
# number of rings (size 3 to 8) (size 9 to 14) (size 15 to 20)
#    0.923    0.615    2.308    2.308    9.692    0.000 
#    0.000    3.077    0.000    0.000    0.000    0.000 
#    0.000    0.000    0.000    0.000    0.000    0.000 
#
# Total GULP energy -144756.747423 kJ/mol
# GULP energy per Si atom -5567.567209 kJ/mol
# Density = 2.140190 g / cm^3
# Si number density = 21.450723 Si / 1000 Ang^3
#
#
#
# Elastic Constant Matrix: (Units=GPa)
#
#
# Indices 1 2 3 4 5 6 
#
# 1 105.5312 35.7383 9.3184 0.0000 16.6401 0.0000
# 2 35.7383 83.5253 8.7049 0.0000 2.0237 0.0000
# 3 9.3184 8.7049 69.1305 0.0000 -0.7662 0.0000
# 4 0.0000 0.0000 0.0000 9.0177 0.0000 6.9976
# 5 16.6401 2.0237 -0.7662 0.0000 49.6463 0.0000
# 6 0.0000 0.0000 0.0000 6.9976 0.0000 24.4250
#
#
#
# Elastic Compliance Matrix: (Units=1/GPa)
#
#
# Indices 1 2 3 4 5 6 
#
# 1 0.011805 -0.004853 -0.001022 0.000000 -0.003775 0.000000
# 2 -0.004853 0.014140 -0.001115 0.000000 0.001033 0.000000
# 3 -0.001022 -0.001115 0.014750 0.000000 0.000616 0.000000
# 4 0.000000 0.000000 0.000000 0.142594 0.000000 -0.040852
# 5 -0.003775 0.001033 0.000616 0.000000 0.021375 0.000000
# 6 0.000000 0.000000 0.000000 -0.040852 0.000000 0.052645
#
#
# Mechanical properties :
#
#
# Convention : Reuss Voigt Hill
#
# Bulk Modulus (GPa) = 37.43151 40.63446 39.03299
# Shear Modulus (GPa) = 17.84475 30.24615 24.04545
#
# Velocity S-wave (km/s) = 2.88739 3.75911 3.35171
# Velocity P-wave (km/s) = 5.34826 6.15024 5.76322
#
# Compressibility (1/GPa) = 0.02671546
#
# Stress axis : x y z
#
# Youngs Moduli (GPa) = 84.71158 70.72105 67.79493
#
# Poissons Ratio (x) = 0.34321 0.06928
# Poissons Ratio (y) = 0.41110 0.07559
# Poissons Ratio (z) = 0.08657 0.07885
#
# Static dielectric constant tensor:
#      x y z
#    x 1.757640 0.000000 -0.023610 
#    y 0.000000 1.866620 0.000000 
#    z -0.023610 0.000000 1.932050 
# 
# From -- ./inp_files/55380.got.cif
#   From: 2010.05.17/outbox.cif.g08.bks.cpg/sg15_28_cif.got.tgz:55380.got - 2010.06.03 18:47:42.
