data_PCOD9285360
_publ_section_title
;
Structure prediction by ZEFSAII (Michael W. Deem and Ramdas Pophale) SiO2 
 PCOD9285360
Probable space group: C 2/C
;
_chemical_formula_sum "Si O2"
_cell_formula_units_Z 40
_cell_length_a 8.569918
_cell_length_b 12.922349
_cell_length_c 17.532733
_cell_angle_alpha 90.000000
_cell_angle_beta 47.061833
_cell_angle_gamma 90.000000
_cell_volume 1421.450694
_symmetry_space_group_name_H-M "C 2/C"
_symmetry_group_IT_number 15
_symmetry_cell_setting 'monoclinic'
loop_
_space_group_symop_operation_xyz
x,y,z
-x,y,1/2-z
-x,-y,-z
x,-y,1/2+z
1/2+x,1/2+y,z
1/2-x,1/2+y,1/2-z
1/2-x,1/2-y,-z
1/2+x,1/2-y,1/2+z
loop_
_atom_site_type_symbol
_atom_site_label
_atom_site_fract_x
_atom_site_fract_y
_atom_site_fract_z
Si Si1 0.238532 0.187939 0.137595
Si Si2 0.753822 0.837147 0.356291
Si Si3 0.610823 0.869663 0.631017
Si Si4 0.723328 0.095925 0.702446
Si Si5 0.829956 0.988278 0.945550
O O1 0.415604 0.143463 0.136646
O O2 0.284217 0.310043 0.126433
O O3 0.000000 0.170451 0.250000
O O4 0.232554 0.126798 0.059465
O O5 0.737042 0.732737 0.411246
O O6 0.657382 0.849269 0.305090
O O7 0.719823 0.936746 0.419408
O O8 0.000000 0.843236 0.250000
O O9 0.500000 0.865950 0.750000
O O10 0.748849 0.964536 0.552014
O O11 0.500000 0.053174 0.750000
O O12 0.917715 0.015903 0.646443
#
# Coordination Sequence:
#
# PCOD9285360 Si02
#       5
#     8   8   8   8   8
#     4  11  22  40  66 103 145 189 240 303 375 436
#     4   9  17  37  66  98 138 186 230 292 366 429
#     4  11  21  42  68 102 147 195 242 310 371 426
#     4  10  21  41  71 105 149 192 234 308 376 436
#     4  11  22  40  72 108 140 194 256 293 365 463
#
# _framework density 28.140263999999998
#
# number of rings (size 3 to 8) (size 9 to 14) (size 15 to 20)
#    0.000    1.600    6.000    3.000    0.000    0.000 
#    0.000    8.000    0.000    0.000    0.000    0.000 
#    0.000    0.000    0.000    0.000    0.000    0.000 
#
# Total GULP energy -111994.892922 kJ/mol
# GULP energy per Si atom -5599.744646 kJ/mol
# Density = 2.807622 g / cm^3
# Si number density = 28.140264 Si / 1000 Ang^3
#
#
#
# Elastic Constant Matrix: (Units=GPa)
#
#
# Indices 1 2 3 4 5 6 
#
# 1 172.7635 37.1779 32.3285 0.0001 -1.6122 -0.0001
# 2 37.1779 142.6101 14.4049 0.0001 21.1954 0.0000
# 3 32.3285 14.4049 114.4318 0.0002 0.1664 -0.0002
# 4 0.0001 0.0001 0.0002 27.7733 0.0000 38.0873
# 5 -1.6122 21.1954 0.1664 0.0000 46.5789 0.0000
# 6 -0.0001 0.0000 -0.0002 38.0873 0.0000 0.4497
#
#
#
# Elastic Compliance Matrix: (Units=1/GPa)
#
#
# Indices 1 2 3 4 5 6 
#
# 1 0.006459 -0.001667 -0.001616 0.000000 0.000988 0.000000
# 2 -0.001667 0.008054 -0.000537 0.000000 -0.003721 0.000000
# 3 -0.001616 -0.000537 0.009263 0.000000 0.000156 0.000000
# 4 0.000000 0.000000 0.000000 -0.000313 0.000000 0.026483
# 5 0.000988 -0.003721 0.000156 0.000000 0.023196 0.000000
# 6 0.000000 0.000000 0.000000 0.026483 0.000000 -0.019312
#
#
# Mechanical properties :
#
#
# Convention : Reuss Voigt Hill
#
# Bulk Modulus (GPa) = 61.98208 66.40311 64.19259
# Shear Modulus (GPa) = 123.86426 38.01998 80.94212
#
# Velocity S-wave (km/s) = 6.64171 3.67970 5.36901
# Velocity P-wave (km/s) = 8.99390 6.45771 7.82919
#
# Compressibility (1/GPa) = 0.01613370
#
# Stress axis : x y z
#
# Youngs Moduli (GPa) = 154.82934 124.16066 107.95805
#
# Poissons Ratio (x) = 0.20702 0.17448
# Poissons Ratio (y) = 0.25816 0.05802
# Poissons Ratio (z) = 0.25024 0.06672
#
# Static dielectric constant tensor:
#      x y z
#    x 2.314330 0.000000 0.288580 
#    y 0.000000 2.281070 0.000000 
#    z 0.288580 0.000000 3.171650 
# 
# From -- ./inp_files/133260.got.cif
#   From: 2010.05.17/outbox.cif.g08.bks.cpg/sg15_67_cif.got.tgz:133260.got - 2010.06.03 18:47:42.
