data_PCOD9285815
_publ_section_title
;
Structure prediction by ZEFSAII (Michael W. Deem and Ramdas Pophale) SiO2 
 PCOD9285815
Probable space group: C 2/C
;
_chemical_formula_sum "Si O2"
_cell_formula_units_Z 60
_cell_length_a 11.497092
_cell_length_b 20.448560
_cell_length_c 18.741140
_cell_angle_alpha 90.000000
_cell_angle_beta 138.487030
_cell_angle_gamma 90.000000
_cell_volume 2920.265975
_symmetry_space_group_name_H-M "C 2/C"
_symmetry_group_IT_number 15
_symmetry_cell_setting 'monoclinic'
loop_
_space_group_symop_operation_xyz
x,y,z
-x,y,1/2-z
-x,-y,-z
x,-y,1/2+z
1/2+x,1/2+y,z
1/2-x,1/2+y,1/2-z
1/2-x,1/2-y,-z
1/2+x,1/2-y,1/2+z
loop_
_atom_site_type_symbol
_atom_site_label
_atom_site_fract_x
_atom_site_fract_y
_atom_site_fract_z
Si Si1 0.205803 0.275103 0.337281
Si Si2 0.521046 0.599790 0.838029
Si Si3 0.272099 0.274119 0.208703
Si Si4 0.408725 0.161671 0.492173
Si Si5 0.500000 0.833757 0.750000
Si Si6 0.596004 0.049082 0.901440
Si Si7 0.422876 0.096679 0.064986
Si Si8 0.771878 0.077933 0.845638
O O1 0.245554 0.248989 0.276500
O O2 0.276064 0.221549 0.423598
O O3 0.292393 0.346783 0.380520
O O4 0.000000 0.285504 0.250000
O O5 0.500000 0.567203 0.750000
O O6 0.416134 0.668189 0.781226
O O7 0.425154 0.563108 0.859707
O O8 0.722660 0.612167 0.949889
O O9 0.338096 0.215561 0.189792
O O10 0.093421 0.307318 0.101458
O O11 0.349279 0.106968 0.520783
O O12 0.449623 0.127244 0.435505
O O13 0.534968 0.875761 0.836917
O O14 0.735025 0.038418 0.901094
O O15 0.410683 0.071528 0.781873
O O16 0.564636 0.981545 0.927127
#
# Coordination Sequence:
#
# PCOD9285815 Si02
#       8
#     8   8   8   8   4   8   8   8
#     4  11  22  41  66  99 128 164 220 277 335 396
#     4  11  21  41  67  99 127 172 229 277 334 392
#     4  11  22  39  67  95 131 165 211 288 342 391
#     4  12  23  42  71  95 129 174 222 276 339 392
#     4  12  24  40  60 104 136 162 220 278 342 390
#     4  11  22  44  64  90 133 183 224 257 331 407
#     4  12  26  41  66  97 135 183 221 272 328 403
#     4  10  21  42  67  92 130 180 219 270 338 400
#
# _framework density 20.546074000000001
#
# number of rings (size 3 to 8) (size 9 to 14) (size 15 to 20)
#    0.000    0.800    7.333    1.200    3.733    3.733 
#    0.000    2.000    0.000    0.000    0.000    0.000 
#    0.000    0.000    0.000    0.000    0.000    0.000 
#
# Total GULP energy -167603.596910 kJ/mol
# GULP energy per Si atom -5586.786564 kJ/mol
# Density = 2.049931 g / cm^3
# Si number density = 20.546074 Si / 1000 Ang^3
#
#
#
# Elastic Constant Matrix: (Units=GPa)
#
#
# Indices 1 2 3 4 5 6 
#
# 1 84.3576 -14.8642 2.8176 0.0000 -11.6504 0.0001
# 2 -14.8642 71.5001 18.3479 -0.0002 -2.3433 -0.0002
# 3 2.8176 18.3479 61.5016 -0.0004 -16.3745 -0.0005
# 4 0.0000 -0.0002 -0.0004 -9.2347 -0.0001 -35.3130
# 5 -11.6504 -2.3433 -16.3745 -0.0001 24.0221 -0.0001
# 6 0.0001 -0.0002 -0.0005 -35.3130 -0.0001 -13.1432
#
#
#
# Elastic Compliance Matrix: (Units=1/GPa)
#
#
# Indices 1 2 3 4 5 6 
#
# 1 0.013320 0.002898 0.000391 0.000000 0.007009 0.000000
# 2 0.002898 0.015852 -0.004980 0.000000 -0.000442 0.000000
# 3 0.000391 -0.004980 0.021562 0.000000 0.014401 0.000000
# 4 0.000000 0.000000 0.000000 0.011676 0.000000 -0.031372
# 5 0.007009 -0.000442 0.014401 0.000000 0.054801 0.000000
# 6 0.000000 0.000000 0.000000 -0.031372 0.000000 0.008204
#
#
# Mechanical properties :
#
#
# Convention : Reuss Voigt Hill
#
# Bulk Modulus (GPa) = 21.11769 25.55133 23.33451
# Shear Modulus (GPa) = 34.58303 14.39937 24.49120
#
# Velocity S-wave (km/s) = 4.10713 2.65020 3.45630
# Velocity P-wave (km/s) = 5.72642 4.67203 5.22588
#
# Compressibility (1/GPa) = 0.04735366
#
# Stress axis : x y z
#
# Youngs Moduli (GPa) = 75.07511 63.08387 46.37857
#
# Poissons Ratio (x) = -0.18284 -0.01815
# Poissons Ratio (y) = -0.21760 0.23095
# Poissons Ratio (z) = -0.02938 0.31414
#
# Static dielectric constant tensor:
#      x y z
#    x 1.783400 0.000000 -0.034860 
#    y 0.000000 1.704400 0.000000 
#    z -0.034860 0.000000 1.717020 
# 
# From -- ./inp_files/200543.got.cif
#   From: 2010.05.17/outbox.cif.g08.bks.cpg/sg15_101_cif.got.tgz:200543.got - 2010.06.03 18:47:42.
