data_PCOD9285868
_publ_section_title
;
Structure prediction by ZEFSAII (Michael W. Deem and Ramdas Pophale) SiO2 
 PCOD9285868
Probable space group: C 2/C
;
_chemical_formula_sum "Si O2"
_cell_formula_units_Z 40
_cell_length_a 6.563939
_cell_length_b 18.237088
_cell_length_c 19.584480
_cell_angle_alpha 90.000000
_cell_angle_beta 133.717767
_cell_angle_gamma 90.000000
_cell_volume 1694.423250
_symmetry_space_group_name_H-M "C 2/C"
_symmetry_group_IT_number 15
_symmetry_cell_setting 'monoclinic'
loop_
_space_group_symop_operation_xyz
x,y,z
-x,y,1/2-z
-x,-y,-z
x,-y,1/2+z
1/2+x,1/2+y,z
1/2-x,1/2+y,1/2-z
1/2-x,1/2-y,-z
1/2+x,1/2-y,1/2+z
loop_
_atom_site_type_symbol
_atom_site_label
_atom_site_fract_x
_atom_site_fract_y
_atom_site_fract_z
Si Si1 0.253289 0.964997 0.859610
Si Si2 0.677829 0.636452 0.858429
Si Si3 0.399275 0.125175 0.150332
Si Si4 0.200572 0.238186 0.650295
Si Si5 0.725181 0.661375 0.461928
O O1 0.535517 0.944115 0.883191
O O2 0.248428 0.913491 0.923616
O O3 0.000000 0.942783 0.750000
O O4 0.196042 0.048633 0.865361
O O5 0.500000 0.657204 0.750000
O O6 0.526219 0.674207 0.888133
O O7 0.998421 0.662309 0.927739
O O8 0.500000 0.106563 0.250000
O O9 0.590313 0.192537 0.168864
O O10 0.081179 0.154512 0.076322
O O11 0.500000 0.213964 0.750000
O O12 0.236978 0.273352 0.584162
#
# Coordination Sequence:
#
# PCOD9285868 Si02
#       5
#     8   8   8   8   8
#     4  10  21  42  67  99 136 174 223 281 336 404
#     4  11  26  45  60  99 146 173 219 285 349 399
#     4  11  19  39  74  99 126 172 238 277 326 409
#     4  11  23  44  69  97 131 177 228 285 335 402
#     4  11  22  43  74  93 127 186 232 272 330 414
#
# _framework density 23.606853999999998
#
# number of rings (size 3 to 8) (size 9 to 14) (size 15 to 20)
#    0.000    1.200    4.000    3.000    0.000    1.600 
#   14.400    0.000    0.000    0.000    0.000    0.000 
#    0.000    0.000    0.000    0.000    0.000    0.000 
#
# Total GULP energy -112003.340807 kJ/mol
# GULP energy per Si atom -5600.167040 kJ/mol
# Density = 2.355312 g / cm^3
# Si number density = 23.606854 Si / 1000 Ang^3
#
#
#
# Elastic Constant Matrix: (Units=GPa)
#
#
# Indices 1 2 3 4 5 6 
#
# 1 80.0569 52.5449 10.2986 0.0000 28.1118 0.0000
# 2 52.5449 119.6404 14.9143 0.0000 0.0748 0.0000
# 3 10.2986 14.9143 112.0146 0.0000 20.4496 0.0000
# 4 0.0000 0.0000 0.0000 29.0389 0.0000 13.8897
# 5 28.1118 0.0748 20.4496 0.0000 40.1951 0.0000
# 6 0.0000 0.0000 0.0000 13.8897 0.0000 42.9960
#
#
#
# Elastic Compliance Matrix: (Units=1/GPa)
#
#
# Indices 1 2 3 4 5 6 
#
# 1 0.027584 -0.012465 0.002912 0.000000 -0.020750 0.000000
# 2 -0.012465 0.014146 -0.002562 0.000000 0.009995 0.000000
# 3 0.002912 -0.002562 0.010331 0.000000 -0.007288 0.000000
# 4 0.000000 0.000000 0.000000 0.040730 0.000000 -0.013158
# 5 -0.020750 0.009995 -0.007288 0.000000 0.043080 0.000000
# 6 0.000000 0.000000 0.000000 -0.013158 0.000000 0.027509
#
#
# Mechanical properties :
#
#
# Convention : Reuss Voigt Hill
#
# Bulk Modulus (GPa) = 35.93112 51.91416 43.92264
# Shear Modulus (GPa) = 25.39535 38.04294 31.71914
#
# Velocity S-wave (km/s) = 3.28344 4.01873 3.66955
# Velocity P-wave (km/s) = 5.44319 6.60094 6.04983
#
# Compressibility (1/GPa) = 0.02783103
#
# Stress axis : x y z
#
# Youngs Moduli (GPa) = 36.25311 70.69215 96.79310
#
# Poissons Ratio (x) = 0.88115 -0.28183
# Poissons Ratio (y) = 0.45188 0.24800
# Poissons Ratio (z) = -0.10556 0.18112
#
# Static dielectric constant tensor:
#      x y z
#    x 1.911590 0.000000 -0.019700 
#    y 0.000000 1.891630 0.000000 
#    z -0.019700 0.000000 1.913340 
# 
# From -- ./inp_files/261475.got.cif
#   From: 2010.05.17/outbox.cif.g08.bks.cpg/sg15_131_cif.got.tgz:261475.got - 2010.06.03 18:47:42.
