data_PCOD9285465
_publ_section_title
;
Structure prediction by ZEFSAII (Michael W. Deem and Ramdas Pophale) SiO2 
 PCOD9285465
Probable space group: C 2/C
;
_chemical_formula_sum "Si O2"
_cell_formula_units_Z 48
_cell_length_a 19.670314
_cell_length_b 12.799676
_cell_length_c 12.996535
_cell_angle_alpha 90.000000
_cell_angle_beta 50.283853
_cell_angle_gamma 90.000000
_cell_volume 2517.028538
_symmetry_space_group_name_H-M "C 2/C"
_symmetry_group_IT_number 15
_symmetry_cell_setting 'monoclinic'
loop_
_space_group_symop_operation_xyz
x,y,z
-x,y,1/2-z
-x,-y,-z
x,-y,1/2+z
1/2+x,1/2+y,z
1/2-x,1/2+y,1/2-z
1/2-x,1/2-y,-z
1/2+x,1/2-y,1/2+z
loop_
_atom_site_type_symbol
_atom_site_label
_atom_site_fract_x
_atom_site_fract_y
_atom_site_fract_z
Si Si1 0.078066 0.582135 0.905916
Si Si2 0.226172 0.524617 0.127209
Si Si3 0.096092 0.117149 0.527898
Si Si4 0.021046 0.194032 0.390350
Si Si5 0.381932 0.403655 0.896145
Si Si6 0.402249 0.160627 0.385882
O O1 0.158239 0.529811 0.768476
O O2 0.043316 0.684032 0.879250
O O3 0.108255 0.620884 0.988173
O O4 0.000000 0.500000 0.000000
O O5 0.304804 0.411115 0.606477
O O6 0.171280 0.605664 0.111632
O O7 0.279742 0.436317 0.009574
O O8 0.035162 0.144739 0.489863
O O9 0.102165 0.214165 0.599869
O O10 0.072558 0.012489 0.611604
O O11 0.086799 0.138979 0.244129
O O12 0.923005 0.176469 0.439723
O O13 0.500000 0.132769 0.250000
#
# Coordination Sequence:
#
# PCOD9285465 Si02
#       6
#     8   8   8   8   8   8
#     4  11  24  44  62  90 125 171 211 261 322 383
#     4  10  23  40  63  96 125 164 219 258 321 365
#     4   9  22  39  62  95 127 163 218 255 321 376
#     4  10  21  42  61  94 129 167 213 255 329 387
#     4   9  22  39  66  94 128 166 203 271 316 375
#     4  11  22  40  65  91 129 171 212 264 312 388
#
# _framework density 19.070105999999999
#
# number of rings (size 3 to 8) (size 9 to 14) (size 15 to 20)
#    1.000    1.000    1.667    1.000    4.667    3.333 
#    6.000    0.000    0.000    0.000    0.000    0.000 
#    0.000    0.000    0.000    0.000    0.000    0.000 
#
# Total GULP energy -133688.838175 kJ/mol
# GULP energy per Si atom -5570.368257 kJ/mol
# Density = 1.902670 g / cm^3
# Si number density = 19.070106 Si / 1000 Ang^3
#
#
#
# Elastic Constant Matrix: (Units=GPa)
#
#
# Indices 1 2 3 4 5 6 
#
# 1 54.0546 23.9536 21.6788 0.0000 -1.6397 0.0000
# 2 23.9536 78.2600 41.4475 0.0000 8.9155 0.0000
# 3 21.6788 41.4475 90.3938 0.0000 -9.3448 0.0000
# 4 0.0000 0.0000 0.0000 30.8473 0.0000 -3.5289
# 5 -1.6397 8.9155 -9.3448 0.0000 30.5512 0.0000
# 6 0.0000 0.0000 0.0000 -3.5289 0.0000 21.3059
#
#
#
# Elastic Compliance Matrix: (Units=1/GPa)
#
#
# Indices 1 2 3 4 5 6 
#
# 1 0.022074 -0.005685 -0.002471 0.000000 0.002088 0.000000
# 2 -0.005685 0.020203 -0.008820 0.000000 -0.008899 0.000000
# 3 -0.002471 -0.008820 0.016473 0.000000 0.007480 0.000000
# 4 0.000000 0.000000 0.000000 0.033044 0.000000 0.005473
# 5 0.002088 -0.008899 0.007480 0.000000 0.037729 0.000000
# 6 0.000000 0.000000 0.000000 0.005473 0.000000 0.047842
#
#
# Mechanical properties :
#
#
# Convention : Reuss Voigt Hill
#
# Bulk Modulus (GPa) = 40.32829 44.09645 42.21237
# Shear Modulus (GPa) = 22.77056 25.58279 24.17667
#
# Velocity S-wave (km/s) = 3.45924 3.66664 3.56445
# Velocity P-wave (km/s) = 6.09495 6.41087 6.25490
#
# Compressibility (1/GPa) = 0.02479649
#
# Stress axis : x y z
#
# Youngs Moduli (GPa) = 45.30301 49.49770 60.70651
#
# Poissons Ratio (x) = 0.28141 0.15001
# Poissons Ratio (y) = 0.25756 0.53543
# Poissons Ratio (z) = 0.11195 0.43656
#
# Static dielectric constant tensor:
#      x y z
#    x 1.666990 0.000000 -0.016800 
#    y 0.000000 1.709730 0.000000 
#    z -0.016800 0.000000 1.652380 
# 
# From -- ./inp_files/110864.got.cif
#   From: 2010.05.17/outbox.cif.g08.bks.cpg/sg15_56_cif.got.tgz:110864.got - 2010.06.03 18:47:42.
