data_PCOD9285933
_publ_section_title
;
Structure prediction by ZEFSAII (Michael W. Deem and Ramdas Pophale) SiO2 
 PCOD9285933
Probable space group: C 2/C
;
_chemical_formula_sum "Si O2"
_cell_formula_units_Z 32
_cell_length_a 5.120484
_cell_length_b 21.193085
_cell_length_c 14.168645
_cell_angle_alpha 90.000000
_cell_angle_beta 66.732039
_cell_angle_gamma 90.000000
_cell_volume 1412.510965
_symmetry_space_group_name_H-M "C 2/C"
_symmetry_group_IT_number 15
_symmetry_cell_setting 'monoclinic'
loop_
_space_group_symop_operation_xyz
x,y,z
-x,y,1/2-z
-x,-y,-z
x,-y,1/2+z
1/2+x,1/2+y,z
1/2-x,1/2+y,1/2-z
1/2-x,1/2-y,-z
1/2+x,1/2-y,1/2+z
loop_
_atom_site_type_symbol
_atom_site_label
_atom_site_fract_x
_atom_site_fract_y
_atom_site_fract_z
Si Si1 0.482652 0.849242 0.142646
Si Si2 0.000000 0.943358 0.750000
Si Si3 0.500000 0.971346 0.250000
Si Si4 0.115596 0.745600 0.120147
Si Si5 0.360880 0.331527 0.900603
O O1 0.500000 0.827544 0.250000
O O2 0.195375 0.814372 0.149175
O O3 0.497462 0.924228 0.159600
O O4 0.713072 0.834014 0.026416
O O5 0.774600 0.985680 0.725750
O O6 0.850942 0.897778 0.848182
O O7 0.316328 0.693377 0.140452
O O8 0.810428 0.717887 0.140055
O O9 0.250000 0.750000 0.000000
#
# Coordination Sequence:
#
# PCOD9285933 Si02
#       5
#     8   4   4   8   8
#     4   9  22  45  67 101 127 173 219 278 329 388
#     4  12  26  45  62  97 136 182 230 260 328 388
#     4  10  26  43  66  97 128 184 228 270 320 380
#     4  10  21  42  68  97 131 164 217 270 345 397
#     4  11  24  43  66  98 134 173 214 274 333 402
#
# _framework density 22.654692000000001
#
# number of rings (size 3 to 8) (size 9 to 14) (size 15 to 20)
#    0.750    1.000    0.000    4.500    1.750    8.000 
#    4.500    0.000    0.000    0.000    0.000    0.000 
#    0.000    0.000    0.000    0.000    0.000    0.000 
#
# Total GULP energy -89114.599051 kJ/mol
# GULP energy per Si atom -5569.662441 kJ/mol
# Density = 2.260313 g / cm^3
# Si number density = 22.654692 Si / 1000 Ang^3
#
#
#
# Elastic Constant Matrix: (Units=GPa)
#
#
# Indices 1 2 3 4 5 6 
#
# 1 93.0404 53.4464 17.6634 0.0000 23.1175 0.0000
# 2 53.4464 149.5539 39.7595 0.0000 11.8281 0.0000
# 3 17.6634 39.7595 180.9033 0.0000 -0.7008 0.0000
# 4 0.0000 0.0000 0.0000 21.2824 0.0000 6.2077
# 5 23.1175 11.8281 -0.7008 0.0000 30.7478 0.0000
# 6 0.0000 0.0000 0.0000 6.2077 0.0000 109.6348
#
#
#
# Elastic Compliance Matrix: (Units=1/GPa)
#
#
# Indices 1 2 3 4 5 6 
#
# 1 0.016190 -0.004820 -0.000562 0.000000 -0.010331 0.000000
# 2 -0.004820 0.008780 -0.001458 0.000000 0.000213 0.000000
# 3 -0.000562 -0.001458 0.005907 0.000000 0.001118 0.000000
# 4 0.000000 0.000000 0.000000 0.047776 0.000000 -0.002705
# 5 -0.010331 0.000213 0.001118 0.000000 0.040234 0.000000
# 6 0.000000 0.000000 0.000000 -0.002705 0.000000 0.009274
#
#
# Mechanical properties :
#
#
# Convention : Reuss Voigt Hill
#
# Bulk Modulus (GPa) = 58.14391 71.69292 64.91842
# Shear Modulus (GPa) = 33.88149 53.17490 43.52820
#
# Velocity S-wave (km/s) = 3.87144 4.85004 4.38811
# Velocity P-wave (km/s) = 6.76056 7.94220 7.37508
#
# Compressibility (1/GPa) = 0.01719870
#
# Stress axis : x y z
#
# Youngs Moduli (GPa) = 61.76590 113.89828 169.27704
#
# Poissons Ratio (x) = 0.54894 0.09506
# Poissons Ratio (y) = 0.29768 0.24685
# Poissons Ratio (z) = 0.03469 0.16609
#
# Static dielectric constant tensor:
#      x y z
#    x 1.792640 0.000000 -0.017340 
#    y 0.000000 1.843380 0.000000 
#    z -0.017340 0.000000 1.872100 
# 
# From -- ./inp_files/128490.got.cif
#   From: 2010.05.17/outbox.cif.g08.bks.cpg/sg15_65_cif.got.tgz:128490.got - 2010.06.03 18:47:42.
