data_PCOD9285944
_publ_section_title
;
Structure prediction by ZEFSAII (Michael W. Deem and Ramdas Pophale) SiO2 
 PCOD9285944
Probable space group: C 2/C
;
_chemical_formula_sum "Si O2"
_cell_formula_units_Z 32
_cell_length_a 9.650122
_cell_length_b 11.074571
_cell_length_c 12.638028
_cell_angle_alpha 90.000000
_cell_angle_beta 91.307045
_cell_angle_gamma 90.000000
_cell_volume 1350.286781
_symmetry_space_group_name_H-M "C 2/C"
_symmetry_group_IT_number 15
_symmetry_cell_setting 'monoclinic'
loop_
_space_group_symop_operation_xyz
x,y,z
-x,y,1/2-z
-x,-y,-z
x,-y,1/2+z
1/2+x,1/2+y,z
1/2-x,1/2+y,1/2-z
1/2-x,1/2-y,-z
1/2+x,1/2-y,1/2+z
loop_
_atom_site_type_symbol
_atom_site_label
_atom_site_fract_x
_atom_site_fract_y
_atom_site_fract_z
Si Si1 0.129872 0.886097 0.389607
Si Si2 0.351320 0.050956 0.466835
Si Si3 0.862334 0.048235 0.386336
Si Si4 0.852973 0.337343 0.766311
O O1 0.117112 0.856395 0.515757
O O2 0.127864 0.781172 0.305176
O O3 0.277439 0.952564 0.389054
O O4 0.005394 0.980568 0.369985
O O5 0.348245 0.169197 0.393413
O O6 0.500000 0.000000 0.500000
O O7 0.248158 0.046276 0.564507
O O8 0.785097 0.106506 0.286778
O O9 0.000000 0.406623 0.750000
#
# Coordination Sequence:
#
# PCOD9285944 Si02
#       4
#     8   8   8   8
#     4   9  22  42  70  94 138 184 226 291 347 410
#     4  10  21  42  68  99 141 177 229 293 344 413
#     4   9  21  43  68  95 142 178 230 290 345 415
#     4  12  22  37  73 101 133 184 234 281 351 410
#
# _framework density 23.698671000000001
#
# number of rings (size 3 to 8) (size 9 to 14) (size 15 to 20)
#    1.500    0.500    2.500    0.750    3.500    0.000 
#    0.000    1.250   22.000    0.000    0.000    0.000 
#    0.000    0.000    0.000    0.000    0.000    0.000 
#
# Total GULP energy -89160.376594 kJ/mol
# GULP energy per Si atom -5572.523537 kJ/mol
# Density = 2.364473 g / cm^3
# Si number density = 23.698671 Si / 1000 Ang^3
#
#
#
# Elastic Constant Matrix: (Units=GPa)
#
#
# Indices 1 2 3 4 5 6 
#
# 1 199.5624 51.2320 43.3729 0.0000 34.0262 0.0000
# 2 51.2320 61.3107 58.1873 0.0000 10.4584 0.0000
# 3 43.3729 58.1873 107.8033 0.0000 21.1981 0.0000
# 4 0.0000 0.0000 0.0000 28.3413 0.0000 -4.4231
# 5 34.0262 10.4584 21.1981 0.0000 46.6076 0.0000
# 6 0.0000 0.0000 0.0000 -4.4231 0.0000 20.4982
#
#
#
# Elastic Compliance Matrix: (Units=1/GPa)
#
#
# Indices 1 2 3 4 5 6 
#
# 1 0.007154 -0.006803 0.001670 0.000000 -0.004456 0.000000
# 2 -0.006803 0.039934 -0.019803 0.000000 0.005012 0.000000
# 3 0.001670 -0.019803 0.020492 0.000000 -0.006095 0.000000
# 4 0.000000 0.000000 0.000000 0.036514 0.000000 0.007879
# 5 -0.004456 0.005012 -0.006095 0.000000 0.026356 0.000000
# 6 0.000000 0.000000 0.000000 0.007879 0.000000 0.050485
#
#
# Mechanical properties :
#
#
# Convention : Reuss Voigt Hill
#
# Bulk Modulus (GPa) = 56.47301 74.91788 65.69545
# Shear Modulus (GPa) = 21.12279 33.48168 27.30224
#
# Velocity S-wave (km/s) = 2.98872 3.76281 3.39788
# Velocity P-wave (km/s) = 5.98258 7.11053 6.57080
#
# Compressibility (1/GPa) = 0.01770757
#
# Stress axis : x y z
#
# Youngs Moduli (GPa) = 139.77758 25.04116 48.79948
#
# Poissons Ratio (x) = 0.17034 -0.08147
# Poissons Ratio (y) = 0.95084 0.96640
# Poissons Ratio (z) = -0.23336 0.49590
#
# Static dielectric constant tensor:
#      x y z
#    x 1.911640 0.000000 -0.052400 
#    y 0.000000 2.015490 0.000000 
#    z -0.052400 0.000000 2.008080 
# 
# From -- ./inp_files/131777.got.cif
#   From: 2010.05.17/outbox.cif.g08.bks.cpg/sg15_66_cif.got.tgz:131777.got - 2010.06.03 18:47:42.
