data_PCOD9285652
_publ_section_title
;
Structure prediction by ZEFSAII (Michael W. Deem and Ramdas Pophale) SiO2 
 PCOD9285652
Probable space group: C 2/C
;
_chemical_formula_sum "Si O2"
_cell_formula_units_Z 32
_cell_length_a 11.320941
_cell_length_b 7.004345
_cell_length_c 19.288981
_cell_angle_alpha 90.000000
_cell_angle_beta 98.808816
_cell_angle_gamma 90.000000
_cell_volume 1511.493604
_symmetry_space_group_name_H-M "C 2/C"
_symmetry_group_IT_number 15
_symmetry_cell_setting 'monoclinic'
loop_
_space_group_symop_operation_xyz
x,y,z
-x,y,1/2-z
-x,-y,-z
x,-y,1/2+z
1/2+x,1/2+y,z
1/2-x,1/2+y,1/2-z
1/2-x,1/2-y,-z
1/2+x,1/2-y,1/2+z
loop_
_atom_site_type_symbol
_atom_site_label
_atom_site_fract_x
_atom_site_fract_y
_atom_site_fract_z
Si Si1 0.123006 0.286494 0.226492
Si Si2 0.325697 0.847969 0.846969
Si Si3 0.092544 0.955097 0.592834
Si Si4 0.318614 0.431944 0.537100
O O1 0.226684 0.259734 0.291797
O O2 0.109974 0.501026 0.196643
O O3 0.000000 0.221779 0.250000
O O4 0.147156 0.155085 0.162228
O O5 0.405234 0.681785 0.888522
O O6 0.256871 0.969044 0.900418
O O7 0.164271 0.929027 0.527295
O O8 0.955765 0.889630 0.570538
O O9 0.250000 0.250000 0.500000
#
# Coordination Sequence:
#
# PCOD9285652 Si02
#       4
#     8   8   8   8
#     4  12  24  38  63  94 126 165 214 257 313 376
#     4  11  23  40  63  93 126 166 208 260 316 370
#     4  10  21  42  65  91 128 164 208 264 309 372
#     4   9  20  41  67  90 127 167 208 260 311 367
#
# _framework density 21.171111
#
# number of rings (size 3 to 8) (size 9 to 14) (size 15 to 20)
#    0.000    1.500    5.000    0.000    0.000    4.000 
#    0.000   11.250    0.000    0.000    0.000    0.000 
#    0.000    0.000    0.000    0.000    0.000    0.000 
#
# Total GULP energy -89248.533964 kJ/mol
# GULP energy per Si atom -5578.033373 kJ/mol
# Density = 2.112292 g / cm^3
# Si number density = 21.171111 Si / 1000 Ang^3
#
#
#
# Elastic Constant Matrix: (Units=GPa)
#
#
# Indices 1 2 3 4 5 6 
#
# 1 64.4007 13.4544 29.8195 0.0000 3.4224 0.0000
# 2 13.4544 63.3073 19.6154 0.0000 -4.8838 0.0000
# 3 29.8195 19.6154 119.1198 0.0000 -5.3654 0.0000
# 4 0.0000 0.0000 0.0000 35.8016 0.0000 2.6126
# 5 3.4224 -4.8838 -5.3654 0.0000 27.2629 0.0000
# 6 0.0000 0.0000 0.0000 2.6126 0.0000 19.4041
#
#
#
# Elastic Compliance Matrix: (Units=1/GPa)
#
#
# Indices 1 2 3 4 5 6 
#
# 1 0.018296 -0.002845 -0.004276 0.000000 -0.003648 0.000000
# 2 -0.002845 0.017253 -0.001991 0.000000 0.003056 0.000000
# 3 -0.004276 -0.001991 0.009889 0.000000 0.002126 0.000000
# 4 0.000000 0.000000 0.000000 0.028209 0.000000 -0.003798
# 5 -0.003648 0.003056 0.002126 0.000000 0.038104 0.000000
# 6 0.000000 0.000000 0.000000 -0.003798 0.000000 0.052047
#
#
# Mechanical properties :
#
#
# Convention : Reuss Voigt Hill
#
# Bulk Modulus (GPa) = 36.74573 41.40070 39.07322
# Shear Modulus (GPa) = 26.16527 28.75629 27.46078
#
# Velocity S-wave (km/s) = 3.51934 3.68948 3.60542
# Velocity P-wave (km/s) = 5.82311 6.14389 5.98565
#
# Compressibility (1/GPa) = 0.02721405
#
# Stress axis : x y z
#
# Youngs Moduli (GPa) = 54.65719 57.95984 101.12281
#
# Poissons Ratio (x) = 0.16489 0.43239
# Poissons Ratio (y) = 0.15549 0.20136
# Poissons Ratio (z) = 0.23371 0.11541
#
# Static dielectric constant tensor:
#      x y z
#    x 1.717740 0.000000 -0.029820 
#    y 0.000000 1.778200 0.000000 
#    z -0.029820 0.000000 1.797430 
# 
# From -- ./inp_files/194663.got.cif
#   From: 2010.05.17/outbox.cif.g08.bks.cpg/sg15_98_cif.got.tgz:194663.got - 2010.06.03 18:47:42.
