data_PCOD9285214
_publ_section_title
;
Structure prediction by ZEFSAII (Michael W. Deem and Ramdas Pophale) SiO2 
 PCOD9285214
Probable space group: C 2/C
;
_chemical_formula_sum "Si O2"
_cell_formula_units_Z 48
_cell_length_a 15.034733
_cell_length_b 9.960471
_cell_length_c 27.944912
_cell_angle_alpha 90.000000
_cell_angle_beta 37.895416
_cell_angle_gamma 90.000000
_cell_volume 2570.418017
_symmetry_space_group_name_H-M "C 2/C"
_symmetry_group_IT_number 15
_symmetry_cell_setting 'monoclinic'
loop_
_space_group_symop_operation_xyz
x,y,z
-x,y,1/2-z
-x,-y,-z
x,-y,1/2+z
1/2+x,1/2+y,z
1/2-x,1/2+y,1/2-z
1/2-x,1/2-y,-z
1/2+x,1/2-y,1/2+z
loop_
_atom_site_type_symbol
_atom_site_label
_atom_site_fract_x
_atom_site_fract_y
_atom_site_fract_z
Si Si1 0.603657 0.965700 0.161598
Si Si2 0.606951 0.296780 0.336376
Si Si3 0.919701 0.859486 0.041631
Si Si4 0.906596 0.614316 0.564682
Si Si5 0.144421 0.485067 0.307450
Si Si6 0.894054 0.215495 0.839598
O O1 0.500000 0.928837 0.250000
O O2 0.751067 0.882498 0.100995
O O3 0.505507 0.953934 0.156190
O O4 0.637168 0.124932 0.151847
O O5 0.565458 0.311374 0.409492
O O6 0.727092 0.408876 0.274262
O O7 0.475678 0.313276 0.354589
O O8 0.664543 0.146042 0.301124
O O9 0.997805 0.748511 0.976405
O O10 0.000000 0.000000 0.000000
O O11 0.864570 0.570529 0.635511
O O12 0.757412 0.640666 0.600177
O O13 0.000000 0.500000 0.500000
O O14 0.000000 0.180870 0.750000
#
# Coordination Sequence:
#
# PCOD9285214 Si02
#       6
#     8   8   8   8   8   8
#     4  10  21  41  68  95 127 173 223 263 322 401
#     4  11  24  43  69  98 128 177 221 265 323 399
#     4  12  25  42  67  99 134 171 216 273 330 383
#     4  12  25  44  63  99 140 164 213 282 328 373
#     4  11  24  43  69  95 132 173 222 267 326 393
#     4  10  21  41  70  93 126 179 221 257 324 405
#
# _framework density 18.674005999999999
#
# number of rings (size 3 to 8) (size 9 to 14) (size 15 to 20)
#    0.000    1.000    6.667    0.000    2.333    2.667 
#    3.000    2.500    0.000    0.000    0.000    0.000 
#    0.000    0.000    0.000    0.000    0.000    0.000 
#
# Total GULP energy -134121.659328 kJ/mol
# GULP energy per Si atom -5588.402472 kJ/mol
# Density = 1.863150 g / cm^3
# Si number density = 18.674006 Si / 1000 Ang^3
#
#
#
# Elastic Constant Matrix: (Units=GPa)
#
#
# Indices 1 2 3 4 5 6 
#
# 1 99.7326 33.1640 18.0305 0.0000 -18.6114 0.0000
# 2 33.1640 90.2260 18.9404 0.0001 -21.7951 0.0001
# 3 18.0305 18.9404 42.9349 0.0000 -19.6136 0.0000
# 4 0.0000 0.0001 0.0000 73.9589 0.0000 48.3940
# 5 -18.6114 -21.7951 -19.6136 0.0000 38.0693 0.0000
# 6 0.0000 0.0001 0.0000 48.3940 0.0000 129.7969
#
#
#
# Elastic Compliance Matrix: (Units=1/GPa)
#
#
# Indices 1 2 3 4 5 6 
#
# 1 0.012061 -0.003260 -0.002335 0.000000 0.002827 0.000000
# 2 -0.003260 0.014050 -0.002462 0.000000 0.005182 0.000000
# 3 -0.002335 -0.002462 0.031639 0.000000 0.013749 0.000000
# 4 0.000000 0.000000 0.000000 0.017884 0.000000 -0.006668
# 5 0.002827 0.005182 0.013749 0.000000 0.037700 0.000000
# 6 0.000000 0.000000 0.000000 -0.006668 0.000000 0.010190
#
#
# Mechanical properties :
#
#
# Convention : Reuss Voigt Hill
#
# Bulk Modulus (GPa) = 24.01842 41.46258 32.74050
# Shear Modulus (GPa) = 32.56964 59.21559 45.89261
#
# Velocity S-wave (km/s) = 4.18079 5.63729 4.96276
# Velocity P-wave (km/s) = 6.01625 8.03888 7.09996
#
# Compressibility (1/GPa) = 0.04163471
#
# Stress axis : x y z
#
# Youngs Moduli (GPa) = 82.91490 71.17414 31.60666
#
# Poissons Ratio (x) = 0.23203 0.07382
# Poissons Ratio (y) = 0.27030 0.07781
# Poissons Ratio (z) = 0.19365 0.17523
#
# Static dielectric constant tensor:
#      x y z
#    x 1.634530 0.000000 0.009460 
#    y 0.000000 1.648670 0.000000 
#    z 0.009460 0.000000 1.653830 
# 
# From -- ./inp_files/208948.got.cif
#   From: 2010.05.17/outbox.cif.g08.bks.cpg/sg15_105_cif.got.tgz:208948.got - 2010.06.03 18:47:42.
