data_PCOD9285979
_publ_section_title
;
Structure prediction by ZEFSAII (Michael W. Deem and Ramdas Pophale) SiO2 
 PCOD9285979
Probable space group: C 2/C
;
_chemical_formula_sum "Si O2"
_cell_formula_units_Z 56
_cell_length_a 9.480456
_cell_length_b 19.833276
_cell_length_c 30.809120
_cell_angle_alpha 90.000000
_cell_angle_beta 28.299009
_cell_angle_gamma 90.000000
_cell_volume 2746.301281
_symmetry_space_group_name_H-M "C 2/C"
_symmetry_group_IT_number 15
_symmetry_cell_setting 'monoclinic'
loop_
_space_group_symop_operation_xyz
x,y,z
-x,y,1/2-z
-x,-y,-z
x,-y,1/2+z
1/2+x,1/2+y,z
1/2-x,1/2+y,1/2-z
1/2-x,1/2-y,-z
1/2+x,1/2-y,1/2+z
loop_
_atom_site_type_symbol
_atom_site_label
_atom_site_fract_x
_atom_site_fract_y
_atom_site_fract_z
Si Si1 0.650117 0.432030 0.851699
Si Si2 0.156547 0.461326 0.917774
Si Si3 0.837149 0.559952 0.840754
Si Si4 0.283931 0.288996 0.141052
Si Si5 0.336318 0.070203 0.660656
Si Si6 0.790884 0.670743 0.992806
Si Si7 0.067264 0.321013 0.508633
O O1 0.474641 0.442657 0.853818
O O2 0.612035 0.498200 0.893056
O O3 0.000000 0.423059 0.750000
O O4 0.510061 0.368008 0.913338
O O5 0.161898 0.510247 0.875210
O O6 0.983670 0.392234 0.953631
O O7 0.000000 0.500000 0.000000
O O8 0.726326 0.636097 0.876342
O O9 0.000000 0.563310 0.750000
O O10 0.056890 0.545561 0.821085
O O11 0.327547 0.231592 0.092977
O O12 0.000000 0.279224 0.250000
O O13 0.604330 0.289785 0.078075
O O14 0.555423 0.130200 0.587337
O O15 0.000000 0.096577 0.750000
O O16 0.750000 0.750000 0.000000
O O17 0.003113 0.660860 0.976638
#
# Coordination Sequence:
#
# PCOD9285979 Si02
#       7
#     8   8   8   8   8   8   8
#     4  10  21  42  69  94 131 178 216 277 338 384
#     4  11  21  44  68  94 138 176 219 277 334 396
#     4  10  22  40  66  97 134 164 223 273 327 393
#     4  10  22  40  67  96 131 181 225 273 333 399
#     4  12  25  40  70 102 128 178 225 267 342 400
#     4  11  25  44  62  96 135 175 225 275 336 398
#     4  10  22  43  66  93 137 179 220 277 336 391
#
# _framework density 20.391062999999999
#
# number of rings (size 3 to 8) (size 9 to 14) (size 15 to 20)
#    0.000    1.429    2.857    3.429    4.000    1.714 
#   10.286    0.000    0.000    0.000    0.000    0.000 
#    0.000    0.000    0.000    0.000    0.000    0.000 
#
# Total GULP energy -156241.639893 kJ/mol
# GULP energy per Si atom -5580.058568 kJ/mol
# Density = 2.034465 g / cm^3
# Si number density = 20.391063 Si / 1000 Ang^3
#
#
#
# Elastic Constant Matrix: (Units=GPa)
#
#
# Indices 1 2 3 4 5 6 
#
# 1 101.1553 12.7865 33.3211 0.2590 8.7084 0.4210
# 2 12.7865 144.6413 38.5488 0.7775 13.2856 0.3681
# 3 33.3211 38.5488 103.7098 1.3363 -4.4320 1.6010
# 4 0.2590 0.7775 1.3363 8.7557 -0.1207 -20.5895
# 5 8.7084 13.2856 -4.4320 -0.1207 22.1614 -0.2758
# 6 0.4210 0.3681 1.6010 -20.5895 -0.2758 11.1748
#
#
#
# Elastic Compliance Matrix: (Units=1/GPa)
#
#
# Indices 1 2 3 4 5 6 
#
# 1 0.011706 0.000632 -0.004243 -0.000051 -0.005829 -0.000092
# 2 0.000632 0.008356 -0.003567 0.000044 -0.005969 0.000146
# 3 -0.004243 -0.003567 0.012566 0.001381 0.006341 0.001178
# 4 -0.000051 0.000044 0.001381 -0.034051 -0.000699 -0.062954
# 5 -0.005829 -0.005969 0.006341 -0.000699 0.052250 -0.000491
# 6 -0.000092 0.000146 0.001178 -0.062954 -0.000491 -0.026687
#
#
# Mechanical properties :
#
#
# Convention : Reuss Voigt Hill
#
# Bulk Modulus (GPa) = 54.72716 57.64659 56.18688
# Shear Modulus (GPa) = 112.14160 26.07504 69.10832
#
# Velocity S-wave (km/s) = 7.42394 3.57984 5.82795
# Velocity P-wave (km/s) = 10.01916 6.73935 8.53822
#
# Compressibility (1/GPa) = 0.01827246
#
# Stress axis : x y z
#
# Youngs Moduli (GPa) = 85.42751 119.67370 79.57810
#
# Poissons Ratio (x) = -0.07561 0.33764
# Poissons Ratio (y) = -0.05398 0.28384
# Poissons Ratio (z) = 0.36246 0.42686
#
# Static dielectric constant tensor:
#      x y z
#    x 1.769270 0.000890 0.038040 
#    y 0.000890 1.802140 0.001200 
#    z 0.038040 0.001200 1.821210 
# 
# From -- ./inp_files/308980.got.cif
#   From: 2010.05.17/outbox.cif.g08.bks.cpg/sg15_155_cif.got.tgz:308980.got - 2010.06.03 18:47:42.
