data_PCOD9285671
_publ_section_title
;
Structure prediction by ZEFSAII (Michael W. Deem and Ramdas Pophale) SiO2 
 PCOD9285671
Probable space group: C 2/C
;
_chemical_formula_sum "Si O2"
_cell_formula_units_Z 44
_cell_length_a 17.642819
_cell_length_b 8.609749
_cell_length_c 14.417128
_cell_angle_alpha 90.000000
_cell_angle_beta 77.685285
_cell_angle_gamma 90.000000
_cell_volume 2139.575969
_symmetry_space_group_name_H-M "C 2/C"
_symmetry_group_IT_number 15
_symmetry_cell_setting 'monoclinic'
loop_
_space_group_symop_operation_xyz
x,y,z
-x,y,1/2-z
-x,-y,-z
x,-y,1/2+z
1/2+x,1/2+y,z
1/2-x,1/2+y,1/2-z
1/2-x,1/2-y,-z
1/2+x,1/2-y,1/2+z
loop_
_atom_site_type_symbol
_atom_site_label
_atom_site_fract_x
_atom_site_fract_y
_atom_site_fract_z
Si Si1 0.414310 0.948710 0.048482
Si Si2 0.000000 0.807220 0.750000
Si Si3 0.134001 0.395309 0.114515
Si Si4 0.067360 0.912433 0.925833
Si Si5 0.159855 0.397366 0.760080
Si Si6 0.791124 0.904604 0.162481
O O1 0.414069 0.762401 0.044482
O O2 0.390309 0.000250 0.156899
O O3 0.500000 0.000000 0.000000
O O4 0.364923 0.058072 0.992543
O O5 0.935779 0.707550 0.825541
O O6 0.956613 0.898417 0.677472
O O7 0.127476 0.563416 0.167440
O O8 0.217826 0.333938 0.125815
O O9 0.145514 0.011407 0.915949
O O10 0.000000 0.000000 0.000000
O O11 0.165254 0.222261 0.788646
O O12 0.246966 0.467139 0.735901
#
# Coordination Sequence:
#
# PCOD9285671 Si02
#       6
#     8   4   8   8   8   8
#     4  12  22  41  68  96 133 177 229 277 333 415
#     4  12  22  48  70  98 138 188 218 284 352 406
#     4  10  23  40  72  96 131 179 225 274 350 398
#     4  12  26  44  67 101 138 176 231 284 336 413
#     4  10  21  42  65  94 136 169 224 276 336 407
#     4  10  23  44  63 101 135 176 220 286 339 397
#
# _framework density 20.564820999999998
#
# number of rings (size 3 to 8) (size 9 to 14) (size 15 to 20)
#    1.091    0.000    3.636    3.273    0.000    2.909 
#    3.273    0.000    0.000    0.000    0.000    0.000 
#    0.000    0.000    0.000    0.000    0.000    0.000 
#
# Total GULP energy -122571.029753 kJ/mol
# GULP energy per Si atom -5571.410443 kJ/mol
# Density = 2.051801 g / cm^3
# Si number density = 20.564821 Si / 1000 Ang^3
#
#
#
# Elastic Constant Matrix: (Units=GPa)
#
#
# Indices 1 2 3 4 5 6 
#
# 1 66.1339 -7.7081 -0.2996 0.0000 -22.7943 0.0000
# 2 -7.7081 47.0849 -11.4622 0.0000 -19.3429 0.0000
# 3 -0.2996 -11.4622 49.2934 0.0000 -11.2631 0.0000
# 4 0.0000 0.0000 0.0000 26.4383 0.0000 -7.1882
# 5 -22.7943 -19.3429 -11.2631 0.0000 51.4272 0.0000
# 6 0.0000 0.0000 0.0000 -7.1882 0.0000 31.3785
#
#
#
# Elastic Compliance Matrix: (Units=1/GPa)
#
#
# Indices 1 2 3 4 5 6 
#
# 1 0.021741 0.011363 0.006266 0.000000 0.015282 0.000000
# 2 0.011363 0.034885 0.012979 0.000000 0.021000 0.000000
# 3 0.006266 0.012979 0.026415 0.000000 0.013444 0.000000
# 4 0.000000 0.000000 0.000000 0.040336 0.000000 0.009240
# 5 0.015282 0.021000 0.013444 0.000000 0.037062 0.000000
# 6 0.000000 0.000000 0.000000 0.009240 0.000000 0.033986
#
#
# Mechanical properties :
#
#
# Convention : Reuss Voigt Hill
#
# Bulk Modulus (GPa) = 6.93210 13.73027 10.33118
# Shear Modulus (GPa) = 27.57963 33.98096 30.78030
#
# Velocity S-wave (km/s) = 3.66609 4.06936 3.87298
# Velocity P-wave (km/s) = 4.61502 5.36383 5.00345
#
# Compressibility (1/GPa) = 0.14425648
#
# Stress axis : x y z
#
# Youngs Moduli (GPa) = 45.99616 28.66574 37.85775
#
# Poissons Ratio (x) = -0.32572 -0.23722
# Poissons Ratio (y) = -0.52264 -0.49136
# Poissons Ratio (z) = -0.28822 -0.37206
#
# Static dielectric constant tensor:
#      x y z
#    x 1.760640 0.000000 0.034820 
#    y 0.000000 1.708880 0.000000 
#    z 0.034820 0.000000 1.735090 
# 
# From -- ./inp_files/159227.got.cif
#   From: 2010.05.17/outbox.cif.g08.bks.cpg/sg15_80_cif.got.tgz:159227.got - 2010.06.03 18:47:42.
