data_PCOD9285609
_publ_section_title
;
Structure prediction by ZEFSAII (Michael W. Deem and Ramdas Pophale) SiO2 
 PCOD9285609
Probable space group: C 2/C
;
_chemical_formula_sum "Si O2"
_cell_formula_units_Z 32
_cell_length_a 23.611783
_cell_length_b 5.167112
_cell_length_c 13.629665
_cell_angle_alpha 90.000000
_cell_angle_beta 62.405080
_cell_angle_gamma 90.000000
_cell_volume 1473.721664
_symmetry_space_group_name_H-M "C 2/C"
_symmetry_group_IT_number 15
_symmetry_cell_setting 'monoclinic'
loop_
_space_group_symop_operation_xyz
x,y,z
-x,y,1/2-z
-x,-y,-z
x,-y,1/2+z
1/2+x,1/2+y,z
1/2-x,1/2+y,1/2-z
1/2-x,1/2-y,-z
1/2+x,1/2-y,1/2+z
loop_
_atom_site_type_symbol
_atom_site_label
_atom_site_fract_x
_atom_site_fract_y
_atom_site_fract_z
Si Si1 0.152206 0.710464 0.035977
Si Si2 0.955141 0.250452 0.034525
Si Si3 0.781098 0.044586 0.843664
Si Si4 0.151819 0.449943 0.235877
O O1 0.186316 0.933422 0.073345
O O2 0.136579 0.502489 0.133509
O O3 0.090001 0.773856 0.024521
O O4 0.207713 0.614428 0.918792
O O5 0.906506 0.313464 0.162570
O O6 0.000000 0.500000 0.000000
O O7 0.000000 0.000000 0.000000
O O8 0.822017 0.265887 0.753722
O O9 0.791400 0.755608 0.801006
#
# Coordination Sequence:
#
# PCOD9285609 Si02
#       4
#     8   8   8   8
#     4   9  23  41  68  92 134 154 217 268 321 387
#     4  12  28  43  60  96 132 176 220 257 309 392
#     4   9  20  40  69  97 118 164 206 272 337 368
#     4  10  21  42  64  96 124 167 211 260 336 362
#
# _framework density 21.713733000000001
#
# number of rings (size 3 to 8) (size 9 to 14) (size 15 to 20)
#    1.500    0.500    0.000    2.250    3.500    3.000 
#    0.000    0.000    0.000    0.000    0.000    0.000 
#    0.000    0.000    0.000    0.000    0.000    0.000 
#
# Total GULP energy -89206.532895 kJ/mol
# GULP energy per Si atom -5575.408306 kJ/mol
# Density = 2.166431 g / cm^3
# Si number density = 21.713733 Si / 1000 Ang^3
#
#
#
# Elastic Constant Matrix: (Units=GPa)
#
#
# Indices 1 2 3 4 5 6 
#
# 1 177.5079 45.5615 34.3762 0.0000 -3.9752 0.0000
# 2 45.5615 109.3861 19.8461 0.0000 -2.1490 -0.0003
# 3 34.3762 19.8461 97.1835 0.0000 -1.0123 0.0000
# 4 0.0000 0.0000 0.0000 24.4207 0.0000 -4.0838
# 5 -3.9752 -2.1490 -1.0123 0.0000 28.6966 0.0000
# 6 0.0000 -0.0003 0.0000 -4.0838 0.0000 19.6195
#
#
#
# Elastic Compliance Matrix: (Units=1/GPa)
#
#
# Indices 1 2 3 4 5 6 
#
# 1 0.006625 -0.002412 -0.001844 0.000000 0.000672 0.000000
# 2 -0.002412 0.010383 -0.001263 0.000000 0.000399 0.000000
# 3 -0.001844 -0.001263 0.011200 0.000000 0.000045 0.000000
# 4 0.000000 0.000000 0.000000 0.042426 0.000000 0.008831
# 5 0.000672 0.000399 0.000045 0.000000 0.034972 0.000000
# 6 0.000000 0.000000 0.000000 0.008831 0.000000 0.052808
#
#
# Mechanical properties :
#
#
# Convention : Reuss Voigt Hill
#
# Bulk Modulus (GPa) = 58.23683 64.84945 61.54314
# Shear Modulus (GPa) = 28.54286 33.50026 31.02156
#
# Velocity S-wave (km/s) = 3.62955 3.93213 3.78386
# Velocity P-wave (km/s) = 6.66658 7.10957 6.89164
#
# Compressibility (1/GPa) = 0.01717126
#
# Stress axis : x y z
#
# Youngs Moduli (GPa) = 150.95097 96.30724 89.28206
#
# Poissons Ratio (x) = 0.23225 0.16462
# Poissons Ratio (y) = 0.36403 0.11278
# Poissons Ratio (z) = 0.27833 0.12166
#
# Static dielectric constant tensor:
#      x y z
#    x 1.729730 0.000000 0.081000 
#    y 0.000000 1.774850 0.000000 
#    z 0.081000 0.000000 1.826740 
# 
# From -- ./inp_files/164965.got.cif
#   From: 2010.05.17/outbox.cif.g08.bks.cpg/sg15_83_cif.got.tgz:164965.got - 2010.06.03 18:47:42.
