data_PCOD9285169
_publ_section_title
;
Structure prediction by ZEFSAII (Michael W. Deem and Ramdas Pophale) SiO2 
 PCOD9285169
Probable space group: C 2/C
;
_chemical_formula_sum "Si O2"
_cell_formula_units_Z 44
_cell_length_a 13.490813
_cell_length_b 9.318376
_cell_length_c 15.630570
_cell_angle_alpha 90.000000
_cell_angle_beta 97.870181
_cell_angle_gamma 90.000000
_cell_volume 1946.449323
_symmetry_space_group_name_H-M "C 2/C"
_symmetry_group_IT_number 15
_symmetry_cell_setting 'monoclinic'
loop_
_space_group_symop_operation_xyz
x,y,z
-x,y,1/2-z
-x,-y,-z
x,-y,1/2+z
1/2+x,1/2+y,z
1/2-x,1/2+y,1/2-z
1/2-x,1/2-y,-z
1/2+x,1/2-y,1/2+z
loop_
_atom_site_type_symbol
_atom_site_label
_atom_site_fract_x
_atom_site_fract_y
_atom_site_fract_z
Si Si1 0.000000 0.303524 0.250000
Si Si2 0.304932 0.284238 0.813234
Si Si3 0.955571 0.552780 0.125766
Si Si4 0.250000 0.750000 0.000000
Si Si5 0.820759 0.109474 0.838302
Si Si6 0.837619 0.523659 0.935665
Si Si7 0.500000 0.301608 0.250000
O O1 0.079061 0.218322 0.203481
O O2 0.061044 0.408728 0.321255
O O3 0.243669 0.215943 0.728409
O O4 0.278720 0.447471 0.830672
O O5 0.297905 0.169364 0.889249
O O6 0.939684 0.691803 0.181419
O O7 0.073325 0.538874 0.114310
O O8 0.892113 0.552620 0.032485
O O9 0.183269 0.832426 0.066294
O O10 0.241712 0.599392 0.054934
O O11 0.928263 0.112215 0.804439
#
# Coordination Sequence:
#
# PCOD9285169 Si02
#       7
#     4   8   8   4   8   8   4
#     4   9  19  40  72 100 138 180 228 284 346 408
#     4  11  25  45  70 103 138 188 230 292 345 425
#     4   9  19  38  72  99 132 177 231 272 350 415
#     4  12  24  42  66 104 138 176 226 290 334 414
#     4  12  27  45  70 100 142 180 237 286 355 407
#     4  10  21  41  68 103 136 179 225 284 345 413
#     4  11  23  46  68 100 132 190 228 294 334 420
#
# _framework density 22.605263000000001
#
# number of rings (size 3 to 8) (size 9 to 14) (size 15 to 20)
#    0.000    1.455    1.818    2.727    7.636    0.727 
#    3.273    2.727    0.000    0.000    0.000    0.000 
#    0.000    0.000    0.000    0.000    0.000    0.000 
#
# Total GULP energy -122524.081784 kJ/mol
# GULP energy per Si atom -5569.276445 kJ/mol
# Density = 2.255381 g / cm^3
# Si number density = 22.605263 Si / 1000 Ang^3
#
#
#
# Elastic Constant Matrix: (Units=GPa)
#
#
# Indices 1 2 3 4 5 6 
#
# 1 69.7104 33.7554 27.6243 0.0000 -29.4418 0.0000
# 2 33.7554 141.4679 31.2967 0.0000 -30.3533 0.0000
# 3 27.6243 31.2967 103.8660 0.0000 -31.4896 0.0000
# 4 0.0000 0.0000 0.0000 -88.2738 0.0000 -71.2259
# 5 -29.4418 -30.3533 -31.4896 0.0000 37.4986 0.0000
# 6 0.0000 0.0000 0.0000 -71.2259 0.0000 -22.0801
#
#
#
# Elastic Compliance Matrix: (Units=1/GPa)
#
#
# Indices 1 2 3 4 5 6 
#
# 1 0.021893 -0.001825 -0.000683 0.000000 0.015138 0.000000
# 2 -0.001825 0.008739 -0.000587 0.000000 0.005148 0.000000
# 3 -0.000683 -0.000587 0.012986 0.000000 0.009893 0.000000
# 4 0.000000 0.000000 0.000000 0.007068 0.000000 -0.022799
# 5 0.015138 0.005148 0.009893 0.000000 0.051028 0.000000
# 6 0.000000 0.000000 0.000000 -0.022799 0.000000 0.028256
#
#
# Mechanical properties :
#
#
# Convention : Reuss Voigt Hill
#
# Bulk Modulus (GPa) = 26.71856 55.59967 41.15911
# Shear Modulus (GPa) = 33.63945 0.25348 16.94646
#
# Velocity S-wave (km/s) = 3.86181 0.33523 2.74098
# Velocity P-wave (km/s) = 5.63294 4.97987 5.31644
#
# Compressibility (1/GPa) = 0.03742716
#
# Stress axis : x y z
#
# Youngs Moduli (GPa) = 45.67687 114.43605 77.00731
#
# Poissons Ratio (x) = 0.20880 0.05262
# Poissons Ratio (y) = 0.08334 0.04521
# Poissons Ratio (z) = 0.03121 0.06719
#
# Static dielectric constant tensor:
#      x y z
#    x 1.948370 0.000000 0.027330 
#    y 0.000000 1.821850 0.000000 
#    z 0.027330 0.000000 1.816410 
# 
# From -- ./inp_files/202716.got.cif
#   From: 2010.05.17/outbox.cif.g08.bks.cpg/sg15_102_cif.got.tgz:202716.got - 2010.06.03 18:47:42.
