data_PCOD9285542
_publ_section_title
;
Structure prediction by ZEFSAII (Michael W. Deem and Ramdas Pophale) SiO2 
 PCOD9285542
Probable space group: C 2/C
;
_chemical_formula_sum "Si O2"
_cell_formula_units_Z 60
_cell_length_a 15.749825
_cell_length_b 12.773180
_cell_length_c 15.191650
_cell_angle_alpha 90.000000
_cell_angle_beta 78.419213
_cell_angle_gamma 90.000000
_cell_volume 2993.969578
_symmetry_space_group_name_H-M "C 2/C"
_symmetry_group_IT_number 15
_symmetry_cell_setting 'monoclinic'
loop_
_space_group_symop_operation_xyz
x,y,z
-x,y,1/2-z
-x,-y,-z
x,-y,1/2+z
1/2+x,1/2+y,z
1/2-x,1/2+y,1/2-z
1/2-x,1/2-y,-z
1/2+x,1/2-y,1/2+z
loop_
_atom_site_type_symbol
_atom_site_label
_atom_site_fract_x
_atom_site_fract_y
_atom_site_fract_z
Si Si1 0.716287 0.135161 0.983108
Si Si2 0.622663 0.242457 0.854071
Si Si3 0.326800 0.380851 0.116297
Si Si4 0.000000 0.382500 0.250000
Si Si5 0.278899 0.170423 0.207007
Si Si6 0.838410 0.946810 0.911742
Si Si7 0.970692 0.040325 0.101903
Si Si8 0.844057 0.486157 0.832031
O O1 0.646070 0.157168 0.922589
O O2 0.794351 0.060223 0.934837
O O3 0.750000 0.250000 0.000000
O O4 0.676281 0.080552 0.076963
O O5 0.559656 0.189884 0.797438
O O6 0.712304 0.278908 0.790835
O O7 0.576057 0.347925 0.897406
O O8 0.331532 0.263374 0.149858
O O9 0.398771 0.456014 0.145273
O O10 0.233096 0.428831 0.158930
O O11 0.335109 0.390152 0.008364
O O12 0.065170 0.455450 0.182048
O O13 0.219457 0.114158 0.146454
O O14 0.336600 0.087773 0.248223
O O15 0.939408 0.952171 0.863746
O O16 0.000000 0.000000 0.000000
#
# Coordination Sequence:
#
# PCOD9285542 Si02
#       8
#     8   8   8   4   8   8   8   8
#     4  11  22  45  70  92 129 182 212 257 346 393
#     4  12  23  42  72  90 130 182 213 264 336 391
#     4  10  21  42  64  91 135 170 211 276 325 392
#     4  12  26  44  64 102 132 166 228 278 310 384
#     4  12  22  41  68  93 129 175 217 268 336 382
#     4  10  23  39  68  97 126 166 224 267 325 396
#     4  10  21  42  63  97 127 160 215 277 313 387
#     4  11  24  43  64  93 135 167 221 273 314 397
#
# _framework density 20.040284
#
# number of rings (size 3 to 8) (size 9 to 14) (size 15 to 20)
#    0.000    1.067    4.000    3.600    0.000    0.533 
#    9.600    0.000    0.000    0.000    0.000    0.000 
#    0.000    0.000    0.000    0.000    0.000    0.000 
#
# Total GULP energy -167728.968235 kJ/mol
# GULP energy per Si atom -5590.965608 kJ/mol
# Density = 1.999467 g / cm^3
# Si number density = 20.040284 Si / 1000 Ang^3
#
#
#
# Elastic Constant Matrix: (Units=GPa)
#
#
# Indices 1 2 3 4 5 6 
#
# 1 53.9742 -4.6098 0.3771 0.0000 -6.1996 0.0000
# 2 -4.6098 33.7333 16.0813 0.0000 -2.0347 0.0000
# 3 0.3771 16.0813 38.7826 0.0000 3.9789 0.0000
# 4 0.0000 0.0000 0.0000 25.1096 0.0000 0.9809
# 5 -6.1996 -2.0347 3.9789 0.0000 37.4029 0.0000
# 6 0.0000 0.0000 0.0000 0.9809 0.0000 34.3710
#
#
#
# Elastic Compliance Matrix: (Units=1/GPa)
#
#
# Indices 1 2 3 4 5 6 
#
# 1 0.019293 0.003893 -0.002175 0.000000 0.003641 0.000000
# 2 0.003893 0.038241 -0.016353 0.000000 0.004465 0.000000
# 3 -0.002175 -0.016353 0.033076 0.000000 -0.004769 0.000000
# 4 0.000000 0.000000 0.000000 0.039870 0.000000 -0.001138
# 5 0.003641 0.004465 -0.004769 0.000000 0.028090 0.000000
# 6 0.000000 0.000000 0.000000 -0.001138 0.000000 0.029127
#
#
# Mechanical properties :
#
#
# Convention : Reuss Voigt Hill
#
# Bulk Modulus (GPa) = 16.30249 16.68748 16.49498
# Shear Modulus (GPa) = 21.06025 27.01945 24.03985
#
# Velocity S-wave (km/s) = 3.24527 3.67585 3.46725
# Velocity P-wave (km/s) = 4.71114 5.13428 4.92726
#
# Compressibility (1/GPa) = 0.06134033
#
# Stress axis : x y z
#
# Youngs Moduli (GPa) = 51.83143 26.14970 30.23341
#
# Poissons Ratio (x) = -0.10181 0.06577
# Poissons Ratio (y) = -0.20179 0.49440
# Poissons Ratio (z) = 0.11276 0.42762
#
# Static dielectric constant tensor:
#      x y z
#    x 1.717210 0.000000 0.014590 
#    y 0.000000 1.689550 0.000000 
#    z 0.014590 0.000000 1.740980 
# 
# From -- ./inp_files/161309.got.cif
#   From: 2010.05.17/outbox.cif.g08.bks.cpg/sg15_81_cif.got.tgz:161309.got - 2010.06.03 18:47:42.
