data_PCOD9285219
_publ_section_title
;
Structure prediction by ZEFSAII (Michael W. Deem and Ramdas Pophale) SiO2 
 PCOD9285219
Probable space group: C 2/C
;
_chemical_formula_sum "Si O2"
_cell_formula_units_Z 60
_cell_length_a 29.255145
_cell_length_b 12.901319
_cell_length_c 15.018629
_cell_angle_alpha 90.000000
_cell_angle_beta 150.198404
_cell_angle_gamma 90.000000
_cell_volume 2817.224231
_symmetry_space_group_name_H-M "C 2/C"
_symmetry_group_IT_number 15
_symmetry_cell_setting 'monoclinic'
loop_
_space_group_symop_operation_xyz
x,y,z
-x,y,1/2-z
-x,-y,-z
x,-y,1/2+z
1/2+x,1/2+y,z
1/2-x,1/2+y,1/2-z
1/2-x,1/2-y,-z
1/2+x,1/2-y,1/2+z
loop_
_atom_site_type_symbol
_atom_site_label
_atom_site_fract_x
_atom_site_fract_y
_atom_site_fract_z
Si Si1 0.650107 0.578346 0.011146
Si Si2 0.500000 0.048450 0.250000
Si Si3 0.579067 0.371322 0.951006
Si Si4 0.513610 0.622107 0.031981
Si Si5 0.250279 0.791442 0.139564
Si Si6 0.200036 0.954302 0.919551
Si Si7 0.198142 0.437244 0.576713
Si Si8 0.055650 0.743195 0.442333
O O1 0.669161 0.537697 0.943012
O O2 0.742308 0.572319 0.230410
O O3 0.596684 0.687767 0.929320
O O4 0.583419 0.495454 0.947214
O O5 0.506859 0.134315 0.340365
O O6 0.594843 0.982036 0.411116
O O7 0.500000 0.333170 0.750000
O O8 0.554311 0.337502 0.007404
O O9 0.679151 0.339456 0.089516
O O10 0.615781 0.619312 0.245865
O O11 0.504759 0.683449 0.926377
O O12 0.500000 0.500000 0.000000
O O13 0.259521 0.872704 0.075848
O O14 0.349306 0.781450 0.348048
O O15 0.204546 0.679193 0.048098
O O16 0.246302 0.998272 0.907890
#
# Coordination Sequence:
#
# PCOD9285219 Si02
#       8
#     8   4   8   8   8   8   8   8
#     4  10  21  41  68  95 130 165 213 276 340 377
#     4  12  28  44  62  88 146 188 210 254 334 406
#     4  11  20  34  65  99 120 146 208 281 319 366
#     4  12  22  36  65 101 122 157 219 281 320 377
#     4  10  22  42  68  93 123 170 217 272 333 376
#     4  11  21  40  75  94 123 167 219 279 334 371
#     4  11  24  46  62  94 134 179 214 266 322 410
#     4  11  25  43  63  91 135 180 212 263 333 404
#
# _framework density 21.297559
#
# number of rings (size 3 to 8) (size 9 to 14) (size 15 to 20)
#    0.000    1.067    6.667    2.000    3.733    0.000 
#    4.800    2.000    0.000    0.000    0.000    0.000 
#    0.000    0.000    0.000    0.000    0.000    0.000 
#
# Total GULP energy -167219.095397 kJ/mol
# GULP energy per Si atom -5573.969847 kJ/mol
# Density = 2.124908 g / cm^3
# Si number density = 21.297559 Si / 1000 Ang^3
#
#
#
# Elastic Constant Matrix: (Units=GPa)
#
#
# Indices 1 2 3 4 5 6 
#
# 1 87.0468 -14.1443 16.6179 0.0000 -5.7924 0.0000
# 2 -14.1443 41.4394 14.3151 0.0000 0.4235 0.0000
# 3 16.6179 14.3151 74.8729 0.0000 3.5424 0.0000
# 4 0.0000 0.0000 0.0000 35.0540 0.0000 -1.7700
# 5 -5.7924 0.4235 3.5424 0.0000 24.1652 0.0000
# 6 0.0000 0.0000 0.0000 -1.7700 0.0000 23.1803
#
#
#
# Elastic Compliance Matrix: (Units=1/GPa)
#
#
# Indices 1 2 3 4 5 6 
#
# 1 0.013561 0.006094 -0.004354 0.000000 0.003782 0.000000
# 2 0.006094 0.028579 -0.006910 0.000000 0.001973 0.000000
# 3 -0.004354 -0.006910 0.015797 0.000000 -0.003238 0.000000
# 4 0.000000 0.000000 0.000000 0.028638 0.000000 0.002187
# 5 0.003782 0.001973 -0.003238 0.000000 0.042729 0.000000
# 6 0.000000 0.000000 0.000000 0.002187 0.000000 0.043307
#
#
# Mechanical properties :
#
#
# Convention : Reuss Voigt Hill
#
# Bulk Modulus (GPa) = 21.00972 26.32628 23.66800
# Shear Modulus (GPa) = 25.14901 28.91793 27.03347
#
# Velocity S-wave (km/s) = 3.44006 3.68884 3.56662
# Velocity P-wave (km/s) = 5.06606 5.52552 5.30077
#
# Compressibility (1/GPa) = 0.04759703
#
# Stress axis : x y z
#
# Youngs Moduli (GPa) = 73.73974 34.99121 63.30449
#
# Poissons Ratio (x) = -0.21324 0.27563
# Poissons Ratio (y) = -0.44939 0.43743
# Poissons Ratio (z) = 0.32106 0.24179
#
# Static dielectric constant tensor:
#      x y z
#    x 1.820970 0.000000 -0.105490 
#    y 0.000000 1.875140 0.000000 
#    z -0.105490 0.000000 1.317020 
# 
# From -- ./inp_files/182336.got.cif
#   From: 2010.05.17/outbox.cif.g08.bks.cpg/sg15_92_cif.got.tgz:182336.got - 2010.06.03 18:47:42.
