data_PCOD9285189
_publ_section_title
;
Structure prediction by ZEFSAII (Michael W. Deem and Ramdas Pophale) SiO2 
 PCOD9285189
Probable space group: C 2/C
;
_chemical_formula_sum "Si O2"
_cell_formula_units_Z 56
_cell_length_a 16.749125
_cell_length_b 9.366858
_cell_length_c 18.697119
_cell_angle_alpha 90.000000
_cell_angle_beta 65.490226
_cell_angle_gamma 90.000000
_cell_volume 2669.008092
_symmetry_space_group_name_H-M "C 2/C"
_symmetry_group_IT_number 15
_symmetry_cell_setting 'monoclinic'
loop_
_space_group_symop_operation_xyz
x,y,z
-x,y,1/2-z
-x,-y,-z
x,-y,1/2+z
1/2+x,1/2+y,z
1/2-x,1/2+y,1/2-z
1/2-x,1/2-y,-z
1/2+x,1/2-y,1/2+z
loop_
_atom_site_type_symbol
_atom_site_label
_atom_site_fract_x
_atom_site_fract_y
_atom_site_fract_z
Si Si1 0.070220 0.829237 0.319842
Si Si2 0.904876 0.285354 0.310737
Si Si3 0.192067 0.885794 0.002940
Si Si4 0.891629 0.359285 0.482339
Si Si5 0.602659 0.464108 0.171677
Si Si6 0.044697 0.670599 0.037054
Si Si7 0.215750 0.137176 0.884958
O O1 0.113612 0.836068 0.225022
O O2 0.141488 0.874954 0.351649
O O3 0.989364 0.936543 0.334665
O O4 0.020460 0.690136 0.370071
O O5 0.898130 0.302837 0.399242
O O6 0.813196 0.348241 0.316633
O O7 0.000000 0.341107 0.250000
O O8 0.899225 0.118664 0.292981
O O9 0.175378 0.962651 0.084219
O O10 0.101689 0.812825 0.011099
O O11 0.250000 0.750000 0.000000
O O12 0.219960 0.000118 0.934537
O O13 0.892931 0.532310 0.479864
O O14 0.816945 0.272452 0.553927
O O15 0.981920 0.333631 0.492026
#
# Coordination Sequence:
#
# PCOD9285189 Si02
#       7
#     8   8   8   8   8   8   8
#     4   9  20  43  65  97 130 173 219 270 337 396
#     4  12  24  41  65  93 132 175 217 274 342 391
#     4  11  23  39  63  97 127 176 223 272 327 396
#     4  10  21  42  67  97 132 169 222 271 332 400
#     4  10  21  41  68  91 133 176 213 268 337 396
#     4   9  21  38  68  97 131 170 213 276 332 396
#     4  11  24  41  71  97 131 172 235 278 321 408
#
# _framework density 20.981577000000001
#
# number of rings (size 3 to 8) (size 9 to 14) (size 15 to 20)
#    0.000    1.714    2.857    1.286    4.000    1.714 
#   12.857    0.000    0.000    0.000    0.000    0.000 
#    0.000    0.000    0.000    0.000    0.000    0.000 
#
# Total GULP energy -156035.168035 kJ/mol
# GULP energy per Si atom -5572.684573 kJ/mol
# Density = 2.093382 g / cm^3
# Si number density = 20.981577 Si / 1000 Ang^3
#
#
#
# Elastic Constant Matrix: (Units=GPa)
#
#
# Indices 1 2 3 4 5 6 
#
# 1 104.8158 35.0957 55.1155 0.0000 1.2494 0.0000
# 2 35.0957 82.8966 18.1577 0.0000 -4.3612 0.0000
# 3 55.1155 18.1577 57.9147 0.0000 -5.1905 0.0000
# 4 0.0000 0.0000 0.0000 25.9741 0.0000 -4.1467
# 5 1.2494 -4.3612 -5.1905 0.0000 27.0418 0.0000
# 6 0.0000 0.0000 0.0000 -4.1467 0.0000 25.9806
#
#
#
# Elastic Compliance Matrix: (Units=1/GPa)
#
#
# Indices 1 2 3 4 5 6 
#
# 1 0.021507 -0.005159 -0.019346 0.000000 -0.005539 0.000000
# 2 -0.005159 0.014238 0.000685 0.000000 0.002666 0.000000
# 3 -0.019346 0.000685 0.036176 0.000000 0.007948 0.000000
# 4 0.000000 0.000000 0.000000 0.039507 0.000000 0.006305
# 5 -0.005539 0.002666 0.007948 0.000000 0.039191 0.000000
# 6 0.000000 0.000000 0.000000 0.006305 0.000000 0.039497
#
#
# Mechanical properties :
#
#
# Convention : Reuss Voigt Hill
#
# Bulk Modulus (GPa) = 41.18786 51.37387 46.28087
# Shear Modulus (GPa) = 20.33770 24.94985 22.64378
#
# Velocity S-wave (km/s) = 3.11676 3.45212 3.28872
# Velocity P-wave (km/s) = 5.71186 6.35829 6.04372
#
# Compressibility (1/GPa) = 0.02427900
#
# Stress axis : x y z
#
# Youngs Moduli (GPa) = 46.49666 70.23618 27.64292
#
# Poissons Ratio (x) = 0.36236 0.53479
# Poissons Ratio (y) = 0.23988 -0.01893
# Poissons Ratio (z) = 0.89954 -0.04810
#
# Static dielectric constant tensor:
#      x y z
#    x 1.781240 0.000000 -0.047850 
#    y 0.000000 1.791360 0.000000 
#    z -0.047850 0.000000 1.815430 
# 
# From -- ./inp_files/247340.got.cif
#   From: 2010.05.17/outbox.cif.g08.bks.cpg/sg15_124_cif.got.tgz:247340.got - 2010.06.03 18:47:42.
