data_PCOD9285094
_publ_section_title
;
Structure prediction by ZEFSAII (Michael W. Deem and Ramdas Pophale) SiO2 
 PCOD9285094
Probable space group: C 2/C
;
_chemical_formula_sum "Si O2"
_cell_formula_units_Z 52
_cell_length_a 19.827804
_cell_length_b 16.131746
_cell_length_c 12.079199
_cell_angle_alpha 90.000000
_cell_angle_beta 39.598954
_cell_angle_gamma 90.000000
_cell_volume 2462.708157
_symmetry_space_group_name_H-M "C 2/C"
_symmetry_group_IT_number 15
_symmetry_cell_setting 'monoclinic'
loop_
_space_group_symop_operation_xyz
x,y,z
-x,y,1/2-z
-x,-y,-z
x,-y,1/2+z
1/2+x,1/2+y,z
1/2-x,1/2+y,1/2-z
1/2-x,1/2-y,-z
1/2+x,1/2-y,1/2+z
loop_
_atom_site_type_symbol
_atom_site_label
_atom_site_fract_x
_atom_site_fract_y
_atom_site_fract_z
Si Si1 0.364693 0.838127 0.295883
Si Si2 0.843742 0.235413 0.539588
Si Si3 0.985240 0.801884 0.521005
Si Si4 0.602294 0.022010 0.300143
Si Si5 0.000000 0.642432 0.250000
Si Si6 0.364558 0.282833 0.382414
Si Si7 0.716158 0.625624 0.324826
O O1 0.247959 0.818437 0.398967
O O2 0.380505 0.796133 0.394964
O O3 0.441839 0.789331 0.113154
O O4 0.373202 0.936182 0.291992
O O5 0.934845 0.180454 0.479046
O O6 0.790613 0.295919 0.698487
O O7 0.060804 0.799574 0.317030
O O8 0.883041 0.862354 0.635473
O O9 0.561531 0.089609 0.263371
O O10 0.698842 0.053317 0.256523
O O11 0.500000 0.000000 0.500000
O O12 0.088332 0.708812 0.101012
O O13 0.250000 0.250000 0.500000
O O14 0.345253 0.362127 0.481994
#
# Coordination Sequence:
#
# PCOD9285094 Si02
#       7
#     8   8   8   8   4   8   8
#     4  10  24  42  63  96 134 171 228 277 339 400
#     4  10  21  41  67  91 126 183 227 273 322 421
#     4  11  21  38  70  94 126 173 226 278 328 405
#     4  12  27  40  62  98 137 169 215 288 350 392
#     4  12  24  38  64  94 128 176 208 280 338 404
#     4  12  21  38  61  96 128 167 218 269 334 403
#     4  11  23  39  63  98 135 172 224 279 342 405
#
# _framework density 21.114967
#
# number of rings (size 3 to 8) (size 9 to 14) (size 15 to 20)
#    0.000    0.923    4.615    2.308    6.462    0.000 
#    0.000    0.769    0.000    9.231    0.000    0.000 
#    0.000    0.000    0.000    0.000    0.000    0.000 
#
# Total GULP energy -144858.739511 kJ/mol
# GULP energy per Si atom -5571.489981 kJ/mol
# Density = 2.106691 g / cm^3
# Si number density = 21.114967 Si / 1000 Ang^3
#
#
#
# Elastic Constant Matrix: (Units=GPa)
#
#
# Indices 1 2 3 4 5 6 
#
# 1 143.0946 11.6675 51.3581 0.0000 -23.8983 0.0000
# 2 11.6675 47.5649 37.2798 0.0000 -3.7582 0.0000
# 3 51.3581 37.2798 96.0731 0.0000 -8.6671 0.0000
# 4 0.0000 0.0000 0.0000 24.9115 0.0000 -14.5199
# 5 -23.8983 -3.7582 -8.6671 0.0000 40.5807 0.0000
# 6 0.0000 0.0000 0.0000 -14.5199 0.0000 0.5972
#
#
#
# Elastic Compliance Matrix: (Units=1/GPa)
#
#
# Indices 1 2 3 4 5 6 
#
# 1 0.009601 0.002452 -0.005662 0.000000 0.004672 0.000000
# 2 0.002452 0.030842 -0.013144 0.000000 0.001493 0.000000
# 3 -0.005662 -0.013144 0.018482 0.000000 -0.000605 0.000000
# 4 0.000000 0.000000 0.000000 -0.003048 0.000000 -0.074100
# 5 0.004672 0.001493 -0.000605 0.000000 0.027403 0.000000
# 6 0.000000 0.000000 0.000000 -0.074100 0.000000 -0.127132
#
#
# Mechanical properties :
#
#
# Convention : Reuss Voigt Hill
#
# Bulk Modulus (GPa) = 38.14467 54.14927 46.14697
# Shear Modulus (GPa) = -2079.14718 25.64636 -1026.75041
#
# Velocity S-wave (km/s) = -31.41364 3.48890 -22.07538
# Velocity P-wave (km/s) = 36.02293 6.47538 25.05714
#
# Compressibility (1/GPa) = 0.02621598
#
# Stress axis : x y z
#
# Youngs Moduli (GPa) = 104.15575 32.42311 54.10811
#
# Poissons Ratio (x) = -0.07950 0.30639
# Poissons Ratio (y) = -0.25540 0.71120
# Poissons Ratio (z) = 0.58978 0.42617
#
# Static dielectric constant tensor:
#      x y z
#    x 1.855650 0.000000 0.012200 
#    y 0.000000 1.822910 0.000000 
#    z 0.012200 0.000000 1.824670 
# 
# From -- ./inp_files/113633.got.cif
#   From: 2010.05.17/outbox.cif.g08.bks.cpg/sg15_57_cif.got.tgz:113633.got - 2010.06.03 18:47:42.
