data_PCOD9285858
_publ_section_title
;
Structure prediction by ZEFSAII (Michael W. Deem and Ramdas Pophale) SiO2 
 PCOD9285858
Probable space group: C 2/C
;
_chemical_formula_sum "Si O2"
_cell_formula_units_Z 48
_cell_length_a 8.049969
_cell_length_b 13.087159
_cell_length_c 20.118867
_cell_angle_alpha 90.000000
_cell_angle_beta 82.258248
_cell_angle_gamma 90.000000
_cell_volume 2100.228230
_symmetry_space_group_name_H-M "C 2/C"
_symmetry_group_IT_number 15
_symmetry_cell_setting 'monoclinic'
loop_
_space_group_symop_operation_xyz
x,y,z
-x,y,1/2-z
-x,-y,-z
x,-y,1/2+z
1/2+x,1/2+y,z
1/2-x,1/2+y,1/2-z
1/2-x,1/2-y,-z
1/2+x,1/2-y,1/2+z
loop_
_atom_site_type_symbol
_atom_site_label
_atom_site_fract_x
_atom_site_fract_y
_atom_site_fract_z
Si Si1 0.042576 0.116885 0.018070
Si Si2 0.254870 0.125433 0.376094
Si Si3 0.903522 0.355534 0.685300
Si Si4 0.185214 0.017991 0.759098
Si Si5 0.225021 0.727539 0.601644
Si Si6 0.091449 0.301512 0.305842
O O1 0.157763 0.164708 0.072639
O O2 0.855782 0.145879 0.053037
O O3 0.146767 0.168722 0.952892
O O4 0.000000 0.000000 0.000000
O O5 0.452603 0.110255 0.374183
O O6 0.221278 0.227230 0.334466
O O7 0.192466 0.030849 0.332910
O O8 0.749048 0.429719 0.705870
O O9 0.831371 0.251455 0.661424
O O10 0.000000 0.353695 0.750000
O O11 0.319740 0.104295 0.734141
O O12 0.000000 0.050909 0.750000
O O13 0.053980 0.671664 0.633002
O O14 0.000000 0.243578 0.250000
#
# Coordination Sequence:
#
# PCOD9285858 Si02
#       6
#     8   8   8   8   8   8
#     4  10  23  43  71  94 135 189 235 280 332 419
#     4  10  22  43  62  94 134 170 223 278 334 403
#     4  10  21  42  67  98 138 167 219 291 344 412
#     4  11  23  38  63  96 127 174 220 277 348 403
#     4  10  23  44  69  97 137 185 226 286 354 402
#     4  11  22  38  66  94 132 173 218 284 347 404
#
# _framework density 22.854659000000002
#
# number of rings (size 3 to 8) (size 9 to 14) (size 15 to 20)
#    0.000    1.667    0.000    6.000    4.667    4.000 
#    3.000    0.833    0.000    0.000    0.000    0.000 
#    0.000    0.000    0.000    0.000    0.000    0.000 
#
# Total GULP energy -133749.060490 kJ/mol
# GULP energy per Si atom -5572.877520 kJ/mol
# Density = 2.280264 g / cm^3
# Si number density = 22.854659 Si / 1000 Ang^3
#
#
#
# Elastic Constant Matrix: (Units=GPa)
#
#
# Indices 1 2 3 4 5 6 
#
# 1 96.4064 32.4565 33.6415 0.0000 -38.3681 0.0000
# 2 32.4565 91.5850 40.3203 0.0000 -9.2272 0.0000
# 3 33.6415 40.3203 92.3930 0.0000 -39.7309 0.0000
# 4 0.0000 0.0000 0.0000 24.1191 0.0000 0.0350
# 5 -38.3681 -9.2272 -39.7309 0.0000 42.7332 0.0000
# 6 0.0000 0.0000 0.0000 0.0350 0.0000 37.5777
#
#
#
# Elastic Compliance Matrix: (Units=1/GPa)
#
#
# Indices 1 2 3 4 5 6 
#
# 1 0.018905 -0.006706 0.004531 0.000000 0.019738 0.000000
# 2 -0.006706 0.016379 -0.009621 0.000000 -0.011429 0.000000
# 3 0.004531 -0.009621 0.023706 0.000000 0.024031 0.000000
# 4 0.000000 0.000000 0.000000 0.041461 0.000000 -0.000039
# 5 0.019738 -0.011429 0.024031 0.000000 0.060998 0.000000
# 6 0.000000 0.000000 0.000000 -0.000039 0.000000 0.026612
#
#
# Mechanical properties :
#
#
# Convention : Reuss Voigt Hill
#
# Bulk Modulus (GPa) = 28.25002 54.80232 41.52617
# Shear Modulus (GPa) = 22.37617 32.48373 27.42995
#
# Velocity S-wave (km/s) = 3.13239 3.77413 3.46814
# Velocity P-wave (km/s) = 5.04679 6.55917 5.85204
#
# Compressibility (1/GPa) = 0.03539820
#
# Stress axis : x y z
#
# Youngs Moduli (GPa) = 52.89689 61.05233 42.18314
#
# Poissons Ratio (x) = 0.40939 -0.19112
# Poissons Ratio (y) = 0.35470 0.40585
# Poissons Ratio (z) = -0.23966 0.58739
#
# Static dielectric constant tensor:
#      x y z
#    x 1.855050 0.000000 -0.022270 
#    y 0.000000 1.917150 0.000000 
#    z -0.022270 0.000000 1.919290 
# 
# From -- ./inp_files/263484.got.cif
#   From: 2010.05.17/outbox.cif.g08.bks.cpg/sg15_132_cif.got.tgz:263484.got - 2010.06.03 18:47:42.
