data_PCOD9285923
_publ_section_title
;
Structure prediction by ZEFSAII (Michael W. Deem and Ramdas Pophale) SiO2 
 PCOD9285923
Probable space group: C 2/C
;
_chemical_formula_sum "Si O2"
_cell_formula_units_Z 48
_cell_length_a 23.202565
_cell_length_b 5.737148
_cell_length_c 19.175918
_cell_angle_alpha 90.000000
_cell_angle_beta 124.943312
_cell_angle_gamma 90.000000
_cell_volume 2092.441325
_symmetry_space_group_name_H-M "C 2/C"
_symmetry_group_IT_number 15
_symmetry_cell_setting 'monoclinic'
loop_
_space_group_symop_operation_xyz
x,y,z
-x,y,1/2-z
-x,-y,-z
x,-y,1/2+z
1/2+x,1/2+y,z
1/2-x,1/2+y,1/2-z
1/2-x,1/2-y,-z
1/2+x,1/2-y,1/2+z
loop_
_atom_site_type_symbol
_atom_site_label
_atom_site_fract_x
_atom_site_fract_y
_atom_site_fract_z
Si Si1 0.406377 0.155619 0.900642
Si Si2 0.432311 0.057561 0.152363
Si Si3 0.274345 0.261868 0.735048
Si Si4 0.551351 0.770477 0.477063
Si Si5 0.216076 0.371797 0.409870
Si Si6 0.347050 0.367761 0.995599
O O1 0.354764 0.188969 0.802129
O O2 0.472668 0.321184 0.934359
O O3 0.363686 0.206428 0.941383
O O4 0.432821 0.898948 0.938532
O O5 0.500000 0.091310 0.250000
O O6 0.389186 0.281867 0.092938
O O7 0.456935 0.934546 0.097385
O O8 0.367222 0.911815 0.140556
O O9 0.262637 0.521623 0.760048
O O10 0.263439 0.268123 0.645201
O O11 0.614341 0.603776 0.500860
O O12 0.250000 0.250000 0.500000
O O13 0.263491 0.605805 0.440648
#
# Coordination Sequence:
#
# PCOD9285923 Si02
#       6
#     8   8   8   8   8   8
#     4  10  22  41  68 100 138 185 241 310 362 441
#     4  11  25  43  65 101 141 184 240 302 375 450
#     4  12  27  47  74 110 149 191 257 309 366 445
#     4  10  21  42  68  95 141 183 242 299 376 441
#     4  12  25  47  74 102 147 198 241 307 378 453
#     4  11  22  43  69 100 134 190 244 296 374 446
#
# _framework density 22.939710000000002
#
# number of rings (size 3 to 8) (size 9 to 14) (size 15 to 20)
#    0.000    1.000    3.333    3.000    2.333    2.000 
#    6.000    0.000    0.000    0.000    0.000    0.000 
#    0.000    0.000    0.000    0.000    0.000    0.000 
#
# Total GULP energy -133742.109817 kJ/mol
# GULP energy per Si atom -5572.587909 kJ/mol
# Density = 2.288750 g / cm^3
# Si number density = 22.939710 Si / 1000 Ang^3
#
#
#
# Elastic Constant Matrix: (Units=GPa)
#
#
# Indices 1 2 3 4 5 6 
#
# 1 105.3909 13.2195 28.6354 0.0001 2.8237 0.0006
# 2 13.2195 39.7909 5.7542 0.0007 -6.0796 0.0025
# 3 28.6354 5.7542 128.4744 0.0006 0.9586 0.0004
# 4 0.0001 0.0007 0.0006 25.9877 -0.0001 4.8584
# 5 2.8237 -6.0796 0.9586 -0.0001 47.3434 0.0003
# 6 0.0006 0.0025 0.0004 4.8584 0.0003 19.7255
#
#
#
# Elastic Compliance Matrix: (Units=1/GPa)
#
#
# Indices 1 2 3 4 5 6 
#
# 1 0.010529 -0.003336 -0.002190 0.000000 -0.001012 0.000000
# 2 -0.003336 0.026869 -0.000487 0.000000 0.003659 -0.000003
# 3 -0.002190 -0.000487 0.008294 0.000000 -0.000100 0.000000
# 4 0.000000 0.000000 0.000000 0.040337 0.000000 -0.009935
# 5 -0.001012 0.003659 -0.000100 0.000000 0.021655 -0.000001
# 6 0.000000 -0.000003 0.000000 -0.009935 -0.000001 0.053143
#
#
# Mechanical properties :
#
#
# Convention : Reuss Voigt Hill
#
# Bulk Modulus (GPa) = 29.70305 40.98605 35.34455
# Shear Modulus (GPa) = 27.16281 33.68113 30.42197
#
# Velocity S-wave (km/s) = 3.44480 3.83593 3.64561
# Velocity P-wave (km/s) = 5.36644 6.12574 5.75862
#
# Compressibility (1/GPa) = 0.03366658
#
# Stress axis : x y z
#
# Youngs Moduli (GPa) = 94.97551 37.21734 120.56466
#
# Poissons Ratio (x) = 0.12416 0.26402
# Poissons Ratio (y) = 0.31683 0.05874
# Poissons Ratio (z) = 0.20798 0.01813
#
# Static dielectric constant tensor:
#      x y z
#    x 1.929330 0.000000 0.001680 
#    y 0.000000 2.027250 0.000000 
#    z 0.001680 0.000000 1.874670 
# 
# From -- ./inp_files/254464.got.cif
#   From: 2010.05.17/outbox.cif.g08.bks.cpg/sg15_128_cif.got.tgz:254464.got - 2010.06.03 18:47:42.
