data_PCOD9285401
_publ_section_title
;
Structure prediction by ZEFSAII (Michael W. Deem and Ramdas Pophale) SiO2 
 PCOD9285401
Probable space group: C 2/C
;
_chemical_formula_sum "Si O2"
_cell_formula_units_Z 44
_cell_length_a 15.280430
_cell_length_b 7.770602
_cell_length_c 19.772938
_cell_angle_alpha 90.000000
_cell_angle_beta 125.665684
_cell_angle_gamma 90.000000
_cell_volume 1907.431442
_symmetry_space_group_name_H-M "C 2/C"
_symmetry_group_IT_number 15
_symmetry_cell_setting 'monoclinic'
loop_
_space_group_symop_operation_xyz
x,y,z
-x,y,1/2-z
-x,-y,-z
x,-y,1/2+z
1/2+x,1/2+y,z
1/2-x,1/2+y,1/2-z
1/2-x,1/2-y,-z
1/2+x,1/2-y,1/2+z
loop_
_atom_site_type_symbol
_atom_site_label
_atom_site_fract_x
_atom_site_fract_y
_atom_site_fract_z
Si Si1 0.597944 0.923004 0.504052
Si Si2 0.966398 0.060513 0.084607
Si Si3 0.702074 0.482683 0.657718
Si Si4 0.237723 0.910089 0.324518
Si Si5 0.500000 0.495935 0.750000
Si Si6 0.260375 0.061620 0.541068
O O1 0.556884 0.733295 0.467082
O O2 0.635460 0.009806 0.450116
O O3 0.500000 0.000000 0.500000
O O4 0.700042 0.958035 0.598782
O O5 0.074573 0.973856 0.105551
O O6 0.985119 0.102605 0.172246
O O7 0.851829 0.964077 0.026107
O O8 0.712388 0.279254 0.649218
O O9 0.747949 0.527764 0.751767
O O10 0.762948 0.570834 0.622711
O O11 0.111731 0.902882 0.288332
O O12 0.250000 0.250000 0.500000
#
# Coordination Sequence:
#
# PCOD9285401 Si02
#       6
#     8   8   8   8   4   8
#     4  11  22  44  65  99 134 178 224 285 334 399
#     4  10  21  41  73  97 134 178 226 278 339 418
#     4  11  25  44  69 102 135 182 222 284 345 408
#     4  11  25  45  67  98 143 176 231 283 341 411
#     4  10  22  44  66 102 134 186 230 278 344 404
#     4  10  23  42  69  97 131 175 228 277 340 405
#
# _framework density 23.067671000000001
#
# number of rings (size 3 to 8) (size 9 to 14) (size 15 to 20)
#    0.000    1.455    3.636    0.545    5.091    2.182 
#    3.273    0.000    0.000    0.000    0.000    0.000 
#    0.000    0.000    0.000    0.000    0.000    0.000 
#
# Total GULP energy -122769.809183 kJ/mol
# GULP energy per Si atom -5580.445872 kJ/mol
# Density = 2.301517 g / cm^3
# Si number density = 23.067671 Si / 1000 Ang^3
#
#
#
# Elastic Constant Matrix: (Units=GPa)
#
#
# Indices 1 2 3 4 5 6 
#
# 1 186.7643 6.4326 50.1637 0.0000 -30.0489 0.0000
# 2 6.4326 52.2516 14.1237 0.0000 -20.5258 0.0000
# 3 50.1637 14.1237 101.4795 0.0000 -40.5813 0.0000
# 4 0.0000 0.0000 0.0000 29.7733 0.0000 -6.7036
# 5 -30.0489 -20.5258 -40.5813 0.0000 56.9600 0.0000
# 6 0.0000 0.0000 0.0000 -6.7036 0.0000 12.7466
#
#
#
# Elastic Compliance Matrix: (Units=1/GPa)
#
#
# Indices 1 2 3 4 5 6 
#
# 1 0.006284 0.000588 -0.002486 0.000000 0.001756 0.000000
# 2 0.000588 0.022351 -0.000079 0.000000 0.008308 0.000000
# 3 -0.002486 -0.000079 0.014765 0.000000 0.009179 0.000000
# 4 0.000000 0.000000 0.000000 0.038098 0.000000 0.020036
# 5 0.001756 0.008308 0.009179 0.000000 0.028016 0.000000
# 6 0.000000 0.000000 0.000000 0.020036 0.000000 0.088990
#
#
# Mechanical properties :
#
#
# Convention : Reuss Voigt Hill
#
# Bulk Modulus (GPa) = 25.35118 53.54839 39.44979
# Shear Modulus (GPa) = 23.19028 37.88099 30.53564
#
# Velocity S-wave (km/s) = 3.17411 4.05676 3.64227
# Velocity P-wave (km/s) = 4.94440 6.72362 5.90145
#
# Compressibility (1/GPa) = 0.03944589
#
# Stress axis : x y z
#
# Youngs Moduli (GPa) = 159.12483 44.74119 67.72796
#
# Poissons Ratio (x) = -0.02631 0.16838
# Poissons Ratio (y) = -0.09359 0.00535
# Poissons Ratio (z) = 0.39561 0.00354
#
# Static dielectric constant tensor:
#      x y z
#    x 2.025260 0.000000 0.020870 
#    y 0.000000 1.906530 0.000000 
#    z 0.020870 0.000000 1.889220 
# 
# From -- ./inp_files/202794.got.cif
#   From: 2010.05.17/outbox.cif.g08.bks.cpg/sg15_102_cif.got.tgz:202794.got - 2010.06.03 18:47:42.
