data_PCOD9285194
_publ_section_title
;
Structure prediction by ZEFSAII (Michael W. Deem and Ramdas Pophale) SiO2 
 PCOD9285194
Probable space group: C 2/C
;
_chemical_formula_sum "Si O2"
_cell_formula_units_Z 32
_cell_length_a 11.736887
_cell_length_b 7.932073
_cell_length_c 32.001240
_cell_angle_alpha 90.000000
_cell_angle_beta 152.871077
_cell_angle_gamma 90.000000
_cell_volume 1358.519198
_symmetry_space_group_name_H-M "C 2/C"
_symmetry_group_IT_number 15
_symmetry_cell_setting 'monoclinic'
loop_
_space_group_symop_operation_xyz
x,y,z
-x,y,1/2-z
-x,-y,-z
x,-y,1/2+z
1/2+x,1/2+y,z
1/2-x,1/2+y,1/2-z
1/2-x,1/2-y,-z
1/2+x,1/2-y,1/2+z
loop_
_atom_site_type_symbol
_atom_site_label
_atom_site_fract_x
_atom_site_fract_y
_atom_site_fract_z
Si Si1 0.451755 0.886093 0.165137
Si Si2 0.764696 0.364688 0.319729
Si Si3 0.172736 0.987218 0.152549
Si Si4 0.169197 0.594269 0.022390
O O1 0.612426 0.962024 0.178964
O O2 0.243955 0.973951 0.126997
O O3 0.670604 0.849740 0.270326
O O4 0.308259 0.737963 0.094241
O O5 0.500000 0.432145 0.250000
O O6 0.976902 0.348154 0.424237
O O7 0.722786 0.166405 0.295449
O O8 0.883445 0.984540 0.069727
O O9 0.000000 0.500000 0.000000
#
# Coordination Sequence:
#
# PCOD9285194 Si02
#       4
#     8   8   8   8
#     4  10  21  41  68  92 132 177 220 270 343 390
#     4  11  22  42  67  96 134 179 221 281 329 389
#     4  10  21  44  65  98 132 174 226 270 336 401
#     4  11  25  42  64 103 135 172 232 272 333 406
#
# _framework density 23.555057999999999
#
# number of rings (size 3 to 8) (size 9 to 14) (size 15 to 20)
#    0.000    1.500    2.500    4.500    0.000    5.000 
#   22.500    0.000    0.000    0.000    0.000    0.000 
#    0.000    0.000    0.000    0.000    0.000    0.000 
#
# Total GULP energy -89210.280632 kJ/mol
# GULP energy per Si atom -5575.642539 kJ/mol
# Density = 2.350145 g / cm^3
# Si number density = 23.555058 Si / 1000 Ang^3
#
#
#
# Elastic Constant Matrix: (Units=GPa)
#
#
# Indices 1 2 3 4 5 6 
#
# 1 264.1437 52.6490 76.2288 0.0001 29.6469 0.0000
# 2 52.6490 36.8280 33.6026 -0.0002 -3.7788 0.0001
# 3 76.2288 33.6026 152.3675 -0.0011 15.7359 0.0005
# 4 0.0001 -0.0002 -0.0011 -42.0844 0.0003 32.0297
# 5 29.6469 -3.7788 15.7359 0.0003 58.0673 -0.0001
# 6 0.0000 0.0001 0.0005 32.0297 -0.0001 20.3763
#
#
#
# Elastic Compliance Matrix: (Units=1/GPa)
#
#
# Indices 1 2 3 4 5 6 
#
# 1 0.006053 -0.008209 -0.000868 0.000000 -0.003389 0.000000
# 2 -0.008209 0.046238 -0.007031 0.000000 0.009106 0.000000
# 3 -0.000868 -0.007031 0.008795 0.000000 -0.002398 0.000000
# 4 0.000000 0.000000 0.000000 -0.010819 0.000000 0.017006
# 5 -0.003389 0.009106 -0.002398 0.000000 0.020194 0.000000
# 6 0.000000 0.000000 0.000000 0.017006 0.000000 0.022345
#
#
# Mechanical properties :
#
#
# Convention : Reuss Voigt Hill
#
# Bulk Modulus (GPa) = 34.63641 86.47779 60.55710
# Shear Modulus (GPa) = 37.13458 26.66244 31.89851
#
# Velocity S-wave (km/s) = 3.97483 3.36805 3.68395
# Velocity P-wave (km/s) = 5.98348 7.20540 6.62268
#
# Compressibility (1/GPa) = 0.02887135
#
# Stress axis : x y z
#
# Youngs Moduli (GPa) = 165.20931 21.62718 113.69619
#
# Poissons Ratio (x) = 0.17754 0.09866
# Poissons Ratio (y) = 1.35624 0.79935
# Poissons Ratio (z) = 0.14336 0.15205
#
# Static dielectric constant tensor:
#      x y z
#    x 1.971060 0.000000 -0.012000 
#    y 0.000000 2.048050 0.000000 
#    z -0.012000 0.000000 2.030670 
# 
# From -- ./inp_files/140721.got.cif
#   From: 2010.05.17/outbox.cif.g08.bks.cpg/sg15_71_cif.got.tgz:140721.got - 2010.06.03 18:47:42.
