data_PCOD9285553
_publ_section_title
;
Structure prediction by ZEFSAII (Michael W. Deem and Ramdas Pophale) SiO2 
 PCOD9285553
Probable space group: C 2/C
;
_chemical_formula_sum "Si O2"
_cell_formula_units_Z 40
_cell_length_a 4.977682
_cell_length_b 28.589406
_cell_length_c 12.694381
_cell_angle_alpha 90.000000
_cell_angle_beta 104.277082
_cell_angle_gamma 90.000000
_cell_volume 1750.728813
_symmetry_space_group_name_H-M "C 2/C"
_symmetry_group_IT_number 15
_symmetry_cell_setting 'monoclinic'
loop_
_space_group_symop_operation_xyz
x,y,z
-x,y,1/2-z
-x,-y,-z
x,-y,1/2+z
1/2+x,1/2+y,z
1/2-x,1/2+y,1/2-z
1/2-x,1/2-y,-z
1/2+x,1/2-y,1/2+z
loop_
_atom_site_type_symbol
_atom_site_label
_atom_site_fract_x
_atom_site_fract_y
_atom_site_fract_z
Si Si1 0.895876 0.296011 0.859552
Si Si2 0.434928 0.656075 0.447134
Si Si3 0.669788 0.038801 0.874542
Si Si4 0.792566 0.187894 0.825527
Si Si5 0.232035 0.439567 0.988378
O O1 0.637785 0.326627 0.874432
O O2 0.803409 0.242350 0.861632
O O3 0.000000 0.304205 0.750000
O O4 0.179307 0.308666 0.947114
O O5 0.622546 0.656991 0.568700
O O6 0.297990 0.605420 0.424010
O O7 0.500000 0.045637 0.750000
O O8 0.518210 0.066704 0.954251
O O9 0.996035 0.050319 0.913170
O O10 0.661427 0.984250 0.909608
O O11 0.500000 0.175861 0.750000
O O12 0.000000 0.182644 0.750000
#
# Coordination Sequence:
#
# PCOD9285553 Si02
#       5
#     8   8   8   8   8
#     4  11  23  41  61  88 125 170 214 256 314 373
#     4  12  23  40  64  92 126 160 207 271 314 356
#     4  10  21  42  64  86 125 164 193 246 313 374
#     4  11  23  40  61  90 126 170 217 256 310 375
#     4  10  23  39  62  96 120 154 210 247 302 386
#
# _framework density 22.847629000000001
#
# number of rings (size 3 to 8) (size 9 to 14) (size 15 to 20)
#    0.000    1.200    0.000    7.200    0.000    3.200 
#    0.000    6.000    0.000    0.000    0.000    0.000 
#    0.000    0.000    0.000    0.000    0.000    0.000 
#
# Total GULP energy -111909.130598 kJ/mol
# GULP energy per Si atom -5595.456530 kJ/mol
# Density = 2.279563 g / cm^3
# Si number density = 22.847629 Si / 1000 Ang^3
#
#
#
# Elastic Constant Matrix: (Units=GPa)
#
#
# Indices 1 2 3 4 5 6 
#
# 1 104.1229 13.3302 -1.8935 0.0000 -0.3440 0.0000
# 2 13.3302 83.0190 12.8956 0.0000 -29.6016 0.0000
# 3 -1.8935 12.8956 33.9302 0.0000 2.5643 0.0000
# 4 0.0000 0.0000 0.0000 -36.1648 0.0000 -16.2120
# 5 -0.3440 -29.6016 2.5643 0.0000 44.8133 0.0000
# 6 0.0000 0.0000 0.0000 -16.2120 0.0000 32.1132
#
#
#
# Elastic Compliance Matrix: (Units=1/GPa)
#
#
# Indices 1 2 3 4 5 6 
#
# 1 0.009937 -0.002418 0.001596 0.000000 -0.001613 0.000000
# 2 -0.002418 0.018082 -0.007943 0.000000 0.012380 0.000000
# 3 0.001596 -0.007943 0.033119 0.000000 -0.007130 0.000000
# 4 0.000000 0.000000 0.000000 -0.022548 0.000000 -0.011383
# 5 -0.001613 0.012380 -0.007130 0.000000 0.030888 0.000000
# 6 0.000000 0.000000 0.000000 -0.011383 0.000000 0.025393
#
#
# Mechanical properties :
#
#
# Convention : Reuss Voigt Hill
#
# Bulk Modulus (GPa) = 22.93224 29.97076 26.45150
# Shear Modulus (GPa) = 39.38937 21.26832 30.32884
#
# Velocity S-wave (km/s) = 4.15662 3.05434 3.64736
# Velocity P-wave (km/s) = 5.75286 5.05814 5.41665
#
# Compressibility (1/GPa) = 0.04360673
#
# Stress axis : x y z
#
# Youngs Moduli (GPa) = 100.63056 55.30428 30.19421
#
# Poissons Ratio (x) = 0.13375 -0.04818
# Poissons Ratio (y) = 0.24337 0.23983
# Poissons Ratio (z) = -0.16056 0.43927
#
# Static dielectric constant tensor:
#      x y z
#    x 1.815510 0.000000 0.032490 
#    y 0.000000 1.858440 0.000000 
#    z 0.032490 0.000000 1.851230 
# 
# From -- ./inp_files/73346.got.cif
#   From: 2010.05.17/outbox.cif.g08.bks.cpg/sg15_37_cif.got.tgz:73346.got - 2010.06.03 18:47:42.
