data_PCOD9285644
_publ_section_title
;
Structure prediction by ZEFSAII (Michael W. Deem and Ramdas Pophale) SiO2 
 PCOD9285644
Probable space group: C 2/C
;
_chemical_formula_sum "Si O2"
_cell_formula_units_Z 44
_cell_length_a 8.767739
_cell_length_b 28.541510
_cell_length_c 11.907016
_cell_angle_alpha 90.000000
_cell_angle_beta 42.791140
_cell_angle_gamma 90.000000
_cell_volume 2024.169637
_symmetry_space_group_name_H-M "C 2/C"
_symmetry_group_IT_number 15
_symmetry_cell_setting 'monoclinic'
loop_
_space_group_symop_operation_xyz
x,y,z
-x,y,1/2-z
-x,-y,-z
x,-y,1/2+z
1/2+x,1/2+y,z
1/2-x,1/2+y,1/2-z
1/2-x,1/2-y,-z
1/2+x,1/2-y,1/2+z
loop_
_atom_site_type_symbol
_atom_site_label
_atom_site_fract_x
_atom_site_fract_y
_atom_site_fract_z
Si Si1 0.061987 0.832466 0.588968
Si Si2 0.447846 0.815124 0.108386
Si Si3 0.000000 0.016036 0.750000
Si Si4 0.661302 0.437702 0.512644
Si Si5 0.337259 0.226592 0.233177
Si Si6 0.855267 0.577003 0.661895
O O1 0.325387 0.820071 0.439115
O O2 0.036527 0.888129 0.591677
O O3 0.000000 0.818925 0.750000
O O4 0.876601 0.805689 0.617704
O O5 0.274671 0.775748 0.240553
O O6 0.341820 0.866788 0.159665
O O7 0.532077 0.798092 0.939871
O O8 0.783445 0.049191 0.856029
O O9 0.022316 0.981500 0.631641
O O10 0.749412 0.438356 0.338229
O O11 0.881748 0.434931 0.473259
O O12 0.500000 0.233192 0.250000
#
# Coordination Sequence:
#
# PCOD9285644 Si02
#       6
#     8   8   4   8   8   8
#     4   9  19  39  62  88 121 166 218 252 304 369
#     4  10  23  41  61  90 131 171 208 256 305 385
#     4  12  22  40  72  92 124 164 212 262 324 372
#     4  10  21  42  65  90 127 165 209 260 310 384
#     4  11  23  38  62  91 129 167 212 258 312 364
#     4  10  24  40  63  95 130 163 207 263 318 365
#
# _framework density 21.737307000000001
#
# number of rings (size 3 to 8) (size 9 to 14) (size 15 to 20)
#    0.000    1.818    0.909    2.182    3.818    1.455 
#    6.545    0.000    0.000    0.000    0.000    0.000 
#    0.000    0.000    0.000    0.000    0.000    0.000 
#
# Total GULP energy -122996.231904 kJ/mol
# GULP energy per Si atom -5590.737814 kJ/mol
# Density = 2.168783 g / cm^3
# Si number density = 21.737307 Si / 1000 Ang^3
#
#
#
# Elastic Constant Matrix: (Units=GPa)
#
#
# Indices 1 2 3 4 5 6 
#
# 1 77.6862 73.3609 5.1334 0.0000 -11.7039 0.0000
# 2 73.3609 172.7201 39.2997 0.0000 -19.8242 0.0000
# 3 5.1334 39.2997 79.2299 0.0000 -4.1145 0.0000
# 4 0.0000 0.0000 0.0000 32.5410 0.0000 -19.7677
# 5 -11.7039 -19.8242 -4.1145 0.0000 20.3591 0.0000
# 6 0.0000 0.0000 0.0000 -19.7677 0.0000 19.6682
#
#
#
# Elastic Compliance Matrix: (Units=1/GPa)
#
#
# Indices 1 2 3 4 5 6 
#
# 1 0.022700 -0.010022 0.003710 0.000000 0.004041 0.000000
# 2 -0.010022 0.011696 -0.004911 0.000000 0.004635 0.000000
# 3 0.003710 -0.004911 0.014835 0.000000 0.000349 0.000000
# 4 0.000000 0.000000 0.000000 0.078906 0.000000 0.079305
# 5 0.004041 0.004635 0.000349 0.000000 0.056024 0.000000
# 6 0.000000 0.000000 0.000000 0.079305 0.000000 0.130550
#
#
# Mechanical properties :
#
#
# Convention : Reuss Voigt Hill
#
# Bulk Modulus (GPa) = 37.33460 62.80270 50.06865
# Shear Modulus (GPa) = 14.44729 28.63648 21.54188
#
# Velocity S-wave (km/s) = 2.58084 3.63352 3.15145
# Velocity P-wave (km/s) = 5.10819 6.82332 6.02708
#
# Compressibility (1/GPa) = 0.02678481
#
# Stress axis : x y z
#
# Youngs Moduli (GPa) = 44.05327 85.50043 67.40649
#
# Poissons Ratio (x) = 0.85688 -0.25009
# Poissons Ratio (y) = 0.44150 0.33106
# Poissons Ratio (z) = -0.16344 0.41992
#
# Static dielectric constant tensor:
#      x y z
#    x 1.781490 0.000000 -0.007590 
#    y 0.000000 1.769950 0.000000 
#    z -0.007590 0.000000 1.845240 
# 
# From -- ./inp_files/25565.got.cif
#   From: 2010.05.17/outbox.cif.g08.bks.cpg/sg15_13_cif.got.tgz:25565.got - 2010.06.03 18:47:42.
