data_PCOD9285387
_publ_section_title
;
Structure prediction by ZEFSAII (Michael W. Deem and Ramdas Pophale) SiO2 
 PCOD9285387
Probable space group: C 2/C
;
_chemical_formula_sum "Si O2"
_cell_formula_units_Z 48
_cell_length_a 29.193879
_cell_length_b 5.234849
_cell_length_c 20.235873
_cell_angle_alpha 90.000000
_cell_angle_beta 37.589116
_cell_angle_gamma 90.000000
_cell_volume 1886.444065
_symmetry_space_group_name_H-M "C 2/C"
_symmetry_group_IT_number 15
_symmetry_cell_setting 'monoclinic'
loop_
_space_group_symop_operation_xyz
x,y,z
-x,y,1/2-z
-x,-y,-z
x,-y,1/2+z
1/2+x,1/2+y,z
1/2-x,1/2+y,1/2-z
1/2-x,1/2-y,-z
1/2+x,1/2-y,1/2+z
loop_
_atom_site_type_symbol
_atom_site_label
_atom_site_fract_x
_atom_site_fract_y
_atom_site_fract_z
Si Si1 0.536603 0.299862 0.405368
Si Si2 0.751906 0.441544 0.059405
Si Si3 0.475497 0.610937 0.360879
Si Si4 0.269759 0.752207 0.186274
Si Si5 0.118798 0.217612 0.144259
Si Si6 0.592480 0.924777 0.954574
O O1 0.500000 0.500000 0.500000
O O2 0.528179 0.424197 0.343605
O O3 0.489893 0.042677 0.451226
O O4 0.608673 0.203464 0.364662
O O5 0.748462 0.306077 0.134265
O O6 0.678267 0.616473 0.130212
O O7 0.750000 0.250000 0.000000
O O8 0.828780 0.599733 0.960000
O O9 0.540566 0.816528 0.265222
O O10 0.423634 0.522410 0.358453
O O11 0.413286 0.719998 0.481719
O O12 0.260515 0.472159 0.228052
O O13 0.356617 0.835690 0.088915
#
# Coordination Sequence:
#
# PCOD9285387 Si02
#       6
#     8   8   8   8   8   8
#     4   9  21  37  65  95 136 181 232 314 383 449
#     4  11  27  48  73 104 158 205 259 317 388 468
#     4  10  21  41  72 102 141 185 256 316 388 458
#     4  12  31  49  80 113 155 209 264 319 392 472
#     4  10  24  43  70 105 142 197 255 316 384 466
#     4  10  22  42  66 101 145 189 247 320 385 462
#
# _framework density 25.444697999999999
#
# number of rings (size 3 to 8) (size 9 to 14) (size 15 to 20)
#    0.000    1.667    1.667    0.000   14.000    4.000 
#    0.000    3.333    0.000    0.000    0.000    0.000 
#    0.000    0.000    0.000    0.000    0.000    0.000 
#
# Total GULP energy -133628.762542 kJ/mol
# GULP energy per Si atom -5567.865106 kJ/mol
# Density = 2.538678 g / cm^3
# Si number density = 25.444698 Si / 1000 Ang^3
#
#
#
# Elastic Constant Matrix: (Units=GPa)
#
#
# Indices 1 2 3 4 5 6 
#
# 1 178.5216 26.4496 51.7420 0.0749 26.3945 0.0274
# 2 26.4496 41.4693 13.9724 0.0561 0.4784 -0.0434
# 3 51.7420 13.9724 95.9385 0.0048 5.7234 -0.0475
# 4 0.0749 0.0561 0.0048 24.1980 0.0272 -1.1298
# 5 26.3945 0.4784 5.7234 0.0272 29.1722 0.0279
# 6 0.0274 -0.0434 -0.0475 -1.1298 0.0279 36.7104
#
#
#
# Elastic Compliance Matrix: (Units=1/GPa)
#
#
# Indices 1 2 3 4 5 6 
#
# 1 0.008168 -0.003978 -0.003429 -0.000008 -0.006653 -0.000010
# 2 -0.003978 0.027298 -0.002042 -0.000053 0.003552 0.000028
# 3 -0.003429 -0.002042 0.012530 0.000013 0.000678 0.000016
# 4 -0.000008 -0.000053 0.000013 0.041385 -0.000034 0.001274
# 5 -0.006653 0.003552 0.000678 -0.000034 0.040107 -0.000021
# 6 -0.000010 0.000028 0.000016 0.001274 -0.000021 0.027279
#
#
# Mechanical properties :
#
#
# Convention : Reuss Voigt Hill
#
# Bulk Modulus (GPa) = 34.36647 55.58415 44.97531
# Shear Modulus (GPa) = 26.97355 32.93382 29.95368
#
# Velocity S-wave (km/s) = 3.25943 3.60158 3.43477
# Velocity P-wave (km/s) = 5.26316 6.26001 5.78310
#
# Compressibility (1/GPa) = 0.02909813
#
# Stress axis : x y z
#
# Youngs Moduli (GPa) = 122.42279 36.63206 79.80961
#
# Poissons Ratio (x) = 0.14571 0.27369
# Poissons Ratio (y) = 0.48696 0.16300
# Poissons Ratio (z) = 0.41982 0.07481
#
# Static dielectric constant tensor:
#      x y z
#    x 2.146580 -0.000510 0.102220 
#    y -0.000510 2.067620 -0.000370 
#    z 0.102220 -0.000370 2.190620 
# 
# From -- ./inp_files/258542.got.cif
#   From: 2010.05.17/outbox.cif.g08.bks.cpg/sg15_130_cif.got.tgz:258542.got - 2010.06.03 18:47:42.
