data_PCOD9285754
_publ_section_title
;
Structure prediction by ZEFSAII (Michael W. Deem and Ramdas Pophale) SiO2 
 PCOD9285754
Probable space group: C 2/C
;
_chemical_formula_sum "Si O2"
_cell_formula_units_Z 56
_cell_length_a 10.479164
_cell_length_b 26.694778
_cell_length_c 11.980171
_cell_angle_alpha 90.000000
_cell_angle_beta 47.361018
_cell_angle_gamma 90.000000
_cell_volume 2465.353356
_symmetry_space_group_name_H-M "C 2/C"
_symmetry_group_IT_number 15
_symmetry_cell_setting 'monoclinic'
loop_
_space_group_symop_operation_xyz
x,y,z
-x,y,1/2-z
-x,-y,-z
x,-y,1/2+z
1/2+x,1/2+y,z
1/2-x,1/2+y,1/2-z
1/2-x,1/2-y,-z
1/2+x,1/2-y,1/2+z
loop_
_atom_site_type_symbol
_atom_site_label
_atom_site_fract_x
_atom_site_fract_y
_atom_site_fract_z
Si Si1 0.650078 0.142665 0.083833
Si Si2 0.670328 0.629671 0.306362
Si Si3 0.715497 0.391767 0.433772
Si Si4 0.650900 0.211223 0.726055
Si Si5 0.692806 0.572971 0.690854
Si Si6 0.289696 0.539238 0.362254
Si Si7 0.441545 0.789173 0.573648
O O1 0.500000 0.118410 0.250000
O O2 0.808107 0.142931 0.075830
O O3 0.571227 0.196396 0.096992
O O4 0.694574 0.112357 0.946782
O O5 0.466919 0.627053 0.407042
O O6 0.739700 0.575599 0.225489
O O7 0.787503 0.669834 0.172934
O O8 0.821010 0.341083 0.353418
O O9 0.689550 0.415313 0.325200
O O10 0.780843 0.432743 0.484893
O O11 0.500000 0.241413 0.750000
O O12 0.835642 0.237914 0.630675
O O13 0.563475 0.204690 0.896348
O O14 0.500000 0.575616 0.750000
O O15 0.767141 0.517393 0.624807
O O16 0.500000 0.535429 0.250000
#
# Coordination Sequence:
#
# PCOD9285754 Si02
#       7
#     8   8   8   8   8   8   8
#     4  10  22  42  63  91 139 177 217 280 340 407
#     4  10  21  42  66  94 139 182 221 284 337 405
#     4  11  22  41  68 102 137 178 233 287 335 408
#     4  12  25  43  69  95 135 175 226 291 347 410
#     4  11  21  39  68  99 133 184 230 282 337 401
#     4   9  22  36  65 102 136 178 235 278 335 410
#     4  11  24  44  66  99 128 178 231 276 352 409
#
# _framework density 22.714796
#
# number of rings (size 3 to 8) (size 9 to 14) (size 15 to 20)
#    0.000    1.429    2.857    2.143    2.000    3.429 
#    0.000   18.571    0.000    0.000    0.000    0.000 
#    0.000    0.000    0.000    0.000    0.000    0.000 
#
# Total GULP energy -156289.256687 kJ/mol
# GULP energy per Si atom -5581.759167 kJ/mol
# Density = 2.266310 g / cm^3
# Si number density = 22.714796 Si / 1000 Ang^3
#
#
#
# Elastic Constant Matrix: (Units=GPa)
#
#
# Indices 1 2 3 4 5 6 
#
# 1 68.3247 28.2117 7.5469 0.0000 15.3051 0.0000
# 2 28.2117 101.3275 27.3260 0.0000 -3.1645 0.0000
# 3 7.5469 27.3260 114.9730 0.0000 8.0209 0.0000
# 4 0.0000 0.0000 0.0000 4.7713 0.0000 -28.9741
# 5 15.3051 -3.1645 8.0209 0.0000 29.9322 0.0000
# 6 0.0000 0.0000 0.0000 -28.9741 0.0000 -26.6195
#
#
#
# Elastic Compliance Matrix: (Units=1/GPa)
#
#
# Indices 1 2 3 4 5 6 
#
# 1 0.019432 -0.005991 0.000903 0.000000 -0.010811 0.000000
# 2 -0.005991 0.012490 -0.002936 0.000000 0.005171 0.000000
# 3 0.000903 -0.002936 0.009569 0.000000 -0.003336 0.000000
# 4 0.000000 0.000000 0.000000 0.027542 0.000000 -0.029978
# 5 -0.010811 0.005171 -0.003336 0.000000 0.040378 0.000000
# 6 0.000000 0.000000 0.000000 -0.029978 0.000000 -0.004937
#
#
# Mechanical properties :
#
#
# Convention : Reuss Voigt Hill
#
# Bulk Modulus (GPa) = 39.30528 45.64382 42.47455
# Shear Modulus (GPa) = 38.75837 16.38618 27.57228
#
# Velocity S-wave (km/s) = 4.13523 2.68878 3.48781
# Velocity P-wave (km/s) = 6.33573 5.45686 5.91265
#
# Compressibility (1/GPa) = 0.02544188
#
# Stress axis : x y z
#
# Youngs Moduli (GPa) = 51.46161 80.06148 104.50400
#
# Poissons Ratio (x) = 0.47968 -0.09434
# Poissons Ratio (y) = 0.30832 0.30683
# Poissons Ratio (z) = -0.04645 0.23507
#
# Static dielectric constant tensor:
#      x y z
#    x 1.945620 0.000000 0.033650 
#    y 0.000000 1.854740 0.000000 
#    z 0.033650 0.000000 1.834950 
# 
# From -- ./inp_files/91995.got.cif
#   From: 2010.05.17/outbox.cif.g08.bks.cpg/sg15_46_cif.got.tgz:91995.got - 2010.06.03 18:47:42.
