data_PCOD9285000
_publ_section_title
;
Structure prediction by ZEFSAII (Michael W. Deem and Ramdas Pophale) SiO2 
 PCOD9285000
Probable space group: C 2/C
;
_chemical_formula_sum "Si O2"
_cell_formula_units_Z 40
_cell_length_a 16.748714
_cell_length_b 8.238362
_cell_length_c 24.760086
_cell_angle_alpha 90.000000
_cell_angle_beta 31.895183
_cell_angle_gamma 90.000000
_cell_volume 1805.136872
_symmetry_space_group_name_H-M "C 2/C"
_symmetry_group_IT_number 15
_symmetry_cell_setting 'monoclinic'
loop_
_space_group_symop_operation_xyz
x,y,z
-x,y,1/2-z
-x,-y,-z
x,-y,1/2+z
1/2+x,1/2+y,z
1/2-x,1/2+y,1/2-z
1/2-x,1/2-y,-z
1/2+x,1/2-y,1/2+z
loop_
_atom_site_type_symbol
_atom_site_label
_atom_site_fract_x
_atom_site_fract_y
_atom_site_fract_z
Si Si1 0.323451 0.885189 0.834082
Si Si2 0.646301 0.909402 0.393155
Si Si3 0.238324 0.940150 0.489124
Si Si4 0.944661 0.428311 0.171776
Si Si5 0.545676 0.413954 0.784313
O O1 0.500000 0.853711 0.750000
O O2 0.215253 0.729813 0.891675
O O3 0.256143 0.012618 0.916210
O O4 0.333817 0.952777 0.766994
O O5 0.602550 0.854356 0.357948
O O6 0.500000 0.000000 0.500000
O O7 0.784562 0.031672 0.304370
O O8 0.250000 0.750000 0.500000
O O9 0.390511 0.011509 0.428620
O O10 0.078401 0.994030 0.605008
O O11 0.961821 0.278826 0.203115
O O12 0.500000 0.454476 0.750000
#
# Coordination Sequence:
#
# PCOD9285000 Si02
#       5
#     8   8   8   8   8
#     4  10  22  42  68  94 126 171 219 264 322 393
#     4  12  26  41  58  93 135 169 209 268 326 379
#     4   9  19  39  68  96 120 161 218 271 322 388
#     4  10  21  41  66  93 123 162 214 268 319 382
#     4  11  22  41  65  90 122 165 210 259 319 386
#
# _framework density 22.158985000000001
#
# number of rings (size 3 to 8) (size 9 to 14) (size 15 to 20)
#    0.000    1.600    0.000    6.000    0.000    4.800 
#    0.000   11.000    0.000    0.000    0.000    0.000 
#    0.000    0.000    0.000    0.000    0.000    0.000 
#
# Total GULP energy -111587.172646 kJ/mol
# GULP energy per Si atom -5579.358632 kJ/mol
# Density = 2.210855 g / cm^3
# Si number density = 22.158985 Si / 1000 Ang^3
#
#
#
# Elastic Constant Matrix: (Units=GPa)
#
#
# Indices 1 2 3 4 5 6 
#
# 1 76.4666 12.8332 53.2083 0.0000 14.5343 0.0000
# 2 12.8332 66.8727 54.2588 0.0000 3.8370 0.0000
# 3 53.2083 54.2588 194.1571 -0.0001 -13.2388 0.0001
# 4 0.0000 0.0000 -0.0001 25.8110 0.0000 -7.7522
# 5 14.5343 3.8370 -13.2388 0.0000 33.9321 0.0000
# 6 0.0000 0.0000 0.0001 -7.7522 0.0000 15.9474
#
#
#
# Elastic Compliance Matrix: (Units=1/GPa)
#
#
# Indices 1 2 3 4 5 6 
#
# 1 0.019557 0.002418 -0.006806 0.000000 -0.011306 0.000000
# 2 0.002418 0.020303 -0.006743 0.000000 -0.005962 0.000000
# 3 -0.006806 -0.006743 0.009401 0.000000 0.007346 0.000000
# 4 0.000000 0.000000 0.000000 0.045367 0.000000 0.022053
# 5 -0.011306 -0.005962 0.007346 0.000000 0.037853 0.000000
# 6 0.000000 0.000000 0.000000 0.022053 0.000000 0.073427
#
#
# Mechanical properties :
#
#
# Convention : Reuss Voigt Hill
#
# Bulk Modulus (GPa) = 37.03945 64.23301 50.63623
# Shear Modulus (GPa) = 21.08201 29.61782 25.34992
#
# Velocity S-wave (km/s) = 3.08782 3.65993 3.38598
# Velocity P-wave (km/s) = 5.42812 6.84911 6.17960
#
# Compressibility (1/GPa) = 0.02699824
#
# Stress axis : x y z
#
# Youngs Moduli (GPa) = 51.13361 49.25384 106.37277
#
# Poissons Ratio (x) = -0.11909 0.72398
# Poissons Ratio (y) = -0.12364 0.71727
# Poissons Ratio (z) = 0.34802 0.33212
#
# Static dielectric constant tensor:
#      x y z
#    x 1.924800 0.000000 -0.044500 
#    y 0.000000 1.892280 0.000000 
#    z -0.044500 0.000000 1.868220 
# 
# From -- ./inp_files/102661.got.cif
#   From: 2010.05.17/outbox.cif.g08.bks.cpg/sg15_52_cif.got.tgz:102661.got - 2010.06.03 18:47:42.
