data_PCOD9285382
_publ_section_title
;
Structure prediction by ZEFSAII (Michael W. Deem and Ramdas Pophale) SiO2 
 PCOD9285382
Probable space group: C 2/C
;
_chemical_formula_sum "Si O2"
_cell_formula_units_Z 56
_cell_length_a 8.790209
_cell_length_b 16.891122
_cell_length_c 24.062244
_cell_angle_alpha 90.000000
_cell_angle_beta 42.724408
_cell_angle_gamma 90.000000
_cell_volume 2423.964149
_symmetry_space_group_name_H-M "C 2/C"
_symmetry_group_IT_number 15
_symmetry_cell_setting 'monoclinic'
loop_
_space_group_symop_operation_xyz
x,y,z
-x,y,1/2-z
-x,-y,-z
x,-y,1/2+z
1/2+x,1/2+y,z
1/2-x,1/2+y,1/2-z
1/2-x,1/2-y,-z
1/2+x,1/2-y,1/2+z
loop_
_atom_site_type_symbol
_atom_site_label
_atom_site_fract_x
_atom_site_fract_y
_atom_site_fract_z
Si Si1 0.020997 0.681047 0.896505
Si Si2 0.816182 0.835318 0.601034
Si Si3 0.477426 0.215402 0.411406
Si Si4 0.000000 0.449274 0.750000
Si Si5 0.917686 0.009469 0.668243
Si Si6 0.370360 0.916896 0.544587
Si Si7 0.500000 0.618045 0.750000
Si Si8 0.352289 0.368560 0.086846
O O1 0.020815 0.774488 0.911148
O O2 0.275229 0.667534 0.810869
O O3 0.869422 0.642553 0.889811
O O4 0.950051 0.638206 0.972512
O O5 0.598021 0.794167 0.631487
O O6 0.700032 0.900193 0.669459
O O7 0.953505 0.870215 0.512228
O O8 0.558854 0.134763 0.419832
O O9 0.642627 0.287664 0.378495
O O10 0.250000 0.250000 0.500000
O O11 0.845826 0.493701 0.746601
O O12 0.894394 0.059196 0.617150
O O13 0.008337 0.064638 0.692867
O O14 0.107257 0.940688 0.614219
O O15 0.500000 0.000000 0.500000
#
# Coordination Sequence:
#
# PCOD9285382 Si02
#       8
#     8   8   8   4   8   8   4   8
#     4  12  24  44  73 104 141 188 237 300 362 427
#     4  11  24  45  72 105 143 186 238 303 356 433
#     4  10  21  41  72 101 137 182 245 296 346 422
#     4  12  29  46  68 105 156 180 236 298 383 436
#     4  12  28  46  70 107 145 197 239 304 371 441
#     4  12  23  42  75 107 138 184 253 301 354 429
#     4  12  27  46  66  95 150 184 230 288 379 430
#     4  11  24  45  77 103 140 188 254 291 352 438
#
# _framework density 23.102651000000002
#
# number of rings (size 3 to 8) (size 9 to 14) (size 15 to 20)
#    0.000    0.571    4.286    5.143    4.000    4.571 
#    0.000    0.000    0.000    0.000    0.000    0.000 
#    0.000    0.000    0.000    0.000    0.000    0.000 
#
# Total GULP energy -156400.039207 kJ/mol
# GULP energy per Si atom -5585.715686 kJ/mol
# Density = 2.305007 g / cm^3
# Si number density = 23.102651 Si / 1000 Ang^3
#
#
#
# Elastic Constant Matrix: (Units=GPa)
#
#
# Indices 1 2 3 4 5 6 
#
# 1 106.3405 22.9249 35.8876 -0.0044 -17.0060 0.0028
# 2 22.9249 110.0413 29.6777 0.0015 -2.3394 0.0000
# 3 35.8876 29.6777 77.7965 0.0006 -18.0696 0.0044
# 4 -0.0044 0.0015 0.0006 17.1218 0.0001 2.2231
# 5 -17.0060 -2.3394 -18.0696 0.0001 32.0490 -0.0014
# 6 0.0028 0.0000 0.0044 2.2231 -0.0014 33.3504
#
#
#
# Elastic Compliance Matrix: (Units=1/GPa)
#
#
# Indices 1 2 3 4 5 6 
#
# 1 0.011638 -0.001265 -0.003996 0.000003 0.003830 0.000000
# 2 -0.001265 0.010344 -0.003847 -0.000001 -0.002085 0.000001
# 3 -0.003996 -0.003847 0.017959 -0.000001 0.007724 -0.000002
# 4 0.000003 -0.000001 -0.000001 0.058915 0.000001 -0.003927
# 5 0.003830 -0.002085 0.007724 0.000001 0.037437 0.000000
# 6 0.000000 0.000001 -0.000002 -0.003927 0.000000 0.030246
#
#
# Mechanical properties :
#
#
# Convention : Reuss Voigt Hill
#
# Bulk Modulus (GPa) = 46.03129 52.35097 49.19113
# Shear Modulus (GPa) = 26.04201 30.21677 28.12939
#
# Velocity S-wave (km/s) = 3.36107 3.62046 3.49317
# Velocity P-wave (km/s) = 5.91864 6.33927 6.13256
#
# Compressibility (1/GPa) = 0.02172435
#
# Stress axis : x y z
#
# Youngs Moduli (GPa) = 85.92821 96.67239 55.68226
#
# Poissons Ratio (x) = 0.12232 0.22252
# Poissons Ratio (y) = 0.10872 0.21420
# Poissons Ratio (z) = 0.34339 0.37187
#
# Static dielectric constant tensor:
#      x y z
#    x 2.269070 0.000010 -0.062070 
#    y 0.000010 2.128100 0.000000 
#    z -0.062070 0.000000 1.859960 
# 
# From -- ./inp_files/289735.got.cif
#   From: 2010.05.17/outbox.cif.g08.bks.cpg/sg15_145_cif.got.tgz:289735.got - 2010.06.03 18:47:42.
