data_PCOD9285263
_publ_section_title
;
Structure prediction by ZEFSAII (Michael W. Deem and Ramdas Pophale) SiO2 
 PCOD9285263
Probable space group: C 2/C
;
_chemical_formula_sum "Si O2"
_cell_formula_units_Z 52
_cell_length_a 12.702124
_cell_length_b 17.212582
_cell_length_c 11.337682
_cell_angle_alpha 90.000000
_cell_angle_beta 114.833517
_cell_angle_gamma 90.000000
_cell_volume 2249.616901
_symmetry_space_group_name_H-M "C 2/C"
_symmetry_group_IT_number 15
_symmetry_cell_setting 'monoclinic'
loop_
_space_group_symop_operation_xyz
x,y,z
-x,y,1/2-z
-x,-y,-z
x,-y,1/2+z
1/2+x,1/2+y,z
1/2-x,1/2+y,1/2-z
1/2-x,1/2-y,-z
1/2+x,1/2-y,1/2+z
loop_
_atom_site_type_symbol
_atom_site_label
_atom_site_fract_x
_atom_site_fract_y
_atom_site_fract_z
Si Si1 0.566918 0.514409 0.655655
Si Si2 0.498356 0.321728 0.377840
Si Si3 0.120756 0.530794 0.003937
Si Si4 0.000000 0.389239 0.250000
Si Si5 0.897070 0.267499 0.381104
Si Si6 0.262366 0.874426 0.495566
Si Si7 0.748182 0.877466 0.751042
O O1 0.500000 0.501179 0.750000
O O2 0.500000 0.500000 0.500000
O O3 0.592134 0.607175 0.665584
O O4 0.670510 0.453467 0.701583
O O5 0.500000 0.282811 0.250000
O O6 0.497671 0.268695 0.492128
O O7 0.625344 0.362077 0.446016
O O8 0.208045 0.458485 0.042037
O O9 0.165993 0.602016 0.103956
O O10 0.094489 0.558635 0.859948
O O11 0.000000 0.500000 0.000000
O O12 0.940991 0.333963 0.317199
O O13 0.813373 0.307613 0.437342
O O14 0.828726 0.199115 0.280740
O O15 0.314203 0.869701 0.651889
#
# Coordination Sequence:
#
# PCOD9285263 Si02
#       7
#     8   8   8   4   8   8   8
#     4  11  21  40  67 108 147 182 233 281 357 435
#     4  10  21  41  69 103 138 178 222 283 352 420
#     4  12  25  49  70  94 138 190 232 282 342 420
#     4  12  28  48  66 102 138 180 236 290 354 426
#     4  11  25  44  67 101 142 169 235 294 346 416
#     4  11  23  45  68  97 133 175 237 281 326 425
#     4  11  25  42  75 103 135 186 228 291 356 413
#
# _framework density 23.115047000000001
#
# number of rings (size 3 to 8) (size 9 to 14) (size 15 to 20)
#    0.000    0.923    4.615    4.615    1.077    3.077 
#    1.385    0.000    0.000    0.000    0.000    0.000 
#    0.000    0.000    0.000    0.000    0.000    0.000 
#
# Total GULP energy -145441.951705 kJ/mol
# GULP energy per Si atom -5593.921219 kJ/mol
# Density = 2.306244 g / cm^3
# Si number density = 23.115047 Si / 1000 Ang^3
#
#
#
# Elastic Constant Matrix: (Units=GPa)
#
#
# Indices 1 2 3 4 5 6 
#
# 1 48.5800 22.5593 1.8911 0.0000 -7.1931 0.0000
# 2 22.5593 121.7829 34.1380 0.0000 9.2862 0.0000
# 3 1.8911 34.1380 136.8283 0.0000 -0.3240 0.0000
# 4 0.0000 0.0000 0.0000 45.6319 0.0000 -18.0443
# 5 -7.1931 9.2862 -0.3240 0.0000 25.7093 0.0000
# 6 0.0000 0.0000 0.0000 -18.0443 0.0000 37.7104
#
#
#
# Elastic Compliance Matrix: (Units=1/GPa)
#
#
# Indices 1 2 3 4 5 6 
#
# 1 0.024398 -0.005487 0.001053 0.000000 0.008821 0.000000
# 2 -0.005487 0.010337 -0.002516 0.000000 -0.005301 0.000000
# 3 0.001053 -0.002516 0.007925 0.000000 0.001303 0.000000
# 4 0.000000 0.000000 0.000000 0.027029 0.000000 0.012933
# 5 0.008821 -0.005301 0.001303 0.000000 0.043296 0.000000
# 6 0.000000 0.000000 0.000000 0.012933 0.000000 0.032706
#
#
# Mechanical properties :
#
#
# Convention : Reuss Voigt Hill
#
# Bulk Modulus (GPa) = 34.77159 47.15200 40.96180
# Shear Modulus (GPa) = 29.55474 38.38382 33.96928
#
# Velocity S-wave (km/s) = 3.57962 4.07941 3.83766
# Velocity P-wave (km/s) = 5.67102 6.52931 6.11524
#
# Compressibility (1/GPa) = 0.02875911
#
# Stress axis : x y z
#
# Youngs Moduli (GPa) = 40.98711 96.73770 126.18862
#
# Poissons Ratio (x) = 0.53083 -0.13284
# Poissons Ratio (y) = 0.22491 0.31747
# Poissons Ratio (z) = -0.04315 0.24337
#
# Static dielectric constant tensor:
#      x y z
#    x 1.852690 0.000000 0.020970 
#    y 0.000000 1.888910 0.000000 
#    z 0.020970 0.000000 1.964820 
# 
# From -- ./inp_files/98460.got.cif
#   From: 2010.05.17/outbox.cif.g08.bks.cpg/sg15_50_cif.got.tgz:98460.got - 2010.06.03 18:47:42.
