data_PCOD9285766
_publ_section_title
;
Structure prediction by ZEFSAII (Michael W. Deem and Ramdas Pophale) SiO2 
 PCOD9285766
Probable space group: C 2/C
;
_chemical_formula_sum "Si O2"
_cell_formula_units_Z 52
_cell_length_a 8.411171
_cell_length_b 27.774770
_cell_length_c 12.513961
_cell_angle_alpha 90.000000
_cell_angle_beta 121.844459
_cell_angle_gamma 90.000000
_cell_volume 2483.457318
_symmetry_space_group_name_H-M "C 2/C"
_symmetry_group_IT_number 15
_symmetry_cell_setting 'monoclinic'
loop_
_space_group_symop_operation_xyz
x,y,z
-x,y,1/2-z
-x,-y,-z
x,-y,1/2+z
1/2+x,1/2+y,z
1/2-x,1/2+y,1/2-z
1/2-x,1/2-y,-z
1/2+x,1/2-y,1/2+z
loop_
_atom_site_type_symbol
_atom_site_label
_atom_site_fract_x
_atom_site_fract_y
_atom_site_fract_z
Si Si1 0.500000 0.094012 0.250000
Si Si2 0.333447 0.861055 0.258564
Si Si3 0.476807 0.436725 0.399346
Si Si4 0.797309 0.744622 0.640820
Si Si5 0.438501 0.274831 0.106107
Si Si6 0.280666 0.867242 0.479254
Si Si7 0.396356 0.547186 0.323574
O O1 0.576940 0.126466 0.373862
O O2 0.680306 0.064131 0.267009
O O3 0.500000 0.884094 0.250000
O O4 0.166050 0.897885 0.194168
O O5 0.298544 0.810752 0.184289
O O6 0.367558 0.851682 0.396274
O O7 0.681356 0.419534 0.433192
O O8 0.415838 0.489445 0.341032
O O9 0.489606 0.434119 0.532581
O O10 0.750000 0.750000 0.500000
O O11 0.604053 0.760334 0.625158
O O12 0.000000 0.764455 0.750000
O O13 0.500000 0.281634 0.250000
O O14 0.383756 0.329201 0.050084
O O15 0.250000 0.250000 0.000000
O O16 0.500000 0.562060 0.250000
#
# Coordination Sequence:
#
# PCOD9285766 Si02
#       7
#     4   8   8   8   8   8   8
#     4  10  26  42  68 104 144 184 232 294 354 424
#     4  11  23  38  67  93 127 173 222 271 340 412
#     4  10  21  42  66  96 129 187 227 279 346 412
#     4  11  24  45  65  99 136 168 224 292 343 413
#     4  12  24  42  70  95 128 181 231 281 352 417
#     4  11  22  46  66  96 138 178 237 289 343 427
#     4  10  22  41  65  97 143 175 231 287 345 415
#
# _framework density 20.938552000000001
#
# number of rings (size 3 to 8) (size 9 to 14) (size 15 to 20)
#    0.000    1.231    3.077    2.308    6.462    0.000 
#    0.000    3.846    0.000    0.000    0.000    0.000 
#    0.000    0.000    0.000    0.000    0.000    0.000 
#
# Total GULP energy -144756.445591 kJ/mol
# GULP energy per Si atom -5567.555600 kJ/mol
# Density = 2.089090 g / cm^3
# Si number density = 20.938552 Si / 1000 Ang^3
#
#
#
# Elastic Constant Matrix: (Units=GPa)
#
#
# Indices 1 2 3 4 5 6 
#
# 1 111.5970 8.5123 70.4757 0.0000 4.8035 0.0000
# 2 8.5123 57.4794 47.2167 0.0000 -2.2235 0.0000
# 3 70.4757 47.2167 185.5531 0.0000 1.7308 0.0000
# 4 0.0000 0.0000 0.0000 33.3582 0.0000 4.4529
# 5 4.8035 -2.2235 1.7308 0.0000 45.7828 0.0000
# 6 0.0000 0.0000 0.0000 4.4529 0.0000 25.4831
#
#
#
# Elastic Compliance Matrix: (Units=1/GPa)
#
#
# Indices 1 2 3 4 5 6 
#
# 1 0.012107 0.002453 -0.005214 0.000000 -0.000954 0.000000
# 2 0.002453 0.022568 -0.006685 0.000000 0.001091 0.000000
# 3 -0.005214 -0.006685 0.009072 0.000000 -0.000121 0.000000
# 4 0.000000 0.000000 0.000000 0.030694 0.000000 -0.005363
# 5 -0.000954 0.001091 -0.000121 0.000000 0.022000 0.000000
# 6 0.000000 0.000000 0.000000 -0.005363 0.000000 0.040179
#
#
# Mechanical properties :
#
#
# Convention : Reuss Voigt Hill
#
# Bulk Modulus (GPa) = 40.23184 67.44878 53.84031
# Shear Modulus (GPa) = 30.52593 36.15313 33.33953
#
# Velocity S-wave (km/s) = 3.82236 4.15978 3.99464
# Velocity P-wave (km/s) = 6.22387 7.44005 6.85897
#
# Compressibility (1/GPa) = 0.02485594
#
# Stress axis : x y z
#
# Youngs Moduli (GPa) = 82.59380 44.31147 110.23281
#
# Poissons Ratio (x) = -0.10870 0.57474
# Poissons Ratio (y) = -0.20261 0.73685
# Poissons Ratio (z) = 0.43064 0.29620
#
# Static dielectric constant tensor:
#      x y z
#    x 1.891010 0.000000 0.006090 
#    y 0.000000 1.796660 0.000000 
#    z 0.006090 0.000000 1.810950 
# 
# From -- ./inp_files/81503.got.cif
#   From: 2010.05.17/outbox.cif.g08.bks.cpg/sg15_41_cif.got.tgz:81503.got - 2010.06.03 18:47:42.
