data_PCOD9285251
_publ_section_title
;
Structure prediction by ZEFSAII (Michael W. Deem and Ramdas Pophale) SiO2 
 PCOD9285251
Probable space group: C 2/C
;
_chemical_formula_sum "Si O2"
_cell_formula_units_Z 64
_cell_length_a 22.659070
_cell_length_b 19.534806
_cell_length_c 16.683634
_cell_angle_alpha 90.000000
_cell_angle_beta 23.728056
_cell_angle_gamma 90.000000
_cell_volume 2971.635932
_symmetry_space_group_name_H-M "C 2/C"
_symmetry_group_IT_number 15
_symmetry_cell_setting 'monoclinic'
loop_
_space_group_symop_operation_xyz
x,y,z
-x,y,1/2-z
-x,-y,-z
x,-y,1/2+z
1/2+x,1/2+y,z
1/2-x,1/2+y,1/2-z
1/2-x,1/2-y,-z
1/2+x,1/2-y,1/2+z
loop_
_atom_site_type_symbol
_atom_site_label
_atom_site_fract_x
_atom_site_fract_y
_atom_site_fract_z
Si Si1 0.343845 0.579700 0.725837
Si Si2 0.164782 0.921387 0.766944
Si Si3 0.675227 0.786515 0.193454
Si Si4 0.664596 0.206086 0.896361
Si Si5 0.166222 0.081748 0.071668
Si Si6 0.668340 0.573367 0.567158
Si Si7 0.901942 0.322747 0.441126
Si Si8 0.322477 0.790191 0.835554
O O1 0.322056 0.501011 0.726263
O O2 0.508625 0.602162 0.496056
O O3 0.226293 0.630232 0.834723
O O4 0.328510 0.581226 0.840686
O O5 0.162550 0.916185 0.672855
O O6 0.304479 0.874897 0.613771
O O7 0.669054 0.780832 0.296694
O O8 0.514254 0.779754 0.355729
O O9 0.736255 0.859969 0.089827
O O10 0.792899 0.727514 0.028656
O O11 0.765479 0.254877 0.825264
O O12 0.496129 0.213763 0.130655
O O13 0.000000 0.092230 0.250000
O O14 0.211993 0.004433 0.991779
O O15 0.500000 0.582961 0.750000
O O16 0.768247 0.631696 0.405261
O O17 0.000000 0.358666 0.250000
O O18 0.250000 0.750000 0.000000
#
# Coordination Sequence:
#
# PCOD9285251 Si02
#       8
#     8   8   8   8   8   8   8   8
#     4  10  23  43  71 102 139 180 231 286 346 414
#     4  10  23  44  70 103 138 182 229 285 347 409
#     4  12  27  44  67 103 140 181 231 287 348 412
#     4  12  27  45  68 103 136 183 227 290 352 415
#     4  10  21  41  69 100 139 183 229 279 343 421
#     4  10  22  41  69 102 136 185 232 285 348 414
#     4  12  26  44  68 100 138 185 232 282 341 412
#     4  12  25  44  70 102 141 181 234 289 350 416
#
# _framework density 21.536959
#
# number of rings (size 3 to 8) (size 9 to 14) (size 15 to 20)
#    0.000    1.000    2.500    3.375    5.250    3.000 
#    0.000    1.250    0.000    0.000    0.000    0.000 
#    0.000    0.000    0.000    0.000    0.000    0.000 
#
# Total GULP energy -179086.786022 kJ/mol
# GULP energy per Si atom -5596.462063 kJ/mol
# Density = 2.148794 g / cm^3
# Si number density = 21.536959 Si / 1000 Ang^3
#
#
#
# Elastic Constant Matrix: (Units=GPa)
#
#
# Indices 1 2 3 4 5 6 
#
# 1 70.7500 15.4845 24.7157 -0.0004 -14.7316 -0.0001
# 2 15.4845 96.7349 59.1163 -0.0011 -12.8371 -0.0001
# 3 24.7157 59.1163 128.8379 -0.0009 -13.8751 -0.0009
# 4 -0.0004 -0.0011 -0.0009 39.0989 0.0004 -7.6224
# 5 -14.7316 -12.8371 -13.8751 0.0004 38.1984 0.0007
# 6 -0.0001 -0.0001 -0.0009 -7.6224 0.0007 24.2050
#
#
#
# Elastic Compliance Matrix: (Units=1/GPa)
#
#
# Indices 1 2 3 4 5 6 
#
# 1 0.016134 -0.000475 -0.002315 0.000000 0.005222 0.000000
# 2 -0.000475 0.014619 -0.006356 0.000000 0.002421 0.000000
# 3 -0.002315 -0.006356 0.011235 0.000000 0.001052 0.000000
# 4 0.000000 0.000000 0.000000 0.027249 0.000000 0.008581
# 5 0.005222 0.002421 0.001052 0.000000 0.029389 -0.000001
# 6 0.000000 0.000000 0.000000 0.008581 -0.000001 0.044016
#
#
# Mechanical properties :
#
#
# Convention : Reuss Voigt Hill
#
# Bulk Modulus (GPa) = 42.19926 54.99511 48.59719
# Shear Modulus (GPa) = 29.61500 33.43422 31.52461
#
# Velocity S-wave (km/s) = 3.71223 3.94434 3.83004
# Velocity P-wave (km/s) = 6.16527 6.80694 6.49404
#
# Compressibility (1/GPa) = 0.02369710
#
# Stress axis : x y z
#
# Youngs Moduli (GPa) = 61.98022 68.40362 89.00369
#
# Poissons Ratio (x) = 0.03250 0.20602
# Poissons Ratio (y) = 0.02945 0.56571
# Poissons Ratio (z) = 0.14347 0.43477
#
# Static dielectric constant tensor:
#      x y z
#    x 1.799010 0.000000 0.014720 
#    y 0.000000 1.799360 0.000000 
#    z 0.014720 0.000000 1.783140 
# 
# From -- ./inp_files/220229.got.cif
#   From: 2010.05.17/outbox.cif.g08.bks.cpg/sg15_111_cif.got.tgz:220229.got - 2010.06.03 18:47:42.
