data_PCOD9285505
_publ_section_title
;
Structure prediction by ZEFSAII (Michael W. Deem and Ramdas Pophale) SiO2 
 PCOD9285505
Probable space group: C 2/C
;
_chemical_formula_sum "Si O2"
_cell_formula_units_Z 56
_cell_length_a 27.014324
_cell_length_b 8.829095
_cell_length_c 16.114704
_cell_angle_alpha 90.000000
_cell_angle_beta 50.129819
_cell_angle_gamma 90.000000
_cell_volume 2949.920958
_symmetry_space_group_name_H-M "C 2/C"
_symmetry_group_IT_number 15
_symmetry_cell_setting 'monoclinic'
loop_
_space_group_symop_operation_xyz
x,y,z
-x,y,1/2-z
-x,-y,-z
x,-y,1/2+z
1/2+x,1/2+y,z
1/2-x,1/2+y,1/2-z
1/2-x,1/2-y,-z
1/2+x,1/2-y,1/2+z
loop_
_atom_site_type_symbol
_atom_site_label
_atom_site_fract_x
_atom_site_fract_y
_atom_site_fract_z
Si Si1 0.434133 0.914778 0.048872
Si Si2 0.756838 0.855388 0.131833
Si Si3 0.980333 0.184451 0.865309
Si Si4 0.313908 0.876684 0.699728
Si Si5 0.119241 0.967501 0.598580
Si Si6 0.375885 0.623097 0.745581
Si Si7 0.126091 0.790852 0.744769
O O1 0.414112 0.810956 0.149177
O O2 0.376281 0.033588 0.099193
O O3 0.444126 0.810712 0.957452
O O4 0.500000 0.000000 0.000000
O O5 0.778989 0.720685 0.167785
O O6 0.693235 0.793629 0.153587
O O7 0.732657 0.999243 0.210147
O O8 0.818217 0.904568 0.013017
O O9 0.000000 0.231590 0.750000
O O10 0.047190 0.148505 0.840123
O O11 0.935337 0.036635 0.901547
O O12 0.339059 0.757230 0.741107
O O13 0.094195 0.842158 0.691873
O O14 0.139635 0.103189 0.639850
O O15 0.360879 0.455273 0.726948
#
# Coordination Sequence:
#
# PCOD9285505 Si02
#       7
#     8   8   8   8   8   8   8
#     4  11  23  42  66  92 128 173 207 266 324 373
#     4  11  23  41  61  93 131 165 220 254 315 386
#     4  10  21  42  62  96 126 157 217 259 318 384
#     4  11  24  39  63  94 126 167 218 261 315 384
#     4   9  22  39  66  90 124 168 204 267 323 363
#     4   9  20  41  61  91 123 162 212 260 316 373
#     4   9  22  41  63  93 124 165 216 254 316 378
#
# _framework density 18.983559
#
# number of rings (size 3 to 8) (size 9 to 14) (size 15 to 20)
#    0.857    1.143    1.429    1.286    6.000    2.286 
#    2.571    1.429    0.000    0.000    0.000    0.000 
#    0.000    0.000    0.000    0.000    0.000    0.000 
#
# Total GULP energy -156040.827611 kJ/mol
# GULP energy per Si atom -5572.886700 kJ/mol
# Density = 1.894035 g / cm^3
# Si number density = 18.983559 Si / 1000 Ang^3
#
#
#
# Elastic Constant Matrix: (Units=GPa)
#
#
# Indices 1 2 3 4 5 6 
#
# 1 52.4781 29.7047 20.1002 0.0000 -4.2912 0.0000
# 2 29.7047 104.5008 44.2642 0.0002 -9.0357 -0.0002
# 3 20.1002 44.2642 77.0050 -0.0001 -7.5769 0.0001
# 4 0.0000 0.0002 -0.0001 32.7352 0.0000 1.7792
# 5 -4.2912 -9.0357 -7.5769 0.0000 7.5819 0.0000
# 6 0.0000 -0.0002 0.0001 1.7792 0.0000 40.5465
#
#
#
# Elastic Compliance Matrix: (Units=1/GPa)
#
#
# Indices 1 2 3 4 5 6 
#
# 1 0.023348 -0.005099 -0.002729 0.000000 0.004410 0.000000
# 2 -0.005099 0.014297 -0.006094 0.000000 0.008063 0.000000
# 3 -0.002729 -0.006094 0.018116 0.000000 0.009297 0.000000
# 4 0.000000 0.000000 0.000000 0.030621 0.000000 -0.001344
# 5 0.004410 0.008063 0.009297 0.000000 0.153288 0.000000
# 6 0.000000 0.000000 0.000000 -0.001344 0.000000 0.024722
#
#
# Mechanical properties :
#
#
# Convention : Reuss Voigt Hill
#
# Bulk Modulus (GPa) = 35.82144 46.90247 41.36195
# Shear Modulus (GPa) = 16.58135 25.50038 21.04086
#
# Velocity S-wave (km/s) = 2.95864 3.66906 3.33284
# Velocity P-wave (km/s) = 5.53011 6.53528 6.05359
#
# Compressibility (1/GPa) = 0.02791624
#
# Stress axis : x y z
#
# Youngs Moduli (GPa) = 42.83030 69.94351 55.19885
#
# Poissons Ratio (x) = 0.35667 0.15065
# Poissons Ratio (y) = 0.21841 0.33638
# Poissons Ratio (z) = 0.11689 0.42624
#
# Static dielectric constant tensor:
#      x y z
#    x 1.674330 0.000000 0.005900 
#    y 0.000000 1.659960 0.000000 
#    z 0.005900 0.000000 1.656320 
# 
# From -- ./inp_files/224379.got.cif
#   From: 2010.05.17/outbox.cif.g08.bks.cpg/sg15_113_cif.got.tgz:224379.got - 2010.06.03 18:47:42.
