data_PCOD9285080
_publ_section_title
;
Structure prediction by ZEFSAII (Michael W. Deem and Ramdas Pophale) SiO2 
 PCOD9285080
Probable space group: C 2/C
;
_chemical_formula_sum "Si O2"
_cell_formula_units_Z 44
_cell_length_a 11.616066
_cell_length_b 12.477106
_cell_length_c 22.429698
_cell_angle_alpha 90.000000
_cell_angle_beta 139.589174
_cell_angle_gamma 90.000000
_cell_volume 2107.405553
_symmetry_space_group_name_H-M "C 2/C"
_symmetry_group_IT_number 15
_symmetry_cell_setting 'monoclinic'
loop_
_space_group_symop_operation_xyz
x,y,z
-x,y,1/2-z
-x,-y,-z
x,-y,1/2+z
1/2+x,1/2+y,z
1/2-x,1/2+y,1/2-z
1/2-x,1/2-y,-z
1/2+x,1/2-y,1/2+z
loop_
_atom_site_type_symbol
_atom_site_label
_atom_site_fract_x
_atom_site_fract_y
_atom_site_fract_z
Si Si1 0.957466 0.570706 0.164663
Si Si2 0.187980 0.771598 0.207422
Si Si3 0.762490 0.551907 0.421248
Si Si4 0.338751 0.366301 0.026491
Si Si5 0.417999 0.907639 0.380466
Si Si6 0.000000 0.187998 0.250000
O O1 0.000000 0.563397 0.250000
O O2 0.078031 0.665809 0.183470
O O3 0.007745 0.463139 0.149573
O O4 0.749635 0.594419 0.069718
O O5 0.277309 0.821310 0.302150
O O6 0.340520 0.749194 0.219364
O O7 0.045712 0.850638 0.120356
O O8 0.729814 0.451667 0.451852
O O9 0.828867 0.499912 0.385733
O O10 0.587696 0.616498 0.336565
O O11 0.914788 0.624776 0.512070
O O12 0.250000 0.250000 0.000000
#
# Coordination Sequence:
#
# PCOD9285080 Si02
#       6
#     8   8   8   8   8   4
#     4  10  22  41  63  93 125 158 213 260 312 373
#     4  11  24  38  64  94 126 167 211 256 320 374
#     4  10  21  41  67  88 127 166 215 259 308 379
#     4   9  21  39  64  94 118 163 212 260 305 366
#     4  10  22  40  64  92 124 169 205 260 316 374
#     4  12  24  40  62  94 134 164 210 260 314 388
#
# _framework density 20.878753
#
# number of rings (size 3 to 8) (size 9 to 14) (size 15 to 20)
#    0.000    1.818    1.818    1.091    8.909    0.727 
#    0.000    0.909    0.000    0.000    0.000    0.000 
#    0.000    0.000    0.000    0.000    0.000    0.000 
#
# Total GULP energy -122768.661227 kJ/mol
# GULP energy per Si atom -5580.393692 kJ/mol
# Density = 2.083123 g / cm^3
# Si number density = 20.878753 Si / 1000 Ang^3
#
#
#
# Elastic Constant Matrix: (Units=GPa)
#
#
# Indices 1 2 3 4 5 6 
#
# 1 71.1335 -5.2314 35.2806 0.0000 -6.4046 0.0000
# 2 -5.2314 29.8464 36.9722 0.0000 2.4747 0.0000
# 3 35.2806 36.9722 159.2236 0.0000 3.4823 0.0000
# 4 0.0000 0.0000 0.0000 30.4048 0.0000 -0.8037
# 5 -6.4046 2.4747 3.4823 0.0000 39.0837 0.0000
# 6 0.0000 0.0000 0.0000 -0.8037 0.0000 17.5635
#
#
#
# Elastic Compliance Matrix: (Units=1/GPa)
#
#
# Indices 1 2 3 4 5 6 
#
# 1 0.018561 0.011490 -0.006845 0.000000 0.002924 0.000000
# 2 0.011490 0.054304 -0.015151 0.000000 -0.000206 0.000000
# 3 -0.006845 -0.015151 0.011341 0.000000 -0.001173 0.000000
# 4 0.000000 0.000000 0.000000 0.032929 0.000000 0.001507
# 5 0.002924 -0.000206 -0.001173 0.000000 0.026183 0.000000
# 6 0.000000 0.000000 0.000000 0.001507 0.000000 0.057005
#
#
# Mechanical properties :
#
#
# Convention : Reuss Voigt Hill
#
# Bulk Modulus (GPa) = 15.82419 43.80515 29.81467
# Shear Modulus (GPa) = 20.62704 30.28920 25.45812
#
# Velocity S-wave (km/s) = 3.14657 3.81296 3.49568
# Velocity P-wave (km/s) = 4.56034 6.35698 5.53208
#
# Compressibility (1/GPa) = 0.06319439
#
# Stress axis : x y z
#
# Youngs Moduli (GPa) = 53.87600 18.41479 88.17665
#
# Poissons Ratio (x) = -0.21158 0.60354
# Poissons Ratio (y) = -0.61902 1.33596
# Poissons Ratio (z) = 0.36876 0.27900
#
# Static dielectric constant tensor:
#      x y z
#    x 1.730860 0.000000 0.025270 
#    y 0.000000 1.762940 0.000000 
#    z 0.025270 0.000000 1.779010 
# 
# From -- ./inp_files/143898.got.cif
#   From: 2010.05.17/outbox.cif.g08.bks.cpg/sg15_72_cif.got.tgz:143898.got - 2010.06.03 18:47:42.
