data_PCOD9285548
_publ_section_title
;
Structure prediction by ZEFSAII (Michael W. Deem and Ramdas Pophale) SiO2 
 PCOD9285548
Probable space group: C 2/C
;
_chemical_formula_sum "Si O2"
_cell_formula_units_Z 56
_cell_length_a 9.475632
_cell_length_b 28.685665
_cell_length_c 17.546115
_cell_angle_alpha 90.000000
_cell_angle_beta 36.323973
_cell_angle_gamma 90.000000
_cell_volume 2825.092792
_symmetry_space_group_name_H-M "C 2/C"
_symmetry_group_IT_number 15
_symmetry_cell_setting 'monoclinic'
loop_
_space_group_symop_operation_xyz
x,y,z
-x,y,1/2-z
-x,-y,-z
x,-y,1/2+z
1/2+x,1/2+y,z
1/2-x,1/2+y,1/2-z
1/2-x,1/2-y,-z
1/2+x,1/2-y,1/2+z
loop_
_atom_site_type_symbol
_atom_site_label
_atom_site_fract_x
_atom_site_fract_y
_atom_site_fract_z
Si Si1 0.347857 0.528321 0.962686
Si Si2 0.000000 0.970896 0.750000
Si Si3 0.000000 0.806432 0.750000
Si Si4 0.024192 0.300547 0.537662
Si Si5 0.921216 0.596333 0.112959
Si Si6 0.246469 0.211291 0.398879
Si Si7 0.758867 0.439847 0.397707
Si Si8 0.531912 0.364458 0.887551
O O1 0.466296 0.503123 0.838549
O O2 0.552419 0.550187 0.926061
O O3 0.211449 0.488267 0.069763
O O4 0.157862 0.567259 0.023529
O O5 0.770901 0.937246 0.843449
O O6 0.750539 0.782109 0.836408
O O7 0.047192 0.837528 0.654349
O O8 0.144559 0.263188 0.430057
O O9 0.190602 0.297879 0.540299
O O10 0.989275 0.355691 0.540445
O O11 0.781093 0.611776 0.251457
O O12 0.500000 0.207616 0.250000
O O13 0.081380 0.172490 0.432598
O O14 0.654846 0.402045 0.501558
O O15 0.000000 0.426170 0.250000
#
# Coordination Sequence:
#
# PCOD9285548 Si02
#       8
#     8   4   4   8   8   8   8   8
#     4  11  25  40  67  95 131 181 224 270 326 395
#     4  12  23  44  64  98 136 174 222 280 330 393
#     4  10  21  42  64 104 122 170 222 264 338 401
#     4  10  23  39  66  96 126 163 220 273 324 399
#     4  11  21  41  68  93 127 175 224 265 335 398
#     4  11  21  43  67  94 126 170 217 269 330 403
#     4  11  25  42  60  99 135 172 223 274 327 394
#     4  11  23  42  73  93 133 180 219 274 342 401
#
# _framework density 19.822357
#
# number of rings (size 3 to 8) (size 9 to 14) (size 15 to 20)
#    0.000    1.143    4.286    3.857    2.000    0.571 
#    2.571    1.429    0.000    0.000    0.000    0.000 
#    0.000    0.000    0.000    0.000    0.000    0.000 
#
# Total GULP energy -156216.686037 kJ/mol
# GULP energy per Si atom -5579.167358 kJ/mol
# Density = 1.977724 g / cm^3
# Si number density = 19.822357 Si / 1000 Ang^3
#
#
#
# Elastic Constant Matrix: (Units=GPa)
#
#
# Indices 1 2 3 4 5 6 
#
# 1 74.5368 14.0954 -0.9073 0.0000 -1.1540 0.0000
# 2 14.0954 59.8619 15.3674 0.0000 -13.6482 0.0000
# 3 -0.9073 15.3674 33.8249 0.0000 -4.2448 0.0000
# 4 0.0000 0.0000 0.0000 37.6274 0.0000 -4.5482
# 5 -1.1540 -13.6482 -4.2448 0.0000 25.5398 0.0000
# 6 0.0000 0.0000 0.0000 -4.5482 0.0000 47.2123
#
#
#
# Elastic Compliance Matrix: (Units=1/GPa)
#
#
# Indices 1 2 3 4 5 6 
#
# 1 0.014212 -0.004173 0.002122 0.000000 -0.001235 0.000000
# 2 -0.004173 0.022328 -0.008969 0.000000 0.010252 0.000000
# 3 0.002122 -0.008969 0.033812 0.000000 0.000922 0.000000
# 4 0.000000 0.000000 0.000000 0.026889 0.000000 0.002590
# 5 -0.001235 0.010252 0.000922 0.000000 0.044731 0.000000
# 6 0.000000 0.000000 0.000000 0.002590 0.000000 0.021430
#
#
# Mechanical properties :
#
#
# Convention : Reuss Voigt Hill
#
# Bulk Modulus (GPa) = 20.69915 25.03720 22.86817
# Shear Modulus (GPa) = 24.80821 31.38709 28.09765
#
# Velocity S-wave (km/s) = 3.54153 3.98354 3.76902
# Velocity P-wave (km/s) = 5.21423 5.81518 5.52289
#
# Compressibility (1/GPa) = 0.04831117
#
# Stress axis : x y z
#
# Youngs Moduli (GPa) = 70.36304 44.78732 29.57562
#
# Poissons Ratio (x) = 0.18689 -0.06276
# Poissons Ratio (y) = 0.29361 0.26527
# Poissons Ratio (z) = -0.14931 0.40171
#
# Static dielectric constant tensor:
#      x y z
#    x 1.843980 0.000000 0.012880 
#    y 0.000000 1.710400 0.000000 
#    z 0.012880 0.000000 1.678920 
# 
# From -- ./inp_files/193866.got.cif
#   From: 2010.05.17/outbox.cif.g08.bks.cpg/sg15_97_cif.got.tgz:193866.got - 2010.06.03 18:47:42.
