data_PCOD9285409
_publ_section_title
;
Structure prediction by ZEFSAII (Michael W. Deem and Ramdas Pophale) SiO2 
 PCOD9285409
Probable space group: C 2/C
;
_chemical_formula_sum "Si O2"
_cell_formula_units_Z 40
_cell_length_a 13.173698
_cell_length_b 9.148268
_cell_length_c 13.426897
_cell_angle_alpha 90.000000
_cell_angle_beta 91.410047
_cell_angle_gamma 90.000000
_cell_volume 1617.672903
_symmetry_space_group_name_H-M "C 2/C"
_symmetry_group_IT_number 15
_symmetry_cell_setting 'monoclinic'
loop_
_space_group_symop_operation_xyz
x,y,z
-x,y,1/2-z
-x,-y,-z
x,-y,1/2+z
1/2+x,1/2+y,z
1/2-x,1/2+y,1/2-z
1/2-x,1/2-y,-z
1/2+x,1/2-y,1/2+z
loop_
_atom_site_type_symbol
_atom_site_label
_atom_site_fract_x
_atom_site_fract_y
_atom_site_fract_z
Si Si1 0.131333 0.749288 0.880635
Si Si2 0.876301 0.759904 0.387982
Si Si3 0.527078 0.961913 0.114872
Si Si4 0.278556 0.764123 0.383618
Si Si5 0.154593 0.000306 0.746032
O O1 0.253306 0.741926 0.877588
O O2 0.099796 0.885848 0.815221
O O3 0.075777 0.603169 0.842184
O O4 0.102677 0.772010 0.994614
O O5 0.923795 0.611795 0.346730
O O6 0.910556 0.899467 0.328271
O O7 0.609181 0.833149 0.116742
O O8 0.500000 0.000000 0.000000
O O9 0.250000 0.750000 0.500000
O O10 0.279988 0.608399 0.325924
O O11 0.211906 0.884495 0.321425
#
# Coordination Sequence:
#
# PCOD9285409 Si02
#       5
#     8   8   8   8   8
#     4  10  21  41  76 103 143 189 248 309 362 447
#     4  10  21  44  75 104 142 196 243 302 380 439
#     4  10  23  45  74 104 135 193 251 307 368 441
#     4  12  26  44  72 105 147 197 246 304 380 450
#     4  12  23  44  72 107 146 198 241 301 385 443
#
# _framework density 24.726879
#
# number of rings (size 3 to 8) (size 9 to 14) (size 15 to 20)
#    0.000    1.200    4.000    1.200    5.600    0.800 
#    0.000   15.000    0.000    0.000    0.000    0.000 
#    0.000    0.000    0.000    0.000    0.000    0.000 
#
# Total GULP energy -111911.708025 kJ/mol
# GULP energy per Si atom -5595.585401 kJ/mol
# Density = 2.467060 g / cm^3
# Si number density = 24.726879 Si / 1000 Ang^3
#
#
#
# Elastic Constant Matrix: (Units=GPa)
#
#
# Indices 1 2 3 4 5 6 
#
# 1 90.4825 73.2961 37.5352 0.0000 0.1808 0.0000
# 2 73.2961 227.4814 89.4972 0.0000 -14.3534 0.0000
# 3 37.5352 89.4972 181.4334 0.0000 -18.1029 0.0000
# 4 0.0000 0.0000 0.0000 60.6733 0.0000 -0.2431
# 5 0.1808 -14.3534 -18.1029 0.0000 18.6898 0.0000
# 6 0.0000 0.0000 0.0000 -0.2431 0.0000 56.5022
#
#
#
# Elastic Compliance Matrix: (Units=1/GPa)
#
#
# Indices 1 2 3 4 5 6 
#
# 1 0.015502 -0.004784 -0.001360 0.000000 -0.005141 0.000000
# 2 -0.004784 0.006983 -0.002120 0.000000 0.003356 0.000000
# 3 -0.001360 -0.002120 0.007392 0.000000 0.005545 0.000000
# 4 0.000000 0.000000 0.000000 0.016482 0.000000 0.000071
# 5 -0.005141 0.003356 0.005545 0.000000 0.061503 0.000000
# 6 0.000000 0.000000 0.000000 0.000071 0.000000 0.017699
#
#
# Mechanical properties :
#
#
# Convention : Reuss Voigt Hill
#
# Bulk Modulus (GPa) = 74.91506 100.00604 87.46055
# Shear Modulus (GPa) = 34.12064 47.11099 40.61581
#
# Velocity S-wave (km/s) = 3.71873 4.36966 4.05727
# Velocity P-wave (km/s) = 6.98580 8.12346 7.57601
#
# Compressibility (1/GPa) = 0.01334845
#
# Stress axis : x y z
#
# Youngs Moduli (GPa) = 64.50888 143.19915 135.27894
#
# Poissons Ratio (x) = 0.68507 0.18400
# Poissons Ratio (y) = 0.30861 0.28681
# Poissons Ratio (z) = 0.08774 0.30360
#
# Static dielectric constant tensor:
#      x y z
#    x 2.027980 0.000000 -0.001540 
#    y 0.000000 1.935200 0.000000 
#    z -0.001540 0.000000 1.975000 
# 
# From -- ./inp_files/202267.got.cif
#   From: 2010.05.17/outbox.cif.g08.bks.cpg/sg15_102_cif.got.tgz:202267.got - 2010.06.03 18:47:42.
