data_PCOD9285909
_publ_section_title
;
Structure prediction by ZEFSAII (Michael W. Deem and Ramdas Pophale) SiO2 
 PCOD9285909
Probable space group: C 2/C
;
_chemical_formula_sum "Si O2"
_cell_formula_units_Z 56
_cell_length_a 22.124761
_cell_length_b 14.848798
_cell_length_c 20.046114
_cell_angle_alpha 90.000000
_cell_angle_beta 154.173350
_cell_angle_gamma 90.000000
_cell_volume 2869.046715
_symmetry_space_group_name_H-M "C 2/C"
_symmetry_group_IT_number 15
_symmetry_cell_setting 'monoclinic'
loop_
_space_group_symop_operation_xyz
x,y,z
-x,y,1/2-z
-x,-y,-z
x,-y,1/2+z
1/2+x,1/2+y,z
1/2-x,1/2+y,1/2-z
1/2-x,1/2-y,-z
1/2+x,1/2-y,1/2+z
loop_
_atom_site_type_symbol
_atom_site_label
_atom_site_fract_x
_atom_site_fract_y
_atom_site_fract_z
Si Si1 0.869826 0.712043 0.167011
Si Si2 0.676838 0.016401 0.358005
Si Si3 0.325281 0.562761 0.268043
Si Si4 0.792481 0.264471 0.792196
Si Si5 0.047788 0.718368 0.455790
Si Si6 0.635792 0.968589 0.973092
Si Si7 0.655739 0.430939 0.091445
O O1 0.812267 0.623418 0.146475
O O2 0.000000 0.683485 0.250000
O O3 0.951479 0.769586 0.304607
O O4 0.750000 0.750000 0.000000
O O5 0.518766 0.989621 0.183093
O O6 0.691629 0.020951 0.452950
O O7 0.776602 0.956560 0.412174
O O8 0.264543 0.662227 0.213844
O O9 0.299091 0.507119 0.310304
O O10 0.489757 0.565232 0.421153
O O11 0.244874 0.513964 0.129539
O O12 0.679862 0.263043 0.620674
O O13 0.804661 0.165975 0.837742
O O14 0.939881 0.295731 0.908794
O O15 0.107196 0.630148 0.477265
#
# Coordination Sequence:
#
# PCOD9285909 Si02
#       7
#     8   8   8   8   8   8   8
#     4  11  21  39  59  95 134 174 221 268 341 412
#     4  10  22  43  62  93 133 176 224 274 334 412
#     4  11  24  42  67  99 131 178 230 283 342 403
#     4  12  24  42  66 101 136 177 230 285 341 404
#     4  11  22  39  65  96 138 175 223 282 339 404
#     4  10  21  42  68  93 128 179 227 272 339 405
#     4  11  25  43  64 100 140 175 226 286 344 403
#
# _framework density 19.518678000000001
#
# number of rings (size 3 to 8) (size 9 to 14) (size 15 to 20)
#    0.000    1.143    5.714    2.571    2.000    1.714 
#    2.571    0.714    0.000    0.000    0.000    0.000 
#    0.000    0.000    0.000    0.000    0.000    0.000 
#
# Total GULP energy -156129.581018 kJ/mol
# GULP energy per Si atom -5576.056465 kJ/mol
# Density = 1.947425 g / cm^3
# Si number density = 19.518678 Si / 1000 Ang^3
#
#
#
# Elastic Constant Matrix: (Units=GPa)
#
#
# Indices 1 2 3 4 5 6 
#
# 1 121.6015 34.9962 35.4162 0.0001 7.3956 0.0000
# 2 34.9962 71.1517 41.5704 0.0000 3.0300 0.0000
# 3 35.4162 41.5704 133.9771 0.0001 -8.8068 0.0001
# 4 0.0001 0.0000 0.0001 28.0637 0.0001 -4.7607
# 5 7.3956 3.0300 -8.8068 0.0001 20.9703 0.0001
# 6 0.0000 0.0000 0.0001 -4.7607 0.0001 28.0281
#
#
#
# Elastic Compliance Matrix: (Units=1/GPa)
#
#
# Indices 1 2 3 4 5 6 
#
# 1 0.010038 -0.003769 -0.001729 0.000000 -0.003722 0.000000
# 2 -0.003769 0.019075 -0.005159 0.000000 -0.003593 0.000000
# 3 -0.001729 -0.005159 0.009883 0.000000 0.005506 0.000000
# 4 0.000000 0.000000 0.000000 0.036690 0.000000 0.006232
# 5 -0.003722 -0.003593 0.005506 0.000000 0.051830 0.000000
# 6 0.000000 0.000000 0.000000 0.006232 0.000000 0.036737
#
#
# Mechanical properties :
#
#
# Convention : Reuss Voigt Hill
#
# Bulk Modulus (GPa) = 56.54696 61.18844 58.86770
# Shear Modulus (GPa) = 26.11493 29.72892 27.92193
#
# Velocity S-wave (km/s) = 3.66176 3.90693 3.78633
# Velocity P-wave (km/s) = 6.84920 7.19505 7.02426
#
# Compressibility (1/GPa) = 0.01768442
#
# Stress axis : x y z
#
# Youngs Moduli (GPa) = 99.62095 52.42450 101.17905
#
# Poissons Ratio (x) = 0.19757 0.17492
# Poissons Ratio (y) = 0.37544 0.52194
# Poissons Ratio (z) = 0.17222 0.27044
#
# Static dielectric constant tensor:
#      x y z
#    x 1.737930 0.000000 -0.020870 
#    y 0.000000 1.705170 0.000000 
#    z -0.020870 0.000000 1.710490 
# 
# From -- ./inp_files/215768.got.cif
#   From: 2010.05.17/outbox.cif.g08.bks.cpg/sg15_108_cif.got.tgz:215768.got - 2010.06.03 18:47:42.
