data_PCOD9285740
_publ_section_title
;
Structure prediction by ZEFSAII (Michael W. Deem and Ramdas Pophale) SiO2 
 PCOD9285740
Probable space group: C 2/C
;
_chemical_formula_sum "Si O2"
_cell_formula_units_Z 40
_cell_length_a 26.633463
_cell_length_b 8.003599
_cell_length_c 15.929475
_cell_angle_alpha 90.000000
_cell_angle_beta 32.029371
_cell_angle_gamma 90.000000
_cell_volume 1800.861060
_symmetry_space_group_name_H-M "C 2/C"
_symmetry_group_IT_number 15
_symmetry_cell_setting 'monoclinic'
loop_
_space_group_symop_operation_xyz
x,y,z
-x,y,1/2-z
-x,-y,-z
x,-y,1/2+z
1/2+x,1/2+y,z
1/2-x,1/2+y,1/2-z
1/2-x,1/2-y,-z
1/2+x,1/2-y,1/2+z
loop_
_atom_site_type_symbol
_atom_site_label
_atom_site_fract_x
_atom_site_fract_y
_atom_site_fract_z
Si Si1 0.891140 0.175828 0.301099
Si Si2 0.279308 0.863931 0.578462
Si Si3 0.968895 0.308795 0.537052
Si Si4 0.310214 0.396506 0.169047
Si Si5 0.017642 0.129738 0.640142
O O1 0.795063 0.120215 0.391511
O O2 0.875232 0.316771 0.393982
O O3 0.941122 0.015314 0.266984
O O4 0.956360 0.233392 0.133473
O O5 0.262112 0.698589 0.659697
O O6 0.264065 0.016823 0.662971
O O7 0.869987 0.243833 0.636485
O O8 0.982590 0.227063 0.608141
O O9 0.000000 0.500000 0.500000
O O10 0.384227 0.537079 0.028230
O O11 0.000000 0.236589 0.750000
#
# Coordination Sequence:
#
# PCOD9285740 Si02
#       5
#     8   8   8   8   8
#     4  10  21  42  66  92 131 171 219 269 339 397
#     4  11  22  39  66  98 129 171 215 279 340 395
#     4  11  24  44  63  92 133 179 225 276 321 407
#     4  11  23  40  68  92 136 173 219 277 341 395
#     4  11  20  44  69  93 126 181 227 266 330 410
#
# _framework density 22.211597000000001
#
# number of rings (size 3 to 8) (size 9 to 14) (size 15 to 20)
#    0.000    1.200    6.000    1.200    2.800    0.000 
#    7.200    1.000    0.000    0.000    0.000    0.000 
#    0.000    0.000    0.000    0.000    0.000    0.000 
#
# Total GULP energy -111553.415966 kJ/mol
# GULP energy per Si atom -5577.670798 kJ/mol
# Density = 2.216104 g / cm^3
# Si number density = 22.211597 Si / 1000 Ang^3
#
#
#
# Elastic Constant Matrix: (Units=GPa)
#
#
# Indices 1 2 3 4 5 6 
#
# 1 62.1910 29.4714 36.2333 0.0015 27.1363 0.0031
# 2 29.4714 48.2005 11.5891 0.0012 4.2430 0.0023
# 3 36.2333 11.5891 92.7184 0.0003 31.3463 0.0013
# 4 0.0015 0.0012 0.0003 8.2034 -0.0006 -41.1238
# 5 27.1363 4.2430 31.3463 -0.0006 36.7495 -0.0014
# 6 0.0031 0.0023 0.0013 -41.1238 -0.0014 -50.5330
#
#
#
# Elastic Compliance Matrix: (Units=1/GPa)
#
#
# Indices 1 2 3 4 5 6 
#
# 1 0.037813 -0.020026 -0.005081 0.000001 -0.021275 0.000001
# 2 -0.020026 0.031997 0.000107 0.000000 0.011002 0.000000
# 3 -0.005081 0.000107 0.016151 0.000000 -0.010037 0.000000
# 4 0.000001 0.000000 0.000000 0.023998 -0.000001 -0.019530
# 5 -0.021275 0.011002 -0.010037 -0.000001 0.050212 -0.000001
# 6 0.000001 0.000000 0.000000 -0.019530 -0.000001 -0.003896
#
#
# Mechanical properties :
#
#
# Convention : Reuss Voigt Hill
#
# Bulk Modulus (GPa) = 27.80770 39.74419 33.77594
# Shear Modulus (GPa) = 22.90832 7.27172 15.09002
#
# Velocity S-wave (km/s) = 3.21497 1.81134 2.60931
# Velocity P-wave (km/s) = 5.13109 4.72302 4.93127
#
# Compressibility (1/GPa) = 0.03596127
#
# Stress axis : x y z
#
# Youngs Moduli (GPa) = 26.44600 31.25306 61.91658
#
# Poissons Ratio (x) = 0.62586 0.31460
# Poissons Ratio (y) = 0.52960 -0.00662
# Poissons Ratio (z) = 0.13437 -0.00334
#
# Static dielectric constant tensor:
#      x y z
#    x 1.920510 0.000000 -0.019670 
#    y 0.000000 1.733720 0.000000 
#    z -0.019670 0.000000 1.806340 
# 
# From -- ./inp_files/159084.got.cif
#   From: 2010.05.17/outbox.cif.g08.bks.cpg/sg15_80_cif.got.tgz:159084.got - 2010.06.03 18:47:42.
