data_PCOD9285032
_publ_section_title
;
Structure prediction by ZEFSAII (Michael W. Deem and Ramdas Pophale) SiO2 
 PCOD9285032
Probable space group: C 2/C
;
_chemical_formula_sum "Si O2"
_cell_formula_units_Z 52
_cell_length_a 14.646697
_cell_length_b 8.426461
_cell_length_c 30.229899
_cell_angle_alpha 90.000000
_cell_angle_beta 141.974718
_cell_angle_gamma 90.000000
_cell_volume 2298.310792
_symmetry_space_group_name_H-M "C 2/C"
_symmetry_group_IT_number 15
_symmetry_cell_setting 'monoclinic'
loop_
_space_group_symop_operation_xyz
x,y,z
-x,y,1/2-z
-x,-y,-z
x,-y,1/2+z
1/2+x,1/2+y,z
1/2-x,1/2+y,1/2-z
1/2-x,1/2-y,-z
1/2+x,1/2-y,1/2+z
loop_
_atom_site_type_symbol
_atom_site_label
_atom_site_fract_x
_atom_site_fract_y
_atom_site_fract_z
Si Si1 0.087205 0.183315 0.538570
Si Si2 0.116056 0.354201 0.968123
Si Si3 0.292082 0.650255 0.061011
Si Si4 0.672940 0.369398 0.611608
Si Si5 0.391223 0.494344 0.318147
Si Si6 0.500000 0.856580 0.750000
Si Si7 0.416759 0.117869 0.314224
O O1 0.241083 0.263926 0.585823
O O2 0.000203 0.251170 0.547785
O O3 0.974649 0.229491 0.455042
O O4 0.142876 0.999785 0.561689
O O5 0.030355 0.433454 0.894736
O O6 0.250000 0.250000 0.000000
O O7 0.197296 0.489213 0.025861
O O8 0.462175 0.599198 0.129597
O O9 0.250000 0.750000 0.000000
O O10 0.653991 0.474026 0.648178
O O11 0.833494 0.286466 0.675787
O O12 0.418185 0.311127 0.316001
O O13 0.247659 0.558332 0.237770
O O14 0.532578 0.937772 0.715188
#
# Coordination Sequence:
#
# PCOD9285032 Si02
#       7
#     8   8   8   8   8   4   8
#     4  11  23  41  68  98 136 171 225 276 329 394
#     4  12  24  45  71  98 135 177 223 276 337 395
#     4  12  26  42  68 104 133 173 225 280 332 395
#     4  10  21  41  66  96 130 178 220 267 335 399
#     4  11  24  46  64  96 135 176 220 276 335 400
#     4  10  24  38  68  94 130 174 226 268 334 402
#     4  11  25  45  67  95 133 175 223 274 338 396
#
# _framework density 22.625313999999999
#
# number of rings (size 3 to 8) (size 9 to 14) (size 15 to 20)
#    0.000    0.923    4.615    1.385    6.462    1.231 
#    2.769    0.000    0.000    0.000    0.000    0.000 
#    0.000    0.000    0.000    0.000    0.000    0.000 
#
# Total GULP energy -144821.132264 kJ/mol
# GULP energy per Si atom -5570.043549 kJ/mol
# Density = 2.257382 g / cm^3
# Si number density = 22.625314 Si / 1000 Ang^3
#
#
#
# Elastic Constant Matrix: (Units=GPa)
#
#
# Indices 1 2 3 4 5 6 
#
# 1 90.3280 10.0334 11.6869 0.0000 15.6562 0.0000
# 2 10.0334 31.5142 -20.9001 0.0000 10.6885 0.0000
# 3 11.6869 -20.9001 120.2603 0.0000 22.4950 0.0000
# 4 0.0000 0.0000 0.0000 27.5170 0.0000 7.1478
# 5 15.6562 10.6885 22.4950 0.0000 38.6815 0.0000
# 6 0.0000 0.0000 0.0000 7.1478 0.0000 17.0873
#
#
#
# Elastic Compliance Matrix: (Units=1/GPa)
#
#
# Indices 1 2 3 4 5 6 
#
# 1 0.012186 -0.003572 -0.001197 0.000000 -0.003249 0.000000
# 2 -0.003572 0.047129 0.012010 0.000000 -0.018561 0.000000
# 3 -0.001197 0.012010 0.012397 0.000000 -0.010044 0.000000
# 4 0.000000 0.000000 0.000000 0.040771 0.000000 -0.017055
# 5 -0.003249 -0.018561 -0.010044 0.000000 0.038137 0.000000
# 6 0.000000 0.000000 0.000000 -0.017055 0.000000 0.065657
#
#
# Mechanical properties :
#
#
# Convention : Reuss Voigt Hill
#
# Bulk Modulus (GPa) = 11.60186 27.08255 19.34220
# Shear Modulus (GPa) = 21.68945 32.74266 27.21605
#
# Velocity S-wave (km/s) = 3.09954 3.80829 3.47205
# Velocity P-wave (km/s) = 4.23657 5.59763 4.96397
#
# Compressibility (1/GPa) = 0.08619306
#
# Stress axis : x y z
#
# Youngs Moduli (GPa) = 82.06463 21.21846 80.66168
#
# Poissons Ratio (x) = 0.07579 0.09657
# Poissons Ratio (y) = 0.29311 -0.96871
# Poissons Ratio (z) = 0.09825 -0.25482
#
# Static dielectric constant tensor:
#      x y z
#    x 1.932680 0.000000 0.081340 
#    y 0.000000 2.807400 0.000000 
#    z 0.081340 0.000000 2.016940 
# 
# From -- ./inp_files/313222.got.cif
#   From: 2010.05.17/outbox.cif.g08.bks.cpg/sg15_157_cif.got.tgz:313222.got - 2010.06.03 18:47:42.
