data_PCOD9285124
_publ_section_title
;
Structure prediction by ZEFSAII (Michael W. Deem and Ramdas Pophale) SiO2 
 PCOD9285124
Probable space group: C 2/C
;
_chemical_formula_sum "Si O2"
_cell_formula_units_Z 32
_cell_length_a 11.435443
_cell_length_b 8.320673
_cell_length_c 15.518470
_cell_angle_alpha 90.000000
_cell_angle_beta 87.324980
_cell_angle_gamma 90.000000
_cell_volume 1474.982434
_symmetry_space_group_name_H-M "C 2/C"
_symmetry_group_IT_number 15
_symmetry_cell_setting 'monoclinic'
loop_
_space_group_symop_operation_xyz
x,y,z
-x,y,1/2-z
-x,-y,-z
x,-y,1/2+z
1/2+x,1/2+y,z
1/2-x,1/2+y,1/2-z
1/2-x,1/2-y,-z
1/2+x,1/2-y,1/2+z
loop_
_atom_site_type_symbol
_atom_site_label
_atom_site_fract_x
_atom_site_fract_y
_atom_site_fract_z
Si Si1 0.453472 0.261252 0.657646
Si Si2 0.744674 0.395236 0.067980
Si Si3 0.093476 0.646921 0.495549
Si Si4 0.486790 0.624879 0.652845
O O1 0.500000 0.218960 0.750000
O O2 0.342784 0.153274 0.634866
O O3 0.555890 0.236675 0.583594
O O4 0.423781 0.451305 0.658160
O O5 0.783047 0.557957 0.018305
O O6 0.617487 0.403308 0.112732
O O7 0.750000 0.250000 0.000000
O O8 0.000000 0.500000 0.500000
O O9 0.072402 0.755339 0.412423
O O10 0.500000 0.687431 0.750000
#
# Coordination Sequence:
#
# PCOD9285124 Si02
#       4
#     8   8   8   8
#     4  10  23  44  64  99 136 164 220 273 315 392
#     4  11  23  44  66  93 130 174 216 265 327 384
#     4  10  21  41  67  94 129 174 209 269 323 380
#     4  11  24  43  66  98 133 169 220 270 321 391
#
# _framework density 21.695173
#
# number of rings (size 3 to 8) (size 9 to 14) (size 15 to 20)
#    0.000    1.500    5.000    0.750    0.000    9.000 
#    9.000    0.000    0.000    0.000    0.000    0.000 
#    0.000    0.000    0.000    0.000    0.000    0.000 
#
# Total GULP energy -89475.246508 kJ/mol
# GULP energy per Si atom -5592.202907 kJ/mol
# Density = 2.164579 g / cm^3
# Si number density = 21.695173 Si / 1000 Ang^3
#
#
#
# Elastic Constant Matrix: (Units=GPa)
#
#
# Indices 1 2 3 4 5 6 
#
# 1 61.7812 9.4437 -1.7840 0.0000 -5.4349 0.0000
# 2 9.4437 73.9604 46.0429 0.0000 18.6327 0.0000
# 3 -1.7840 46.0429 143.9269 0.0000 11.7275 0.0000
# 4 0.0000 0.0000 0.0000 12.8061 0.0000 20.2100
# 5 -5.4349 18.6327 11.7275 0.0000 31.4194 0.0000
# 6 0.0000 0.0000 0.0000 20.2100 0.0000 18.7679
#
#
#
# Elastic Compliance Matrix: (Units=1/GPa)
#
#
# Indices 1 2 3 4 5 6 
#
# 1 0.017305 -0.004196 0.001145 0.000000 0.005054 0.000000
# 2 -0.004196 0.020262 -0.005668 0.000000 -0.010626 0.000000
# 3 0.001145 -0.005668 0.008752 0.000000 0.000293 0.000000
# 4 0.000000 0.000000 0.000000 -0.111646 0.000000 0.120225
# 5 0.005054 -0.010626 0.000293 0.000000 0.038894 0.000000
# 6 0.000000 0.000000 0.000000 0.120225 0.000000 -0.076180
#
#
# Mechanical properties :
#
#
# Convention : Reuss Voigt Hill
#
# Bulk Modulus (GPa) = 34.62476 43.00818 38.81647
# Shear Modulus (GPa) = -66.18287 27.66305 -19.25991
#
# Velocity S-wave (km/s) = -5.52920 3.57470 -2.98275
# Velocity P-wave (km/s) = 4.97679 6.07494 2.46338
#
# Compressibility (1/GPa) = 0.02888106
#
# Stress axis : x y z
#
# Youngs Moduli (GPa) = 57.78614 49.35324 114.26541
#
# Poissons Ratio (x) = 0.20707 -0.13082
# Poissons Ratio (y) = 0.24245 0.64767
# Poissons Ratio (z) = -0.06616 0.27974
#
# Static dielectric constant tensor:
#      x y z
#    x 1.810430 0.000000 -0.051060 
#    y 0.000000 1.852110 0.000000 
#    z -0.051060 0.000000 1.546550 
# 
# From -- ./inp_files/140514.got.cif
#   From: 2010.05.17/outbox.cif.g08.bks.cpg/sg15_71_cif.got.tgz:140514.got - 2010.06.03 18:47:42.
