data_PCOD9285125
_publ_section_title
;
Structure prediction by ZEFSAII (Michael W. Deem and Ramdas Pophale) SiO2 
 PCOD9285125
Probable space group: C 2/C
;
_chemical_formula_sum "Si O2"
_cell_formula_units_Z 48
_cell_length_a 8.184087
_cell_length_b 23.821217
_cell_length_c 10.864909
_cell_angle_alpha 90.000000
_cell_angle_beta 94.119148
_cell_angle_gamma 90.000000
_cell_volume 2112.695802
_symmetry_space_group_name_H-M "C 2/C"
_symmetry_group_IT_number 15
_symmetry_cell_setting 'monoclinic'
loop_
_space_group_symop_operation_xyz
x,y,z
-x,y,1/2-z
-x,-y,-z
x,-y,1/2+z
1/2+x,1/2+y,z
1/2-x,1/2+y,1/2-z
1/2-x,1/2-y,-z
1/2+x,1/2-y,1/2+z
loop_
_atom_site_type_symbol
_atom_site_label
_atom_site_fract_x
_atom_site_fract_y
_atom_site_fract_z
Si Si1 0.187256 0.159223 0.928454
Si Si2 0.678252 0.174716 0.313005
Si Si3 0.308130 0.365203 0.463062
Si Si4 0.316496 0.222956 0.706723
Si Si5 0.300511 0.559046 0.730720
Si Si6 0.805036 0.068990 0.214339
O O1 0.197299 0.196064 0.804682
O O2 0.248763 0.098226 0.886187
O O3 0.001718 0.149229 0.963488
O O4 0.291219 0.187582 0.042324
O O5 0.500000 0.185072 0.250000
O O6 0.795884 0.211082 0.230396
O O7 0.720464 0.109056 0.308137
O O8 0.222989 0.306295 0.424525
O O9 0.253225 0.407921 0.351523
O O10 0.274053 0.398579 0.585223
O O11 0.500000 0.206904 0.750000
O O12 0.500000 0.558482 0.750000
O O13 0.246504 0.495062 0.715162
O O14 0.000000 0.068541 0.250000
#
# Coordination Sequence:
#
# PCOD9285125 Si02
#       6
#     8   8   8   8   8   8
#     4  10  21  43  66  92 125 168 206 258 310 372
#     4  12  26  42  61  92 129 165 211 259 318 370
#     4  10  21  41  67  94 130 162 211 256 312 373
#     4  11  25  43  67  91 121 166 211 261 316 374
#     4   8  19  36  66  95 124 164 207 254 306 365
#     4  11  22  38  65  99 125 167 210 259 304 369
#
# _framework density 22.719788999999999
#
# number of rings (size 3 to 8) (size 9 to 14) (size 15 to 20)
#    0.000    1.667    1.667    3.500    4.667    2.667 
#    0.000    4.167    0.000    0.000    0.000    0.000 
#    0.000    0.000    0.000    0.000    0.000    0.000 
#
# Total GULP energy -134093.714007 kJ/mol
# GULP energy per Si atom -5587.238084 kJ/mol
# Density = 2.266808 g / cm^3
# Si number density = 22.719789 Si / 1000 Ang^3
#
#
#
# Elastic Constant Matrix: (Units=GPa)
#
#
# Indices 1 2 3 4 5 6 
#
# 1 32.0177 -3.8934 5.1829 0.0000 11.4192 0.0000
# 2 -3.8934 148.2266 39.5884 0.0000 7.3242 0.0000
# 3 5.1829 39.5884 122.7555 0.0000 17.6187 0.0000
# 4 0.0000 0.0000 0.0000 29.1124 0.0000 -0.7804
# 5 11.4192 7.3242 17.6187 0.0000 22.4330 0.0000
# 6 0.0000 0.0000 0.0000 -0.7804 0.0000 -28.4023
#
#
#
# Elastic Compliance Matrix: (Units=1/GPa)
#
#
# Indices 1 2 3 4 5 6 
#
# 1 0.038810 0.001849 0.000775 0.000000 -0.020968 0.000000
# 2 0.001849 0.007478 -0.002259 0.000000 -0.001608 0.000000
# 3 0.000775 -0.002259 0.009910 0.000000 -0.007440 0.000000
# 4 0.000000 0.000000 0.000000 0.034324 0.000000 -0.000943
# 5 -0.020968 -0.001608 -0.007440 0.000000 0.061619 0.000000
# 6 0.000000 0.000000 0.000000 -0.000943 0.000000 -0.035182
#
#
# Mechanical properties :
#
#
# Convention : Reuss Voigt Hill
#
# Bulk Modulus (GPa) = 17.56639 42.75062 30.15850
# Shear Modulus (GPa) = 36.98079 22.10341 29.54210
#
# Velocity S-wave (km/s) = 4.03884 3.12247 3.60985
# Velocity P-wave (km/s) = 5.43122 5.64421 5.53874
#
# Compressibility (1/GPa) = 0.05692690
#
# Stress axis : x y z
#
# Youngs Moduli (GPa) = 25.76632 133.73048 100.90973
#
# Poissons Ratio (x) = -0.24721 -0.07817
# Poissons Ratio (y) = -0.04763 0.22793
# Poissons Ratio (z) = -0.01996 0.30206
#
# Static dielectric constant tensor:
#      x y z
#    x 1.837070 0.000000 0.006170 
#    y 0.000000 1.872490 0.000000 
#    z 0.006170 0.000000 1.864870 
# 
# From -- ./inp_files/79117.got.cif
#   From: 2010.05.17/outbox.cif.g08.bks.cpg/sg15_40_cif.got.tgz:79117.got - 2010.06.03 18:47:42.
