data_PCOD9285389
_publ_section_title
;
Structure prediction by ZEFSAII (Michael W. Deem and Ramdas Pophale) SiO2 
 PCOD9285389
Probable space group: C 2/C
;
_chemical_formula_sum "Si O2"
_cell_formula_units_Z 40
_cell_length_a 16.195464
_cell_length_b 11.316678
_cell_length_c 8.832236
_cell_angle_alpha 90.000000
_cell_angle_beta 74.214883
_cell_angle_gamma 90.000000
_cell_volume 1557.716426
_symmetry_space_group_name_H-M "C 2/C"
_symmetry_group_IT_number 15
_symmetry_cell_setting 'monoclinic'
loop_
_space_group_symop_operation_xyz
x,y,z
-x,y,1/2-z
-x,-y,-z
x,-y,1/2+z
1/2+x,1/2+y,z
1/2-x,1/2+y,1/2-z
1/2-x,1/2-y,-z
1/2+x,1/2-y,1/2+z
loop_
_atom_site_type_symbol
_atom_site_label
_atom_site_fract_x
_atom_site_fract_y
_atom_site_fract_z
Si Si1 0.635752 0.948515 0.722159
Si Si2 0.531919 0.379145 0.407560
Si Si3 0.275455 0.695688 0.268689
Si Si4 0.709511 0.413536 0.455193
Si Si5 0.582307 0.169769 0.953510
O O1 0.729385 0.975602 0.597404
O O2 0.593278 0.058628 0.831799
O O3 0.676734 0.848411 0.808652
O O4 0.580663 0.893092 0.616883
O O5 0.500000 0.370760 0.250000
O O6 0.500000 0.500000 0.500000
O O7 0.632734 0.396257 0.378962
O O8 0.496085 0.262492 0.513628
O O9 0.319881 0.600158 0.357453
O O10 0.275083 0.811974 0.372858
O O11 0.334518 0.743009 0.103432
#
# Coordination Sequence:
#
# PCOD9285389 Si02
#       5
#     8   8   8   8   8
#     4  11  21  44  76 112 140 196 251 316 366 447
#     4  12  29  49  72 107 150 198 244 308 383 452
#     4  10  21  41  72 104 139 190 247 300 361 440
#     4  10  23  41  72 101 142 185 247 298 366 445
#     4  11  25  44  76 112 152 192 251 315 379 449
#
# _framework density 25.678616999999999
#
# number of rings (size 3 to 8) (size 9 to 14) (size 15 to 20)
#    0.000    1.200    2.000    3.000    5.600    1.600 
#    0.000    4.000    8.800    0.000    0.000    0.000 
#    0.000    0.000    0.000    0.000    0.000    0.000 
#
# Total GULP energy -111529.512528 kJ/mol
# GULP energy per Si atom -5576.475626 kJ/mol
# Density = 2.562017 g / cm^3
# Si number density = 25.678617 Si / 1000 Ang^3
#
#
#
# Elastic Constant Matrix: (Units=GPa)
#
#
# Indices 1 2 3 4 5 6 
#
# 1 68.6544 39.6832 37.2475 0.0000 -10.6713 0.0000
# 2 39.6832 143.6647 55.0400 0.0000 -14.6407 0.0000
# 3 37.2475 55.0400 107.0017 0.0000 -1.7572 0.0000
# 4 0.0000 0.0000 0.0000 53.2881 0.0000 -16.4374
# 5 -10.6713 -14.6407 -1.7572 0.0000 24.8129 0.0000
# 6 0.0000 0.0000 0.0000 -16.4374 0.0000 55.0430
#
#
#
# Elastic Compliance Matrix: (Units=1/GPa)
#
#
# Indices 1 2 3 4 5 6 
#
# 1 0.020189 -0.002801 -0.005478 0.000000 0.006642 0.000000
# 2 -0.002801 0.009670 -0.003930 0.000000 0.004223 0.000000
# 3 -0.005478 -0.003930 0.013213 0.000000 -0.003739 0.000000
# 4 0.000000 0.000000 0.000000 0.020670 0.000000 0.006173
# 5 0.006642 0.004223 -0.003739 0.000000 0.045385 0.000000
# 6 0.000000 0.000000 0.000000 0.006173 0.000000 0.020011
#
#
# Mechanical properties :
#
#
# Convention : Reuss Voigt Hill
#
# Bulk Modulus (GPa) = 53.60708 64.80690 59.20699
# Shear Modulus (GPa) = 31.29420 39.11881 35.20651
#
# Velocity S-wave (km/s) = 3.49476 3.90731 3.70678
# Velocity P-wave (km/s) = 6.09967 6.75637 6.43640
#
# Compressibility (1/GPa) = 0.01865425
#
# Stress axis : x y z
#
# Youngs Moduli (GPa) = 49.53145 103.40932 75.68534
#
# Poissons Ratio (x) = 0.28966 0.41460
# Poissons Ratio (y) = 0.13874 0.29743
# Poissons Ratio (z) = 0.27133 0.40638
#
# Static dielectric constant tensor:
#      x y z
#    x 2.118030 0.000000 0.045760 
#    y 0.000000 2.259630 0.000000 
#    z 0.045760 0.000000 2.607460 
# 
# From -- ./inp_files/46105.got.cif
#   From: 2010.05.17/outbox.cif.g08.bks.cpg/sg15_24_cif.got.tgz:46105.got - 2010.06.03 18:47:42.
