data_PCOD9285098
_publ_section_title
;
Structure prediction by ZEFSAII (Michael W. Deem and Ramdas Pophale) SiO2 
 PCOD9285098
Probable space group: C 2/C
;
_chemical_formula_sum "Si O2"
_cell_formula_units_Z 48
_cell_length_a 8.745982
_cell_length_b 28.225089
_cell_length_c 14.158744
_cell_angle_alpha 90.000000
_cell_angle_beta 140.857432
_cell_angle_gamma 90.000000
_cell_volume 2206.335395
_symmetry_space_group_name_H-M "C 2/C"
_symmetry_group_IT_number 15
_symmetry_cell_setting 'monoclinic'
loop_
_space_group_symop_operation_xyz
x,y,z
-x,y,1/2-z
-x,-y,-z
x,-y,1/2+z
1/2+x,1/2+y,z
1/2-x,1/2+y,1/2-z
1/2-x,1/2-y,-z
1/2+x,1/2-y,1/2+z
loop_
_atom_site_type_symbol
_atom_site_label
_atom_site_fract_x
_atom_site_fract_y
_atom_site_fract_z
Si Si1 0.781177 0.111327 0.859449
Si Si2 0.238885 0.008330 0.678772
Si Si3 0.500000 0.768319 0.750000
Si Si4 0.000000 0.243796 0.250000
Si Si5 0.430316 0.826399 0.889759
Si Si6 0.611873 0.411783 0.699549
Si Si7 0.665888 0.808624 0.181337
O O1 0.500000 0.117659 0.750000
O O2 0.837902 0.159354 0.829746
O O3 0.791504 0.062802 0.803598
O O4 0.926341 0.100882 0.025468
O O5 0.500000 0.005630 0.750000
O O6 0.218354 0.964611 0.740278
O O7 0.000000 0.000000 0.500000
O O8 0.572603 0.799573 0.875069
O O9 0.706908 0.733624 0.813449
O O10 0.778827 0.210014 0.173671
O O11 0.033433 0.281036 0.351777
O O12 0.316976 0.872435 0.789161
O O13 0.563990 0.840914 0.049369
O O14 0.500000 0.406250 0.750000
#
# Coordination Sequence:
#
# PCOD9285098 Si02
#       7
#     8   8   4   4   8   8   8
#     4  10  21  41  67  91 128 168 211 266 328 395
#     4   9  21  44  68  96 133 178 216 270 338 400
#     4  10  26  42  58  90 132 166 220 266 334 384
#     4  10  22  36  64  90 126 160 220 264 324 378
#     4  11  23  40  63  94 126 169 217 267 326 390
#     4  11  23  40  66  99 129 167 221 271 327 397
#     4  11  22  41  63  90 126 169 215 269 323 387
#
# _framework density 21.755531999999999
#
# number of rings (size 3 to 8) (size 9 to 14) (size 15 to 20)
#    0.000    1.667    1.667    2.000    1.167    6.667 
#    4.500   11.667    0.000    0.000    0.000    0.000 
#    0.000    0.000    0.000    0.000    0.000    0.000 
#
# Total GULP energy -133823.534717 kJ/mol
# GULP energy per Si atom -5575.980613 kJ/mol
# Density = 2.170602 g / cm^3
# Si number density = 21.755532 Si / 1000 Ang^3
#
#
#
# Elastic Constant Matrix: (Units=GPa)
#
#
# Indices 1 2 3 4 5 6 
#
# 1 80.4480 38.2861 23.5921 0.0000 -14.8208 0.0000
# 2 38.2861 133.0117 21.2671 0.0000 -16.7045 0.0000
# 3 23.5921 21.2671 71.8475 0.0000 -15.3591 0.0000
# 4 0.0000 0.0000 0.0000 -9.6522 0.0000 57.2344
# 5 -14.8208 -16.7045 -15.3591 0.0000 28.6443 0.0000
# 6 0.0000 0.0000 0.0000 57.2344 0.0000 -80.1528
#
#
#
# Elastic Compliance Matrix: (Units=1/GPa)
#
#
# Indices 1 2 3 4 5 6 
#
# 1 0.015855 -0.003491 -0.003224 0.000000 0.004439 0.000000
# 2 -0.003491 0.009041 -0.000891 0.000000 0.002988 0.000000
# 3 -0.003224 -0.000891 0.016686 0.000000 0.006759 0.000000
# 4 0.000000 0.000000 0.000000 0.032034 0.000000 0.022874
# 5 0.004439 0.002988 0.006759 0.000000 0.042575 0.000000
# 6 0.000000 0.000000 0.000000 0.022874 0.000000 0.003858
#
#
# Mechanical properties :
#
#
# Convention : Reuss Voigt Hill
#
# Bulk Modulus (GPa) = 37.92201 50.17755 44.04978
# Shear Modulus (GPa) = 34.71042 1.24531 17.97787
#
# Velocity S-wave (km/s) = 3.99867 0.75740 2.87776
# Velocity P-wave (km/s) = 6.22800 4.88664 5.59764
#
# Compressibility (1/GPa) = 0.02636991
#
# Stress axis : x y z
#
# Youngs Moduli (GPa) = 63.07180 110.61133 59.93169
#
# Poissons Ratio (x) = 0.38611 0.19322
# Poissons Ratio (y) = 0.22017 0.05340
# Poissons Ratio (z) = 0.20334 0.09856
#
# Static dielectric constant tensor:
#      x y z
#    x 1.822420 0.000000 -0.054830 
#    y 0.000000 1.822510 0.000000 
#    z -0.054830 0.000000 1.879760 
# 
# From -- ./inp_files/139118.got.cif
#   From: 2010.05.17/outbox.cif.g08.bks.cpg/sg15_70_cif.got.tgz:139118.got - 2010.06.03 18:47:42.
