data_PCOD9285274
_publ_section_title
;
Structure prediction by ZEFSAII (Michael W. Deem and Ramdas Pophale) SiO2 
 PCOD9285274
Probable space group: C 2/C
;
_chemical_formula_sum "Si O2"
_cell_formula_units_Z 56
_cell_length_a 11.609356
_cell_length_b 14.256296
_cell_length_c 17.541150
_cell_angle_alpha 90.000000
_cell_angle_beta 125.631225
_cell_angle_gamma 90.000000
_cell_volume 2359.650695
_symmetry_space_group_name_H-M "C 2/C"
_symmetry_group_IT_number 15
_symmetry_cell_setting 'monoclinic'
loop_
_space_group_symop_operation_xyz
x,y,z
-x,y,1/2-z
-x,-y,-z
x,-y,1/2+z
1/2+x,1/2+y,z
1/2-x,1/2+y,1/2-z
1/2-x,1/2-y,-z
1/2+x,1/2-y,1/2+z
loop_
_atom_site_type_symbol
_atom_site_label
_atom_site_fract_x
_atom_site_fract_y
_atom_site_fract_z
Si Si1 0.344185 0.719878 0.895638
Si Si2 0.270927 0.546245 0.956542
Si Si3 0.544565 0.027679 0.603896
Si Si4 0.895886 0.265266 0.389419
Si Si5 0.926240 0.353532 0.804572
Si Si6 0.230785 0.661752 0.438089
Si Si7 0.917832 0.153986 0.149507
O O1 0.308962 0.611684 0.899171
O O2 0.370910 0.757873 0.820940
O O3 0.214481 0.781977 0.876901
O O4 0.481856 0.745433 0.999814
O O5 0.311335 0.436887 0.967296
O O6 0.102063 0.555292 0.908234
O O7 0.356275 0.587696 0.060786
O O8 0.629867 0.125170 0.628437
O O9 0.500000 0.000000 0.500000
O O10 0.638183 0.950702 0.687721
O O11 0.762589 0.204051 0.366538
O O12 0.963778 0.222285 0.340368
O O13 0.000000 0.357449 0.750000
O O14 0.076760 0.367969 0.906708
O O15 0.250000 0.750000 0.500000
O O16 0.000000 0.104569 0.250000
#
# Coordination Sequence:
#
# PCOD9285274 Si02
#       7
#     8   8   8   8   8   8   8
#     4  11  20  42  66  91 129 178 221 266 329 395
#     4  10  21  41  69  93 128 177 231 258 326 407
#     4  11  18  39  70  97 123 176 227 267 319 406
#     4  11  20  39  68  93 125 169 226 265 318 396
#     4  11  25  41  65  97 140 167 217 285 341 379
#     4  11  23  43  67  98 127 179 224 267 325 410
#     4  11  23  37  64 102 134 164 218 285 334 380
#
# _framework density 23.732326
#
# number of rings (size 3 to 8) (size 9 to 14) (size 15 to 20)
#    0.000    1.143    5.714    1.714    2.000    2.857 
#    0.000    0.714    0.000    0.000    0.000    0.000 
#    0.000    0.000    0.000    0.000    0.000    0.000 
#
# Total GULP energy -156102.303131 kJ/mol
# GULP energy per Si atom -5575.082255 kJ/mol
# Density = 2.367831 g / cm^3
# Si number density = 23.732326 Si / 1000 Ang^3
#
#
#
# Elastic Constant Matrix: (Units=GPa)
#
#
# Indices 1 2 3 4 5 6 
#
# 1 79.1093 23.4089 3.7296 0.0000 -21.1242 0.0000
# 2 23.4089 172.3546 18.8807 0.0000 -33.0198 0.0000
# 3 3.7296 18.8807 46.7795 0.0000 -32.1365 0.0000
# 4 0.0000 0.0000 0.0000 4.7164 0.0000 -12.2472
# 5 -21.1242 -33.0198 -32.1365 0.0000 43.0882 0.0000
# 6 0.0000 0.0000 0.0000 -12.2472 0.0000 36.0901
#
#
#
# Elastic Compliance Matrix: (Units=1/GPa)
#
#
# Indices 1 2 3 4 5 6 
#
# 1 0.016053 -0.000462 0.008346 0.000000 0.013741 0.000000
# 2 -0.000462 0.006881 0.001490 0.000000 0.006158 0.000000
# 3 0.008346 0.001490 0.048613 0.000000 0.041491 0.000000
# 4 0.000000 0.000000 0.000000 1.784631 0.000000 0.605616
# 5 0.013741 0.006158 0.041491 0.000000 0.065609 0.000000
# 6 0.000000 0.000000 0.000000 0.605616 0.000000 0.233225
#
#
# Mechanical properties :
#
#
# Convention : Reuss Voigt Hill
#
# Bulk Modulus (GPa) = 11.07467 43.36465 27.21966
# Shear Modulus (GPa) = 2.30802 33.59390 17.95096
#
# Velocity S-wave (km/s) = 0.98723 3.76644 2.75324
# Velocity P-wave (km/s) = 2.44461 6.10138 4.64774
#
# Compressibility (1/GPa) = 0.09029616
#
# Stress axis : x y z
#
# Youngs Moduli (GPa) = 62.29294 145.32143 20.57044
#
# Poissons Ratio (x) = 0.06716 -0.17169
# Poissons Ratio (y) = 0.02879 -0.03065
# Poissons Ratio (z) = -0.51992 -0.21651
#
# Static dielectric constant tensor:
#      x y z
#    x 1.908140 0.000000 0.148610 
#    y 0.000000 1.984810 0.000000 
#    z 0.148610 0.000000 2.292330 
# 
# From -- ./inp_files/198434.got.cif
#   From: 2010.05.17/outbox.cif.g08.bks.cpg/sg15_100_cif.got.tgz:198434.got - 2010.06.03 18:47:42.
