data_PCOD9285887
_publ_section_title
;
Structure prediction by ZEFSAII (Michael W. Deem and Ramdas Pophale) SiO2 
 PCOD9285887
Probable space group: C 2/C
;
_chemical_formula_sum "Si O2"
_cell_formula_units_Z 32
_cell_length_a 11.199817
_cell_length_b 27.296308
_cell_length_c 5.487797
_cell_angle_alpha 90.000000
_cell_angle_beta 111.416587
_cell_angle_gamma 90.000000
_cell_volume 1561.849916
_symmetry_space_group_name_H-M "C 2/C"
_symmetry_group_IT_number 15
_symmetry_cell_setting 'monoclinic'
loop_
_space_group_symop_operation_xyz
x,y,z
-x,y,1/2-z
-x,-y,-z
x,-y,1/2+z
1/2+x,1/2+y,z
1/2-x,1/2+y,1/2-z
1/2-x,1/2-y,-z
1/2+x,1/2-y,1/2+z
loop_
_atom_site_type_symbol
_atom_site_label
_atom_site_fract_x
_atom_site_fract_y
_atom_site_fract_z
Si Si1 0.181224 0.108751 0.737721
Si Si2 0.500000 0.663634 0.250000
Si Si3 0.000000 0.969499 0.250000
Si Si4 0.352585 0.292446 0.032618
Si Si5 0.652872 0.971189 0.367293
O O1 0.062706 0.128278 0.491496
O O2 0.211701 0.157597 0.910797
O O3 0.282496 0.081241 0.641990
O O4 0.122803 0.065719 0.855933
O O5 0.387820 0.696728 0.278860
O O6 0.000000 0.000000 0.500000
O O7 0.500000 0.284516 0.250000
O O8 0.250000 0.250000 0.000000
O O9 0.500000 0.965327 0.250000
O O10 0.684847 0.993794 0.657035
#
# Coordination Sequence:
#
# PCOD9285887 Si02
#       5
#     8   4   4   8   8
#     4  11  22  39  62  95 127 169 215 277 326 407
#     4  10  21  42  68  86 138 160 218 283 344 400
#     4  12  23  34  62  98 130 172 214 263 338 398
#     4  10  23  44  66  95 130 170 223 283 350 405
#     4  10  23  42  62  91 134 178 220 270 330 401
#
# _framework density 20.488524999999999
#
# number of rings (size 3 to 8) (size 9 to 14) (size 15 to 20)
#    0.000    1.500    3.750    2.250    3.500    4.000 
#    6.750    0.000    0.000    0.000    0.000    0.000 
#    0.000    0.000    0.000    0.000    0.000    0.000 
#
# Total GULP energy -89161.899313 kJ/mol
# GULP energy per Si atom -5572.618707 kJ/mol
# Density = 2.044189 g / cm^3
# Si number density = 20.488525 Si / 1000 Ang^3
#
#
#
# Elastic Constant Matrix: (Units=GPa)
#
#
# Indices 1 2 3 4 5 6 
#
# 1 127.9778 93.8042 34.8009 0.0000 -20.5526 0.0000
# 2 93.8042 168.4174 46.2875 0.0000 -19.6316 0.0000
# 3 34.8009 46.2875 71.2807 0.0000 -22.6205 0.0000
# 4 0.0000 0.0000 0.0000 24.4126 0.0000 -6.5894
# 5 -20.5526 -19.6316 -22.6205 0.0000 34.5581 0.0000
# 6 0.0000 0.0000 0.0000 -6.5894 0.0000 64.8616
#
#
#
# Elastic Compliance Matrix: (Units=1/GPa)
#
#
# Indices 1 2 3 4 5 6 
#
# 1 0.013782 -0.006967 -0.001085 0.000000 0.003529 0.000000
# 2 -0.006967 0.010796 -0.003759 0.000000 -0.000471 0.000000
# 3 -0.001085 -0.003759 0.020343 0.000000 0.010535 0.000000
# 4 0.000000 0.000000 0.000000 0.042117 0.000000 0.004279
# 5 0.003529 -0.000471 0.010535 0.000000 0.037664 0.000000
# 6 0.000000 0.000000 0.000000 0.004279 0.000000 0.015852
#
#
# Mechanical properties :
#
#
# Convention : Reuss Voigt Hill
#
# Bulk Modulus (GPa) = 46.94773 79.71790 63.33282
# Shear Modulus (GPa) = 29.19281 37.61868 33.40574
#
# Velocity S-wave (km/s) = 3.77880 4.28960 4.04228
# Velocity P-wave (km/s) = 6.48097 7.97040 7.26396
#
# Compressibility (1/GPa) = 0.02130028
#
# Stress axis : x y z
#
# Youngs Moduli (GPa) = 72.55848 92.62613 49.15752
#
# Poissons Ratio (x) = 0.64530 0.05333
# Poissons Ratio (y) = 0.50549 0.18477
# Poissons Ratio (z) = 0.07872 0.34815
#
# Static dielectric constant tensor:
#      x y z
#    x 1.922020 0.000000 -0.180820 
#    y 0.000000 1.741540 0.000000 
#    z -0.180820 0.000000 1.947570 
# 
# From -- ./inp_files/3996.got.cif
#   From: 2010.05.17/outbox.cif.g08.bks.cpg/sg15_2_cif.got.tgz:3996.got - 2010.06.03 18:47:42.
