data_PCOD9285052
_publ_section_title
;
Structure prediction by ZEFSAII (Michael W. Deem and Ramdas Pophale) SiO2 
 PCOD9285052
Probable space group: C 2/C
;
_chemical_formula_sum "Si O2"
_cell_formula_units_Z 60
_cell_length_a 5.195569
_cell_length_b 17.823058
_cell_length_c 26.199993
_cell_angle_alpha 90.000000
_cell_angle_beta 106.109899
_cell_angle_gamma 90.000000
_cell_volume 2330.871974
_symmetry_space_group_name_H-M "C 2/C"
_symmetry_group_IT_number 15
_symmetry_cell_setting 'monoclinic'
loop_
_space_group_symop_operation_xyz
x,y,z
-x,y,1/2-z
-x,-y,-z
x,-y,1/2+z
1/2+x,1/2+y,z
1/2-x,1/2+y,1/2-z
1/2-x,1/2-y,-z
1/2+x,1/2-y,1/2+z
loop_
_atom_site_type_symbol
_atom_site_label
_atom_site_fract_x
_atom_site_fract_y
_atom_site_fract_z
Si Si1 0.504182 0.810897 0.099614
Si Si2 0.526502 0.788218 0.657108
Si Si3 0.542018 0.105859 0.692948
Si Si4 0.500000 0.696352 0.750000
Si Si5 0.182201 0.688912 0.047586
Si Si6 0.337580 0.076720 0.975183
Si Si7 0.408453 0.049563 0.355299
Si Si8 0.010470 0.957028 0.577056
O O1 0.737785 0.750248 0.126813
O O2 0.371911 0.844206 0.143988
O O3 0.310656 0.771668 0.047442
O O4 0.608869 0.885881 0.077219
O O5 0.636846 0.747872 0.714281
O O6 0.660914 0.798524 0.608554
O O7 0.544764 0.875178 0.673912
O O8 0.500000 0.114884 0.750000
O O9 0.833147 0.142139 0.704406
O O10 0.554408 0.020991 0.678462
O O11 0.385927 0.620033 0.047875
O O12 0.907069 0.649834 0.013427
O O13 0.052706 0.036442 0.953467
O O14 0.500000 0.000000 0.000000
O O15 0.142716 0.041900 0.375952
O O16 0.673041 0.049290 0.404971
#
# Coordination Sequence:
#
# PCOD9285052 Si02
#       8
#     8   8   8   4   8   8   8   8
#     4  11  21  43  67  97 138 183 230 295 348 419
#     4  10  23  42  69  98 136 185 227 297 347 423
#     4  11  25  40  70 100 135 180 230 290 356 424
#     4  10  24  46  66 104 138 174 236 288 366 412
#     4  10  21  41  66  97 138 180 239 281 350 417
#     4  10  22  41  64 102 140 186 234 291 353 415
#     4  11  23  44  72 101 140 184 237 285 359 422
#     4  10  22  44  67 102 140 187 228 295 347 423
#
# _framework density 25.741436
#
# number of rings (size 3 to 8) (size 9 to 14) (size 15 to 20)
#    0.000    1.600    2.667    1.200    2.800    1.600 
#    2.400    2.667    0.000    0.000    0.000    0.000 
#    0.000    0.000    0.000    0.000    0.000    0.000 
#
# Total GULP energy -167114.961128 kJ/mol
# GULP energy per Si atom -5570.498704 kJ/mol
# Density = 2.568285 g / cm^3
# Si number density = 25.741436 Si / 1000 Ang^3
#
#
#
# Elastic Constant Matrix: (Units=GPa)
#
#
# Indices 1 2 3 4 5 6 
#
# 1 50.7656 10.6689 17.2204 0.0000 -20.5738 0.0000
# 2 10.6689 142.5880 -18.5157 0.0000 -5.9574 0.0000
# 3 17.2204 -18.5157 -2.4879 0.0000 -7.8443 0.0000
# 4 0.0000 0.0000 0.0000 -92.9547 0.0000 -20.7277
# 5 -20.5738 -5.9574 -7.8443 0.0000 26.8261 0.0000
# 6 0.0000 0.0000 0.0000 -20.7277 0.0000 23.6133
#
#
#
# Elastic Compliance Matrix: (Units=1/GPa)
#
#
# Indices 1 2 3 4 5 6 
#
# 1 0.018620 0.003392 0.029260 0.000000 0.023590 0.000000
# 2 0.003392 0.005021 -0.013326 0.000000 -0.000180 0.000000
# 3 0.029260 -0.013326 -0.084114 0.000000 -0.005115 0.000000
# 4 0.000000 0.000000 0.000000 -0.008997 0.000000 -0.007897
# 5 0.023590 -0.000180 -0.005115 0.000000 0.053833 0.000000
# 6 0.000000 0.000000 0.000000 -0.007897 0.000000 0.035417
#
#
# Mechanical properties :
#
#
# Convention : Reuss Voigt Hill
#
# Bulk Modulus (GPa) = -45.83188 23.29031 -11.27078
# Shear Modulus (GPa) = -191.23789 3.59643 -93.82073
#
# Velocity S-wave (km/s) = -8.62862 1.18329 -6.04371
# Velocity P-wave (km/s) = 10.82193 3.30671 7.28628
#
# Compressibility (1/GPa) = -0.02181888
#
# Stress axis : x y z
#
# Youngs Moduli (GPa) = 53.70490 199.14386 -11.88862
#
# Poissons Ratio (x) = -0.67549 0.34787
# Poissons Ratio (y) = -0.18217 -0.15842
# Poissons Ratio (z) = -1.57143 2.65372
#
# Static dielectric constant tensor:
#      x y z
#    x 2.233470 0.000000 0.016800 
#    y 0.000000 2.099200 0.000000 
#    z 0.016800 0.000000 2.229570 
# 
# From -- ./inp_files/305691.got.cif
#   From: 2010.05.17/outbox.cif.g08.bks.cpg/sg15_153_cif.got.tgz:305691.got - 2010.06.03 18:47:42.
