data_PCOD9285655
_publ_section_title
;
Structure prediction by ZEFSAII (Michael W. Deem and Ramdas Pophale) SiO2 
 PCOD9285655
Probable space group: C 2/C
;
_chemical_formula_sum "Si O2"
_cell_formula_units_Z 60
_cell_length_a 8.314159
_cell_length_b 16.764403
_cell_length_c 23.197655
_cell_angle_alpha 90.000000
_cell_angle_beta 101.763084
_cell_angle_gamma 90.000000
_cell_volume 3165.430090
_symmetry_space_group_name_H-M "C 2/C"
_symmetry_group_IT_number 15
_symmetry_cell_setting 'monoclinic'
loop_
_space_group_symop_operation_xyz
x,y,z
-x,y,1/2-z
-x,-y,-z
x,-y,1/2+z
1/2+x,1/2+y,z
1/2-x,1/2+y,1/2-z
1/2-x,1/2-y,-z
1/2+x,1/2-y,1/2+z
loop_
_atom_site_type_symbol
_atom_site_label
_atom_site_fract_x
_atom_site_fract_y
_atom_site_fract_z
Si Si1 0.524969 0.339033 0.365354
Si Si2 0.877796 0.956608 0.447966
Si Si3 0.264709 0.614823 0.379243
Si Si4 0.000000 0.054476 0.750000
Si Si5 0.664079 0.233546 0.555089
Si Si6 0.306225 0.064776 0.251003
Si Si7 0.893776 0.666587 0.367374
Si Si8 0.329209 0.164020 0.493360
O O1 0.469848 0.394229 0.413979
O O2 0.519167 0.389616 0.307067
O O3 0.706857 0.307858 0.392945
O O4 0.408458 0.260965 0.355732
O O5 0.750527 0.906586 0.476460
O O6 0.802948 0.026281 0.403271
O O7 0.000000 0.000000 0.500000
O O8 0.378979 0.681652 0.417788
O O9 0.257999 0.613457 0.309533
O O10 0.081893 0.637333 0.385968
O O11 0.167216 0.002317 0.752975
O O12 0.750000 0.250000 0.500000
O O13 0.514173 0.176913 0.528780
O O14 0.500000 0.040993 0.250000
O O15 0.316074 0.119565 0.308480
O O16 0.816523 0.650627 0.423966
O O17 0.250000 0.250000 0.500000
#
# Coordination Sequence:
#
# PCOD9285655 Si02
#       8
#     8   8   8   4   8   8   8   8
#     4  11  24  44  67  99 129 174 223 275 328 407
#     4  12  25  40  64  96 138 168 215 276 329 393
#     4  10  21  42  65  91 132 172 213 279 329 394
#     4  12  26  44  74  96 136 178 224 280 348 386
#     4  11  21  42  65  95 132 173 219 267 336 407
#     4  10  24  45  69  95 133 177 231 278 330 405
#     4  10  23  42  69  91 129 176 222 264 338 393
#     4  12  23  40  67  97 134 174 218 277 333 405
#
# _framework density 18.95477
#
# number of rings (size 3 to 8) (size 9 to 14) (size 15 to 20)
#    0.000    1.067    5.333    1.600    6.533    3.733 
#    0.000    0.000    1.467    0.000    0.000    0.000 
#    0.000    0.000    0.000    0.000    0.000    0.000 
#
# Total GULP energy -167512.964514 kJ/mol
# GULP energy per Si atom -5583.765484 kJ/mol
# Density = 1.891163 g / cm^3
# Si number density = 18.954770 Si / 1000 Ang^3
#
#
#
# Elastic Constant Matrix: (Units=GPa)
#
#
# Indices 1 2 3 4 5 6 
#
# 1 70.8992 42.6569 39.2030 0.0000 -2.3105 0.0000
# 2 42.6569 104.0762 38.8550 0.0000 8.8878 0.0000
# 3 39.2030 38.8550 123.4743 0.0000 -0.3541 0.0000
# 4 0.0000 0.0000 0.0000 49.1125 0.0000 0.4108
# 5 -2.3105 8.8878 -0.3541 0.0000 24.6598 0.0000
# 6 0.0000 0.0000 0.0000 0.4108 0.0000 37.5927
#
#
#
# Elastic Compliance Matrix: (Units=1/GPa)
#
#
# Indices 1 2 3 4 5 6 
#
# 1 0.021133 -0.007426 -0.004360 0.000000 0.004594 0.000000
# 2 -0.007426 0.013901 -0.002033 0.000000 -0.005735 0.000000
# 3 -0.004360 -0.002033 0.010124 0.000000 0.000470 0.000000
# 4 0.000000 0.000000 0.000000 0.020363 0.000000 -0.000223
# 5 0.004594 -0.005735 0.000470 0.000000 0.043056 0.000000
# 6 0.000000 0.000000 0.000000 -0.000223 0.000000 0.026603
#
#
# Mechanical properties :
#
#
# Convention : Reuss Voigt Hill
#
# Bulk Modulus (GPa) = 57.07708 59.98662 58.53185
# Shear Modulus (GPa) = 29.64575 34.12199 31.88387
#
# Velocity S-wave (km/s) = 3.95907 4.24746 4.10579
# Velocity P-wave (km/s) = 7.14679 7.46796 7.30914
#
# Compressibility (1/GPa) = 0.01752017
#
# Stress axis : x y z
#
# Youngs Moduli (GPa) = 47.31944 71.93817 98.77439
#
# Poissons Ratio (x) = 0.53424 0.43062
# Poissons Ratio (y) = 0.35141 0.20080
# Poissons Ratio (z) = 0.20629 0.14624
#
# Static dielectric constant tensor:
#      x y z
#    x 1.715600 0.000000 0.035380 
#    y 0.000000 1.635090 0.000000 
#    z 0.035380 0.000000 1.659430 
# 
# From -- ./inp_files/264761.got.cif
#   From: 2010.05.17/outbox.cif.g08.bks.cpg/sg15_133_cif.got.tgz:264761.got - 2010.06.03 18:47:42.
