data_PCOD9285233
_publ_section_title
;
Structure prediction by ZEFSAII (Michael W. Deem and Ramdas Pophale) SiO2 
 PCOD9285233
Probable space group: C 2/C
;
_chemical_formula_sum "Si O2"
_cell_formula_units_Z 48
_cell_length_a 9.748686
_cell_length_b 22.875597
_cell_length_c 10.062619
_cell_angle_alpha 90.000000
_cell_angle_beta 59.904231
_cell_angle_gamma 90.000000
_cell_volume 1941.512821
_symmetry_space_group_name_H-M "C 2/C"
_symmetry_group_IT_number 15
_symmetry_cell_setting 'monoclinic'
loop_
_space_group_symop_operation_xyz
x,y,z
-x,y,1/2-z
-x,-y,-z
x,-y,1/2+z
1/2+x,1/2+y,z
1/2-x,1/2+y,1/2-z
1/2-x,1/2-y,-z
1/2+x,1/2-y,1/2+z
loop_
_atom_site_type_symbol
_atom_site_label
_atom_site_fract_x
_atom_site_fract_y
_atom_site_fract_z
Si Si1 0.849565 0.404709 0.911312
Si Si2 0.867662 0.220980 0.550719
Si Si3 0.268481 0.718662 0.131229
Si Si4 0.645249 0.464992 0.830941
Si Si5 0.924669 0.436917 0.505711
Si Si6 0.822543 0.083121 0.583016
O O1 0.000000 0.423921 0.750000
O O2 0.932228 0.395417 0.013816
O O3 0.716469 0.452715 0.945651
O O4 0.000000 0.500000 0.000000
O O5 0.750000 0.250000 0.500000
O O6 0.842215 0.256008 0.700018
O O7 0.837664 0.152292 0.596224
O O8 0.048887 0.224452 0.414339
O O9 0.221580 0.653083 0.117285
O O10 0.250000 0.750000 0.000000
O O11 0.766999 0.433769 0.673636
O O12 0.656689 0.535094 0.809723
O O13 0.471828 0.437411 0.918293
O O14 0.848895 0.426652 0.400136
#
# Coordination Sequence:
#
# PCOD9285233 Si02
#       6
#     8   8   8   8   8   8
#     4  10  21  41  68  97 139 188 240 293 374 455
#     4  12  29  50  75 111 151 199 260 321 380 452
#     4  12  27  51  74 106 147 202 253 310 378 455
#     4  10  22  43  69 102 141 188 239 304 381 453
#     4  11  23  39  67 109 142 184 235 303 377 454
#     4  11  24  45  71 101 145 190 245 311 375 450
#
# _framework density 24.722987
#
# number of rings (size 3 to 8) (size 9 to 14) (size 15 to 20)
#    0.000    1.000    3.333    2.500    7.000    2.667 
#    3.000    1.667    0.000    0.000    0.000    0.000 
#    0.000    0.000    0.000    0.000    0.000    0.000 
#
# Total GULP energy -134149.152157 kJ/mol
# GULP energy per Si atom -5589.548007 kJ/mol
# Density = 2.466672 g / cm^3
# Si number density = 24.722987 Si / 1000 Ang^3
#
#
#
# Elastic Constant Matrix: (Units=GPa)
#
#
# Indices 1 2 3 4 5 6 
#
# 1 175.5589 21.7788 14.0136 0.0000 -19.9243 0.0000
# 2 21.7788 129.5546 3.1128 0.0000 -8.4403 0.0000
# 3 14.0136 3.1128 62.7197 0.0000 -19.2515 0.0000
# 4 0.0000 0.0000 0.0000 19.1265 0.0000 -7.1170
# 5 -19.9243 -8.4403 -19.2515 0.0000 37.3528 0.0000
# 6 0.0000 0.0000 0.0000 -7.1170 0.0000 42.3509
#
#
#
# Elastic Compliance Matrix: (Units=1/GPa)
#
#
# Indices 1 2 3 4 5 6 
#
# 1 0.006161 -0.000838 -0.000457 0.000000 0.002862 0.000000
# 2 -0.000838 0.007950 0.000246 0.000000 0.001476 0.000000
# 3 -0.000457 0.000246 0.018978 0.000000 0.009593 0.000000
# 4 0.000000 0.000000 0.000000 0.055771 0.000000 0.009372
# 5 0.002862 0.001476 0.009593 0.000000 0.033576 0.000000
# 6 0.000000 0.000000 0.000000 0.009372 0.000000 0.025187
#
#
# Mechanical properties :
#
#
# Convention : Reuss Voigt Hill
#
# Bulk Modulus (GPa) = 32.26720 49.51594 40.89157
# Shear Modulus (GPa) = 31.23970 41.69457 36.46714
#
# Velocity S-wave (km/s) = 3.55856 4.11112 3.84478
# Velocity P-wave (km/s) = 5.47396 6.52739 6.02375
#
# Compressibility (1/GPa) = 0.03099122
#
# Stress axis : x y z
#
# Youngs Moduli (GPa) = 162.30286 125.78732 52.69146
#
# Poissons Ratio (x) = 0.10545 0.02406
# Poissons Ratio (y) = 0.13607 -0.01295
# Poissons Ratio (z) = 0.07411 -0.03091
#
# Static dielectric constant tensor:
#      x y z
#    x 2.024090 0.000000 0.127190 
#    y 0.000000 1.894440 0.000000 
#    z 0.127190 0.000000 2.053530 
# 
# From -- ./inp_files/90263.got.cif
#   From: 2010.05.17/outbox.cif.g08.bks.cpg/sg15_46_cif.got.tgz:90263.got - 2010.06.03 18:47:42.
