data_PCOD9285748
_publ_section_title
;
Structure prediction by ZEFSAII (Michael W. Deem and Ramdas Pophale) SiO2 
 PCOD9285748
Probable space group: C 2/C
;
_chemical_formula_sum "Si O2"
_cell_formula_units_Z 40
_cell_length_a 24.346878
_cell_length_b 14.367555
_cell_length_c 13.245307
_cell_angle_alpha 90.000000
_cell_angle_beta 20.860593
_cell_angle_gamma 90.000000
_cell_volume 1649.888226
_symmetry_space_group_name_H-M "C 2/C"
_symmetry_group_IT_number 15
_symmetry_cell_setting 'monoclinic'
loop_
_space_group_symop_operation_xyz
x,y,z
-x,y,1/2-z
-x,-y,-z
x,-y,1/2+z
1/2+x,1/2+y,z
1/2-x,1/2+y,1/2-z
1/2-x,1/2-y,-z
1/2+x,1/2-y,1/2+z
loop_
_atom_site_type_symbol
_atom_site_label
_atom_site_fract_x
_atom_site_fract_y
_atom_site_fract_z
Si Si1 0.191159 0.399522 0.347464
Si Si2 0.687593 0.569483 0.269297
Si Si3 0.566158 0.102573 0.357660
Si Si4 0.853925 0.989250 0.874672
Si Si5 0.123213 0.724712 0.448743
O O1 0.183805 0.490679 0.429238
O O2 0.291448 0.319597 0.226168
O O3 0.029591 0.367393 0.576226
O O4 0.290298 0.435029 0.080176
O O5 0.526695 0.526564 0.583481
O O6 0.666160 0.578416 0.186808
O O7 0.744898 0.658513 0.230125
O O8 0.548669 0.172992 0.480977
O O9 0.500000 0.000000 0.500000
O O10 0.746549 0.079500 0.038607
O O11 0.000000 0.739105 0.750000
#
# Coordination Sequence:
#
# PCOD9285748 Si02
#       5
#     8   8   8   8   8
#     4  11  24  43  68  99 137 174 230 285 328 405
#     4  11  23  40  69  96 133 184 223 272 353 397
#     4  10  21  42  66  93 137 174 217 277 334 397
#     4  10  22  42  67  94 136 177 222 280 337 407
#     4  12  24  39  71  98 129 180 230 279 343 394
#
# _framework density 24.244066
#
# number of rings (size 3 to 8) (size 9 to 14) (size 15 to 20)
#    0.000    1.200    4.000    4.200    0.000    6.400 
#    0.000    6.000    0.000    0.000    0.000    0.000 
#    0.000    0.000    0.000    0.000    0.000    0.000 
#
# Total GULP energy -111966.313505 kJ/mol
# GULP energy per Si atom -5598.315675 kJ/mol
# Density = 2.418889 g / cm^3
# Si number density = 24.244066 Si / 1000 Ang^3
#
#
#
# Elastic Constant Matrix: (Units=GPa)
#
#
# Indices 1 2 3 4 5 6 
#
# 1 75.0325 0.6829 16.0260 0.0000 -10.7126 0.0000
# 2 0.6829 74.7375 2.5859 0.0001 -7.9141 -0.0001
# 3 16.0260 2.5859 89.9148 0.0002 -29.2089 -0.0001
# 4 0.0000 0.0001 0.0002 29.0422 -0.0001 -13.5539
# 5 -10.7126 -7.9141 -29.2089 -0.0001 36.5529 0.0001
# 6 0.0000 -0.0001 -0.0001 -13.5539 0.0001 33.9621
#
#
#
# Elastic Compliance Matrix: (Units=1/GPa)
#
#
# Indices 1 2 3 4 5 6 
#
# 1 0.014077 0.000235 -0.001565 0.000000 0.002926 0.000000
# 2 0.000235 0.013738 0.000745 0.000000 0.003639 0.000000
# 3 -0.001565 0.000745 0.015238 0.000000 0.011879 0.000000
# 4 0.000000 0.000000 0.000000 0.042314 0.000000 0.016887
# 5 0.002926 0.003639 0.011879 0.000000 0.038495 0.000000
# 6 0.000000 0.000000 0.000000 0.016887 0.000000 0.036184
#
#
# Mechanical properties :
#
#
# Convention : Reuss Voigt Hill
#
# Bulk Modulus (GPa) = 23.87613 30.91941 27.39777
# Shear Modulus (GPa) = 28.54249 34.60412 31.57331
#
# Velocity S-wave (km/s) = 3.43490 3.78209 3.61267
# Velocity P-wave (km/s) = 5.05974 5.64388 5.35977
#
# Compressibility (1/GPa) = 0.04188283
#
# Stress axis : x y z
#
# Youngs Moduli (GPa) = 71.03539 72.79328 65.62468
#
# Poissons Ratio (x) = -0.01713 0.10273
# Poissons Ratio (y) = -0.01672 -0.04889
# Poissons Ratio (z) = 0.11120 -0.05423
#
# Static dielectric constant tensor:
#      x y z
#    x 1.994940 0.000000 0.010900 
#    y 0.000000 1.878170 0.000000 
#    z 0.010900 0.000000 1.993050 
# 
# From -- ./inp_files/86270.got.cif
#   From: 2010.05.17/outbox.cif.g08.bks.cpg/sg15_44_cif.got.tgz:86270.got - 2010.06.03 18:47:42.
