data_PCOD9285082
_publ_section_title
;
Structure prediction by ZEFSAII (Michael W. Deem and Ramdas Pophale) SiO2 
 PCOD9285082
Probable space group: C 2/C
;
_chemical_formula_sum "Si O2"
_cell_formula_units_Z 52
_cell_length_a 6.069095
_cell_length_b 13.116757
_cell_length_c 29.382574
_cell_angle_alpha 90.000000
_cell_angle_beta 71.371623
_cell_angle_gamma 90.000000
_cell_volume 2216.511709
_symmetry_space_group_name_H-M "C 2/C"
_symmetry_group_IT_number 15
_symmetry_cell_setting 'monoclinic'
loop_
_space_group_symop_operation_xyz
x,y,z
-x,y,1/2-z
-x,-y,-z
x,-y,1/2+z
1/2+x,1/2+y,z
1/2-x,1/2+y,1/2-z
1/2-x,1/2-y,-z
1/2+x,1/2-y,1/2+z
loop_
_atom_site_type_symbol
_atom_site_label
_atom_site_fract_x
_atom_site_fract_y
_atom_site_fract_z
Si Si1 0.282062 0.887654 0.293269
Si Si2 0.812258 0.925933 0.101232
Si Si3 0.712775 0.829411 0.816739
Si Si4 0.952655 0.859828 0.891242
Si Si5 0.167215 0.735718 0.085241
Si Si6 0.000000 0.985068 0.750000
Si Si7 0.458878 0.948935 0.954513
O O1 0.500000 0.920102 0.250000
O O2 0.322631 0.893015 0.344434
O O3 0.228694 0.771057 0.286197
O O4 0.062775 0.949872 0.290103
O O5 0.648455 0.961438 0.070323
O O6 0.017483 0.838123 0.082705
O O7 0.915445 0.034950 0.108980
O O8 0.918324 0.833763 0.840865
O O9 0.482199 0.817264 0.863098
O O10 0.774534 0.920544 0.779450
O O11 0.075294 0.765860 0.909442
O O12 0.700327 0.894371 0.925356
O O13 0.197222 0.652960 0.042429
O O14 0.500000 0.000000 0.000000
#
# Coordination Sequence:
#
# PCOD9285082 Si02
#       7
#     8   8   8   8   8   4   8
#     4  11  25  39  64  94 129 175 226 264 326 403
#     4  10  22  41  62  95 129 176 220 273 337 404
#     4  10  22  43  59  94 131 176 220 272 327 393
#     4  10  21  41  67  88 130 174 214 276 343 397
#     4   9  22  40  65  94 131 170 222 271 338 408
#     4  12  24  40  62  92 132 176 218 278 326 376
#     4  10  23  42  66  95 130 170 220 279 342 409
#
# _framework density 23.460287999999998
#
# number of rings (size 3 to 8) (size 9 to 14) (size 15 to 20)
#    0.000    1.846    2.308    0.000    6.462    9.231 
#    1.385    1.538    0.000    0.000    0.000    0.000 
#    0.000    0.000    0.000    0.000    0.000    0.000 
#
# Total GULP energy -144786.011332 kJ/mol
# GULP energy per Si atom -5568.692744 kJ/mol
# Density = 2.340689 g / cm^3
# Si number density = 23.460288 Si / 1000 Ang^3
#
#
#
# Elastic Constant Matrix: (Units=GPa)
#
#
# Indices 1 2 3 4 5 6 
#
# 1 80.2847 52.8857 28.6802 0.0000 18.4137 0.0000
# 2 52.8857 149.1314 29.1169 0.0000 17.6793 0.0000
# 3 28.6802 29.1169 56.5567 0.0000 26.5792 0.0000
# 4 0.0000 0.0000 0.0000 26.8959 0.0000 -0.9352
# 5 18.4137 17.6793 26.5792 0.0000 32.3736 0.0000
# 6 0.0000 0.0000 0.0000 -0.9352 0.0000 35.4228
#
#
#
# Elastic Compliance Matrix: (Units=1/GPa)
#
#
# Indices 1 2 3 4 5 6 
#
# 1 0.018458 -0.005140 -0.005046 0.000000 -0.003549 0.000000
# 2 -0.005140 0.008931 -0.001748 0.000000 -0.000519 0.000000
# 3 -0.005046 -0.001748 0.031495 0.000000 -0.022033 0.000000
# 4 0.000000 0.000000 0.000000 0.037215 0.000000 0.000983
# 5 -0.003549 -0.000519 -0.022033 0.000000 0.051281 0.000000
# 6 0.000000 0.000000 0.000000 0.000983 0.000000 0.028256
#
#
# Mechanical properties :
#
#
# Convention : Reuss Voigt Hill
#
# Bulk Modulus (GPa) = 28.55822 56.37095 42.46458
# Shear Modulus (GPa) = 23.67715 30.62447 27.15081
#
# Velocity S-wave (km/s) = 3.18031 3.61692 3.40562
# Velocity P-wave (km/s) = 5.06806 6.44385 5.79691
#
# Compressibility (1/GPa) = 0.03501619
#
# Stress axis : x y z
#
# Youngs Moduli (GPa) = 54.17723 111.97095 31.75151
#
# Poissons Ratio (x) = 0.57549 0.16023
# Poissons Ratio (y) = 0.27845 0.05549
# Poissons Ratio (z) = 0.27340 0.19568
#
# Static dielectric constant tensor:
#      x y z
#    x 2.140070 0.000000 -0.054680 
#    y 0.000000 1.972790 0.000000 
#    z -0.054680 0.000000 1.938630 
# 
# From -- ./inp_files/305350.got.cif
#   From: 2010.05.17/outbox.cif.g08.bks.cpg/sg15_153_cif.got.tgz:305350.got - 2010.06.03 18:47:42.
