data_PCOD9285256
_publ_section_title
;
Structure prediction by ZEFSAII (Michael W. Deem and Ramdas Pophale) SiO2 
 PCOD9285256
Probable space group: C 2/C
;
_chemical_formula_sum "Si O2"
_cell_formula_units_Z 64
_cell_length_a 14.463606
_cell_length_b 17.829483
_cell_length_c 16.928328
_cell_angle_alpha 90.000000
_cell_angle_beta 140.959106
_cell_angle_gamma 90.000000
_cell_volume 2749.689817
_symmetry_space_group_name_H-M "C 2/C"
_symmetry_group_IT_number 15
_symmetry_cell_setting 'monoclinic'
loop_
_space_group_symop_operation_xyz
x,y,z
-x,y,1/2-z
-x,-y,-z
x,-y,1/2+z
1/2+x,1/2+y,z
1/2-x,1/2+y,1/2-z
1/2-x,1/2-y,-z
1/2+x,1/2-y,1/2+z
loop_
_atom_site_type_symbol
_atom_site_label
_atom_site_fract_x
_atom_site_fract_y
_atom_site_fract_z
Si Si1 0.808735 0.118916 0.444642
Si Si2 0.647786 0.375301 0.706068
Si Si3 0.084782 0.588108 0.428791
Si Si4 0.578400 0.938058 0.217293
Si Si5 0.011106 0.750578 0.083223
Si Si6 0.641880 0.460738 0.003603
Si Si7 0.647857 0.217742 0.686569
Si Si8 0.824538 0.994914 0.644433
O O1 0.780513 0.127472 0.333020
O O2 0.661878 0.098773 0.394457
O O3 0.889740 0.190708 0.534178
O O4 0.912691 0.046433 0.525786
O O5 0.483698 0.400941 0.578216
O O6 0.643726 0.292110 0.739446
O O7 0.705042 0.437995 0.804149
O O8 0.011368 0.666694 0.399998
O O9 0.222834 0.568282 0.578432
O O10 0.986344 0.513175 0.365295
O O11 0.500000 0.928144 0.250000
O O12 0.746703 0.952473 0.351778
O O13 0.582564 0.860088 0.173630
O O14 0.173833 0.783864 0.207480
O O15 0.956387 0.741411 0.956047
O O16 0.715620 0.455706 0.965985
O O17 0.000000 0.008042 0.750000
#
# Coordination Sequence:
#
# PCOD9285256 Si02
#       8
#     8   8   8   8   8   8   8   8
#     4  10  21  43  69 103 137 187 239 286 362 430
#     4  10  22  42  70 101 145 191 237 297 350 434
#     4  11  25  44  72 107 142 189 236 295 361 424
#     4  12  24  43  72 102 141 185 238 298 353 430
#     4  11  27  49  70 108 148 187 237 302 358 435
#     4  10  21  41  69 101 137 190 244 282 359 428
#     4  11  28  47  69 108 144 189 245 291 368 420
#     4   9  20  39  67 104 140 184 239 293 355 424
#
# _framework density 23.275352999999999
#
# number of rings (size 3 to 8) (size 9 to 14) (size 15 to 20)
#    0.000    1.500    2.500    2.250    5.250    6.000 
#    0.000    4.375    0.000    0.000    0.000    0.000 
#    0.000    0.000    0.000    0.000    0.000    0.000 
#
# Total GULP energy -178622.879131 kJ/mol
# GULP energy per Si atom -5581.964973 kJ/mol
# Density = 2.322238 g / cm^3
# Si number density = 23.275353 Si / 1000 Ang^3
#
#
#
# Elastic Constant Matrix: (Units=GPa)
#
#
# Indices 1 2 3 4 5 6 
#
# 1 54.3286 55.1742 21.4960 0.0001 -0.0534 0.0001
# 2 55.1742 174.7736 29.2831 0.0001 12.5078 0.0001
# 3 21.4960 29.2831 76.3687 0.0003 12.8958 0.0004
# 4 0.0001 0.0001 0.0003 37.7249 0.0001 7.7780
# 5 -0.0534 12.5078 12.8958 0.0001 30.9898 0.0001
# 6 0.0001 0.0001 0.0004 7.7780 0.0001 38.7133
#
#
#
# Elastic Compliance Matrix: (Units=1/GPa)
#
#
# Indices 1 2 3 4 5 6 
#
# 1 0.029756 -0.008822 -0.006026 0.000000 0.006120 0.000000
# 2 -0.008822 0.008805 -0.000312 0.000000 -0.003439 0.000000
# 3 -0.006026 -0.000312 0.016016 0.000000 -0.006549 0.000000
# 4 0.000000 0.000000 0.000000 0.027653 0.000000 -0.005556
# 5 0.006120 -0.003439 -0.006549 0.000000 0.036393 0.000000
# 6 0.000000 0.000000 0.000000 -0.005556 0.000000 0.026947
#
#
# Mechanical properties :
#
#
# Convention : Reuss Voigt Hill
#
# Bulk Modulus (GPa) = 41.22628 57.48638 49.35633
# Shear Modulus (GPa) = 27.17724 34.78678 30.98201
#
# Velocity S-wave (km/s) = 3.42078 3.87017 3.65239
# Velocity P-wave (km/s) = 5.77522 6.68752 6.24805
#
# Compressibility (1/GPa) = 0.02425637
#
# Stress axis : x y z
#
# Youngs Moduli (GPa) = 33.60637 113.56980 62.43632
#
# Poissons Ratio (x) = 1.00191 0.37626
# Poissons Ratio (y) = 0.29648 0.01950
# Poissons Ratio (z) = 0.20252 0.03548
#
# Static dielectric constant tensor:
#      x y z
#    x 1.941870 0.000000 0.012760 
#    y 0.000000 1.930090 0.000000 
#    z 0.012760 0.000000 1.952550 
# 
# From -- ./inp_files/206491.got.cif
#   From: 2010.05.17/outbox.cif.g08.bks.cpg/sg15_104_cif.got.tgz:206491.got - 2010.06.03 18:47:42.
