data_PCOD9285021
_publ_section_title
;
Structure prediction by ZEFSAII (Michael W. Deem and Ramdas Pophale) SiO2 
 PCOD9285021
Probable space group: C 2/C
;
_chemical_formula_sum "Si O2"
_cell_formula_units_Z 56
_cell_length_a 21.303239
_cell_length_b 7.702658
_cell_length_c 19.488784
_cell_angle_alpha 90.000000
_cell_angle_beta 136.190102
_cell_angle_gamma 90.000000
_cell_volume 2213.834545
_symmetry_space_group_name_H-M "C 2/C"
_symmetry_group_IT_number 15
_symmetry_cell_setting 'monoclinic'
loop_
_space_group_symop_operation_xyz
x,y,z
-x,y,1/2-z
-x,-y,-z
x,-y,1/2+z
1/2+x,1/2+y,z
1/2-x,1/2+y,1/2-z
1/2-x,1/2-y,-z
1/2+x,1/2-y,1/2+z
loop_
_atom_site_type_symbol
_atom_site_label
_atom_site_fract_x
_atom_site_fract_y
_atom_site_fract_z
Si Si1 0.690890 0.497470 0.511964
Si Si2 0.474183 0.938790 0.379308
Si Si3 0.224959 0.397771 0.545606
Si Si4 0.631605 0.890969 0.604244
Si Si5 0.903483 0.116333 0.267643
Si Si6 0.387246 0.500109 0.901935
Si Si7 0.473607 0.722995 0.656283
O O1 0.777814 0.499272 0.528389
O O2 0.677698 0.708333 0.502949
O O3 0.666965 0.444848 0.571780
O O4 0.621913 0.372207 0.418880
O O5 0.534373 0.868678 0.489152
O O6 0.464225 0.789199 0.315865
O O7 0.378580 0.994017 0.336786
O O8 0.516597 0.119051 0.387829
O O9 0.187902 0.475915 0.587129
O O10 0.328795 0.367240 0.650261
O O11 0.650944 0.694383 0.640067
O O12 0.866914 0.107167 0.317221
O O13 0.958475 0.937955 0.304149
O O14 0.500000 0.500000 0.000000
O O15 0.500000 0.798149 0.750000
#
# Coordination Sequence:
#
# PCOD9285021 Si02
#       7
#     8   8   8   8   8   8   8
#     4  10  21  41  68  95 137 186 228 271 356 423
#     4  11  24  42  69 105 128 177 246 291 336 422
#     4  10  23  42  66 100 143 190 223 283 367 420
#     4  10  21  41  66  94 138 175 236 283 338 427
#     4  12  23  41  72 100 139 178 232 298 346 418
#     4  11  18  37  71  98 122 181 229 280 349 400
#     4  12  24  45  71 102 137 181 236 297 349 415
#
# _framework density 25.295477999999999
#
# number of rings (size 3 to 8) (size 9 to 14) (size 15 to 20)
#    0.000    1.143    5.714    0.857    2.000    2.857 
#    7.714    2.143    0.000    0.000    0.000    0.000 
#    0.000    0.000    0.000    0.000    0.000    0.000 
#
# Total GULP energy -156142.908381 kJ/mol
# GULP energy per Si atom -5576.532442 kJ/mol
# Density = 2.523790 g / cm^3
# Si number density = 25.295478 Si / 1000 Ang^3
#
#
#
# Elastic Constant Matrix: (Units=GPa)
#
#
# Indices 1 2 3 4 5 6 
#
# 1 106.7188 27.1658 -2.1829 0.0000 -18.0727 0.0000
# 2 27.1658 132.4771 35.1278 0.0000 0.6151 0.0000
# 3 -2.1829 35.1278 43.7006 0.0000 -10.1080 0.0000
# 4 0.0000 0.0000 0.0000 21.9681 0.0000 0.9796
# 5 -18.0727 0.6151 -10.1080 0.0000 25.4953 0.0000
# 6 0.0000 0.0000 0.0000 0.9796 0.0000 12.9084
#
#
#
# Elastic Compliance Matrix: (Units=1/GPa)
#
#
# Indices 1 2 3 4 5 6 
#
# 1 0.012672 -0.004511 0.007004 0.000000 0.011868 0.000000
# 2 -0.004511 0.011512 -0.011321 0.000000 -0.007964 0.000000
# 3 0.007004 -0.011321 0.036931 0.000000 0.019880 0.000000
# 4 0.000000 0.000000 0.000000 0.045675 0.000000 -0.003466
# 5 0.011868 -0.007964 0.019880 0.000000 0.055710 0.000000
# 6 0.000000 0.000000 0.000000 -0.003466 0.000000 0.077732
#
#
# Mechanical properties :
#
#
# Convention : Reuss Voigt Hill
#
# Bulk Modulus (GPa) = 23.00999 44.79088 33.90044
# Shear Modulus (GPa) = 18.35704 26.92675 22.64189
#
# Velocity S-wave (km/s) = 2.69681 3.26619 2.99506
# Velocity P-wave (km/s) = 4.33743 5.65416 5.03899
#
# Compressibility (1/GPa) = 0.04345938
#
# Stress axis : x y z
#
# Youngs Moduli (GPa) = 78.91553 86.86283 27.07719
#
# Poissons Ratio (x) = 0.39182 -0.18965
# Poissons Ratio (y) = 0.35597 0.30655
# Poissons Ratio (z) = -0.55272 0.98340
#
# Static dielectric constant tensor:
#      x y z
#    x 2.181750 0.000000 0.041120 
#    y 0.000000 1.959180 0.000000 
#    z 0.041120 0.000000 2.010850 
# 
# From -- ./inp_files/251947.got.cif
#   From: 2010.05.17/outbox.cif.g08.bks.cpg/sg15_126_cif.got.tgz:251947.got - 2010.06.03 18:47:42.
