data_PCOD9285146
_publ_section_title
;
Structure prediction by ZEFSAII (Michael W. Deem and Ramdas Pophale) SiO2 
 PCOD9285146
Probable space group: C 2/C
;
_chemical_formula_sum "Si O2"
_cell_formula_units_Z 56
_cell_length_a 17.006545
_cell_length_b 10.961958
_cell_length_c 13.754556
_cell_angle_alpha 90.000000
_cell_angle_beta 95.834487
_cell_angle_gamma 90.000000
_cell_volume 2550.910255
_symmetry_space_group_name_H-M "C 2/C"
_symmetry_group_IT_number 15
_symmetry_cell_setting 'monoclinic'
loop_
_space_group_symop_operation_xyz
x,y,z
-x,y,1/2-z
-x,-y,-z
x,-y,1/2+z
1/2+x,1/2+y,z
1/2-x,1/2+y,1/2-z
1/2-x,1/2-y,-z
1/2+x,1/2-y,1/2+z
loop_
_atom_site_type_symbol
_atom_site_label
_atom_site_fract_x
_atom_site_fract_y
_atom_site_fract_z
Si Si1 0.441119 0.607069 0.880516
Si Si2 0.169433 0.941517 0.738735
Si Si3 0.900118 0.279166 0.368132
Si Si4 0.342756 0.007838 0.725703
Si Si5 0.556565 0.622335 0.397873
Si Si6 0.455440 0.123086 0.369210
Si Si7 0.890424 0.483939 0.527294
O O1 0.371960 0.567400 0.799640
O O2 0.504846 0.500307 0.878446
O O3 0.479298 0.737685 0.867093
O O4 0.412652 0.615008 0.988481
O O5 0.152097 0.842588 0.651264
O O6 0.260660 0.969193 0.764021
O O7 0.123944 0.885160 0.825562
O O8 0.876747 0.367736 0.276010
O O9 0.991309 0.231155 0.378954
O O10 0.882507 0.361040 0.461397
O O11 0.408200 0.910496 0.767296
O O12 0.331734 0.007399 0.608534
O O13 0.526023 0.032396 0.406070
O O14 0.396186 0.094340 0.452006
#
# Coordination Sequence:
#
# PCOD9285146 Si02
#       7
#     8   8   8   8   8   8   8
#     4  10  21  41  67  97 121 165 229 270 321 386
#     4  11  26  42  65  99 136 175 213 270 343 400
#     4  10  22  44  67  93 131 175 226 266 325 391
#     4  11  26  41  63 102 136 175 210 268 341 398
#     4  10  22  43  72  95 124 174 222 278 323 385
#     4  10  22  40  66  96 126 167 219 270 317 390
#     4  10  22  41  67  97 128 171 221 268 321 387
#
# _framework density 21.952947999999999
#
# number of rings (size 3 to 8) (size 9 to 14) (size 15 to 20)
#    0.000    1.714    1.429    2.143    4.000    8.571 
#    0.000    1.429    0.000    0.000    0.000    0.000 
#    0.000    0.000    0.000    0.000    0.000    0.000 
#
# Total GULP energy -156345.208014 kJ/mol
# GULP energy per Si atom -5583.757429 kJ/mol
# Density = 2.190298 g / cm^3
# Si number density = 21.952948 Si / 1000 Ang^3
#
#
#
# Elastic Constant Matrix: (Units=GPa)
#
#
# Indices 1 2 3 4 5 6 
#
# 1 65.1685 16.0145 35.6209 0.0000 -12.0673 0.0000
# 2 16.0145 104.3738 14.2006 0.0000 -10.0644 0.0000
# 3 35.6209 14.2006 111.8323 0.0000 -28.9044 0.0000
# 4 0.0000 0.0000 0.0000 32.2232 0.0000 5.3523
# 5 -12.0673 -10.0644 -28.9044 0.0000 21.0029 0.0000
# 6 0.0000 0.0000 0.0000 5.3523 0.0000 14.3191
#
#
#
# Elastic Compliance Matrix: (Units=1/GPa)
#
#
# Indices 1 2 3 4 5 6 
#
# 1 0.019163 -0.001952 -0.005047 0.000000 0.003129 0.000000
# 2 -0.001952 0.010244 0.000465 0.000000 0.004428 0.000000
# 3 -0.005047 0.000465 0.015208 0.000000 0.018253 0.000000
# 4 0.000000 0.000000 0.000000 0.033088 0.000000 -0.012368
# 5 0.003129 0.004428 0.018253 0.000000 0.076651 0.000000
# 6 0.000000 0.000000 0.000000 -0.012368 0.000000 0.074460
#
#
# Mechanical properties :
#
#
# Convention : Reuss Voigt Hill
#
# Bulk Modulus (GPa) = 31.69828 45.89406 38.79617
# Shear Modulus (GPa) = 19.81006 27.87827 23.84416
#
# Velocity S-wave (km/s) = 3.00723 3.56745 3.29925
# Velocity P-wave (km/s) = 5.15058 6.15792 5.67664
#
# Compressibility (1/GPa) = 0.03154746
#
# Stress axis : x y z
#
# Youngs Moduli (GPa) = 52.18500 97.61738 65.75418
#
# Poissons Ratio (x) = 0.19053 0.33187
# Poissons Ratio (y) = 0.10185 -0.03060
# Poissons Ratio (z) = 0.26339 -0.04542
#
# Static dielectric constant tensor:
#      x y z
#    x 1.832640 0.000000 -0.075030 
#    y 0.000000 1.813060 0.000000 
#    z -0.075030 0.000000 1.899830 
# 
# From -- ./inp_files/172756.got.cif
#   From: 2010.05.17/outbox.cif.g08.bks.cpg/sg15_87_cif.got.tgz:172756.got - 2010.06.03 18:47:42.
