data_PCOD9285598
_publ_section_title
;
Structure prediction by ZEFSAII (Michael W. Deem and Ramdas Pophale) SiO2 
 PCOD9285598
Probable space group: C 2/C
;
_chemical_formula_sum "Si O2"
_cell_formula_units_Z 64
_cell_length_a 18.642898
_cell_length_b 14.811914
_cell_length_c 16.759016
_cell_angle_alpha 90.000000
_cell_angle_beta 42.740556
_cell_angle_gamma 90.000000
_cell_volume 3140.783345
_symmetry_space_group_name_H-M "C 2/C"
_symmetry_group_IT_number 15
_symmetry_cell_setting 'monoclinic'
loop_
_space_group_symop_operation_xyz
x,y,z
-x,y,1/2-z
-x,-y,-z
x,-y,1/2+z
1/2+x,1/2+y,z
1/2-x,1/2+y,1/2-z
1/2-x,1/2-y,-z
1/2+x,1/2-y,1/2+z
loop_
_atom_site_type_symbol
_atom_site_label
_atom_site_fract_x
_atom_site_fract_y
_atom_site_fract_z
Si Si1 0.226857 0.038775 0.625862
Si Si2 0.329922 0.658125 0.971907
Si Si3 0.057164 0.009016 0.537133
Si Si4 0.419454 0.619896 0.252107
Si Si5 0.832841 0.255881 0.192044
Si Si6 0.753012 0.445415 0.288875
Si Si7 0.915805 0.335167 0.960858
Si Si8 0.339204 0.134797 0.256313
O O1 0.169234 0.109297 0.613988
O O2 0.205004 0.054551 0.737916
O O3 0.349463 0.070822 0.515800
O O4 0.185561 0.938172 0.637598
O O5 0.223554 0.637162 0.108851
O O6 0.419101 0.609224 0.953314
O O7 0.357130 0.762969 0.952095
O O8 0.168323 0.962061 0.427101
O O9 0.993188 0.958084 0.655993
O O10 0.000000 0.000000 0.500000
O O11 0.500000 0.663821 0.250000
O O12 0.388876 0.687467 0.206291
O O13 0.803826 0.348539 0.259401
O O14 0.729028 0.204726 0.241953
O O15 0.900578 0.290170 0.060913
O O16 0.826380 0.533917 0.231433
O O17 0.037803 0.343445 0.839603
#
# Coordination Sequence:
#
# PCOD9285598 Si02
#       8
#     8   8   8   8   8   8   8   8
#     4  11  21  40  59  97 129 159 207 263 322 386
#     4  10  22  38  60  98 132 161 214 268 324 389
#     4  11  20  35  66  90 123 169 216 262 322 371
#     4  12  23  42  66  96 128 168 215 273 324 376
#     4  10  23  41  65  97 128 162 231 266 312 395
#     4  10  22  40  66  91 127 171 214 269 313 390
#     4  10  23  39  68  95 130 178 208 260 331 393
#     4  10  21  42  64  94 133 171 215 267 322 388
#
# _framework density 20.377081
#
# number of rings (size 3 to 8) (size 9 to 14) (size 15 to 20)
#    0.000    1.500    3.750    1.875    3.500    3.500 
#    0.000    0.625   11.000    0.000    0.000    0.000 
#    0.000    0.000    0.000    0.000    0.000    0.000 
#
# Total GULP energy -178515.959728 kJ/mol
# GULP energy per Si atom -5578.623742 kJ/mol
# Density = 2.033070 g / cm^3
# Si number density = 20.377081 Si / 1000 Ang^3
#
#
#
# Elastic Constant Matrix: (Units=GPa)
#
#
# Indices 1 2 3 4 5 6 
#
# 1 96.6968 28.5467 30.0486 0.0000 2.6620 0.0000
# 2 28.5467 111.5587 31.4474 0.0000 -4.8221 0.0000
# 3 30.0486 31.4474 69.3957 0.0000 -21.4976 0.0000
# 4 0.0000 0.0000 0.0000 21.6801 0.0000 2.4355
# 5 2.6620 -4.8221 -21.4976 0.0000 22.1461 0.0000
# 6 0.0000 0.0000 0.0000 2.4355 0.0000 35.5298
#
#
#
# Elastic Compliance Matrix: (Units=1/GPa)
#
#
# Indices 1 2 3 4 5 6 
#
# 1 0.013672 -0.001589 -0.008318 0.000000 -0.010064 0.000000
# 2 -0.001589 0.010629 -0.004794 0.000000 -0.002148 0.000000
# 3 -0.008318 -0.004794 0.028844 0.000000 0.027956 0.000000
# 4 0.000000 0.000000 0.000000 0.046483 0.000000 -0.003186
# 5 -0.010064 -0.002148 0.027956 0.000000 0.073034 0.000000
# 6 0.000000 0.000000 0.000000 -0.003186 0.000000 0.028364
#
#
# Mechanical properties :
#
#
# Convention : Reuss Voigt Hill
#
# Bulk Modulus (GPa) = 42.11542 50.85964 46.48753
# Shear Modulus (GPa) = 20.97815 28.37844 24.67830
#
# Velocity S-wave (km/s) = 3.21206 3.73589 3.48383
# Velocity P-wave (km/s) = 5.87106 6.60474 6.24868
#
# Compressibility (1/GPa) = 0.02374427
#
# Stress axis : x y z
#
# Youngs Moduli (GPa) = 73.13961 94.08162 34.66869
#
# Poissons Ratio (x) = 0.14949 0.28836
# Poissons Ratio (y) = 0.11622 0.16621
# Poissons Ratio (z) = 0.60835 0.45105
#
# Static dielectric constant tensor:
#      x y z
#    x 1.809170 0.000000 -0.023110 
#    y 0.000000 1.731440 0.000000 
#    z -0.023110 0.000000 1.724730 
# 
# From -- ./inp_files/211368.got.cif
#   From: 2010.05.17/outbox.cif.g08.bks.cpg/sg15_106_cif.got.tgz:211368.got - 2010.06.03 18:47:42.
