data_PCOD9285224
_publ_section_title
;
Structure prediction by ZEFSAII (Michael W. Deem and Ramdas Pophale) SiO2 
 PCOD9285224
Probable space group: C 2/C
;
_chemical_formula_sum "Si O2"
_cell_formula_units_Z 56
_cell_length_a 11.006941
_cell_length_b 10.629155
_cell_length_c 18.855512
_cell_angle_alpha 90.000000
_cell_angle_beta 79.959974
_cell_angle_gamma 90.000000
_cell_volume 2172.208766
_symmetry_space_group_name_H-M "C 2/C"
_symmetry_group_IT_number 15
_symmetry_cell_setting 'monoclinic'
loop_
_space_group_symop_operation_xyz
x,y,z
-x,y,1/2-z
-x,-y,-z
x,-y,1/2+z
1/2+x,1/2+y,z
1/2-x,1/2+y,1/2-z
1/2-x,1/2-y,-z
1/2+x,1/2-y,1/2+z
loop_
_atom_site_type_symbol
_atom_site_label
_atom_site_fract_x
_atom_site_fract_y
_atom_site_fract_z
Si Si1 0.359622 0.108245 0.016477
Si Si2 0.063727 0.057587 0.386928
Si Si3 0.902199 0.712564 0.351808
Si Si4 0.322912 0.704276 0.639260
Si Si5 0.668163 0.227686 0.784205
Si Si6 0.507491 0.038716 0.623776
Si Si7 0.348230 0.401877 0.468667
O O1 0.315389 0.231173 0.063079
O O2 0.268254 0.991737 0.011646
O O3 0.445765 0.048655 0.069333
O O4 0.423322 0.136139 0.934875
O O5 0.090055 0.155972 0.322730
O O6 0.933658 0.987034 0.407390
O O7 0.159629 0.943581 0.369368
O O8 0.087535 0.115658 0.462150
O O9 0.908607 0.562243 0.344307
O O10 0.802585 0.768590 0.307957
O O11 0.046241 0.753673 0.336825
O O12 0.845826 0.766608 0.431283
O O13 0.204235 0.735416 0.698601
O O14 0.592289 0.105575 0.816692
#
# Coordination Sequence:
#
# PCOD9285224 Si02
#       7
#     8   8   8   8   8   8   8
#     4  10  21  41  68  96 132 174 225 284 339 407
#     4  10  25  39  64 100 131 171 234 276 342 416
#     4  10  22  43  70 100 129 175 236 279 342 407
#     4  10  25  44  63  96 138 180 226 277 341 430
#     4  12  24  43  70  95 139 184 216 291 344 412
#     4  10  23  37  70 106 129 165 236 289 335 407
#     4  10  21  43  69  96 131 178 223 290 341 404
#
# _framework density 25.780211000000001
#
# number of rings (size 3 to 8) (size 9 to 14) (size 15 to 20)
#    0.000    1.714    1.429    1.286   14.000    1.714 
#    2.571    0.714    0.000    0.000    0.000    0.000 
#    0.000    0.000    0.000    0.000    0.000    0.000 
#
# Total GULP energy -156687.393986 kJ/mol
# GULP energy per Si atom -5595.978357 kJ/mol
# Density = 2.572153 g / cm^3
# Si number density = 25.780211 Si / 1000 Ang^3
#
#
#
# Elastic Constant Matrix: (Units=GPa)
#
#
# Indices 1 2 3 4 5 6 
#
# 1 98.3612 27.6860 25.0540 0.0000 -13.1318 0.0000
# 2 27.6860 96.1380 30.1404 0.0000 -2.5869 0.0000
# 3 25.0540 30.1404 137.1768 0.0000 -28.1100 0.0000
# 4 0.0000 0.0000 0.0000 22.1429 0.0000 -13.3871
# 5 -13.1318 -2.5869 -28.1100 0.0000 33.2308 0.0000
# 6 0.0000 0.0000 0.0000 -13.3871 0.0000 45.6421
#
#
#
# Elastic Compliance Matrix: (Units=1/GPa)
#
#
# Indices 1 2 3 4 5 6 
#
# 1 0.011710 -0.003054 -0.000687 0.000000 0.003808 0.000000
# 2 -0.003054 0.012027 -0.002589 0.000000 -0.002461 0.000000
# 3 -0.000687 -0.002589 0.009541 0.000000 0.007598 0.000000
# 4 0.000000 0.000000 0.000000 0.054896 0.000000 0.016101
# 5 0.003808 -0.002461 0.007598 0.000000 0.037833 0.000000
# 6 0.000000 0.000000 0.000000 0.016101 0.000000 0.026632
#
#
# Mechanical properties :
#
#
# Convention : Reuss Voigt Hill
#
# Bulk Modulus (GPa) = 48.50404 55.27075 51.88740
# Shear Modulus (GPa) = 29.04080 36.78953 32.91517
#
# Velocity S-wave (km/s) = 3.35994 3.78172 3.57706
# Velocity P-wave (km/s) = 5.82302 6.36823 6.10172
#
# Compressibility (1/GPa) = 0.02061684
#
# Stress axis : x y z
#
# Youngs Moduli (GPa) = 85.39879 83.14811 104.80943
#
# Poissons Ratio (x) = 0.25396 0.07203
# Poissons Ratio (y) = 0.26083 0.27134
# Poissons Ratio (z) = 0.05869 0.21526
#
# Static dielectric constant tensor:
#      x y z
#    x 2.139720 0.000000 0.029430 
#    y 0.000000 2.069490 0.000000 
#    z 0.029430 0.000000 2.079740 
# 
# From -- ./inp_files/237549.got.cif
#   From: 2010.05.17/outbox.cif.g08.bks.cpg/sg15_119_cif.got.tgz:237549.got - 2010.06.03 18:47:42.
