data_PCOD9285017
_publ_section_title
;
Structure prediction by ZEFSAII (Michael W. Deem and Ramdas Pophale) SiO2 
 PCOD9285017
Probable space group: C 2/C
;
_chemical_formula_sum "Si O2"
_cell_formula_units_Z 64
_cell_length_a 16.744124
_cell_length_b 25.053445
_cell_length_c 9.376772
_cell_angle_alpha 90.000000
_cell_angle_beta 45.368092
_cell_angle_gamma 90.000000
_cell_volume 2799.242239
_symmetry_space_group_name_H-M "C 2/C"
_symmetry_group_IT_number 15
_symmetry_cell_setting 'monoclinic'
loop_
_space_group_symop_operation_xyz
x,y,z
-x,y,1/2-z
-x,-y,-z
x,-y,1/2+z
1/2+x,1/2+y,z
1/2-x,1/2+y,1/2-z
1/2-x,1/2-y,-z
1/2+x,1/2-y,1/2+z
loop_
_atom_site_type_symbol
_atom_site_label
_atom_site_fract_x
_atom_site_fract_y
_atom_site_fract_z
Si Si1 0.531286 0.684286 0.547476
Si Si2 0.600199 0.368737 0.524238
Si Si3 0.335078 0.120597 0.842844
Si Si4 0.080122 0.004181 0.032059
Si Si5 0.989617 0.287713 0.425780
Si Si6 0.887842 0.570611 0.317001
Si Si7 0.831306 0.510668 0.675924
Si Si8 0.282998 0.144878 0.227573
O O1 0.435022 0.650839 0.586521
O O2 0.535232 0.742616 0.471778
O O3 0.651699 0.656184 0.379152
O O4 0.500000 0.688552 0.750000
O O5 0.500000 0.349375 0.750000
O O6 0.721467 0.351699 0.426949
O O7 0.598603 0.432957 0.537910
O O8 0.438333 0.157584 0.666386
O O9 0.342171 0.063450 0.759374
O O10 0.322066 0.115738 0.030468
O O11 0.000000 0.978008 0.250000
O O12 0.206368 0.984657 0.851250
O O13 0.000000 0.000000 0.000000
O O14 0.000000 0.268746 0.250000
O O15 0.861633 0.302537 0.623554
O O16 0.840336 0.531967 0.502262
O O17 0.910527 0.533084 0.151196
O O18 0.811995 0.615865 0.340634
O O19 0.000000 0.592979 0.250000
#
# Coordination Sequence:
#
# PCOD9285017 Si02
#       8
#     8   8   8   8   8   8   8   8
#     4  12  28  43  68 100 135 177 224 280 338 412
#     4  10  21  41  66  94 132 178 223 274 333 400
#     4  10  22  44  73 101 137 175 227 280 338 404
#     4  10  22  37  60  91 128 169 212 271 323 388
#     4  10  25  46  71  99 131 176 225 283 346 403
#     4  12  26  44  68 100 141 180 227 278 331 398
#     4  11  24  41  69  99 134 184 222 271 331 399
#     4  11  26  46  70 100 137 177 226 284 338 404
#
# _framework density 22.863330000000001
#
# number of rings (size 3 to 8) (size 9 to 14) (size 15 to 20)
#    0.000    1.250    1.250    3.000    7.000    5.000 
#    0.000    0.000    0.000    0.000    0.000    0.000 
#    0.000    0.000    0.000    0.000    0.000    0.000 
#
# Total GULP energy -178844.228168 kJ/mol
# GULP energy per Si atom -5588.882130 kJ/mol
# Density = 2.281129 g / cm^3
# Si number density = 22.863330 Si / 1000 Ang^3
#
#
#
# Elastic Constant Matrix: (Units=GPa)
#
#
# Indices 1 2 3 4 5 6 
#
# 1 137.0029 4.8536 32.2520 0.0000 4.4233 0.0000
# 2 4.8536 26.1805 -5.1663 0.0000 -5.5161 0.0000
# 3 32.2520 -5.1663 74.4914 0.0000 13.2839 0.0000
# 4 0.0000 0.0000 0.0000 1.4760 0.0000 -0.7551
# 5 4.4233 -5.5161 13.2839 0.0000 39.0146 0.0000
# 6 0.0000 0.0000 0.0000 -0.7551 0.0000 43.4780
#
#
#
# Elastic Compliance Matrix: (Units=1/GPa)
#
#
# Indices 1 2 3 4 5 6 
#
# 1 0.008258 -0.002265 -0.003735 0.000000 0.000015 0.000000
# 2 -0.002265 0.040231 0.002886 0.000000 0.004962 0.000000
# 3 -0.003735 0.002886 0.016069 0.000000 -0.004640 0.000000
# 4 0.000000 0.000000 0.000000 0.683594 0.000000 0.011872
# 5 0.000015 0.004962 -0.004640 0.000000 0.027911 0.000000
# 6 0.000000 0.000000 0.000000 0.011872 0.000000 0.023206
#
#
# Mechanical properties :
#
#
# Convention : Reuss Voigt Hill
#
# Bulk Modulus (GPa) = 17.14382 33.50593 25.32488
# Shear Modulus (GPa) = 6.06104 30.50942 18.28523
#
# Velocity S-wave (km/s) = 1.62995 3.65694 2.83107
# Velocity P-wave (km/s) = 3.32521 5.70243 4.66769
#
# Compressibility (1/GPa) = 0.05833006
#
# Stress axis : x y z
#
# Youngs Moduli (GPa) = 121.09197 24.85632 62.23102
#
# Poissons Ratio (x) = 0.05630 0.23245
# Poissons Ratio (y) = 0.27426 -0.17959
# Poissons Ratio (z) = 0.45231 -0.07173
#
# Static dielectric constant tensor:
#      x y z
#    x 1.833480 0.000000 -0.028550 
#    y 0.000000 1.842410 0.000000 
#    z -0.028550 0.000000 1.886440 
# 
# From -- ./inp_files/44834.got.cif
#   From: 2010.05.17/outbox.cif.g08.bks.cpg/sg15_23_cif.got.tgz:44834.got - 2010.06.03 18:47:42.
