data_PCOD9285586
_publ_section_title
;
Structure prediction by ZEFSAII (Michael W. Deem and Ramdas Pophale) SiO2 
 PCOD9285586
Probable space group: C 2/C
;
_chemical_formula_sum "Si O2"
_cell_formula_units_Z 64
_cell_length_a 9.703947
_cell_length_b 11.115955
_cell_length_c 26.529234
_cell_angle_alpha 90.000000
_cell_angle_beta 92.475865
_cell_angle_gamma 90.000000
_cell_volume 2859.000992
_symmetry_space_group_name_H-M "C 2/C"
_symmetry_group_IT_number 15
_symmetry_cell_setting 'monoclinic'
loop_
_space_group_symop_operation_xyz
x,y,z
-x,y,1/2-z
-x,-y,-z
x,-y,1/2+z
1/2+x,1/2+y,z
1/2-x,1/2+y,1/2-z
1/2-x,1/2-y,-z
1/2+x,1/2-y,1/2+z
loop_
_atom_site_type_symbol
_atom_site_label
_atom_site_fract_x
_atom_site_fract_y
_atom_site_fract_z
Si Si1 0.637898 0.482669 0.445433
Si Si2 0.097459 0.387808 0.514536
Si Si3 0.952300 0.176254 0.464527
Si Si4 0.782306 0.574209 0.740335
Si Si5 0.507229 0.113386 0.665191
Si Si6 0.741643 0.778067 0.111999
Si Si7 0.849278 0.323647 0.768416
Si Si8 0.519219 0.857994 0.625522
O O1 0.750044 0.558334 0.478979
O O2 0.519331 0.575986 0.429693
O O3 0.572822 0.386084 0.482203
O O4 0.709165 0.413248 0.400623
O O5 0.066126 0.333719 0.569504
O O6 0.000000 0.500000 0.500000
O O7 0.057486 0.286250 0.473818
O O8 0.806353 0.218945 0.441062
O O9 0.889781 0.582329 0.787699
O O10 0.749917 0.429911 0.743752
O O11 0.679617 0.685650 0.747647
O O12 0.860245 0.617064 0.690534
O O13 0.596743 0.216618 0.639666
O O14 0.495770 0.000813 0.627893
O O15 0.874363 0.708652 0.134847
O O16 0.869053 0.328403 0.829430
O O17 0.000000 0.356383 0.750000
#
# Coordination Sequence:
#
# PCOD9285586 Si02
#       8
#     8   8   8   8   8   8   8   8
#     4  11  23  39  61  87 125 168 218 265 317 375
#     4  12  21  39  66  90 125 179 215 263 330 379
#     4  11  24  41  60  90 127 171 215 266 316 378
#     4  10  22  44  71  92 132 168 209 264 335 396
#     4  10  21  42  64  93 125 167 206 262 317 390
#     4  12  22  41  64  89 129 167 215 262 318 378
#     4  11  22  46  68  98 133 172 210 272 335 394
#     4  11  22  38  65  93 129 168 216 269 322 385
#
# _framework density 22.385442000000001
#
# number of rings (size 3 to 8) (size 9 to 14) (size 15 to 20)
#    0.000    1.000    6.250    2.250    0.000    1.000 
#    4.500    1.250    0.000    0.000    0.000    0.000 
#    0.000    0.000    0.000    0.000    0.000    0.000 
#
# Total GULP energy -178412.111812 kJ/mol
# GULP energy per Si atom -5575.378494 kJ/mol
# Density = 2.233449 g / cm^3
# Si number density = 22.385442 Si / 1000 Ang^3
#
#
#
# Elastic Constant Matrix: (Units=GPa)
#
#
# Indices 1 2 3 4 5 6 
#
# 1 56.9163 48.5571 2.6109 0.0000 1.1746 0.0000
# 2 48.5571 123.2107 20.6613 0.0000 8.4657 0.0000
# 3 2.6109 20.6613 52.9816 0.0000 -3.4776 0.0000
# 4 0.0000 0.0000 0.0000 27.5538 0.0000 0.8655
# 5 1.1746 8.4657 -3.4776 0.0000 19.7728 0.0000
# 6 0.0000 0.0000 0.0000 0.8655 0.0000 45.6668
#
#
#
# Elastic Compliance Matrix: (Units=1/GPa)
#
#
# Indices 1 2 3 4 5 6 
#
# 1 0.027196 -0.011563 0.003428 0.000000 0.003938 0.000000
# 2 -0.011563 0.013989 -0.005295 0.000000 -0.006234 0.000000
# 3 0.003428 -0.005295 0.021150 0.000000 0.005783 0.000000
# 4 0.000000 0.000000 0.000000 0.036314 0.000000 -0.000688
# 5 0.003938 -0.006234 0.005783 0.000000 0.054027 0.000000
# 6 0.000000 0.000000 0.000000 -0.000688 0.000000 0.021911
#
#
# Mechanical properties :
#
#
# Convention : Reuss Voigt Hill
#
# Bulk Modulus (GPa) = 28.18919 41.86304 35.02612
# Shear Modulus (GPa) = 23.44407 29.35063 26.39735
#
# Velocity S-wave (km/s) = 3.23970 3.62491 3.43770
# Velocity P-wave (km/s) = 5.15889 6.02176 5.60695
#
# Compressibility (1/GPa) = 0.03547459
#
# Stress axis : x y z
#
# Youngs Moduli (GPa) = 36.76983 71.48222 47.28135
#
# Poissons Ratio (x) = 0.82657 -0.16206
# Poissons Ratio (y) = 0.42518 0.25035
# Poissons Ratio (z) = -0.12603 0.37849
#
# Static dielectric constant tensor:
#      x y z
#    x 1.847640 0.000000 -0.063740 
#    y 0.000000 1.915250 0.000000 
#    z -0.063740 0.000000 1.896740 
# 
# From -- ./inp_files/307480.got.cif
#   From: 2010.05.17/outbox.cif.g08.bks.cpg/sg15_154_cif.got.tgz:307480.got - 2010.06.03 18:47:42.
