data_PCOD9285576
_publ_section_title
;
Structure prediction by ZEFSAII (Michael W. Deem and Ramdas Pophale) SiO2 
 PCOD9285576
Probable space group: C 2/C
;
_chemical_formula_sum "Si O2"
_cell_formula_units_Z 56
_cell_length_a 26.537692
_cell_length_b 12.109821
_cell_length_c 9.048550
_cell_angle_alpha 90.000000
_cell_angle_beta 74.597949
_cell_angle_gamma 90.000000
_cell_volume 2803.467938
_symmetry_space_group_name_H-M "C 2/C"
_symmetry_group_IT_number 15
_symmetry_cell_setting 'monoclinic'
loop_
_space_group_symop_operation_xyz
x,y,z
-x,y,1/2-z
-x,-y,-z
x,-y,1/2+z
1/2+x,1/2+y,z
1/2-x,1/2+y,1/2-z
1/2-x,1/2-y,-z
1/2+x,1/2-y,1/2+z
loop_
_atom_site_type_symbol
_atom_site_label
_atom_site_fract_x
_atom_site_fract_y
_atom_site_fract_z
Si Si1 0.458565 0.518913 0.158369
Si Si2 0.960203 0.447770 0.647833
Si Si3 0.765422 0.134679 0.068294
Si Si4 0.289401 0.964929 0.607943
Si Si5 0.121274 0.808442 0.914045
Si Si6 0.359102 0.901646 0.282321
Si Si7 0.560254 0.278488 0.247779
O O1 0.500000 0.557969 0.250000
O O2 0.417527 0.604839 0.128357
O O3 0.427812 0.404293 0.215393
O O4 0.500000 0.500000 0.000000
O O5 0.912825 0.528486 0.728881
O O6 0.936995 0.323894 0.640139
O O7 0.000000 0.431092 0.750000
O O8 0.000000 0.500000 0.500000
O O9 0.736780 0.115564 0.249665
O O10 0.826317 0.138809 0.061083
O O11 0.750000 0.250000 0.000000
O O12 0.749432 0.035989 0.967659
O O13 0.330700 0.911248 0.462027
O O14 0.321064 0.048607 0.687078
O O15 0.132427 0.721887 0.776765
O O16 0.093239 0.749737 0.076024
O O17 0.500000 0.292249 0.250000
#
# Coordination Sequence:
#
# PCOD9285576 Si02
#       7
#     8   8   8   8   8   8   8
#     4  11  23  44  65  95 139 182 224 274 335 407
#     4  11  23  39  66  99 132 171 225 275 336 414
#     4  11  25  47  71 102 135 181 234 298 350 421
#     4  10  24  46  69  98 137 175 231 294 352 408
#     4  12  24  42  70 100 136 185 229 275 356 414
#     4  11  22  44  67  98 135 180 221 284 353 414
#     4  10  21  42  64  91 135 177 220 276 337 400
#
# _framework density 19.975259000000001
#
# number of rings (size 3 to 8) (size 9 to 14) (size 15 to 20)
#    0.000    1.143    4.286    3.429    4.000    1.143 
#    2.571    0.000    0.000    0.000    0.000    0.000 
#    0.000    0.000    0.000    0.000    0.000    0.000 
#
# Total GULP energy -156110.663559 kJ/mol
# GULP energy per Si atom -5575.380841 kJ/mol
# Density = 1.992979 g / cm^3
# Si number density = 19.975259 Si / 1000 Ang^3
#
#
#
# Elastic Constant Matrix: (Units=GPa)
#
#
# Indices 1 2 3 4 5 6 
#
# 1 130.4341 49.1788 40.4707 0.0000 -2.4822 0.0000
# 2 49.1788 107.2241 57.6752 0.0000 -3.2952 0.0000
# 3 40.4707 57.6752 141.2575 0.0000 -18.2289 0.0000
# 4 0.0000 0.0000 0.0000 32.2435 0.0000 -1.8308
# 5 -2.4822 -3.2952 -18.2289 0.0000 28.7357 0.0000
# 6 0.0000 0.0000 0.0000 -1.8308 0.0000 13.2806
#
#
#
# Elastic Compliance Matrix: (Units=1/GPa)
#
#
# Indices 1 2 3 4 5 6 
#
# 1 0.009430 -0.003660 -0.001259 0.000000 -0.000404 0.000000
# 2 -0.003660 0.013465 -0.004673 0.000000 -0.001737 0.000000
# 3 -0.001259 -0.004673 0.010091 0.000000 0.005757 0.000000
# 4 0.000000 0.000000 0.000000 0.031259 0.000000 0.004309
# 5 -0.000404 -0.001737 0.005757 0.000000 0.038218 0.000000
# 6 0.000000 0.000000 0.000000 0.004309 0.000000 0.075892
#
#
# Mechanical properties :
#
#
# Convention : Reuss Voigt Hill
#
# Bulk Modulus (GPa) = 72.46057 74.84059 73.65058
# Shear Modulus (GPa) = 24.73528 30.29136 27.51332
#
# Velocity S-wave (km/s) = 3.52276 3.89838 3.71532
# Velocity P-wave (km/s) = 7.27326 7.60336 7.44014
#
# Compressibility (1/GPa) = 0.01380061
#
# Stress axis : x y z
#
# Youngs Moduli (GPa) = 106.04741 74.26473 99.09683
#
# Poissons Ratio (x) = 0.27181 0.12481
# Poissons Ratio (y) = 0.38813 0.46312
# Poissons Ratio (z) = 0.13356 0.34707
#
# Static dielectric constant tensor:
#      x y z
#    x 1.663800 0.000000 -0.020030 
#    y 0.000000 1.826000 0.000000 
#    z -0.020030 0.000000 1.697320 
# 
# From -- ./inp_files/65406.got.cif
#   From: 2010.05.17/outbox.cif.g08.bks.cpg/sg15_33_cif.got.tgz:65406.got - 2010.06.03 18:47:42.
