data_PCOD9285861
_publ_section_title
;
Structure prediction by ZEFSAII (Michael W. Deem and Ramdas Pophale) SiO2 
 PCOD9285861
Probable space group: C 2/C
;
_chemical_formula_sum "Si O2"
_cell_formula_units_Z 40
_cell_length_a 14.848320
_cell_length_b 15.067247
_cell_length_c 7.002122
_cell_angle_alpha 90.000000
_cell_angle_beta 73.438398
_cell_angle_gamma 90.000000
_cell_volume 1501.548203
_symmetry_space_group_name_H-M "C 2/C"
_symmetry_group_IT_number 15
_symmetry_cell_setting 'monoclinic'
loop_
_space_group_symop_operation_xyz
x,y,z
-x,y,1/2-z
-x,-y,-z
x,-y,1/2+z
1/2+x,1/2+y,z
1/2-x,1/2+y,1/2-z
1/2-x,1/2-y,-z
1/2+x,1/2-y,1/2+z
loop_
_atom_site_type_symbol
_atom_site_label
_atom_site_fract_x
_atom_site_fract_y
_atom_site_fract_z
Si Si1 0.612534 0.181902 0.039368
Si Si2 0.076671 0.951835 0.581206
Si Si3 0.315678 0.630025 0.964739
Si Si4 0.245780 0.853292 0.548961
Si Si5 0.055604 0.406821 0.969448
O O1 0.717129 0.151903 0.920603
O O2 0.528896 0.162770 0.943835
O O3 0.591334 0.122364 0.238327
O O4 0.618277 0.284243 0.095911
O O5 0.160647 0.889274 0.472831
O O6 0.000000 0.897098 0.750000
O O7 0.135794 0.037896 0.618559
O O8 0.000000 0.000000 0.500000
O O9 0.290465 0.629594 0.209638
O O10 0.250000 0.750000 0.500000
O O11 0.347732 0.900419 0.470118
O O12 0.000000 0.500000 0.000000
#
# Coordination Sequence:
#
# PCOD9285861 Si02
#       5
#     8   8   8   8   8
#     4   9  21  40  70  97 137 188 229 291 359 429
#     4  12  26  44  76 101 144 188 241 297 366 424
#     4  10  22  45  68 105 140 181 248 288 359 439
#     4  11  26  46  70 104 143 188 239 303 360 425
#     4  10  21  42  67  98 142 179 239 285 360 430
#
# _framework density 26.639171000000001
#
# number of rings (size 3 to 8) (size 9 to 14) (size 15 to 20)
#    0.000    1.600    2.000    1.200    5.600    3.200 
#   14.400    0.000    0.000    0.000    0.000    0.000 
#    0.000    0.000    0.000    0.000    0.000    0.000 
#
# Total GULP energy -111744.638096 kJ/mol
# GULP energy per Si atom -5587.231905 kJ/mol
# Density = 2.657854 g / cm^3
# Si number density = 26.639171 Si / 1000 Ang^3
#
#
#
# Elastic Constant Matrix: (Units=GPa)
#
#
# Indices 1 2 3 4 5 6 
#
# 1 228.3514 79.7711 20.2424 0.0000 -33.8273 0.0000
# 2 79.7711 189.2772 20.0739 0.0000 -37.4655 0.0000
# 3 20.2424 20.0739 94.8611 0.0000 -20.7930 0.0000
# 4 0.0000 0.0000 0.0000 21.3983 0.0000 -12.9672
# 5 -33.8273 -37.4655 -20.7930 0.0000 42.5702 0.0000
# 6 0.0000 0.0000 0.0000 -12.9672 0.0000 47.9381
#
#
#
# Elastic Compliance Matrix: (Units=1/GPa)
#
#
# Indices 1 2 3 4 5 6 
#
# 1 0.005395 -0.001723 -0.000201 0.000000 0.002672 0.000000
# 2 -0.001723 0.006950 -0.000070 0.000000 0.004713 0.000000
# 3 -0.000201 -0.000070 0.011816 0.000000 0.005550 0.000000
# 4 0.000000 0.000000 0.000000 0.055895 0.000000 0.015120
# 5 0.002672 0.004713 0.005550 0.000000 0.032473 0.000000
# 6 0.000000 0.000000 0.000000 0.015120 0.000000 0.024950
#
#
# Mechanical properties :
#
#
# Convention : Reuss Voigt Hill
#
# Bulk Modulus (GPa) = 49.57269 83.62940 66.60105
# Shear Modulus (GPa) = 33.74024 48.54146 41.14085
#
# Velocity S-wave (km/s) = 3.56274 4.27333 3.93412
# Velocity P-wave (km/s) = 5.96436 7.47061 6.75957
#
# Compressibility (1/GPa) = 0.02017240
#
# Stress axis : x y z
#
# Youngs Moduli (GPa) = 185.35960 143.88701 84.63116
#
# Poissons Ratio (x) = 0.24799 0.01700
# Poissons Ratio (y) = 0.31947 0.00591
# Poissons Ratio (z) = 0.03722 0.01006
#
# Static dielectric constant tensor:
#      x y z
#    x 2.083660 0.000000 0.136850 
#    y 0.000000 2.089810 0.000000 
#    z 0.136850 0.000000 2.425700 
# 
# From -- ./inp_files/37828.got.cif
#   From: 2010.05.17/outbox.cif.g08.bks.cpg/sg15_19_cif.got.tgz:37828.got - 2010.06.03 18:47:42.
