data_PCOD9285496
_publ_section_title
;
Structure prediction by ZEFSAII (Michael W. Deem and Ramdas Pophale) SiO2 
 PCOD9285496
Probable space group: C 2/C
;
_chemical_formula_sum "Si O2"
_cell_formula_units_Z 44
_cell_length_a 9.482050
_cell_length_b 15.638169
_cell_length_c 15.287644
_cell_angle_alpha 90.000000
_cell_angle_beta 49.185451
_cell_angle_gamma 90.000000
_cell_volume 1715.641456
_symmetry_space_group_name_H-M "C 2/C"
_symmetry_group_IT_number 15
_symmetry_cell_setting 'monoclinic'
loop_
_space_group_symop_operation_xyz
x,y,z
-x,y,1/2-z
-x,-y,-z
x,-y,1/2+z
1/2+x,1/2+y,z
1/2-x,1/2+y,1/2-z
1/2-x,1/2-y,-z
1/2+x,1/2-y,1/2+z
loop_
_atom_site_type_symbol
_atom_site_label
_atom_site_fract_x
_atom_site_fract_y
_atom_site_fract_z
Si Si1 0.500000 0.119999 0.250000
Si Si2 0.872392 0.885308 0.673633
Si Si3 0.748978 0.071937 0.419346
Si Si4 0.013851 0.292675 0.554126
Si Si5 0.718561 0.607592 0.641810
Si Si6 0.322474 0.806921 0.261575
O O1 0.289240 0.082089 0.325765
O O2 0.493804 0.169603 0.344808
O O3 0.824427 0.923749 0.788483
O O4 0.862632 0.782431 0.692829
O O5 0.089703 0.907380 0.576673
O O6 0.595584 0.145355 0.471581
O O7 0.704247 0.972170 0.444865
O O8 0.879422 0.210482 0.611645
O O9 0.223033 0.307050 0.435018
O O10 0.500000 0.603796 0.750000
O O11 0.802576 0.615182 0.704174
O O12 0.500000 0.818199 0.250000
#
# Coordination Sequence:
#
# PCOD9285496 Si02
#       6
#     4   8   8   8   8   8
#     4   8  18  34  64  96 112 158 218 260 294 382
#     4   9  15  37  67  84 122 170 212 249 315 390
#     4   9  17  40  66  88 121 174 216 258 323 390
#     4  10  22  43  67  91 128 180 217 257 334 392
#     4  12  25  39  64 100 135 166 215 278 326 381
#     4  10  21  42  62  93 129 171 213 266 322 390
#
# _framework density 25.646384999999999
#
# number of rings (size 3 to 8) (size 9 to 14) (size 15 to 20)
#    0.000    2.545    5.455    0.545    5.091    1.455 
#    6.545    0.909    0.000    0.000    0.000    0.000 
#    0.000    0.000    0.000    0.000    0.000    0.000 
#
# Total GULP energy -122595.683682 kJ/mol
# GULP energy per Si atom -5572.531076 kJ/mol
# Density = 2.558801 g / cm^3
# Si number density = 25.646385 Si / 1000 Ang^3
#
#
#
# Elastic Constant Matrix: (Units=GPa)
#
#
# Indices 1 2 3 4 5 6 
#
# 1 176.6413 30.6903 19.0838 -0.0001 4.5418 0.0000
# 2 30.6903 61.4064 10.5876 0.0000 2.4767 0.0000
# 3 19.0838 10.5876 56.4634 -0.0001 -6.0264 0.0001
# 4 -0.0001 0.0000 -0.0001 19.3252 0.0001 12.5952
# 5 4.5418 2.4767 -6.0264 0.0001 26.8053 -0.0001
# 6 0.0000 0.0000 0.0001 12.5952 -0.0001 13.9826
#
#
#
# Elastic Compliance Matrix: (Units=1/GPa)
#
#
# Indices 1 2 3 4 5 6 
#
# 1 0.006374 -0.002835 -0.001752 0.000000 -0.001212 0.000000
# 2 -0.002835 0.018232 -0.002653 0.000000 -0.001801 0.000000
# 3 -0.001752 -0.002653 0.019322 0.000000 0.004886 0.000000
# 4 0.000000 0.000000 0.000000 0.125316 -0.000001 -0.112882
# 5 -0.001212 -0.001801 0.004886 -0.000001 0.038776 0.000001
# 6 0.000000 0.000000 0.000000 -0.112882 0.000001 0.173199
#
#
# Mechanical properties :
#
#
# Convention : Reuss Voigt Hill
#
# Bulk Modulus (GPa) = 33.95788 46.13716 40.04752
# Shear Modulus (GPa) = 12.33001 27.63258 19.98129
#
# Velocity S-wave (km/s) = 2.19502 3.28601 2.79428
# Velocity P-wave (km/s) = 4.43776 5.69438 5.10488
#
# Compressibility (1/GPa) = 0.02944824
#
# Stress axis : x y z
#
# Youngs Moduli (GPa) = 156.88294 54.84943 51.75524
#
# Poissons Ratio (x) = 0.15549 0.09068
# Poissons Ratio (y) = 0.44473 0.13729
# Poissons Ratio (z) = 0.27489 0.14550
#
# Static dielectric constant tensor:
#      x y z
#    x 2.146200 0.000000 -0.135250 
#    y 0.000000 2.087480 0.000000 
#    z -0.135250 0.000000 2.145440 
# 
# From -- ./inp_files/134738.got.cif
#   From: 2010.05.17/outbox.cif.g08.bks.cpg/sg15_68_cif.got.tgz:134738.got - 2010.06.03 18:47:42.
