data_PCOD9285739
_publ_section_title
;
Structure prediction by ZEFSAII (Michael W. Deem and Ramdas Pophale) SiO2 
 PCOD9285739
Probable space group: C 2/C
;
_chemical_formula_sum "Si O2"
_cell_formula_units_Z 40
_cell_length_a 14.665219
_cell_length_b 9.729355
_cell_length_c 13.185332
_cell_angle_alpha 90.000000
_cell_angle_beta 70.194931
_cell_angle_gamma 90.000000
_cell_volume 1770.045497
_symmetry_space_group_name_H-M "C 2/C"
_symmetry_group_IT_number 15
_symmetry_cell_setting 'monoclinic'
loop_
_space_group_symop_operation_xyz
x,y,z
-x,y,1/2-z
-x,-y,-z
x,-y,1/2+z
1/2+x,1/2+y,z
1/2-x,1/2+y,1/2-z
1/2-x,1/2-y,-z
1/2+x,1/2-y,1/2+z
loop_
_atom_site_type_symbol
_atom_site_label
_atom_site_fract_x
_atom_site_fract_y
_atom_site_fract_z
Si Si1 0.597060 0.432936 0.660896
Si Si2 0.327624 0.692225 0.556319
Si Si3 0.914142 0.349365 0.708930
Si Si4 0.239708 0.812064 0.112921
Si Si5 0.646499 0.149191 0.754965
O O1 0.500000 0.489245 0.750000
O O2 0.600140 0.398057 0.539805
O O3 0.683755 0.542619 0.639799
O O4 0.612323 0.287599 0.713146
O O5 0.250000 0.750000 0.500000
O O6 0.393086 0.794768 0.601720
O O7 0.252278 0.619684 0.662558
O O8 0.818681 0.297581 0.800426
O O9 0.915743 0.512663 0.720536
O O10 0.000000 0.295605 0.750000
O O11 0.340754 0.823737 0.131058
O O12 0.250000 0.750000 0.000000
#
# Coordination Sequence:
#
# PCOD9285739 Si02
#       5
#     8   8   8   8   8
#     4  11  23  41  65  95 128 169 219 276 328 380
#     4   9  20  40  64  89 127 175 214 258 325 400
#     4  11  23  40  64  98 132 164 217 282 328 376
#     4  11  23  41  64  92 127 174 219 263 325 402
#     4  10  21  42  66  92 128 176 220 263 325 400
#
# _framework density 22.598288
#
# number of rings (size 3 to 8) (size 9 to 14) (size 15 to 20)
#    0.000    1.600    0.000    6.000    0.000    4.800 
#    0.000   12.000    0.000    0.000    0.000    0.000 
#    0.000    0.000    0.000    0.000    0.000    0.000 
#
# Total GULP energy -111371.311193 kJ/mol
# GULP energy per Si atom -5568.565560 kJ/mol
# Density = 2.254685 g / cm^3
# Si number density = 22.598288 Si / 1000 Ang^3
#
#
#
# Elastic Constant Matrix: (Units=GPa)
#
#
# Indices 1 2 3 4 5 6 
#
# 1 74.0224 23.0609 30.2334 0.0000 25.1827 0.0000
# 2 23.0609 99.3806 17.5433 0.0000 33.7980 0.0000
# 3 30.2334 17.5433 132.9228 0.0000 30.8824 0.0000
# 4 0.0000 0.0000 0.0000 19.6097 0.0000 -1.7889
# 5 25.1827 33.7980 30.8824 0.0000 32.4861 0.0000
# 6 0.0000 0.0000 0.0000 -1.7889 0.0000 24.4640
#
#
#
# Elastic Compliance Matrix: (Units=1/GPa)
#
#
# Indices 1 2 3 4 5 6 
#
# 1 0.018506 0.000671 -0.001030 0.000000 -0.014064 0.000000
# 2 0.000671 0.016111 0.002228 0.000000 -0.019400 0.000000
# 3 -0.001030 0.002228 0.010032 0.000000 -0.011057 0.000000
# 4 0.000000 0.000000 0.000000 0.051338 0.000000 0.003754
# 5 -0.014064 -0.019400 -0.011057 0.000000 0.072378 0.000000
# 6 0.000000 0.000000 0.000000 0.003754 0.000000 0.041151
#
#
# Mechanical properties :
#
#
# Convention : Reuss Voigt Hill
#
# Bulk Modulus (GPa) = 20.66706 49.77789 35.22248
# Shear Modulus (GPa) = 22.53194 31.01117 26.77156
#
# Velocity S-wave (km/s) = 3.16106 3.70845 3.44564
# Velocity P-wave (km/s) = 4.74218 6.35703 5.60804
#
# Compressibility (1/GPa) = 0.04838618
#
# Stress axis : x y z
#
# Youngs Moduli (GPa) = 54.03708 62.06979 99.67883
#
# Poissons Ratio (x) = -0.04162 0.10269
# Poissons Ratio (y) = -0.03623 -0.22212
# Poissons Ratio (z) = 0.05567 -0.13831
#
# Static dielectric constant tensor:
#      x y z
#    x 1.980040 0.000000 0.051160 
#    y 0.000000 1.905040 0.000000 
#    z 0.051160 0.000000 1.879570 
# 
# From -- ./inp_files/102692.got.cif
#   From: 2010.05.17/outbox.cif.g08.bks.cpg/sg15_52_cif.got.tgz:102692.got - 2010.06.03 18:47:42.
