data_PCOD9285325
_publ_section_title
;
Structure prediction by ZEFSAII (Michael W. Deem and Ramdas Pophale) SiO2 
 PCOD9285325
Probable space group: C 2/C
;
_chemical_formula_sum "Si O2"
_cell_formula_units_Z 48
_cell_length_a 9.367639
_cell_length_b 15.693208
_cell_length_c 27.597962
_cell_angle_alpha 90.000000
_cell_angle_beta 142.207438
_cell_angle_gamma 90.000000
_cell_volume 2486.227212
_symmetry_space_group_name_H-M "C 2/C"
_symmetry_group_IT_number 15
_symmetry_cell_setting 'monoclinic'
loop_
_space_group_symop_operation_xyz
x,y,z
-x,y,1/2-z
-x,-y,-z
x,-y,1/2+z
1/2+x,1/2+y,z
1/2-x,1/2+y,1/2-z
1/2-x,1/2-y,-z
1/2+x,1/2-y,1/2+z
loop_
_atom_site_type_symbol
_atom_site_label
_atom_site_fract_x
_atom_site_fract_y
_atom_site_fract_z
Si Si1 0.254570 0.406771 0.694876
Si Si2 0.263702 0.178538 0.045154
Si Si3 0.347604 0.474218 0.051119
Si Si4 0.731015 0.408104 0.689953
Si Si5 0.131273 0.567159 0.595189
Si Si6 0.527987 0.744538 0.081028
O O1 0.500000 0.362259 0.750000
O O2 0.273609 0.433215 0.755490
O O3 0.227674 0.490225 0.653873
O O4 0.031384 0.347301 0.627139
O O5 0.139470 0.208265 0.060994
O O6 0.250000 0.250000 0.000000
O O7 0.151800 0.093917 0.991616
O O8 0.591619 0.521389 0.122268
O O9 0.268699 0.431864 0.080977
O O10 0.139034 0.541900 0.986689
O O11 0.600222 0.319945 0.642864
O O12 0.000000 0.398752 0.750000
O O13 0.130404 0.661153 0.616973
O O14 0.250000 0.750000 0.000000
#
# Coordination Sequence:
#
# PCOD9285325 Si02
#       6
#     8   8   8   8   8   8
#     4  11  24  43  69  95 133 179 222 278 338 392
#     4  11  24  43  69  99 134 176 225 271 330 403
#     4  10  21  41  70  93 130 173 223 264 325 405
#     4  12  25  44  63  99 140 170 216 284 340 383
#     4  10  21  41  70  95 122 179 226 262 322 408
#     4  12  25  42  69 101 136 175 224 279 332 397
#
# _framework density 19.306362
#
# number of rings (size 3 to 8) (size 9 to 14) (size 15 to 20)
#    0.000    1.000    6.667    0.000    2.333    2.667 
#    3.000    0.833    0.000    0.000    0.000    0.000 
#    0.000    0.000    0.000    0.000    0.000    0.000 
#
# Total GULP energy -134063.093865 kJ/mol
# GULP energy per Si atom -5585.962244 kJ/mol
# Density = 1.926242 g / cm^3
# Si number density = 19.306362 Si / 1000 Ang^3
#
#
#
# Elastic Constant Matrix: (Units=GPa)
#
#
# Indices 1 2 3 4 5 6 
#
# 1 65.0517 13.2604 32.2520 0.0000 8.7203 0.0000
# 2 13.2604 80.3679 35.7939 0.0000 14.0528 0.0000
# 3 32.2520 35.7939 123.2641 0.0000 23.5447 0.0000
# 4 0.0000 0.0000 0.0000 10.4730 0.0000 -0.5675
# 5 8.7203 14.0528 23.5447 0.0000 39.5452 0.0000
# 6 0.0000 0.0000 0.0000 -0.5675 0.0000 24.4671
#
#
#
# Elastic Compliance Matrix: (Units=1/GPa)
#
#
# Indices 1 2 3 4 5 6 
#
# 1 0.017774 -0.000874 -0.004183 0.000000 -0.001118 0.000000
# 2 -0.000874 0.014644 -0.003460 0.000000 -0.002951 0.000000
# 3 -0.004183 -0.003460 0.011059 0.000000 -0.004432 0.000000
# 4 0.000000 0.000000 0.000000 0.095604 0.000000 0.002218
# 5 -0.001118 -0.002951 -0.004432 0.000000 0.029222 0.000000
# 6 0.000000 0.000000 0.000000 0.002218 0.000000 0.040923
#
#
# Mechanical properties :
#
#
# Convention : Reuss Voigt Hill
#
# Bulk Modulus (GPa) = 37.81810 47.92181 42.86995
# Shear Modulus (GPa) = 21.26991 27.38889 24.32940
#
# Velocity S-wave (km/s) = 3.32279 3.77058 3.55375
# Velocity P-wave (km/s) = 5.86108 6.62057 6.25237
#
# Compressibility (1/GPa) = 0.02644237
#
# Stress axis : x y z
#
# Youngs Moduli (GPa) = 56.26042 68.28726 90.42805
#
# Poissons Ratio (x) = 0.05969 0.37829
# Poissons Ratio (y) = 0.04918 0.31288
# Poissons Ratio (z) = 0.23535 0.23627
#
# Static dielectric constant tensor:
#      x y z
#    x 1.779900 0.000000 -0.000380 
#    y 0.000000 1.675840 0.000000 
#    z -0.000380 0.000000 1.670040 
# 
# From -- ./inp_files/289116.got.cif
#   From: 2010.05.17/outbox.cif.g08.bks.cpg/sg15_145_cif.got.tgz:289116.got - 2010.06.03 18:47:42.
