data_PCOD9285816
_publ_section_title
;
Structure prediction by ZEFSAII (Michael W. Deem and Ramdas Pophale) SiO2 
 PCOD9285816
Probable space group: C 2/C
;
_chemical_formula_sum "Si O2"
_cell_formula_units_Z 48
_cell_length_a 7.653541
_cell_length_b 30.308684
_cell_length_c 12.785488
_cell_angle_alpha 90.000000
_cell_angle_beta 139.818651
_cell_angle_gamma 90.000000
_cell_volume 1913.582687
_symmetry_space_group_name_H-M "C 2/C"
_symmetry_group_IT_number 15
_symmetry_cell_setting 'monoclinic'
loop_
_space_group_symop_operation_xyz
x,y,z
-x,y,1/2-z
-x,-y,-z
x,-y,1/2+z
1/2+x,1/2+y,z
1/2-x,1/2+y,1/2-z
1/2-x,1/2-y,-z
1/2+x,1/2-y,1/2+z
loop_
_atom_site_type_symbol
_atom_site_label
_atom_site_fract_x
_atom_site_fract_y
_atom_site_fract_z
Si Si1 0.290154 0.390149 0.252655
Si Si2 0.991092 0.263426 0.447010
Si Si3 0.039383 0.983697 0.134400
Si Si4 0.175494 0.642864 0.093409
Si Si5 0.480408 0.301038 0.370941
Si Si6 0.964900 0.446034 0.858184
O O1 0.500000 0.392374 0.250000
O O2 0.284618 0.439186 0.291999
O O3 0.429850 0.351213 0.382867
O O4 0.987931 0.374415 0.084313
O O5 0.250000 0.250000 0.500000
O O6 0.053253 0.307737 0.544522
O O7 0.869882 0.226017 0.469337
O O8 0.795594 0.274276 0.261049
O O9 0.208123 0.022966 0.265197
O O10 0.739833 0.967075 0.031861
O O11 0.000000 0.000000 0.000000
O O12 0.500000 0.645008 0.250000
O O13 0.081466 0.604355 0.129092
O O14 0.500000 0.302633 0.250000
O O15 0.000000 0.446524 0.750000
#
# Coordination Sequence:
#
# PCOD9285816 Si02
#       6
#     8   8   8   8   8   8
#     4  10  21  42  67  92 133 175 221 283 341 409
#     4  11  23  45  66  98 145 181 225 290 351 418
#     4  10  22  43  65  95 134 172 221 280 345 407
#     4  11  24  41  65 100 132 176 228 275 344 406
#     4  10  22  41  70 101 129 181 235 282 348 413
#     4  10  23  43  66  96 134 175 222 280 343 407
#
# _framework density 25.083838
#
# number of rings (size 3 to 8) (size 9 to 14) (size 15 to 20)
#    0.000    1.667    1.667    2.000    2.333    2.000 
#   12.000    3.333    0.000    0.000    0.000    0.000 
#    0.000    0.000    0.000    0.000    0.000    0.000 
#
# Total GULP energy -133730.994302 kJ/mol
# GULP energy per Si atom -5572.124763 kJ/mol
# Density = 2.502675 g / cm^3
# Si number density = 25.083838 Si / 1000 Ang^3
#
#
#
# Elastic Constant Matrix: (Units=GPa)
#
#
# Indices 1 2 3 4 5 6 
#
# 1 68.5254 25.1748 7.8482 0.0000 -6.2373 0.0000
# 2 25.1748 181.4700 51.9925 0.0000 -25.8086 0.0000
# 3 7.8482 51.9925 78.4326 0.0000 20.5389 0.0000
# 4 0.0000 0.0000 0.0000 50.0438 0.0000 2.7118
# 5 -6.2373 -25.8086 20.5389 0.0000 39.2511 0.0000
# 6 0.0000 0.0000 0.0000 2.7118 0.0000 30.1971
#
#
#
# Elastic Compliance Matrix: (Units=1/GPa)
#
#
# Indices 1 2 3 4 5 6 
#
# 1 0.015466 -0.001579 -0.001012 0.000000 0.001949 0.000000
# 2 -0.001579 0.010050 -0.009466 0.000000 0.011311 0.000000
# 3 -0.001012 -0.009466 0.024101 0.000000 -0.018996 0.000000
# 4 0.000000 0.000000 0.000000 0.020080 0.000000 -0.001803
# 5 0.001949 0.011311 -0.018996 0.000000 0.043164 0.000000
# 6 0.000000 0.000000 0.000000 -0.001803 0.000000 0.033278
#
#
# Mechanical properties :
#
#
# Convention : Reuss Voigt Hill
#
# Bulk Modulus (GPa) = 39.20895 55.38434 47.29665
# Shear Modulus (GPa) = 27.97143 40.12590 34.04866
#
# Velocity S-wave (km/s) = 3.34296 4.00393 3.68828
# Velocity P-wave (km/s) = 5.52862 6.59567 6.08558
#
# Compressibility (1/GPa) = 0.02550438
#
# Stress axis : x y z
#
# Youngs Moduli (GPa) = 64.65660 99.49898 41.49265
#
# Poissons Ratio (x) = 0.15707 0.04197
# Poissons Ratio (y) = 0.10207 0.39278
# Poissons Ratio (z) = 0.06541 0.94189
#
# Static dielectric constant tensor:
#      x y z
#    x 2.156900 0.000000 0.091260 
#    y 0.000000 2.032270 0.000000 
#    z 0.091260 0.000000 2.111780 
# 
# From -- ./inp_files/139060.got.cif
#   From: 2010.05.17/outbox.cif.g08.bks.cpg/sg15_70_cif.got.tgz:139060.got - 2010.06.03 18:47:42.
