data_PCOD9285373
_publ_section_title
;
Structure prediction by ZEFSAII (Michael W. Deem and Ramdas Pophale) SiO2 
 PCOD9285373
Probable space group: C 2/C
;
_chemical_formula_sum "Si O2"
_cell_formula_units_Z 44
_cell_length_a 18.261714
_cell_length_b 13.315567
_cell_length_c 23.084193
_cell_angle_alpha 90.000000
_cell_angle_beta 20.921779
_cell_angle_gamma 90.000000
_cell_volume 2004.459707
_symmetry_space_group_name_H-M "C 2/C"
_symmetry_group_IT_number 15
_symmetry_cell_setting 'monoclinic'
loop_
_space_group_symop_operation_xyz
x,y,z
-x,y,1/2-z
-x,-y,-z
x,-y,1/2+z
1/2+x,1/2+y,z
1/2-x,1/2+y,1/2-z
1/2-x,1/2-y,-z
1/2+x,1/2-y,1/2+z
loop_
_atom_site_type_symbol
_atom_site_label
_atom_site_fract_x
_atom_site_fract_y
_atom_site_fract_z
Si Si1 0.408237 0.662745 0.449693
Si Si2 0.290070 0.936459 0.713852
Si Si3 0.563783 0.131084 0.108712
Si Si4 0.500000 0.621390 0.250000
Si Si5 0.569989 0.114894 0.517226
Si Si6 0.000000 0.199425 0.750000
Si Si7 0.500000 0.041923 0.750000
O O1 0.555924 0.581859 0.371650
O O2 0.278308 0.574847 0.395197
O O3 0.447965 0.671805 0.350902
O O4 0.186625 0.616600 0.623467
O O5 0.381651 0.871294 0.697379
O O6 0.393102 0.897595 0.578341
O O7 0.368444 0.047036 0.674013
O O8 0.517204 0.227745 0.182287
O O9 0.553391 0.033737 0.158019
O O10 0.785375 0.140334 0.913683
O O11 0.054130 0.728865 0.549991
#
# Coordination Sequence:
#
# PCOD9285373 Si02
#       7
#     8   8   8   4   8   4   4
#     4  11  24  44  70 103 139 186 228 301 347 425
#     4  10  24  40  64 102 138 182 231 282 358 412
#     4  10  22  43  67 103 136 186 238 292 343 425
#     4  10  21  41  71  97 132 180 233 279 351 417
#     4  10  22  42  65 103 137 181 229 286 354 416
#     4   9  22  43  70  96 138 190 237 281 348 416
#     4  11  25  44  71 105 136 182 246 292 357 411
#
# _framework density 21.951052000000001
#
# number of rings (size 3 to 8) (size 9 to 14) (size 15 to 20)
#    0.000    1.818    0.000    2.182    2.545   10.909 
#    6.545    0.909    0.000    0.000    0.000    0.000 
#    0.000    0.000    0.000    0.000    0.000    0.000 
#
# Total GULP energy -122720.348180 kJ/mol
# GULP energy per Si atom -5578.197645 kJ/mol
# Density = 2.190109 g / cm^3
# Si number density = 21.951052 Si / 1000 Ang^3
#
#
#
# Elastic Constant Matrix: (Units=GPa)
#
#
# Indices 1 2 3 4 5 6 
#
# 1 100.1329 44.4528 33.9709 -0.0039 -22.1235 0.0028
# 2 44.4528 139.1904 59.1588 -0.0134 -6.0496 0.0007
# 3 33.9709 59.1588 152.5690 -0.0231 -17.9120 -0.0019
# 4 -0.0039 -0.0134 -0.0231 36.3136 -0.0005 -4.4332
# 5 -22.1235 -6.0496 -17.9120 -0.0005 34.9308 0.0012
# 6 0.0028 0.0007 -0.0019 -4.4332 0.0012 32.8217
#
#
#
# Elastic Compliance Matrix: (Units=1/GPa)
#
#
# Indices 1 2 3 4 5 6 
#
# 1 0.013539 -0.003701 -0.000689 0.000000 0.007580 -0.000001
# 2 -0.003701 0.009616 -0.003175 0.000001 -0.002307 0.000000
# 3 -0.000689 -0.003175 0.008324 0.000004 0.003282 0.000001
# 4 0.000000 0.000001 0.000004 0.028000 0.000002 0.003782
# 5 0.007580 -0.002307 0.003282 0.000002 0.034712 -0.000001
# 6 -0.000001 0.000000 0.000001 0.003782 -0.000001 0.030978
#
#
# Mechanical properties :
#
#
# Convention : Reuss Voigt Hill
#
# Bulk Modulus (GPa) = 61.17381 74.11747 67.64564
# Shear Modulus (GPa) = 34.30534 37.76721 36.03628
#
# Velocity S-wave (km/s) = 3.95753 4.15241 4.05614
# Velocity P-wave (km/s) = 6.98652 7.53845 7.26773
#
# Compressibility (1/GPa) = 0.01634687
#
# Stress axis : x y z
#
# Youngs Moduli (GPa) = 73.86338 103.99605 120.12823
#
# Poissons Ratio (x) = 0.38492 0.08281
# Poissons Ratio (y) = 0.27339 0.38144
# Poissons Ratio (z) = 0.05092 0.33021
#
# Static dielectric constant tensor:
#      x y z
#    x 1.763250 0.000000 0.035810 
#    y 0.000000 1.852030 0.000020 
#    z 0.035810 0.000020 1.826590 
# 
# From -- ./inp_files/277785.got.cif
#   From: 2010.05.17/outbox.cif.g08.bks.cpg/sg15_139_cif.got.tgz:277785.got - 2010.06.03 18:47:42.
