data_PCOD9285337
_publ_section_title
;
Structure prediction by ZEFSAII (Michael W. Deem and Ramdas Pophale) SiO2 
 PCOD9285337
Probable space group: C 2/C
;
_chemical_formula_sum "Si O2"
_cell_formula_units_Z 44
_cell_length_a 14.284263
_cell_length_b 17.449204
_cell_length_c 8.530618
_cell_angle_alpha 90.000000
_cell_angle_beta 106.906653
_cell_angle_gamma 90.000000
_cell_volume 2034.351345
_symmetry_space_group_name_H-M "C 2/C"
_symmetry_group_IT_number 15
_symmetry_cell_setting 'monoclinic'
loop_
_space_group_symop_operation_xyz
x,y,z
-x,y,1/2-z
-x,-y,-z
x,-y,1/2+z
1/2+x,1/2+y,z
1/2-x,1/2+y,1/2-z
1/2-x,1/2-y,-z
1/2+x,1/2-y,1/2+z
loop_
_atom_site_type_symbol
_atom_site_label
_atom_site_fract_x
_atom_site_fract_y
_atom_site_fract_z
Si Si1 0.760207 0.280965 0.827433
Si Si2 0.080600 0.840963 0.155949
Si Si3 0.500000 0.027601 0.750000
Si Si4 0.410052 0.380169 0.865276
Si Si5 0.341515 0.481116 0.135171
Si Si6 0.861576 0.559491 0.423715
O O1 0.831965 0.218995 0.787172
O O2 0.658340 0.305826 0.698099
O O3 0.815382 0.361742 0.849177
O O4 0.750000 0.250000 0.000000
O O5 0.130142 0.922788 0.212442
O O6 0.000000 0.825274 0.250000
O O7 0.015757 0.847315 0.967272
O O8 0.569025 0.976414 0.673643
O O9 0.428371 0.075150 0.606279
O O10 0.393945 0.439690 0.713020
O O11 0.375463 0.434114 0.997076
O O12 0.226842 0.501728 0.075743
#
# Coordination Sequence:
#
# PCOD9285337 Si02
#       6
#     8   8   4   8   8   8
#     4  11  26  42  65  97 139 175 218 279 343 402
#     4  10  24  43  66  99 132 179 221 280 343 402
#     4  10  22  40  64  92 120 176 228 268 318 398
#     4  10  23  44  70 101 131 177 222 280 338 397
#     4  10  21  41  70  97 130 170 226 284 334 387
#     4  10  22  40  64  92 128 170 223 273 329 390
#
# _framework density 21.628513999999999
#
# number of rings (size 3 to 8) (size 9 to 14) (size 15 to 20)
#    0.000    1.818    0.000    2.727    8.909    5.091 
#    3.273    0.000    0.000    0.000    0.000    0.000 
#    0.000    0.000    0.000    0.000    0.000    0.000 
#
# Total GULP energy -122814.804933 kJ/mol
# GULP energy per Si atom -5582.491133 kJ/mol
# Density = 2.157929 g / cm^3
# Si number density = 21.628514 Si / 1000 Ang^3
#
#
#
# Elastic Constant Matrix: (Units=GPa)
#
#
# Indices 1 2 3 4 5 6 
#
# 1 78.7512 33.6328 25.9465 0.0000 18.7510 0.0000
# 2 33.6328 85.4808 10.6096 0.0000 13.9570 0.0000
# 3 25.9465 10.6096 89.2855 0.0000 32.0009 0.0000
# 4 0.0000 0.0000 0.0000 21.9480 0.0000 1.9211
# 5 18.7510 13.9570 32.0009 0.0000 39.8457 0.0000
# 6 0.0000 0.0000 0.0000 1.9211 0.0000 5.6230
#
#
#
# Elastic Compliance Matrix: (Units=1/GPa)
#
#
# Indices 1 2 3 4 5 6 
#
# 1 0.016977 -0.005723 -0.002961 0.000000 -0.003606 0.000000
# 2 -0.005723 0.014338 0.001115 0.000000 -0.003225 0.000000
# 3 -0.002961 0.001115 0.016244 0.000000 -0.012044 0.000000
# 4 0.000000 0.000000 0.000000 0.046967 0.000000 -0.016046
# 5 -0.003606 -0.003225 -0.012044 0.000000 0.037596 0.000000
# 6 0.000000 0.000000 0.000000 -0.016046 0.000000 0.183323
#
#
# Mechanical properties :
#
#
# Convention : Reuss Voigt Hill
#
# Bulk Modulus (GPa) = 30.84334 43.76616 37.30475
# Shear Modulus (GPa) = 14.64600 25.70526 20.17563
#
# Velocity S-wave (km/s) = 2.60506 3.45119 3.05753
# Velocity P-wave (km/s) = 4.83114 6.01334 5.45436
#
# Compressibility (1/GPa) = 0.03242191
#
# Stress axis : x y z
#
# Youngs Moduli (GPa) = 58.90430 69.74244 61.55948
#
# Poissons Ratio (x) = 0.39915 0.18226
# Poissons Ratio (y) = 0.33712 -0.06865
# Poissons Ratio (z) = 0.17440 -0.07777
#
# Static dielectric constant tensor:
#      x y z
#    x 1.821290 0.000000 -0.047860 
#    y 0.000000 1.740030 0.000000 
#    z -0.047860 0.000000 1.858710 
# 
# From -- ./inp_files/39322.got.cif
#   From: 2010.05.17/outbox.cif.g08.bks.cpg/sg15_20_cif.got.tgz:39322.got - 2010.06.03 18:47:42.
