data_PCOD9285922
_publ_section_title
;
Structure prediction by ZEFSAII (Michael W. Deem and Ramdas Pophale) SiO2 
 PCOD9285922
Probable space group: C 2/C
;
_chemical_formula_sum "Si O2"
_cell_formula_units_Z 52
_cell_length_a 9.514143
_cell_length_b 17.454462
_cell_length_c 17.866289
_cell_angle_alpha 90.000000
_cell_angle_beta 44.158091
_cell_angle_gamma 90.000000
_cell_volume 2066.898907
_symmetry_space_group_name_H-M "C 2/C"
_symmetry_group_IT_number 15
_symmetry_cell_setting 'monoclinic'
loop_
_space_group_symop_operation_xyz
x,y,z
-x,y,1/2-z
-x,-y,-z
x,-y,1/2+z
1/2+x,1/2+y,z
1/2-x,1/2+y,1/2-z
1/2-x,1/2-y,-z
1/2+x,1/2-y,1/2+z
loop_
_atom_site_type_symbol
_atom_site_label
_atom_site_fract_x
_atom_site_fract_y
_atom_site_fract_z
Si Si1 0.000000 0.091742 0.250000
Si Si2 0.899018 0.316138 0.207737
Si Si3 0.166703 0.631340 0.488097
Si Si4 0.501371 0.233888 0.327950
Si Si5 0.707291 0.866542 0.466673
Si Si6 0.233120 0.491627 0.566572
Si Si7 0.262980 0.992226 0.263946
O O1 0.843947 0.140208 0.360344
O O2 0.125901 0.035880 0.256733
O O3 0.724801 0.255165 0.265649
O O4 0.794639 0.400705 0.241079
O O5 0.000000 0.315626 0.250000
O O6 0.060961 0.304110 0.079263
O O7 0.246796 0.572952 0.520283
O O8 0.968173 0.600011 0.519138
O O9 0.500000 0.190270 0.250000
O O10 0.404932 0.187577 0.431507
O O11 0.366059 0.310459 0.366726
O O12 0.814035 0.930158 0.476398
O O13 0.305401 0.491933 0.624258
O O14 0.991598 0.477188 0.665554
#
# Coordination Sequence:
#
# PCOD9285922 Si02
#       7
#     4   8   8   8   8   8   8
#     4  12  26  34  64 110 140 182 220 278 364 402
#     4  11  23  46  69  97 139 183 234 281 342 417
#     4  11  23  42  68 104 142 173 224 292 346 409
#     4  11  26  43  72  96 130 190 235 278 332 412
#     4  11  24  44  69 104 133 176 238 285 339 404
#     4  10  21  42  68  95 138 177 216 292 351 401
#     4  10  22  38  64 103 135 179 221 282 350 407
#
# _framework density 25.158463999999999
#
# number of rings (size 3 to 8) (size 9 to 14) (size 15 to 20)
#    0.000    1.231    6.154    0.462    7.538    1.846 
#    1.385    2.308    0.000    0.000    0.000    0.000 
#    0.000    0.000    0.000    0.000    0.000    0.000 
#
# Total GULP energy -145631.211145 kJ/mol
# GULP energy per Si atom -5601.200429 kJ/mol
# Density = 2.510120 g / cm^3
# Si number density = 25.158464 Si / 1000 Ang^3
#
#
#
# Elastic Constant Matrix: (Units=GPa)
#
#
# Indices 1 2 3 4 5 6 
#
# 1 138.2373 4.3035 38.8279 0.0005 5.5441 0.0003
# 2 4.3035 32.0171 1.4141 0.0017 -6.8574 -0.0011
# 3 38.8279 1.4141 157.7838 0.0045 10.2766 -0.0030
# 4 0.0005 0.0017 0.0045 29.6996 -0.0020 1.8881
# 5 5.5441 -6.8574 10.2766 -0.0020 43.5272 0.0008
# 6 0.0003 -0.0011 -0.0030 1.8881 0.0008 14.3997
#
#
#
# Elastic Compliance Matrix: (Units=1/GPa)
#
#
# Indices 1 2 3 4 5 6 
#
# 1 0.007823 -0.001126 -0.001867 0.000000 -0.000733 -0.000001
# 2 -0.001126 0.032548 -0.000364 -0.000002 0.005357 0.000002
# 3 -0.001867 -0.000364 0.006895 -0.000001 -0.001447 0.000002
# 4 0.000000 -0.000002 -0.000001 0.033953 0.000002 -0.004452
# 5 -0.000733 0.005357 -0.001447 0.000002 0.024253 -0.000001
# 6 -0.000001 0.000002 0.000002 -0.004452 -0.000001 0.070029
#
#
# Mechanical properties :
#
#
# Convention : Reuss Voigt Hill
#
# Bulk Modulus (GPa) = 24.65956 46.34769 35.50363
# Shear Modulus (GPa) = 25.54503 36.42483 30.98493
#
# Velocity S-wave (km/s) = 3.18994 3.80915 3.51321
# Velocity P-wave (km/s) = 4.83638 6.14886 5.53168
#
# Compressibility (1/GPa) = 0.04055223
#
# Stress axis : x y z
#
# Youngs Moduli (GPa) = 127.83057 30.72376 145.03677
#
# Poissons Ratio (x) = 0.03460 0.27082
# Poissons Ratio (y) = 0.14394 0.05272
# Poissons Ratio (z) = 0.23869 0.01117
#
# Static dielectric constant tensor:
#      x y z
#    x 1.963340 0.000000 -0.024620 
#    y 0.000000 1.997180 0.000000 
#    z -0.024620 0.000000 2.009710 
# 
# From -- ./inp_files/192476.got.cif
#   From: 2010.05.17/outbox.cif.g08.bks.cpg/sg15_97_cif.got.tgz:192476.got - 2010.06.03 18:47:42.
