data_PCOD9285462
_publ_section_title
;
Structure prediction by ZEFSAII (Michael W. Deem and Ramdas Pophale) SiO2 
 PCOD9285462
Probable space group: C 2/C
;
_chemical_formula_sum "Si O2"
_cell_formula_units_Z 52
_cell_length_a 17.749654
_cell_length_b 5.345147
_cell_length_c 26.819378
_cell_angle_alpha 90.000000
_cell_angle_beta 117.466509
_cell_angle_gamma 90.000000
_cell_volume 2257.663574
_symmetry_space_group_name_H-M "C 2/C"
_symmetry_group_IT_number 15
_symmetry_cell_setting 'monoclinic'
loop_
_space_group_symop_operation_xyz
x,y,z
-x,y,1/2-z
-x,-y,-z
x,-y,1/2+z
1/2+x,1/2+y,z
1/2-x,1/2+y,1/2-z
1/2-x,1/2-y,-z
1/2+x,1/2-y,1/2+z
loop_
_atom_site_type_symbol
_atom_site_label
_atom_site_fract_x
_atom_site_fract_y
_atom_site_fract_z
Si Si1 0.318698 0.407333 0.429928
Si Si2 0.872876 0.328487 0.260124
Si Si3 0.500000 0.123839 0.250000
Si Si4 0.089840 0.414757 0.005060
Si Si5 0.287607 0.596411 0.318843
Si Si6 0.659966 0.553022 0.833944
Si Si7 0.323106 0.187360 0.062564
O O1 0.378091 0.645932 0.463485
O O2 0.316859 0.402527 0.369642
O O3 0.223459 0.472848 0.419492
O O4 0.349416 0.147128 0.461791
O O5 0.791583 0.509425 0.239161
O O6 0.863380 0.152509 0.304443
O O7 0.962630 0.459389 0.283332
O O8 0.857559 0.197955 0.201904
O O9 0.420181 0.280220 0.207506
O O10 0.097260 0.385288 0.947304
O O11 0.000000 0.500000 0.000000
O O12 0.246400 0.824597 0.337969
O O13 0.661993 0.588569 0.893924
O O14 0.250000 0.250000 0.000000
#
# Coordination Sequence:
#
# PCOD9285462 Si02
#       7
#     8   8   4   8   8   8   8
#     4  10  23  41  66  93 126 169 217 265 328 393
#     4  11  21  40  62  90 128 165 216 271 324 398
#     4  10  24  40  58  92 130 172 208 262 340 398
#     4  11  23  43  63  95 132 166 215 273 328 393
#     4  10  22  36  67  93 119 166 217 271 320 383
#     4  10  21  42  61  93 129 165 218 264 328 396
#     4   9  21  41  67  93 122 172 219 270 324 390
#
# _framework density 23.032662999999999
#
# number of rings (size 3 to 8) (size 9 to 14) (size 15 to 20)
#    0.000    1.846    1.538    1.385    6.462    1.231 
#   13.846    0.000    0.000    0.000    0.000    0.000 
#    0.000    0.000    0.000    0.000    0.000    0.000 
#
# Total GULP energy -145162.286319 kJ/mol
# GULP energy per Si atom -5583.164858 kJ/mol
# Density = 2.298024 g / cm^3
# Si number density = 23.032663 Si / 1000 Ang^3
#
#
#
# Elastic Constant Matrix: (Units=GPa)
#
#
# Indices 1 2 3 4 5 6 
#
# 1 143.6517 26.5316 31.4071 0.0002 -20.5578 -0.0006
# 2 26.5316 87.2218 13.4541 0.0004 3.1717 -0.0009
# 3 31.4071 13.4541 80.2034 0.0001 -28.4346 -0.0001
# 4 0.0002 0.0004 0.0001 22.4037 -0.0001 9.5631
# 5 -20.5578 3.1717 -28.4346 -0.0001 29.5352 0.0002
# 6 -0.0006 -0.0009 -0.0001 9.5631 0.0002 26.0685
#
#
#
# Elastic Compliance Matrix: (Units=1/GPa)
#
#
# Indices 1 2 3 4 5 6 
#
# 1 0.008398 -0.002580 -0.001040 0.000000 0.005121 0.000000
# 2 -0.002580 0.013029 -0.003504 0.000000 -0.006569 0.000001
# 3 -0.001040 -0.003504 0.020253 0.000000 0.019150 0.000000
# 4 0.000000 0.000000 0.000000 0.052922 0.000001 -0.019414
# 5 0.005121 -0.006569 0.019150 0.000001 0.056565 -0.000001
# 6 0.000000 0.000001 0.000000 -0.019414 -0.000001 0.045482
#
#
# Mechanical properties :
#
#
# Convention : Reuss Voigt Hill
#
# Bulk Modulus (GPa) = 36.45487 50.42915 43.44201
# Shear Modulus (GPa) = 22.72288 31.58042 27.15165
#
# Velocity S-wave (km/s) = 3.14435 3.70687 3.43714
# Velocity P-wave (km/s) = 5.38928 6.34534 5.88675
#
# Compressibility (1/GPa) = 0.02743118
#
# Stress axis : x y z
#
# Youngs Moduli (GPa) = 119.07351 76.75014 49.37584
#
# Poissons Ratio (x) = 0.19804 0.05136
# Poissons Ratio (y) = 0.30725 0.17301
# Poissons Ratio (z) = 0.12386 0.26893
#
# Static dielectric constant tensor:
#      x y z
#    x 1.876590 0.000000 -0.019590 
#    y 0.000000 1.948150 0.000000 
#    z -0.019590 0.000000 1.878490 
# 
# From -- ./inp_files/278610.got.cif
#   From: 2010.05.17/outbox.cif.g08.bks.cpg/sg15_140_cif.got.tgz:278610.got - 2010.06.03 18:47:42.
