data_PCOD9285775
_publ_section_title
;
Structure prediction by ZEFSAII (Michael W. Deem and Ramdas Pophale) SiO2 
 PCOD9285775
Probable space group: C 2/C
;
_chemical_formula_sum "Si O2"
_cell_formula_units_Z 36
_cell_length_a 8.272025
_cell_length_b 18.242654
_cell_length_c 11.088389
_cell_angle_alpha 90.000000
_cell_angle_beta 101.374841
_cell_angle_gamma 90.000000
_cell_volume 1640.412061
_symmetry_space_group_name_H-M "C 2/C"
_symmetry_group_IT_number 15
_symmetry_cell_setting 'monoclinic'
loop_
_space_group_symop_operation_xyz
x,y,z
-x,y,1/2-z
-x,-y,-z
x,-y,1/2+z
1/2+x,1/2+y,z
1/2-x,1/2+y,1/2-z
1/2-x,1/2-y,-z
1/2+x,1/2-y,1/2+z
loop_
_atom_site_type_symbol
_atom_site_label
_atom_site_fract_x
_atom_site_fract_y
_atom_site_fract_z
Si Si1 0.243735 0.475971 0.455715
Si Si2 0.351703 0.745618 0.326609
Si Si3 0.000000 0.318983 0.750000
Si Si4 0.937176 0.610703 0.979768
Si Si5 0.559817 0.410049 0.624270
O O1 0.097847 0.417766 0.431027
O O2 0.407094 0.435697 0.522936
O O3 0.300548 0.527164 0.353887
O O4 0.183594 0.540703 0.536671
O O5 0.500000 0.751379 0.250000
O O6 0.363039 0.818224 0.406685
O O7 0.385333 0.670783 0.406725
O O8 0.165342 0.729691 0.254609
O O9 0.984185 0.367586 0.625135
O O10 0.500000 0.401609 0.750000
#
# Coordination Sequence:
#
# PCOD9285775 Si02
#       5
#     8   8   4   8   8
#     4  10  23  40  68  96 132 175 214 284 327 399
#     4  11  25  45  70  99 134 180 229 275 330 402
#     4  12  24  44  74  92 138 186 218 282 332 398
#     4  11  24  45  66 100 134 176 227 272 338 397
#     4  10  21  42  66  97 133 176 217 272 340 397
#
# _framework density 21.945706000000001
#
# number of rings (size 3 to 8) (size 9 to 14) (size 15 to 20)
#    0.000    1.333    2.222    3.333    0.000    5.333 
#   10.000    0.000    0.000    0.000    0.000    0.000 
#    0.000    0.000    0.000    0.000    0.000    0.000 
#
# Total GULP energy -100423.930068 kJ/mol
# GULP energy per Si atom -5579.107226 kJ/mol
# Density = 2.189576 g / cm^3
# Si number density = 21.945706 Si / 1000 Ang^3
#
#
#
# Elastic Constant Matrix: (Units=GPa)
#
#
# Indices 1 2 3 4 5 6 
#
# 1 139.8118 49.1742 15.1790 0.0000 7.6412 0.0000
# 2 49.1742 141.2735 33.0404 0.0000 19.6155 0.0000
# 3 15.1790 33.0404 14.7381 0.0000 5.2967 0.0000
# 4 0.0000 0.0000 0.0000 29.9606 0.0000 -1.4868
# 5 7.6412 19.6155 5.2967 0.0000 27.5282 0.0000
# 6 0.0000 0.0000 0.0000 -1.4868 0.0000 29.1689
#
#
#
# Elastic Compliance Matrix: (Units=1/GPa)
#
#
# Indices 1 2 3 4 5 6 
#
# 1 0.008281 -0.001849 -0.004330 0.000000 -0.000148 0.000000
# 2 -0.001849 0.015830 -0.031922 0.000000 -0.004624 0.000000
# 3 -0.004330 -0.031922 0.145316 0.000000 -0.004012 0.000000
# 4 0.000000 0.000000 0.000000 0.033462 0.000000 0.001706
# 5 -0.000148 -0.004624 -0.004012 0.000000 0.040435 0.000000
# 6 0.000000 0.000000 0.000000 0.001706 0.000000 0.034370
#
#
# Mechanical properties :
#
#
# Convention : Reuss Voigt Hill
#
# Bulk Modulus (GPa) = 10.72667 54.51229 32.61948
# Shear Modulus (GPa) = 12.98799 30.56018 21.77408
#
# Velocity S-wave (km/s) = 2.43538 3.73572 3.15331
# Velocity P-wave (km/s) = 3.57862 6.59553 5.30601
#
# Compressibility (1/GPa) = 0.09322560
#
# Stress axis : x y z
#
# Youngs Moduli (GPa) = 120.75743 63.17132 6.88153
#
# Poissons Ratio (x) = 0.11682 0.02980
# Poissons Ratio (y) = 0.22331 0.21967
# Poissons Ratio (z) = 0.52287 2.01654
#
# Static dielectric constant tensor:
#      x y z
#    x 1.984450 0.000000 0.018360 
#    y 0.000000 1.808650 0.000000 
#    z 0.018360 0.000000 1.830960 
# 
# From -- ./inp_files/76370.got.cif
#   From: 2010.05.17/outbox.cif.g08.bks.cpg/sg15_39_cif.got.tgz:76370.got - 2010.06.03 18:47:42.
