data_PCOD9285675
_publ_section_title
;
Structure prediction by ZEFSAII (Michael W. Deem and Ramdas Pophale) SiO2 
 PCOD9285675
Probable space group: C 2/C
;
_chemical_formula_sum "Si O2"
_cell_formula_units_Z 52
_cell_length_a 11.132047
_cell_length_b 14.229333
_cell_length_c 19.816250
_cell_angle_alpha 90.000000
_cell_angle_beta 133.889187
_cell_angle_gamma 90.000000
_cell_volume 2262.167181
_symmetry_space_group_name_H-M "C 2/C"
_symmetry_group_IT_number 15
_symmetry_cell_setting 'monoclinic'
loop_
_space_group_symop_operation_xyz
x,y,z
-x,y,1/2-z
-x,-y,-z
x,-y,1/2+z
1/2+x,1/2+y,z
1/2-x,1/2+y,1/2-z
1/2-x,1/2-y,-z
1/2+x,1/2-y,1/2+z
loop_
_atom_site_type_symbol
_atom_site_label
_atom_site_fract_x
_atom_site_fract_y
_atom_site_fract_z
Si Si1 0.188133 0.734833 0.551451
Si Si2 0.182571 0.554693 0.943213
Si Si3 0.082174 0.756857 0.853111
Si Si4 0.057789 0.900136 0.591167
Si Si5 0.000000 0.736351 0.250000
Si Si6 0.125076 0.602054 0.065435
Si Si7 0.622496 0.061723 0.215504
O O1 0.250000 0.750000 0.500000
O O2 0.116289 0.833195 0.552892
O O3 0.346802 0.708496 0.659104
O O4 0.049526 0.655727 0.500789
O O5 0.132876 0.662836 0.911248
O O6 0.050872 0.495472 0.848237
O O7 0.381488 0.548328 0.009052
O O8 0.146002 0.536422 0.008198
O O9 0.243102 0.815583 0.896059
O O10 0.000000 0.731495 0.750000
O O11 0.977267 0.825594 0.861080
O O12 0.212732 0.963080 0.677334
O O13 0.072612 0.666258 0.220916
O O14 0.167103 0.558599 0.154072
#
# Coordination Sequence:
#
# PCOD9285675 Si02
#       7
#     8   8   8   8   4   8   8
#     4  11  20  39  65  91 123 170 221 270 321 383
#     4  11  23  39  64  98 130 165 219 276 333 396
#     4  11  20  37  67  97 124 164 224 272 322 392
#     4  10  21  42  65  95 129 171 223 273 328 401
#     4  10  24  38  60  86 128 168 214 254 324 398
#     4  11  20  40  64  93 123 167 219 272 326 394
#     4  11  23  40  61  95 134 173 207 268 347 394
#
# _framework density 22.986806999999999
#
# number of rings (size 3 to 8) (size 9 to 14) (size 15 to 20)
#    0.000    1.231    6.154    1.385    1.077    0.000 
#    0.000    6.154    0.000    0.000    0.000    0.000 
#    0.000    0.000    0.000    0.000    0.000    0.000 
#
# Total GULP energy -145472.264231 kJ/mol
# GULP energy per Si atom -5595.087086 kJ/mol
# Density = 2.293449 g / cm^3
# Si number density = 22.986807 Si / 1000 Ang^3
#
#
#
# Elastic Constant Matrix: (Units=GPa)
#
#
# Indices 1 2 3 4 5 6 
#
# 1 155.0723 24.0219 71.6125 0.0000 7.0563 0.0000
# 2 24.0219 41.8539 37.5703 0.0000 10.1404 0.0000
# 3 71.6125 37.5703 179.4404 0.0000 23.7390 0.0000
# 4 0.0000 0.0000 0.0000 38.6995 0.0000 3.8681
# 5 7.0563 10.1404 23.7390 0.0000 44.6398 0.0000
# 6 0.0000 0.0000 0.0000 3.8681 0.0000 13.8518
#
#
#
# Elastic Compliance Matrix: (Units=1/GPa)
#
#
# Indices 1 2 3 4 5 6 
#
# 1 0.008081 -0.002261 -0.002851 0.000000 0.000752 0.000000
# 2 -0.002261 0.030623 -0.004987 0.000000 -0.003947 0.000000
# 3 -0.002851 -0.004987 0.008117 0.000000 -0.002733 0.000000
# 4 0.000000 0.000000 0.000000 0.026582 0.000000 -0.007423
# 5 0.000752 -0.003947 -0.002733 0.000000 0.024632 0.000000
# 6 0.000000 0.000000 0.000000 -0.007423 0.000000 0.074265
#
#
# Mechanical properties :
#
#
# Convention : Reuss Voigt Hill
#
# Bulk Modulus (GPa) = 37.56285 71.41954 54.49119
# Shear Modulus (GPa) = 24.82935 35.64902 30.23919
#
# Velocity S-wave (km/s) = 3.29014 3.94235 3.63092
# Velocity P-wave (km/s) = 5.55066 7.20140 6.42923
#
# Compressibility (1/GPa) = 0.02662205
#
# Stress axis : x y z
#
# Youngs Moduli (GPa) = 123.74153 32.65468 123.20547
#
# Poissons Ratio (x) = 0.07384 0.35130
# Poissons Ratio (y) = 0.27979 0.61446
# Poissons Ratio (z) = 0.35282 0.16286
#
# Static dielectric constant tensor:
#      x y z
#    x 1.905650 0.000000 -0.037890 
#    y 0.000000 1.826080 0.000000 
#    z -0.037890 0.000000 1.929980 
# 
# From -- ./inp_files/239866.got.cif
#   From: 2010.05.17/outbox.cif.g08.bks.cpg/sg15_120_cif.got.tgz:239866.got - 2010.06.03 18:47:42.
