data_PCOD9285107
_publ_section_title
;
Structure prediction by ZEFSAII (Michael W. Deem and Ramdas Pophale) SiO2 
 PCOD9285107
Probable space group: C 2/C
;
_chemical_formula_sum "Si O2"
_cell_formula_units_Z 44
_cell_length_a 10.866273
_cell_length_b 11.965270
_cell_length_c 18.115547
_cell_angle_alpha 90.000000
_cell_angle_beta 72.240905
_cell_angle_gamma 90.000000
_cell_volume 2243.106867
_symmetry_space_group_name_H-M "C 2/C"
_symmetry_group_IT_number 15
_symmetry_cell_setting 'monoclinic'
loop_
_space_group_symop_operation_xyz
x,y,z
-x,y,1/2-z
-x,-y,-z
x,-y,1/2+z
1/2+x,1/2+y,z
1/2-x,1/2+y,1/2-z
1/2-x,1/2-y,-z
1/2+x,1/2-y,1/2+z
loop_
_atom_site_type_symbol
_atom_site_label
_atom_site_fract_x
_atom_site_fract_y
_atom_site_fract_z
Si Si1 0.541264 0.964153 0.893804
Si Si2 0.782114 0.148473 0.439177
Si Si3 0.008734 0.294433 0.333435
Si Si4 0.752485 0.745255 0.371443
Si Si5 0.746281 0.080236 0.999358
Si Si6 0.000000 0.349673 0.750000
O O1 0.661387 0.904886 0.914488
O O2 0.408462 0.925877 0.957413
O O3 0.554518 0.922088 0.807403
O O4 0.512089 0.096726 0.886668
O O5 0.750000 0.250000 0.500000
O O6 0.897377 0.203384 0.370639
O O7 0.814066 0.039561 0.482523
O O8 0.147959 0.244704 0.326417
O O9 0.000000 0.328937 0.250000
O O10 0.765569 0.856271 0.418602
O O11 0.708184 0.653783 0.440029
O O12 0.888308 0.720178 0.309278
#
# Coordination Sequence:
#
# PCOD9285107 Si02
#       6
#     8   8   8   8   8   4
#     4  11  21  41  67  92 131 175 221 264 325 402
#     4  12  23  38  67 102 124 167 225 270 325 389
#     4  12  24  41  65  98 133 172 218 273 330 398
#     4  10  22  42  65  92 129 169 220 269 331 392
#     4  10  21  41  67  93 128 174 215 274 327 386
#     4  10  22  42  66  88 124 184 210 256 338 396
#
# _framework density 19.615651
#
# number of rings (size 3 to 8) (size 9 to 14) (size 15 to 20)
#    0.000    1.091    4.545    2.727    0.000    0.727 
#    1.636    0.000    0.000    0.000    0.000    0.000 
#    0.000    0.000    0.000    0.000    0.000    0.000 
#
# Total GULP energy -122542.439724 kJ/mol
# GULP energy per Si atom -5570.110897 kJ/mol
# Density = 1.957100 g / cm^3
# Si number density = 19.615651 Si / 1000 Ang^3
#
#
#
# Elastic Constant Matrix: (Units=GPa)
#
#
# Indices 1 2 3 4 5 6 
#
# 1 65.3776 25.8888 8.0431 0.0000 20.8679 0.0000
# 2 25.8888 135.1657 34.9065 0.0000 1.2936 0.0000
# 3 8.0431 34.9065 83.7326 0.0000 7.5906 0.0000
# 4 0.0000 0.0000 0.0000 39.2768 0.0000 -1.6613
# 5 20.8679 1.2936 7.5906 0.0000 34.5119 0.0000
# 6 0.0000 0.0000 0.0000 -1.6613 0.0000 20.5971
#
#
#
# Elastic Compliance Matrix: (Units=1/GPa)
#
#
# Indices 1 2 3 4 5 6 
#
# 1 0.020845 -0.004091 0.000849 0.000000 -0.012637 0.000000
# 2 -0.004091 0.009101 -0.003667 0.000000 0.002939 0.000000
# 3 0.000849 -0.003667 0.013697 0.000000 -0.003388 0.000000
# 4 0.000000 0.000000 0.000000 0.025547 0.000000 0.002061
# 5 -0.012637 0.002939 -0.003388 0.000000 0.037252 0.000000
# 6 0.000000 0.000000 0.000000 0.002061 0.000000 0.048717
#
#
# Mechanical properties :
#
#
# Convention : Reuss Voigt Hill
#
# Bulk Modulus (GPa) = 33.52999 46.88365 40.20682
# Shear Modulus (GPa) = 27.94551 33.23966 30.59258
#
# Velocity S-wave (km/s) = 3.77855 4.12095 3.95346
# Velocity P-wave (km/s) = 6.01392 6.82613 6.43286
#
# Compressibility (1/GPa) = 0.02982405
#
# Stress axis : x y z
#
# Youngs Moduli (GPa) = 47.97316 109.88003 73.00709
#
# Poissons Ratio (x) = 0.44949 -0.06196
# Poissons Ratio (y) = 0.19625 0.26775
# Poissons Ratio (z) = -0.04071 0.40298
#
# Static dielectric constant tensor:
#      x y z
#    x 1.739120 0.000000 0.033890 
#    y 0.000000 1.742250 0.000000 
#    z 0.033890 0.000000 1.690350 
# 
# From -- ./inp_files/196439.got.cif
#   From: 2010.05.17/outbox.cif.g08.bks.cpg/sg15_99_cif.got.tgz:196439.got - 2010.06.03 18:47:42.
