data_PCOD9285363
_publ_section_title
;
Structure prediction by ZEFSAII (Michael W. Deem and Ramdas Pophale) SiO2 
 PCOD9285363
Probable space group: C 2/C
;
_chemical_formula_sum "Si O2"
_cell_formula_units_Z 48
_cell_length_a 29.667867
_cell_length_b 4.856919
_cell_length_c 14.361999
_cell_angle_alpha 90.000000
_cell_angle_beta 79.516308
_cell_angle_gamma 90.000000
_cell_volume 2034.937575
_symmetry_space_group_name_H-M "C 2/C"
_symmetry_group_IT_number 15
_symmetry_cell_setting 'monoclinic'
loop_
_space_group_symop_operation_xyz
x,y,z
-x,y,1/2-z
-x,-y,-z
x,-y,1/2+z
1/2+x,1/2+y,z
1/2-x,1/2+y,1/2-z
1/2-x,1/2-y,-z
1/2+x,1/2-y,1/2+z
loop_
_atom_site_type_symbol
_atom_site_label
_atom_site_fract_x
_atom_site_fract_y
_atom_site_fract_z
Si Si1 0.750000 0.250000 0.500000
Si Si2 0.000000 0.939433 0.750000
Si Si3 0.151303 0.619816 0.378351
Si Si4 0.907291 0.207469 0.820455
Si Si5 0.726563 0.946795 0.215565
Si Si6 0.668303 0.637149 0.495087
Si Si7 0.416890 0.217169 0.699075
O O1 0.821681 0.563013 0.553162
O O2 0.711991 0.499536 0.524510
O O3 0.028625 0.768293 0.816003
O O4 0.039838 0.115113 0.685184
O O5 0.180076 0.577166 0.273207
O O6 0.152115 0.920153 0.421738
O O7 0.104181 0.452219 0.378383
O O8 0.907469 0.523019 0.791320
O O9 0.872825 0.159418 0.916274
O O10 0.895499 0.012296 0.735159
O O11 0.765047 0.161653 0.234001
O O12 0.731944 0.886042 0.106254
#
# Coordination Sequence:
#
# PCOD9285363 Si02
#       7
#     4   4   8   8   8   8   8
#     4  12  26  46  74 100 144 194 234 290 356 406
#     4   8  22  40  70 100 126 178 240 282 352 442
#     4  12  24  45  63 103 142 179 231 299 345 414
#     4  10  21  42  68  99 129 178 237 276 348 433
#     4  12  25  46  67 101 142 183 238 296 342 418
#     4  12  26  42  68 103 141 183 237 286 355 419
#     4  10  21  41  71  92 134 175 228 286 350 418
#
# _framework density 23.587949999999999
#
# number of rings (size 3 to 8) (size 9 to 14) (size 15 to 20)
#    1.000    0.000    3.333    3.500    0.000    4.000 
#    0.000    1.667    0.000    0.000    0.000    0.000 
#    0.000    0.000    0.000    0.000    0.000    0.000 
#
# Total GULP energy -133662.644845 kJ/mol
# GULP energy per Si atom -5569.276869 kJ/mol
# Density = 2.353426 g / cm^3
# Si number density = 23.587950 Si / 1000 Ang^3
#
#
#
# Elastic Constant Matrix: (Units=GPa)
#
#
# Indices 1 2 3 4 5 6 
#
# 1 75.9791 -7.3298 16.8716 0.0000 -17.1313 0.0000
# 2 -7.3298 95.3447 14.8730 0.0000 -3.2991 0.0000
# 3 16.8716 14.8730 89.8037 0.0000 -10.8811 0.0000
# 4 0.0000 0.0000 0.0000 30.5683 0.0000 4.3470
# 5 -17.1313 -3.2991 -10.8811 0.0000 30.6430 0.0000
# 6 0.0000 0.0000 0.0000 4.3470 0.0000 8.7377
#
#
#
# Elastic Compliance Matrix: (Units=1/GPa)
#
#
# Indices 1 2 3 4 5 6 
#
# 1 0.015682 0.001841 -0.002262 0.000000 0.008162 0.000000
# 2 0.001841 0.010991 -0.001983 0.000000 0.001508 0.000000
# 3 -0.002262 -0.001983 0.012236 0.000000 0.002867 0.000000
# 4 0.000000 0.000000 0.000000 0.035204 0.000000 -0.017514
# 5 0.008162 0.001508 0.002867 0.000000 0.038377 0.000000
# 6 0.000000 0.000000 0.000000 -0.017514 0.000000 0.123160
#
#
# Mechanical properties :
#
#
# Convention : Reuss Voigt Hill
#
# Bulk Modulus (GPa) = 29.32558 34.43968 31.88263
# Shear Modulus (GPa) = 19.85491 29.77063 24.81277
#
# Velocity S-wave (km/s) = 2.90442 3.55648 3.24686
# Velocity P-wave (km/s) = 4.86898 5.61221 5.25376
#
# Compressibility (1/GPa) = 0.03409992
#
# Stress axis : x y z
#
# Youngs Moduli (GPa) = 63.76854 90.98049 81.72454
#
# Poissons Ratio (x) = -0.16748 0.18487
# Poissons Ratio (y) = -0.11739 0.16210
# Poissons Ratio (z) = 0.14425 0.18046
#
# Static dielectric constant tensor:
#      x y z
#    x 2.066800 0.000000 0.110960 
#    y 0.000000 1.814700 0.000000 
#    z 0.110960 0.000000 1.881740 
# 
# From -- ./inp_files/220657.got.cif
#   From: 2010.05.17/outbox.cif.g08.bks.cpg/sg15_111_cif.got.tgz:220657.got - 2010.06.03 18:47:42.
