data_PCOD9285424
_publ_section_title
;
Structure prediction by ZEFSAII (Michael W. Deem and Ramdas Pophale) SiO2 
 PCOD9285424
Probable space group: C 2/C
;
_chemical_formula_sum "Si O2"
_cell_formula_units_Z 64
_cell_length_a 8.832223
_cell_length_b 12.236925
_cell_length_c 25.529380
_cell_angle_alpha 90.000000
_cell_angle_beta 75.078382
_cell_angle_gamma 90.000000
_cell_volume 2666.153378
_symmetry_space_group_name_H-M "C 2/C"
_symmetry_group_IT_number 15
_symmetry_cell_setting 'monoclinic'
loop_
_space_group_symop_operation_xyz
x,y,z
-x,y,1/2-z
-x,-y,-z
x,-y,1/2+z
1/2+x,1/2+y,z
1/2-x,1/2+y,1/2-z
1/2-x,1/2-y,-z
1/2+x,1/2-y,1/2+z
loop_
_atom_site_type_symbol
_atom_site_label
_atom_site_fract_x
_atom_site_fract_y
_atom_site_fract_z
Si Si1 0.613780 0.117652 0.459927
Si Si2 0.529281 0.011909 0.623440
Si Si3 0.756095 0.153197 0.833818
Si Si4 0.560791 0.534424 0.824535
Si Si5 0.650592 0.220572 0.957119
Si Si6 0.536051 0.563771 0.061322
Si Si7 0.832375 0.138818 0.584787
Si Si8 0.166884 0.611925 0.207023
O O1 0.471121 0.128118 0.513116
O O2 0.779000 0.071045 0.464886
O O3 0.645613 0.243026 0.440340
O O4 0.554122 0.057434 0.413610
O O5 0.396518 0.081768 0.664376
O O6 0.658157 0.096494 0.591442
O O7 0.626684 0.931753 0.652326
O O8 0.746104 0.178972 0.897859
O O9 0.764566 0.267012 0.802933
O O10 0.914545 0.087378 0.809351
O O11 0.488853 0.448104 0.873253
O O12 0.634617 0.628759 0.855756
O O13 0.701233 0.471318 0.783808
O O14 0.556212 0.328280 0.947600
O O15 0.750000 0.250000 0.000000
O O16 0.546920 0.549069 0.949148
O O17 0.000000 0.611719 0.250000
#
# Coordination Sequence:
#
# PCOD9285424 Si02
#       8
#     8   8   8   8   8   8   8   8
#     4  12  23  39  64  95 133 183 224 271 308 381
#     4  11  23  41  68  98 128 172 226 264 330 400
#     4  12  23  45  69  95 134 179 211 272 337 390
#     4   9  20  43  66  88 131 165 209 267 326 385
#     4  12  24  39  65  99 139 182 237 267 322 391
#     4  10  21  42  58  93 131 175 225 276 314 376
#     4   9  20  37  61  87 124 174 211 263 319 364
#     4  11  25  46  72 100 128 161 214 280 344 409
#
# _framework density 24.004621
#
# number of rings (size 3 to 8) (size 9 to 14) (size 15 to 20)
#    0.750    0.500    2.500    4.125    0.000    2.000 
#    2.250    1.250    0.000    0.000    0.000    0.000 
#    0.000    0.000    0.000    0.000    0.000    0.000 
#
# Total GULP energy -179275.668317 kJ/mol
# GULP energy per Si atom -5602.364635 kJ/mol
# Density = 2.394999 g / cm^3
# Si number density = 24.004621 Si / 1000 Ang^3
#
#
#
# Elastic Constant Matrix: (Units=GPa)
#
#
# Indices 1 2 3 4 5 6 
#
# 1 163.5028 58.5793 21.6397 0.0000 -20.6672 0.0000
# 2 58.5793 110.6120 20.5568 0.0000 -12.4328 0.0000
# 3 21.6397 20.5568 66.4991 0.0000 -30.4259 0.0000
# 4 0.0000 0.0000 0.0000 9.9437 0.0000 -15.0710
# 5 -20.6672 -12.4328 -30.4259 0.0000 46.9924 0.0000
# 6 0.0000 0.0000 0.0000 -15.0710 0.0000 44.1986
#
#
#
# Elastic Compliance Matrix: (Units=1/GPa)
#
#
# Indices 1 2 3 4 5 6 
#
# 1 0.007810 -0.003824 -0.000356 0.000000 0.002193 0.000000
# 2 -0.003824 0.011489 -0.002396 0.000000 -0.000193 0.000000
# 3 -0.000356 -0.002396 0.022071 0.000000 0.013500 0.000000
# 4 0.000000 0.000000 0.000000 0.208130 0.000000 0.070969
# 5 0.002193 -0.000193 0.013500 0.000000 0.030934 0.000000
# 6 0.000000 0.000000 0.000000 0.070969 0.000000 0.046824
#
#
# Mechanical properties :
#
#
# Convention : Reuss Voigt Hill
#
# Bulk Modulus (GPa) = 35.43719 60.24061 47.83890
# Shear Modulus (GPa) = 14.29321 36.21613 25.25467
#
# Velocity S-wave (km/s) = 2.44280 3.88843 3.24709
# Velocity P-wave (km/s) = 4.76981 6.73125 5.83356
#
# Compressibility (1/GPa) = 0.02821894
#
# Stress axis : x y z
#
# Youngs Moduli (GPa) = 128.03545 87.03907 45.30852
#
# Poissons Ratio (x) = 0.33280 0.01615
# Poissons Ratio (y) = 0.48956 0.10855
# Poissons Ratio (z) = 0.04563 0.20852
#
# Static dielectric constant tensor:
#      x y z
#    x 1.890130 0.000000 0.001510 
#    y 0.000000 1.884150 0.000000 
#    z 0.001510 0.000000 2.014390 
# 
# From -- ./inp_files/288697.got.cif
#   From: 2010.05.17/outbox.cif.g08.bks.cpg/sg15_145_cif.got.tgz:288697.got - 2010.06.03 18:47:42.
