data_PCOD9285127
_publ_section_title
;
Structure prediction by ZEFSAII (Michael W. Deem and Ramdas Pophale) SiO2 
 PCOD9285127
Probable space group: C 2/C
;
_chemical_formula_sum "Si O2"
_cell_formula_units_Z 56
_cell_length_a 17.161069
_cell_length_b 12.476654
_cell_length_c 17.758270
_cell_angle_alpha 90.000000
_cell_angle_beta 48.902448
_cell_angle_gamma 90.000000
_cell_volume 2865.359398
_symmetry_space_group_name_H-M "C 2/C"
_symmetry_group_IT_number 15
_symmetry_cell_setting 'monoclinic'
loop_
_space_group_symop_operation_xyz
x,y,z
-x,y,1/2-z
-x,-y,-z
x,-y,1/2+z
1/2+x,1/2+y,z
1/2-x,1/2+y,1/2-z
1/2-x,1/2-y,-z
1/2+x,1/2-y,1/2+z
loop_
_atom_site_type_symbol
_atom_site_label
_atom_site_fract_x
_atom_site_fract_y
_atom_site_fract_z
Si Si1 0.607605 0.342151 0.069690
Si Si2 0.583175 0.199106 0.827348
Si Si3 0.688257 0.607586 0.220037
Si Si4 0.153899 0.389620 0.581229
Si Si5 0.117900 0.464068 0.434012
Si Si6 0.500000 0.501676 0.250000
Si Si7 0.500000 0.949183 0.250000
Si Si8 0.446300 0.389329 0.558981
O O1 0.612661 0.232001 0.113060
O O2 0.539969 0.427817 0.156847
O O3 0.723736 0.385487 0.986160
O O4 0.568867 0.327628 0.009541
O O5 0.675088 0.264266 0.727770
O O6 0.631101 0.128512 0.863486
O O7 0.513868 0.296080 0.908305
O O8 0.523048 0.125174 0.807225
O O9 0.798268 0.557278 0.132561
O O10 0.598667 0.565140 0.220384
O O11 0.654671 0.578280 0.327534
O O12 0.134045 0.422768 0.507800
O O13 0.095860 0.472571 0.671521
O O14 0.000000 0.500000 0.500000
O O15 0.500000 0.500000 0.500000
#
# Coordination Sequence:
#
# PCOD9285127 Si02
#       8
#     8   8   8   8   8   4   4   8
#     4  11  22  40  63 100 129 175 221 280 322 394
#     4  10  24  43  65  94 137 164 222 278 322 406
#     4  10  24  42  65 100 127 176 213 279 330 394
#     4  11  24  40  65  93 134 173 226 269 332 390
#     4  12  23  47  66  94 136 177 219 274 333 402
#     4  12  20  40  70  90 138 162 224 274 328 386
#     4  12  24  44  66  98 134 178 220 280 336 400
#     4  10  21  41  67  94 132 169 217 271 336 396
#
# _framework density 19.543794999999999
#
# number of rings (size 3 to 8) (size 9 to 14) (size 15 to 20)
#    0.857    0.286    5.714    0.857    2.000    0.000 
#    5.143    2.143    0.000    0.000    0.000    0.000 
#    0.000    0.000    0.000    0.000    0.000    0.000 
#
# Total GULP energy -155997.320589 kJ/mol
# GULP energy per Si atom -5571.332878 kJ/mol
# Density = 1.949931 g / cm^3
# Si number density = 19.543795 Si / 1000 Ang^3
#
#
#
# Elastic Constant Matrix: (Units=GPa)
#
#
# Indices 1 2 3 4 5 6 
#
# 1 42.0320 31.6708 26.1887 0.0000 -1.1022 0.0000
# 2 31.6708 102.9583 38.2645 0.0000 -16.1652 0.0000
# 3 26.1887 38.2645 63.4005 0.0000 0.0358 0.0000
# 4 0.0000 0.0000 0.0000 37.4267 0.0000 10.1880
# 5 -1.1022 -16.1652 0.0358 0.0000 33.8960 0.0000
# 6 0.0000 0.0000 0.0000 10.1880 0.0000 31.2571
#
#
#
# Elastic Compliance Matrix: (Units=1/GPa)
#
#
# Indices 1 2 3 4 5 6 
#
# 1 0.035818 -0.007613 -0.010199 0.000000 -0.002455 0.000000
# 2 -0.007613 0.015481 -0.006203 0.000000 0.007142 0.000000
# 3 -0.010199 -0.006203 0.023731 0.000000 -0.003315 0.000000
# 4 0.000000 0.000000 0.000000 0.029320 0.000000 -0.009557
# 5 -0.002455 0.007142 -0.003315 0.000000 0.032832 0.000000
# 6 0.000000 0.000000 0.000000 -0.009557 0.000000 0.035108
#
#
# Mechanical properties :
#
#
# Convention : Reuss Voigt Hill
#
# Bulk Modulus (GPa) = 37.03629 44.51539 40.77584
# Shear Modulus (GPa) = 21.80360 28.00042 24.90201
#
# Velocity S-wave (km/s) = 3.34372 3.78921 3.57342
# Velocity P-wave (km/s) = 5.82227 6.47849 6.15913
#
# Compressibility (1/GPa) = 0.02700055
#
# Stress axis : x y z
#
# Youngs Moduli (GPa) = 27.91890 64.59519 42.13859
#
# Poissons Ratio (x) = 0.49175 0.42978
# Poissons Ratio (y) = 0.21254 0.26138
# Poissons Ratio (z) = 0.28475 0.40067
#
# Static dielectric constant tensor:
#      x y z
#    x 1.599300 0.000000 0.019140 
#    y 0.000000 1.725210 0.000000 
#    z 0.019140 0.000000 1.691080 
# 
# From -- ./inp_files/210581.got.cif
#   From: 2010.05.17/outbox.cif.g08.bks.cpg/sg15_106_cif.got.tgz:210581.got - 2010.06.03 18:47:42.
