data_PCOD9285606
_publ_section_title
;
Structure prediction by ZEFSAII (Michael W. Deem and Ramdas Pophale) SiO2 
 PCOD9285606
Probable space group: C 2/C
;
_chemical_formula_sum "Si O2"
_cell_formula_units_Z 40
_cell_length_a 21.031901
_cell_length_b 5.945040
_cell_length_c 19.697715
_cell_angle_alpha 90.000000
_cell_angle_beta 40.405566
_cell_angle_gamma 90.000000
_cell_volume 1596.445452
_symmetry_space_group_name_H-M "C 2/C"
_symmetry_group_IT_number 15
_symmetry_cell_setting 'monoclinic'
loop_
_space_group_symop_operation_xyz
x,y,z
-x,y,1/2-z
-x,-y,-z
x,-y,1/2+z
1/2+x,1/2+y,z
1/2-x,1/2+y,1/2-z
1/2-x,1/2-y,-z
1/2+x,1/2-y,1/2+z
loop_
_atom_site_type_symbol
_atom_site_label
_atom_site_fract_x
_atom_site_fract_y
_atom_site_fract_z
Si Si1 0.412532 0.563239 0.742238
Si Si2 0.261208 0.854559 0.916847
Si Si3 0.118382 0.159834 0.094336
Si Si4 0.396206 0.015345 0.499439
Si Si5 0.429941 0.686955 0.588616
O O1 0.370171 0.801811 0.803336
O O2 0.375462 0.387662 0.830108
O O3 0.528470 0.508628 0.647019
O O4 0.375957 0.559949 0.694350
O O5 0.187546 0.704996 0.931209
O O6 0.250000 0.750000 0.000000
O O7 0.213369 0.091298 0.973091
O O8 0.094588 0.401710 0.082449
O O9 0.377067 0.822562 0.571675
O O10 0.499744 0.128349 0.433213
O O11 0.500000 0.500000 0.500000
#
# Coordination Sequence:
#
# PCOD9285606 Si02
#       5
#     8   8   8   8   8
#     4  10  21  42  64  95 129 178 220 288 342 415
#     4  10  22  42  65  96 135 171 225 285 345 400
#     4  10  21  44  65  96 135 167 232 285 340 413
#     4  11  22  42  66  93 132 184 216 286 341 400
#     4  11  22  44  66  92 137 178 224 275 349 414
#
# _framework density 25.055662999999999
#
# number of rings (size 3 to 8) (size 9 to 14) (size 15 to 20)
#    0.000    1.600    4.000    0.000    0.000    3.200 
#   25.200    0.000    0.000    0.000    0.000    0.000 
#    0.000    0.000    0.000    0.000    0.000    0.000 
#
# Total GULP energy -111554.082624 kJ/mol
# GULP energy per Si atom -5577.704131 kJ/mol
# Density = 2.499864 g / cm^3
# Si number density = 25.055663 Si / 1000 Ang^3
#
#
#
# Elastic Constant Matrix: (Units=GPa)
#
#
# Indices 1 2 3 4 5 6 
#
# 1 81.5686 33.8774 28.2188 -0.0157 30.4828 0.0125
# 2 33.8774 74.6548 35.4396 -0.0252 13.6164 -0.0051
# 3 28.2188 35.4396 131.9039 -0.0070 17.2949 0.0116
# 4 -0.0157 -0.0252 -0.0070 40.2082 0.0119 0.3942
# 5 30.4828 13.6164 17.2949 0.0119 53.4217 -0.0206
# 6 0.0125 -0.0051 0.0116 0.3942 -0.0206 68.3983
#
#
#
# Elastic Compliance Matrix: (Units=1/GPa)
#
#
# Indices 1 2 3 4 5 6 
#
# 1 0.018461 -0.006273 -0.001141 0.000006 -0.008566 -0.000006
# 2 -0.006273 0.017865 -0.003478 0.000008 0.000152 0.000003
# 3 -0.001141 -0.003478 0.008938 -0.000001 -0.001356 -0.000002
# 4 0.000006 0.000008 -0.000001 0.024872 -0.000011 -0.000143
# 5 -0.008566 0.000152 -0.001356 -0.000011 0.024007 0.000009
# 6 -0.000006 0.000003 -0.000002 -0.000143 0.000009 0.014621
#
#
# Mechanical properties :
#
#
# Convention : Reuss Voigt Hill
#
# Bulk Modulus (GPa) = 42.59058 53.68877 48.13967
# Shear Modulus (GPa) = 36.13407 45.11175 40.62291
#
# Velocity S-wave (km/s) = 3.80169 4.24779 4.03091
# Velocity P-wave (km/s) = 6.02542 6.74778 6.39681
#
# Compressibility (1/GPa) = 0.02347937
#
# Stress axis : x y z
#
# Youngs Moduli (GPa) = 54.16887 55.97538 111.88769
#
# Poissons Ratio (x) = 0.35116 0.12764
# Poissons Ratio (y) = 0.33983 0.38912
# Poissons Ratio (z) = 0.06179 0.19467
#
# Static dielectric constant tensor:
#      x y z
#    x 2.065540 -0.000010 -0.031500 
#    y -0.000010 2.066870 0.000000 
#    z -0.031500 0.000000 2.026920 
# 
# From -- ./inp_files/170921.got.cif
#   From: 2010.05.17/outbox.cif.g08.bks.cpg/sg15_86_cif.got.tgz:170921.got - 2010.06.03 18:47:42.
