data_PCOD9285524
_publ_section_title
;
Structure prediction by ZEFSAII (Michael W. Deem and Ramdas Pophale) SiO2 
 PCOD9285524
Probable space group: C 2/C
;
_chemical_formula_sum "Si O2"
_cell_formula_units_Z 52
_cell_length_a 10.503875
_cell_length_b 11.608014
_cell_length_c 21.598051
_cell_angle_alpha 90.000000
_cell_angle_beta 112.704984
_cell_angle_gamma 90.000000
_cell_volume 2429.352478
_symmetry_space_group_name_H-M "C 2/C"
_symmetry_group_IT_number 15
_symmetry_cell_setting 'monoclinic'
loop_
_space_group_symop_operation_xyz
x,y,z
-x,y,1/2-z
-x,-y,-z
x,-y,1/2+z
1/2+x,1/2+y,z
1/2-x,1/2+y,1/2-z
1/2-x,1/2-y,-z
1/2+x,1/2-y,1/2+z
loop_
_atom_site_type_symbol
_atom_site_label
_atom_site_fract_x
_atom_site_fract_y
_atom_site_fract_z
Si Si1 0.445866 0.373382 0.299745
Si Si2 0.130162 0.057982 0.944774
Si Si3 0.285630 0.981343 0.808502
Si Si4 0.728048 0.234662 0.849997
Si Si5 0.000000 0.564293 0.750000
Si Si6 0.085437 0.601379 0.548630
Si Si7 0.411919 0.675758 0.997119
O O1 0.500000 0.305623 0.250000
O O2 0.562960 0.425772 0.364903
O O3 0.346293 0.467481 0.251111
O O4 0.351585 0.302297 0.327585
O O5 0.280170 0.115852 0.969892
O O6 0.028014 0.117966 0.974375
O O7 0.134350 0.923862 0.964524
O O8 0.226536 0.868542 0.831968
O O9 0.405145 0.985716 0.777490
O O10 0.354502 0.059697 0.874678
O O11 0.599962 0.152028 0.807737
O O12 0.784160 0.211740 0.929480
O O13 0.000000 0.500000 0.500000
O O14 0.989930 0.712858 0.537932
#
# Coordination Sequence:
#
# PCOD9285524 Si02
#       7
#     8   8   8   8   4   8   8
#     4  10  21  42  63  92 123 163 220 261 321 390
#     4  10  23  43  67  91 131 174 216 272 320 396
#     4  11  24  43  65  96 128 171 215 269 335 388
#     4  10  23  41  65  92 131 170 214 271 326 386
#     4  10  26  44  64  98 134 172 224 274 324 402
#     4  12  24  39  63  98 128 164 216 268 326 388
#     4  10  23  43  65  97 127 174 220 266 331 386
#
# _framework density 21.404879999999999
#
# number of rings (size 3 to 8) (size 9 to 14) (size 15 to 20)
#    0.000    1.538    3.077    0.462    4.308    4.308 
#    0.000    0.000    0.000    0.000    0.000    0.000 
#    0.000    0.000    0.000    0.000    0.000    0.000 
#
# Total GULP energy -145135.198370 kJ/mol
# GULP energy per Si atom -5582.123014 kJ/mol
# Density = 2.135616 g / cm^3
# Si number density = 21.404880 Si / 1000 Ang^3
#
#
#
# Elastic Constant Matrix: (Units=GPa)
#
#
# Indices 1 2 3 4 5 6 
#
# 1 87.0581 -13.1189 -0.5648 0.0000 3.0154 0.0000
# 2 -13.1189 65.3336 3.9642 0.0000 5.9623 0.0000
# 3 -0.5648 3.9642 82.4330 0.0000 13.0639 0.0000
# 4 0.0000 0.0000 0.0000 17.6490 0.0000 -0.2020
# 5 3.0154 5.9623 13.0639 0.0000 36.5229 0.0000
# 6 0.0000 0.0000 0.0000 -0.2020 0.0000 27.0772
#
#
#
# Elastic Compliance Matrix: (Units=1/GPa)
#
#
# Indices 1 2 3 4 5 6 
#
# 1 0.011917 0.002515 0.000193 0.000000 -0.001463 0.000000
# 2 0.002515 0.016079 -0.000326 0.000000 -0.002716 0.000000
# 3 0.000193 -0.000326 0.012872 0.000000 -0.004567 0.000000
# 4 0.000000 0.000000 0.000000 0.056665 0.000000 0.000423
# 5 -0.001463 -0.002716 -0.004567 0.000000 0.029578 0.000000
# 6 0.000000 0.000000 0.000000 0.000423 0.000000 0.036935
#
#
# Mechanical properties :
#
#
# Convention : Reuss Voigt Hill
#
# Bulk Modulus (GPa) = 21.91456 23.93177 22.92317
# Shear Modulus (GPa) = 28.65458 32.55278 30.60368
#
# Velocity S-wave (km/s) = 3.66279 3.90399 3.78531
# Velocity P-wave (km/s) = 5.30550 5.61483 5.46235
#
# Compressibility (1/GPa) = 0.04563175
#
# Stress axis : x y z
#
# Youngs Moduli (GPa) = 83.91034 62.19430 77.68927
#
# Poissons Ratio (x) = -0.15641 -0.01496
# Poissons Ratio (y) = -0.21102 0.02529
# Poissons Ratio (z) = -0.01616 0.02025
#
# Static dielectric constant tensor:
#      x y z
#    x 1.823090 0.000000 -0.034670 
#    y 0.000000 1.463110 0.000000 
#    z -0.034670 0.000000 1.742100 
# 
# From -- ./inp_files/237700.got.cif
#   From: 2010.05.17/outbox.cif.g08.bks.cpg/sg15_119_cif.got.tgz:237700.got - 2010.06.03 18:47:42.
