data_PCOD9285096
_publ_section_title
;
Structure prediction by ZEFSAII (Michael W. Deem and Ramdas Pophale) SiO2 
 PCOD9285096
Probable space group: C 2/C
;
_chemical_formula_sum "Si O2"
_cell_formula_units_Z 56
_cell_length_a 28.183041
_cell_length_b 17.809140
_cell_length_c 11.127211
_cell_angle_alpha 90.000000
_cell_angle_beta 31.650725
_cell_angle_gamma 90.000000
_cell_volume 2930.630653
_symmetry_space_group_name_H-M "C 2/C"
_symmetry_group_IT_number 15
_symmetry_cell_setting 'monoclinic'
loop_
_space_group_symop_operation_xyz
x,y,z
-x,y,1/2-z
-x,-y,-z
x,-y,1/2+z
1/2+x,1/2+y,z
1/2-x,1/2+y,1/2-z
1/2-x,1/2-y,-z
1/2+x,1/2-y,1/2+z
loop_
_atom_site_type_symbol
_atom_site_label
_atom_site_fract_x
_atom_site_fract_y
_atom_site_fract_z
Si Si1 0.500000 0.993905 0.750000
Si Si2 0.633265 0.188363 0.814178
Si Si3 0.643637 0.371098 0.428863
Si Si4 0.000000 0.254614 0.250000
Si Si5 0.553570 0.514653 0.510656
Si Si6 0.157811 0.146952 0.174807
Si Si7 0.859016 0.372657 0.956202
Si Si8 0.489787 0.122053 0.967303
O O1 0.519964 0.048545 0.593338
O O2 0.413135 0.944866 0.894228
O O3 0.734672 0.161826 0.563276
O O4 0.617926 0.271940 0.797089
O O5 0.621537 0.189230 0.983246
O O6 0.567453 0.125663 0.900540
O O7 0.586122 0.295906 0.528686
O O8 0.601752 0.437181 0.441564
O O9 0.628936 0.378935 0.603904
O O10 0.751076 0.374076 0.179621
O O11 0.018809 0.310699 0.317928
O O12 0.500000 0.533806 0.750000
O O13 0.500000 0.500000 0.500000
O O14 0.624268 0.581707 0.334110
O O15 0.900471 0.360541 0.735896
#
# Coordination Sequence:
#
# PCOD9285096 Si02
#       8
#     4   8   8   4   8   8   8   8
#     4  11  24  40  62  93 130 172 204 269 336 388
#     4  10  21  41  67  91 127 172 209 269 327 378
#     4  11  23  43  66  90 134 175 209 275 334 385
#     4  11  22  44  66  83 128 176 210 263 338 392
#     4  12  24  43  66  98 130 179 223 272 338 385
#     4  10  22  41  65  94 129 170 222 262 324 403
#     4  11  24  40  64  98 129 163 222 275 319 394
#     4  11  23  40  65  92 125 169 216 263 331 386
#
# _framework density 19.108516000000002
#
# number of rings (size 3 to 8) (size 9 to 14) (size 15 to 20)
#    0.000    1.143    5.000    0.429    2.000    2.857 
#    0.000    0.000    0.000    0.000    0.000    0.000 
#    0.000    0.000    0.000    0.000    0.000    0.000 
#
# Total GULP energy -156051.552170 kJ/mol
# GULP energy per Si atom -5573.269720 kJ/mol
# Density = 1.906502 g / cm^3
# Si number density = 19.108516 Si / 1000 Ang^3
#
#
#
# Elastic Constant Matrix: (Units=GPa)
#
#
# Indices 1 2 3 4 5 6 
#
# 1 80.7825 30.0658 17.2763 0.0000 6.5945 0.0000
# 2 30.0658 99.8312 29.1130 0.0000 -1.5500 0.0000
# 3 17.2763 29.1130 62.8531 0.0000 7.8705 0.0000
# 4 0.0000 0.0000 0.0000 15.0695 0.0000 -0.4283
# 5 6.5945 -1.5500 7.8705 0.0000 34.5692 0.0000
# 6 0.0000 0.0000 0.0000 -0.4283 0.0000 23.5209
#
#
#
# Elastic Compliance Matrix: (Units=1/GPa)
#
#
# Indices 1 2 3 4 5 6 
#
# 1 0.014409 -0.003832 -0.001873 0.000000 -0.002494 0.000000
# 2 -0.003832 0.012709 -0.005143 0.000000 0.002472 0.000000
# 3 -0.001873 -0.005143 0.019343 0.000000 -0.004277 0.000000
# 4 0.000000 0.000000 0.000000 0.066394 0.000000 0.001209
# 5 -0.002494 0.002472 -0.004277 0.000000 0.030488 0.000000
# 6 0.000000 0.000000 0.000000 0.001209 0.000000 0.042537
#
#
# Mechanical properties :
#
#
# Convention : Reuss Voigt Hill
#
# Bulk Modulus (GPa) = 40.38034 44.04188 42.21111
# Shear Modulus (GPa) = 23.16616 25.76602 24.46609
#
# Velocity S-wave (km/s) = 3.48566 3.67605 3.58212
# Velocity P-wave (km/s) = 6.11373 6.41218 6.26474
#
# Compressibility (1/GPa) = 0.02476453
#
# Stress axis : x y z
#
# Youngs Moduli (GPa) = 69.39922 78.68324 51.69881
#
# Poissons Ratio (x) = 0.30152 0.09685
# Poissons Ratio (y) = 0.26594 0.26589
# Poissons Ratio (z) = 0.13001 0.40467
#
# Static dielectric constant tensor:
#      x y z
#    x 1.692970 0.000000 0.009340 
#    y 0.000000 1.664170 0.000000 
#    z 0.009340 0.000000 1.710300 
# 
# From -- ./inp_files/127010.got.cif
#   From: 2010.05.17/outbox.cif.g08.bks.cpg/sg15_64_cif.got.tgz:127010.got - 2010.06.03 18:47:42.
