data_PCOD9285368
_publ_section_title
;
Structure prediction by ZEFSAII (Michael W. Deem and Ramdas Pophale) SiO2 
 PCOD9285368
Probable space group: C 2/C
;
_chemical_formula_sum "Si O2"
_cell_formula_units_Z 48
_cell_length_a 10.473442
_cell_length_b 14.094855
_cell_length_c 25.932184
_cell_angle_alpha 90.000000
_cell_angle_beta 145.038493
_cell_angle_gamma 90.000000
_cell_volume 2193.630363
_symmetry_space_group_name_H-M "C 2/C"
_symmetry_group_IT_number 15
_symmetry_cell_setting 'monoclinic'
loop_
_space_group_symop_operation_xyz
x,y,z
-x,y,1/2-z
-x,-y,-z
x,-y,1/2+z
1/2+x,1/2+y,z
1/2-x,1/2+y,1/2-z
1/2-x,1/2-y,-z
1/2+x,1/2-y,1/2+z
loop_
_atom_site_type_symbol
_atom_site_label
_atom_site_fract_x
_atom_site_fract_y
_atom_site_fract_z
Si Si1 0.128818 0.706497 0.215077
Si Si2 0.793229 0.040033 0.983654
Si Si3 0.834283 0.833519 0.885081
Si Si4 0.007991 0.665461 0.814212
Si Si5 0.891244 0.346855 0.542208
Si Si6 0.657241 0.177297 0.030575
O O1 0.259266 0.649024 0.301937
O O2 0.260813 0.805138 0.251949
O O3 0.878290 0.705218 0.154387
O O4 0.102400 0.661608 0.150417
O O5 0.620338 0.080258 0.883727
O O6 0.757876 0.932073 0.986645
O O7 0.744286 0.097414 0.021000
O O8 0.042845 0.074213 0.052465
O O9 0.016068 0.750777 0.949171
O O10 0.000000 0.649089 0.750000
O O11 0.161599 0.757587 0.879300
O O12 0.750000 0.250000 0.500000
O O13 0.987604 0.361411 0.517399
#
# Coordination Sequence:
#
# PCOD9285368 Si02
#       6
#     8   8   8   8   8   8
#     4  11  21  41  66 101 135 173 223 275 344 396
#     4  11  24  45  67 102 134 183 231 269 345 412
#     4  10  21  41  71  95 137 176 221 283 341 402
#     4  11  21  41  74  99 137 173 224 289 343 401
#     4  12  26  44  66  98 141 180 224 284 338 398
#     4  11  20  43  71  97 130 180 219 283 344 404
#
# _framework density 21.881536000000001
#
# number of rings (size 3 to 8) (size 9 to 14) (size 15 to 20)
#    0.000    1.000    6.667    1.500    0.000    0.667 
#    6.000    0.000    3.667    0.000    0.000    0.000 
#    0.000    0.000    0.000    0.000    0.000    0.000 
#
# Total GULP energy -134087.742207 kJ/mol
# GULP energy per Si atom -5586.989259 kJ/mol
# Density = 2.183173 g / cm^3
# Si number density = 21.881536 Si / 1000 Ang^3
#
#
#
# Elastic Constant Matrix: (Units=GPa)
#
#
# Indices 1 2 3 4 5 6 
#
# 1 130.0501 45.9493 44.2577 0.0000 -2.1032 0.0000
# 2 45.9493 129.2737 42.9159 0.0000 6.8469 0.0000
# 3 44.2577 42.9159 123.1660 0.0000 -13.8439 0.0000
# 4 0.0000 0.0000 0.0000 23.7107 0.0000 1.3455
# 5 -2.1032 6.8469 -13.8439 0.0000 52.1692 0.0000
# 6 0.0000 0.0000 0.0000 1.3455 0.0000 24.7525
#
#
#
# Elastic Compliance Matrix: (Units=1/GPa)
#
#
# Indices 1 2 3 4 5 6 
#
# 1 0.009435 -0.002524 -0.002505 0.000000 0.000047 0.000000
# 2 -0.002524 0.009634 -0.002683 0.000000 -0.002078 0.000000
# 3 -0.002505 -0.002683 0.010289 0.000000 0.002982 0.000000
# 4 0.000000 0.000000 0.000000 0.042306 0.000000 -0.002300
# 5 0.000047 -0.002078 0.002982 0.000000 0.020234 0.000000
# 6 0.000000 0.000000 0.000000 -0.002300 0.000000 0.040525
#
#
# Mechanical properties :
#
#
# Convention : Reuss Voigt Hill
#
# Bulk Modulus (GPa) = 71.77748 72.08174 71.92961
# Shear Modulus (GPa) = 32.78858 36.75094 34.76976
#
# Velocity S-wave (km/s) = 3.87519 4.10267 3.99055
# Velocity P-wave (km/s) = 7.27302 7.44687 7.36046
#
# Compressibility (1/GPa) = 0.01393195
#
# Stress axis : x y z
#
# Youngs Moduli (GPa) = 105.99332 103.80348 97.18667
#
# Poissons Ratio (x) = 0.26202 0.24349
# Poissons Ratio (y) = 0.26755 0.26078
# Poissons Ratio (z) = 0.26555 0.27853
#
# Static dielectric constant tensor:
#      x y z
#    x 1.901240 0.000000 0.004370 
#    y 0.000000 1.788720 0.000000 
#    z 0.004370 0.000000 1.841780 
# 
# From -- ./inp_files/293143.got.cif
#   From: 2010.05.17/outbox.cif.g08.bks.cpg/sg15_147_cif.got.tgz:293143.got - 2010.06.03 18:47:42.
