data_PCOD9285711
_publ_section_title
;
Structure prediction by ZEFSAII (Michael W. Deem and Ramdas Pophale) SiO2 
 PCOD9285711
Probable space group: C 2/C
;
_chemical_formula_sum "Si O2"
_cell_formula_units_Z 56
_cell_length_a 17.839357
_cell_length_b 18.340808
_cell_length_c 8.095690
_cell_angle_alpha 90.000000
_cell_angle_beta 103.722137
_cell_angle_gamma 90.000000
_cell_volume 2573.210739
_symmetry_space_group_name_H-M "C 2/C"
_symmetry_group_IT_number 15
_symmetry_cell_setting 'monoclinic'
loop_
_space_group_symop_operation_xyz
x,y,z
-x,y,1/2-z
-x,-y,-z
x,-y,1/2+z
1/2+x,1/2+y,z
1/2-x,1/2+y,1/2-z
1/2-x,1/2-y,-z
1/2+x,1/2-y,1/2+z
loop_
_atom_site_type_symbol
_atom_site_label
_atom_site_fract_x
_atom_site_fract_y
_atom_site_fract_z
Si Si1 0.124449 0.825329 0.555925
Si Si2 0.174436 0.431947 0.479035
Si Si3 0.213917 0.288072 0.319271
Si Si4 0.273989 0.085060 0.146585
Si Si5 0.511478 0.582641 0.557118
Si Si6 0.574478 0.858630 0.675521
Si Si7 0.616970 0.704564 0.690471
O O1 0.155019 0.764785 0.696259
O O2 0.195044 0.879877 0.546210
O O3 0.053907 0.874064 0.577867
O O4 0.092058 0.792561 0.368548
O O5 0.181129 0.366616 0.352315
O O6 0.196071 0.508670 0.410079
O O7 0.235561 0.421154 0.659822
O O8 0.095058 0.418734 0.543810
O O9 0.250000 0.250000 0.500000
O O10 0.291076 0.295333 0.253609
O O11 0.348444 0.137257 0.169390
O O12 0.500000 0.582315 0.750000
O O13 0.500000 0.500000 0.500000
O O14 0.588538 0.631675 0.583759
O O15 0.500000 0.870239 0.750000
O O16 0.581140 0.778639 0.596823
#
# Coordination Sequence:
#
# PCOD9285711 Si02
#       7
#     8   8   8   8   8   8   8
#     4  11  23  41  69  96 132 181 229 272 341 408
#     4  10  24  39  62  99 129 171 219 282 342 392
#     4  12  21  42  68  95 133 170 233 283 324 406
#     4  10  23  40  60  96 127 170 227 270 346 403
#     4  10  25  44  63 102 140 181 221 274 348 406
#     4  10  21  42  66  87 131 171 220 284 346 395
#     4  11  23  42  67  97 135 176 225 282 334 405
#
# _framework density 21.762694
#
# number of rings (size 3 to 8) (size 9 to 14) (size 15 to 20)
#    0.857    0.571    4.286    1.714    4.000    2.857 
#    0.000    0.000    0.000    0.000    0.000    0.000 
#    0.000    0.000    0.000    0.000    0.000    0.000 
#
# Total GULP energy -155972.476473 kJ/mol
# GULP energy per Si atom -5570.445588 kJ/mol
# Density = 2.171316 g / cm^3
# Si number density = 21.762694 Si / 1000 Ang^3
#
#
#
# Elastic Constant Matrix: (Units=GPa)
#
#
# Indices 1 2 3 4 5 6 
#
# 1 60.3562 21.4059 11.4681 0.0000 9.7018 0.0000
# 2 21.4059 136.9107 44.9799 0.0000 5.2132 0.0000
# 3 11.4681 44.9799 64.6514 0.0000 10.9297 0.0000
# 4 0.0000 0.0000 0.0000 42.0565 0.0000 -4.4209
# 5 9.7018 5.2132 10.9297 0.0000 29.2832 0.0000
# 6 0.0000 0.0000 0.0000 -4.4209 0.0000 30.9292
#
#
#
# Elastic Compliance Matrix: (Units=1/GPa)
#
#
# Indices 1 2 3 4 5 6 
#
# 1 0.018437 -0.002467 -0.000636 0.000000 -0.005432 0.000000
# 2 -0.002467 0.009817 -0.006655 0.000000 0.001554 0.000000
# 3 -0.000636 -0.006655 0.021320 0.000000 -0.006562 0.000000
# 4 0.000000 0.000000 0.000000 0.024140 0.000000 0.003451
# 5 -0.005432 0.001554 -0.006562 0.000000 0.038122 0.000000
# 6 0.000000 0.000000 0.000000 0.003451 0.000000 0.032825
#
#
# Mechanical properties :
#
#
# Convention : Reuss Voigt Hill
#
# Bulk Modulus (GPa) = 33.26856 46.40290 39.83573
# Shear Modulus (GPa) = 28.70331 32.72472 30.71401
#
# Velocity S-wave (km/s) = 3.63564 3.88197 3.76082
# Velocity P-wave (km/s) = 5.73968 6.43906 6.09940
#
# Compressibility (1/GPa) = 0.03005841
#
# Stress axis : x y z
#
# Youngs Moduli (GPa) = 54.23828 101.86436 46.90475
#
# Poissons Ratio (x) = 0.25129 0.02982
# Poissons Ratio (y) = 0.13380 0.31215
# Poissons Ratio (z) = 0.03449 0.67791
#
# Static dielectric constant tensor:
#      x y z
#    x 1.889720 0.000000 -0.071110 
#    y 0.000000 1.876860 0.000000 
#    z -0.071110 0.000000 1.854330 
# 
# From -- ./inp_files/49177.got.cif
#   From: 2010.05.17/outbox.cif.g08.bks.cpg/sg15_25_cif.got.tgz:49177.got - 2010.06.03 18:47:42.
