data_PCOD9285178
_publ_section_title
;
Structure prediction by ZEFSAII (Michael W. Deem and Ramdas Pophale) SiO2 
 PCOD9285178
Probable space group: C 2/C
;
_chemical_formula_sum "Si O2"
_cell_formula_units_Z 44
_cell_length_a 7.088601
_cell_length_b 18.786929
_cell_length_c 15.744490
_cell_angle_alpha 90.000000
_cell_angle_beta 59.888735
_cell_angle_gamma 90.000000
_cell_volume 1813.792242
_symmetry_space_group_name_H-M "C 2/C"
_symmetry_group_IT_number 15
_symmetry_cell_setting 'monoclinic'
loop_
_space_group_symop_operation_xyz
x,y,z
-x,y,1/2-z
-x,-y,-z
x,-y,1/2+z
1/2+x,1/2+y,z
1/2-x,1/2+y,1/2-z
1/2-x,1/2-y,-z
1/2+x,1/2-y,1/2+z
loop_
_atom_site_type_symbol
_atom_site_label
_atom_site_fract_x
_atom_site_fract_y
_atom_site_fract_z
Si Si1 0.000000 0.962131 0.250000
Si Si2 0.000000 0.247881 0.250000
Si Si3 0.000000 0.395450 0.750000
Si Si4 0.249728 0.496430 0.581575
Si Si5 0.391708 0.319049 0.945257
Si Si6 0.363594 0.075600 0.109876
Si Si7 0.345051 0.633866 0.630041
O O1 0.956356 0.909728 0.180268
O O2 0.803298 0.015035 0.320655
O O3 0.025615 0.203608 0.331694
O O4 0.790985 0.299196 0.307331
O O5 0.799615 0.444783 0.828104
O O6 0.915665 0.369317 0.677270
O O7 0.500000 0.500000 0.500000
O O8 0.096147 0.462390 0.545578
O O9 0.181203 0.574646 0.627543
O O10 0.239180 0.381632 0.943388
O O11 0.250000 0.250000 0.000000
O O12 0.488097 0.342737 0.014858
#
# Coordination Sequence:
#
# PCOD9285178 Si02
#       7
#     4   4   4   8   8   8   8
#     4  12  21  40  75 111 149 188 224 320 406 442
#     4  10  22  50  70  86 145 211 246 304 368 430
#     4   8  19  42  59 105 146 181 232 290 374 450
#     4  10  21  41  68 110 148 179 232 314 384 453
#     4  10  24  43  68  98 140 203 257 295 353 453
#     4  10  21  41  70 105 148 191 234 300 388 449
#     4  11  23  42  68 106 146 187 244 310 372 461
#
# _framework density 24.258565999999998
#
# number of rings (size 3 to 8) (size 9 to 14) (size 15 to 20)
#    1.091    0.727    1.818    2.182    2.545    2.182 
#    6.545    4.545    0.000    0.000    0.000    0.000 
#    0.000    0.000    0.000    0.000    0.000    0.000 
#
# Total GULP energy -122679.645268 kJ/mol
# GULP energy per Si atom -5576.347512 kJ/mol
# Density = 2.420335 g / cm^3
# Si number density = 24.258566 Si / 1000 Ang^3
#
#
#
# Elastic Constant Matrix: (Units=GPa)
#
#
# Indices 1 2 3 4 5 6 
#
# 1 105.5960 47.8178 75.2165 0.0000 6.7926 0.0000
# 2 47.8178 110.4685 58.1689 0.0000 6.5978 0.0000
# 3 75.2165 58.1689 177.7147 0.0000 22.4445 0.0000
# 4 0.0000 0.0000 0.0000 49.1237 0.0000 13.1308
# 5 6.7926 6.5978 22.4445 0.0000 69.3181 0.0000
# 6 0.0000 0.0000 0.0000 13.1308 0.0000 23.4983
#
#
#
# Elastic Compliance Matrix: (Units=1/GPa)
#
#
# Indices 1 2 3 4 5 6 
#
# 1 0.014754 -0.003739 -0.005091 0.000000 0.000559 0.000000
# 2 -0.003739 0.011886 -0.002306 0.000000 -0.000018 0.000000
# 3 -0.005091 -0.002306 0.008806 0.000000 -0.002133 0.000000
# 4 0.000000 0.000000 0.000000 0.023931 0.000000 -0.013373
# 5 0.000559 -0.000018 -0.002133 0.000000 0.015064 0.000000
# 6 0.000000 0.000000 0.000000 -0.013373 0.000000 0.050029
#
#
# Mechanical properties :
#
#
# Convention : Reuss Voigt Hill
#
# Bulk Modulus (GPa) = 75.90665 84.02062 79.96363
# Shear Modulus (GPa) = 33.08357 42.55976 37.82167
#
# Velocity S-wave (km/s) = 3.69696 4.19313 3.95283
# Velocity P-wave (km/s) = 7.04144 7.62586 7.33947
#
# Compressibility (1/GPa) = 0.01317408
#
# Stress axis : x y z
#
# Youngs Moduli (GPa) = 67.77986 84.13281 113.56081
#
# Poissons Ratio (x) = 0.31456 0.57815
# Poissons Ratio (y) = 0.25342 0.26184
# Poissons Ratio (z) = 0.34508 0.19399
#
# Static dielectric constant tensor:
#      x y z
#    x 1.940420 0.000000 0.030120 
#    y 0.000000 1.955340 0.000000 
#    z 0.030120 0.000000 2.034520 
# 
# From -- ./inp_files/135855.got.cif
#   From: 2010.05.17/outbox.cif.g08.bks.cpg/sg15_68_cif.got.tgz:135855.got - 2010.06.03 18:47:42.
