data_PCOD9285620
_publ_section_title
;
Structure prediction by ZEFSAII (Michael W. Deem and Ramdas Pophale) SiO2 
 PCOD9285620
Probable space group: C 2/C
;
_chemical_formula_sum "Si O2"
_cell_formula_units_Z 48
_cell_length_a 11.141089
_cell_length_b 20.880167
_cell_length_c 9.725250
_cell_angle_alpha 90.000000
_cell_angle_beta 100.347257
_cell_angle_gamma 90.000000
_cell_volume 2225.571201
_symmetry_space_group_name_H-M "C 2/C"
_symmetry_group_IT_number 15
_symmetry_cell_setting 'monoclinic'
loop_
_space_group_symop_operation_xyz
x,y,z
-x,y,1/2-z
-x,-y,-z
x,-y,1/2+z
1/2+x,1/2+y,z
1/2-x,1/2+y,1/2-z
1/2-x,1/2-y,-z
1/2+x,1/2-y,1/2+z
loop_
_atom_site_type_symbol
_atom_site_label
_atom_site_fract_x
_atom_site_fract_y
_atom_site_fract_z
Si Si1 0.851363 0.432984 0.898646
Si Si2 0.418446 0.071967 0.858970
Si Si3 0.599407 0.442812 0.011412
Si Si4 0.243241 0.308221 0.787641
Si Si5 0.500000 0.351983 0.750000
Si Si6 0.778941 0.176612 0.615291
Si Si7 0.500000 0.613977 0.750000
O O1 0.866601 0.500338 0.822337
O O2 0.820195 0.368586 0.803670
O O3 0.738939 0.447742 0.982883
O O4 0.984182 0.425937 0.995832
O O5 0.500000 0.092808 0.750000
O O6 0.311056 0.121569 0.854888
O O7 0.593442 0.421642 0.168825
O O8 0.500000 0.500000 0.000000
O O9 0.541442 0.395676 0.886079
O O10 0.383524 0.312218 0.772027
O O11 0.209426 0.233306 0.768639
O O12 0.231726 0.312601 0.950258
O O13 0.916728 0.153111 0.629441
#
# Coordination Sequence:
#
# PCOD9285620 Si02
#       7
#     8   8   8   8   4   8   4
#     4  10  25  43  71 102 143 186 241 291 365 428
#     4  11  25  44  69 106 142 188 234 298 358 438
#     4  11  22  40  68  98 135 181 222 294 344 419
#     4  10  24  45  69 102 136 191 234 293 353 429
#     4  10  21  42  64  98 135 176 234 276 352 414
#     4  11  25  44  71  99 143 183 239 295 355 419
#     4  12  23  42  64 104 133 174 238 284 352 410
#
# _framework density 21.567498000000001
#
# number of rings (size 3 to 8) (size 9 to 14) (size 15 to 20)
#    0.000    1.333    1.667    2.500    5.833    5.333 
#    0.000    2.500    0.000    0.000    0.000    0.000 
#    0.000    0.000    0.000    0.000    0.000    0.000 
#
# Total GULP energy -133622.690596 kJ/mol
# GULP energy per Si atom -5567.612108 kJ/mol
# Density = 2.151841 g / cm^3
# Si number density = 21.567498 Si / 1000 Ang^3
#
#
#
# Elastic Constant Matrix: (Units=GPa)
#
#
# Indices 1 2 3 4 5 6 
#
# 1 110.0078 47.5751 13.4910 0.0000 1.0994 0.0000
# 2 47.5751 97.8711 30.1465 0.0000 4.2717 0.0000
# 3 13.4910 30.1465 60.6468 0.0000 -3.3125 0.0000
# 4 0.0000 0.0000 0.0000 17.9779 0.0000 22.2555
# 5 1.0994 4.2717 -3.3125 0.0000 33.1255 0.0000
# 6 0.0000 0.0000 0.0000 22.2555 0.0000 -64.4405
#
#
#
# Elastic Compliance Matrix: (Units=1/GPa)
#
#
# Indices 1 2 3 4 5 6 
#
# 1 0.011518 -0.005707 0.000295 0.000000 0.000383 0.000000
# 2 -0.005707 0.015049 -0.006341 0.000000 -0.002385 0.000000
# 3 0.000295 -0.006341 0.019727 0.000000 0.002781 0.000000
# 4 0.000000 0.000000 0.000000 0.038965 0.000000 0.013457
# 5 0.000383 -0.002385 0.002781 0.000000 0.030761 0.000000
# 6 0.000000 0.000000 0.000000 0.013457 0.000000 -0.010871
#
#
# Mechanical properties :
#
#
# Convention : Reuss Voigt Hill
#
# Bulk Modulus (GPa) = 43.88082 50.10566 46.99324
# Shear Modulus (GPa) = 36.69680 9.15344 22.92512
#
# Velocity S-wave (km/s) = 4.12938 2.06235 3.26382
# Velocity P-wave (km/s) = 6.56702 5.38085 6.00330
#
# Compressibility (1/GPa) = 0.02278900
#
# Stress axis : x y z
#
# Youngs Moduli (GPa) = 86.81924 66.44979 50.69119
#
# Poissons Ratio (x) = 0.37921 -0.01497
# Poissons Ratio (y) = 0.49545 0.32145
# Poissons Ratio (z) = -0.02564 0.42138
#
# Static dielectric constant tensor:
#      x y z
#    x 1.765070 0.000000 0.055940 
#    y 0.000000 1.543920 0.000000 
#    z 0.055940 0.000000 1.875340 
# 
# From -- ./inp_files/32191.got.cif
#   From: 2010.05.17/outbox.cif.g08.bks.cpg/sg15_17_cif.got.tgz:32191.got - 2010.06.03 18:47:42.
