data_PCOD9285876
_publ_section_title
;
Structure prediction by ZEFSAII (Michael W. Deem and Ramdas Pophale) SiO2 
 PCOD9285876
Probable space group: C 2/C
;
_chemical_formula_sum "Si O2"
_cell_formula_units_Z 32
_cell_length_a 12.095394
_cell_length_b 13.716325
_cell_length_c 7.939520
_cell_angle_alpha 90.000000
_cell_angle_beta 56.829121
_cell_angle_gamma 90.000000
_cell_volume 1102.553183
_symmetry_space_group_name_H-M "C 2/C"
_symmetry_group_IT_number 15
_symmetry_cell_setting 'monoclinic'
loop_
_space_group_symop_operation_xyz
x,y,z
-x,y,1/2-z
-x,-y,-z
x,-y,1/2+z
1/2+x,1/2+y,z
1/2-x,1/2+y,1/2-z
1/2-x,1/2-y,-z
1/2+x,1/2-y,1/2+z
loop_
_atom_site_type_symbol
_atom_site_label
_atom_site_fract_x
_atom_site_fract_y
_atom_site_fract_z
Si Si1 0.500000 0.441936 0.250000
Si Si2 0.250000 0.250000 0.500000
Si Si3 0.912087 0.284353 0.182463
Si Si4 0.093705 0.581286 0.307472
Si Si5 0.191355 0.072394 0.864065
O O1 0.408943 0.514053 0.435957
O O2 0.393467 0.384352 0.222866
O O3 0.149131 0.224032 0.418735
O O4 0.156406 0.338127 0.634798
O O5 0.783220 0.342561 0.358483
O O6 0.000000 0.231461 0.250000
O O7 0.013357 0.362113 0.016627
O O8 0.204981 0.509146 0.284800
O O9 0.000000 0.527214 0.250000
#
# Coordination Sequence:
#
# PCOD9285876 Si02
#       5
#     4   4   8   8   8
#     4  10  22  36  56 106 138 178 208 266 366 390
#     4  10  24  44  62 104 142 172 220 272 366 410
#     4  11  23  43  72 100 131 182 236 291 338 402
#     4  10  21  42  68 101 132 183 227 283 343 400
#     4  11  21  41  67 102 137 175 233 283 334 415
#
# _framework density 29.023544999999999
#
# number of rings (size 3 to 8) (size 9 to 14) (size 15 to 20)
#    0.000    1.500    0.000    6.000    0.000    1.000 
#   42.750    0.000    0.000    0.000    0.000    0.000 
#    0.000    0.000    0.000    0.000    0.000    0.000 
#
# Total GULP energy -89378.718019 kJ/mol
# GULP energy per Si atom -5586.169876 kJ/mol
# Density = 2.895749 g / cm^3
# Si number density = 29.023545 Si / 1000 Ang^3
#
#
#
# Elastic Constant Matrix: (Units=GPa)
#
#
# Indices 1 2 3 4 5 6 
#
# 1 298.2559 36.2933 30.6438 0.0000 30.1592 0.0000
# 2 36.2933 78.0802 15.3144 0.0000 -2.9058 0.0000
# 3 30.6438 15.3144 84.5435 0.0000 -27.8674 0.0000
# 4 0.0000 0.0000 0.0000 40.8909 0.0000 4.5881
# 5 30.1592 -2.9058 -27.8674 0.0000 54.5479 0.0000
# 6 0.0000 0.0000 0.0000 4.5881 0.0000 60.0586
#
#
#
# Elastic Compliance Matrix: (Units=1/GPa)
#
#
# Indices 1 2 3 4 5 6 
#
# 1 0.004160 -0.001596 -0.002411 0.000000 -0.003617 0.000000
# 2 -0.001596 0.013909 -0.001691 0.000000 0.000759 0.000000
# 3 -0.002411 -0.001691 0.016135 0.000000 0.009486 0.000000
# 4 0.000000 0.000000 0.000000 0.024667 0.000000 -0.001884
# 5 -0.003617 0.000759 0.009486 0.000000 0.025219 0.000000
# 6 0.000000 0.000000 0.000000 -0.001884 0.000000 0.016794
#
#
# Mechanical properties :
#
#
# Convention : Reuss Voigt Hill
#
# Bulk Modulus (GPa) = 43.84169 69.48697 56.66433
# Shear Modulus (GPa) = 41.70702 56.34134 49.02418
#
# Velocity S-wave (km/s) = 3.79490 4.41072 4.11435
# Velocity P-wave (km/s) = 5.86004 7.06631 6.49126
#
# Compressibility (1/GPa) = 0.02280934
#
# Stress axis : x y z
#
# Youngs Moduli (GPa) = 240.35618 71.89641 61.97528
#
# Poissons Ratio (x) = 0.11471 0.14944
# Poissons Ratio (y) = 0.38350 0.10479
# Poissons Ratio (z) = 0.57957 0.12157
#
# Static dielectric constant tensor:
#      x y z
#    x 4.845460 0.000000 -0.639840 
#    y 0.000000 3.216920 0.000000 
#    z -0.639840 0.000000 3.922350 
# 
# From -- ./inp_files/28647.got.cif
#   From: 2010.05.17/outbox.cif.g08.bks.cpg/sg15_15_cif.got.tgz:28647.got - 2010.06.03 18:47:42.
