data_PCOD9285236
_publ_section_title
;
Structure prediction by ZEFSAII (Michael W. Deem and Ramdas Pophale) SiO2 
 PCOD9285236
Probable space group: C 2/C
;
_chemical_formula_sum "Si O2"
_cell_formula_units_Z 48
_cell_length_a 21.875877
_cell_length_b 8.128398
_cell_length_c 11.562973
_cell_angle_alpha 90.000000
_cell_angle_beta 76.379307
_cell_angle_gamma 90.000000
_cell_volume 1998.254539
_symmetry_space_group_name_H-M "C 2/C"
_symmetry_group_IT_number 15
_symmetry_cell_setting 'monoclinic'
loop_
_space_group_symop_operation_xyz
x,y,z
-x,y,1/2-z
-x,-y,-z
x,-y,1/2+z
1/2+x,1/2+y,z
1/2-x,1/2+y,1/2-z
1/2-x,1/2-y,-z
1/2+x,1/2-y,1/2+z
loop_
_atom_site_type_symbol
_atom_site_label
_atom_site_fract_x
_atom_site_fract_y
_atom_site_fract_z
Si Si1 0.368435 0.391549 0.665325
Si Si2 0.661794 0.200409 0.605157
Si Si3 0.229684 0.035077 0.490758
Si Si4 0.950329 0.722205 0.464402
Si Si5 0.913455 0.373895 0.578097
Si Si6 0.647170 0.277063 0.194255
O O1 0.357578 0.237882 0.755467
O O2 0.309309 0.419655 0.606555
O O3 0.428106 0.369668 0.556099
O O4 0.374376 0.549954 0.741879
O O5 0.700977 0.362995 0.552322
O O6 0.605369 0.194957 0.538943
O O7 0.700410 0.029816 0.570066
O O8 0.211017 0.172064 0.596374
O O9 0.932148 0.560806 0.546407
O O10 0.905088 0.723423 0.374286
O O11 0.023469 0.712889 0.404393
O O12 0.856365 0.341974 0.692828
#
# Coordination Sequence:
#
# PCOD9285236 Si02
#       6
#     8   8   8   8   8   8
#     4  10  21  44  67  99 139 177 235 281 346 409
#     4  10  21  41  68  98 131 178 223 285 345 399
#     4   9  20  44  64  95 134 170 230 281 335 407
#     4  10  25  43  65 101 140 181 226 280 349 418
#     4  11  23  44  68  98 141 179 228 282 348 413
#     4  10  21  44  70  96 136 179 229 281 340 410
#
# _framework density 24.020962999999998
#
# number of rings (size 3 to 8) (size 9 to 14) (size 15 to 20)
#    0.000    2.000    1.667    0.500    2.333    1.333 
#   18.000    1.667    0.000    0.000    0.000    0.000 
#    0.000    0.000    0.000    0.000    0.000    0.000 
#
# Total GULP energy -134160.495157 kJ/mol
# GULP energy per Si atom -5590.020632 kJ/mol
# Density = 2.396629 g / cm^3
# Si number density = 24.020963 Si / 1000 Ang^3
#
#
#
# Elastic Constant Matrix: (Units=GPa)
#
#
# Indices 1 2 3 4 5 6 
#
# 1 67.6930 28.2608 38.9956 0.0000 -3.2432 0.0000
# 2 28.2608 76.8079 39.6998 0.0000 -5.3430 0.0000
# 3 38.9956 39.6998 132.5654 0.0000 -3.8769 0.0000
# 4 0.0000 0.0000 0.0000 42.1993 0.0000 5.8165
# 5 -3.2432 -5.3430 -3.8769 0.0000 19.9589 0.0000
# 6 0.0000 0.0000 0.0000 5.8165 0.0000 35.5657
#
#
#
# Elastic Compliance Matrix: (Units=1/GPa)
#
#
# Indices 1 2 3 4 5 6 
#
# 1 0.019256 -0.004853 -0.004181 0.000000 0.001018 0.000000
# 2 -0.004853 0.016839 -0.003526 0.000000 0.003034 0.000000
# 3 -0.004181 -0.003526 0.009838 0.000000 0.000287 0.000000
# 4 0.000000 0.000000 0.000000 0.024244 0.000000 -0.003965
# 5 0.001018 0.003034 0.000287 0.000000 0.051136 0.000000
# 6 0.000000 0.000000 0.000000 -0.003965 0.000000 0.028765
#
#
# Mechanical properties :
#
#
# Convention : Reuss Voigt Hill
#
# Bulk Modulus (GPa) = 48.05100 54.55318 51.30209
# Shear Modulus (GPa) = 27.45183 30.88547 29.16865
#
# Velocity S-wave (km/s) = 3.38424 3.58966 3.48846
# Velocity P-wave (km/s) = 5.94289 6.31987 6.13428
#
# Compressibility (1/GPa) = 0.02081122
#
# Stress axis : x y z
#
# Youngs Moduli (GPa) = 51.93151 59.38605 101.64775
#
# Poissons Ratio (x) = 0.28821 0.42501
# Poissons Ratio (y) = 0.25203 0.35846
# Poissons Ratio (z) = 0.21714 0.20942
#
# Static dielectric constant tensor:
#      x y z
#    x 1.863700 0.000000 -0.054870 
#    y 0.000000 1.888250 0.000000 
#    z -0.054870 0.000000 1.916610 
# 
# From -- ./inp_files/116730.got.cif
#   From: 2010.05.17/outbox.cif.g08.bks.cpg/sg15_59_cif.got.tgz:116730.got - 2010.06.03 18:47:42.
