data_PCOD9285543
_publ_section_title
;
Structure prediction by ZEFSAII (Michael W. Deem and Ramdas Pophale) SiO2 
 PCOD9285543
Probable space group: C 2/C
;
_chemical_formula_sum "Si O2"
_cell_formula_units_Z 48
_cell_length_a 5.021231
_cell_length_b 22.627666
_cell_length_c 18.772261
_cell_angle_alpha 90.000000
_cell_angle_beta 90.151380
_cell_angle_gamma 90.000000
_cell_volume 2132.873159
_symmetry_space_group_name_H-M "C 2/C"
_symmetry_group_IT_number 15
_symmetry_cell_setting 'monoclinic'
loop_
_space_group_symop_operation_xyz
x,y,z
-x,y,1/2-z
-x,-y,-z
x,-y,1/2+z
1/2+x,1/2+y,z
1/2-x,1/2+y,1/2-z
1/2-x,1/2-y,-z
1/2+x,1/2-y,1/2+z
loop_
_atom_site_type_symbol
_atom_site_label
_atom_site_fract_x
_atom_site_fract_y
_atom_site_fract_z
Si Si1 0.680177 0.516329 0.397679
Si Si2 0.118537 0.901945 0.487701
Si Si3 0.755014 0.774292 0.698456
Si Si4 0.584631 0.837608 0.896148
Si Si5 0.688414 0.945074 0.818730
Si Si6 0.901162 0.779626 0.433379
O O1 0.685837 0.450849 0.429599
O O2 0.563865 0.562081 0.456061
O O3 0.980238 0.532237 0.377948
O O4 0.468789 0.522803 0.332261
O O5 0.363503 0.873030 0.531790
O O6 0.981427 0.844814 0.454112
O O7 0.500000 0.769396 0.750000
O O8 0.700386 0.828924 0.643301
O O9 0.762723 0.721595 0.640664
O O10 0.000000 0.777171 0.750000
O O11 0.636682 0.768485 0.914255
O O12 0.736444 0.875946 0.836793
O O13 0.500000 0.950550 0.750000
O O14 0.750000 0.750000 0.500000
#
# Coordination Sequence:
#
# PCOD9285543 Si02
#       6
#     8   8   8   8   8   8
#     4  10  24  40  67  94 130 170 224 278 321 377
#     4  10  21  42  63  98 131 171 223 277 327 385
#     4  10  24  41  60  94 134 168 209 265 332 395
#     4   9  22  36  68  95 129 165 218 273 336 385
#     4  11  22  42  63  94 126 172 219 272 331 396
#     4  10  22  38  67 100 133 173 220 268 330 406
#
# _framework density 22.504853000000001
#
# number of rings (size 3 to 8) (size 9 to 14) (size 15 to 20)
#    1.000    1.000    0.000    2.500    2.333   10.000 
#    0.000    2.500    0.000    0.000    0.000    0.000 
#    0.000    0.000    0.000    0.000    0.000    0.000 
#
# Total GULP energy -133739.564317 kJ/mol
# GULP energy per Si atom -5572.481847 kJ/mol
# Density = 2.245363 g / cm^3
# Si number density = 22.504853 Si / 1000 Ang^3
#
#
#
# Elastic Constant Matrix: (Units=GPa)
#
#
# Indices 1 2 3 4 5 6 
#
# 1 113.1398 38.6517 47.1733 0.0000 22.7526 0.0000
# 2 38.6517 162.1408 71.2314 0.0000 17.5010 0.0000
# 3 47.1733 71.2314 140.8953 0.0000 34.1517 0.0000
# 4 0.0000 0.0000 0.0000 18.8127 0.0000 5.5960
# 5 22.7526 17.5010 34.1517 0.0000 45.9810 0.0000
# 6 0.0000 0.0000 0.0000 5.5960 0.0000 17.5523
#
#
#
# Elastic Compliance Matrix: (Units=1/GPa)
#
#
# Indices 1 2 3 4 5 6 
#
# 1 0.010843 -0.001266 -0.002203 0.000000 -0.003247 0.000000
# 2 -0.001266 0.008076 -0.003739 0.000000 0.000330 0.000000
# 3 -0.002203 -0.003739 0.011118 0.000000 -0.005744 0.000000
# 4 0.000000 0.000000 0.000000 0.058725 0.000000 -0.018722
# 5 -0.003247 0.000330 -0.005744 0.000000 0.027496 0.000000
# 6 0.000000 0.000000 0.000000 -0.018722 0.000000 0.062942
#
#
# Mechanical properties :
#
#
# Convention : Reuss Voigt Hill
#
# Bulk Modulus (GPa) = 64.02049 81.14319 72.58184
# Shear Modulus (GPa) = 25.14803 33.74383 29.44593
#
# Velocity S-wave (km/s) = 3.34645 3.87641 3.62114
# Velocity P-wave (km/s) = 6.59097 7.49464 7.05728
#
# Compressibility (1/GPa) = 0.01562000
#
# Stress axis : x y z
#
# Youngs Moduli (GPa) = 92.22717 123.81726 89.94637
#
# Poissons Ratio (x) = 0.15681 0.19815
# Poissons Ratio (y) = 0.11680 0.33631
# Poissons Ratio (z) = 0.20317 0.46296
#
# Static dielectric constant tensor:
#      x y z
#    x 1.891360 0.000000 -0.013320 
#    y 0.000000 1.840410 0.000000 
#    z -0.013320 0.000000 1.917940 
# 
# From -- ./inp_files/227373.got.cif
#   From: 2010.05.17/outbox.cif.g08.bks.cpg/sg15_114_cif.got.tgz:227373.got - 2010.06.03 18:47:42.
