data_PCOD9285186
_publ_section_title
;
Structure prediction by ZEFSAII (Michael W. Deem and Ramdas Pophale) SiO2 
 PCOD9285186
Probable space group: C 2/C
;
_chemical_formula_sum "Si O2"
_cell_formula_units_Z 48
_cell_length_a 9.323094
_cell_length_b 28.973605
_cell_length_c 16.315892
_cell_angle_alpha 90.000000
_cell_angle_beta 33.118814
_cell_angle_gamma 90.000000
_cell_volume 2408.051869
_symmetry_space_group_name_H-M "C 2/C"
_symmetry_group_IT_number 15
_symmetry_cell_setting 'monoclinic'
loop_
_space_group_symop_operation_xyz
x,y,z
-x,y,1/2-z
-x,-y,-z
x,-y,1/2+z
1/2+x,1/2+y,z
1/2-x,1/2+y,1/2-z
1/2-x,1/2-y,-z
1/2+x,1/2-y,1/2+z
loop_
_atom_site_type_symbol
_atom_site_label
_atom_site_fract_x
_atom_site_fract_y
_atom_site_fract_z
Si Si1 0.320273 0.777125 0.095292
Si Si2 0.092032 0.889697 0.344394
Si Si3 0.243646 0.714767 0.695029
Si Si4 0.108067 0.385117 0.468171
Si Si5 0.773939 0.463714 0.584681
Si Si6 0.773025 0.035106 0.587152
O O1 0.378460 0.766952 0.161990
O O2 0.398872 0.829652 0.034446
O O3 0.000000 0.773758 0.250000
O O4 0.501533 0.743885 0.954628
O O5 0.151916 0.836739 0.337174
O O6 0.256247 0.900236 0.182968
O O7 0.173597 0.919959 0.382668
O O8 0.794179 0.896560 0.456123
O O9 0.000000 0.714171 0.750000
O O10 0.845746 0.415089 0.593892
O O11 0.500000 0.481917 0.750000
O O12 0.747645 0.456901 0.499807
O O13 0.000000 0.500000 0.500000
O O14 0.500000 0.015020 0.750000
O O15 0.000000 0.000000 0.500000
#
# Coordination Sequence:
#
# PCOD9285186 Si02
#       6
#     8   8   8   8   8   8
#     4  11  22  41  67  93 131 177 217 264 328 391
#     4  10  21  41  68  91 126 177 216 263 323 392
#     4  11  23  40  65  97 129 170 222 269 325 382
#     4  10  21  42  67  91 128 176 217 255 330 389
#     4  12  27  44  68  99 134 170 212 270 330 387
#     4  12  24  42  68  96 127 166 216 264 315 388
#
# _framework density 19.933126999999999
#
# number of rings (size 3 to 8) (size 9 to 14) (size 15 to 20)
#    0.000    1.000    5.000    3.500    4.667    0.667 
#    3.000    0.833    0.000    0.000    0.000    0.000 
#    0.000    0.000    0.000    0.000    0.000    0.000 
#
# Total GULP energy -134016.898631 kJ/mol
# GULP energy per Si atom -5584.037443 kJ/mol
# Density = 1.988776 g / cm^3
# Si number density = 19.933127 Si / 1000 Ang^3
#
#
#
# Elastic Constant Matrix: (Units=GPa)
#
#
# Indices 1 2 3 4 5 6 
#
# 1 134.4003 33.8887 34.5276 0.0000 -4.2394 0.0000
# 2 33.8887 80.9335 38.7075 0.0000 -12.1882 0.0000
# 3 34.5276 38.7075 84.1260 0.0000 -15.9662 0.0000
# 4 0.0000 0.0000 0.0000 22.7248 0.0000 -8.1164
# 5 -4.2394 -12.1882 -15.9662 0.0000 36.2384 0.0000
# 6 0.0000 0.0000 0.0000 -8.1164 0.0000 12.2085
#
#
#
# Elastic Compliance Matrix: (Units=1/GPa)
#
#
# Indices 1 2 3 4 5 6 
#
# 1 0.008720 -0.002562 -0.002586 0.000000 -0.000981 0.000000
# 2 -0.002562 0.016774 -0.006168 0.000000 0.002624 0.000000
# 3 -0.002586 -0.006168 0.016735 0.000000 0.004996 0.000000
# 4 0.000000 0.000000 0.000000 0.057707 0.000000 0.038364
# 5 -0.000981 0.002624 0.004996 0.000000 0.030564 0.000000
# 6 0.000000 0.000000 0.000000 0.038364 0.000000 0.107415
#
#
# Mechanical properties :
#
#
# Convention : Reuss Voigt Hill
#
# Bulk Modulus (GPa) = 51.03274 57.07860 54.05567
# Shear Modulus (GPa) = 18.72101 27.05675 22.88888
#
# Velocity S-wave (km/s) = 3.06795 3.68826 3.39231
# Velocity P-wave (km/s) = 6.18120 6.84360 6.52082
#
# Compressibility (1/GPa) = 0.01959527
#
# Stress axis : x y z
#
# Youngs Moduli (GPa) = 114.67959 59.61650 59.75611
#
# Poissons Ratio (x) = 0.15274 0.15454
# Poissons Ratio (y) = 0.29382 0.36859
# Poissons Ratio (z) = 0.29659 0.36773
#
# Static dielectric constant tensor:
#      x y z
#    x 1.742520 0.000000 0.001890 
#    y 0.000000 1.703730 0.000000 
#    z 0.001890 0.000000 1.727610 
# 
# From -- ./inp_files/138920.got.cif
#   From: 2010.05.17/outbox.cif.g08.bks.cpg/sg15_70_cif.got.tgz:138920.got - 2010.06.03 18:47:42.
