data_PCOD9285397
_publ_section_title
;
Structure prediction by ZEFSAII (Michael W. Deem and Ramdas Pophale) SiO2 
 PCOD9285397
Probable space group: C 2/C
;
_chemical_formula_sum "Si O2"
_cell_formula_units_Z 40
_cell_length_a 22.634886
_cell_length_b 7.452834
_cell_length_c 19.337121
_cell_angle_alpha 90.000000
_cell_angle_beta 29.540926
_cell_angle_gamma 90.000000
_cell_volume 1608.341405
_symmetry_space_group_name_H-M "C 2/C"
_symmetry_group_IT_number 15
_symmetry_cell_setting 'monoclinic'
loop_
_space_group_symop_operation_xyz
x,y,z
-x,y,1/2-z
-x,-y,-z
x,-y,1/2+z
1/2+x,1/2+y,z
1/2-x,1/2+y,1/2-z
1/2-x,1/2-y,-z
1/2+x,1/2-y,1/2+z
loop_
_atom_site_type_symbol
_atom_site_label
_atom_site_fract_x
_atom_site_fract_y
_atom_site_fract_z
Si Si1 0.422946 0.732712 0.616062
Si Si2 0.860835 0.226752 0.306335
Si Si3 0.745144 0.947075 0.535914
Si Si4 0.822533 0.842189 0.691119
Si Si5 0.521802 0.424909 0.147731
O O1 0.377972 0.541171 0.632260
O O2 0.559099 0.774488 0.452091
O O3 0.444325 0.695188 0.675772
O O4 0.305407 0.845325 0.716954
O O5 0.864373 0.431664 0.326977
O O6 0.799025 0.206836 0.295254
O O7 0.799782 0.087793 0.423196
O O8 0.988878 0.132762 0.169434
O O9 0.750000 0.750000 0.500000
O O10 0.837044 0.920726 0.505849
O O11 0.500000 0.374494 0.250000
#
# Coordination Sequence:
#
# PCOD9285397 Si02
#       5
#     8   8   8   8   8
#     4  10  23  43  70  97 142 188 238 296 358 429
#     4   9  21  41  64  97 142 181 235 300 370 425
#     4  10  21  41  73 102 134 188 244 304 361 436
#     4  10  23  42  67 101 138 192 233 301 361 431
#     4   9  20  41  66  96 140 180 232 306 354 425
#
# _framework density 24.870342000000001
#
# number of rings (size 3 to 8) (size 9 to 14) (size 15 to 20)
#    0.000    2.400    0.000    0.000    8.400    5.600 
#    0.000   15.000    0.000    0.000    0.000    0.000 
#    0.000    0.000    0.000    0.000    0.000    0.000 
#
# Total GULP energy -111431.662045 kJ/mol
# GULP energy per Si atom -5571.583102 kJ/mol
# Density = 2.481374 g / cm^3
# Si number density = 24.870342 Si / 1000 Ang^3
#
#
#
# Elastic Constant Matrix: (Units=GPa)
#
#
# Indices 1 2 3 4 5 6 
#
# 1 173.8711 33.2246 37.1841 -0.0004 -18.4550 -0.0002
# 2 33.2246 149.1171 23.0981 -0.0051 -17.9096 0.0032
# 3 37.1841 23.0981 40.5935 -0.0029 -12.0953 0.0010
# 4 -0.0004 -0.0051 -0.0029 31.5453 0.0019 -7.1656
# 5 -18.4550 -17.9096 -12.0953 0.0019 27.7479 -0.0008
# 6 -0.0002 0.0032 0.0010 -7.1656 -0.0008 29.8723
#
#
#
# Elastic Compliance Matrix: (Units=1/GPa)
#
#
# Indices 1 2 3 4 5 6 
#
# 1 0.007300 -0.000485 -0.005813 -0.000001 0.002009 0.000000
# 2 -0.000485 0.007669 -0.002920 0.000001 0.003355 0.000000
# 3 -0.005813 -0.002920 0.034371 0.000002 0.009232 0.000000
# 4 -0.000001 0.000001 0.000002 0.033527 -0.000001 0.008042
# 5 0.002009 0.003355 0.009232 -0.000001 0.043564 0.000000
# 6 0.000000 0.000000 0.000000 0.008042 0.000000 0.035405
#
#
# Mechanical properties :
#
#
# Convention : Reuss Voigt Hill
#
# Bulk Modulus (GPa) = 32.35695 61.17728 46.76711
# Shear Modulus (GPa) = 26.23639 35.83810 31.03725
#
# Velocity S-wave (km/s) = 3.25149 3.80017 3.53648
# Velocity P-wave (km/s) = 5.20910 6.62623 5.95993
#
# Compressibility (1/GPa) = 0.03090526
#
# Stress axis : x y z
#
# Youngs Moduli (GPa) = 136.97912 130.38756 29.09403
#
# Poissons Ratio (x) = 0.06323 0.16912
# Poissons Ratio (y) = 0.06643 0.08496
# Poissons Ratio (z) = 0.79623 0.38076
#
# Static dielectric constant tensor:
#      x y z
#    x 2.004140 0.000000 -0.020110 
#    y 0.000000 2.051580 0.000000 
#    z -0.020110 0.000000 2.232950 
# 
# From -- ./inp_files/284047.got.cif
#   From: 2010.05.17/outbox.cif.g08.bks.cpg/sg15_143_cif.got.tgz:284047.got - 2010.06.03 18:47:42.
