data_PCOD9285631
_publ_section_title
;
Structure prediction by ZEFSAII (Michael W. Deem and Ramdas Pophale) SiO2 
 PCOD9285631
Probable space group: C 2/C
;
_chemical_formula_sum "Si O2"
_cell_formula_units_Z 44
_cell_length_a 18.128243
_cell_length_b 24.421144
_cell_length_c 5.086196
_cell_angle_alpha 90.000000
_cell_angle_beta 127.554944
_cell_angle_gamma 90.000000
_cell_volume 1785.096014
_symmetry_space_group_name_H-M "C 2/C"
_symmetry_group_IT_number 15
_symmetry_cell_setting 'monoclinic'
loop_
_space_group_symop_operation_xyz
x,y,z
-x,y,1/2-z
-x,-y,-z
x,-y,1/2+z
1/2+x,1/2+y,z
1/2-x,1/2+y,1/2-z
1/2-x,1/2-y,-z
1/2+x,1/2-y,1/2+z
loop_
_atom_site_type_symbol
_atom_site_label
_atom_site_fract_x
_atom_site_fract_y
_atom_site_fract_z
Si Si1 0.907302 0.697263 0.673096
Si Si2 0.500000 0.419982 0.250000
Si Si3 0.500000 0.654643 0.250000
Si Si4 0.817836 0.383896 0.564323
Si Si5 0.802727 0.209656 0.826241
Si Si6 0.197358 0.031115 0.118597
Si Si7 0.000000 0.609298 0.250000
O O1 0.860448 0.662528 0.343605
O O2 0.842655 0.746744 0.628409
O O3 0.000000 0.722791 0.750000
O O4 0.944852 0.651498 0.946983
O O5 0.526568 0.382461 0.556305
O O6 0.411632 0.456311 0.135187
O O7 0.597642 0.683843 0.551119
O O8 0.757451 0.344715 0.238208
O O9 0.751471 0.419505 0.601867
O O10 0.909534 0.419134 0.678538
O O11 0.750000 0.250000 0.500000
O O12 0.220289 0.980538 0.972254
#
# Coordination Sequence:
#
# PCOD9285631 Si02
#       7
#     8   4   4   8   8   8   4
#     4   9  19  38  65  95 144 187 242 284 360 423
#     4  12  26  48  74 108 148 194 238 310 372 442
#     4  12  24  45  74 112 158 196 246 299 362 436
#     4  10  23  43  67 101 142 188 239 304 365 432
#     4  10  21  42  65 104 153 195 249 294 358 430
#     4  12  27  48  78 107 140 186 245 306 381 449
#     4  10  22  39  70 100 142 192 240 303 362 434
#
# _framework density 24.648536
#
# number of rings (size 3 to 8) (size 9 to 14) (size 15 to 20)
#    0.000    1.455    2.727    1.636    2.545    1.455 
#    0.000    0.909    0.000    0.000    0.000    0.000 
#    0.000    0.000    0.000    0.000    0.000    0.000 
#
# Total GULP energy -122604.258560 kJ/mol
# GULP energy per Si atom -5572.920844 kJ/mol
# Density = 2.459243 g / cm^3
# Si number density = 24.648536 Si / 1000 Ang^3
#
#
#
# Elastic Constant Matrix: (Units=GPa)
#
#
# Indices 1 2 3 4 5 6 
#
# 1 141.6235 28.3684 15.2987 0.0000 34.5206 0.0000
# 2 28.3684 46.0813 1.3732 0.0000 12.9552 0.0000
# 3 15.2987 1.3732 62.5254 0.0000 2.2509 0.0000
# 4 0.0000 0.0000 0.0000 30.4154 0.0000 7.0766
# 5 34.5206 12.9552 2.2509 0.0000 46.6290 0.0000
# 6 0.0000 0.0000 0.0000 7.0766 0.0000 31.3734
#
#
#
# Elastic Compliance Matrix: (Units=1/GPa)
#
#
# Indices 1 2 3 4 5 6 
#
# 1 0.009530 -0.004177 -0.002031 0.000000 -0.005797 0.000000
# 2 -0.004177 0.025375 0.000608 0.000000 -0.003987 0.000000
# 3 -0.002031 0.000608 0.016458 0.000000 0.000540 0.000000
# 4 0.000000 0.000000 0.000000 0.034699 0.000000 -0.007827
# 5 -0.005797 -0.003987 0.000540 0.000000 0.026819 0.000000
# 6 0.000000 0.000000 0.000000 -0.007827 0.000000 0.033640
#
#
# Mechanical properties :
#
#
# Convention : Reuss Voigt Hill
#
# Bulk Modulus (GPa) = 24.89860 37.81233 31.35546
# Shear Modulus (GPa) = 29.22139 35.36289 32.29214
#
# Velocity S-wave (km/s) = 3.44688 3.79183 3.62346
# Velocity P-wave (km/s) = 5.09555 5.87746 5.50042
#
# Compressibility (1/GPa) = 0.04016291
#
# Stress axis : x y z
#
# Youngs Moduli (GPa) = 104.93189 39.40920 60.76179
#
# Poissons Ratio (x) = 0.16460 0.12343
# Poissons Ratio (y) = 0.43826 -0.03695
# Poissons Ratio (z) = 0.21316 -0.02397
#
# Static dielectric constant tensor:
#      x y z
#    x 2.142060 0.000000 0.064190 
#    y 0.000000 2.007100 0.000000 
#    z 0.064190 0.000000 2.052950 
# 
# From -- ./inp_files/11665.got.cif
#   From: 2010.05.17/outbox.cif.g08.bks.cpg/sg15_6_cif.got.tgz:11665.got - 2010.06.03 18:47:42.
