data_PCOD9285408
_publ_section_title
;
Structure prediction by ZEFSAII (Michael W. Deem and Ramdas Pophale) SiO2 
 PCOD9285408
Probable space group: C 2/C
;
_chemical_formula_sum "Si O2"
_cell_formula_units_Z 32
_cell_length_a 13.753881
_cell_length_b 7.684504
_cell_length_c 20.832124
_cell_angle_alpha 90.000000
_cell_angle_beta 148.954859
_cell_angle_gamma 90.000000
_cell_volume 1135.489018
_symmetry_space_group_name_H-M "C 2/C"
_symmetry_group_IT_number 15
_symmetry_cell_setting 'monoclinic'
loop_
_space_group_symop_operation_xyz
x,y,z
-x,y,1/2-z
-x,-y,-z
x,-y,1/2+z
1/2+x,1/2+y,z
1/2-x,1/2+y,1/2-z
1/2-x,1/2-y,-z
1/2+x,1/2-y,1/2+z
loop_
_atom_site_type_symbol
_atom_site_label
_atom_site_fract_x
_atom_site_fract_y
_atom_site_fract_z
Si Si1 0.609798 0.420084 0.501169
Si Si2 0.081116 0.330430 0.361511
Si Si3 0.707863 0.368203 0.738973
Si Si4 0.201241 0.856855 0.328851
O O1 0.500000 0.500000 0.500000
O O2 0.814632 0.498944 0.604164
O O3 0.467232 0.494618 0.367999
O O4 0.649868 0.218599 0.534241
O O5 0.250000 0.250000 0.500000
O O6 0.000000 0.247002 0.250000
O O7 0.894947 0.314178 0.299015
O O8 0.801598 0.303289 0.725992
O O9 0.786625 0.466591 0.845965
O O10 0.000000 0.874079 0.250000
#
# Coordination Sequence:
#
# PCOD9285408 Si02
#       4
#     8   8   8   8
#     4   9  21  41  68 102 142 191 244 307 371 436
#     4  10  21  41  75 109 146 199 249 304 376 449
#     4  10  24  43  70 102 140 193 247 305 381 442
#     4  11  24  43  67 103 141 186 245 307 369 450
#
# _framework density 28.18169
#
# number of rings (size 3 to 8) (size 9 to 14) (size 15 to 20)
#    0.000    2.000    0.000    1.500   10.500    1.000 
#    0.000    3.750    0.000    0.000    0.000    0.000 
#    0.000    0.000    0.000    0.000    0.000    0.000 
#
# Total GULP energy -89145.784001 kJ/mol
# GULP energy per Si atom -5571.611500 kJ/mol
# Density = 2.811755 g / cm^3
# Si number density = 28.181690 Si / 1000 Ang^3
#
#
#
# Elastic Constant Matrix: (Units=GPa)
#
#
# Indices 1 2 3 4 5 6 
#
# 1 185.2172 43.9912 43.7760 -0.0001 24.7483 0.0000
# 2 43.9912 117.0574 55.2494 0.0003 26.9944 0.0000
# 3 43.7760 55.2494 105.3204 0.0006 9.2414 0.0000
# 4 -0.0001 0.0003 0.0006 23.3790 0.0001 10.9277
# 5 24.7483 26.9944 9.2414 0.0001 41.0401 0.0000
# 6 0.0000 0.0000 0.0000 10.9277 0.0000 51.5862
#
#
#
# Elastic Compliance Matrix: (Units=1/GPa)
#
#
# Indices 1 2 3 4 5 6 
#
# 1 0.006453 -0.000809 -0.002002 0.000000 -0.002908 0.000000
# 2 -0.000809 0.013280 -0.006025 0.000000 -0.006890 0.000000
# 3 -0.002002 -0.006025 0.013297 0.000000 0.002177 0.000000
# 4 0.000000 0.000000 0.000000 0.047474 0.000000 -0.010057
# 5 -0.002908 -0.006890 0.002177 0.000000 0.030162 0.000000
# 6 0.000000 0.000000 0.000000 -0.010057 0.000000 0.021515
#
#
# Mechanical properties :
#
#
# Convention : Reuss Voigt Hill
#
# Bulk Modulus (GPa) = 65.12334 77.06979 71.09656
# Shear Modulus (GPa) = 32.26345 40.83962 36.55154
#
# Velocity S-wave (km/s) = 3.38722 3.81091 3.60529
# Velocity P-wave (km/s) = 6.20131 6.83892 6.52790
#
# Compressibility (1/GPa) = 0.01535548
#
# Stress axis : x y z
#
# Youngs Moduli (GPa) = 154.96268 75.30262 75.20507
#
# Poissons Ratio (x) = 0.06095 0.15060
# Poissons Ratio (y) = 0.12542 0.45314
# Poissons Ratio (z) = 0.31031 0.45373
#
# Static dielectric constant tensor:
#      x y z
#    x 2.324000 0.000000 -0.237070 
#    y 0.000000 2.411030 0.000000 
#    z -0.237070 0.000000 2.624540 
# 
# From -- ./inp_files/272985.got.cif
#   From: 2010.05.17/outbox.cif.g08.bks.cpg/sg15_137_cif.got.tgz:272985.got - 2010.06.03 18:47:42.
