data_PCOD9285095
_publ_section_title
;
Structure prediction by ZEFSAII (Michael W. Deem and Ramdas Pophale) SiO2 
 PCOD9285095
Probable space group: C 2/C
;
_chemical_formula_sum "Si O2"
_cell_formula_units_Z 44
_cell_length_a 10.583674
_cell_length_b 8.842259
_cell_length_c 26.746587
_cell_angle_alpha 90.000000
_cell_angle_beta 121.560880
_cell_angle_gamma 90.000000
_cell_volume 2132.802899
_symmetry_space_group_name_H-M "C 2/C"
_symmetry_group_IT_number 15
_symmetry_cell_setting 'monoclinic'
loop_
_space_group_symop_operation_xyz
x,y,z
-x,y,1/2-z
-x,-y,-z
x,-y,1/2+z
1/2+x,1/2+y,z
1/2-x,1/2+y,1/2-z
1/2-x,1/2-y,-z
1/2+x,1/2-y,1/2+z
loop_
_atom_site_type_symbol
_atom_site_label
_atom_site_fract_x
_atom_site_fract_y
_atom_site_fract_z
Si Si1 0.030266 0.426905 0.836957
Si Si2 0.597058 0.159942 0.464667
Si Si3 0.588128 0.723227 0.339536
Si Si4 0.317431 0.422977 0.745768
Si Si5 0.500000 0.702999 0.750000
Si Si6 0.681327 0.842417 0.531111
O O1 0.857100 0.436027 0.785689
O O2 0.086376 0.305416 0.808177
O O3 0.050412 0.367083 0.897433
O O4 0.095253 0.595606 0.845845
O O5 0.750000 0.250000 0.500000
O O6 0.459734 0.226988 0.468303
O O7 0.630474 0.998889 0.496657
O O8 0.650164 0.666836 0.299182
O O9 0.417940 0.666264 0.306525
O O10 0.688269 0.643444 0.401572
O O11 0.388516 0.589482 0.755234
O O12 0.750000 0.750000 0.500000
#
# Coordination Sequence:
#
# PCOD9285095 Si02
#       6
#     8   8   8   8   4   8
#     4  12  22  43  63  96 131 169 216 271 327 393
#     4  11  27  42  69  97 136 173 226 280 327 394
#     4  10  21  41  67  91 127 171 220 267 331 393
#     4  10  23  42  64  91 128 172 211 274 331 382
#     4  10  24  36  64  96 124 164 218 260 330 388
#     4  11  23  48  68  95 131 181 223 274 331 393
#
# _framework density 20.630130000000001
#
# number of rings (size 3 to 8) (size 9 to 14) (size 15 to 20)
#    0.000    1.455    3.636    2.182    5.091    0.727 
#    3.273    0.000    0.000    0.000    0.000    0.000 
#    0.000    0.000    0.000    0.000    0.000    0.000 
#
# Total GULP energy -122856.629594 kJ/mol
# GULP energy per Si atom -5584.392254 kJ/mol
# Density = 2.058317 g / cm^3
# Si number density = 20.630130 Si / 1000 Ang^3
#
#
#
# Elastic Constant Matrix: (Units=GPa)
#
#
# Indices 1 2 3 4 5 6 
#
# 1 77.4247 21.3768 42.9644 0.0000 0.2803 0.0000
# 2 21.3768 74.2319 17.4026 0.0000 -16.9397 0.0000
# 3 42.9644 17.4026 132.8731 0.0000 -0.7538 0.0000
# 4 0.0000 0.0000 0.0000 27.2051 0.0000 1.8584
# 5 0.2803 -16.9397 -0.7538 0.0000 31.9407 0.0000
# 6 0.0000 0.0000 0.0000 1.8584 0.0000 26.7385
#
#
#
# Elastic Compliance Matrix: (Units=1/GPa)
#
#
# Indices 1 2 3 4 5 6 
#
# 1 0.016820 -0.004274 -0.004893 0.000000 -0.002530 0.000000
# 2 -0.004274 0.016941 -0.000786 0.000000 0.009004 0.000000
# 3 -0.004893 -0.000786 0.009210 0.000000 -0.000156 0.000000
# 4 0.000000 0.000000 0.000000 0.036933 0.000000 -0.002567
# 5 -0.002530 0.009004 -0.000156 0.000000 0.036101 0.000000
# 6 0.000000 0.000000 0.000000 -0.002567 0.000000 0.037578
#
#
# Mechanical properties :
#
#
# Convention : Reuss Voigt Hill
#
# Bulk Modulus (GPa) = 43.35505 49.77972 46.56738
# Shear Modulus (GPa) = 27.59710 30.69594 29.14652
#
# Velocity S-wave (km/s) = 3.66144 3.86154 3.76282
# Velocity P-wave (km/s) = 6.23986 6.63807 6.44204
#
# Compressibility (1/GPa) = 0.02306537
#
# Stress axis : x y z
#
# Youngs Moduli (GPa) = 59.45160 59.02883 108.57427
#
# Poissons Ratio (x) = 0.25228 0.53130
# Poissons Ratio (y) = 0.25409 0.08531
# Poissons Ratio (z) = 0.29092 0.04638
#
# Static dielectric constant tensor:
#      x y z
#    x 1.812340 0.000000 0.031570 
#    y 0.000000 1.739870 0.000000 
#    z 0.031570 0.000000 1.823840 
# 
# From -- ./inp_files/268151.got.cif
#   From: 2010.05.17/outbox.cif.g08.bks.cpg/sg15_135_cif.got.tgz:268151.got - 2010.06.03 18:47:42.
