data_PCOD9285280
_publ_section_title
;
Structure prediction by ZEFSAII (Michael W. Deem and Ramdas Pophale) SiO2 
 PCOD9285280
Probable space group: C 2/C
;
_chemical_formula_sum "Si O2"
_cell_formula_units_Z 48
_cell_length_a 14.657524
_cell_length_b 17.458308
_cell_length_c 9.394271
_cell_angle_alpha 90.000000
_cell_angle_beta 89.274668
_cell_angle_gamma 90.000000
_cell_volume 2403.759691
_symmetry_space_group_name_H-M "C 2/C"
_symmetry_group_IT_number 15
_symmetry_cell_setting 'monoclinic'
loop_
_space_group_symop_operation_xyz
x,y,z
-x,y,1/2-z
-x,-y,-z
x,-y,1/2+z
1/2+x,1/2+y,z
1/2-x,1/2+y,1/2-z
1/2-x,1/2-y,-z
1/2+x,1/2-y,1/2+z
loop_
_atom_site_type_symbol
_atom_site_label
_atom_site_fract_x
_atom_site_fract_y
_atom_site_fract_z
Si Si1 0.242150 0.954353 0.676295
Si Si2 0.177864 0.151775 0.432208
Si Si3 0.898834 0.094579 0.797742
Si Si4 0.659215 0.816838 0.349275
Si Si5 0.769001 0.167858 0.576519
Si Si6 0.563541 0.036872 0.882557
O O1 0.225411 0.905349 0.820066
O O2 0.226023 0.897668 0.543187
O O3 0.169846 0.022919 0.692330
O O4 0.341304 0.992541 0.649288
O O5 0.098999 0.122569 0.538400
O O6 0.254801 0.172047 0.547637
O O7 0.142470 0.226700 0.351683
O O8 0.855700 0.155008 0.682634
O O9 0.000000 0.073228 0.750000
O O10 0.685896 0.842776 0.189854
O O11 0.585000 0.874178 0.411554
O O12 0.750000 0.250000 0.500000
O O13 0.500000 0.033655 0.750000
O O14 0.500000 0.000000 0.000000
#
# Coordination Sequence:
#
# PCOD9285280 Si02
#       6
#     8   8   8   8   8   8
#     4  12  23  42  73  98 135 180 226 286 342 404
#     4  10  21  41  69  94 132 181 220 276 344 396
#     4  11  26  46  68 101 137 178 229 279 342 412
#     4  10  21  43  64  95 138 177 221 275 338 409
#     4  11  22  43  71  99 134 179 225 276 342 395
#     4  12  25  42  66 102 138 179 226 279 341 409
#
# _framework density 19.968717999999999
#
# number of rings (size 3 to 8) (size 9 to 14) (size 15 to 20)
#    0.000    1.000    5.000    3.000    0.000    2.667 
#    6.000    0.833    0.000    0.000    0.000    0.000 
#    0.000    0.000    0.000    0.000    0.000    0.000 
#
# Total GULP energy -133821.542648 kJ/mol
# GULP energy per Si atom -5575.897610 kJ/mol
# Density = 1.992327 g / cm^3
# Si number density = 19.968718 Si / 1000 Ang^3
#
#
#
# Elastic Constant Matrix: (Units=GPa)
#
#
# Indices 1 2 3 4 5 6 
#
# 1 121.3903 51.4900 29.0547 0.0000 -29.5396 0.0000
# 2 51.4900 119.2322 47.9008 0.0000 -18.6542 0.0000
# 3 29.0547 47.9008 80.2342 0.0000 -14.0684 0.0000
# 4 0.0000 0.0000 0.0000 39.5126 0.0000 -5.8145
# 5 -29.5396 -18.6542 -14.0684 0.0000 28.3218 0.0000
# 6 0.0000 0.0000 0.0000 -5.8145 0.0000 18.6094
#
#
#
# Elastic Compliance Matrix: (Units=1/GPa)
#
#
# Indices 1 2 3 4 5 6 
#
# 1 0.012368 -0.003493 -0.000586 0.000000 0.010308 0.000000
# 2 -0.003493 0.012538 -0.005928 0.000000 0.001671 0.000000
# 3 -0.000586 -0.005928 0.016894 0.000000 0.003877 0.000000
# 4 0.000000 0.000000 0.000000 0.026528 0.000000 0.008289
# 5 0.010308 0.001671 0.003877 0.000000 0.049086 0.000000
# 6 0.000000 0.000000 0.000000 0.008289 0.000000 0.056326
#
#
# Mechanical properties :
#
#
# Convention : Reuss Voigt Hill
#
# Bulk Modulus (GPa) = 45.89792 64.19421 55.04607
# Shear Modulus (GPa) = 24.87355 30.11616 27.49486
#
# Velocity S-wave (km/s) = 3.53317 3.88773 3.71468
# Velocity P-wave (km/s) = 6.29914 7.23669 6.78413
#
# Compressibility (1/GPa) = 0.02178748
#
# Stress axis : x y z
#
# Youngs Moduli (GPa) = 80.85236 79.75623 59.19154
#
# Poissons Ratio (x) = 0.27859 0.03469
# Poissons Ratio (y) = 0.28242 0.35087
# Poissons Ratio (z) = 0.04738 0.47277
#
# Static dielectric constant tensor:
#      x y z
#    x 1.700570 0.000000 -0.000440 
#    y 0.000000 1.746290 0.000000 
#    z -0.000440 0.000000 1.720950 
# 
# From -- ./inp_files/39618.got.cif
#   From: 2010.05.17/outbox.cif.g08.bks.cpg/sg15_20_cif.got.tgz:39618.got - 2010.06.03 18:47:42.
