data_PCOD9285436
_publ_section_title
;
Structure prediction by ZEFSAII (Michael W. Deem and Ramdas Pophale) SiO2 
 PCOD9285436
Probable space group: C 2/C
;
_chemical_formula_sum "Si O2"
_cell_formula_units_Z 40
_cell_length_a 9.448958
_cell_length_b 15.877235
_cell_length_c 14.013335
_cell_angle_alpha 90.000000
_cell_angle_beta 133.976238
_cell_angle_gamma 90.000000
_cell_volume 1512.893115
_symmetry_space_group_name_H-M "C 2/C"
_symmetry_group_IT_number 15
_symmetry_cell_setting 'monoclinic'
loop_
_space_group_symop_operation_xyz
x,y,z
-x,y,1/2-z
-x,-y,-z
x,-y,1/2+z
1/2+x,1/2+y,z
1/2-x,1/2+y,1/2-z
1/2-x,1/2-y,-z
1/2+x,1/2-y,1/2+z
loop_
_atom_site_type_symbol
_atom_site_label
_atom_site_fract_x
_atom_site_fract_y
_atom_site_fract_z
Si Si1 0.697066 0.881167 0.947909
Si Si2 0.483865 0.706187 0.040738
Si Si3 0.219595 0.339005 0.670514
Si Si4 0.788897 0.045407 0.891703
Si Si5 0.713073 0.973130 0.140147
O O1 0.851625 0.823544 0.962279
O O2 0.477338 0.845152 0.855606
O O3 0.667727 0.972424 0.885390
O O4 0.783094 0.906824 0.093056
O O5 0.608821 0.709790 0.195105
O O6 0.372122 0.790289 0.960802
O O7 0.323131 0.632002 0.961624
O O8 0.299825 0.432788 0.690237
O O9 0.728903 0.061817 0.754490
O O10 0.000000 0.000000 0.000000
O O11 0.500000 0.000000 0.000000
#
# Coordination Sequence:
#
# PCOD9285436 Si02
#       5
#     8   8   8   8   8
#     4  10  22  41  69  89 121 170 216 256 308 370
#     4  11  24  40  63  93 134 160 206 262 319 364
#     4  11  23  42  60  97 130 163 203 265 312 373
#     4  10  21  42  60  88 126 166 207 263 305 368
#     4  10  22  38  64  91 124 165 214 253 311 373
#
# _framework density 26.439406999999999
#
# number of rings (size 3 to 8) (size 9 to 14) (size 15 to 20)
#    0.000    1.600    4.000    1.200    8.400    3.200 
#    0.000    1.000    0.000    0.000    0.000    0.000 
#    0.000    0.000    0.000    0.000    0.000    0.000 
#
# Total GULP energy -111916.621758 kJ/mol
# GULP energy per Si atom -5595.831088 kJ/mol
# Density = 2.637923 g / cm^3
# Si number density = 26.439407 Si / 1000 Ang^3
#
#
#
# Elastic Constant Matrix: (Units=GPa)
#
#
# Indices 1 2 3 4 5 6 
#
# 1 97.9792 28.9985 60.1921 0.0000 -11.3288 0.0000
# 2 28.9985 58.0416 14.9904 0.0000 8.8882 0.0000
# 3 60.1921 14.9904 197.9672 -0.0001 -13.6932 -0.0001
# 4 0.0000 0.0000 -0.0001 45.9883 0.0000 -12.2514
# 5 -11.3288 8.8882 -13.6932 0.0000 36.5931 0.0000
# 6 0.0000 0.0000 -0.0001 -12.2514 0.0000 32.4422
#
#
#
# Elastic Compliance Matrix: (Units=1/GPa)
#
#
# Indices 1 2 3 4 5 6 
#
# 1 0.015307 -0.007474 -0.003731 0.000000 0.005158 0.000000
# 2 -0.007474 0.022119 0.000068 0.000000 -0.007661 0.000000
# 3 -0.003731 0.000068 0.006262 0.000000 0.001172 0.000000
# 4 0.000000 0.000000 0.000000 0.024177 0.000000 0.009130
# 5 0.005158 -0.007661 0.001172 0.000000 0.031224 0.000000
# 6 0.000000 0.000000 0.000000 0.009130 0.000000 0.034272
#
#
# Mechanical properties :
#
#
# Convention : Reuss Voigt Hill
#
# Bulk Modulus (GPa) = 46.70184 62.48333 54.59259
# Shear Modulus (GPa) = 30.71774 39.65851 35.18812
#
# Velocity S-wave (km/s) = 3.41224 3.87716 3.65210
# Velocity P-wave (km/s) = 5.76425 6.61264 6.20297
#
# Compressibility (1/GPa) = 0.02141243
#
# Stress axis : x y z
#
# Youngs Moduli (GPa) = 65.32991 45.21059 159.69881
#
# Poissons Ratio (x) = 0.33789 0.59590
# Poissons Ratio (y) = 0.48826 -0.01080
# Poissons Ratio (z) = 0.24377 -0.00306
#
# Static dielectric constant tensor:
#      x y z
#    x 2.340870 0.000000 -0.062140 
#    y 0.000000 2.091410 0.000000 
#    z -0.062140 0.000000 2.074610 
# 
# From -- ./inp_files/86849.got.cif
#   From: 2010.05.17/outbox.cif.g08.bks.cpg/sg15_44_cif.got.tgz:86849.got - 2010.06.03 18:47:42.
