data_PCOD9285702
_publ_section_title
;
Structure prediction by ZEFSAII (Michael W. Deem and Ramdas Pophale) SiO2 
 PCOD9285702
Probable space group: C 2/C
;
_chemical_formula_sum "Si O2"
_cell_formula_units_Z 60
_cell_length_a 15.632519
_cell_length_b 14.828955
_cell_length_c 20.212802
_cell_angle_alpha 90.000000
_cell_angle_beta 141.813498
_cell_angle_gamma 90.000000
_cell_volume 2896.752316
_symmetry_space_group_name_H-M "C 2/C"
_symmetry_group_IT_number 15
_symmetry_cell_setting 'monoclinic'
loop_
_space_group_symop_operation_xyz
x,y,z
-x,y,1/2-z
-x,-y,-z
x,-y,1/2+z
1/2+x,1/2+y,z
1/2-x,1/2+y,1/2-z
1/2-x,1/2-y,-z
1/2+x,1/2-y,1/2+z
loop_
_atom_site_type_symbol
_atom_site_label
_atom_site_fract_x
_atom_site_fract_y
_atom_site_fract_z
Si Si1 0.351586 0.035562 0.931707
Si Si2 0.302674 0.686155 0.883978
Si Si3 0.000000 0.757880 0.250000
Si Si4 0.352967 0.629391 0.197253
Si Si5 0.800311 0.506866 0.168940
Si Si6 0.088868 0.406187 0.888443
Si Si7 0.099911 0.863618 0.617557
Si Si8 0.785008 0.189149 0.721562
O O1 0.300061 0.098563 0.841001
O O2 0.246328 0.953889 0.880810
O O3 0.368110 0.091635 0.009645
O O4 0.500000 0.000000 0.000000
O O5 0.228794 0.776649 0.864266
O O6 0.201570 0.600231 0.826054
O O7 0.339525 0.698970 0.828968
O O8 0.441624 0.658764 0.006076
O O9 0.081830 0.691316 0.349679
O O10 0.097922 0.814217 0.262628
O O11 0.500000 0.627487 0.250000
O O12 0.379531 0.623529 0.291994
O O13 0.814263 0.534601 0.100584
O O14 0.664345 0.551362 0.118239
O O15 0.934135 0.551819 0.285739
O O16 0.190759 0.776750 0.651707
#
# Coordination Sequence:
#
# PCOD9285702 Si02
#       8
#     8   8   4   8   8   8   8   8
#     4  12  26  44  70  95 135 183 224 273 343 404
#     4  11  25  41  69  92 130 181 223 269 339 397
#     4  10  22  42  64 100 138 160 216 288 330 406
#     4  11  28  46  62  99 140 172 230 287 319 404
#     4  10  21  42  66 100 126 174 224 279 324 411
#     4  10  22  41  71  93 135 172 223 274 342 396
#     4  11  22  43  69  93 135 170 222 280 341 394
#     4  11  24  41  66 100 127 171 219 278 339 400
#
# _framework density 20.712852000000002
#
# number of rings (size 3 to 8) (size 9 to 14) (size 15 to 20)
#    0.000    1.333    2.667    3.600    8.400    3.200 
#    0.000    0.000    0.000    0.000    0.000    0.000 
#    0.000    0.000    0.000    0.000    0.000    0.000 
#
# Total GULP energy -167758.870993 kJ/mol
# GULP energy per Si atom -5591.962366 kJ/mol
# Density = 2.066571 g / cm^3
# Si number density = 20.712852 Si / 1000 Ang^3
#
#
#
# Elastic Constant Matrix: (Units=GPa)
#
#
# Indices 1 2 3 4 5 6 
#
# 1 97.7094 -2.9030 13.8290 0.0000 13.6764 0.0000
# 2 -2.9030 62.5413 2.1027 0.0000 4.8011 0.0000
# 3 13.8290 2.1027 59.6146 0.0000 -0.0225 0.0000
# 4 0.0000 0.0000 0.0000 27.7500 0.0000 -2.1618
# 5 13.6764 4.8011 -0.0225 0.0000 23.8172 0.0000
# 6 0.0000 0.0000 0.0000 -2.1618 0.0000 28.7302
#
#
#
# Elastic Compliance Matrix: (Units=1/GPa)
#
#
# Indices 1 2 3 4 5 6 
#
# 1 0.011624 0.001162 -0.002740 0.000000 -0.006912 0.000000
# 2 0.001162 0.016377 -0.000849 0.000000 -0.003969 0.000000
# 3 -0.002740 -0.000849 0.017441 0.000000 0.001761 0.000000
# 4 0.000000 0.000000 0.000000 0.036249 0.000000 0.002728
# 5 -0.006912 -0.003969 0.001761 0.000000 0.046757 0.000000
# 6 0.000000 0.000000 0.000000 0.002728 0.000000 0.035012
#
#
# Mechanical properties :
#
#
# Convention : Reuss Voigt Hill
#
# Bulk Modulus (GPa) = 24.63763 27.32476 25.98119
# Shear Modulus (GPa) = 27.49646 29.84859 28.67253
#
# Velocity S-wave (km/s) = 3.64745 3.80026 3.72464
# Velocity P-wave (km/s) = 5.44603 5.69884 5.57386
#
# Compressibility (1/GPa) = 0.04058833
#
# Stress axis : x y z
#
# Youngs Moduli (GPa) = 86.02730 61.06263 57.33730
#
# Poissons Ratio (x) = -0.07097 0.15711
# Poissons Ratio (y) = -0.09999 0.04867
# Poissons Ratio (z) = 0.23572 0.05183
#
# Static dielectric constant tensor:
#      x y z
#    x 1.751800 0.000000 0.007320 
#    y 0.000000 1.741250 0.000000 
#    z 0.007320 0.000000 1.730240 
# 
# From -- ./inp_files/244715.got.cif
#   From: 2010.05.17/outbox.cif.g08.bks.cpg/sg15_123_cif.got.tgz:244715.got - 2010.06.03 18:47:42.
