data_PCOD9285584
_publ_section_title
;
Structure prediction by ZEFSAII (Michael W. Deem and Ramdas Pophale) SiO2 
 PCOD9285584
Probable space group: C 2/C
;
_chemical_formula_sum "Si O2"
_cell_formula_units_Z 56
_cell_length_a 14.522606
_cell_length_b 18.538281
_cell_length_c 15.666763
_cell_angle_alpha 90.000000
_cell_angle_beta 38.491990
_cell_angle_gamma 90.000000
_cell_volume 2625.224912
_symmetry_space_group_name_H-M "C 2/C"
_symmetry_group_IT_number 15
_symmetry_cell_setting 'monoclinic'
loop_
_space_group_symop_operation_xyz
x,y,z
-x,y,1/2-z
-x,-y,-z
x,-y,1/2+z
1/2+x,1/2+y,z
1/2-x,1/2+y,1/2-z
1/2-x,1/2-y,-z
1/2+x,1/2-y,1/2+z
loop_
_atom_site_type_symbol
_atom_site_label
_atom_site_fract_x
_atom_site_fract_y
_atom_site_fract_z
Si Si1 0.426289 0.241230 0.885527
Si Si2 0.928678 0.096540 0.418539
Si Si3 0.616976 0.657866 0.864376
Si Si4 0.371398 0.686529 0.912724
Si Si5 0.223098 0.053954 0.141102
Si Si6 0.682343 0.900255 0.433734
Si Si7 0.594665 0.819307 0.920953
O O1 0.500000 0.206959 0.750000
O O2 0.483956 0.322788 0.853936
O O3 0.465573 0.197149 0.940562
O O4 0.250000 0.250000 0.000000
O O5 0.883153 0.109885 0.549564
O O6 0.806303 0.077563 0.435810
O O7 0.062141 0.041305 0.301514
O O8 0.453293 0.668214 0.941623
O O9 0.723528 0.625091 0.716404
O O10 0.660483 0.741806 0.847984
O O11 0.500000 0.704207 0.750000
O O12 0.284577 0.617301 0.940563
O O13 0.250000 0.750000 0.000000
O O14 0.330494 0.985715 0.064209
O O15 0.289426 0.118017 0.148593
O O16 0.535151 0.851908 0.542662
#
# Coordination Sequence:
#
# PCOD9285584 Si02
#       7
#     8   8   8   8   8   8   8
#     4  11  20  36  61  96 125 162 207 266 316 374
#     4  10  22  38  63  91 123 162 214 257 318 384
#     4  10  24  39  67  94 117 160 224 264 308 375
#     4  10  21  42  64  93 124 165 216 271 309 366
#     4  11  23  42  61  91 133 168 199 260 334 392
#     4  11  25  41  64  90 129 169 208 262 325 379
#     4  11  23  37  66  91 126 160 211 256 321 383
#
# _framework density 21.331505
#
# number of rings (size 3 to 8) (size 9 to 14) (size 15 to 20)
#    0.000    1.429    4.286    0.429   14.000    0.571 
#    0.000    0.000    0.000    0.000    0.000    0.000 
#    0.000    0.000    0.000    0.000    0.000    0.000 
#
# Total GULP energy -156280.159734 kJ/mol
# GULP energy per Si atom -5581.434276 kJ/mol
# Density = 2.128295 g / cm^3
# Si number density = 21.331505 Si / 1000 Ang^3
#
#
#
# Elastic Constant Matrix: (Units=GPa)
#
#
# Indices 1 2 3 4 5 6 
#
# 1 92.9103 18.7256 10.9064 0.0003 -6.2942 -0.0001
# 2 18.7256 65.9116 5.6706 0.0001 -1.0080 0.0004
# 3 10.9064 5.6706 25.9124 0.0017 -11.5264 -0.0001
# 4 0.0003 0.0001 0.0017 14.4313 0.0000 -2.7851
# 5 -6.2942 -1.0080 -11.5264 0.0000 27.4308 -0.0005
# 6 -0.0001 0.0004 -0.0001 -2.7851 -0.0005 26.4421
#
#
#
# Elastic Compliance Matrix: (Units=1/GPa)
#
#
# Indices 1 2 3 4 5 6 
#
# 1 0.011899 -0.003029 -0.003911 0.000000 0.000975 0.000000
# 2 -0.003029 0.016259 -0.002861 0.000000 -0.001300 0.000000
# 3 -0.003911 -0.002861 0.049709 -0.000006 0.019885 0.000000
# 4 0.000000 0.000000 -0.000006 0.070732 -0.000002 0.007450
# 5 0.000975 -0.001300 0.019885 -0.000002 0.044987 0.000001
# 6 0.000000 0.000000 0.000000 0.007450 0.000001 0.038603
#
#
# Mechanical properties :
#
#
# Convention : Reuss Voigt Hill
#
# Bulk Modulus (GPa) = 17.16345 28.37107 22.76726
# Shear Modulus (GPa) = 18.43564 23.62294 21.02929
#
# Velocity S-wave (km/s) = 2.94299 3.33140 3.14320
# Velocity P-wave (km/s) = 4.42852 5.30345 4.88561
#
# Compressibility (1/GPa) = 0.05826334
#
# Stress axis : x y z
#
# Youngs Moduli (GPa) = 84.04229 61.50557 20.11689
#
# Poissons Ratio (x) = 0.18630 0.07869
# Poissons Ratio (y) = 0.25457 0.05756
# Poissons Ratio (z) = 0.32872 0.17599
#
# Static dielectric constant tensor:
#      x y z
#    x 1.527670 0.000000 -0.172440 
#    y 0.000000 1.791300 0.000000 
#    z -0.172440 0.000000 1.744230 
# 
# From -- ./inp_files/206259.got.cif
#   From: 2010.05.17/outbox.cif.g08.bks.cpg/sg15_104_cif.got.tgz:206259.got - 2010.06.03 18:47:42.
