data_PCOD9285577
_publ_section_title
;
Structure prediction by ZEFSAII (Michael W. Deem and Ramdas Pophale) SiO2 
 PCOD9285577
Probable space group: C 2/C
;
_chemical_formula_sum "Si O2"
_cell_formula_units_Z 40
_cell_length_a 10.113186
_cell_length_b 10.669601
_cell_length_c 15.845201
_cell_angle_alpha 90.000000
_cell_angle_beta 119.393893
_cell_angle_gamma 90.000000
_cell_volume 1489.651773
_symmetry_space_group_name_H-M "C 2/C"
_symmetry_group_IT_number 15
_symmetry_cell_setting 'monoclinic'
loop_
_space_group_symop_operation_xyz
x,y,z
-x,y,1/2-z
-x,-y,-z
x,-y,1/2+z
1/2+x,1/2+y,z
1/2-x,1/2+y,1/2-z
1/2-x,1/2-y,-z
1/2+x,1/2-y,1/2+z
loop_
_atom_site_type_symbol
_atom_site_label
_atom_site_fract_x
_atom_site_fract_y
_atom_site_fract_z
Si Si1 0.960213 0.692614 0.990657
Si Si2 0.338367 0.430353 0.023858
Si Si3 0.304670 0.207891 0.773203
Si Si4 0.713307 0.666013 0.406826
Si Si5 0.177980 0.460237 0.796958
O O1 0.963035 0.827340 0.038689
O O2 0.939005 0.707444 0.883847
O O3 0.802618 0.634697 0.972872
O O4 0.113077 0.620294 0.060668
O O5 0.265280 0.474230 0.912633
O O6 0.385424 0.548257 0.094574
O O7 0.338578 0.257850 0.690261
O O8 0.194480 0.315181 0.775516
O O9 0.255637 0.063730 0.746383
O O10 0.750000 0.750000 0.500000
O O11 0.000000 0.488509 0.750000
#
# Coordination Sequence:
#
# PCOD9285577 Si02
#       5
#     8   8   8   8   8
#     4  10  23  41  67  91 127 167 212 267 320 383
#     4  10  21  42  64  92 124 166 214 265 323 379
#     4  11  24  42  67 100 126 171 223 263 322 394
#     4  12  23  39  64  92 129 165 210 261 322 377
#     4  11  22  42  68  94 133 170 216 269 324 383
#
# _framework density 26.851913
#
# number of rings (size 3 to 8) (size 9 to 14) (size 15 to 20)
#    0.000    1.200    2.000    4.200    0.000    0.800 
#    0.000    1.000    4.400    0.000    0.000    0.000 
#    0.000    0.000    0.000    0.000    0.000    0.000 
#
# Total GULP energy -112102.779380 kJ/mol
# GULP energy per Si atom -5605.138969 kJ/mol
# Density = 2.679080 g / cm^3
# Si number density = 26.851913 Si / 1000 Ang^3
#
#
#
# Elastic Constant Matrix: (Units=GPa)
#
#
# Indices 1 2 3 4 5 6 
#
# 1 68.6591 24.9129 28.9784 0.0000 -4.3892 0.0000
# 2 24.9129 147.5143 29.6488 0.0000 -5.3446 0.0000
# 3 28.9784 29.6488 122.1919 0.0000 -14.9808 0.0000
# 4 0.0000 0.0000 0.0000 54.8331 0.0000 -15.0236
# 5 -4.3892 -5.3446 -14.9808 0.0000 29.3001 0.0000
# 6 0.0000 0.0000 0.0000 -15.0236 0.0000 48.7103
#
#
#
# Elastic Compliance Matrix: (Units=1/GPa)
#
#
# Indices 1 2 3 4 5 6 
#
# 1 0.016808 -0.002137 -0.003421 0.000000 0.000379 0.000000
# 2 -0.002137 0.007404 -0.001241 0.000000 0.000396 0.000000
# 3 -0.003421 -0.001241 0.009821 0.000000 0.004283 0.000000
# 4 0.000000 0.000000 0.000000 0.019921 0.000000 0.006144
# 5 0.000379 0.000396 0.004283 0.000000 0.036448 0.000000
# 6 0.000000 0.000000 0.000000 0.006144 0.000000 0.022425
#
#
# Mechanical properties :
#
#
# Convention : Reuss Voigt Hill
#
# Bulk Modulus (GPa) = 48.93693 56.16061 52.54877
# Shear Modulus (GPa) = 37.52703 43.55706 40.54205
#
# Velocity S-wave (km/s) = 3.74244 4.03193 3.88988
# Velocity P-wave (km/s) = 6.07773 6.52959 6.30771
#
# Compressibility (1/GPa) = 0.02043447
#
# Stress axis : x y z
#
# Youngs Moduli (GPa) = 59.49403 135.06682 101.81872
#
# Poissons Ratio (x) = 0.28868 0.34834
# Poissons Ratio (y) = 0.12716 0.12636
# Poissons Ratio (z) = 0.20354 0.16762
#
# Static dielectric constant tensor:
#      x y z
#    x 2.161700 0.000000 -0.046250 
#    y 0.000000 2.121010 0.000000 
#    z -0.046250 0.000000 2.011610 
# 
# From -- ./inp_files/142128.got.cif
#   From: 2010.05.17/outbox.cif.g08.bks.cpg/sg15_72_cif.got.tgz:142128.got - 2010.06.03 18:47:42.
