data_PCOD9285306
_publ_section_title
;
Structure prediction by ZEFSAII (Michael W. Deem and Ramdas Pophale) SiO2 
 PCOD9285306
Probable space group: C 2/C
;
_chemical_formula_sum "Si O2"
_cell_formula_units_Z 60
_cell_length_a 8.229410
_cell_length_b 19.792661
_cell_length_c 18.399093
_cell_angle_alpha 90.000000
_cell_angle_beta 122.692650
_cell_angle_gamma 90.000000
_cell_volume 2522.114199
_symmetry_space_group_name_H-M "C 2/C"
_symmetry_group_IT_number 15
_symmetry_cell_setting 'monoclinic'
loop_
_space_group_symop_operation_xyz
x,y,z
-x,y,1/2-z
-x,-y,-z
x,-y,1/2+z
1/2+x,1/2+y,z
1/2-x,1/2+y,1/2-z
1/2-x,1/2-y,-z
1/2+x,1/2-y,1/2+z
loop_
_atom_site_type_symbol
_atom_site_label
_atom_site_fract_x
_atom_site_fract_y
_atom_site_fract_z
Si Si1 0.608424 0.359646 0.587173
Si Si2 0.573101 0.626379 0.912084
Si Si3 0.985629 0.397428 0.025434
Si Si4 0.170031 0.479637 0.641625
Si Si5 0.500000 0.159922 0.250000
Si Si6 0.200474 0.769779 0.203236
Si Si7 0.577488 0.509044 0.163522
Si Si8 0.559988 0.776116 0.382338
O O1 0.581861 0.349790 0.496384
O O2 0.835984 0.370361 0.659106
O O3 0.527623 0.430038 0.597487
O O4 0.512101 0.294744 0.601770
O O5 0.791960 0.616187 0.940712
O O6 0.483206 0.682758 0.839631
O O7 0.423002 0.563581 0.874366
O O8 0.008478 0.463620 0.083688
O O9 0.899321 0.333420 0.047684
O O10 0.887380 0.417463 0.924975
O O11 0.233341 0.473483 0.741569
O O12 0.380984 0.499548 0.662233
O O13 0.632820 0.201858 0.225490
O O14 0.373905 0.801256 0.291751
O O15 0.277472 0.763211 0.139388
#
# Coordination Sequence:
#
# PCOD9285306 Si02
#       8
#     8   8   8   8   4   8   8   8
#     4  11  25  42  62  99 135 184 219 284 333 396
#     4  11  23  41  67  96 133 175 228 276 337 395
#     4  10  21  41  69  99 132 172 229 277 335 400
#     4   9  21  40  69  96 128 179 221 280 336 393
#     4  10  24  44  66  96 142 172 228 270 346 406
#     4  10  22  42  69  98 133 184 215 279 331 404
#     4  10  22  42  64  93 131 176 227 273 337 400
#     4  10  23  43  66  99 138 174 231 271 338 403
#
# _framework density 23.789566000000001
#
# number of rings (size 3 to 8) (size 9 to 14) (size 15 to 20)
#    0.000    1.867    0.000    2.800    3.733    9.067 
#    4.800    1.333    0.000    0.000    0.000    0.000 
#    0.000    0.000    0.000    0.000    0.000    0.000 
#
# Total GULP energy -167473.132606 kJ/mol
# GULP energy per Si atom -5582.437754 kJ/mol
# Density = 2.373542 g / cm^3
# Si number density = 23.789566 Si / 1000 Ang^3
#
#
#
# Elastic Constant Matrix: (Units=GPa)
#
#
# Indices 1 2 3 4 5 6 
#
# 1 65.5689 -0.0263 33.2169 0.0000 1.8552 0.0000
# 2 -0.0263 80.4215 26.8973 0.0000 13.5559 0.0000
# 3 33.2169 26.8973 117.3312 0.0000 14.9385 0.0000
# 4 0.0000 0.0000 0.0000 129.1857 0.0000 24.5263
# 5 1.8552 13.5559 14.9385 0.0000 44.9530 0.0000
# 6 0.0000 0.0000 0.0000 24.5263 0.0000 24.9051
#
#
#
# Elastic Compliance Matrix: (Units=1/GPa)
#
#
# Indices 1 2 3 4 5 6 
#
# 1 0.018071 0.001781 -0.005598 0.000000 0.000577 0.000000
# 2 0.001781 0.014089 -0.003324 0.000000 -0.003217 0.000000
# 3 -0.005598 -0.003324 0.011186 0.000000 -0.002484 0.000000
# 4 0.000000 0.000000 0.000000 0.009521 0.000000 -0.009376
# 5 0.000577 -0.003217 -0.002484 0.000000 0.024017 0.000000
# 6 0.000000 0.000000 0.000000 -0.009376 0.000000 0.049386
#
#
# Mechanical properties :
#
#
# Convention : Reuss Voigt Hill
#
# Bulk Modulus (GPa) = 34.40709 42.61081 38.50895
# Shear Modulus (GPa) = 33.27982 53.35768 43.31875
#
# Velocity S-wave (km/s) = 3.74428 4.74107 4.27185
# Velocity P-wave (km/s) = 5.76084 6.92248 6.36820
#
# Compressibility (1/GPa) = 0.02906378
#
# Stress axis : x y z
#
# Youngs Moduli (GPa) = 55.33625 70.97610 89.39784
#
# Poissons Ratio (x) = -0.12639 0.50043
# Poissons Ratio (y) = -0.09854 0.29719
# Poissons Ratio (z) = 0.30976 0.23595
#
# Static dielectric constant tensor:
#      x y z
#    x 1.906890 0.000000 0.003220 
#    y 0.000000 1.950850 0.000000 
#    z 0.003220 0.000000 1.942190 
# 
# From -- ./inp_files/192562.got.cif
#   From: 2010.05.17/outbox.cif.g08.bks.cpg/sg15_97_cif.got.tgz:192562.got - 2010.06.03 18:47:42.
