data_PCOD9285232
_publ_section_title
;
Structure prediction by ZEFSAII (Michael W. Deem and Ramdas Pophale) SiO2 
 PCOD9285232
Probable space group: C 2/C
;
_chemical_formula_sum "Si O2"
_cell_formula_units_Z 36
_cell_length_a 11.786761
_cell_length_b 17.997927
_cell_length_c 6.822391
_cell_angle_alpha 90.000000
_cell_angle_beta 112.002084
_cell_angle_gamma 90.000000
_cell_volume 1341.878045
_symmetry_space_group_name_H-M "C 2/C"
_symmetry_group_IT_number 15
_symmetry_cell_setting 'monoclinic'
loop_
_space_group_symop_operation_xyz
x,y,z
-x,y,1/2-z
-x,-y,-z
x,-y,1/2+z
1/2+x,1/2+y,z
1/2-x,1/2+y,1/2-z
1/2-x,1/2-y,-z
1/2+x,1/2-y,1/2+z
loop_
_atom_site_type_symbol
_atom_site_label
_atom_site_fract_x
_atom_site_fract_y
_atom_site_fract_z
Si Si1 0.268384 0.706124 0.305112
Si Si2 0.086249 0.936047 0.146955
Si Si3 0.511296 0.224983 0.024282
Si Si4 0.000000 0.410575 0.250000
Si Si5 0.249768 0.939047 0.914229
O O1 0.250000 0.750000 0.500000
O O2 0.412779 0.719370 0.368573
O O3 0.157399 0.734886 0.094581
O O4 0.246176 0.617695 0.265756
O O5 0.000000 0.894617 0.250000
O O6 0.190319 0.983126 0.322728
O O7 0.158356 0.900327 0.013802
O O8 0.000000 0.000000 0.000000
O O9 0.500000 0.221611 0.250000
O O10 0.470370 0.146344 0.906657
O O11 0.119319 0.452008 0.401586
#
# Coordination Sequence:
#
# PCOD9285232 Si02
#       5
#     8   8   8   4   8
#     4   9  19  40  66  99 133 178 226 284 356 428
#     4   9  20  44  64  96 135 175 243 296 335 409
#     4   9  19  39  60  93 139 167 228 278 346 422
#     4  10  22  40  64  98 138 174 226 292 344 446
#     4  10  21  41  68  97 137 183 231 294 360 408
#
# _framework density 26.828071000000001
#
# number of rings (size 3 to 8) (size 9 to 14) (size 15 to 20)
#    0.000    2.667    0.000    0.000    0.000    4.444 
#   42.000    5.556    0.000    0.000    0.000    1.556 
#    0.000    0.000    0.000    0.000    0.000    0.000 
#
# Total GULP energy -100553.532080 kJ/mol
# GULP energy per Si atom -5586.307338 kJ/mol
# Density = 2.676701 g / cm^3
# Si number density = 26.828071 Si / 1000 Ang^3
#
#
#
# Elastic Constant Matrix: (Units=GPa)
#
#
# Indices 1 2 3 4 5 6 
#
# 1 116.1543 22.3142 60.5383 0.0000 17.5881 0.0000
# 2 22.3142 74.4216 53.6705 0.0000 0.8318 0.0000
# 3 60.5383 53.6705 199.1764 0.0000 50.0953 0.0000
# 4 0.0000 0.0000 0.0000 37.0515 0.0000 0.0467
# 5 17.5881 0.8318 50.0953 0.0000 76.3314 0.0000
# 6 0.0000 0.0000 0.0000 0.0467 0.0000 24.7854
#
#
#
# Elastic Compliance Matrix: (Units=1/GPa)
#
#
# Indices 1 2 3 4 5 6 
#
# 1 0.010316 -0.001162 -0.002668 0.000000 -0.000613 0.000000
# 2 -0.001162 0.017540 -0.005261 0.000000 0.003529 0.000000
# 3 -0.002668 -0.005261 0.008480 0.000000 -0.004893 0.000000
# 4 0.000000 0.000000 0.000000 0.026989 0.000000 -0.000051
# 5 -0.000613 0.003529 -0.004893 0.000000 0.016415 0.000000
# 6 0.000000 0.000000 0.000000 -0.000051 0.000000 0.040346
#
#
# Mechanical properties :
#
#
# Convention : Reuss Voigt Hill
#
# Bulk Modulus (GPa) = 55.08487 73.64427 64.36457
# Shear Modulus (GPa) = 34.64533 44.51562 39.58047
#
# Velocity S-wave (km/s) = 3.59748 4.07786 3.84518
# Velocity P-wave (km/s) = 6.15085 7.04854 6.61494
#
# Compressibility (1/GPa) = 0.01815381
#
# Stress axis : x y z
#
# Youngs Moduli (GPa) = 96.93763 57.01306 117.92634
#
# Poissons Ratio (x) = 0.06625 0.31463
# Poissons Ratio (y) = 0.11265 0.62038
# Poissons Ratio (z) = 0.25864 0.29993
#
# Static dielectric constant tensor:
#      x y z
#    x 2.264440 0.000000 -0.048430 
#    y 0.000000 2.069500 0.000000 
#    z -0.048430 0.000000 2.068800 
# 
# From -- ./inp_files/30570.got.cif
#   From: 2010.05.17/outbox.cif.g08.bks.cpg/sg15_16_cif.got.tgz:30570.got - 2010.06.03 18:47:42.
