data_PCOD9285413
_publ_section_title
;
Structure prediction by ZEFSAII (Michael W. Deem and Ramdas Pophale) SiO2 
 PCOD9285413
Probable space group: C 2/C
;
_chemical_formula_sum "Si O2"
_cell_formula_units_Z 56
_cell_length_a 13.631757
_cell_length_b 7.524926
_cell_length_c 23.714820
_cell_angle_alpha 90.000000
_cell_angle_beta 56.558554
_cell_angle_gamma 90.000000
_cell_volume 2029.896672
_symmetry_space_group_name_H-M "C 2/C"
_symmetry_group_IT_number 15
_symmetry_cell_setting 'monoclinic'
loop_
_space_group_symop_operation_xyz
x,y,z
-x,y,1/2-z
-x,-y,-z
x,-y,1/2+z
1/2+x,1/2+y,z
1/2-x,1/2+y,1/2-z
1/2-x,1/2-y,-z
1/2+x,1/2-y,1/2+z
loop_
_atom_site_type_symbol
_atom_site_label
_atom_site_fract_x
_atom_site_fract_y
_atom_site_fract_z
Si Si1 0.435706 0.309599 0.521294
Si Si2 0.678681 0.542416 0.547592
Si Si3 0.664348 0.553893 0.786975
Si Si4 0.861350 0.355817 0.420922
Si Si5 0.841526 0.259432 0.600943
Si Si6 0.733269 0.360282 0.149908
Si Si7 0.926459 0.338751 0.215542
O O1 0.500000 0.500000 0.500000
O O2 0.356979 0.329597 0.490834
O O3 0.546626 0.188934 0.471987
O O4 0.348138 0.258547 0.599441
O O5 0.806495 0.466112 0.488992
O O6 0.614563 0.349639 0.569854
O O7 0.664279 0.631386 0.612877
O O8 0.615622 0.648367 0.858390
O O9 0.660032 0.666366 0.729779
O O10 0.804397 0.556650 0.756732
O O11 0.609985 0.362066 0.790861
O O12 0.757528 0.342214 0.405767
O O13 0.981977 0.423957 0.357258
O O14 0.779366 0.437652 0.641195
O O15 0.000000 0.328214 0.250000
#
# Coordination Sequence:
#
# PCOD9285413 Si02
#       7
#     8   8   8   8   8   8   8
#     4  12  25  41  74 111 151 201 265 318 385 478
#     4  10  22  44  68 111 150 200 251 321 394 472
#     4  12  26  47  78 111 150 210 267 318 409 474
#     4  10  21  41  77 103 149 200 248 316 401 458
#     4  11  23  46  71 111 150 205 258 318 398 467
#     4  11  26  46  70 107 159 200 254 333 390 465
#     4  12  25  49  77 108 154 205 258 336 392 475
#
# _framework density 27.587609
#
# number of rings (size 3 to 8) (size 9 to 14) (size 15 to 20)
#    0.000    0.857    4.286    2.571    4.000    1.143 
#    0.000    0.714    0.000    0.000    0.000    0.000 
#    0.000    0.000    0.000    0.000    0.000    0.000 
#
# Total GULP energy -156888.581114 kJ/mol
# GULP energy per Si atom -5603.163611 kJ/mol
# Density = 2.752482 g / cm^3
# Si number density = 27.587609 Si / 1000 Ang^3
#
#
#
# Elastic Constant Matrix: (Units=GPa)
#
#
# Indices 1 2 3 4 5 6 
#
# 1 123.2117 9.9077 40.5234 0.0000 22.5830 0.0000
# 2 9.9077 76.7942 12.0452 0.0000 11.8000 0.0000
# 3 40.5234 12.0452 144.6482 0.0000 2.7202 0.0000
# 4 0.0000 0.0000 0.0000 31.2691 0.0000 0.2999
# 5 22.5830 11.8000 2.7202 0.0000 68.0955 0.0000
# 6 0.0000 0.0000 0.0000 0.2999 0.0000 41.9133
#
#
#
# Elastic Compliance Matrix: (Units=1/GPa)
#
#
# Indices 1 2 3 4 5 6 
#
# 1 0.009546 -0.000365 -0.002588 0.000000 -0.002999 0.000000
# 2 -0.000365 0.013560 -0.000986 0.000000 -0.002189 0.000000
# 3 -0.002588 -0.000986 0.007707 0.000000 0.000721 0.000000
# 4 0.000000 0.000000 0.000000 0.031983 0.000000 -0.000229
# 5 -0.002999 -0.002189 0.000721 0.000000 0.016031 0.000000
# 6 0.000000 0.000000 0.000000 -0.000229 0.000000 0.023860
#
#
# Mechanical properties :
#
#
# Convention : Reuss Voigt Hill
#
# Bulk Modulus (GPa) = 43.59882 52.17851 47.88866
# Shear Modulus (GPa) = 42.29815 47.06744 44.68280
#
# Velocity S-wave (km/s) = 3.91990 4.13499 4.02888
# Velocity P-wave (km/s) = 6.02707 6.46160 6.24811
#
# Compressibility (1/GPa) = 0.02293640
#
# Stress axis : x y z
#
# Youngs Moduli (GPa) = 104.75348 73.74674 129.75600
#
# Poissons Ratio (x) = 0.02691 0.33576
# Poissons Ratio (y) = 0.03822 0.12791
# Poissons Ratio (z) = 0.27106 0.07270
#
# Static dielectric constant tensor:
#      x y z
#    x 2.245610 0.000000 0.009390 
#    y 0.000000 2.215220 0.000000 
#    z 0.009390 0.000000 2.217050 
# 
# From -- ./inp_files/273042.got.cif
#   From: 2010.05.17/outbox.cif.g08.bks.cpg/sg15_137_cif.got.tgz:273042.got - 2010.06.03 18:47:42.
