data_PCOD9285603
_publ_section_title
;
Structure prediction by ZEFSAII (Michael W. Deem and Ramdas Pophale) SiO2 
 PCOD9285603
Probable space group: C 2/C
;
_chemical_formula_sum "Si O2"
_cell_formula_units_Z 56
_cell_length_a 11.412460
_cell_length_b 21.627625
_cell_length_c 11.364987
_cell_angle_alpha 90.000000
_cell_angle_beta 110.152573
_cell_angle_gamma 90.000000
_cell_volume 2633.420357
_symmetry_space_group_name_H-M "C 2/C"
_symmetry_group_IT_number 15
_symmetry_cell_setting 'monoclinic'
loop_
_space_group_symop_operation_xyz
x,y,z
-x,y,1/2-z
-x,-y,-z
x,-y,1/2+z
1/2+x,1/2+y,z
1/2-x,1/2+y,1/2-z
1/2-x,1/2-y,-z
1/2+x,1/2-y,1/2+z
loop_
_atom_site_type_symbol
_atom_site_label
_atom_site_fract_x
_atom_site_fract_y
_atom_site_fract_z
Si Si1 0.144533 0.440668 0.920565
Si Si2 0.476383 0.114921 0.551650
Si Si3 0.366345 0.570577 0.681249
Si Si4 0.174496 0.432766 0.310388
Si Si5 0.429500 0.299468 0.079386
Si Si6 0.791721 0.690442 0.167951
Si Si7 0.647588 0.765776 0.561766
O O1 0.138779 0.496735 0.827737
O O2 0.166845 0.377257 0.858423
O O3 0.022097 0.426269 0.957712
O O4 0.260771 0.453317 0.051867
O O5 0.346452 0.097792 0.569636
O O6 0.581284 0.100232 0.685495
O O7 0.460441 0.186692 0.517903
O O8 0.500000 0.538344 0.750000
O O9 0.303484 0.571688 0.787590
O O10 0.396958 0.638358 0.638728
O O11 0.383084 0.241236 0.140656
O O12 0.571756 0.292181 0.088139
O O13 0.342961 0.299065 0.934773
O O14 0.791063 0.700087 0.306091
O O15 0.750000 0.750000 0.500000
#
# Coordination Sequence:
#
# PCOD9285603 Si02
#       7
#     8   8   8   8   8   8   8
#     4  10  21  42  64  95 126 178 229 274 342 394
#     4  10  23  40  61  99 128 172 217 275 341 390
#     4  10  22  39  67  93 129 178 226 278 339 408
#     4  10  23  40  66  93 134 171 223 286 326 403
#     4  10  22  42  66  94 129 173 224 266 339 404
#     4  10  22  40  67  91 128 173 216 275 327 412
#     4  12  26  39  65 100 134 171 219 276 339 403
#
# _framework density 21.265121000000001
#
# number of rings (size 3 to 8) (size 9 to 14) (size 15 to 20)
#    0.000    1.714    1.429    1.714    6.000    6.857 
#    0.000    0.000    6.286    0.000    0.000    0.000 
#    0.000    0.000    0.000    0.000    0.000    0.000 
#
# Total GULP energy -156274.037018 kJ/mol
# GULP energy per Si atom -5581.215608 kJ/mol
# Density = 2.121672 g / cm^3
# Si number density = 21.265121 Si / 1000 Ang^3
#
#
#
# Elastic Constant Matrix: (Units=GPa)
#
#
# Indices 1 2 3 4 5 6 
#
# 1 127.6183 4.3206 57.6407 0.0000 -29.2477 0.0000
# 2 4.3206 71.5736 32.1872 0.0000 -9.2437 0.0000
# 3 57.6407 32.1872 122.4547 0.0000 -12.5296 0.0000
# 4 0.0000 0.0000 0.0000 6.6831 0.0000 -11.2831
# 5 -29.2477 -9.2437 -12.5296 0.0000 44.9404 0.0000
# 6 0.0000 0.0000 0.0000 -11.2831 0.0000 17.3642
#
#
#
# Elastic Compliance Matrix: (Units=1/GPa)
#
#
# Indices 1 2 3 4 5 6 
#
# 1 0.011786 0.002651 -0.005563 0.000000 0.006665 0.000000
# 2 0.002651 0.016647 -0.005246 0.000000 0.003687 0.000000
# 3 -0.005563 -0.005246 0.012026 0.000000 -0.001346 0.000000
# 4 0.000000 0.000000 0.000000 -1.541683 0.000000 -1.001774
# 5 0.006665 0.003687 -0.001346 0.000000 0.026972 0.000000
# 6 0.000000 0.000000 0.000000 -1.001774 0.000000 -0.593355
#
#
# Mechanical properties :
#
#
# Convention : Reuss Voigt Hill
#
# Bulk Modulus (GPa) = 41.42007 56.66040 49.04023
# Shear Modulus (GPa) = -2.44709 28.96408 13.25850
#
# Velocity S-wave (km/s) = -1.07390 3.69460 2.49968
# Velocity P-wave (km/s) = 4.24058 6.70094 5.60737
#
# Compressibility (1/GPa) = 0.02414288
#
# Stress axis : x y z
#
# Youngs Moduli (GPa) = 84.84625 60.07088 83.15398
#
# Poissons Ratio (x) = -0.15924 0.46256
# Poissons Ratio (y) = -0.22491 0.43624
# Poissons Ratio (z) = 0.47197 0.31515
#
# Static dielectric constant tensor:
#      x y z
#    x 1.821480 0.000000 0.024430 
#    y 0.000000 1.804790 0.000000 
#    z 0.024430 0.000000 1.817920 
# 
# From -- ./inp_files/89053.got.cif
#   From: 2010.05.17/outbox.cif.g08.bks.cpg/sg15_45_cif.got.tgz:89053.got - 2010.06.03 18:47:42.
