data_PCOD9285061
_publ_section_title
;
Structure prediction by ZEFSAII (Michael W. Deem and Ramdas Pophale) SiO2 
 PCOD9285061
Probable space group: C 2/C
;
_chemical_formula_sum "Si O2"
_cell_formula_units_Z 36
_cell_length_a 31.277779
_cell_length_b 14.350382
_cell_length_c 12.500864
_cell_angle_alpha 90.000000
_cell_angle_beta 18.660731
_cell_angle_gamma 90.000000
_cell_volume 1795.312853
_symmetry_space_group_name_H-M "C 2/C"
_symmetry_group_IT_number 15
_symmetry_cell_setting 'monoclinic'
loop_
_space_group_symop_operation_xyz
x,y,z
-x,y,1/2-z
-x,-y,-z
x,-y,1/2+z
1/2+x,1/2+y,z
1/2-x,1/2+y,1/2-z
1/2-x,1/2-y,-z
1/2+x,1/2-y,1/2+z
loop_
_atom_site_type_symbol
_atom_site_label
_atom_site_fract_x
_atom_site_fract_y
_atom_site_fract_z
Si Si1 0.080755 0.869441 0.237601
Si Si2 0.890147 0.696750 0.674157
Si Si3 0.681480 0.062756 0.473245
Si Si4 0.595910 0.457452 0.427950
Si Si5 0.000000 0.558695 0.250000
O O1 0.109139 0.890131 0.295077
O O2 0.009793 0.771003 0.387969
O O3 0.211738 0.884746 0.855647
O O4 0.977422 0.949078 0.441946
O O5 0.901878 0.625484 0.548557
O O6 0.750000 0.750000 0.000000
O O7 0.891471 0.636481 0.778640
O O8 0.766445 0.991756 0.346169
O O9 0.581093 0.004599 0.639424
O O10 0.500000 0.419737 0.750000
#
# Coordination Sequence:
#
# PCOD9285061 Si02
#       5
#     8   8   8   8   4
#     4  10  21  41  67 100 122 168 220 271 320 390
#     4  12  24  42  68  99 130 169 225 271 323 387
#     4  11  23  44  66  92 136 177 215 266 332 390
#     4   9  19  37  68  94 127 164 213 263 331 381
#     4  12  28  44  64  96 136 178 214 266 334 394
#
# _framework density 20.052216000000001
#
# number of rings (size 3 to 8) (size 9 to 14) (size 15 to 20)
#    0.000    1.333    2.222    3.333    7.778    0.000 
#    2.000    2.222    0.000    0.000    0.000    0.000 
#    0.000    0.000    0.000    0.000    0.000    0.000 
#
# Total GULP energy -100707.656206 kJ/mol
# GULP energy per Si atom -5594.869789 kJ/mol
# Density = 2.000658 g / cm^3
# Si number density = 20.052216 Si / 1000 Ang^3
#
#
#
# Elastic Constant Matrix: (Units=GPa)
#
#
# Indices 1 2 3 4 5 6 
#
# 1 122.5223 35.8187 27.8096 0.0000 8.2414 0.0000
# 2 35.8187 77.8221 30.3203 0.0000 8.6309 0.0000
# 3 27.8096 30.3203 54.0962 0.0000 -0.1044 0.0000
# 4 0.0000 0.0000 0.0000 37.1460 0.0000 14.0210
# 5 8.2414 8.6309 -0.1044 0.0000 32.4066 0.0000
# 6 0.0000 0.0000 0.0000 14.0210 0.0000 15.8632
#
#
#
# Elastic Compliance Matrix: (Units=1/GPa)
#
#
# Indices 1 2 3 4 5 6 
#
# 1 0.009944 -0.003061 -0.003400 0.000000 -0.001725 0.000000
# 2 -0.003061 0.018037 -0.008544 0.000000 -0.004053 0.000000
# 3 -0.003400 -0.008544 0.025028 0.000000 0.003221 0.000000
# 4 0.000000 0.000000 0.000000 0.040399 0.000000 -0.035707
# 5 -0.001725 -0.004053 0.003221 0.000000 0.032386 0.000000
# 6 0.000000 0.000000 0.000000 -0.035707 0.000000 0.094600
#
#
# Mechanical properties :
#
#
# Convention : Reuss Voigt Hill
#
# Bulk Modulus (GPa) = 43.47765 49.14865 46.31315
# Shear Modulus (GPa) = 19.37457 27.78263 23.57860
#
# Velocity S-wave (km/s) = 3.11176 3.72629 3.43280
# Velocity P-wave (km/s) = 5.88558 6.56332 6.23367
#
# Compressibility (1/GPa) = 0.02300032
#
# Stress axis : x y z
#
# Youngs Moduli (GPa) = 100.55947 55.44186 39.95509
#
# Poissons Ratio (x) = 0.16972 0.13584
# Poissons Ratio (y) = 0.30783 0.34136
# Poissons Ratio (z) = 0.34188 0.47367
#
# Static dielectric constant tensor:
#      x y z
#    x 1.695400 0.000000 0.023710 
#    y 0.000000 1.678460 0.000000 
#    z 0.023710 0.000000 1.709890 
# 
# From -- ./inp_files/85354.got.cif
#   From: 2010.05.17/outbox.cif.g08.bks.cpg/sg15_43_cif.got.tgz:85354.got - 2010.06.03 18:47:42.
