data_PCOD9285276
_publ_section_title
;
Structure prediction by ZEFSAII (Michael W. Deem and Ramdas Pophale) SiO2 
 PCOD9285276
Probable space group: C 2/C
;
_chemical_formula_sum "Si O2"
_cell_formula_units_Z 56
_cell_length_a 18.588093
_cell_length_b 11.909227
_cell_length_c 13.733687
_cell_angle_alpha 90.000000
_cell_angle_beta 69.979538
_cell_angle_gamma 90.000000
_cell_volume 2856.504344
_symmetry_space_group_name_H-M "C 2/C"
_symmetry_group_IT_number 15
_symmetry_cell_setting 'monoclinic'
loop_
_space_group_symop_operation_xyz
x,y,z
-x,y,1/2-z
-x,-y,-z
x,-y,1/2+z
1/2+x,1/2+y,z
1/2-x,1/2+y,1/2-z
1/2-x,1/2-y,-z
1/2+x,1/2-y,1/2+z
loop_
_atom_site_type_symbol
_atom_site_label
_atom_site_fract_x
_atom_site_fract_y
_atom_site_fract_z
Si Si1 0.523198 0.371045 0.976345
Si Si2 0.863950 0.822425 0.972396
Si Si3 0.578666 0.722124 0.656717
Si Si4 0.186633 0.978295 0.138908
Si Si5 0.709051 0.844652 0.148899
Si Si6 0.204290 0.411123 0.581839
Si Si7 0.318588 0.654896 0.192029
O O1 0.447773 0.306741 0.975448
O O2 0.592002 0.363005 0.868172
O O3 0.500000 0.500000 0.000000
O O4 0.554307 0.324759 0.063221
O O5 0.834476 0.724047 0.915989
O O6 0.859367 0.935858 0.910545
O O7 0.799736 0.837130 0.084795
O O8 0.500000 0.744510 0.750000
O O9 0.631379 0.626902 0.684407
O O10 0.632243 0.829730 0.615931
O O11 0.207366 0.055522 0.221799
O O12 0.259551 0.939470 0.040653
O O13 0.693714 0.775943 0.253518
O O14 0.685803 0.972799 0.145889
O O15 0.272159 0.355280 0.613713
#
# Coordination Sequence:
#
# PCOD9285276 Si02
#       7
#     8   8   8   8   8   8   8
#     4  12  22  40  64 100 129 157 216 278 339 382
#     4   9  19  39  65  92 121 163 211 270 324 379
#     4  12  26  40  62  93 134 171 213 273 325 375
#     4  10  21  41  69  93 129 165 212 276 323 384
#     4   9  21  41  62  89 126 169 218 258 315 394
#     4  11  24  44  62  93 135 171 222 263 315 404
#     4  11  24  38  71  99 120 178 215 266 338 381
#
# _framework density 19.604381
#
# number of rings (size 3 to 8) (size 9 to 14) (size 15 to 20)
#    0.000    1.429    2.857    3.000    4.000    1.714 
#    2.571    0.714    0.000    0.000    0.000    0.000 
#    0.000    0.000    0.000    0.000    0.000    0.000 
#
# Total GULP energy -156524.714221 kJ/mol
# GULP energy per Si atom -5590.168365 kJ/mol
# Density = 1.955976 g / cm^3
# Si number density = 19.604381 Si / 1000 Ang^3
#
#
#
# Elastic Constant Matrix: (Units=GPa)
#
#
# Indices 1 2 3 4 5 6 
#
# 1 88.8381 51.0462 41.6386 0.0000 -17.7716 0.0000
# 2 51.0462 110.1914 32.2555 0.0000 -18.8407 0.0000
# 3 41.6386 32.2555 93.4215 0.0000 -15.0286 0.0000
# 4 0.0000 0.0000 0.0000 33.5586 0.0000 -5.8895
# 5 -17.7716 -18.8407 -15.0286 0.0000 24.4383 0.0000
# 6 0.0000 0.0000 0.0000 -5.8895 0.0000 24.6074
#
#
#
# Elastic Compliance Matrix: (Units=1/GPa)
#
#
# Indices 1 2 3 4 5 6 
#
# 1 0.018213 -0.005992 -0.005173 0.000000 0.005444 0.000000
# 2 -0.005992 0.013010 -0.001008 0.000000 0.005052 0.000000
# 3 -0.005173 -0.001008 0.014014 0.000000 0.004079 0.000000
# 4 0.000000 0.000000 0.000000 0.031105 0.000000 0.007445
# 5 0.005444 0.005052 0.004079 0.000000 0.051282 0.000000
# 6 0.000000 0.000000 0.000000 0.007445 0.000000 0.042420
#
#
# Mechanical properties :
#
#
# Convention : Reuss Voigt Hill
#
# Bulk Modulus (GPa) = 47.86973 60.25905 54.06439
# Shear Modulus (GPa) = 24.83177 27.68823 26.26000
#
# Velocity S-wave (km/s) = 3.56286 3.76220 3.66388
# Velocity P-wave (km/s) = 6.43398 7.04815 6.74806
#
# Compressibility (1/GPa) = 0.02089003
#
# Stress axis : x y z
#
# Youngs Moduli (GPa) = 54.90527 76.86353 71.35620
#
# Poissons Ratio (x) = 0.46058 0.36913
# Poissons Ratio (y) = 0.32900 0.07196
# Poissons Ratio (z) = 0.28403 0.07751
#
# Static dielectric constant tensor:
#      x y z
#    x 1.673030 0.000000 0.014630 
#    y 0.000000 1.697030 0.000000 
#    z 0.014630 0.000000 1.703390 
# 
# From -- ./inp_files/161250.got.cif
#   From: 2010.05.17/outbox.cif.g08.bks.cpg/sg15_81_cif.got.tgz:161250.got - 2010.06.03 18:47:42.
