data_PCOD9285357
_publ_section_title
;
Structure prediction by ZEFSAII (Michael W. Deem and Ramdas Pophale) SiO2 
 PCOD9285357
Probable space group: C 2/C
;
_chemical_formula_sum "Si O2"
_cell_formula_units_Z 44
_cell_length_a 13.379271
_cell_length_b 7.333919
_cell_length_c 17.259193
_cell_angle_alpha 90.000000
_cell_angle_beta 101.183518
_cell_angle_gamma 90.000000
_cell_volume 1661.356815
_symmetry_space_group_name_H-M "C 2/C"
_symmetry_group_IT_number 15
_symmetry_cell_setting 'monoclinic'
loop_
_space_group_symop_operation_xyz
x,y,z
-x,y,1/2-z
-x,-y,-z
x,-y,1/2+z
1/2+x,1/2+y,z
1/2-x,1/2+y,1/2-z
1/2-x,1/2-y,-z
1/2+x,1/2-y,1/2+z
loop_
_atom_site_type_symbol
_atom_site_label
_atom_site_fract_x
_atom_site_fract_y
_atom_site_fract_z
Si Si1 0.213770 0.458092 0.047450
Si Si2 0.500000 0.297794 0.250000
Si Si3 0.511215 0.659118 0.338210
Si Si4 0.228767 0.726431 0.856667
Si Si5 0.776808 0.679780 0.192927
Si Si6 0.094132 0.139840 0.024404
O O1 0.492162 0.440828 0.177419
O O2 0.193200 0.655722 0.080394
O O3 0.117910 0.347576 0.997787
O O4 0.257017 0.340004 0.127676
O O5 0.396571 0.187129 0.233243
O O6 0.620200 0.734720 0.379920
O O7 0.276749 0.696640 0.231845
O O8 0.425870 0.692883 0.388237
O O9 0.693394 0.453162 0.499743
O O10 0.247895 0.516271 0.845662
O O11 0.000000 0.761235 0.750000
O O12 0.000000 0.000000 0.000000
#
# Coordination Sequence:
#
# PCOD9285357 Si02
#       6
#     8   4   8   8   8   8
#     4  11  24  45  68 104 145 197 234 306 372 428
#     4  10  22  38  68 106 136 182 248 296 368 428
#     4  10  21  41  71 102 135 185 237 302 356 435
#     4  12  23  40  69 100 143 185 238 296 364 419
#     4  12  24  42  67 107 142 185 241 304 358 441
#     4  11  22  43  77  99 147 193 243 297 372 441
#
# _framework density 26.484380000000002
#
# number of rings (size 3 to 8) (size 9 to 14) (size 15 to 20)
#    0.545    0.364    5.455    1.091    3.818    0.000 
#    0.000    4.545    0.000    0.000    0.000    0.000 
#    0.000    0.000    0.000    0.000    0.000    0.000 
#
# Total GULP energy -122853.781073 kJ/mol
# GULP energy per Si atom -5584.262776 kJ/mol
# Density = 2.642410 g / cm^3
# Si number density = 26.484380 Si / 1000 Ang^3
#
#
#
# Elastic Constant Matrix: (Units=GPa)
#
#
# Indices 1 2 3 4 5 6 
#
# 1 192.5522 42.0505 34.3611 0.0000 -18.9523 0.0000
# 2 42.0505 149.4302 19.5455 0.0000 -6.9285 0.0000
# 3 34.3611 19.5455 59.9406 0.0000 -23.1433 0.0000
# 4 0.0000 0.0000 0.0000 307.4477 0.0000 -16.7684
# 5 -18.9523 -6.9285 -23.1433 0.0000 52.1133 0.0000
# 6 0.0000 0.0000 0.0000 -16.7684 0.0000 41.2094
#
#
#
# Elastic Compliance Matrix: (Units=1/GPa)
#
#
# Indices 1 2 3 4 5 6 
#
# 1 0.006045 -0.001307 -0.002725 0.000000 0.000815 0.000000
# 2 -0.001307 0.007273 -0.001729 0.000000 -0.000276 0.000000
# 3 -0.002725 -0.001729 0.022133 0.000000 0.008608 0.000000
# 4 0.000000 0.000000 0.000000 0.003326 0.000000 0.001354
# 5 0.000815 -0.000276 0.008608 0.000000 0.023271 0.000000
# 6 0.000000 0.000000 0.000000 0.001354 0.000000 0.024817
#
#
# Mechanical properties :
#
#
# Convention : Reuss Voigt Hill
#
# Bulk Modulus (GPa) = 41.78932 65.98191 53.88562
# Shear Modulus (GPa) = 47.00834 100.55178 73.78006
#
# Velocity S-wave (km/s) = 4.21758 6.16838 5.28379
# Velocity P-wave (km/s) = 6.28732 8.70054 7.59045
#
# Compressibility (1/GPa) = 0.02392956
#
# Stress axis : x y z
#
# Youngs Moduli (GPa) = 165.41937 137.49029 45.18216
#
# Poissons Ratio (x) = 0.17970 0.12311
# Poissons Ratio (y) = 0.21620 0.07812
# Poissons Ratio (z) = 0.45072 0.23773
#
# Static dielectric constant tensor:
#      x y z
#    x 2.032440 0.000000 0.062530 
#    y 0.000000 2.104210 0.000000 
#    z 0.062530 0.000000 2.228840 
# 
# From -- ./inp_files/272923.got.cif
#   From: 2010.05.17/outbox.cif.g08.bks.cpg/sg15_137_cif.got.tgz:272923.got - 2010.06.03 18:47:42.
