data_PCOD9285734
_publ_section_title
;
Structure prediction by ZEFSAII (Michael W. Deem and Ramdas Pophale) SiO2 
 PCOD9285734
Probable space group: C 2/C
;
_chemical_formula_sum "Si O2"
_cell_formula_units_Z 36
_cell_length_a 13.675617
_cell_length_b 6.678494
_cell_length_c 17.131780
_cell_angle_alpha 90.000000
_cell_angle_beta 60.335176
_cell_angle_gamma 90.000000
_cell_volume 1359.613645
_symmetry_space_group_name_H-M "C 2/C"
_symmetry_group_IT_number 15
_symmetry_cell_setting 'monoclinic'
loop_
_space_group_symop_operation_xyz
x,y,z
-x,y,1/2-z
-x,-y,-z
x,-y,1/2+z
1/2+x,1/2+y,z
1/2-x,1/2+y,1/2-z
1/2-x,1/2-y,-z
1/2+x,1/2-y,1/2+z
loop_
_atom_site_type_symbol
_atom_site_label
_atom_site_fract_x
_atom_site_fract_y
_atom_site_fract_z
Si Si1 0.627456 0.810119 0.462156
Si Si2 0.337751 0.034000 0.394257
Si Si3 0.000000 0.201520 0.750000
Si Si4 0.752897 0.307369 0.657151
Si Si5 0.417618 0.460159 0.647736
O O1 0.590228 0.914758 0.557205
O O2 0.716435 0.637583 0.450812
O O3 0.546534 0.691231 0.434878
O O4 0.693844 0.985475 0.391405
O O5 0.395201 0.148567 0.298863
O O6 0.319060 0.803991 0.381707
O O7 0.995495 0.057625 0.826536
O O8 0.670923 0.343491 0.762320
O O9 0.849227 0.149693 0.641411
#
# Coordination Sequence:
#
# PCOD9285734 Si02
#       5
#     8   8   4   8   8
#     4  10  21  42  66  92 118 175 214 257 299 387
#     4  10  23  39  65  93 129 159 218 256 316 374
#     4  12  24  42  58 100 134 168 196 274 328 360
#     4  11  19  41  66  90 117 175 214 253 301 389
#     4  11  22  37  66  91 128 162 217 253 313 376
#
# _framework density 26.478110999999998
#
# number of rings (size 3 to 8) (size 9 to 14) (size 15 to 20)
#    0.000    1.333    4.444    2.000    0.000    1.778 
#    0.000    1.111    0.000    0.000    0.000    0.000 
#    0.000    0.000    0.000    0.000    0.000    0.000 
#
# Total GULP energy -100789.661351 kJ/mol
# GULP energy per Si atom -5599.425631 kJ/mol
# Density = 2.641785 g / cm^3
# Si number density = 26.478111 Si / 1000 Ang^3
#
#
#
# Elastic Constant Matrix: (Units=GPa)
#
#
# Indices 1 2 3 4 5 6 
#
# 1 27.6212 24.5804 13.6030 0.0000 2.7893 0.0000
# 2 24.5804 147.0124 45.0033 0.0000 7.3664 0.0001
# 3 13.6030 45.0033 95.3404 0.0000 14.5931 0.0000
# 4 0.0000 0.0000 0.0000 20.2050 0.0000 -2.5737
# 5 2.7893 7.3664 14.5931 0.0000 26.5163 0.0000
# 6 0.0000 0.0001 0.0000 -2.5737 0.0000 48.2965
#
#
#
# Elastic Compliance Matrix: (Units=1/GPa)
#
#
# Indices 1 2 3 4 5 6 
#
# 1 0.043400 -0.006262 -0.003062 0.000000 -0.001141 0.000000
# 2 -0.006262 0.008855 -0.003288 0.000000 0.000008 0.000000
# 3 -0.003062 -0.003288 0.013419 0.000000 -0.006149 0.000000
# 4 0.000000 0.000000 0.000000 0.049831 0.000000 0.002655
# 5 -0.001141 0.000008 -0.006149 0.000000 0.041215 0.000000
# 6 0.000000 0.000000 0.000000 0.002655 0.000000 0.020847
#
#
# Mechanical properties :
#
#
# Convention : Reuss Voigt Hill
#
# Bulk Modulus (GPa) = 24.72137 48.48302 36.60219
# Shear Modulus (GPa) = 23.11893 31.45602 27.28748
#
# Velocity S-wave (km/s) = 2.95809 3.45048 3.21373
# Velocity P-wave (km/s) = 4.58518 5.85019 5.25588
#
# Compressibility (1/GPa) = 0.04045084
#
# Stress axis : x y z
#
# Youngs Moduli (GPa) = 23.04157 112.92842 74.52284
#
# Poissons Ratio (x) = 0.70716 0.22817
# Poissons Ratio (y) = 0.14429 0.24501
# Poissons Ratio (z) = 0.07055 0.37127
#
# Static dielectric constant tensor:
#      x y z
#    x 2.109750 0.000000 0.096080 
#    y 0.000000 1.978930 0.000000 
#    z 0.096080 0.000000 2.104090 
# 
# From -- ./inp_files/207851.got.cif
#   From: 2010.05.17/outbox.cif.g08.bks.cpg/sg15_104_cif.got.tgz:207851.got - 2010.06.03 18:47:42.
