data_PCOD9285226
_publ_section_title
;
Structure prediction by ZEFSAII (Michael W. Deem and Ramdas Pophale) SiO2 
 PCOD9285226
Probable space group: C 2/C
;
_chemical_formula_sum "Si O2"
_cell_formula_units_Z 56
_cell_length_a 5.788014
_cell_length_b 21.627950
_cell_length_c 18.591618
_cell_angle_alpha 90.000000
_cell_angle_beta 69.496907
_cell_angle_gamma 90.000000
_cell_volume 2179.922112
_symmetry_space_group_name_H-M "C 2/C"
_symmetry_group_IT_number 15
_symmetry_cell_setting 'monoclinic'
loop_
_space_group_symop_operation_xyz
x,y,z
-x,y,1/2-z
-x,-y,-z
x,-y,1/2+z
1/2+x,1/2+y,z
1/2-x,1/2+y,1/2-z
1/2-x,1/2-y,-z
1/2+x,1/2-y,1/2+z
loop_
_atom_site_type_symbol
_atom_site_label
_atom_site_fract_x
_atom_site_fract_y
_atom_site_fract_z
Si Si1 0.451826 0.596667 0.453736
Si Si2 0.761600 0.780879 0.238495
Si Si3 0.796383 0.410966 0.210522
Si Si4 0.538810 0.873434 0.660709
Si Si5 0.988787 0.172313 0.929444
Si Si6 0.654261 0.990731 0.911378
Si Si7 0.560379 0.801525 0.964146
O O1 0.672392 0.629504 0.388051
O O2 0.499869 0.605781 0.533118
O O3 0.411645 0.532863 0.417332
O O4 0.214347 0.639301 0.470576
O O5 0.500000 0.747785 0.250000
O O6 0.678748 0.837135 0.299938
O O7 0.000000 0.749998 0.250000
O O8 0.875428 0.821078 0.160394
O O9 0.500000 0.425237 0.250000
O O10 0.860505 0.447526 0.132038
O O11 0.000000 0.428719 0.250000
O O12 0.500000 0.877729 0.750000
O O13 0.438113 0.935754 0.632101
O O14 0.442489 0.815624 0.623124
O O15 0.118944 0.228688 0.959635
O O16 0.703124 0.191042 0.967924
O O17 0.500000 0.000000 0.000000
#
# Coordination Sequence:
#
# PCOD9285226 Si02
#       7
#     8   8   8   8   8   8   8
#     4  10  23  40  67  93 127 176 222 284 342 419
#     4  10  24  42  66  98 139 177 220 283 349 414
#     4  10  24  43  67  94 134 178 224 286 351 408
#     4  10  23  43  63  92 132 173 226 287 350 421
#     4  10  21  41  68  96 135 173 224 284 347 421
#     4  11  26  40  64  93 129 177 234 287 342 417
#     4   9  21  41  67  98 127 175 221 280 350 422
#
# _framework density 25.68899
#
# number of rings (size 3 to 8) (size 9 to 14) (size 15 to 20)
#    0.000    2.000    0.000    0.857   10.000    8.571 
#    2.571    0.000    0.000    0.000    0.000    0.000 
#    0.000    0.000    0.000    0.000    0.000    0.000 
#
# Total GULP energy -156197.974421 kJ/mol
# GULP energy per Si atom -5578.499086 kJ/mol
# Density = 2.563052 g / cm^3
# Si number density = 25.688990 Si / 1000 Ang^3
#
#
#
# Elastic Constant Matrix: (Units=GPa)
#
#
# Indices 1 2 3 4 5 6 
#
# 1 104.1384 2.2450 34.4277 0.0000 -7.8229 0.0000
# 2 2.2450 83.7205 15.6215 0.0000 17.0968 0.0000
# 3 34.4277 15.6215 126.1699 0.0000 9.7733 0.0000
# 4 0.0000 0.0000 0.0000 32.6430 0.0000 10.9932
# 5 -7.8229 17.0968 9.7733 0.0000 31.7421 0.0000
# 6 0.0000 0.0000 0.0000 10.9932 0.0000 23.1539
#
#
#
# Elastic Compliance Matrix: (Units=1/GPa)
#
#
# Indices 1 2 3 4 5 6 
#
# 1 0.010984 -0.000501 -0.003243 0.000000 0.003976 0.000000
# 2 -0.000501 0.013602 -0.000994 0.000000 -0.007144 0.000000
# 3 -0.003243 -0.000994 0.009173 0.000000 -0.003088 0.000000
# 4 0.000000 0.000000 0.000000 0.036465 0.000000 -0.017313
# 5 0.003976 -0.007144 -0.003088 0.000000 0.037282 0.000000
# 6 0.000000 0.000000 0.000000 -0.017313 0.000000 0.051409
#
#
# Mechanical properties :
#
#
# Convention : Reuss Voigt Hill
#
# Bulk Modulus (GPa) = 41.18146 46.51302 43.84724
# Shear Modulus (GPa) = 28.33065 34.95678 31.64372
#
# Velocity S-wave (km/s) = 3.32449 3.69286 3.51351
# Velocity P-wave (km/s) = 5.54995 6.02731 5.79355
#
# Compressibility (1/GPa) = 0.02428277
#
# Stress axis : x y z
#
# Youngs Moduli (GPa) = 91.03960 73.51704 109.01493
#
# Poissons Ratio (x) = 0.03685 0.35355
# Poissons Ratio (y) = 0.04564 0.10836
# Poissons Ratio (z) = 0.29525 0.07307
#
# Static dielectric constant tensor:
#      x y z
#    x 2.264460 0.000000 0.193420 
#    y 0.000000 2.127370 0.000000 
#    z 0.193420 0.000000 2.233850 
# 
# From -- ./inp_files/186103.got.cif
#   From: 2010.05.17/outbox.cif.g08.bks.cpg/sg15_94_cif.got.tgz:186103.got - 2010.06.03 18:47:42.
