data_PCOD9285885
_publ_section_title
;
Structure prediction by ZEFSAII (Michael W. Deem and Ramdas Pophale) SiO2 
 PCOD9285885
Probable space group: C 2/C
;
_chemical_formula_sum "Si O2"
_cell_formula_units_Z 56
_cell_length_a 8.866105
_cell_length_b 21.961911
_cell_length_c 14.115267
_cell_angle_alpha 90.000000
_cell_angle_beta 113.972941
_cell_angle_gamma 90.000000
_cell_volume 2511.386282
_symmetry_space_group_name_H-M "C 2/C"
_symmetry_group_IT_number 15
_symmetry_cell_setting 'monoclinic'
loop_
_space_group_symop_operation_xyz
x,y,z
-x,y,1/2-z
-x,-y,-z
x,-y,1/2+z
1/2+x,1/2+y,z
1/2-x,1/2+y,1/2-z
1/2-x,1/2-y,-z
1/2+x,1/2-y,1/2+z
loop_
_atom_site_type_symbol
_atom_site_label
_atom_site_fract_x
_atom_site_fract_y
_atom_site_fract_z
Si Si1 0.649353 0.072854 0.595313
Si Si2 0.000000 0.960791 0.250000
Si Si3 0.595276 0.337707 0.091459
Si Si4 0.363582 0.478418 0.393357
Si Si5 0.000000 0.754884 0.250000
Si Si6 0.966088 0.540557 0.134019
Si Si7 0.320465 0.281107 0.923659
Si Si8 0.042899 0.686415 0.869178
O O1 0.846910 0.076236 0.662619
O O2 0.592779 0.080914 0.470969
O O3 0.546656 0.122880 0.627154
O O4 0.599999 0.005894 0.622757
O O5 0.081514 0.004021 0.192853
O O6 0.637914 0.406656 0.126840
O O7 0.555743 0.297064 0.174633
O O8 0.758569 0.315117 0.077402
O O9 0.431317 0.337435 0.984668
O O10 0.500000 0.500000 0.500000
O O11 0.189259 0.497700 0.385703
O O12 0.159820 0.714778 0.317253
O O13 0.000000 0.565523 0.250000
O O14 0.452989 0.235548 0.911357
O O15 0.250000 0.250000 0.000000
O O16 0.000000 0.700439 0.750000
#
# Coordination Sequence:
#
# PCOD9285885 Si02
#       8
#     8   4   8   8   4   8   8   8
#     4  11  24  37  66 100 129 178 231 288 335 404
#     4  12  23  36  66  94 134 168 238 274 337 394
#     4  11  23  42  69  98 135 177 227 281 340 413
#     4  12  24  40  66  98 134 180 228 281 338 406
#     4  10  21  42  68 106 128 172 230 286 339 410
#     4  11  22  41  61  94 138 177 229 281 343 404
#     4  10  24  39  69 101 135 168 218 286 350 401
#     4  12  22  41  72 101 133 174 231 286 343 411
#
# _framework density 22.298441
#
# number of rings (size 3 to 8) (size 9 to 14) (size 15 to 20)
#    0.000    0.857    5.714    2.143    4.000    0.000 
#    0.000    0.000   15.714    0.000    0.000    0.000 
#    0.000    0.000    0.000    0.000    0.000    0.000 
#
# Total GULP energy -156326.437649 kJ/mol
# GULP energy per Si atom -5583.087059 kJ/mol
# Density = 2.224769 g / cm^3
# Si number density = 22.298441 Si / 1000 Ang^3
#
#
#
# Elastic Constant Matrix: (Units=GPa)
#
#
# Indices 1 2 3 4 5 6 
#
# 1 161.5074 13.6943 46.6325 0.0000 11.3850 0.0000
# 2 13.6943 15.4169 2.0979 0.0000 -0.3301 0.0000
# 3 46.6325 2.0979 126.2894 0.0000 7.9238 0.0000
# 4 0.0000 0.0000 0.0000 21.1985 0.0000 -3.9227
# 5 11.3850 -0.3301 7.9238 0.0000 57.3636 0.0000
# 6 0.0000 0.0000 0.0000 -3.9227 0.0000 27.5790
#
#
#
# Elastic Compliance Matrix: (Units=1/GPa)
#
#
# Indices 1 2 3 4 5 6 
#
# 1 0.007572 -0.006395 -0.002616 0.000000 -0.001178 0.000000
# 2 -0.006395 0.070428 0.001096 0.000000 0.001523 0.000000
# 3 -0.002616 0.001096 0.008910 0.000000 -0.000705 0.000000
# 4 0.000000 0.000000 0.000000 0.048448 0.000000 0.006891
# 5 -0.001178 0.001523 -0.000705 0.000000 0.017773 0.000000
# 6 0.000000 0.000000 0.000000 0.006891 0.000000 0.037240
#
#
# Mechanical properties :
#
#
# Convention : Reuss Voigt Hill
#
# Bulk Modulus (GPa) = 14.06868 47.56259 30.81563
# Shear Modulus (GPa) = 21.74903 37.28082 29.51493
#
# Velocity S-wave (km/s) = 3.12647 4.09333 3.64212
# Velocity P-wave (km/s) = 4.39955 6.61186 5.61573
#
# Compressibility (1/GPa) = 0.07107990
#
# Stress axis : x y z
#
# Youngs Moduli (GPa) = 132.06018 14.19889 112.22977
#
# Poissons Ratio (x) = 0.09081 0.29358
# Poissons Ratio (y) = 0.84459 -0.12300
# Poissons Ratio (z) = 0.34546 -0.01556
#
# Static dielectric constant tensor:
#      x y z
#    x 1.841990 0.000000 -0.004840 
#    y 0.000000 1.824190 0.000000 
#    z -0.004840 0.000000 1.926920 
# 
# From -- ./inp_files/138008.got.cif
#   From: 2010.05.17/outbox.cif.g08.bks.cpg/sg15_70_cif.got.tgz:138008.got - 2010.06.03 18:47:42.
