data_PCOD9285332
_publ_section_title
;
Structure prediction by ZEFSAII (Michael W. Deem and Ramdas Pophale) SiO2 
 PCOD9285332
Probable space group: C 2/C
;
_chemical_formula_sum "Si O2"
_cell_formula_units_Z 36
_cell_length_a 16.543158
_cell_length_b 8.385668
_cell_length_c 22.441519
_cell_angle_alpha 90.000000
_cell_angle_beta 36.005520
_cell_angle_gamma 90.000000
_cell_volume 1830.141208
_symmetry_space_group_name_H-M "C 2/C"
_symmetry_group_IT_number 15
_symmetry_cell_setting 'monoclinic'
loop_
_space_group_symop_operation_xyz
x,y,z
-x,y,1/2-z
-x,-y,-z
x,-y,1/2+z
1/2+x,1/2+y,z
1/2-x,1/2+y,1/2-z
1/2-x,1/2-y,-z
1/2+x,1/2-y,1/2+z
loop_
_atom_site_type_symbol
_atom_site_label
_atom_site_fract_x
_atom_site_fract_y
_atom_site_fract_z
Si Si1 0.500000 0.936538 0.250000
Si Si2 0.825908 0.775517 0.767776
Si Si3 0.144756 0.494335 0.946508
Si Si4 0.884291 0.354931 0.911892
Si Si5 0.846301 0.133414 0.738652
O O1 0.611156 0.049506 0.152294
O O2 0.564023 0.831621 0.264432
O O3 0.718256 0.831162 0.883124
O O4 0.745724 0.688965 0.762323
O O5 0.884675 0.945600 0.709365
O O6 0.247621 0.626111 0.855845
O O7 0.119481 0.524265 0.030285
O O8 0.000000 0.500000 0.000000
O O9 0.021884 0.245991 0.833452
O O10 0.750000 0.250000 0.000000
#
# Coordination Sequence:
#
# PCOD9285332 Si02
#       5
#     4   8   8   8   8
#     4  12  26  44  68  98 140 170 224 280 336 390
#     4  10  23  42  70  96 134 175 219 280 329 398
#     4  10  21  41  70  94 133 170 230 264 335 400
#     4  12  25  44  67  98 135 181 221 279 336 402
#     4  10  22  44  67  94 136 176 220 278 334 392
#
# _framework density 19.670614
#
# number of rings (size 3 to 8) (size 9 to 14) (size 15 to 20)
#    1.333    0.000    2.222    4.000    3.111    0.889 
#    4.000    2.222    0.000    0.000    0.000    0.000 
#    0.000    0.000    0.000    0.000    0.000    0.000 
#
# Total GULP energy -100369.749627 kJ/mol
# GULP energy per Si atom -5576.097202 kJ/mol
# Density = 1.962584 g / cm^3
# Si number density = 19.670614 Si / 1000 Ang^3
#
#
#
# Elastic Constant Matrix: (Units=GPa)
#
#
# Indices 1 2 3 4 5 6 
#
# 1 55.0274 28.6588 9.5706 0.0000 7.4408 0.0000
# 2 28.6588 87.4867 26.2006 0.0000 11.8479 0.0000
# 3 9.5706 26.2006 99.2301 0.0000 10.4543 0.0000
# 4 0.0000 0.0000 0.0000 36.5570 0.0000 7.2875
# 5 7.4408 11.8479 10.4543 0.0000 37.1612 0.0000
# 6 0.0000 0.0000 0.0000 7.2875 0.0000 35.8805
#
#
#
# Elastic Compliance Matrix: (Units=1/GPa)
#
#
# Indices 1 2 3 4 5 6 
#
# 1 0.022084 -0.006915 -0.000073 0.000000 -0.002197 0.000000
# 2 -0.006915 0.014940 -0.003011 0.000000 -0.002532 0.000000
# 3 -0.000073 -0.003011 0.011106 0.000000 -0.002150 0.000000
# 4 0.000000 0.000000 0.000000 0.028509 0.000000 -0.005790
# 5 -0.002197 -0.002532 -0.002150 0.000000 0.028762 0.000000
# 6 0.000000 0.000000 0.000000 -0.005790 0.000000 0.029046
#
#
# Mechanical properties :
#
#
# Convention : Reuss Voigt Hill
#
# Bulk Modulus (GPa) = 35.54597 41.17824 38.36210
# Shear Modulus (GPa) = 30.52097 33.74069 32.13083
#
# Velocity S-wave (km/s) = 3.94331 4.14609 4.04597
# Velocity P-wave (km/s) = 6.23240 6.62566 6.43204
#
# Compressibility (1/GPa) = 0.02813258
#
# Stress axis : x y z
#
# Youngs Moduli (GPa) = 45.28200 66.93387 90.04020
#
# Poissons Ratio (x) = 0.46284 0.00655
# Poissons Ratio (y) = 0.31312 0.27112
# Poissons Ratio (z) = 0.00329 0.20155
#
# Static dielectric constant tensor:
#      x y z
#    x 1.738200 0.000000 0.025840 
#    y 0.000000 2.114030 0.000000 
#    z 0.025840 0.000000 1.702450 
# 
# From -- ./inp_files/242743.got.cif
#   From: 2010.05.17/outbox.cif.g08.bks.cpg/sg15_122_cif.got.tgz:242743.got - 2010.06.03 18:47:42.
