data_PCOD9285145
_publ_section_title
;
Structure prediction by ZEFSAII (Michael W. Deem and Ramdas Pophale) SiO2 
 PCOD9285145
Probable space group: C 2/C
;
_chemical_formula_sum "Si O2"
_cell_formula_units_Z 56
_cell_length_a 23.892343
_cell_length_b 14.434975
_cell_length_c 13.764652
_cell_angle_alpha 90.000000
_cell_angle_beta 28.232213
_cell_angle_gamma 90.000000
_cell_volume 2245.657666
_symmetry_space_group_name_H-M "C 2/C"
_symmetry_group_IT_number 15
_symmetry_cell_setting 'monoclinic'
loop_
_space_group_symop_operation_xyz
x,y,z
-x,y,1/2-z
-x,-y,-z
x,-y,1/2+z
1/2+x,1/2+y,z
1/2-x,1/2+y,1/2-z
1/2-x,1/2-y,-z
1/2+x,1/2-y,1/2+z
loop_
_atom_site_type_symbol
_atom_site_label
_atom_site_fract_x
_atom_site_fract_y
_atom_site_fract_z
Si Si1 0.445061 0.811907 0.142242
Si Si2 0.861871 0.503923 0.245302
Si Si3 0.872828 0.389455 0.934530
Si Si4 0.659129 0.713385 0.715967
Si Si5 0.138681 0.580415 0.446824
Si Si6 0.524755 0.455504 0.325581
Si Si7 0.848834 0.891391 0.757009
O O1 0.558115 0.786230 0.899063
O O2 0.523264 0.856654 0.108635
O O3 0.347259 0.891869 0.270843
O O4 0.388318 0.710768 0.229047
O O5 0.851483 0.558700 0.362939
O O6 0.800901 0.561961 0.251812
O O7 0.000000 0.500000 0.000000
O O8 0.000000 0.337258 0.750000
O O9 0.754752 0.331835 0.144702
O O10 0.890184 0.475847 0.978802
O O11 0.750000 0.750000 0.500000
O O12 0.592479 0.632293 0.763522
O O13 0.220176 0.619059 0.407276
O O14 0.500000 0.450910 0.250000
O O15 0.411019 0.447927 0.570755
O O16 0.609122 0.542530 0.220181
#
# Coordination Sequence:
#
# PCOD9285145 Si02
#       7
#     8   8   8   8   8   8   8
#     4  10  23  44  64 101 136 172 233 285 332 404
#     4  10  21  41  67  96 135 180 220 276 346 413
#     4  12  23  42  71  99 138 178 233 277 351 416
#     4  11  24  40  65 105 134 169 234 283 337 412
#     4  11  23  43  72  93 139 187 220 284 352 415
#     4  10  23  44  65  94 137 185 211 280 354 407
#     4  10  23  45  66  96 138 174 231 276 340 415
#
# _framework density 24.937017000000001
#
# number of rings (size 3 to 8) (size 9 to 14) (size 15 to 20)
#    0.000    1.429    4.286    1.714    4.000    1.714 
#    2.571    0.714    0.000    0.000    0.000    0.000 
#    0.000    0.000    0.000    0.000    0.000    0.000 
#
# Total GULP energy -156063.004797 kJ/mol
# GULP energy per Si atom -5573.678743 kJ/mol
# Density = 2.488026 g / cm^3
# Si number density = 24.937017 Si / 1000 Ang^3
#
#
#
# Elastic Constant Matrix: (Units=GPa)
#
#
# Indices 1 2 3 4 5 6 
#
# 1 115.7758 27.1603 20.3343 0.0000 -15.1489 0.0000
# 2 27.1603 121.7795 2.3266 0.0000 -9.5012 0.0000
# 3 20.3343 2.3266 60.1850 0.0000 -7.4007 0.0000
# 4 0.0000 0.0000 0.0000 31.0397 0.0000 -9.1883
# 5 -15.1489 -9.5012 -7.4007 0.0000 41.6670 0.0000
# 6 0.0000 0.0000 0.0000 -9.1883 0.0000 33.0491
#
#
#
# Elastic Compliance Matrix: (Units=1/GPa)
#
#
# Indices 1 2 3 4 5 6 
#
# 1 0.009964 -0.001959 -0.002965 0.000000 0.002649 0.000000
# 2 -0.001959 0.008746 0.000492 0.000000 0.001369 0.000000
# 3 -0.002965 0.000492 0.017870 0.000000 0.002208 0.000000
# 4 0.000000 0.000000 0.000000 0.035106 0.000000 0.009760
# 5 0.002649 0.001369 0.002208 0.000000 0.025668 0.000000
# 6 0.000000 0.000000 0.000000 0.009760 0.000000 0.032972
#
#
# Mechanical properties :
#
#
# Convention : Reuss Voigt Hill
#
# Bulk Modulus (GPa) = 36.07995 44.15365 40.11680
# Shear Modulus (GPa) = 33.68644 37.67908 35.68276
#
# Velocity S-wave (km/s) = 3.67939 3.89134 3.78685
# Velocity P-wave (km/s) = 5.70530 6.15910 5.93654
#
# Compressibility (1/GPa) = 0.02771623
#
# Stress axis : x y z
#
# Youngs Moduli (GPa) = 100.35739 114.33906 55.96054
#
# Poissons Ratio (x) = 0.22399 0.16593
# Poissons Ratio (y) = 0.19660 -0.02754
# Poissons Ratio (z) = 0.29757 -0.05627
#
# Static dielectric constant tensor:
#      x y z
#    x 2.101660 0.000000 0.045830 
#    y 0.000000 2.055520 0.000000 
#    z 0.045830 0.000000 2.206540 
# 
# From -- ./inp_files/173783.got.cif
#   From: 2010.05.17/outbox.cif.g08.bks.cpg/sg15_87_cif.got.tgz:173783.got - 2010.06.03 18:47:42.
