data_PCOD9285550
_publ_section_title
;
Structure prediction by ZEFSAII (Michael W. Deem and Ramdas Pophale) SiO2 
 PCOD9285550
Probable space group: C 2/C
;
_chemical_formula_sum "Si O2"
_cell_formula_units_Z 40
_cell_length_a 7.167167
_cell_length_b 16.572780
_cell_length_c 19.722532
_cell_angle_alpha 90.000000
_cell_angle_beta 40.496871
_cell_angle_gamma 90.000000
_cell_volume 1521.325706
_symmetry_space_group_name_H-M "C 2/C"
_symmetry_group_IT_number 15
_symmetry_cell_setting 'monoclinic'
loop_
_space_group_symop_operation_xyz
x,y,z
-x,y,1/2-z
-x,-y,-z
x,-y,1/2+z
1/2+x,1/2+y,z
1/2-x,1/2+y,1/2-z
1/2-x,1/2-y,-z
1/2+x,1/2-y,1/2+z
loop_
_atom_site_type_symbol
_atom_site_label
_atom_site_fract_x
_atom_site_fract_y
_atom_site_fract_z
Si Si1 0.720610 0.281911 0.279943
Si Si2 0.110075 0.550718 0.823731
Si Si3 0.873944 0.015722 0.388152
Si Si4 0.512975 0.317120 0.589290
Si Si5 0.476740 0.618355 0.959353
O O1 0.781176 0.215238 0.206607
O O2 0.213443 0.423213 0.106713
O O3 0.000000 0.272219 0.250000
O O4 0.739121 0.363632 0.231689
O O5 0.285598 0.491779 0.724861
O O6 0.201500 0.517994 0.871657
O O7 0.505442 0.692086 0.599441
O O8 0.824142 0.954168 0.463480
O O9 0.822374 0.107898 0.421891
O O10 0.750000 0.250000 0.500000
O O11 0.364993 0.349909 0.561653
#
# Coordination Sequence:
#
# PCOD9285550 Si02
#       5
#     8   8   8   8   8
#     4   9  18  36  61  84 124 159 192 250 306 345
#     4   9  19  38  64  87 117 164 207 240 301 363
#     4  10  22  36  64  89 118 162 212 243 297 370
#     4  12  22  36  65  95 119 165 205 247 311 364
#     4  10  21  42  64  85 129 162 200 255 304 355
#
# _framework density 26.292857000000001
#
# number of rings (size 3 to 8) (size 9 to 14) (size 15 to 20)
#    0.000    2.000    4.000    2.400    2.800    0.800 
#    0.000    1.000   22.000    0.000    0.000    0.000 
#    0.000    0.000    0.000    0.000    0.000    0.000 
#
# Total GULP energy -111705.526212 kJ/mol
# GULP energy per Si atom -5585.276311 kJ/mol
# Density = 2.623301 g / cm^3
# Si number density = 26.292857 Si / 1000 Ang^3
#
#
#
# Elastic Constant Matrix: (Units=GPa)
#
#
# Indices 1 2 3 4 5 6 
#
# 1 94.7048 30.7214 83.6557 0.0059 12.4337 -0.0178
# 2 30.7214 143.8090 101.9559 0.0095 22.1602 -0.0161
# 3 83.6557 101.9559 166.5210 0.0090 44.9150 -0.0004
# 4 0.0059 0.0095 0.0090 21.7339 -0.0080 -33.2016
# 5 12.4337 22.1602 44.9150 -0.0080 50.7798 0.0093
# 6 -0.0178 -0.0161 -0.0004 -33.2016 0.0093 -34.6772
#
#
#
# Elastic Compliance Matrix: (Units=1/GPa)
#
#
# Indices 1 2 3 4 5 6 
#
# 1 0.022687 0.006160 -0.017002 -0.000007 0.006795 -0.000005
# 2 0.006160 0.014072 -0.012670 -0.000006 0.003557 -0.000003
# 3 -0.017002 -0.012670 0.025859 0.000004 -0.013180 0.000006
# 4 -0.000007 -0.000006 0.000004 0.018684 0.000007 -0.017889
# 5 0.006795 0.003557 -0.013180 0.000007 0.028135 -0.000004
# 6 -0.000005 -0.000003 0.000006 -0.017889 -0.000004 -0.011710
#
#
# Mechanical properties :
#
#
# Convention : Reuss Voigt Hill
#
# Bulk Modulus (GPa) = 64.12465 93.07786 78.60126
# Shear Modulus (GPa) = 33.34484 20.14742 26.74613
#
# Velocity S-wave (km/s) = 3.56506 2.77116 3.19288
# Velocity P-wave (km/s) = 6.43333 6.76139 6.59940
#
# Compressibility (1/GPa) = 0.01559463
#
# Stress axis : x y z
#
# Youngs Moduli (GPa) = 44.07848 71.06161 38.67124
#
# Poissons Ratio (x) = -0.43774 0.65747
# Poissons Ratio (y) = -0.27152 0.48997
# Poissons Ratio (z) = 0.74940 0.90036
#
# Static dielectric constant tensor:
#      x y z
#    x 2.164200 0.000000 -0.120440 
#    y 0.000000 2.080380 0.000000 
#    z -0.120440 0.000000 2.272820 
# 
# From -- ./inp_files/195593.got.cif
#   From: 2010.05.17/outbox.cif.g08.bks.cpg/sg15_98_cif.got.tgz:195593.got - 2010.06.03 18:47:42.
