data_PCOD9285221
_publ_section_title
;
Structure prediction by ZEFSAII (Michael W. Deem and Ramdas Pophale) SiO2 
 PCOD9285221
Probable space group: C 2/C
;
_chemical_formula_sum "Si O2"
_cell_formula_units_Z 56
_cell_length_a 24.802037
_cell_length_b 14.378173
_cell_length_c 14.306661
_cell_angle_alpha 90.000000
_cell_angle_beta 27.975251
_cell_angle_gamma 90.000000
_cell_volume 2393.236601
_symmetry_space_group_name_H-M "C 2/C"
_symmetry_group_IT_number 15
_symmetry_cell_setting 'monoclinic'
loop_
_space_group_symop_operation_xyz
x,y,z
-x,y,1/2-z
-x,-y,-z
x,-y,1/2+z
1/2+x,1/2+y,z
1/2-x,1/2+y,1/2-z
1/2-x,1/2-y,-z
1/2+x,1/2-y,1/2+z
loop_
_atom_site_type_symbol
_atom_site_label
_atom_site_fract_x
_atom_site_fract_y
_atom_site_fract_z
Si Si1 0.872372 0.979376 0.800012
Si Si2 0.686330 0.840861 0.769006
Si Si3 0.513561 0.049497 0.837308
Si Si4 0.627965 0.541830 0.413654
Si Si5 0.337598 0.876114 0.897988
Si Si6 0.719363 0.836484 0.111375
Si Si7 0.253199 0.158364 0.725793
O O1 0.872338 0.932271 0.696669
O O2 0.829984 0.904140 0.939035
O O3 0.994929 0.021782 0.637593
O O4 0.775180 0.058242 0.940697
O O5 0.807776 0.883390 0.619309
O O6 0.670092 0.817833 0.684811
O O7 0.663374 0.743585 0.855695
O O8 0.598246 0.921430 0.934548
O O9 0.500000 0.074745 0.750000
O O10 0.617734 0.107589 0.718862
O O11 0.551450 0.942439 0.781121
O O12 0.696681 0.443596 0.313027
O O13 0.328612 0.834853 0.015540
O O14 0.685770 0.821518 0.269847
O O15 0.750000 0.750000 0.000000
#
# Coordination Sequence:
#
# PCOD9285221 Si02
#       7
#     8   8   8   8   8   8   8
#     4   9  20  39  67  95 126 176 217 280 341 405
#     4  12  24  42  68  98 139 185 230 284 345 416
#     4  11  23  41  69 100 133 180 226 284 350 417
#     4  10  21  41  68  95 137 171 224 277 344 404
#     4  10  23  43  66  93 136 180 230 281 349 412
#     4  11  23  40  65 100 138 170 229 282 344 409
#     4  11  24  42  65  99 134 180 232 285 338 410
#
# _framework density 23.399273000000001
#
# number of rings (size 3 to 8) (size 9 to 14) (size 15 to 20)
#    0.000    1.429    0.000    6.857    2.000    3.429 
#    2.571    0.000   12.571    0.000    0.000    0.000 
#    0.000    0.000    0.000    0.000    0.000    0.000 
#
# Total GULP energy -156555.768144 kJ/mol
# GULP energy per Si atom -5591.277434 kJ/mol
# Density = 2.334602 g / cm^3
# Si number density = 23.399273 Si / 1000 Ang^3
#
#
#
# Elastic Constant Matrix: (Units=GPa)
#
#
# Indices 1 2 3 4 5 6 
#
# 1 146.1254 26.8673 34.6011 0.0000 40.5248 0.0000
# 2 26.8673 70.6451 9.4516 0.0000 3.8538 0.0000
# 3 34.6011 9.4516 64.6823 0.0000 3.4884 0.0000
# 4 0.0000 0.0000 0.0000 24.4550 0.0000 6.3643
# 5 40.5248 3.8538 3.4884 0.0000 38.0792 0.0000
# 6 0.0000 0.0000 0.0000 6.3643 0.0000 33.9449
#
#
#
# Elastic Compliance Matrix: (Units=1/GPa)
#
#
# Indices 1 2 3 4 5 6 
#
# 1 0.012010 -0.003204 -0.005311 0.000000 -0.011970 0.000000
# 2 -0.003204 0.015354 -0.000633 0.000000 0.001914 0.000000
# 3 -0.005311 -0.000633 0.018175 0.000000 0.004051 0.000000
# 4 0.000000 0.000000 0.000000 0.042989 0.000000 -0.008060
# 5 -0.011970 0.001914 0.004051 0.000000 0.038435 0.000000
# 6 0.000000 0.000000 0.000000 -0.008060 0.000000 0.030971
#
#
# Mechanical properties :
#
#
# Convention : Reuss Voigt Hill
#
# Bulk Modulus (GPa) = 36.70564 47.03253 41.86909
# Shear Modulus (GPa) = 26.98174 33.33134 30.15654
#
# Velocity S-wave (km/s) = 3.39942 3.77830 3.59385
# Velocity P-wave (km/s) = 5.57932 6.25921 5.92902
#
# Compressibility (1/GPa) = 0.02724377
#
# Stress axis : x y z
#
# Youngs Moduli (GPa) = 83.26529 65.12937 55.02029
#
# Poissons Ratio (x) = 0.20867 0.29220
# Poissons Ratio (y) = 0.26678 0.03482
# Poissons Ratio (z) = 0.44220 0.04122
#
# Static dielectric constant tensor:
#      x y z
#    x 1.889020 0.000000 0.032360 
#    y 0.000000 1.955360 0.000000 
#    z 0.032360 0.000000 1.910670 
# 
# From -- ./inp_files/178329.got.cif
#   From: 2010.05.17/outbox.cif.g08.bks.cpg/sg15_90_cif.got.tgz:178329.got - 2010.06.03 18:47:42.
