data_PCOD9285449
_publ_section_title
;
Structure prediction by ZEFSAII (Michael W. Deem and Ramdas Pophale) SiO2 
 PCOD9285449
Probable space group: C 2/C
;
_chemical_formula_sum "Si O2"
_cell_formula_units_Z 56
_cell_length_a 8.071588
_cell_length_b 12.694230
_cell_length_c 26.012006
_cell_angle_alpha 90.000000
_cell_angle_beta 107.995877
_cell_angle_gamma 90.000000
_cell_volume 2534.869891
_symmetry_space_group_name_H-M "C 2/C"
_symmetry_group_IT_number 15
_symmetry_cell_setting 'monoclinic'
loop_
_space_group_symop_operation_xyz
x,y,z
-x,y,1/2-z
-x,-y,-z
x,-y,1/2+z
1/2+x,1/2+y,z
1/2-x,1/2+y,1/2-z
1/2-x,1/2-y,-z
1/2+x,1/2-y,1/2+z
loop_
_atom_site_type_symbol
_atom_site_label
_atom_site_fract_x
_atom_site_fract_y
_atom_site_fract_z
Si Si1 0.337398 0.239780 0.696469
Si Si2 0.536655 0.154742 0.994437
Si Si3 0.446691 0.014775 0.408923
Si Si4 0.862534 0.066367 0.776136
Si Si5 0.446185 0.402147 0.636140
Si Si6 0.546603 0.609163 0.476370
Si Si7 0.414217 0.068909 0.296886
O O1 0.500000 0.226929 0.750000
O O2 0.215172 0.138801 0.686924
O O3 0.409235 0.282417 0.649722
O O4 0.212620 0.333862 0.703663
O O5 0.476870 0.092731 0.039953
O O6 0.744513 0.129488 0.010234
O O7 0.491879 0.277983 0.994543
O O8 0.464309 0.099955 0.935876
O O9 0.240867 0.040196 0.384608
O O10 0.519015 0.040979 0.358968
O O11 0.000000 0.117278 0.750000
O O12 0.703623 0.032700 0.725182
O O13 0.945319 0.963078 0.810085
O O14 0.527980 0.402736 0.588156
O O15 0.500000 0.500000 0.500000
O O16 0.500000 0.089579 0.250000
#
# Coordination Sequence:
#
# PCOD9285449 Si02
#       7
#     8   8   8   8   8   8   8
#     4  11  22  42  64  90 135 179 216 269 328 391
#     4   9  20  41  63  89 125 165 220 272 328 395
#     4   9  19  40  65  84 129 174 207 279 332 383
#     4  12  22  41  64  93 134 173 219 271 330 401
#     4  10  21  42  61  88 137 166 210 276 330 391
#     4  10  22  38  63  93 122 165 219 270 335 396
#     4  11  22  39  62  99 133 172 224 268 335 407
#
# _framework density 22.091864000000001
#
# number of rings (size 3 to 8) (size 9 to 14) (size 15 to 20)
#    0.000    1.714    4.286    0.857    0.000    8.000 
#    0.000    9.286    0.000    0.000    0.000    0.000 
#    0.000    0.000    0.000    0.000    0.000    0.000 
#
# Total GULP energy -156189.675365 kJ/mol
# GULP energy per Si atom -5578.202692 kJ/mol
# Density = 2.204158 g / cm^3
# Si number density = 22.091864 Si / 1000 Ang^3
#
#
#
# Elastic Constant Matrix: (Units=GPa)
#
#
# Indices 1 2 3 4 5 6 
#
# 1 36.0195 24.7271 24.7098 0.0000 -13.6072 0.0000
# 2 24.7271 130.1813 33.4701 0.0000 -19.7155 0.0000
# 3 24.7098 33.4701 115.5758 0.0000 -27.4571 0.0000
# 4 0.0000 0.0000 0.0000 17.7575 0.0000 -11.5615
# 5 -13.6072 -19.7155 -27.4571 0.0000 38.1702 0.0000
# 6 0.0000 0.0000 0.0000 -11.5615 0.0000 24.5554
#
#
#
# Elastic Compliance Matrix: (Units=1/GPa)
#
#
# Indices 1 2 3 4 5 6 
#
# 1 0.037057 -0.004690 -0.004826 0.000000 0.007316 0.000000
# 2 -0.004690 0.009206 -0.001123 0.000000 0.002275 0.000000
# 3 -0.004826 -0.001123 0.011413 0.000000 0.005909 0.000000
# 4 0.000000 0.000000 0.000000 0.081209 0.000000 0.038236
# 5 0.007316 0.002275 0.005909 0.000000 0.034233 0.000000
# 6 0.000000 0.000000 0.000000 0.038236 0.000000 0.058727
#
#
# Mechanical properties :
#
#
# Convention : Reuss Voigt Hill
#
# Bulk Modulus (GPa) = 27.47399 49.73228 38.60314
# Shear Modulus (GPa) = 18.84973 29.35458 24.10215
#
# Velocity S-wave (km/s) = 2.92420 3.64916 3.30661
# Velocity P-wave (km/s) = 4.88513 6.34946 5.66481
#
# Compressibility (1/GPa) = 0.03639806
#
# Stress axis : x y z
#
# Youngs Moduli (GPa) = 26.98533 108.62893 87.61750
#
# Poissons Ratio (x) = 0.50946 0.42288
# Poissons Ratio (y) = 0.12656 0.09836
# Poissons Ratio (z) = 0.13024 0.12195
#
# Static dielectric constant tensor:
#      x y z
#    x 1.869820 0.000000 -0.051010 
#    y 0.000000 1.820250 0.000000 
#    z -0.051010 0.000000 1.901400 
# 
# From -- ./inp_files/288080.got.cif
#   From: 2010.05.17/outbox.cif.g08.bks.cpg/sg15_145_cif.got.tgz:288080.got - 2010.06.03 18:47:42.
