data_PCOD9285724
_publ_section_title
;
Structure prediction by ZEFSAII (Michael W. Deem and Ramdas Pophale) SiO2 
 PCOD9285724
Probable space group: C 2/C
;
_chemical_formula_sum "Si O2"
_cell_formula_units_Z 56
_cell_length_a 8.900876
_cell_length_b 15.774956
_cell_length_c 23.883693
_cell_angle_alpha 90.000000
_cell_angle_beta 59.893806
_cell_angle_gamma 90.000000
_cell_volume 2901.130692
_symmetry_space_group_name_H-M "C 2/C"
_symmetry_group_IT_number 15
_symmetry_cell_setting 'monoclinic'
loop_
_space_group_symop_operation_xyz
x,y,z
-x,y,1/2-z
-x,-y,-z
x,-y,1/2+z
1/2+x,1/2+y,z
1/2-x,1/2+y,1/2-z
1/2-x,1/2-y,-z
1/2+x,1/2-y,1/2+z
loop_
_atom_site_type_symbol
_atom_site_label
_atom_site_fract_x
_atom_site_fract_y
_atom_site_fract_z
Si Si1 0.330462 0.674698 0.020741
Si Si2 0.507126 0.068299 0.048790
Si Si3 0.703432 0.773321 0.662422
Si Si4 0.000000 0.578221 0.250000
Si Si5 0.675193 0.245832 0.450774
Si Si6 0.497381 0.205354 0.817609
Si Si7 0.854729 0.470000 0.183108
Si Si8 0.000000 0.132557 0.750000
O O1 0.203772 0.594947 0.031834
O O2 0.312192 0.711460 0.086768
O O3 0.250000 0.750000 0.000000
O O4 0.535100 0.677690 0.969565
O O5 0.418330 0.155592 0.043844
O O6 0.402597 0.026782 0.120467
O O7 0.500000 0.000000 0.000000
O O8 0.606286 0.860418 0.690276
O O9 0.558248 0.698616 0.689821
O O10 0.832562 0.751719 0.689106
O O11 0.876493 0.523110 0.235072
O O12 0.750000 0.250000 0.500000
O O13 0.827936 0.254944 0.377110
O O14 0.500000 0.206797 0.750000
O O15 0.513417 0.109181 0.837168
O O16 0.666078 0.427548 0.221196
#
# Coordination Sequence:
#
# PCOD9285724 Si02
#       8
#     8   8   8   4   8   8   8   4
#     4  10  22  40  67  92 122 175 221 261 323 394
#     4  11  25  43  66  93 130 172 214 278 333 388
#     4  10  21  42  66  90 129 172 222 260 324 396
#     4  11  22  40  64  91 132 164 210 273 326 376
#     4  11  23  44  70  94 127 173 228 272 323 401
#     4  11  24  41  67  98 133 172 217 272 327 394
#     4  11  23  44  61  94 134 165 208 269 336 377
#     4   9  24  38  68  89 126 174 210 255 322 398
#
# _framework density 19.302820000000001
#
# number of rings (size 3 to 8) (size 9 to 14) (size 15 to 20)
#    0.000    1.429    3.571    0.857    8.000    4.571 
#    0.000    4.286    0.000    0.000    0.000    0.000 
#    0.000    0.000    0.000    0.000    0.000    0.000 
#
# Total GULP energy -156077.971226 kJ/mol
# GULP energy per Si atom -5574.213258 kJ/mol
# Density = 1.925889 g / cm^3
# Si number density = 19.302820 Si / 1000 Ang^3
#
#
#
# Elastic Constant Matrix: (Units=GPa)
#
#
# Indices 1 2 3 4 5 6 
#
# 1 102.9174 48.6297 44.7997 0.0000 -5.4281 0.0000
# 2 48.6297 103.4468 26.1761 0.0000 -5.1680 0.0000
# 3 44.7997 26.1761 90.7164 -0.0001 -3.6979 0.0000
# 4 0.0000 0.0000 -0.0001 46.1078 0.0000 -3.8600
# 5 -5.4281 -5.1680 -3.6979 0.0000 38.5014 0.0000
# 6 0.0000 0.0000 0.0000 -3.8600 0.0000 30.5857
#
#
#
# Elastic Compliance Matrix: (Units=1/GPa)
#
#
# Indices 1 2 3 4 5 6 
#
# 1 0.014839 -0.005490 -0.005711 0.000000 0.000807 0.000000
# 2 -0.005490 0.012508 -0.000864 0.000000 0.000822 0.000000
# 3 -0.005711 -0.000864 0.014111 0.000000 0.000434 0.000000
# 4 0.000000 0.000000 0.000000 0.021920 0.000000 0.002766
# 5 0.000807 0.000822 0.000434 0.000000 0.026239 0.000000
# 6 0.000000 0.000000 0.000000 0.002766 0.000000 0.033044
#
#
# Mechanical properties :
#
#
# Convention : Reuss Voigt Hill
#
# Bulk Modulus (GPa) = 57.71585 59.58795 58.65190
# Shear Modulus (GPa) = 32.77232 34.87065 33.82148
#
# Velocity S-wave (km/s) = 4.12491 4.25491 4.19041
# Velocity P-wave (km/s) = 7.25614 7.42133 7.33920
#
# Compressibility (1/GPa) = 0.01732626
#
# Stress axis : x y z
#
# Youngs Moduli (GPa) = 67.38782 79.95171 70.86749
#
# Poissons Ratio (x) = 0.43897 0.40474
# Poissons Ratio (y) = 0.36999 0.06124
# Poissons Ratio (z) = 0.38487 0.06909
#
# Static dielectric constant tensor:
#      x y z
#    x 1.700810 0.000000 -0.015640 
#    y 0.000000 1.669320 0.000000 
#    z -0.015640 0.000000 1.675810 
# 
# From -- ./inp_files/231610.got.cif
#   From: 2010.05.17/outbox.cif.g08.bks.cpg/sg15_116_cif.got.tgz:231610.got - 2010.06.03 18:47:42.
