data_PCOD9285490
_publ_section_title
;
Structure prediction by ZEFSAII (Michael W. Deem and Ramdas Pophale) SiO2 
 PCOD9285490
Probable space group: C 2/C
;
_chemical_formula_sum "Si O2"
_cell_formula_units_Z 24
_cell_length_a 23.307163
_cell_length_b 6.581303
_cell_length_c 7.334278
_cell_angle_alpha 90.000000
_cell_angle_beta 141.868529
_cell_angle_gamma 90.000000
_cell_volume 694.661355
_symmetry_space_group_name_H-M "C 2/C"
_symmetry_group_IT_number 15
_symmetry_cell_setting 'monoclinic'
loop_
_space_group_symop_operation_xyz
x,y,z
-x,y,1/2-z
-x,-y,-z
x,-y,1/2+z
1/2+x,1/2+y,z
1/2-x,1/2+y,1/2-z
1/2-x,1/2-y,-z
1/2+x,1/2-y,1/2+z
loop_
_atom_site_type_symbol
_atom_site_label
_atom_site_fract_x
_atom_site_fract_y
_atom_site_fract_z
Si Si1 0.659732 0.148466 0.084343
Si Si2 0.500000 0.159141 0.250000
Si Si3 0.366055 0.428593 0.140016
Si Si4 0.250000 0.250000 0.500000
O O1 0.701918 0.975847 0.337757
O O2 0.638195 0.330983 0.172149
O O3 0.776798 0.161297 0.296158
O O4 0.567505 0.013461 0.821942
O O5 0.455315 0.338581 0.269789
O O6 0.351462 0.673792 0.131552
#
# Coordination Sequence:
#
# PCOD9285490 Si02
#       4
#     8   4   8   4
#     4  10  21  42  62  92 123 163 206 254 306 367
#     4  12  20  38  72  82 128 168 196 260 312 356
#     4  10  21  42  62  92 123 163 206 254 306 367
#     4   8  22  40  60  92 126 156 210 250 308 366
#
# _framework density 34.549205999999998
#
# number of rings (size 3 to 8) (size 9 to 14) (size 15 to 20)
#    2.000    0.000    3.333    1.000    0.000    1.333 
#    0.000   13.333    0.000    0.000    0.000    0.000 
#    0.000    0.000    0.000    0.000    0.000    0.000 
#
# Total GULP energy -66960.517983 kJ/mol
# GULP energy per Si atom -5580.043165 kJ/mol
# Density = 3.447057 g / cm^3
# Si number density = 34.549206 Si / 1000 Ang^3
#
#
#
# Elastic Constant Matrix: (Units=GPa)
#
#
# Indices 1 2 3 4 5 6 
#
# 1 419.4446 156.6772 85.5487 0.0000 64.6556 0.0000
# 2 156.6772 394.1873 57.6015 0.0000 35.8911 0.0000
# 3 85.5487 57.6015 184.3366 0.0000 12.4256 0.0000
# 4 0.0000 0.0000 0.0000 88.7267 0.0000 19.5848
# 5 64.6556 35.8911 12.4256 0.0000 88.2835 0.0000
# 6 0.0000 0.0000 0.0000 19.5848 0.0000 159.4609
#
#
#
# Elastic Compliance Matrix: (Units=1/GPa)
#
#
# Indices 1 2 3 4 5 6 
#
# 1 0.003248 -0.000966 -0.001082 0.000000 -0.001834 0.000000
# 2 -0.000966 0.003031 -0.000468 0.000000 -0.000459 0.000000
# 3 -0.001082 -0.000468 0.006065 0.000000 0.000129 0.000000
# 4 0.000000 0.000000 0.000000 0.011585 0.000000 -0.001423
# 5 -0.001834 -0.000459 0.000129 0.000000 0.012839 0.000000
# 6 0.000000 0.000000 0.000000 -0.001423 0.000000 0.006446
#
#
# Mechanical properties :
#
#
# Convention : Reuss Voigt Hill
#
# Bulk Modulus (GPa) = 136.76171 177.51369 157.13770
# Shear Modulus (GPa) = 98.65412 113.83698 106.24555
#
# Velocity S-wave (km/s) = 5.34945 5.74637 5.55146
# Velocity P-wave (km/s) = 8.82191 9.77339 9.30981
#
# Compressibility (1/GPa) = 0.00731199
#
# Stress axis : x y z
#
# Youngs Moduli (GPa) = 307.85083 329.92668 164.89356
#
# Poissons Ratio (x) = 0.31871 0.17842
# Poissons Ratio (y) = 0.29739 0.07715
# Poissons Ratio (z) = 0.33310 0.15436
#
# Static dielectric constant tensor:
#      x y z
#    x 2.927190 0.000000 0.007070 
#    y 0.000000 2.500740 0.000000 
#    z 0.007070 0.000000 3.187630 
# 
# From -- ./inp_files/121256.got.cif
#   From: 2010.05.17/outbox.cif.g08.bks.cpg/sg15_61_cif.got.tgz:121256.got - 2010.06.03 18:47:42.
