data_PCOD9285090
_publ_section_title
;
Structure prediction by ZEFSAII (Michael W. Deem and Ramdas Pophale) SiO2 
 PCOD9285090
Probable space group: C 2/C
;
_chemical_formula_sum "Si O2"
_cell_formula_units_Z 64
_cell_length_a 32.515877
_cell_length_b 8.941997
_cell_length_c 24.744373
_cell_angle_alpha 90.000000
_cell_angle_beta 154.046598
_cell_angle_gamma 90.000000
_cell_volume 3148.643403
_symmetry_space_group_name_H-M "C 2/C"
_symmetry_group_IT_number 15
_symmetry_cell_setting 'monoclinic'
loop_
_space_group_symop_operation_xyz
x,y,z
-x,y,1/2-z
-x,-y,-z
x,-y,1/2+z
1/2+x,1/2+y,z
1/2-x,1/2+y,1/2-z
1/2-x,1/2-y,-z
1/2+x,1/2-y,1/2+z
loop_
_atom_site_type_symbol
_atom_site_label
_atom_site_fract_x
_atom_site_fract_y
_atom_site_fract_z
Si Si1 0.962038 0.360029 0.846930
Si Si2 0.397998 0.377237 0.502651
Si Si3 0.333984 0.420470 0.313669
Si Si4 0.820950 0.216691 0.131191
Si Si5 0.152698 0.735486 0.630610
Si Si6 0.696415 0.943095 0.290365
Si Si7 0.092171 0.054975 0.719819
Si Si8 0.990052 0.629221 0.675804
O O1 0.997581 0.487584 0.848526
O O2 0.878481 0.429309 0.784500
O O3 0.915914 0.217356 0.763690
O O4 0.050793 0.294896 0.984796
O O5 0.381505 0.331945 0.420253
O O6 0.307186 0.474439 0.412865
O O7 0.493233 0.471937 0.612830
O O8 0.407143 0.234306 0.553374
O O9 0.234072 0.337107 0.189238
O O10 0.329204 0.592347 0.330112
O O11 0.388618 0.426366 0.321690
O O12 0.806434 0.325309 0.164389
O O13 0.921657 0.261699 0.227179
O O14 0.826959 0.048139 0.159552
O O15 0.750000 0.250000 0.000000
O O16 0.161814 0.639578 0.695924
O O17 0.000000 0.584111 0.750000
#
# Coordination Sequence:
#
# PCOD9285090 Si02
#       8
#     8   8   8   8   8   8   8   8
#     4  11  25  39  65  97 134 171 217 279 339 393
#     4  10  22  40  65  92 129 175 225 265 322 403
#     4  11  24  39  65  99 139 173 222 265 337 401
#     4  10  21  41  67  91 120 171 227 270 322 389
#     4  11  24  40  62  98 136 178 217 268 336 404
#     4  10  22  41  61  95 132 173 224 266 330 402
#     4  11  23  41  64  96 135 173 214 281 332 389
#     4  10  23  43  65  91 124 170 221 276 328 393
#
# _framework density 20.326215000000001
#
# number of rings (size 3 to 8) (size 9 to 14) (size 15 to 20)
#    0.000    1.500    2.500    1.500    7.000    1.000 
#    0.000    6.250    0.000    0.000    0.000    0.000 
#    0.000    0.000    0.000    0.000    0.000    0.000 
#
# Total GULP energy -178512.103008 kJ/mol
# GULP energy per Si atom -5578.503219 kJ/mol
# Density = 2.027995 g / cm^3
# Si number density = 20.326215 Si / 1000 Ang^3
#
#
#
# Elastic Constant Matrix: (Units=GPa)
#
#
# Indices 1 2 3 4 5 6 
#
# 1 63.1469 17.0745 30.1970 0.0000 5.0975 0.0000
# 2 17.0745 104.1476 45.4799 0.0000 2.7663 0.0000
# 3 30.1970 45.4799 87.3884 0.0000 5.6128 0.0000
# 4 0.0000 0.0000 0.0000 17.3431 0.0000 8.8291
# 5 5.0975 2.7663 5.6128 0.0000 29.1418 0.0000
# 6 0.0000 0.0000 0.0000 8.8291 0.0000 8.0945
#
#
#
# Elastic Compliance Matrix: (Units=1/GPa)
#
#
# Indices 1 2 3 4 5 6 
#
# 1 0.019105 -0.000327 -0.006297 0.000000 -0.002098 0.000000
# 2 -0.000327 0.012431 -0.006363 0.000000 0.000103 0.000000
# 3 -0.006297 -0.006363 0.017032 0.000000 -0.001575 0.000000
# 4 0.000000 0.000000 0.000000 0.129658 0.000000 -0.141426
# 5 -0.002098 0.000103 -0.001575 0.000000 0.034976 0.000000
# 6 0.000000 0.000000 0.000000 -0.141426 0.000000 0.277803
#
#
# Mechanical properties :
#
#
# Convention : Reuss Voigt Hill
#
# Bulk Modulus (GPa) = 44.25900 48.90953 46.58427
# Shear Modulus (GPa) = 9.53270 21.71130 15.62200
#
# Velocity S-wave (km/s) = 2.16796 3.27179 2.77531
# Velocity P-wave (km/s) = 5.29984 6.19575 5.76523
#
# Compressibility (1/GPa) = 0.02259427
#
# Stress axis : x y z
#
# Youngs Moduli (GPa) = 52.34227 80.44134 58.71299
#
# Poissons Ratio (x) = 0.02627 0.36972
# Poissons Ratio (y) = 0.01710 0.37362
# Poissons Ratio (z) = 0.32960 0.51189
#
# Static dielectric constant tensor:
#      x y z
#    x 1.766940 0.000000 0.009720 
#    y 0.000000 1.782140 0.000000 
#    z 0.009720 0.000000 1.815650 
# 
# From -- ./inp_files/284438.got.cif
#   From: 2010.05.17/outbox.cif.g08.bks.cpg/sg15_143_cif.got.tgz:284438.got - 2010.06.03 18:47:42.
