data_PCOD9285340
_publ_section_title
;
Structure prediction by ZEFSAII (Michael W. Deem and Ramdas Pophale) SiO2 
 PCOD9285340
Probable space group: C 2/C
;
_chemical_formula_sum "Si O2"
_cell_formula_units_Z 56
_cell_length_a 20.141304
_cell_length_b 24.515942
_cell_length_c 5.311030
_cell_angle_alpha 90.000000
_cell_angle_beta 74.224983
_cell_angle_gamma 90.000000
_cell_volume 2523.724474
_symmetry_space_group_name_H-M "C 2/C"
_symmetry_group_IT_number 15
_symmetry_cell_setting 'monoclinic'
loop_
_space_group_symop_operation_xyz
x,y,z
-x,y,1/2-z
-x,-y,-z
x,-y,1/2+z
1/2+x,1/2+y,z
1/2-x,1/2+y,1/2-z
1/2-x,1/2-y,-z
1/2+x,1/2-y,1/2+z
loop_
_atom_site_type_symbol
_atom_site_label
_atom_site_fract_x
_atom_site_fract_y
_atom_site_fract_z
Si Si1 0.687158 0.411072 0.350086
Si Si2 0.273340 0.915954 0.748222
Si Si3 0.413321 0.027750 0.141006
Si Si4 0.343051 0.805061 0.835418
Si Si5 0.269795 0.705680 0.683657
Si Si6 0.000000 0.323584 0.750000
Si Si7 0.000000 0.615253 0.750000
Si Si8 0.530122 0.561719 0.970874
O O1 0.732800 0.431418 0.536627
O O2 0.683753 0.346530 0.421964
O O3 0.612246 0.437658 0.405014
O O4 0.723544 0.415810 0.041370
O O5 0.332926 0.959928 0.726239
O O6 0.310731 0.855461 0.703301
O O7 0.445745 0.077816 0.955125
O O8 0.431513 0.980096 0.918319
O O9 0.314572 0.744140 0.819667
O O10 0.425457 0.801156 0.735855
O O11 0.302959 0.817479 0.137379
O O12 0.250000 0.750000 0.500000
O O13 0.027284 0.351424 0.461180
O O14 0.500000 0.588141 0.750000
O O15 0.500000 0.589375 0.250000
O O16 0.500000 0.500000 0.000000
#
# Coordination Sequence:
#
# PCOD9285340 Si02
#       8
#     8   8   8   8   8   4   4   8
#     4  11  23  42  71  97 132 180 223 276 347 412
#     4  11  23  42  66  98 135 171 229 279 331 408
#     4  12  25  44  62  96 133 177 225 279 329 395
#     4  10  23  42  66 100 136 177 228 279 342 413
#     4  10  21  41  70  97 135 178 222 284 344 409
#     4  12  26  41  70 100 134 186 226 279 344 418
#     4  12  26  43  70  88 134 184 226 267 352 396
#     4  10  22  45  68  94 130 173 222 276 347 411
#
# _framework density 22.189427999999999
#
# number of rings (size 3 to 8) (size 9 to 14) (size 15 to 20)
#    0.000    1.143    2.857    3.000    6.000    0.000 
#   16.714    0.000    0.000    0.000    0.000    0.000 
#    0.000    0.000    0.000    0.000    0.000    0.000 
#
# Total GULP energy -155942.071086 kJ/mol
# GULP energy per Si atom -5569.359682 kJ/mol
# Density = 2.213892 g / cm^3
# Si number density = 22.189428 Si / 1000 Ang^3
#
#
#
# Elastic Constant Matrix: (Units=GPa)
#
#
# Indices 1 2 3 4 5 6 
#
# 1 128.1929 20.1815 24.2873 0.0000 -24.5114 0.0000
# 2 20.1815 39.5139 16.5563 0.0000 -14.3108 0.0000
# 3 24.2873 16.5563 86.7169 0.0000 11.9913 0.0000
# 4 0.0000 0.0000 0.0000 6.6128 0.0000 9.7130
# 5 -24.5114 -14.3108 11.9913 0.0000 45.9371 0.0000
# 6 0.0000 0.0000 0.0000 9.7130 0.0000 -5.2628
#
#
#
# Elastic Compliance Matrix: (Units=1/GPa)
#
#
# Indices 1 2 3 4 5 6 
#
# 1 0.009710 -0.001642 -0.003166 0.000000 0.005496 0.000000
# 2 -0.001642 0.033468 -0.007522 0.000000 0.011513 0.000000
# 3 -0.003166 -0.007522 0.014952 0.000000 -0.007936 0.000000
# 4 0.000000 0.000000 0.000000 0.040751 0.000000 0.075211
# 5 0.005496 0.011513 -0.007936 0.000000 0.030360 0.000000
# 6 0.000000 0.000000 0.000000 0.075211 0.000000 -0.051205
#
#
# Mechanical properties :
#
#
# Convention : Reuss Voigt Hill
#
# Bulk Modulus (GPa) = 29.87801 41.83041 35.85421
# Shear Modulus (GPa) = 43.91640 22.35067 33.13354
#
# Velocity S-wave (km/s) = 4.45360 3.17719 3.86840
# Velocity P-wave (km/s) = 6.31983 5.68786 6.01216
#
# Compressibility (1/GPa) = 0.03346943
#
# Stress axis : x y z
#
# Youngs Moduli (GPa) = 102.98698 29.87940 66.88098
#
# Poissons Ratio (x) = 0.04907 0.21174
# Poissons Ratio (y) = 0.16914 0.50307
# Poissons Ratio (z) = 0.32605 0.22475
#
# Static dielectric constant tensor:
#      x y z
#    x 1.820870 0.000000 0.041230 
#    y 0.000000 1.940790 0.000000 
#    z 0.041230 0.000000 1.879890 
# 
# From -- ./inp_files/11523.got.cif
#   From: 2010.05.17/outbox.cif.g08.bks.cpg/sg15_6_cif.got.tgz:11523.got - 2010.06.03 18:47:42.
