data_PCOD9285814
_publ_section_title
;
Structure prediction by ZEFSAII (Michael W. Deem and Ramdas Pophale) SiO2 
 PCOD9285814
Probable space group: C 2/C
;
_chemical_formula_sum "Si O2"
_cell_formula_units_Z 56
_cell_length_a 16.108957
_cell_length_b 21.679934
_cell_length_c 13.633204
_cell_angle_alpha 90.000000
_cell_angle_beta 35.819335
_cell_angle_gamma 90.000000
_cell_volume 2786.447652
_symmetry_space_group_name_H-M "C 2/C"
_symmetry_group_IT_number 15
_symmetry_cell_setting 'monoclinic'
loop_
_space_group_symop_operation_xyz
x,y,z
-x,y,1/2-z
-x,-y,-z
x,-y,1/2+z
1/2+x,1/2+y,z
1/2-x,1/2+y,1/2-z
1/2-x,1/2-y,-z
1/2+x,1/2-y,1/2+z
loop_
_atom_site_type_symbol
_atom_site_label
_atom_site_fract_x
_atom_site_fract_y
_atom_site_fract_z
Si Si1 0.361487 0.290413 0.451485
Si Si2 0.443208 0.885927 0.511133
Si Si3 0.169377 0.159251 0.178955
Si Si4 0.881098 0.461968 0.285010
Si Si5 0.365554 0.105991 0.310973
Si Si6 0.145156 0.861520 0.482505
Si Si7 0.160161 0.721215 0.818636
O O1 0.500000 0.294908 0.250000
O O2 0.250000 0.250000 0.500000
O O3 0.279627 0.355853 0.538266
O O4 0.373316 0.253348 0.544237
O O5 0.300203 0.882613 0.586060
O O6 0.536265 0.945060 0.393932
O O7 0.410829 0.884327 0.656094
O O8 0.534106 0.823920 0.405224
O O9 0.179683 0.222500 0.227171
O O10 0.022644 0.128302 0.355521
O O11 0.169344 0.172939 0.063315
O O12 0.848337 0.532582 0.340251
O O13 0.738332 0.422553 0.410718
O O14 0.000000 0.440155 0.250000
O O15 0.500000 0.126178 0.250000
O O16 0.202195 0.822937 0.333866
#
# Coordination Sequence:
#
# PCOD9285814 Si02
#       7
#     8   8   8   8   8   8   8
#     4  12  26  43  65  93 130 172 224 276 320 375
#     4  11  21  39  66  94 127 171 210 266 319 392
#     4  11  21  37  63  98 132 163 207 261 328 393
#     4  10  21  42  67  92 129 170 217 259 324 389
#     4  11  24  45  67  95 124 174 223 272 320 374
#     4  10  23  39  62  99 130 167 206 265 324 395
#     4  11  23  38  64  90 133 167 211 256 332 385
#
# _framework density 20.097273000000001
#
# number of rings (size 3 to 8) (size 9 to 14) (size 15 to 20)
#    0.000    1.143    2.857    3.857    2.000    1.143 
#    2.571    0.714    0.000    0.000    0.000    0.000 
#    0.000    0.000    0.000    0.000    0.000    0.000 
#
# Total GULP energy -156135.302911 kJ/mol
# GULP energy per Si atom -5576.260818 kJ/mol
# Density = 2.005153 g / cm^3
# Si number density = 20.097273 Si / 1000 Ang^3
#
#
#
# Elastic Constant Matrix: (Units=GPa)
#
#
# Indices 1 2 3 4 5 6 
#
# 1 47.2913 16.7134 35.0881 -0.0004 -6.8726 0.0009
# 2 16.7134 78.5157 42.7483 -0.0012 -12.4599 0.0003
# 3 35.0881 42.7483 146.5430 -0.0030 -8.0284 0.0002
# 4 -0.0004 -0.0012 -0.0030 23.5743 0.0010 -1.1128
# 5 -6.8726 -12.4599 -8.0284 0.0010 37.0491 -0.0007
# 6 0.0009 0.0003 0.0002 -1.1128 -0.0007 31.8249
#
#
#
# Elastic Compliance Matrix: (Units=1/GPa)
#
#
# Indices 1 2 3 4 5 6 
#
# 1 0.026450 -0.002137 -0.005546 0.000000 0.002986 -0.000001
# 2 -0.002137 0.015983 -0.003925 0.000000 0.004128 0.000000
# 3 -0.005546 -0.003925 0.009278 0.000001 -0.000338 0.000000
# 4 0.000000 0.000000 0.000001 0.042489 -0.000001 0.001486
# 5 0.002986 0.004128 -0.000338 -0.000001 0.028860 0.000000
# 6 -0.000001 0.000000 0.000000 0.001486 0.000000 0.031474
#
#
# Mechanical properties :
#
#
# Convention : Reuss Voigt Hill
#
# Bulk Modulus (GPa) = 35.09281 51.27217 43.18249
# Shear Modulus (GPa) = 26.70251 30.34298 28.52275
#
# Velocity S-wave (km/s) = 3.64904 3.88984 3.77136
# Velocity P-wave (km/s) = 5.93745 6.76327 6.36377
#
# Compressibility (1/GPa) = 0.02849586
#
# Stress axis : x y z
#
# Youngs Moduli (GPa) = 37.80763 62.56608 107.77893
#
# Poissons Ratio (x) = 0.13369 0.59776
# Poissons Ratio (y) = 0.08079 0.42300
# Poissons Ratio (z) = 0.20969 0.24555
#
# Static dielectric constant tensor:
#      x y z
#    x 1.756790 -0.000020 -0.116880 
#    y -0.000020 1.772490 0.000240 
#    z -0.116880 0.000240 3.213900 
# 
# From -- ./inp_files/163751.got.cif
#   From: 2010.05.17/outbox.cif.g08.bks.cpg/sg15_82_cif.got.tgz:163751.got - 2010.06.03 18:47:42.
