data_PCOD9285291
_publ_section_title
;
Structure prediction by ZEFSAII (Michael W. Deem and Ramdas Pophale) SiO2 
 PCOD9285291
Probable space group: C 2/C
;
_chemical_formula_sum "Si O2"
_cell_formula_units_Z 40
_cell_length_a 18.541390
_cell_length_b 8.980560
_cell_length_c 25.939329
_cell_angle_alpha 90.000000
_cell_angle_beta 23.291738
_cell_angle_gamma 90.000000
_cell_volume 1707.872533
_symmetry_space_group_name_H-M "C 2/C"
_symmetry_group_IT_number 15
_symmetry_cell_setting 'monoclinic'
loop_
_space_group_symop_operation_xyz
x,y,z
-x,y,1/2-z
-x,-y,-z
x,-y,1/2+z
1/2+x,1/2+y,z
1/2-x,1/2+y,1/2-z
1/2-x,1/2-y,-z
1/2+x,1/2-y,1/2+z
loop_
_atom_site_type_symbol
_atom_site_label
_atom_site_fract_x
_atom_site_fract_y
_atom_site_fract_z
Si Si1 0.462635 0.111720 0.846924
Si Si2 0.541947 0.226242 0.161107
Si Si3 0.837798 0.942636 0.221178
Si Si4 0.370266 0.305516 0.998761
Si Si5 0.811575 0.280808 0.642903
O O1 0.320752 0.120154 0.893209
O O2 0.619229 0.237100 0.741317
O O3 0.521012 0.941091 0.812221
O O4 0.370415 0.161413 0.961438
O O5 0.500000 0.240869 0.250000
O O6 0.414372 0.345265 0.217155
O O7 0.750000 0.250000 0.000000
O O8 0.816317 0.834211 0.186822
O O9 0.675929 0.052149 0.345083
O O10 0.988675 0.065592 0.108078
O O11 0.434699 0.258206 0.013449
#
# Coordination Sequence:
#
# PCOD9285291 Si02
#       5
#     8   8   8   8   8
#     4  10  22  40  65 101 131 176 228 281 345 410
#     4  12  26  45  71 103 141 180 233 288 344 416
#     4  11  25  43  65 100 132 181 233 282 353 411
#     4  10  21  41  69  96 134 175 227 284 347 411
#     4  11  23  42  66  96 138 178 228 289 345 416
#
# _framework density 23.420952
#
# number of rings (size 3 to 8) (size 9 to 14) (size 15 to 20)
#    0.000    1.200    2.000    3.600    2.800    0.000 
#    7.200    5.000    0.000    0.000    0.000    0.000 
#    0.000    0.000    0.000    0.000    0.000    0.000 
#
# Total GULP energy -111542.927642 kJ/mol
# GULP energy per Si atom -5577.146382 kJ/mol
# Density = 2.336764 g / cm^3
# Si number density = 23.420952 Si / 1000 Ang^3
#
#
#
# Elastic Constant Matrix: (Units=GPa)
#
#
# Indices 1 2 3 4 5 6 
#
# 1 87.5461 61.1704 22.5341 -0.0002 40.2558 0.0004
# 2 61.1704 173.8506 24.5556 0.0021 37.9844 -0.0001
# 3 22.5341 24.5556 36.6639 0.0072 17.6332 -0.0005
# 4 -0.0002 0.0021 0.0072 24.6610 0.0004 -6.6821
# 5 40.2558 37.9844 17.6332 0.0004 42.4737 0.0000
# 6 0.0004 -0.0001 -0.0005 -6.6821 0.0000 37.7764
#
#
#
# Elastic Compliance Matrix: (Units=1/GPa)
#
#
# Indices 1 2 3 4 5 6 
#
# 1 0.022605 -0.003858 -0.003329 0.000002 -0.016591 0.000000
# 2 -0.003858 0.007944 -0.001613 0.000000 -0.002778 0.000000
# 3 -0.003329 -0.001613 0.035223 -0.000010 -0.010025 -0.000001
# 4 0.000002 0.000000 -0.000010 0.042591 0.000002 0.007534
# 5 -0.016591 -0.002778 -0.010025 0.000002 0.045915 0.000000
# 6 0.000000 0.000000 -0.000001 0.007534 0.000000 0.027804
#
#
# Mechanical properties :
#
#
# Convention : Reuss Voigt Hill
#
# Bulk Modulus (GPa) = 20.75987 57.17565 38.96776
# Shear Modulus (GPa) = 23.17591 33.63559 28.40575
#
# Velocity S-wave (km/s) = 3.14910 3.79375 3.48636
# Velocity P-wave (km/s) = 4.70165 6.60721 5.73414
#
# Compressibility (1/GPa) = 0.04816986
#
# Stress axis : x y z
#
# Youngs Moduli (GPa) = 44.23897 125.87337 28.39065
#
# Poissons Ratio (x) = 0.48565 0.09453
# Poissons Ratio (y) = 0.17068 0.04580
# Poissons Ratio (z) = 0.14729 0.20307
#
# Static dielectric constant tensor:
#      x y z
#    x 1.919580 0.000000 0.086670 
#    y 0.000000 1.844110 0.000000 
#    z 0.086670 0.000000 2.294570 
# 
# From -- ./inp_files/102658.got.cif
#   From: 2010.05.17/outbox.cif.g08.bks.cpg/sg15_52_cif.got.tgz:102658.got - 2010.06.03 18:47:42.
