data_PCOD9285796
_publ_section_title
;
Structure prediction by ZEFSAII (Michael W. Deem and Ramdas Pophale) SiO2 
 PCOD9285796
Probable space group: C 2/C
;
_chemical_formula_sum "Si O2"
_cell_formula_units_Z 56
_cell_length_a 11.919545
_cell_length_b 32.503857
_cell_length_c 8.927833
_cell_angle_alpha 90.000000
_cell_angle_beta 127.201299
_cell_angle_gamma 90.000000
_cell_volume 2755.086591
_symmetry_space_group_name_H-M "C 2/C"
_symmetry_group_IT_number 15
_symmetry_cell_setting 'monoclinic'
loop_
_space_group_symop_operation_xyz
x,y,z
-x,y,1/2-z
-x,-y,-z
x,-y,1/2+z
1/2+x,1/2+y,z
1/2-x,1/2+y,1/2-z
1/2-x,1/2-y,-z
1/2+x,1/2-y,1/2+z
loop_
_atom_site_type_symbol
_atom_site_label
_atom_site_fract_x
_atom_site_fract_y
_atom_site_fract_z
Si Si1 0.395418 0.188551 0.448455
Si Si2 0.093006 0.028817 0.683073
Si Si3 0.637528 0.026426 0.051989
Si Si4 0.291781 0.179268 0.665135
Si Si5 0.640566 0.266098 0.286879
Si Si6 0.304975 0.083842 0.691053
Si Si7 0.940898 0.600958 0.367565
O O1 0.289234 0.198672 0.497861
O O2 0.551115 0.184697 0.643028
O O3 0.396621 0.224755 0.332243
O O4 0.370109 0.143708 0.356975
O O5 0.163983 0.065705 0.649002
O O6 0.000000 0.041318 0.750000
O O7 0.230277 0.003549 0.847832
O O8 0.000000 0.000000 0.500000
O O9 0.658564 0.061537 0.194888
O O10 0.645642 0.052797 0.902136
O O11 0.500000 0.000000 0.000000
O O12 0.196749 0.200626 0.713163
O O13 0.274449 0.130673 0.619977
O O14 0.500000 0.282674 0.250000
O O15 0.750000 0.250000 0.500000
O O16 0.430341 0.089513 0.914732
O O17 0.000000 0.604798 0.250000
#
# Coordination Sequence:
#
# PCOD9285796 Si02
#       7
#     8   8   8   8   8   8   8
#     4  10  21  42  67 101 138 175 222 276 353 401
#     4  12  27  44  66  92 140 184 220 276 352 409
#     4  12  25  42  72 102 131 179 240 287 332 407
#     4  10  22  42  72  97 138 182 223 284 342 412
#     4  12  24  43  70 103 138 175 229 282 341 421
#     4  11  24  46  67 100 139 180 230 286 347 403
#     4  11  24  37  68 106 134 168 230 297 338 395
#
# _framework density 20.326039000000002
#
# number of rings (size 3 to 8) (size 9 to 14) (size 15 to 20)
#    0.000    0.857    5.714    1.286    6.000    0.571 
#    0.000    1.429    3.143    0.000    0.000    0.000 
#    0.000    0.000    0.000    0.000    0.000    0.000 
#
# Total GULP energy -156267.697754 kJ/mol
# GULP energy per Si atom -5580.989206 kJ/mol
# Density = 2.027978 g / cm^3
# Si number density = 20.326039 Si / 1000 Ang^3
#
#
#
# Elastic Constant Matrix: (Units=GPa)
#
#
# Indices 1 2 3 4 5 6 
#
# 1 179.6109 48.5873 38.6980 0.0000 -30.2413 0.0000
# 2 48.5873 103.9836 21.3120 0.0000 -15.9952 0.0000
# 3 38.6980 21.3120 55.5190 0.0000 -21.0238 0.0000
# 4 0.0000 0.0000 0.0000 23.0028 0.0000 -9.6903
# 5 -30.2413 -15.9952 -21.0238 0.0000 37.7565 0.0000
# 6 0.0000 0.0000 0.0000 -9.6903 0.0000 39.3703
#
#
#
# Elastic Compliance Matrix: (Units=1/GPa)
#
#
# Indices 1 2 3 4 5 6 
#
# 1 0.007400 -0.002337 -0.003030 0.000000 0.003250 0.000000
# 2 -0.002337 0.011411 -0.002065 0.000000 0.001813 0.000000
# 3 -0.003030 -0.002065 0.024921 0.000000 0.010575 0.000000
# 4 0.000000 0.000000 0.000000 0.048502 0.000000 0.011938
# 5 0.003250 0.001813 0.010575 0.000000 0.035745 0.000000
# 6 0.000000 0.000000 0.000000 0.011938 0.000000 0.028338
#
#
# Mechanical properties :
#
#
# Convention : Reuss Voigt Hill
#
# Bulk Modulus (GPa) = 34.64093 61.81202 48.22647
# Shear Modulus (GPa) = 27.65438 35.39367 31.52403
#
# Velocity S-wave (km/s) = 3.69255 4.17741 3.94244
# Velocity P-wave (km/s) = 5.93797 7.33103 6.67096
#
# Compressibility (1/GPa) = 0.02886759
#
# Stress axis : x y z
#
# Youngs Moduli (GPa) = 135.14042 87.63626 40.12652
#
# Poissons Ratio (x) = 0.20477 0.12159
# Poissons Ratio (y) = 0.31577 0.08287
# Poissons Ratio (z) = 0.40951 0.18098
#
# Static dielectric constant tensor:
#      x y z
#    x 1.738150 0.000000 -0.015090 
#    y 0.000000 1.735470 0.000000 
#    z -0.015090 0.000000 1.754950 
# 
# From -- ./inp_files/35797.got.cif
#   From: 2010.05.17/outbox.cif.g08.bks.cpg/sg15_18_cif.got.tgz:35797.got - 2010.06.03 18:47:42.
