data_PCOD9285895
_publ_section_title
;
Structure prediction by ZEFSAII (Michael W. Deem and Ramdas Pophale) SiO2 
 PCOD9285895
Probable space group: C 2/C
;
_chemical_formula_sum "Si O2"
_cell_formula_units_Z 40
_cell_length_a 25.801009
_cell_length_b 8.064095
_cell_length_c 11.670473
_cell_angle_alpha 90.000000
_cell_angle_beta 139.554693
_cell_angle_gamma 90.000000
_cell_volume 1575.213178
_symmetry_space_group_name_H-M "C 2/C"
_symmetry_group_IT_number 15
_symmetry_cell_setting 'monoclinic'
loop_
_space_group_symop_operation_xyz
x,y,z
-x,y,1/2-z
-x,-y,-z
x,-y,1/2+z
1/2+x,1/2+y,z
1/2-x,1/2+y,1/2-z
1/2-x,1/2-y,-z
1/2+x,1/2-y,1/2+z
loop_
_atom_site_type_symbol
_atom_site_label
_atom_site_fract_x
_atom_site_fract_y
_atom_site_fract_z
Si Si1 0.685526 0.858245 0.823078
Si Si2 0.513379 0.127925 0.150275
Si Si3 0.379053 0.432457 0.403308
Si Si4 0.963096 0.257521 0.341280
Si Si5 0.672795 0.442778 0.942059
O O1 0.603604 0.863281 0.756007
O O2 0.666218 0.748005 0.679424
O O3 0.750000 0.750000 0.000000
O O4 0.731868 0.032997 0.892190
O O5 0.500000 0.202579 0.250000
O O6 0.496759 0.931856 0.125058
O O7 0.456148 0.217976 0.965368
O O8 0.472896 0.387877 0.570464
O O9 0.352349 0.522258 0.475921
O O10 0.357917 0.498335 0.237999
O O11 0.879276 0.224698 0.141301
#
# Coordination Sequence:
#
# PCOD9285895 Si02
#       5
#     8   8   8   8   8
#     4   9  22  44  61  94 134 168 217 280 329 390
#     4  10  21  42  68  91 131 180 223 271 334 397
#     4  10  22  43  66  93 137 172 223 276 329 395
#     4  10  22  39  64 100 128 172 228 274 324 403
#     4  11  22  42  66  95 132 178 214 278 336 388
#
# _framework density 25.393388000000002
#
# number of rings (size 3 to 8) (size 9 to 14) (size 15 to 20)
#    0.000    2.000    0.000    2.400    0.000    5.600 
#   32.400    0.000    0.000    0.000    0.000    0.000 
#    0.000    0.000    0.000    0.000    0.000    0.000 
#
# Total GULP energy -111416.396688 kJ/mol
# GULP energy per Si atom -5570.819834 kJ/mol
# Density = 2.533559 g / cm^3
# Si number density = 25.393388 Si / 1000 Ang^3
#
#
#
# Elastic Constant Matrix: (Units=GPa)
#
#
# Indices 1 2 3 4 5 6 
#
# 1 126.8091 15.7516 81.6520 0.0000 -28.5452 0.0000
# 2 15.7516 38.8705 33.9270 0.0000 7.8927 0.0000
# 3 81.6520 33.9270 153.3209 0.0000 -23.8367 0.0000
# 4 0.0000 0.0000 0.0000 50.7704 0.0000 14.6193
# 5 -28.5452 7.8927 -23.8367 0.0000 64.5061 0.0000
# 6 0.0000 0.0000 0.0000 14.6193 0.0000 9.4986
#
#
#
# Elastic Compliance Matrix: (Units=1/GPa)
#
#
# Indices 1 2 3 4 5 6 
#
# 1 0.012634 -0.000495 -0.006090 0.000000 0.003401 0.000000
# 2 -0.000495 0.035093 -0.008704 0.000000 -0.007729 0.000000
# 3 -0.006090 -0.008704 0.012135 0.000000 0.002854 0.000000
# 4 0.000000 0.000000 0.000000 0.035373 0.000000 -0.054443
# 5 0.003401 -0.007729 0.002854 0.000000 0.019008 0.000000
# 6 0.000000 0.000000 0.000000 -0.054443 0.000000 0.189071
#
#
# Mechanical properties :
#
#
# Convention : Reuss Voigt Hill
#
# Bulk Modulus (GPa) = 34.14647 64.62907 49.38777
# Shear Modulus (GPa) = 14.54950 37.46635 26.00793
#
# Velocity S-wave (km/s) = 2.39626 3.84531 3.20379
# Velocity P-wave (km/s) = 4.59699 6.72470 5.75994
#
# Compressibility (1/GPa) = 0.02928560
#
# Stress axis : x y z
#
# Youngs Moduli (GPa) = 79.14870 28.49577 82.40353
#
# Poissons Ratio (x) = 0.01410 0.50187
# Poissons Ratio (y) = 0.03915 0.71721
# Poissons Ratio (z) = 0.48204 0.24802
#
# Static dielectric constant tensor:
#      x y z
#    x 2.053200 0.000000 -0.054930 
#    y 0.000000 2.195750 0.000000 
#    z -0.054930 0.000000 2.039810 
# 
# From -- ./inp_files/121698.got.cif
#   From: 2010.05.17/outbox.cif.g08.bks.cpg/sg15_61_cif.got.tgz:121698.got - 2010.06.03 18:47:42.
