data_PCOD9285981
_publ_section_title
;
Structure prediction by ZEFSAII (Michael W. Deem and Ramdas Pophale) SiO2 
 PCOD9285981
Probable space group: C 2/C
;
_chemical_formula_sum "Si O2"
_cell_formula_units_Z 56
_cell_length_a 11.370914
_cell_length_b 9.710229
_cell_length_c 21.070745
_cell_angle_alpha 90.000000
_cell_angle_beta 86.912802
_cell_angle_gamma 90.000000
_cell_volume 2323.132612
_symmetry_space_group_name_H-M "C 2/C"
_symmetry_group_IT_number 15
_symmetry_cell_setting 'monoclinic'
loop_
_space_group_symop_operation_xyz
x,y,z
-x,y,1/2-z
-x,-y,-z
x,-y,1/2+z
1/2+x,1/2+y,z
1/2-x,1/2+y,1/2-z
1/2-x,1/2-y,-z
1/2+x,1/2-y,1/2+z
loop_
_atom_site_type_symbol
_atom_site_label
_atom_site_fract_x
_atom_site_fract_y
_atom_site_fract_z
Si Si1 0.264958 0.471749 0.260282
Si Si2 0.426907 0.298546 0.336509
Si Si3 0.252709 0.873105 0.616114
Si Si4 0.542465 0.002936 0.840799
Si Si5 0.008867 0.041942 0.072938
Si Si6 0.292237 0.924912 0.376723
Si Si7 0.773372 0.186214 0.067081
O O1 0.368342 0.365101 0.275269
O O2 0.282963 0.598929 0.308383
O O3 0.133587 0.531010 0.395285
O O4 0.258125 0.493728 0.186207
O O5 0.493093 0.152211 0.325735
O O6 0.494895 0.414946 0.376014
O O7 0.308991 0.266264 0.381068
O O8 0.369758 0.065410 0.714578
O O9 0.275055 0.713941 0.608106
O O10 0.140658 0.906039 0.578516
O O11 0.430832 0.093578 0.860503
O O12 0.907795 0.157995 0.084092
O O13 0.000000 0.000000 0.000000
O O14 0.277619 0.031632 0.432956
O O15 0.750000 0.250000 0.000000
#
# Coordination Sequence:
#
# PCOD9285981 Si02
#       7
#     8   8   8   8   8   8   8
#     4   9  22  39  64 100 131 171 213 265 343 400
#     4  10  21  42  69  94 133 170 218 275 334 393
#     4   9  23  40  61  99 128 160 227 262 329 403
#     4   9  21  40  64  92 134 171 208 267 333 394
#     4  11  22  43  67  87 126 175 218 280 326 385
#     4  11  22  40  68  95 133 177 215 275 336 400
#     4  11  24  41  65  94 126 178 224 268 331 393
#
# _framework density 24.105383
#
# number of rings (size 3 to 8) (size 9 to 14) (size 15 to 20)
#    0.857    1.143    1.429    1.286    6.000    0.000 
#    0.000   10.714    0.000    0.000    0.000    0.000 
#    0.000    0.000    0.000    0.000    0.000    0.000 
#
# Total GULP energy -156301.191129 kJ/mol
# GULP energy per Si atom -5582.185397 kJ/mol
# Density = 2.405052 g / cm^3
# Si number density = 24.105383 Si / 1000 Ang^3
#
#
#
# Elastic Constant Matrix: (Units=GPa)
#
#
# Indices 1 2 3 4 5 6 
#
# 1 145.9306 14.1691 48.9497 0.0000 31.3287 0.0000
# 2 14.1691 31.8846 3.8856 0.0000 16.6322 0.0000
# 3 48.9497 3.8856 77.5064 0.0000 19.9488 0.0000
# 4 0.0000 0.0000 0.0000 24.5758 0.0000 10.4523
# 5 31.3287 16.6322 19.9488 0.0000 29.9472 0.0000
# 6 0.0000 0.0000 0.0000 10.4523 0.0000 53.5674
#
#
#
# Elastic Compliance Matrix: (Units=1/GPa)
#
#
# Indices 1 2 3 4 5 6 
#
# 1 0.009913 0.000038 -0.004330 0.000000 -0.007507 0.000000
# 2 0.000038 0.045785 0.005112 0.000000 -0.028873 0.000000
# 3 -0.004330 0.005112 0.018038 0.000000 -0.010325 0.000000
# 4 0.000000 0.000000 0.000000 0.044373 0.000000 -0.008658
# 5 -0.007507 -0.028873 -0.010325 0.000000 0.064159 0.000000
# 6 0.000000 0.000000 0.000000 -0.008658 0.000000 0.020358
#
#
# Mechanical properties :
#
#
# Convention : Reuss Voigt Hill
#
# Bulk Modulus (GPa) = 13.26685 43.25892 28.26289
# Shear Modulus (GPa) = 22.11310 34.17255 28.14282
#
# Velocity S-wave (km/s) = 3.03207 3.76923 3.42056
# Velocity P-wave (km/s) = 4.21587 6.07680 5.22977
#
# Compressibility (1/GPa) = 0.07537582
#
# Stress axis : x y z
#
# Youngs Moduli (GPa) = 100.87751 21.84145 55.43794
#
# Poissons Ratio (x) = -0.00084 0.24007
# Poissons Ratio (y) = -0.00388 -0.28340
# Poissons Ratio (z) = 0.43684 -0.11165
#
# Static dielectric constant tensor:
#      x y z
#    x 1.991630 0.000000 -0.002110 
#    y 0.000000 1.961830 0.000000 
#    z -0.002110 0.000000 1.895400 
# 
# From -- ./inp_files/268510.got.cif
#   From: 2010.05.17/outbox.cif.g08.bks.cpg/sg15_135_cif.got.tgz:268510.got - 2010.06.03 18:47:42.
