data_PCOD9285634
_publ_section_title
;
Structure prediction by ZEFSAII (Michael W. Deem and Ramdas Pophale) SiO2 
 PCOD9285634
Probable space group: C 2/C
;
_chemical_formula_sum "Si O2"
_cell_formula_units_Z 56
_cell_length_a 25.873543
_cell_length_b 13.373359
_cell_length_c 21.355686
_cell_angle_alpha 90.000000
_cell_angle_beta 18.221313
_cell_angle_gamma 90.000000
_cell_volume 2310.582723
_symmetry_space_group_name_H-M "C 2/C"
_symmetry_group_IT_number 15
_symmetry_cell_setting 'monoclinic'
loop_
_space_group_symop_operation_xyz
x,y,z
-x,y,1/2-z
-x,-y,-z
x,-y,1/2+z
1/2+x,1/2+y,z
1/2-x,1/2+y,1/2-z
1/2-x,1/2-y,-z
1/2+x,1/2-y,1/2+z
loop_
_atom_site_type_symbol
_atom_site_label
_atom_site_fract_x
_atom_site_fract_y
_atom_site_fract_z
Si Si1 0.992542 0.116404 0.616089
Si Si2 0.325174 0.508932 0.511349
Si Si3 0.031486 0.574833 0.279061
Si Si4 0.869802 0.388078 0.513343
Si Si5 0.223604 0.717250 0.602270
Si Si6 0.697315 0.806303 0.379094
Si Si7 0.282850 0.483933 0.199043
O O1 0.020632 0.062893 0.650272
O O2 0.145449 0.192846 0.429702
O O3 0.029651 0.023087 0.527609
O O4 0.827408 0.170565 0.784883
O O5 0.211088 0.464574 0.588802
O O6 0.351008 0.625993 0.469772
O O7 0.223653 0.507459 0.694856
O O8 0.000000 0.628341 0.250000
O O9 0.910356 0.478819 0.419140
O O10 0.972470 0.643686 0.403171
O O11 0.749376 0.309477 0.619332
O O12 0.807585 0.443628 0.647468
O O13 0.043171 0.330119 0.320965
O O14 0.250000 0.750000 0.500000
O O15 0.763621 0.870253 0.244453
#
# Coordination Sequence:
#
# PCOD9285634 Si02
#       7
#     8   8   8   8   8   8   8
#     4  10  23  41  64  96 129 163 212 273 329 395
#     4   9  22  41  62  89 131 169 219 269 331 387
#     4  10  21  42  65  86 122 167 217 269 322 393
#     4  10  22  38  62  94 126 171 214 268 329 386
#     4  11  22  38  61  91 131 174 219 265 323 400
#     4  11  22  41  65  95 128 168 216 267 328 399
#     4   9  23  40  66  92 130 171 217 269 334 390
#
# _framework density 24.23631
#
# number of rings (size 3 to 8) (size 9 to 14) (size 15 to 20)
#    0.857    1.143    0.000    3.429    2.000    8.571 
#    0.000    6.429    0.000    0.000    0.000    0.000 
#    0.000    0.000    0.000    0.000    0.000    0.000 
#
# Total GULP energy -156269.837806 kJ/mol
# GULP energy per Si atom -5581.065636 kJ/mol
# Density = 2.418115 g / cm^3
# Si number density = 24.236310 Si / 1000 Ang^3
#
#
#
# Elastic Constant Matrix: (Units=GPa)
#
#
# Indices 1 2 3 4 5 6 
#
# 1 104.2728 29.5302 19.5282 -0.0019 3.2643 0.0013
# 2 29.5302 108.7892 20.7139 -0.0063 0.8393 0.0045
# 3 19.5282 20.7139 63.3803 -0.0021 10.8687 0.0049
# 4 -0.0019 -0.0063 -0.0021 7.6480 -0.0018 -16.0679
# 5 3.2643 0.8393 10.8687 -0.0018 27.3944 -0.0008
# 6 0.0013 0.0045 0.0049 -16.0679 -0.0008 36.2408
#
#
#
# Elastic Compliance Matrix: (Units=1/GPa)
#
#
# Indices 1 2 3 4 5 6 
#
# 1 0.010754 -0.002446 -0.002475 0.000006 -0.000224 0.000003
# 2 -0.002446 0.010386 -0.002829 0.000084 0.001096 0.000036
# 3 -0.002475 -0.002829 0.018670 -0.000061 -0.007026 -0.000029
# 4 0.000006 0.000084 -0.000061 1.908267 0.000169 0.846058
# 5 -0.000224 0.001096 -0.007026 0.000169 0.039284 0.000077
# 6 0.000003 0.000036 -0.000029 0.846058 0.000077 0.402705
#
#
# Mechanical properties :
#
#
# Convention : Reuss Voigt Hill
#
# Bulk Modulus (GPa) = 41.13638 46.22077 43.67858
# Shear Modulus (GPa) = 2.07153 28.03464 15.05309
#
# Velocity S-wave (km/s) = 0.92552 3.40475 2.49488
# Velocity P-wave (km/s) = 4.26052 5.87952 5.13423
#
# Compressibility (1/GPa) = 0.02430938
#
# Stress axis : x y z
#
# Youngs Moduli (GPa) = 92.99267 96.28196 53.56269
#
# Poissons Ratio (x) = 0.23550 0.13259
# Poissons Ratio (y) = 0.22745 0.15151
# Poissons Ratio (z) = 0.23020 0.27235
#
# Static dielectric constant tensor:
#      x y z
#    x 1.960750 0.000000 0.014820 
#    y 0.000000 1.957210 0.000000 
#    z 0.014820 0.000000 1.939130 
# 
# From -- ./inp_files/284609.got.cif
#   From: 2010.05.17/outbox.cif.g08.bks.cpg/sg15_143_cif.got.tgz:284609.got - 2010.06.03 18:47:42.
