data_PCOD9285289
_publ_section_title
;
Structure prediction by ZEFSAII (Michael W. Deem and Ramdas Pophale) SiO2 
 PCOD9285289
Probable space group: C 2/C
;
_chemical_formula_sum "Si O2"
_cell_formula_units_Z 48
_cell_length_a 14.992592
_cell_length_b 10.407466
_cell_length_c 15.274569
_cell_angle_alpha 90.000000
_cell_angle_beta 74.891421
_cell_angle_gamma 90.000000
_cell_volume 2300.981378
_symmetry_space_group_name_H-M "C 2/C"
_symmetry_group_IT_number 15
_symmetry_cell_setting 'monoclinic'
loop_
_space_group_symop_operation_xyz
x,y,z
-x,y,1/2-z
-x,-y,-z
x,-y,1/2+z
1/2+x,1/2+y,z
1/2-x,1/2+y,1/2-z
1/2-x,1/2-y,-z
1/2+x,1/2-y,1/2+z
loop_
_atom_site_type_symbol
_atom_site_label
_atom_site_fract_x
_atom_site_fract_y
_atom_site_fract_z
Si Si1 0.836946 0.459406 0.658518
Si Si2 0.821426 0.989387 0.658264
Si Si3 0.459581 0.287562 0.166745
Si Si4 0.487244 0.097300 0.920564
Si Si5 0.541193 0.643790 0.479155
Si Si6 0.783517 0.603572 0.977441
O O1 0.758315 0.467271 0.751553
O O2 0.891765 0.325014 0.652893
O O3 0.917684 0.565523 0.653160
O O4 0.791953 0.460646 0.572255
O O5 0.898230 0.083225 0.680997
O O6 0.785724 0.050219 0.576914
O O7 0.871770 0.864243 0.606858
O O8 0.500000 0.257172 0.250000
O O9 0.544741 0.306117 0.077530
O O10 0.480119 0.245773 0.950830
O O11 0.385264 0.075888 0.909833
O O12 0.500000 0.000000 0.000000
O O13 0.500000 0.500000 0.500000
O O14 0.750000 0.750000 0.000000
#
# Coordination Sequence:
#
# PCOD9285289 Si02
#       6
#     8   8   8   8   8   8
#     4  11  25  43  66 102 138 175 236 276 344 410
#     4  11  26  41  68 102 131 180 230 288 337 407
#     4  11  24  44  66  94 140 177 224 284 344 411
#     4  10  21  41  69  96 133 180 217 275 340 403
#     4  10  21  44  66  97 133 176 224 270 346 399
#     4  11  21  44  70  94 137 177 227 288 335 402
#
# _framework density 20.860664
#
# number of rings (size 3 to 8) (size 9 to 14) (size 15 to 20)
#    0.000    1.333    5.000    1.000    7.000    0.000 
#    0.000    4.167    0.000    0.000    0.000    0.000 
#    0.000    0.000    0.000    0.000    0.000    0.000 
#
# Total GULP energy -133662.473631 kJ/mol
# GULP energy per Si atom -5569.269735 kJ/mol
# Density = 2.081318 g / cm^3
# Si number density = 20.860664 Si / 1000 Ang^3
#
#
#
# Elastic Constant Matrix: (Units=GPa)
#
#
# Indices 1 2 3 4 5 6 
#
# 1 70.2402 3.2959 27.8495 0.0000 -18.6868 0.0000
# 2 3.2959 58.2969 5.2562 0.0000 -14.8842 0.0000
# 3 27.8495 5.2562 119.7553 0.0000 -28.4017 0.0000
# 4 0.0000 0.0000 0.0000 12.5168 0.0000 -4.5557
# 5 -18.6868 -14.8842 -28.4017 0.0000 44.6869 0.0000
# 6 0.0000 0.0000 0.0000 -4.5557 0.0000 32.8393
#
#
#
# Elastic Compliance Matrix: (Units=1/GPa)
#
#
# Indices 1 2 3 4 5 6 
#
# 1 0.016717 0.000713 -0.002596 0.000000 0.005578 0.000000
# 2 0.000713 0.018840 0.000667 0.000000 0.006997 0.000000
# 3 -0.002596 0.000667 0.010268 0.000000 0.005662 0.000000
# 4 0.000000 0.000000 0.000000 0.084141 0.000000 0.011673
# 5 0.005578 0.006997 0.005662 0.000000 0.030640 0.000000
# 6 0.000000 0.000000 0.000000 0.011673 0.000000 0.032071
#
#
# Mechanical properties :
#
#
# Convention : Reuss Voigt Hill
#
# Bulk Modulus (GPa) = 23.04582 35.67730 29.36156
# Shear Modulus (GPa) = 23.85823 32.13466 27.99644
#
# Velocity S-wave (km/s) = 3.38552 3.92911 3.66740
# Velocity P-wave (km/s) = 5.13360 6.14196 5.66028
#
# Compressibility (1/GPa) = 0.04339182
#
# Stress axis : x y z
#
# Youngs Moduli (GPa) = 59.82063 53.07968 97.39276
#
# Poissons Ratio (x) = -0.03785 0.25282
# Poissons Ratio (y) = -0.04266 -0.06493
# Poissons Ratio (z) = 0.15529 -0.03539
#
# Static dielectric constant tensor:
#      x y z
#    x 1.718960 0.000000 -0.029610 
#    y 0.000000 1.782180 0.000000 
#    z -0.029610 0.000000 1.770180 
# 
# From -- ./inp_files/151967.got.cif
#   From: 2010.05.17/outbox.cif.g08.bks.cpg/sg15_76_cif.got.tgz:151967.got - 2010.06.03 18:47:42.
