data_PCOD9285954
_publ_section_title
;
Structure prediction by ZEFSAII (Michael W. Deem and Ramdas Pophale) SiO2 
 PCOD9285954
Probable space group: C 2/C
;
_chemical_formula_sum "Si O2"
_cell_formula_units_Z 40
_cell_length_a 16.033986
_cell_length_b 8.985605
_cell_length_c 12.838031
_cell_angle_alpha 90.000000
_cell_angle_beta 120.593179
_cell_angle_gamma 90.000000
_cell_volume 1592.175089
_symmetry_space_group_name_H-M "C 2/C"
_symmetry_group_IT_number 15
_symmetry_cell_setting 'monoclinic'
loop_
_space_group_symop_operation_xyz
x,y,z
-x,y,1/2-z
-x,-y,-z
x,-y,1/2+z
1/2+x,1/2+y,z
1/2-x,1/2+y,1/2-z
1/2-x,1/2-y,-z
1/2+x,1/2-y,1/2+z
loop_
_atom_site_type_symbol
_atom_site_label
_atom_site_fract_x
_atom_site_fract_y
_atom_site_fract_z
Si Si1 0.000000 0.495620 0.250000
Si Si2 0.338403 0.318604 0.436639
Si Si3 0.000000 0.979952 0.250000
Si Si4 0.020913 0.341539 0.964760
Si Si5 0.133203 0.232369 0.297084
Si Si6 0.167925 0.848510 0.504884
O O1 0.043858 0.603360 0.362887
O O2 0.922708 0.386462 0.254452
O O3 0.430248 0.268195 0.426693
O O4 0.244599 0.230615 0.337011
O O5 0.361789 0.273269 0.571107
O O6 0.307829 0.492122 0.428065
O O7 0.079460 0.895033 0.369721
O O8 0.066934 0.092397 0.224855
O O9 0.117454 0.255897 0.058949
O O10 0.000000 0.500000 0.000000
O O11 0.250000 0.750000 0.500000
#
# Coordination Sequence:
#
# PCOD9285954 Si02
#       6
#     4   8   4   8   8   8
#     4  11  21  42  64  98 138 186 236 304 358 436
#     4  10  21  42  69 101 137 185 238 299 376 433
#     4   9  21  40  70  98 140 180 236 290 358 444
#     4  12  25  42  69 102 139 190 248 297 367 442
#     4   9  19  40  71  98 134 181 233 305 364 426
#     4  11  24  43  71 103 147 191 235 302 375 434
#
# _framework density 25.122865999999998
#
# number of rings (size 3 to 8) (size 9 to 14) (size 15 to 20)
#    0.000    1.600    2.000    2.400    5.600    0.000 
#    3.600    2.000    0.000    0.000    0.000    0.000 
#    0.000    0.000    0.000    0.000    0.000    0.000 
#
# Total GULP energy -111718.417195 kJ/mol
# GULP energy per Si atom -5585.920860 kJ/mol
# Density = 2.506568 g / cm^3
# Si number density = 25.122866 Si / 1000 Ang^3
#
#
#
# Elastic Constant Matrix: (Units=GPa)
#
#
# Indices 1 2 3 4 5 6 
#
# 1 183.8133 66.8650 1.4783 0.0000 31.6898 0.0000
# 2 66.8650 177.3766 18.1345 0.0000 12.6609 0.0000
# 3 1.4783 18.1345 60.0687 0.0000 20.4305 0.0000
# 4 0.0000 0.0000 0.0000 39.7635 0.0000 5.1774
# 5 31.6898 12.6609 20.4305 0.0000 39.2292 0.0000
# 6 0.0000 0.0000 0.0000 5.1774 0.0000 32.9865
#
#
#
# Elastic Compliance Matrix: (Units=1/GPa)
#
#
# Indices 1 2 3 4 5 6 
#
# 1 0.007551 -0.002662 0.002917 0.000000 -0.006759 0.000000
# 2 -0.002662 0.006800 -0.002397 0.000000 0.001204 0.000000
# 3 0.002917 -0.002397 0.021678 0.000000 -0.012872 0.000000
# 4 0.000000 0.000000 0.000000 0.025673 0.000000 -0.004030
# 5 -0.006759 0.001204 -0.012872 0.000000 0.037267 0.000000
# 6 0.000000 0.000000 0.000000 -0.004030 0.000000 0.030948
#
#
# Mechanical properties :
#
#
# Convention : Reuss Voigt Hill
#
# Bulk Modulus (GPa) = 31.50208 66.02382 48.76295
# Shear Modulus (GPa) = 34.53468 44.71457 39.62462
#
# Velocity S-wave (km/s) = 3.71162 4.22339 3.97575
# Velocity P-wave (km/s) = 5.56189 7.07955 6.36611
#
# Compressibility (1/GPa) = 0.03174393
#
# Stress axis : x y z
#
# Youngs Moduli (GPa) = 132.44122 147.05150 46.13074
#
# Poissons Ratio (x) = 0.39146 -0.13455
# Poissons Ratio (y) = 0.35256 0.11057
# Poissons Ratio (z) = -0.38630 0.35248
#
# Static dielectric constant tensor:
#      x y z
#    x 1.941200 0.000000 0.194910 
#    y 0.000000 2.054530 0.000000 
#    z 0.194910 0.000000 1.312620 
# 
# From -- ./inp_files/150825.got.cif
#   From: 2010.05.17/outbox.cif.g08.bks.cpg/sg15_76_cif.got.tgz:150825.got - 2010.06.03 18:47:42.
