data_PCOD9285118
_publ_section_title
;
Structure prediction by ZEFSAII (Michael W. Deem and Ramdas Pophale) SiO2 
 PCOD9285118
Probable space group: C 2/C
;
_chemical_formula_sum "Si O2"
_cell_formula_units_Z 60
_cell_length_a 8.353969
_cell_length_b 31.414242
_cell_length_c 11.971462
_cell_angle_alpha 90.000000
_cell_angle_beta 91.688323
_cell_angle_gamma 90.000000
_cell_volume 3140.350052
_symmetry_space_group_name_H-M "C 2/C"
_symmetry_group_IT_number 15
_symmetry_cell_setting 'monoclinic'
loop_
_space_group_symop_operation_xyz
x,y,z
-x,y,1/2-z
-x,-y,-z
x,-y,1/2+z
1/2+x,1/2+y,z
1/2-x,1/2+y,1/2-z
1/2-x,1/2-y,-z
1/2+x,1/2-y,1/2+z
loop_
_atom_site_type_symbol
_atom_site_label
_atom_site_fract_x
_atom_site_fract_y
_atom_site_fract_z
Si Si1 0.342443 0.061686 0.002213
Si Si2 0.188023 0.912670 0.268148
Si Si3 0.811181 0.819687 0.230925
Si Si4 0.500000 0.675925 0.250000
Si Si5 0.858928 0.745591 0.612133
Si Si6 0.159895 0.640685 0.328128
Si Si7 0.387276 0.019842 0.641708
Si Si8 0.337456 0.205923 0.984705
O O1 0.344047 0.101067 0.086884
O O2 0.308832 0.019764 0.075903
O O3 0.230873 0.074685 0.896059
O O4 0.506729 0.047456 0.943123
O O5 0.251861 0.865979 0.232536
O O6 0.259823 0.948806 0.192124
O O7 0.000000 0.910461 0.250000
O O8 0.733031 0.779217 0.290810
O O9 0.775986 0.820483 0.098713
O O10 0.000000 0.816420 0.250000
O O11 0.566398 0.709404 0.345427
O O12 0.340155 0.648476 0.279983
O O13 0.750000 0.750000 0.500000
O O14 0.001629 0.714728 0.578773
O O15 0.132168 0.683234 0.399187
O O16 0.000000 0.635809 0.250000
O O17 0.500000 0.005904 0.750000
O O18 0.250000 0.250000 0.000000
#
# Coordination Sequence:
#
# PCOD9285118 Si02
#       8
#     8   8   8   4   8   8   8   8
#     4  10  21  41  67  94 126 171 212 258 330 401
#     4  10  22  39  63  97 129 160 215 270 320 389
#     4  11  23  39  62  92 123 166 216 267 323 383
#     4  12  26  46  60  96 138 166 226 278 322 396
#     4  12  24  40  64  90 124 171 217 268 328 377
#     4  12  26  45  65  96 131 176 221 273 333 394
#     4   9  20  40  67  94 128 163 209 264 323 399
#     4  12  22  40  64  86 123 166 217 266 319 379
#
# _framework density 19.10615
#
# number of rings (size 3 to 8) (size 9 to 14) (size 15 to 20)
#    0.000    1.067    4.000    2.000    1.867    2.667 
#    3.600    0.000    0.000    0.000    0.000    0.000 
#    0.000    0.000    0.000    0.000    0.000    0.000 
#
# Total GULP energy -167282.126395 kJ/mol
# GULP energy per Si atom -5576.070880 kJ/mol
# Density = 1.906266 g / cm^3
# Si number density = 19.106150 Si / 1000 Ang^3
#
#
#
# Elastic Constant Matrix: (Units=GPa)
#
#
# Indices 1 2 3 4 5 6 
#
# 1 90.3338 39.3660 46.6847 0.0000 10.5507 0.0000
# 2 39.3660 111.5737 45.8120 0.0000 -1.0708 0.0000
# 3 46.6847 45.8120 96.6528 0.0000 6.7290 0.0000
# 4 0.0000 0.0000 0.0000 44.0721 0.0000 0.6540
# 5 10.5507 -1.0708 6.7290 0.0000 30.1833 0.0000
# 6 0.0000 0.0000 0.0000 0.6540 0.0000 11.6064
#
#
#
# Elastic Compliance Matrix: (Units=1/GPa)
#
#
# Indices 1 2 3 4 5 6 
#
# 1 0.016066 -0.003291 -0.005892 0.000000 -0.004419 0.000000
# 2 -0.003291 0.011879 -0.004216 0.000000 0.002512 0.000000
# 3 -0.005892 -0.004216 0.015295 0.000000 -0.001500 0.000000
# 4 0.000000 0.000000 0.000000 0.022709 0.000000 -0.001280
# 5 -0.004419 0.002512 -0.001500 0.000000 0.035099 0.000000
# 6 0.000000 0.000000 0.000000 -0.001280 0.000000 0.086231
#
#
# Mechanical properties :
#
#
# Convention : Reuss Voigt Hill
#
# Bulk Modulus (GPa) = 60.82301 62.47618 61.64960
# Shear Modulus (GPa) = 22.77308 28.28554 25.52931
#
# Velocity S-wave (km/s) = 3.45617 3.85182 3.65935
# Velocity P-wave (km/s) = 6.91594 7.24932 7.08459
#
# Compressibility (1/GPa) = 0.01644115
#
# Stress axis : x y z
#
# Youngs Moduli (GPa) = 62.24476 84.18228 65.38157
#
# Poissons Ratio (x) = 0.27708 0.38524
# Poissons Ratio (y) = 0.20487 0.27562
# Poissons Ratio (z) = 0.36676 0.35487
#
# Static dielectric constant tensor:
#      x y z
#    x 1.676020 0.000000 0.005840 
#    y 0.000000 1.235150 0.000000 
#    z 0.005840 0.000000 1.702010 
# 
# From -- ./inp_files/81386.got.cif
#   From: 2010.05.17/outbox.cif.g08.bks.cpg/sg15_41_cif.got.tgz:81386.got - 2010.06.03 18:47:42.
