data_PCOD9285149
_publ_section_title
;
Structure prediction by ZEFSAII (Michael W. Deem and Ramdas Pophale) SiO2 
 PCOD9285149
Probable space group: C 2/C
;
_chemical_formula_sum "Si O2"
_cell_formula_units_Z 40
_cell_length_a 19.676593
_cell_length_b 9.681689
_cell_length_c 8.589137
_cell_angle_alpha 90.000000
_cell_angle_beta 99.876686
_cell_angle_gamma 90.000000
_cell_volume 1612.002816
_symmetry_space_group_name_H-M "C 2/C"
_symmetry_group_IT_number 15
_symmetry_cell_setting 'monoclinic'
loop_
_space_group_symop_operation_xyz
x,y,z
-x,y,1/2-z
-x,-y,-z
x,-y,1/2+z
1/2+x,1/2+y,z
1/2-x,1/2+y,1/2-z
1/2-x,1/2-y,-z
1/2+x,1/2-y,1/2+z
loop_
_atom_site_type_symbol
_atom_site_label
_atom_site_fract_x
_atom_site_fract_y
_atom_site_fract_z
Si Si1 0.741080 0.612327 0.100518
Si Si2 0.862843 0.585541 0.644652
Si Si3 0.867880 0.319743 0.813067
Si Si4 0.596282 0.424235 0.399416
Si Si5 0.437591 0.306103 0.812616
O O1 0.787189 0.476999 0.081802
O O2 0.783896 0.661144 0.269426
O O3 0.663842 0.563864 0.036824
O O4 0.750000 0.750000 0.000000
O O5 0.897795 0.445610 0.720669
O O6 0.888168 0.654802 0.496782
O O7 0.873005 0.700422 0.782180
O O8 0.888488 0.181410 0.734197
O O9 0.545282 0.356871 0.506729
O O10 0.576552 0.564781 0.307431
O O11 0.500000 0.229570 0.750000
#
# Coordination Sequence:
#
# PCOD9285149 Si02
#       5
#     8   8   8   8   8
#     4   8  20  37  67  95 136 163 213 277 352 402
#     4  10  21  41  67  97 137 172 224 275 341 399
#     4   9  20  40  66 101 133 168 213 278 349 407
#     4  11  23  43  67  95 137 178 230 283 341 403
#     4  12  27  45  65  96 136 187 237 278 330 402
#
# _framework density 24.813851
#
# number of rings (size 3 to 8) (size 9 to 14) (size 15 to 20)
#    1.200    0.800    0.000    3.000    2.800    0.800 
#    3.600    5.000    0.000    0.000    0.000    0.000 
#    0.000    0.000    0.000    0.000    0.000    0.000 
#
# Total GULP energy -111457.783747 kJ/mol
# GULP energy per Si atom -5572.889187 kJ/mol
# Density = 2.475737 g / cm^3
# Si number density = 24.813851 Si / 1000 Ang^3
#
#
#
# Elastic Constant Matrix: (Units=GPa)
#
#
# Indices 1 2 3 4 5 6 
#
# 1 52.5387 13.1608 10.3827 0.0000 5.7671 0.0000
# 2 13.1608 102.7829 17.8820 0.0000 16.8649 0.0000
# 3 10.3827 17.8820 77.7226 0.0000 15.0608 0.0000
# 4 0.0000 0.0000 0.0000 26.1473 0.0000 9.5469
# 5 5.7671 16.8649 15.0608 0.0000 28.2176 0.0000
# 6 0.0000 0.0000 0.0000 9.5469 0.0000 27.9884
#
#
#
# Elastic Compliance Matrix: (Units=1/GPa)
#
#
# Indices 1 2 3 4 5 6 
#
# 1 0.020100 -0.001928 -0.001861 0.000000 -0.001962 0.000000
# 2 -0.001928 0.011105 -0.001213 0.000000 -0.005596 0.000000
# 3 -0.001861 -0.001213 0.014700 0.000000 -0.006741 0.000000
# 4 0.000000 0.000000 0.000000 0.043686 0.000000 -0.014901
# 5 -0.001962 -0.005596 -0.006741 0.000000 0.042782 0.000000
# 6 0.000000 0.000000 0.000000 -0.014901 0.000000 0.040812
#
#
# Mechanical properties :
#
#
# Convention : Reuss Voigt Hill
#
# Bulk Modulus (GPa) = 27.85464 35.09947 31.47705
# Shear Modulus (GPa) = 25.62048 29.24524 27.43286
#
# Velocity S-wave (km/s) = 3.21675 3.43678 3.32858
# Velocity P-wave (km/s) = 5.00464 5.47032 5.24266
#
# Compressibility (1/GPa) = 0.03590066
#
# Stress axis : x y z
#
# Youngs Moduli (GPa) = 49.75191 90.04666 68.02637
#
# Poissons Ratio (x) = 0.17360 0.12661
# Poissons Ratio (y) = 0.09592 0.08253
# Poissons Ratio (z) = 0.09260 0.10924
#
# Static dielectric constant tensor:
#      x y z
#    x 2.164690 0.000000 -0.052990 
#    y 0.000000 1.971100 0.000000 
#    z -0.052990 0.000000 1.955920 
# 
# From -- ./inp_files/60018.got.cif
#   From: 2010.05.17/outbox.cif.g08.bks.cpg/sg15_31_cif.got.tgz:60018.got - 2010.06.03 18:47:42.
