data_PCOD9285369
_publ_section_title
;
Structure prediction by ZEFSAII (Michael W. Deem and Ramdas Pophale) SiO2 
 PCOD9285369
Probable space group: C 2/C
;
_chemical_formula_sum "Si O2"
_cell_formula_units_Z 32
_cell_length_a 12.154833
_cell_length_b 7.623616
_cell_length_c 25.511391
_cell_angle_alpha 90.000000
_cell_angle_beta 30.328278
_cell_angle_gamma 90.000000
_cell_volume 1193.701378
_symmetry_space_group_name_H-M "C 2/C"
_symmetry_group_IT_number 15
_symmetry_cell_setting 'monoclinic'
loop_
_space_group_symop_operation_xyz
x,y,z
-x,y,1/2-z
-x,-y,-z
x,-y,1/2+z
1/2+x,1/2+y,z
1/2-x,1/2+y,1/2-z
1/2-x,1/2-y,-z
1/2+x,1/2-y,1/2+z
loop_
_atom_site_type_symbol
_atom_site_label
_atom_site_fract_x
_atom_site_fract_y
_atom_site_fract_z
Si Si1 0.241823 0.632016 0.055402
Si Si2 0.027956 0.248022 0.032644
Si Si3 0.028405 0.073263 0.181930
Si Si4 0.656614 0.097182 0.782831
O O1 0.352652 0.731135 0.058515
O O2 0.995215 0.568438 0.168031
O O3 0.250000 0.750000 0.000000
O O4 0.371278 0.445676 0.999023
O O5 0.934299 0.326834 0.124690
O O6 0.229701 0.369013 0.931571
O O7 0.000000 0.989387 0.250000
O O8 0.884435 0.253105 0.242695
O O9 0.901703 0.959122 0.191649
#
# Coordination Sequence:
#
# PCOD9285369 Si02
#       4
#     8   8   8   8
#     4  10  21  41  71  96 126 176 223 270 332 391
#     4  10  24  45  68  98 135 176 222 273 332 398
#     4  11  25  43  66 100 135 173 225 276 325 394
#     4  11  26  43  67  98 136 176 221 275 332 397
#
# _framework density 26.807373999999999
#
# number of rings (size 3 to 8) (size 9 to 14) (size 15 to 20)
#    0.000    1.500    0.000    4.500    0.000   20.000 
#    0.000    0.000    0.000    0.000    0.000    0.000 
#    0.000    0.000    0.000    0.000    0.000    0.000 
#
# Total GULP energy -89885.857906 kJ/mol
# GULP energy per Si atom -5617.866119 kJ/mol
# Density = 2.674636 g / cm^3
# Si number density = 26.807374 Si / 1000 Ang^3
#
#
#
# Elastic Constant Matrix: (Units=GPa)
#
#
# Indices 1 2 3 4 5 6 
#
# 1 170.9585 29.1951 66.1872 0.0000 -37.3822 0.0004
# 2 29.1951 130.3768 41.1393 0.0000 -16.4210 0.0003
# 3 66.1872 41.1393 123.9212 0.0000 -7.6232 -0.0001
# 4 0.0000 0.0000 0.0000 53.3897 -0.0001 -5.5446
# 5 -37.3822 -16.4210 -7.6232 -0.0001 34.5442 0.0000
# 6 0.0004 0.0003 -0.0001 -5.5446 0.0000 52.9006
#
#
#
# Elastic Compliance Matrix: (Units=1/GPa)
#
#
# Indices 1 2 3 4 5 6 
#
# 1 0.009739 0.000557 -0.004787 0.000000 0.009748 0.000000
# 2 0.000557 0.009036 -0.003037 0.000000 0.004228 0.000000
# 3 -0.004787 -0.003037 0.011382 0.000000 -0.004112 0.000000
# 4 0.000000 0.000000 0.000000 0.018936 0.000000 0.001985
# 5 0.009748 0.004228 -0.004112 0.000000 0.040599 0.000000
# 6 0.000000 0.000000 0.000000 0.001985 0.000000 0.019111
#
#
# Mechanical properties :
#
#
# Convention : Reuss Voigt Hill
#
# Bulk Modulus (GPa) = 64.00879 77.58884 70.79881
# Shear Modulus (GPa) = 38.89661 47.41590 43.15625
#
# Velocity S-wave (km/s) = 3.81329 4.21023 4.01667
# Velocity P-wave (km/s) = 6.58159 7.25539 6.92669
#
# Compressibility (1/GPa) = 0.01562285
#
# Stress axis : x y z
#
# Youngs Moduli (GPa) = 102.68052 110.66517 87.85938
#
# Poissons Ratio (x) = -0.06169 0.42059
# Poissons Ratio (y) = -0.05723 0.26687
# Poissons Ratio (z) = 0.49154 0.33614
#
# Static dielectric constant tensor:
#      x y z
#    x 2.023220 0.000000 -0.077660 
#    y 0.000000 2.163760 0.000000 
#    z -0.077660 0.000000 2.028380 
# 
# From -- ./inp_files/224491.got.cif
#   From: 2010.05.17/outbox.cif.g08.bks.cpg/sg15_113_cif.got.tgz:224491.got - 2010.06.03 18:47:42.
