data_PCOD9285031
_publ_section_title
;
Structure prediction by ZEFSAII (Michael W. Deem and Ramdas Pophale) SiO2 
 PCOD9285031
Probable space group: C 2/C
;
_chemical_formula_sum "Si O2"
_cell_formula_units_Z 52
_cell_length_a 14.143784
_cell_length_b 14.213960
_cell_length_c 13.499861
_cell_angle_alpha 90.000000
_cell_angle_beta 78.126475
_cell_angle_gamma 90.000000
_cell_volume 2655.932662
_symmetry_space_group_name_H-M "C 2/C"
_symmetry_group_IT_number 15
_symmetry_cell_setting 'monoclinic'
loop_
_space_group_symop_operation_xyz
x,y,z
-x,y,1/2-z
-x,-y,-z
x,-y,1/2+z
1/2+x,1/2+y,z
1/2-x,1/2+y,1/2-z
1/2-x,1/2-y,-z
1/2+x,1/2-y,1/2+z
loop_
_atom_site_type_symbol
_atom_site_label
_atom_site_fract_x
_atom_site_fract_y
_atom_site_fract_z
Si Si1 0.515785 0.241397 0.090614
Si Si2 0.905458 0.563604 0.538274
Si Si3 0.229175 0.473201 0.611673
Si Si4 0.951720 0.089725 0.059825
Si Si5 0.000000 0.798776 0.750000
Si Si6 0.669989 0.153340 0.745826
Si Si7 0.154882 0.710943 0.236105
O O1 0.586396 0.256706 0.168021
O O2 0.411184 0.209475 0.151854
O O3 0.564569 0.162237 0.014598
O O4 0.516622 0.331278 0.023669
O O5 0.818212 0.527568 0.487583
O O6 0.875472 0.588634 0.656607
O O7 0.000000 0.500000 0.500000
O O8 0.338446 0.435971 0.586558
O O9 0.213827 0.577043 0.660284
O O10 0.176669 0.394008 0.691691
O O11 0.982806 0.132658 0.159619
O O12 0.000000 0.000000 0.000000
O O13 0.089923 0.725737 0.720392
O O14 0.752597 0.223064 0.769739
#
# Coordination Sequence:
#
# PCOD9285031 Si02
#       7
#     8   8   8   8   4   8   8
#     4  10  21  41  66  96 130 176 222 276 340 412
#     4  11  22  40  69  99 134 174 225 284 348 400
#     4  11  24  42  67 103 134 180 231 281 345 413
#     4  12  26  46  66  98 139 181 226 276 344 416
#     4  12  26  46  70 100 140 178 232 288 346 396
#     4  12  23  43  69  97 140 179 226 289 337 398
#     4  10  21  41  67  95 133 176 227 276 341 413
#
# _framework density 19.578810000000001
#
# number of rings (size 3 to 8) (size 9 to 14) (size 15 to 20)
#    0.000    0.923    3.077    3.692    0.000    8.615 
#    2.769    1.538    0.000    0.000    0.000    0.000 
#    0.000    0.000    0.000    0.000    0.000    0.000 
#
# Total GULP energy -145082.866219 kJ/mol
# GULP energy per Si atom -5580.110239 kJ/mol
# Density = 1.953425 g / cm^3
# Si number density = 19.578810 Si / 1000 Ang^3
#
#
#
# Elastic Constant Matrix: (Units=GPa)
#
#
# Indices 1 2 3 4 5 6 
#
# 1 87.3509 2.6046 0.4635 0.0000 -0.3646 0.0000
# 2 2.6046 52.9885 -3.0735 0.0000 23.3226 0.0000
# 3 0.4635 -3.0735 42.9647 0.0000 -4.1914 0.0000
# 4 0.0000 0.0000 0.0000 24.6729 0.0000 -8.9232
# 5 -0.3646 23.3226 -4.1914 0.0000 22.2590 0.0000
# 6 0.0000 0.0000 0.0000 -8.9232 0.0000 36.9995
#
#
#
# Elastic Compliance Matrix: (Units=1/GPa)
#
#
# Indices 1 2 3 4 5 6 
#
# 1 0.011490 -0.001199 -0.000070 0.000000 0.001431 0.000000
# 2 -0.001199 0.035200 -0.001089 0.000000 -0.037107 0.000000
# 3 -0.000070 -0.001089 0.023745 0.000000 0.005611 0.000000
# 4 0.000000 0.000000 0.000000 0.044403 0.000000 0.010709
# 5 0.001431 -0.037107 0.005611 0.000000 0.084885 0.000000
# 6 0.000000 0.000000 0.000000 0.010709 0.000000 0.029610
#
#
# Mechanical properties :
#
#
# Convention : Reuss Voigt Hill
#
# Bulk Modulus (GPa) = 15.21609 20.36592 17.79100
# Shear Modulus (GPa) = 19.53459 29.00690 24.27074
#
# Velocity S-wave (km/s) = 3.16213 3.85326 3.52468
# Velocity P-wave (km/s) = 4.59572 5.49740 5.06666
#
# Compressibility (1/GPa) = 0.06571993
#
# Stress axis : x y z
#
# Youngs Moduli (GPa) = 87.03095 28.40904 42.11387
#
# Poissons Ratio (x) = 0.03405 0.00295
# Poissons Ratio (y) = 0.10432 0.04586
# Poissons Ratio (z) = 0.00610 0.03094
#
# Static dielectric constant tensor:
#      x y z
#    x 1.734300 0.000000 0.019050 
#    y 0.000000 1.602390 0.000000 
#    z 0.019050 0.000000 1.790550 
# 
# From -- ./inp_files/152561.got.cif
#   From: 2010.05.17/outbox.cif.g08.bks.cpg/sg15_77_cif.got.tgz:152561.got - 2010.06.03 18:47:42.
