data_PCOD9285780
_publ_section_title
;
Structure prediction by ZEFSAII (Michael W. Deem and Ramdas Pophale) SiO2 
 PCOD9285780
Probable space group: C 2/C
;
_chemical_formula_sum "Si O2"
_cell_formula_units_Z 60
_cell_length_a 12.694962
_cell_length_b 12.857208
_cell_length_c 19.449672
_cell_angle_alpha 90.000000
_cell_angle_beta 118.268457
_cell_angle_gamma 90.000000
_cell_volume 2796.000210
_symmetry_space_group_name_H-M "C 2/C"
_symmetry_group_IT_number 15
_symmetry_cell_setting 'monoclinic'
loop_
_space_group_symop_operation_xyz
x,y,z
-x,y,1/2-z
-x,-y,-z
x,-y,1/2+z
1/2+x,1/2+y,z
1/2-x,1/2+y,1/2-z
1/2-x,1/2-y,-z
1/2+x,1/2-y,1/2+z
loop_
_atom_site_type_symbol
_atom_site_label
_atom_site_fract_x
_atom_site_fract_y
_atom_site_fract_z
Si Si1 0.326862 0.928170 0.421177
Si Si2 0.830939 0.236491 0.329068
Si Si3 0.104563 0.269394 0.409371
Si Si4 0.698629 0.715666 0.650419
Si Si5 0.980431 0.606404 0.401165
Si Si6 0.768567 0.990796 0.859714
Si Si7 0.772598 0.067878 0.011050
Si Si8 0.000000 0.555426 0.250000
O O1 0.293809 0.821613 0.374237
O O2 0.406566 0.903989 0.513489
O O3 0.399494 0.004613 0.392508
O O4 0.221277 0.998962 0.419286
O O5 0.748024 0.246274 0.237847
O O6 0.966037 0.267385 0.350496
O O7 0.819155 0.118674 0.351124
O O8 0.194235 0.273499 0.372185
O O9 0.134690 0.162803 0.458429
O O10 0.145743 0.369580 0.466158
O O11 0.590594 0.790781 0.598471
O O12 0.666406 0.594522 0.646300
O O13 0.002897 0.611585 0.325821
O O14 0.780057 0.999911 0.945339
O O15 0.628861 0.001826 0.793229
#
# Coordination Sequence:
#
# PCOD9285780 Si02
#       8
#     8   8   8   8   8   8   8   4
#     4  11  23  40  69  99 126 174 221 268 316 395
#     4  12  26  41  64  98 135 172 216 268 336 390
#     4  10  22  40  67  96 129 169 223 271 323 380
#     4  11  24  42  67  96 130 169 219 279 322 388
#     4  11  22  42  71  98 127 169 223 272 324 378
#     4  11  26  41  65  98 131 168 220 268 333 385
#     4  10  21  42  66  98 128 171 220 274 317 383
#     4  12  22  44  66  94 130 168 222 270 320 392
#
# _framework density 21.459225
#
# number of rings (size 3 to 8) (size 9 to 14) (size 15 to 20)
#    0.000    1.067    4.000    2.800    9.333    1.067 
#    0.000    0.000    2.933    0.000    0.000    0.000 
#    0.000    0.000    0.000    0.000    0.000    0.000 
#
# Total GULP energy -167628.383665 kJ/mol
# GULP energy per Si atom -5587.612789 kJ/mol
# Density = 2.141038 g / cm^3
# Si number density = 21.459225 Si / 1000 Ang^3
#
#
#
# Elastic Constant Matrix: (Units=GPa)
#
#
# Indices 1 2 3 4 5 6 
#
# 1 29.6801 27.9106 8.1948 0.0000 -14.9374 0.0000
# 2 27.9106 149.1475 17.8367 0.0000 -19.1034 0.0000
# 3 8.1948 17.8367 60.3048 0.0000 -30.4704 0.0000
# 4 0.0000 0.0000 0.0000 26.2577 0.0000 -7.4755
# 5 -14.9374 -19.1034 -30.4704 0.0000 34.4812 0.0000
# 6 0.0000 0.0000 0.0000 -7.4755 0.0000 21.4852
#
#
#
# Elastic Compliance Matrix: (Units=1/GPa)
#
#
# Indices 1 2 3 4 5 6 
#
# 1 0.050930 -0.007271 0.007845 0.000000 0.024967 0.000000
# 2 -0.007271 0.008256 -0.001327 0.000000 0.000252 0.000000
# 3 0.007845 -0.001327 0.031174 0.000000 0.030211 0.000000
# 4 0.000000 0.000000 0.000000 0.042271 0.000000 0.014708
# 5 0.024967 0.000252 0.030211 0.000000 0.066654 0.000000
# 6 0.000000 0.000000 0.000000 0.014708 0.000000 0.051661
#
#
# Mechanical properties :
#
#
# Convention : Reuss Voigt Hill
#
# Bulk Modulus (GPa) = 11.25437 38.55741 24.90589
# Shear Modulus (GPa) = 17.72614 28.79083 23.25849
#
# Velocity S-wave (km/s) = 2.87721 3.66683 3.29575
# Velocity P-wave (km/s) = 4.03654 5.99452 5.11018
#
# Compressibility (1/GPa) = 0.08885441
#
# Stress axis : x y z
#
# Youngs Moduli (GPa) = 19.63495 121.11871 32.07837
#
# Poissons Ratio (x) = 0.88065 -0.25165
# Poissons Ratio (y) = 0.14277 0.04255
# Poissons Ratio (z) = -0.15404 0.16067
#
# Static dielectric constant tensor:
#      x y z
#    x 1.809600 0.000000 -0.012220 
#    y 0.000000 1.796230 0.000000 
#    z -0.012220 0.000000 1.787330 
# 
# From -- ./inp_files/243776.got.cif
#   From: 2010.05.17/outbox.cif.g08.bks.cpg/sg15_122_cif.got.tgz:243776.got - 2010.06.03 18:47:42.
