data_PCOD9285277
_publ_section_title
;
Structure prediction by ZEFSAII (Michael W. Deem and Ramdas Pophale) SiO2 
 PCOD9285277
Probable space group: C 2/C
;
_chemical_formula_sum "Si O2"
_cell_formula_units_Z 56
_cell_length_a 17.152841
_cell_length_b 29.365952
_cell_length_c 5.082940
_cell_angle_alpha 90.000000
_cell_angle_beta 90.858483
_cell_angle_gamma 90.000000
_cell_volume 2560.037801
_symmetry_space_group_name_H-M "C 2/C"
_symmetry_group_IT_number 15
_symmetry_cell_setting 'monoclinic'
loop_
_space_group_symop_operation_xyz
x,y,z
-x,y,1/2-z
-x,-y,-z
x,-y,1/2+z
1/2+x,1/2+y,z
1/2-x,1/2+y,1/2-z
1/2-x,1/2-y,-z
1/2+x,1/2-y,1/2+z
loop_
_atom_site_type_symbol
_atom_site_label
_atom_site_fract_x
_atom_site_fract_y
_atom_site_fract_z
Si Si1 0.351834 0.806502 0.976593
Si Si2 0.000000 0.651630 0.750000
Si Si3 0.735445 0.887021 0.773659
Si Si4 0.093834 0.028465 0.763934
Si Si5 0.000000 0.588356 0.250000
Si Si6 0.697541 0.277821 0.288956
Si Si7 0.853537 0.471550 0.914274
Si Si8 0.827144 0.124469 0.775349
O O1 0.424286 0.819114 0.162832
O O2 0.268833 0.795631 0.110114
O O3 0.331428 0.850215 0.797001
O O4 0.362617 0.759554 0.821206
O O5 0.019948 0.620029 0.500602
O O6 0.712862 0.936515 0.671968
O O7 0.807477 0.873804 0.584997
O O8 0.752983 0.886310 0.082880
O O9 0.118473 0.081045 0.767132
O O10 0.000000 0.027270 0.750000
O O11 0.122479 0.999737 0.516138
O O12 0.068206 0.555549 0.153058
O O13 0.750000 0.250000 0.500000
O O14 0.651974 0.325164 0.333100
O O15 0.850152 0.514303 0.717072
#
# Coordination Sequence:
#
# PCOD9285277 Si02
#       8
#     8   4   8   8   4   8   8   8
#     4  10  23  42  64  96 126 171 216 261 326 394
#     4  12  26  41  72  94 128 172 224 269 320 402
#     4  11  23  39  62  92 127 168 214 265 318 379
#     4  10  22  42  67  94 129 171 209 260 333 402
#     4  12  26  43  64  88 126 176 220 267 322 382
#     4  10  21  41  69  93 132 170 212 265 336 386
#     4  12  25  41  60  88 126 169 218 269 322 369
#     4  11  23  39  68  96 128 167 215 264 318 397
#
# _framework density 21.874676000000001
#
# number of rings (size 3 to 8) (size 9 to 14) (size 15 to 20)
#    0.000    1.143    2.857    3.000    6.000    3.429 
#    0.000    1.429    1.571    0.000    0.000    0.000 
#    0.000    0.000    0.000    0.000    0.000    0.000 
#
# Total GULP energy -156291.867725 kJ/mol
# GULP energy per Si atom -5581.852419 kJ/mol
# Density = 2.182489 g / cm^3
# Si number density = 21.874676 Si / 1000 Ang^3
#
#
#
# Elastic Constant Matrix: (Units=GPa)
#
#
# Indices 1 2 3 4 5 6 
#
# 1 14.8314 22.5318 6.7769 0.0000 5.0880 0.0000
# 2 22.5318 159.5964 35.6636 0.0000 6.9708 0.0000
# 3 6.7769 35.6636 89.2525 0.0000 -1.6165 0.0000
# 4 0.0000 0.0000 0.0000 43.7291 0.0000 8.1834
# 5 5.0880 6.9708 -1.6165 0.0000 24.5976 0.0000
# 6 0.0000 0.0000 0.0000 8.1834 0.0000 15.7427
#
#
#
# Elastic Compliance Matrix: (Units=1/GPa)
#
#
# Indices 1 2 3 4 5 6 
#
# 1 0.091803 -0.011691 -0.002586 0.000000 -0.015846 0.000000
# 2 -0.011691 0.008483 -0.002505 0.000000 -0.000150 0.000000
# 3 -0.002586 -0.002505 0.012439 0.000000 0.002062 0.000000
# 4 0.000000 0.000000 0.000000 0.025332 0.000000 -0.013168
# 5 -0.015846 -0.000150 0.002062 0.000000 0.044110 0.000000
# 6 0.000000 0.000000 0.000000 -0.013168 0.000000 0.070366
#
#
# Mechanical properties :
#
#
# Convention : Reuss Voigt Hill
#
# Bulk Modulus (GPa) = 12.63244 43.73610 28.18427
# Shear Modulus (GPa) = 16.00088 30.06109 23.03098
#
# Velocity S-wave (km/s) = 2.70752 3.71110 3.24830
# Velocity P-wave (km/s) = 3.94483 6.19680 5.19433
#
# Compressibility (1/GPa) = 0.07916130
#
# Stress axis : x y z
#
# Youngs Moduli (GPa) = 10.89291 117.88946 80.39472
#
# Poissons Ratio (x) = 1.37821 0.20791
# Poissons Ratio (y) = 0.12735 0.20135
# Poissons Ratio (z) = 0.02817 0.29526
#
# Static dielectric constant tensor:
#      x y z
#    x 1.344610 0.000000 -0.012860 
#    y 0.000000 1.875740 0.000000 
#    z -0.012860 0.000000 1.833460 
# 
# From -- ./inp_files/11522.got.cif
#   From: 2010.05.17/outbox.cif.g08.bks.cpg/sg15_6_cif.got.tgz:11522.got - 2010.06.03 18:47:42.
