data_PCOD9285448
_publ_section_title
;
Structure prediction by ZEFSAII (Michael W. Deem and Ramdas Pophale) SiO2 
 PCOD9285448
Probable space group: C 2/C
;
_chemical_formula_sum "Si O2"
_cell_formula_units_Z 56
_cell_length_a 18.604082
_cell_length_b 14.841792
_cell_length_c 18.508574
_cell_angle_alpha 90.000000
_cell_angle_beta 144.854943
_cell_angle_gamma 90.000000
_cell_volume 2941.879594
_symmetry_space_group_name_H-M "C 2/C"
_symmetry_group_IT_number 15
_symmetry_cell_setting 'monoclinic'
loop_
_space_group_symop_operation_xyz
x,y,z
-x,y,1/2-z
-x,-y,-z
x,-y,1/2+z
1/2+x,1/2+y,z
1/2-x,1/2+y,1/2-z
1/2-x,1/2-y,-z
1/2+x,1/2-y,1/2+z
loop_
_atom_site_type_symbol
_atom_site_label
_atom_site_fract_x
_atom_site_fract_y
_atom_site_fract_z
Si Si1 0.545181 0.159856 0.401702
Si Si2 0.655410 0.242002 0.156455
Si Si3 0.830130 0.100931 0.223117
Si Si4 0.000000 0.520458 0.250000
Si Si5 0.297081 0.606391 0.687882
Si Si6 0.180552 0.371095 0.451261
Si Si7 0.413775 0.702005 0.059480
Si Si8 0.000000 0.193287 0.750000
O O1 0.453921 0.195464 0.388062
O O2 0.474686 0.084271 0.297127
O O3 0.668477 0.118830 0.538527
O O4 0.570165 0.240830 0.364986
O O5 0.760320 0.168612 0.220987
O O6 0.704184 0.323082 0.246850
O O7 0.598050 0.278592 0.034869
O O8 0.971356 0.136239 0.330759
O O9 0.819734 0.995440 0.233307
O O10 0.758116 0.110402 0.087843
O O11 0.885538 0.458038 0.134180
O O12 0.406030 0.634875 0.721177
O O13 0.280368 0.335081 0.476100
O O14 0.078128 0.296167 0.390031
#
# Coordination Sequence:
#
# PCOD9285448 Si02
#       8
#     8   8   8   4   8   8   8   4
#     4  10  21  42  61  88 128 162 212 260 309 384
#     4  10  24  42  60  94 129 175 204 258 321 378
#     4  11  23  41  64  95 125 166 217 261 313 382
#     4  11  22  38  63  94 116 160 215 260 315 372
#     4  11  22  40  66  92 125 167 212 261 321 370
#     4  10  23  39  62  94 123 166 205 264 319 371
#     4  10  23  41  62  88 134 162 207 259 317 379
#     4   9  22  38  65  90 122 164 209 268 319 366
#
# _framework density 19.035449
#
# number of rings (size 3 to 8) (size 9 to 14) (size 15 to 20)
#    0.000    1.714    1.429    1.714    8.000    2.286 
#    0.000    0.000    0.000    0.000    0.000    0.000 
#    0.000    0.000    0.000    0.000    0.000    0.000 
#
# Total GULP energy -156359.074170 kJ/mol
# GULP energy per Si atom -5584.252649 kJ/mol
# Density = 1.899212 g / cm^3
# Si number density = 19.035449 Si / 1000 Ang^3
#
#
#
# Elastic Constant Matrix: (Units=GPa)
#
#
# Indices 1 2 3 4 5 6 
#
# 1 100.4322 64.9450 53.2414 0.0000 -19.6570 0.0000
# 2 64.9450 141.5096 54.9319 0.0000 -7.8935 0.0000
# 3 53.2414 54.9319 89.3076 0.0000 -11.0943 0.0000
# 4 0.0000 0.0000 0.0000 34.6160 0.0000 4.4555
# 5 -19.6570 -7.8935 -11.0943 0.0000 23.2433 0.0000
# 6 0.0000 0.0000 0.0000 4.4555 0.0000 -49.5620
#
#
#
# Elastic Compliance Matrix: (Units=1/GPa)
#
#
# Indices 1 2 3 4 5 6 
#
# 1 0.019357 -0.005674 -0.006650 0.000000 0.011269 0.000000
# 2 -0.005674 0.010951 -0.003707 0.000000 -0.002849 0.000000
# 3 -0.006650 -0.003707 0.017632 0.000000 0.001533 0.000000
# 4 0.000000 0.000000 0.000000 0.028558 0.000000 0.002567
# 5 0.011269 -0.002849 0.001533 0.000000 0.052318 0.000000
# 6 0.000000 0.000000 0.000000 0.002567 0.000000 -0.019946
#
#
# Mechanical properties :
#
#
# Convention : Reuss Voigt Hill
#
# Bulk Modulus (GPa) = 62.97885 75.27622 69.12754
# Shear Modulus (GPa) = 34.19401 12.20153 23.19777
#
# Velocity S-wave (km/s) = 4.24292 2.53452 3.49472
# Velocity P-wave (km/s) = 7.56042 6.94235 7.25797
#
# Compressibility (1/GPa) = 0.01587835
#
# Stress axis : x y z
#
# Youngs Moduli (GPa) = 51.66121 91.31836 56.71379
#
# Poissons Ratio (x) = 0.51811 0.37715
# Poissons Ratio (y) = 0.29311 0.21025
# Poissons Ratio (z) = 0.34355 0.33853
#
# Static dielectric constant tensor:
#      x y z
#    x 1.629080 0.000000 -0.006600 
#    y 0.000000 1.690700 0.000000 
#    z -0.006600 0.000000 1.646390 
# 
# From -- ./inp_files/123359.got.cif
#   From: 2010.05.17/outbox.cif.g08.bks.cpg/sg15_62_cif.got.tgz:123359.got - 2010.06.03 18:47:42.
