data_PCOD9285798
_publ_section_title
;
Structure prediction by ZEFSAII (Michael W. Deem and Ramdas Pophale) SiO2 
 PCOD9285798
Probable space group: C 2/C
;
_chemical_formula_sum "Si O2"
_cell_formula_units_Z 32
_cell_length_a 27.621062
_cell_length_b 6.654604
_cell_length_c 9.456773
_cell_angle_alpha 90.000000
_cell_angle_beta 132.500933
_cell_angle_gamma 90.000000
_cell_volume 1281.533483
_symmetry_space_group_name_H-M "C 2/C"
_symmetry_group_IT_number 15
_symmetry_cell_setting 'monoclinic'
loop_
_space_group_symop_operation_xyz
x,y,z
-x,y,1/2-z
-x,-y,-z
x,-y,1/2+z
1/2+x,1/2+y,z
1/2-x,1/2+y,1/2-z
1/2-x,1/2-y,-z
1/2+x,1/2-y,1/2+z
loop_
_atom_site_type_symbol
_atom_site_label
_atom_site_fract_x
_atom_site_fract_y
_atom_site_fract_z
Si Si1 0.103793 0.396065 0.098916
Si Si2 0.235478 0.511236 0.999307
Si Si3 0.062809 0.740293 0.806752
Si Si4 0.679236 0.548876 0.078419
O O1 0.056477 0.311463 0.128527
O O2 0.161067 0.508532 0.301548
O O3 0.241858 0.982105 0.295609
O O4 0.071880 0.545823 0.924180
O O5 0.361365 0.718150 0.419778
O O6 0.250000 0.750000 0.000000
O O7 0.288218 0.396264 0.006065
O O8 0.000000 0.850679 0.750000
O O9 0.128685 0.869274 0.952674
#
# Coordination Sequence:
#
# PCOD9285798 Si02
#       4
#     8   8   8   8
#     4  11  26  45  68 103 138 174 230 281 342 401
#     4  10  21  42  67 103 132 167 222 275 347 400
#     4  12  27  46  68  98 137 188 234 273 329 403
#     4  11  23  44  69 102 138 174 221 283 347 402
#
# _framework density 24.970085000000001
#
# number of rings (size 3 to 8) (size 9 to 14) (size 15 to 20)
#    0.000    1.000    5.000    2.250    7.000    3.000 
#    0.000    0.000    0.000    0.000    0.000    0.000 
#    0.000    0.000    0.000    0.000    0.000    0.000 
#
# Total GULP energy -89676.135870 kJ/mol
# GULP energy per Si atom -5604.758492 kJ/mol
# Density = 2.491325 g / cm^3
# Si number density = 24.970085 Si / 1000 Ang^3
#
#
#
# Elastic Constant Matrix: (Units=GPa)
#
#
# Indices 1 2 3 4 5 6 
#
# 1 183.6889 14.5669 16.1105 0.0000 -17.9223 0.0000
# 2 14.5669 56.1690 13.5843 0.0000 -10.8323 0.0000
# 3 16.1105 13.5843 58.5647 0.0000 -11.5407 0.0000
# 4 0.0000 0.0000 0.0000 35.1829 0.0000 -6.0576
# 5 -17.9223 -10.8323 -11.5407 0.0000 43.8877 0.0000
# 6 0.0000 0.0000 0.0000 -6.0576 0.0000 39.3015
#
#
#
# Elastic Compliance Matrix: (Units=1/GPa)
#
#
# Indices 1 2 3 4 5 6 
#
# 1 0.005787 -0.000894 -0.001015 0.000000 0.001876 0.000000
# 2 -0.000894 0.019586 -0.003603 0.000000 0.003522 0.000000
# 3 -0.001015 -0.003603 0.018913 0.000000 0.003670 0.000000
# 4 0.000000 0.000000 0.000000 0.029198 0.000000 0.004500
# 5 0.001876 0.003522 0.003670 0.000000 0.025386 0.000000
# 6 0.000000 0.000000 0.000000 0.004500 0.000000 0.026138
#
#
# Mechanical properties :
#
#
# Convention : Reuss Voigt Hill
#
# Bulk Modulus (GPa) = 30.06402 42.99399 36.52901
# Shear Modulus (GPa) = 33.98629 40.61849 37.30239
#
# Velocity S-wave (km/s) = 3.69328 4.03760 3.86927
# Velocity P-wave (km/s) = 5.50030 6.24434 5.88409
#
# Compressibility (1/GPa) = 0.03326235
#
# Stress axis : x y z
#
# Youngs Moduli (GPa) = 172.80459 51.05754 52.87293
#
# Poissons Ratio (x) = 0.04562 0.05367
# Poissons Ratio (y) = 0.15441 0.19051
# Poissons Ratio (z) = 0.17540 0.18397
#
# Static dielectric constant tensor:
#      x y z
#    x 1.971590 0.000000 0.015760 
#    y 0.000000 2.134610 0.000000 
#    z 0.015760 0.000000 1.909970 
# 
# From -- ./inp_files/115728.got.cif
#   From: 2010.05.17/outbox.cif.g08.bks.cpg/sg15_58_cif.got.tgz:115728.got - 2010.06.03 18:47:42.
