data_PCOD9285782
_publ_section_title
;
Structure prediction by ZEFSAII (Michael W. Deem and Ramdas Pophale) SiO2 
 PCOD9285782
Probable space group: C 2/C
;
_chemical_formula_sum "Si O2"
_cell_formula_units_Z 36
_cell_length_a 12.750503
_cell_length_b 23.614446
_cell_length_c 5.537120
_cell_angle_alpha 90.000000
_cell_angle_beta 91.904162
_cell_angle_gamma 90.000000
_cell_volume 1666.284419
_symmetry_space_group_name_H-M "C 2/C"
_symmetry_group_IT_number 15
_symmetry_cell_setting 'monoclinic'
loop_
_space_group_symop_operation_xyz
x,y,z
-x,y,1/2-z
-x,-y,-z
x,-y,1/2+z
1/2+x,1/2+y,z
1/2-x,1/2+y,1/2-z
1/2-x,1/2-y,-z
1/2+x,1/2-y,1/2+z
loop_
_atom_site_type_symbol
_atom_site_label
_atom_site_fract_x
_atom_site_fract_y
_atom_site_fract_z
Si Si1 0.000000 0.534685 0.750000
Si Si2 0.100555 0.733941 0.587387
Si Si3 0.304447 0.881982 0.191233
Si Si4 0.278317 0.202559 0.305010
Si Si5 0.623930 0.534694 0.772193
O O1 0.103434 0.573116 0.771866
O O2 0.000000 0.500000 0.500000
O O3 0.154516 0.674735 0.675928
O O4 0.177235 0.787810 0.628477
O O5 0.112136 0.722534 0.303014
O O6 0.000000 0.740673 0.750000
O O7 0.198108 0.910516 0.273291
O O8 0.287786 0.859201 0.917552
O O9 0.250000 0.250000 0.500000
O O10 0.500000 0.548434 0.750000
O O11 0.645339 0.499541 0.524120
#
# Coordination Sequence:
#
# PCOD9285782 Si02
#       5
#     4   8   8   8   8
#     4  12  28  42  66 106 136 180 228 282 344 412
#     4  10  21  42  66  98 136 176 221 282 346 414
#     4  11  23  41  66  96 133 176 222 278 340 411
#     4   9  22  41  63  95 133 175 224 270 346 404
#     4  10  23  44  66  93 131 176 224 282 337 399
#
# _framework density 21.604956000000001
#
# number of rings (size 3 to 8) (size 9 to 14) (size 15 to 20)
#    0.000    1.778    1.111    1.333    6.222    3.556 
#   12.000    0.000    0.000    0.000    0.000    0.000 
#    0.000    0.000    0.000    0.000    0.000    0.000 
#
# Total GULP energy -100269.245643 kJ/mol
# GULP energy per Si atom -5570.513647 kJ/mol
# Density = 2.155578 g / cm^3
# Si number density = 21.604956 Si / 1000 Ang^3
#
#
#
# Elastic Constant Matrix: (Units=GPa)
#
#
# Indices 1 2 3 4 5 6 
#
# 1 142.4670 64.7927 57.4945 0.0000 -32.9215 0.0000
# 2 64.7927 91.1027 50.8014 0.0000 4.0122 0.0000
# 3 57.4945 50.8014 119.6280 0.0000 -28.9861 0.0000
# 4 0.0000 0.0000 0.0000 40.9396 0.0000 27.0551
# 5 -32.9215 4.0122 -28.9861 0.0000 31.9022 0.0000
# 6 0.0000 0.0000 0.0000 27.0551 0.0000 12.4307
#
#
#
# Elastic Compliance Matrix: (Units=1/GPa)
#
#
# Indices 1 2 3 4 5 6 
#
# 1 0.018911 -0.016986 0.004322 0.000000 0.025578 0.000000
# 2 -0.016986 0.032258 -0.013804 0.000000 -0.034128 0.000000
# 3 0.004322 -0.013804 0.017498 0.000000 0.022095 0.000000
# 4 0.000000 0.000000 0.000000 -0.055726 0.000000 0.121286
# 5 0.025578 -0.034128 0.022095 0.000000 0.082109 0.000000
# 6 0.000000 0.000000 0.000000 0.121286 0.000000 -0.183529
#
#
# Mechanical properties :
#
#
# Convention : Reuss Voigt Hill
#
# Bulk Modulus (GPa) = 63.57243 77.70832 70.64037
# Shear Modulus (GPa) = -165.01305 29.06177 -67.97564
#
# Velocity S-wave (km/s) = -8.74890 3.67160 -5.61527
# Velocity P-wave (km/s) = 8.51873 7.34984 3.04538
#
# Compressibility (1/GPa) = 0.01573009
#
# Stress axis : x y z
#
# Youngs Moduli (GPa) = 52.88037 31.00020 57.15061
#
# Poissons Ratio (x) = 0.52657 -0.24702
# Poissons Ratio (y) = 0.89823 0.78892
# Poissons Ratio (z) = -0.22857 0.42794
#
# Static dielectric constant tensor:
#      x y z
#    x 1.796420 0.000000 0.045550 
#    y 0.000000 1.735760 0.000000 
#    z 0.045550 0.000000 2.215080 
# 
# From -- ./inp_files/4342.got.cif
#   From: 2010.05.17/outbox.cif.g08.bks.cpg/sg15_3_cif.got.tgz:4342.got - 2010.06.03 18:47:42.
