data_PCOD9285995
_publ_section_title
;
Structure prediction by ZEFSAII (Michael W. Deem and Ramdas Pophale) SiO2 
 PCOD9285995
Probable space group: C 2/C
;
_chemical_formula_sum "Si O2"
_cell_formula_units_Z 56
_cell_length_a 28.710025
_cell_length_b 12.703178
_cell_length_c 14.471733
_cell_angle_alpha 90.000000
_cell_angle_beta 28.895224
_cell_angle_gamma 90.000000
_cell_volume 2550.362269
_symmetry_space_group_name_H-M "C 2/C"
_symmetry_group_IT_number 15
_symmetry_cell_setting 'monoclinic'
loop_
_space_group_symop_operation_xyz
x,y,z
-x,y,1/2-z
-x,-y,-z
x,-y,1/2+z
1/2+x,1/2+y,z
1/2-x,1/2+y,1/2-z
1/2-x,1/2-y,-z
1/2+x,1/2-y,1/2+z
loop_
_atom_site_type_symbol
_atom_site_label
_atom_site_fract_x
_atom_site_fract_y
_atom_site_fract_z
Si Si1 0.502269 0.282483 0.143335
Si Si2 0.950231 0.350791 0.120710
Si Si3 0.212035 0.199211 0.472535
Si Si4 0.548374 0.504526 0.016271
Si Si5 0.082340 0.183482 0.171671
Si Si6 0.360058 0.022935 0.163065
Si Si7 0.263363 0.618778 0.744335
O O1 0.500000 0.234437 0.250000
O O2 0.396433 0.331111 0.318310
O O3 0.566914 0.386977 0.022794
O O4 0.518525 0.203128 0.030966
O O5 0.906828 0.260305 0.260371
O O6 0.877186 0.441151 0.216725
O O7 0.041892 0.407941 0.009658
O O8 0.250000 0.250000 0.500000
O O9 0.275189 0.101209 0.335094
O O10 0.221112 0.285467 0.376083
O O11 0.470390 0.575279 0.206755
O O12 0.500000 0.500000 0.000000
O O13 0.651067 0.563751 0.845321
O O14 0.000000 0.235394 0.250000
O O15 0.178555 0.160900 0.946880
O O16 0.322155 0.957915 0.140546
#
# Coordination Sequence:
#
# PCOD9285995 Si02
#       7
#     8   8   8   8   8   8   8
#     4  12  23  41  69 101 133 178 233 281 334 410
#     4  11  24  45  67  96 138 184 219 278 337 416
#     4  12  24  46  67  97 140 176 220 282 346 402
#     4  11  20  39  71  99 136 177 230 285 347 401
#     4  10  21  42  69  96 134 176 229 277 346 405
#     4  11  24  46  66  98 140 170 229 271 340 406
#     4  11  25  43  68 102 131 178 226 286 331 405
#
# _framework density 21.957664999999999
#
# number of rings (size 3 to 8) (size 9 to 14) (size 15 to 20)
#    0.000    0.857    2.857    6.429    0.000    0.571 
#    5.143    4.286    0.000    0.000    0.000    0.000 
#    0.000    0.000    0.000    0.000    0.000    0.000 
#
# Total GULP energy -156521.326514 kJ/mol
# GULP energy per Si atom -5590.047376 kJ/mol
# Density = 2.190769 g / cm^3
# Si number density = 21.957665 Si / 1000 Ang^3
#
#
#
# Elastic Constant Matrix: (Units=GPa)
#
#
# Indices 1 2 3 4 5 6 
#
# 1 102.6717 42.8579 28.8367 0.0000 19.9515 0.0000
# 2 42.8579 123.1389 35.8825 0.0000 9.9681 0.0000
# 3 28.8367 35.8825 42.3874 0.0000 3.5566 0.0000
# 4 0.0000 0.0000 0.0000 3.8964 0.0000 -8.7108
# 5 19.9515 9.9681 3.5566 0.0000 37.1868 0.0000
# 6 0.0000 0.0000 0.0000 -8.7108 0.0000 47.8196
#
#
#
# Elastic Compliance Matrix: (Units=1/GPa)
#
#
# Indices 1 2 3 4 5 6 
#
# 1 0.013848 -0.002293 -0.006964 0.000000 -0.006149 0.000000
# 2 -0.002293 0.011314 -0.007931 0.000000 -0.001044 0.000000
# 3 -0.006964 -0.007931 0.034831 0.000000 0.002531 0.000000
# 4 0.000000 0.000000 0.000000 0.432970 0.000000 0.078870
# 5 -0.006149 -0.001044 0.002531 0.000000 0.030228 0.000000
# 6 0.000000 0.000000 0.000000 0.078870 0.000000 0.035279
#
#
# Mechanical properties :
#
#
# Convention : Reuss Voigt Hill
#
# Bulk Modulus (GPa) = 39.03466 53.70580 46.37023
# Shear Modulus (GPa) = 8.31416 28.48861 18.40138
#
# Velocity S-wave (km/s) = 1.94799 3.60590 2.89803
# Velocity P-wave (km/s) = 4.78282 6.46905 5.68876
#
# Compressibility (1/GPa) = 0.02561826
#
# Stress axis : x y z
#
# Youngs Moduli (GPa) = 72.21491 88.38314 28.71005
#
# Poissons Ratio (x) = 0.20262 0.19994
# Poissons Ratio (y) = 0.16555 0.22769
# Poissons Ratio (z) = 0.50291 0.70095
#
# Static dielectric constant tensor:
#      x y z
#    x 1.875830 0.000000 0.006580 
#    y 0.000000 1.831520 0.000000 
#    z 0.006580 0.000000 1.741120 
# 
# From -- ./inp_files/181922.got.cif
#   From: 2010.05.17/outbox.cif.g08.bks.cpg/sg15_91_cif.got.tgz:181922.got - 2010.06.03 18:47:42.
