data_PCOD9285177
_publ_section_title
;
Structure prediction by ZEFSAII (Michael W. Deem and Ramdas Pophale) SiO2 
 PCOD9285177
Probable space group: C 2/C
;
_chemical_formula_sum "Si O2"
_cell_formula_units_Z 48
_cell_length_a 8.019353
_cell_length_b 31.452588
_cell_length_c 15.620321
_cell_angle_alpha 90.000000
_cell_angle_beta 31.166273
_cell_angle_gamma 90.000000
_cell_volume 2038.992709
_symmetry_space_group_name_H-M "C 2/C"
_symmetry_group_IT_number 15
_symmetry_cell_setting 'monoclinic'
loop_
_space_group_symop_operation_xyz
x,y,z
-x,y,1/2-z
-x,-y,-z
x,-y,1/2+z
1/2+x,1/2+y,z
1/2-x,1/2+y,1/2-z
1/2-x,1/2-y,-z
1/2+x,1/2-y,1/2+z
loop_
_atom_site_type_symbol
_atom_site_label
_atom_site_fract_x
_atom_site_fract_y
_atom_site_fract_z
Si Si1 0.416887 0.613561 0.387043
Si Si2 0.294501 0.863212 0.252694
Si Si3 0.563295 0.555913 0.620589
Si Si4 0.655325 0.701050 0.354434
Si Si5 0.099435 0.229240 0.864307
Si Si6 0.712536 0.528931 0.243764
O O1 0.500000 0.614381 0.250000
O O2 0.583090 0.654026 0.356071
O O3 0.551283 0.568765 0.362791
O O4 0.040808 0.620090 0.572057
O O5 0.500000 0.861862 0.250000
O O6 0.159984 0.816189 0.292145
O O7 0.019671 0.898632 0.383355
O O8 0.500000 0.561332 0.750000
O O9 0.329886 0.517021 0.694711
O O10 0.924992 0.540855 0.440975
O O11 0.668914 0.734356 0.271789
O O12 0.401348 0.716841 0.536168
O O13 0.000000 0.701165 0.250000
O O14 0.750000 0.250000 0.000000
O O15 0.500000 0.525316 0.250000
#
# Coordination Sequence:
#
# PCOD9285177 Si02
#       6
#     8   8   8   8   8   8
#     4  11  24  42  68  99 141 179 236 279 354 408
#     4  12  26  46  68 105 147 185 231 297 356 418
#     4  11  22  41  74 100 145 186 242 289 346 415
#     4  10  23  43  68  96 135 179 229 287 346 412
#     4  10  24  44  68  97 137 178 233 285 350 414
#     4  10  21  41  68 107 139 184 237 294 342 415
#
# _framework density 23.541035000000001
#
# number of rings (size 3 to 8) (size 9 to 14) (size 15 to 20)
#    0.000    1.333    1.667    5.000    7.000    3.333 
#    0.000    4.167    0.000    0.000    0.000    0.000 
#    0.000    0.000    0.000    0.000    0.000    0.000 
#
# Total GULP energy -134256.794554 kJ/mol
# GULP energy per Si atom -5594.033106 kJ/mol
# Density = 2.348745 g / cm^3
# Si number density = 23.541035 Si / 1000 Ang^3
#
#
#
# Elastic Constant Matrix: (Units=GPa)
#
#
# Indices 1 2 3 4 5 6 
#
# 1 42.0989 20.5688 3.7856 0.0000 -9.8518 0.0000
# 2 20.5688 180.0049 18.9003 0.0000 -16.3977 0.0000
# 3 3.7856 18.9003 102.9335 0.0000 -12.9608 0.0000
# 4 0.0000 0.0000 0.0000 48.3241 0.0000 -12.1472
# 5 -9.8518 -16.3977 -12.9608 0.0000 42.2331 0.0000
# 6 0.0000 0.0000 0.0000 -12.1472 0.0000 33.1496
#
#
#
# Elastic Compliance Matrix: (Units=1/GPa)
#
#
# Indices 1 2 3 4 5 6 
#
# 1 0.026190 -0.002538 0.000154 0.000000 0.005171 0.000000
# 2 -0.002538 0.006070 -0.000831 0.000000 0.001510 0.000000
# 3 0.000154 -0.000831 0.010221 0.000000 0.002850 0.000000
# 4 0.000000 0.000000 0.000000 0.022793 0.000000 0.008352
# 5 0.005171 0.001510 0.002850 0.000000 0.026345 0.000000
# 6 0.000000 0.000000 0.000000 0.008352 0.000000 0.033227
#
#
# Mechanical properties :
#
#
# Convention : Reuss Voigt Hill
#
# Bulk Modulus (GPa) = 27.73859 45.72743 36.73301
# Shear Modulus (GPa) = 34.89359 43.52686 39.21022
#
# Velocity S-wave (km/s) = 3.85417 4.30464 4.08562
# Velocity P-wave (km/s) = 5.62271 6.64630 6.15582
#
# Compressibility (1/GPa) = 0.03605085
#
# Stress axis : x y z
#
# Youngs Moduli (GPa) = 38.18279 164.73936 97.83974
#
# Poissons Ratio (x) = 0.41807 -0.01506
# Poissons Ratio (y) = 0.09690 0.08132
# Poissons Ratio (z) = -0.00588 0.13692
#
# Static dielectric constant tensor:
#      x y z
#    x 1.947450 0.000000 -0.022140 
#    y 0.000000 1.924000 0.000000 
#    z -0.022140 0.000000 1.993010 
# 
# From -- ./inp_files/194160.got.cif
#   From: 2010.05.17/outbox.cif.g08.bks.cpg/sg15_98_cif.got.tgz:194160.got - 2010.06.03 18:47:42.
