data_PCOD9285612
_publ_section_title
;
Structure prediction by ZEFSAII (Michael W. Deem and Ramdas Pophale) SiO2 
 PCOD9285612
Probable space group: C 2/C
;
_chemical_formula_sum "Si O2"
_cell_formula_units_Z 44
_cell_length_a 25.071145
_cell_length_b 10.557508
_cell_length_c 12.820716
_cell_angle_alpha 90.000000
_cell_angle_beta 142.535930
_cell_angle_gamma 90.000000
_cell_volume 2064.143273
_symmetry_space_group_name_H-M "C 2/C"
_symmetry_group_IT_number 15
_symmetry_cell_setting 'monoclinic'
loop_
_space_group_symop_operation_xyz
x,y,z
-x,y,1/2-z
-x,-y,-z
x,-y,1/2+z
1/2+x,1/2+y,z
1/2-x,1/2+y,1/2-z
1/2-x,1/2-y,-z
1/2+x,1/2-y,1/2+z
loop_
_atom_site_type_symbol
_atom_site_label
_atom_site_fract_x
_atom_site_fract_y
_atom_site_fract_z
Si Si1 0.296338 0.848815 0.438948
Si Si2 0.471761 0.136905 0.496364
Si Si3 0.942557 0.781782 0.056345
Si Si4 0.784248 0.586403 0.141211
Si Si5 0.849047 0.950422 0.432950
Si Si6 0.500000 0.264572 0.750000
O O1 0.372213 0.829745 0.471742
O O2 0.281404 0.705872 0.456228
O O3 0.317592 0.929293 0.574840
O O4 0.206634 0.897797 0.250084
O O5 0.499726 0.240152 0.452669
O O6 0.366592 0.124150 0.340110
O O7 0.514849 0.177459 0.671942
O O8 0.500000 0.000000 0.500000
O O9 0.000000 0.791057 0.250000
O O10 0.894954 0.917428 0.970334
O O11 0.725382 0.475613 0.095362
O O12 0.920490 0.855404 0.590603
#
# Coordination Sequence:
#
# PCOD9285612 Si02
#       6
#     8   8   8   8   8   4
#     4  10  21  42  64  96 137 175 224 276 345 415
#     4  12  27  46  70  99 142 189 232 285 348 424
#     4  11  23  43  73 105 134 187 234 283 353 412
#     4  10  22  41  67  93 132 182 217 276 349 407
#     4  11  24  42  70 105 140 174 232 293 348 413
#     4  12  28  46  68 108 144 178 236 296 350 404
#
# _framework density 21.31635
#
# number of rings (size 3 to 8) (size 9 to 14) (size 15 to 20)
#    0.000    1.091    4.545    1.091    3.818    2.182 
#    0.000    1.818    0.000    0.000    0.000    0.000 
#    0.000    0.000    0.000    0.000    0.000    0.000 
#
# Total GULP energy -122856.234337 kJ/mol
# GULP energy per Si atom -5584.374288 kJ/mol
# Density = 2.126783 g / cm^3
# Si number density = 21.316350 Si / 1000 Ang^3
#
#
#
# Elastic Constant Matrix: (Units=GPa)
#
#
# Indices 1 2 3 4 5 6 
#
# 1 59.2817 29.6443 9.2693 0.0000 -6.0376 0.0000
# 2 29.6443 86.4871 32.9162 0.0000 -7.6280 0.0000
# 3 9.2693 32.9162 105.0547 0.0000 -11.5842 0.0000
# 4 0.0000 0.0000 0.0000 23.7716 0.0000 6.6335
# 5 -6.0376 -7.6280 -11.5842 0.0000 40.8432 0.0000
# 6 0.0000 0.0000 0.0000 6.6335 0.0000 31.8196
#
#
#
# Elastic Compliance Matrix: (Units=1/GPa)
#
#
# Indices 1 2 3 4 5 6 
#
# 1 0.020515 -0.007103 0.000623 0.000000 0.001883 0.000000
# 2 -0.007103 0.015657 -0.004204 0.000000 0.000682 0.000000
# 3 0.000623 -0.004204 0.011050 0.000000 0.002441 0.000000
# 4 0.000000 0.000000 0.000000 0.044665 0.000000 -0.009311
# 5 0.001883 0.000682 0.002441 0.000000 0.025582 0.000000
# 6 0.000000 0.000000 0.000000 -0.009311 0.000000 0.033368
#
#
# Mechanical properties :
#
#
# Convention : Reuss Voigt Hill
#
# Bulk Modulus (GPa) = 38.67742 43.83145 41.25443
# Shear Modulus (GPa) = 27.65136 31.21980 29.43558
#
# Velocity S-wave (km/s) = 3.60556 3.83115 3.72007
# Velocity P-wave (km/s) = 5.95964 6.33856 6.15202
#
# Compressibility (1/GPa) = 0.02585488
#
# Stress axis : x y z
#
# Youngs Moduli (GPa) = 48.74549 63.86920 90.49589
#
# Poissons Ratio (x) = 0.45364 -0.05638
# Poissons Ratio (y) = 0.34622 0.38043
# Poissons Ratio (z) = -0.03037 0.26850
#
# Static dielectric constant tensor:
#      x y z
#    x 1.847040 0.000000 -0.009680 
#    y 0.000000 1.779810 0.000000 
#    z -0.009680 0.000000 1.746690 
# 
# From -- ./inp_files/103873.got.cif
#   From: 2010.05.17/outbox.cif.g08.bks.cpg/sg15_52_cif.got.tgz:103873.got - 2010.06.03 18:47:42.
