data_PCOD9285502
_publ_section_title
;
Structure prediction by ZEFSAII (Michael W. Deem and Ramdas Pophale) SiO2 
 PCOD9285502
Probable space group: C 2/C
;
_chemical_formula_sum "Si O2"
_cell_formula_units_Z 52
_cell_length_a 8.251717
_cell_length_b 25.905124
_cell_length_c 14.611241
_cell_angle_alpha 90.000000
_cell_angle_beta 130.273939
_cell_angle_gamma 90.000000
_cell_volume 2382.979274
_symmetry_space_group_name_H-M "C 2/C"
_symmetry_group_IT_number 15
_symmetry_cell_setting 'monoclinic'
loop_
_space_group_symop_operation_xyz
x,y,z
-x,y,1/2-z
-x,-y,-z
x,-y,1/2+z
1/2+x,1/2+y,z
1/2-x,1/2+y,1/2-z
1/2-x,1/2-y,-z
1/2+x,1/2-y,1/2+z
loop_
_atom_site_type_symbol
_atom_site_label
_atom_site_fract_x
_atom_site_fract_y
_atom_site_fract_z
Si Si1 0.337472 0.449926 0.770885
Si Si2 0.230397 0.743280 0.382410
Si Si3 0.260294 0.129582 0.120599
Si Si4 0.708138 0.568449 0.770469
Si Si5 0.989721 0.395837 0.532188
Si Si6 0.381996 0.196764 0.537097
Si Si7 0.000000 0.366589 0.250000
O O1 0.500000 0.435907 0.750000
O O2 0.360727 0.415838 0.870777
O O3 0.343335 0.511207 0.784582
O O4 0.115949 0.433907 0.644433
O O5 0.250000 0.750000 0.500000
O O6 0.325647 0.686736 0.393511
O O7 0.375782 0.785995 0.390574
O O8 0.000000 0.745828 0.250000
O O9 0.500000 0.130765 0.250000
O O10 0.296867 0.123586 0.025949
O O11 0.500000 0.587191 0.750000
O O12 0.811205 0.600893 0.727143
O O13 0.896278 0.572133 0.914143
O O14 0.135319 0.347538 0.549320
O O15 0.250000 0.250000 0.500000
O O16 0.381063 0.167463 0.631693
#
# Coordination Sequence:
#
# PCOD9285502 Si02
#       7
#     8   8   8   8   8   8   4
#     4  10  22  40  65  97 127 171 219 280 342 406
#     4  11  24  44  69  97 138 185 231 281 345 416
#     4   9  20  38  63  91 127 173 219 268 337 405
#     4  10  23  45  67  93 132 173 223 278 348 409
#     4  10  21  42  62  95 130 172 220 276 339 404
#     4  11  26  42  65  98 136 176 229 282 347 407
#     4  10  26  44  66 100 132 176 224 284 346 408
#
# _framework density 21.821422999999999
#
# number of rings (size 3 to 8) (size 9 to 14) (size 15 to 20)
#    0.000    1.846    1.538    0.462    7.538    3.692 
#    2.769    1.538    0.000    0.000    0.000    0.000 
#    0.000    0.000    0.000    0.000    0.000    0.000 
#
# Total GULP energy -144956.126604 kJ/mol
# GULP energy per Si atom -5575.235639 kJ/mol
# Density = 2.177176 g / cm^3
# Si number density = 21.821423 Si / 1000 Ang^3
#
#
#
# Elastic Constant Matrix: (Units=GPa)
#
#
# Indices 1 2 3 4 5 6 
#
# 1 106.2369 63.0037 28.5528 0.0000 -21.6546 0.0000
# 2 63.0037 92.2691 25.9257 0.0000 -21.1794 0.0000
# 3 28.5528 25.9257 67.1422 0.0000 -21.0362 0.0000
# 4 0.0000 0.0000 0.0000 19.2510 0.0000 -1.9055
# 5 -21.6546 -21.1794 -21.0362 0.0000 37.6681 0.0000
# 6 0.0000 0.0000 0.0000 -1.9055 0.0000 36.5080
#
#
#
# Elastic Compliance Matrix: (Units=1/GPa)
#
#
# Indices 1 2 3 4 5 6 
#
# 1 0.016511 -0.010031 -0.002353 0.000000 0.002538 0.000000
# 2 -0.010031 0.019119 -0.001885 0.000000 0.003931 0.000000
# 3 -0.002353 -0.001885 0.019231 0.000000 0.008327 0.000000
# 4 0.000000 0.000000 0.000000 0.052215 0.000000 0.002725
# 5 0.002538 0.003931 0.008327 0.000000 0.034867 0.000000
# 6 0.000000 0.000000 0.000000 0.002725 0.000000 0.027533
#
#
# Mechanical properties :
#
#
# Convention : Reuss Voigt Hill
#
# Bulk Modulus (GPa) = 37.98907 55.62362 46.80635
# Shear Modulus (GPa) = 24.17908 28.56317 26.37113
#
# Velocity S-wave (km/s) = 3.33234 3.62187 3.48012
# Velocity P-wave (km/s) = 5.67916 6.56020 6.13552
#
# Compressibility (1/GPa) = 0.02632336
#
# Stress axis : x y z
#
# Youngs Moduli (GPa) = 60.56438 52.30406 51.99806
#
# Poissons Ratio (x) = 0.52464 0.12237
# Poissons Ratio (y) = 0.60750 0.09803
# Poissons Ratio (z) = 0.14253 0.09861
#
# Static dielectric constant tensor:
#      x y z
#    x 1.898930 0.000000 0.050660 
#    y 0.000000 1.807170 0.000000 
#    z 0.050660 0.000000 1.931330 
# 
# From -- ./inp_files/138775.got.cif
#   From: 2010.05.17/outbox.cif.g08.bks.cpg/sg15_70_cif.got.tgz:138775.got - 2010.06.03 18:47:42.
