data_PCOD9285633
_publ_section_title
;
Structure prediction by ZEFSAII (Michael W. Deem and Ramdas Pophale) SiO2 
 PCOD9285633
Probable space group: C 2/C
;
_chemical_formula_sum "Si O2"
_cell_formula_units_Z 48
_cell_length_a 16.149527
_cell_length_b 12.281768
_cell_length_c 11.446755
_cell_angle_alpha 90.000000
_cell_angle_beta 102.274775
_cell_angle_gamma 90.000000
_cell_volume 2218.500600
_symmetry_space_group_name_H-M "C 2/C"
_symmetry_group_IT_number 15
_symmetry_cell_setting 'monoclinic'
loop_
_space_group_symop_operation_xyz
x,y,z
-x,y,1/2-z
-x,-y,-z
x,-y,1/2+z
1/2+x,1/2+y,z
1/2-x,1/2+y,1/2-z
1/2-x,1/2-y,-z
1/2+x,1/2-y,1/2+z
loop_
_atom_site_type_symbol
_atom_site_label
_atom_site_fract_x
_atom_site_fract_y
_atom_site_fract_z
Si Si1 0.920357 0.926457 0.018915
Si Si2 0.144132 0.706872 0.097322
Si Si3 0.035963 0.380167 0.029796
Si Si4 0.086304 0.718050 0.330127
Si Si5 0.297943 0.613817 0.053853
Si Si6 0.412033 0.286895 0.785556
O O1 0.896311 0.858211 0.896480
O O2 0.934490 0.838082 0.125929
O O3 0.846840 0.003154 0.046078
O O4 0.000000 0.000000 0.000000
O O5 0.147269 0.713677 0.238077
O O6 0.200198 0.609378 0.061057
O O7 0.047859 0.695158 0.021168
O O8 0.184978 0.815043 0.056129
O O9 0.074039 0.336597 0.162997
O O10 0.000000 0.500000 0.000000
O O11 0.104209 0.353176 0.949393
O O12 0.000000 0.670211 0.250000
O O13 0.341543 0.684111 0.170417
O O14 0.500000 0.320087 0.750000
#
# Coordination Sequence:
#
# PCOD9285633 Si02
#       6
#     8   8   8   8   8   8
#     4  11  21  34  62  94 120 155 204 256 315 376
#     4  10  22  43  57  86 126 163 200 254 318 371
#     4  10  21  42  65  85 117 165 218 254 298 372
#     4   9  20  38  61  87 117 158 205 256 306 374
#     4  11  23  39  61  90 128 159 196 261 321 375
#     4  11  21  38  61  94 120 156 213 254 302 382
#
# _framework density 21.636234999999999
#
# number of rings (size 3 to 8) (size 9 to 14) (size 15 to 20)
#    0.000    1.667    3.333    2.000    4.667    2.000 
#    6.000    1.667    0.000    0.000    0.000    0.000 
#    0.000    0.000    0.000    0.000    0.000    0.000 
#
# Total GULP energy -133830.065724 kJ/mol
# GULP energy per Si atom -5576.252738 kJ/mol
# Density = 2.158699 g / cm^3
# Si number density = 21.636235 Si / 1000 Ang^3
#
#
#
# Elastic Constant Matrix: (Units=GPa)
#
#
# Indices 1 2 3 4 5 6 
#
# 1 62.3485 8.4322 26.5051 0.0000 -22.4091 0.0000
# 2 8.4322 91.1551 23.7564 0.0000 -14.8313 0.0000
# 3 26.5051 23.7564 101.3656 0.0000 -30.7166 0.0000
# 4 0.0000 0.0000 0.0000 18.2265 0.0000 -0.4828
# 5 -22.4091 -14.8313 -30.7166 0.0000 36.1985 0.0000
# 6 0.0000 0.0000 0.0000 -0.4828 0.0000 27.1912
#
#
#
# Elastic Compliance Matrix: (Units=1/GPa)
#
#
# Indices 1 2 3 4 5 6 
#
# 1 0.020969 0.000468 -0.002155 0.000000 0.011344 0.000000
# 2 0.000468 0.011998 -0.001826 0.000000 0.003655 0.000000
# 3 -0.002155 -0.001826 0.013765 0.000000 0.009598 0.000000
# 4 0.000000 0.000000 0.000000 0.054891 0.000000 0.000975
# 5 0.011344 0.003655 0.009598 0.000000 0.044290 0.000000
# 6 0.000000 0.000000 0.000000 0.000975 0.000000 0.036794
#
#
# Mechanical properties :
#
#
# Convention : Reuss Voigt Hill
#
# Bulk Modulus (GPa) = 25.18605 41.36185 33.27395
# Shear Modulus (GPa) = 24.63419 29.40162 27.01791
#
# Velocity S-wave (km/s) = 3.37792 3.69033 3.53758
# Velocity P-wave (km/s) = 5.18457 6.10873 5.66552
#
# Compressibility (1/GPa) = 0.03970452
#
# Stress axis : x y z
#
# Youngs Moduli (GPa) = 47.68951 83.34866 72.64606
#
# Poissons Ratio (x) = -0.03898 0.15655
# Poissons Ratio (y) = -0.02230 0.13268
# Poissons Ratio (z) = 0.10277 0.15223
#
# Static dielectric constant tensor:
#      x y z
#    x 1.842780 0.000000 0.000940 
#    y 0.000000 1.836950 0.000000 
#    z 0.000940 0.000000 1.839480 
# 
# From -- ./inp_files/103843.got.cif
#   From: 2010.05.17/outbox.cif.g08.bks.cpg/sg15_52_cif.got.tgz:103843.got - 2010.06.03 18:47:42.
