data_PCOD9285520
_publ_section_title
;
Structure prediction by ZEFSAII (Michael W. Deem and Ramdas Pophale) SiO2 
 PCOD9285520
Probable space group: C 2/C
;
_chemical_formula_sum "Si O2"
_cell_formula_units_Z 52
_cell_length_a 8.123275
_cell_length_b 20.738362
_cell_length_c 15.850507
_cell_angle_alpha 90.000000
_cell_angle_beta 50.956827
_cell_angle_gamma 90.000000
_cell_volume 2073.892099
_symmetry_space_group_name_H-M "C 2/C"
_symmetry_group_IT_number 15
_symmetry_cell_setting 'monoclinic'
loop_
_space_group_symop_operation_xyz
x,y,z
-x,y,1/2-z
-x,-y,-z
x,-y,1/2+z
1/2+x,1/2+y,z
1/2-x,1/2+y,1/2-z
1/2-x,1/2-y,-z
1/2+x,1/2-y,1/2+z
loop_
_atom_site_type_symbol
_atom_site_label
_atom_site_fract_x
_atom_site_fract_y
_atom_site_fract_z
Si Si1 0.000000 0.685220 0.750000
Si Si2 0.066293 0.661263 0.323312
Si Si3 0.475854 0.635507 0.111717
Si Si4 0.233350 0.540459 0.079646
Si Si5 0.866579 0.906791 0.374248
Si Si6 0.569484 0.906108 0.073711
Si Si7 0.519978 0.715035 0.926143
O O1 0.981630 0.642721 0.671715
O O2 0.224768 0.718116 0.663393
O O3 0.321087 0.658102 0.235749
O O4 0.963030 0.711968 0.421113
O O5 0.000000 0.683253 0.250000
O O6 0.959623 0.591518 0.367883
O O7 0.360470 0.570058 0.116899
O O8 0.724102 0.621442 0.041332
O O9 0.465939 0.686071 0.035626
O O10 0.143840 0.469221 0.101266
O O11 0.391670 0.551074 0.949911
O O12 0.623600 0.916987 0.426252
O O13 0.000000 0.925995 0.250000
O O14 0.938678 0.835901 0.382286
#
# Coordination Sequence:
#
# PCOD9285520 Si02
#       7
#     4   8   8   8   8   8   8
#     4  10  22  38  64  90 116 168 208 264 306 372
#     4  10  22  40  67  92 127 169 212 262 319 373
#     4   9  22  41  64  96 125 172 208 266 317 367
#     4  10  23  40  63  95 127 168 211 259 316 383
#     4  11  22  39  64  92 125 170 205 263 320 371
#     4  11  22  40  64  95 130 161 220 258 317 383
#     4  10  21  42  63  91 122 161 221 252 317 383
#
# _framework density 25.073629
#
# number of rings (size 3 to 8) (size 9 to 14) (size 15 to 20)
#    0.000    1.846    1.538    1.385    3.231    8.000 
#    2.769    1.538    0.000    0.000    0.000    0.000 
#    0.000    0.000    0.000    0.000    0.000    0.000 
#
# Total GULP energy -145452.245877 kJ/mol
# GULP energy per Si atom -5594.317149 kJ/mol
# Density = 2.501656 g / cm^3
# Si number density = 25.073629 Si / 1000 Ang^3
#
#
#
# Elastic Constant Matrix: (Units=GPa)
#
#
# Indices 1 2 3 4 5 6 
#
# 1 63.7208 7.7232 1.2915 0.0000 -25.1110 0.0000
# 2 7.7232 68.2203 28.4787 0.0000 -7.1033 0.0000
# 3 1.2915 28.4787 123.7819 0.0000 -26.0103 0.0000
# 4 0.0000 0.0000 0.0000 3.5787 0.0000 -18.3435
# 5 -25.1110 -7.1033 -26.0103 0.0000 40.1086 0.0000
# 6 0.0000 0.0000 0.0000 -18.3435 0.0000 13.0003
#
#
#
# Elastic Compliance Matrix: (Units=1/GPa)
#
#
# Indices 1 2 3 4 5 6 
#
# 1 0.022131 -0.002378 0.003635 0.000000 0.015792 0.000000
# 2 -0.002378 0.016481 -0.004013 0.000000 -0.001173 0.000000
# 3 0.003635 -0.004013 0.010759 0.000000 0.008542 0.000000
# 4 0.000000 0.000000 0.000000 -0.044835 0.000000 -0.063262
# 5 0.015792 -0.001173 0.008542 0.000000 0.040151 0.000000
# 6 0.000000 0.000000 0.000000 -0.063262 0.000000 -0.012342
#
#
# Mechanical properties :
#
#
# Convention : Reuss Voigt Hill
#
# Bulk Modulus (GPa) = 22.80160 36.74555 29.77357
# Shear Modulus (GPa) = 95.27669 25.88616 60.58142
#
# Velocity S-wave (km/s) = 6.17100 3.21659 4.92076
# Velocity P-wave (km/s) = 7.73877 5.33687 6.64721
#
# Compressibility (1/GPa) = 0.04385658
#
# Stress axis : x y z
#
# Youngs Moduli (GPa) = 45.18502 60.67610 92.94455
#
# Poissons Ratio (x) = 0.14432 -0.33781
# Poissons Ratio (y) = 0.10747 0.37303
# Poissons Ratio (z) = -0.16423 0.24352
#
# Static dielectric constant tensor:
#      x y z
#    x 2.065730 0.000000 -0.010520 
#    y 0.000000 2.021500 0.000000 
#    z -0.010520 0.000000 1.981900 
# 
# From -- ./inp_files/192461.got.cif
#   From: 2010.05.17/outbox.cif.g08.bks.cpg/sg15_97_cif.got.tgz:192461.got - 2010.06.03 18:47:42.
