data_PCOD9285235
_publ_section_title
;
Structure prediction by ZEFSAII (Michael W. Deem and Ramdas Pophale) SiO2 
 PCOD9285235
Probable space group: C 2/C
;
_chemical_formula_sum "Si O2"
_cell_formula_units_Z 44
_cell_length_a 27.311926
_cell_length_b 5.081242
_cell_length_c 13.180416
_cell_angle_alpha 90.000000
_cell_angle_beta 61.107532
_cell_angle_gamma 90.000000
_cell_volume 1601.479519
_symmetry_space_group_name_H-M "C 2/C"
_symmetry_group_IT_number 15
_symmetry_cell_setting 'monoclinic'
loop_
_space_group_symop_operation_xyz
x,y,z
-x,y,1/2-z
-x,-y,-z
x,-y,1/2+z
1/2+x,1/2+y,z
1/2-x,1/2+y,1/2-z
1/2-x,1/2-y,-z
1/2+x,1/2-y,1/2+z
loop_
_atom_site_type_symbol
_atom_site_label
_atom_site_fract_x
_atom_site_fract_y
_atom_site_fract_z
Si Si1 0.603059 0.112822 0.750807
Si Si2 0.313504 0.320874 0.407643
Si Si3 0.444630 0.903852 0.998485
Si Si4 0.000000 0.688979 0.250000
Si Si5 0.747109 0.141948 0.323304
Si Si6 0.868962 0.847927 0.978807
O O1 0.651349 0.894760 0.689484
O O2 0.592406 0.219799 0.874216
O O3 0.546989 0.971306 0.763728
O O4 0.610099 0.330283 0.658319
O O5 0.250000 0.250000 0.500000
O O6 0.297454 0.560271 0.346861
O O7 0.344827 0.357793 0.486045
O O8 0.412825 0.171530 0.995998
O O9 0.500000 0.000000 0.000000
O O10 0.463798 0.714705 0.885387
O O11 0.760264 0.400261 0.245632
O O12 0.690324 0.204525 0.440644
#
# Coordination Sequence:
#
# PCOD9285235 Si02
#       6
#     8   8   8   4   8   8
#     4  10  21  41  68  97 141 187 248 306 387 456
#     4  12  25  43  67 105 152 201 253 318 389 474
#     4   9  19  40  71 101 133 188 246 311 387 460
#     4   8  18  40  68 100 138 184 242 314 378 454
#     4  12  27  44  71 106 149 200 257 309 384 468
#     4  11  24  41  69  98 146 190 250 314 385 455
#
# _framework density 27.474592999999999
#
# number of rings (size 3 to 8) (size 9 to 14) (size 15 to 20)
#    0.000    1.455    1.818    2.727    5.091    0.000 
#    0.000    5.455    0.000   14.182    0.000    0.000 
#    0.000    0.000    0.000    0.000    0.000    0.000 
#
# Total GULP energy -122761.882296 kJ/mol
# GULP energy per Si atom -5580.085559 kJ/mol
# Density = 2.741206 g / cm^3
# Si number density = 27.474593 Si / 1000 Ang^3
#
#
#
# Elastic Constant Matrix: (Units=GPa)
#
#
# Indices 1 2 3 4 5 6 
#
# 1 165.0399 3.2480 -0.0647 0.0000 0.3551 0.0000
# 2 3.2480 88.8776 17.8362 0.0000 7.9035 0.0000
# 3 -0.0647 17.8362 208.8258 0.0000 8.2605 0.0000
# 4 0.0000 0.0000 0.0000 26.8571 0.0000 22.1178
# 5 0.3551 7.9035 8.2605 0.0000 44.5756 0.0000
# 6 0.0000 0.0000 0.0000 22.1178 0.0000 25.1106
#
#
#
# Elastic Compliance Matrix: (Units=1/GPa)
#
#
# Indices 1 2 3 4 5 6 
#
# 1 0.006064 -0.000225 0.000022 0.000000 -0.000012 0.000000
# 2 -0.000225 0.011612 -0.000917 0.000000 -0.001887 0.000000
# 3 0.000022 -0.000917 0.004896 0.000000 -0.000745 0.000000
# 4 0.000000 0.000000 0.000000 0.135587 0.000000 -0.119427
# 5 -0.000012 -0.001887 -0.000745 0.000000 0.022907 0.000000
# 6 0.000000 0.000000 0.000000 -0.119427 0.000000 0.145018
#
#
# Mechanical properties :
#
#
# Convention : Reuss Voigt Hill
#
# Bulk Modulus (GPa) = 49.18659 56.08692 52.63675
# Shear Modulus (GPa) = 14.92089 48.75690 31.83890
#
# Velocity S-wave (km/s) = 2.33293 4.21719 3.40788
# Velocity P-wave (km/s) = 5.01978 6.64615 5.88938
#
# Compressibility (1/GPa) = 0.02033075
#
# Stress axis : x y z
#
# Youngs Moduli (GPa) = 164.91850 86.12144 204.22773
#
# Poissons Ratio (x) = 0.01936 -0.00441
# Poissons Ratio (y) = 0.03708 0.18731
# Poissons Ratio (z) = -0.00356 0.07899
#
# Static dielectric constant tensor:
#      x y z
#    x 2.372320 0.000000 0.028660 
#    y 0.000000 2.533880 0.000000 
#    z 0.028660 0.000000 2.209690 
# 
# From -- ./inp_files/179617.got.cif
#   From: 2010.05.17/outbox.cif.g08.bks.cpg/sg15_90_cif.got.tgz:179617.got - 2010.06.03 18:47:42.
