data_PCOD9285157
_publ_section_title
;
Structure prediction by ZEFSAII (Michael W. Deem and Ramdas Pophale) SiO2 
 PCOD9285157
Probable space group: C 2/C
;
_chemical_formula_sum "Si O2"
_cell_formula_units_Z 40
_cell_length_a 25.160112
_cell_length_b 9.836772
_cell_length_c 15.826041
_cell_angle_alpha 90.000000
_cell_angle_beta 27.109642
_cell_angle_gamma 90.000000
_cell_volume 1784.889969
_symmetry_space_group_name_H-M "C 2/C"
_symmetry_group_IT_number 15
_symmetry_cell_setting 'monoclinic'
loop_
_space_group_symop_operation_xyz
x,y,z
-x,y,1/2-z
-x,-y,-z
x,-y,1/2+z
1/2+x,1/2+y,z
1/2-x,1/2+y,1/2-z
1/2-x,1/2-y,-z
1/2+x,1/2-y,1/2+z
loop_
_atom_site_type_symbol
_atom_site_label
_atom_site_fract_x
_atom_site_fract_y
_atom_site_fract_z
Si Si1 0.695316 0.899282 0.569124
Si Si2 0.000000 0.452512 0.250000
Si Si3 0.592986 0.434585 0.801655
Si Si4 0.779961 0.285290 0.630916
Si Si5 0.231161 0.031258 0.358290
Si Si6 0.500000 0.512398 0.250000
O O1 0.750000 0.750000 0.500000
O O2 0.570332 0.941685 0.709870
O O3 0.795515 0.968312 0.369762
O O4 0.691254 0.960263 0.669000
O O5 0.896119 0.349575 0.425181
O O6 0.660501 0.306144 0.745906
O O7 0.544745 0.415110 0.773786
O O8 0.500000 0.500000 0.000000
O O9 0.788008 0.125849 0.638408
O O10 0.768727 0.373779 0.730636
O O11 0.105005 0.079034 0.569133
#
# Coordination Sequence:
#
# PCOD9285157 Si02
#       6
#     8   4   8   8   8   4
#     4  10  25  44  71 105 143 189 244 297 372 434
#     4  10  25  47  68 100 149 185 230 320 359 429
#     4  10  21  41  67  99 134 182 236 297 348 434
#     4  11  25  44  68 103 143 188 240 298 371 426
#     4  11  25  42  71 103 138 191 245 294 363 441
#     4  10  21  41  68 102 129 183 236 300 349 435
#
# _framework density 22.410345
#
# number of rings (size 3 to 8) (size 9 to 14) (size 15 to 20)
#    0.000    1.600    2.000    0.600    5.600   14.400 
#    0.000    0.000    0.000    0.000    0.000    0.000 
#    0.000    0.000    0.000    0.000    0.000    0.000 
#
# Total GULP energy -111460.231773 kJ/mol
# GULP energy per Si atom -5573.011589 kJ/mol
# Density = 2.235934 g / cm^3
# Si number density = 22.410345 Si / 1000 Ang^3
#
#
#
# Elastic Constant Matrix: (Units=GPa)
#
#
# Indices 1 2 3 4 5 6 
#
# 1 135.7171 22.4951 89.7962 0.0000 -15.9657 0.0000
# 2 22.4951 120.9052 30.9083 0.0000 2.6521 0.0000
# 3 89.7962 30.9083 98.2392 0.0000 8.7248 0.0000
# 4 0.0000 0.0000 0.0000 16.3156 0.0000 6.0462
# 5 -15.9657 2.6521 8.7248 0.0000 40.1331 0.0000
# 6 0.0000 0.0000 0.0000 6.0462 0.0000 25.3280
#
#
#
# Elastic Compliance Matrix: (Units=1/GPa)
#
#
# Indices 1 2 3 4 5 6 
#
# 1 0.025792 0.001349 -0.025393 0.000000 0.015692 0.000000
# 2 0.001349 0.009065 -0.004159 0.000000 0.000842 0.000000
# 3 -0.025393 -0.004159 0.036272 0.000000 -0.017712 0.000000
# 4 0.000000 0.000000 0.000000 0.067239 0.000000 -0.016051
# 5 0.015692 0.000842 -0.017712 0.000000 0.034955 0.000000
# 6 0.000000 0.000000 0.000000 -0.016051 0.000000 0.043314
#
#
# Mechanical properties :
#
#
# Convention : Reuss Voigt Hill
#
# Bulk Modulus (GPa) = 67.93264 71.25120 69.59192
# Shear Modulus (GPa) = 17.98878 30.46612 24.22745
#
# Velocity S-wave (km/s) = 2.83627 3.69109 3.29155
# Velocity P-wave (km/s) = 6.41130 7.07308 6.75031
#
# Compressibility (1/GPa) = 0.01472046
#
# Stress axis : x y z
#
# Youngs Moduli (GPa) = 38.77192 110.31561 27.56972
#
# Poissons Ratio (x) = -0.14877 0.70008
# Poissons Ratio (y) = -0.05229 0.11468
# Poissons Ratio (z) = 0.98454 0.45885
#
# Static dielectric constant tensor:
#      x y z
#    x 1.961920 0.000000 -0.021160 
#    y 0.000000 2.130930 0.000000 
#    z -0.021160 0.000000 1.824010 
# 
# From -- ./inp_files/173105.got.cif
#   From: 2010.05.17/outbox.cif.g08.bks.cpg/sg15_87_cif.got.tgz:173105.got - 2010.06.03 18:47:42.
