data_PCOD9285935
_publ_section_title
;
Structure prediction by ZEFSAII (Michael W. Deem and Ramdas Pophale) SiO2 
 PCOD9285935
Probable space group: C 2/C
;
_chemical_formula_sum "Si O2"
_cell_formula_units_Z 48
_cell_length_a 14.719672
_cell_length_b 13.700492
_cell_length_c 12.390876
_cell_angle_alpha 90.000000
_cell_angle_beta 137.089319
_cell_angle_gamma 90.000000
_cell_volume 1701.345355
_symmetry_space_group_name_H-M "C 2/C"
_symmetry_group_IT_number 15
_symmetry_cell_setting 'monoclinic'
loop_
_space_group_symop_operation_xyz
x,y,z
-x,y,1/2-z
-x,-y,-z
x,-y,1/2+z
1/2+x,1/2+y,z
1/2-x,1/2+y,1/2-z
1/2-x,1/2-y,-z
1/2+x,1/2-y,1/2+z
loop_
_atom_site_type_symbol
_atom_site_label
_atom_site_fract_x
_atom_site_fract_y
_atom_site_fract_z
Si Si1 0.500000 0.411718 0.750000
Si Si2 0.709290 0.573108 0.883736
Si Si3 0.721567 0.643402 0.130672
Si Si4 0.528111 0.746361 0.652882
Si Si5 0.000000 0.595869 0.750000
Si Si6 0.288037 0.939281 0.234342
Si Si7 0.859782 0.762542 0.502212
O O1 0.632017 0.475308 0.849052
O O2 0.477241 0.339760 0.631406
O O3 0.595334 0.640572 0.730577
O O4 0.823122 0.561643 0.892576
O O5 0.743836 0.630399 0.021786
O O6 0.859363 0.684181 0.301328
O O7 0.691692 0.535096 0.147043
O O8 0.602488 0.721897 0.029359
O O9 0.500000 0.781332 0.750000
O O10 0.891406 0.538816 0.727023
O O11 0.935492 0.660675 0.596567
O O12 0.226147 0.834330 0.151335
O O13 0.750000 0.750000 0.500000
#
# Coordination Sequence:
#
# PCOD9285935 Si02
#       7
#     4   8   8   8   4   8   8
#     4  11  18  38  67  88 134 168 225 288 334 417
#     4  11  21  41  67 103 128 181 239 281 358 422
#     4  11  23  45  70 100 150 182 236 296 352 422
#     4  10  21  42  68  97 139 188 223 295 351 411
#     4   9  22  44  63  98 134 176 225 308 354 403
#     4  11  23  43  71  97 135 188 237 289 359 429
#     4   9  19  40  65  88 131 174 221 287 349 408
#
# _framework density 28.212968
#
# number of rings (size 3 to 8) (size 9 to 14) (size 15 to 20)
#    0.000    1.667    4.167    2.000    1.167    2.667 
#   18.000    0.833    0.000    0.000    0.000    0.000 
#    0.000    0.000    0.000    0.000    0.000    0.000 
#
# Total GULP energy -133949.170231 kJ/mol
# GULP energy per Si atom -5581.215426 kJ/mol
# Density = 2.814875 g / cm^3
# Si number density = 28.212968 Si / 1000 Ang^3
#
#
#
# Elastic Constant Matrix: (Units=GPa)
#
#
# Indices 1 2 3 4 5 6 
#
# 1 98.9717 21.7489 29.4107 0.0000 -14.8590 0.0000
# 2 21.7489 114.8964 29.2044 0.0000 14.1334 0.0000
# 3 29.4107 29.2044 96.0899 0.0000 17.3755 0.0000
# 4 0.0000 0.0000 0.0000 39.9858 0.0000 25.5091
# 5 -14.8590 14.1334 17.3755 0.0000 39.5326 0.0000
# 6 0.0000 0.0000 0.0000 25.5091 0.0000 28.0039
#
#
#
# Elastic Compliance Matrix: (Units=1/GPa)
#
#
# Indices 1 2 3 4 5 6 
#
# 1 0.013200 -0.002252 -0.004778 0.000000 0.007866 0.000000
# 2 -0.002252 0.010012 -0.001688 0.000000 -0.003684 0.000000
# 3 -0.004778 -0.001688 0.013686 0.000000 -0.007208 0.000000
# 4 0.000000 0.000000 0.000000 0.059704 0.000000 -0.054385
# 5 0.007866 -0.003684 -0.007208 0.000000 0.032737 0.000000
# 6 0.000000 0.000000 0.000000 -0.054385 0.000000 0.085249
#
#
# Mechanical properties :
#
#
# Convention : Reuss Voigt Hill
#
# Bulk Modulus (GPa) = 51.38144 52.29847 51.83996
# Shear Modulus (GPa) = 20.96347 36.81072 28.88709
#
# Velocity S-wave (km/s) = 2.72884 3.61604 3.20331
# Velocity P-wave (km/s) = 5.30851 6.00097 5.66533
#
# Compressibility (1/GPa) = 0.01946228
#
# Stress axis : x y z
#
# Youngs Moduli (GPa) = 75.75974 99.88189 73.06931
#
# Poissons Ratio (x) = 0.22491 0.34914
# Poissons Ratio (y) = 0.17059 0.12331
# Poissons Ratio (z) = 0.36199 0.16855
#
# Static dielectric constant tensor:
#      x y z
#    x 2.603470 0.000000 -0.232300 
#    y 0.000000 2.118070 0.000000 
#    z -0.232300 0.000000 2.539090 
# 
# From -- ./inp_files/154139.got.cif
#   From: 2010.05.17/outbox.cif.g08.bks.cpg/sg15_78_cif.got.tgz:154139.got - 2010.06.03 18:47:42.
