data_PCOD9285607
_publ_section_title
;
Structure prediction by ZEFSAII (Michael W. Deem and Ramdas Pophale) SiO2 
 PCOD9285607
Probable space group: C 2/C
;
_chemical_formula_sum "Si O2"
_cell_formula_units_Z 64
_cell_length_a 9.010592
_cell_length_b 19.746518
_cell_length_c 23.167891
_cell_angle_alpha 90.000000
_cell_angle_beta 49.743810
_cell_angle_gamma 90.000000
_cell_volume 3145.918486
_symmetry_space_group_name_H-M "C 2/C"
_symmetry_group_IT_number 15
_symmetry_cell_setting 'monoclinic'
loop_
_space_group_symop_operation_xyz
x,y,z
-x,y,1/2-z
-x,-y,-z
x,-y,1/2+z
1/2+x,1/2+y,z
1/2-x,1/2+y,1/2-z
1/2-x,1/2-y,-z
1/2+x,1/2-y,1/2+z
loop_
_atom_site_type_symbol
_atom_site_label
_atom_site_fract_x
_atom_site_fract_y
_atom_site_fract_z
Si Si1 0.987357 0.355753 0.898811
Si Si2 0.902088 0.896878 0.446169
Si Si3 0.304391 0.842640 0.832185
Si Si4 0.710134 0.510188 0.361741
Si Si5 0.189030 0.106427 0.665748
Si Si6 0.634814 0.987481 0.806404
Si Si7 0.469272 0.769311 0.111725
Si Si8 0.613724 0.733867 0.946709
O O1 0.885512 0.314430 0.872198
O O2 0.127286 0.411372 0.834242
O O3 0.075673 0.302676 0.920897
O O4 0.812497 0.397212 0.972668
O O5 0.871025 0.895086 0.385523
O O6 0.008347 0.829174 0.442611
O O7 0.037797 0.961543 0.424562
O O8 0.500000 0.865031 0.750000
O O9 0.179287 0.909348 0.877498
O O10 0.181343 0.787837 0.829241
O O11 0.748601 0.503920 0.283051
O O12 0.911747 0.494721 0.344706
O O13 0.355556 0.161456 0.633341
O O14 0.000000 0.125590 0.750000
O O15 0.271874 0.036139 0.669680
O O16 0.656574 0.777383 0.104341
O O17 0.534811 0.743800 0.031670
#
# Coordination Sequence:
#
# PCOD9285607 Si02
#       8
#     8   8   8   8   8   8   8   8
#     4  11  22  43  68  95 127 170 214 261 320 382
#     4  12  23  41  69  95 126 172 216 259 322 381
#     4  11  21  42  70  96 127 171 212 260 320 385
#     4  10  21  42  64  95 130 166 208 261 319 377
#     4  12  24  42  66  95 129 172 213 262 319 381
#     4  10  22  42  63  94 133 164 206 265 318 376
#     4  11  24  43  65  96 130 166 217 265 325 375
#     4  11  24  44  64  95 134 164 210 278 315 376
#
# _framework density 20.343820999999998
#
# number of rings (size 3 to 8) (size 9 to 14) (size 15 to 20)
#    0.000    1.000    6.250    2.250    0.000    3.500 
#    4.500    1.875    0.000    0.000    0.000    0.000 
#    0.000    0.000    0.000    0.000    0.000    0.000 
#
# Total GULP energy -178797.845903 kJ/mol
# GULP energy per Si atom -5587.432684 kJ/mol
# Density = 2.029752 g / cm^3
# Si number density = 20.343821 Si / 1000 Ang^3
#
#
#
# Elastic Constant Matrix: (Units=GPa)
#
#
# Indices 1 2 3 4 5 6 
#
# 1 98.3190 46.3086 22.1888 0.0001 6.7429 -0.0002
# 2 46.3086 90.8280 9.0482 0.0000 -4.9158 -0.0001
# 3 22.1888 9.0482 47.9462 0.0001 9.8987 -0.0001
# 4 0.0001 0.0000 0.0001 28.0250 -0.0001 -3.6556
# 5 6.7429 -4.9158 9.8987 -0.0001 29.9284 0.0001
# 6 -0.0002 -0.0001 -0.0001 -3.6556 0.0001 44.0169
#
#
#
# Elastic Compliance Matrix: (Units=1/GPa)
#
#
# Indices 1 2 3 4 5 6 
#
# 1 0.014905 -0.007267 -0.004923 0.000000 -0.002924 0.000000
# 2 -0.007267 0.014976 -0.000331 0.000000 0.004207 0.000000
# 3 -0.004923 -0.000331 0.024664 0.000000 -0.007103 0.000000
# 4 0.000000 0.000000 0.000000 0.036073 0.000000 0.002996
# 5 -0.002924 0.004207 -0.007103 0.000000 0.037112 0.000000
# 6 0.000000 0.000000 0.000000 0.002996 0.000000 0.022967
#
#
# Mechanical properties :
#
#
# Convention : Reuss Voigt Hill
#
# Bulk Modulus (GPa) = 33.89643 43.57607 38.73625
# Shear Modulus (GPa) = 26.94327 31.03056 28.98692
#
# Velocity S-wave (km/s) = 3.64317 3.90975 3.77882
# Velocity P-wave (km/s) = 5.86472 6.46899 6.17425
#
# Compressibility (1/GPa) = 0.02950163
#
# Stress axis : x y z
#
# Youngs Moduli (GPa) = 67.08954 66.77455 40.54499
#
# Poissons Ratio (x) = 0.48527 0.19960
# Poissons Ratio (y) = 0.48756 0.01344
# Poissons Ratio (z) = 0.33028 0.02213
#
# Static dielectric constant tensor:
#      x y z
#    x 1.711770 0.000000 0.005260 
#    y 0.000000 1.698910 0.000000 
#    z 0.005260 0.000000 1.762970 
# 
# From -- ./inp_files/266098.got.cif
#   From: 2010.05.17/outbox.cif.g08.bks.cpg/sg15_134_cif.got.tgz:266098.got - 2010.06.03 18:47:42.
