data_PCOD9285393
_publ_section_title
;
Structure prediction by ZEFSAII (Michael W. Deem and Ramdas Pophale) SiO2 
 PCOD9285393
Probable space group: C 2/C
;
_chemical_formula_sum "Si O2"
_cell_formula_units_Z 56
_cell_length_a 30.473433
_cell_length_b 11.974513
_cell_length_c 14.609751
_cell_angle_alpha 90.000000
_cell_angle_beta 25.982543
_cell_angle_gamma 90.000000
_cell_volume 2335.568522
_symmetry_space_group_name_H-M "C 2/C"
_symmetry_group_IT_number 15
_symmetry_cell_setting 'monoclinic'
loop_
_space_group_symop_operation_xyz
x,y,z
-x,y,1/2-z
-x,-y,-z
x,-y,1/2+z
1/2+x,1/2+y,z
1/2-x,1/2+y,1/2-z
1/2-x,1/2-y,-z
1/2+x,1/2-y,1/2+z
loop_
_atom_site_type_symbol
_atom_site_label
_atom_site_fract_x
_atom_site_fract_y
_atom_site_fract_z
Si Si1 0.677829 0.714792 0.255812
Si Si2 0.529742 0.345438 0.595451
Si Si3 0.344538 0.496688 0.387282
Si Si4 0.079529 0.438478 0.682770
Si Si5 0.044333 0.777898 0.374035
Si Si6 0.285123 0.493699 0.701090
Si Si7 0.334877 0.888691 0.355881
O O1 0.565932 0.671252 0.439928
O O2 0.698057 0.636891 0.304714
O O3 0.648339 0.840279 0.276437
O O4 0.792511 0.712083 0.998174
O O5 0.500000 0.294854 0.750000
O O6 0.439914 0.426238 0.730384
O O7 0.548419 0.261101 0.476306
O O8 0.623850 0.426845 0.437248
O O9 0.379159 0.375641 0.292854
O O10 0.283618 0.493941 0.595249
O O11 0.269702 0.543740 0.451263
O O12 0.068724 0.326358 0.763045
O O13 0.185866 0.456111 0.432693
O O14 0.080765 0.539964 0.754093
O O15 0.000000 0.441330 0.750000
#
# Coordination Sequence:
#
# PCOD9285393 Si02
#       7
#     8   8   8   8   8   8   8
#     4  10  21  41  73 100 136 191 239 284 358 447
#     4  10  21  41  72 113 146 181 242 317 363 422
#     4  11  22  39  74 110 140 187 238 311 361 427
#     4  11  28  47  69 102 152 196 243 297 363 439
#     4  12  23  40  75 106 141 193 248 298 361 430
#     4  10  23  43  69 109 148 186 242 298 365 429
#     4  10  23  45  70  98 141 195 234 291 370 428
#
# _framework density 23.977031
#
# number of rings (size 3 to 8) (size 9 to 14) (size 15 to 20)
#    0.000    1.429    2.857    2.143    4.000    2.857 
#    0.000    2.143    0.000    0.000    0.000    0.000 
#    0.000    0.000    0.000    0.000    0.000    0.000 
#
# Total GULP energy -156044.754686 kJ/mol
# GULP energy per Si atom -5573.026953 kJ/mol
# Density = 2.392246 g / cm^3
# Si number density = 23.977031 Si / 1000 Ang^3
#
#
#
# Elastic Constant Matrix: (Units=GPa)
#
#
# Indices 1 2 3 4 5 6 
#
# 1 104.1091 32.8663 56.8520 0.0000 7.6745 0.0000
# 2 32.8663 69.0740 46.1797 0.0000 3.6950 0.0000
# 3 56.8520 46.1797 99.4747 0.0000 20.1387 0.0000
# 4 0.0000 0.0000 0.0000 19.5343 0.0000 -2.3779
# 5 7.6745 3.6950 20.1387 0.0000 27.5119 0.0000
# 6 0.0000 0.0000 0.0000 -2.3779 0.0000 10.3567
#
#
#
# Elastic Compliance Matrix: (Units=1/GPa)
#
#
# Indices 1 2 3 4 5 6 
#
# 1 0.014220 -0.001705 -0.007723 0.000000 0.001916 0.000000
# 2 -0.001705 0.021816 -0.010162 0.000000 0.004984 0.000000
# 3 -0.007723 -0.010162 0.021686 0.000000 -0.012355 0.000000
# 4 0.000000 0.000000 0.000000 0.052664 0.000000 0.012092
# 5 0.001916 0.004984 -0.012355 0.000000 0.044188 0.000000
# 6 0.000000 0.000000 0.000000 0.012092 0.000000 0.099332
#
#
# Mechanical properties :
#
#
# Convention : Reuss Voigt Hill
#
# Bulk Modulus (GPa) = 53.93682 60.49487 57.21584
# Shear Modulus (GPa) = 16.70749 20.59790 18.65269
#
# Velocity S-wave (km/s) = 2.64258 2.93417 2.79218
# Velocity P-wave (km/s) = 5.64403 6.06335 5.85744
#
# Compressibility (1/GPa) = 0.01854021
#
# Stress axis : x y z
#
# Youngs Moduli (GPa) = 70.32408 45.83797 46.11316
#
# Poissons Ratio (x) = 0.07816 0.35614
# Poissons Ratio (y) = 0.11991 0.46862
# Poissons Ratio (z) = 0.54313 0.46582
#
# Static dielectric constant tensor:
#      x y z
#    x 1.958470 0.000000 0.076650 
#    y 0.000000 2.143290 0.000000 
#    z 0.076650 0.000000 2.042160 
# 
# From -- ./inp_files/181913.got.cif
#   From: 2010.05.17/outbox.cif.g08.bks.cpg/sg15_91_cif.got.tgz:181913.got - 2010.06.03 18:47:42.
