data_PCOD9285206
_publ_section_title
;
Structure prediction by ZEFSAII (Michael W. Deem and Ramdas Pophale) SiO2 
 PCOD9285206
Probable space group: C 2/C
;
_chemical_formula_sum "Si O2"
_cell_formula_units_Z 48
_cell_length_a 8.655705
_cell_length_b 28.262256
_cell_length_c 14.203413
_cell_angle_alpha 90.000000
_cell_angle_beta 137.252493
_cell_angle_gamma 90.000000
_cell_volume 2358.434697
_symmetry_space_group_name_H-M "C 2/C"
_symmetry_group_IT_number 15
_symmetry_cell_setting 'monoclinic'
loop_
_space_group_symop_operation_xyz
x,y,z
-x,y,1/2-z
-x,-y,-z
x,-y,1/2+z
1/2+x,1/2+y,z
1/2-x,1/2+y,1/2-z
1/2-x,1/2-y,-z
1/2+x,1/2-y,1/2+z
loop_
_atom_site_type_symbol
_atom_site_label
_atom_site_fract_x
_atom_site_fract_y
_atom_site_fract_z
Si Si1 0.730733 0.389276 0.619009
Si Si2 0.584351 0.449902 0.895206
Si Si3 0.998501 0.057776 0.860127
Si Si4 0.733036 0.812660 0.107051
Si Si5 0.739022 0.709660 0.103838
Si Si6 0.966882 0.392218 0.341329
O O1 0.613767 0.427433 0.631650
O O2 0.657494 0.404460 0.482063
O O3 0.637191 0.337419 0.604096
O O4 0.000000 0.388933 0.750000
O O5 0.500000 0.446210 0.750000
O O6 0.591405 0.505514 0.923027
O O7 0.815131 0.421381 0.022461
O O8 0.738859 0.070322 0.769308
O O9 0.000000 0.063407 0.750000
O O10 0.634601 0.759841 0.085968
O O11 0.607050 0.853127 0.112607
O O12 0.000000 0.817669 0.250000
O O13 0.740980 0.805656 0.996905
O O14 0.000000 0.714740 0.250000
O O15 0.000000 0.371210 0.250000
#
# Coordination Sequence:
#
# PCOD9285206 Si02
#       6
#     8   8   8   8   8   8
#     4  11  23  40  67  93 128 170 216 267 326 390
#     4  11  28  42  61  96 133 170 215 273 334 383
#     4  11  25  43  66  92 125 179 222 262 319 396
#     4  10  21  41  68  94 126 167 223 263 311 395
#     4   9  20  38  67  95 121 167 221 258 313 386
#     4  12  25  42  67  96 136 168 217 274 330 379
#
# _framework density 20.352482999999999
#
# number of rings (size 3 to 8) (size 9 to 14) (size 15 to 20)
#    0.000    1.333    1.667    3.000    9.333    1.333 
#    0.000    1.667    0.000    0.000    0.000    0.000 
#    0.000    0.000    0.000    0.000    0.000    0.000 
#
# Total GULP energy -133714.311752 kJ/mol
# GULP energy per Si atom -5571.429656 kJ/mol
# Density = 2.030616 g / cm^3
# Si number density = 20.352483 Si / 1000 Ang^3
#
#
#
# Elastic Constant Matrix: (Units=GPa)
#
#
# Indices 1 2 3 4 5 6 
#
# 1 66.8202 39.6190 27.7044 0.0000 -0.7324 0.0000
# 2 39.6190 175.0368 43.6055 0.0000 10.1412 0.0000
# 3 27.7044 43.6055 117.1162 0.0000 7.8664 0.0000
# 4 0.0000 0.0000 0.0000 31.5401 0.0000 -22.9863
# 5 -0.7324 10.1412 7.8664 0.0000 25.6256 0.0000
# 6 0.0000 0.0000 0.0000 -22.9863 0.0000 78.0650
#
#
#
# Elastic Compliance Matrix: (Units=1/GPa)
#
#
# Indices 1 2 3 4 5 6 
#
# 1 0.018437 -0.003535 -0.003242 0.000000 0.002921 0.000000
# 2 -0.003535 0.007058 -0.001631 0.000000 -0.002394 0.000000
# 3 -0.003242 -0.001631 0.010083 0.000000 -0.002543 0.000000
# 4 0.000000 0.000000 0.000000 0.040368 0.000000 0.011886
# 5 0.002921 -0.002394 -0.002543 0.000000 0.040835 0.000000
# 6 0.000000 0.000000 0.000000 0.011886 0.000000 0.016310
#
#
# Mechanical properties :
#
#
# Convention : Reuss Voigt Hill
#
# Bulk Modulus (GPa) = 53.29315 64.53677 58.91496
# Shear Modulus (GPa) = 32.01811 43.58244 37.80027
#
# Velocity S-wave (km/s) = 3.97064 4.63253 4.31429
# Velocity P-wave (km/s) = 6.87482 7.77124 7.33673
#
# Compressibility (1/GPa) = 0.01876414
#
# Stress axis : x y z
#
# Youngs Moduli (GPa) = 54.23743 141.67908 99.17339
#
# Poissons Ratio (x) = 0.50083 0.32147
# Poissons Ratio (y) = 0.19173 0.16175
# Poissons Ratio (z) = 0.17581 0.23107
#
# Static dielectric constant tensor:
#      x y z
#    x 1.740830 0.000000 -0.088070 
#    y 0.000000 1.804210 0.000000 
#    z -0.088070 0.000000 1.880800 
# 
# From -- ./inp_files/139064.got.cif
#   From: 2010.05.17/outbox.cif.g08.bks.cpg/sg15_70_cif.got.tgz:139064.got - 2010.06.03 18:47:42.
