data_PCOD9285934
_publ_section_title
;
Structure prediction by ZEFSAII (Michael W. Deem and Ramdas Pophale) SiO2 
 PCOD9285934
Probable space group: C 2/C
;
_chemical_formula_sum "Si O2"
_cell_formula_units_Z 48
_cell_length_a 15.669222
_cell_length_b 10.840821
_cell_length_c 26.847138
_cell_angle_alpha 90.000000
_cell_angle_beta 152.373922
_cell_angle_gamma 90.000000
_cell_volume 2114.677187
_symmetry_space_group_name_H-M "C 2/C"
_symmetry_group_IT_number 15
_symmetry_cell_setting 'monoclinic'
loop_
_space_group_symop_operation_xyz
x,y,z
-x,y,1/2-z
-x,-y,-z
x,-y,1/2+z
1/2+x,1/2+y,z
1/2-x,1/2+y,1/2-z
1/2-x,1/2-y,-z
1/2+x,1/2-y,1/2+z
loop_
_atom_site_type_symbol
_atom_site_label
_atom_site_fract_x
_atom_site_fract_y
_atom_site_fract_z
Si Si1 0.209835 0.555501 0.343717
Si Si2 0.241554 0.315074 0.291356
Si Si3 0.140923 0.808846 0.489482
Si Si4 0.216265 0.103517 0.863528
Si Si5 0.713175 0.676909 0.366654
Si Si6 0.927714 0.264137 0.395435
O O1 0.211489 0.425326 0.315441
O O2 0.307555 0.573438 0.448378
O O3 0.308351 0.649850 0.355874
O O4 0.000000 0.584918 0.250000
O O5 0.435869 0.336053 0.365072
O O6 0.277217 0.194904 0.343220
O O7 0.088521 0.285764 0.171691
O O8 0.250000 0.750000 0.500000
O O9 0.175649 0.699460 0.546720
O O10 0.325263 0.118780 0.868112
O O11 0.000000 0.136995 0.750000
O O12 0.220570 0.965120 0.885562
O O13 0.500000 0.716047 0.250000
O O14 0.861685 0.745962 0.477527
#
# Coordination Sequence:
#
# PCOD9285934 Si02
#       6
#     8   8   8   8   8   8
#     4  11  24  45  69 102 149 181 235 298 347 428
#     4  12  25  42  69 101 141 186 225 292 361 415
#     4  11  22  41  72 103 135 182 238 282 356 416
#     4  10  21  42  68  97 134 173 227 293 337 420
#     4  11  25  44  66  96 139 182 231 292 352 422
#     4  11  24  42  71  98 137 179 239 286 353 420
#
# _framework density 22.698499999999999
#
# number of rings (size 3 to 8) (size 9 to 14) (size 15 to 20)
#    0.000    1.000    3.333    5.500    2.333    2.000 
#    0.000    0.000    0.000    0.000    0.000    0.000 
#    0.000    0.000    0.000    0.000    0.000    0.000 
#
# Total GULP energy -133737.712965 kJ/mol
# GULP energy per Si atom -5572.404707 kJ/mol
# Density = 2.264684 g / cm^3
# Si number density = 22.698500 Si / 1000 Ang^3
#
#
#
# Elastic Constant Matrix: (Units=GPa)
#
#
# Indices 1 2 3 4 5 6 
#
# 1 64.9797 21.0339 41.8226 0.0001 -18.7637 0.0000
# 2 21.0339 87.7783 24.2521 0.0002 5.3486 0.0001
# 3 41.8226 24.2521 176.1178 0.0012 -1.7897 0.0004
# 4 0.0001 0.0002 0.0012 11.6502 0.0001 7.0725
# 5 -18.7637 5.3486 -1.7897 0.0001 49.9988 0.0000
# 6 0.0000 0.0001 0.0004 7.0725 0.0000 22.0488
#
#
#
# Elastic Compliance Matrix: (Units=1/GPa)
#
#
# Indices 1 2 3 4 5 6 
#
# 1 0.022353 -0.004621 -0.004583 0.000000 0.008719 0.000000
# 2 -0.004621 0.012887 -0.000709 0.000000 -0.003138 0.000000
# 3 -0.004583 -0.000709 0.006850 -0.000001 -0.001399 0.000000
# 4 0.000000 0.000000 -0.000001 0.106591 0.000000 -0.034191
# 5 0.008719 -0.003138 -0.001399 0.000000 0.023558 0.000000
# 6 0.000000 0.000000 0.000000 -0.034191 0.000000 0.056321
#
#
# Mechanical properties :
#
#
# Convention : Reuss Voigt Hill
#
# Bulk Modulus (GPa) = 44.91857 55.89923 50.40890
# Shear Modulus (GPa) = 19.54591 32.85738 26.20165
#
# Velocity S-wave (km/s) = 2.93765 3.80881 3.40123
# Velocity P-wave (km/s) = 5.59809 6.63498 6.13847
#
# Compressibility (1/GPa) = 0.02226251
#
# Stress axis : x y z
#
# Youngs Moduli (GPa) = 44.73693 77.59852 145.98977
#
# Poissons Ratio (x) = 0.35861 0.66909
# Poissons Ratio (y) = 0.20674 0.10351
# Poissons Ratio (z) = 0.20504 0.05502
#
# Static dielectric constant tensor:
#      x y z
#    x 2.307080 0.000000 0.212280 
#    y 0.000000 1.877290 0.000000 
#    z 0.212280 0.000000 2.010410 
# 
# From -- ./inp_files/296214.got.cif
#   From: 2010.05.17/outbox.cif.g08.bks.cpg/sg15_149_cif.got.tgz:296214.got - 2010.06.03 18:47:42.
