data_PCOD9285927
_publ_section_title
;
Structure prediction by ZEFSAII (Michael W. Deem and Ramdas Pophale) SiO2 
 PCOD9285927
Probable space group: C 2/C
;
_chemical_formula_sum "Si O2"
_cell_formula_units_Z 44
_cell_length_a 12.118254
_cell_length_b 9.811630
_cell_length_c 15.109592
_cell_angle_alpha 90.000000
_cell_angle_beta 78.312147
_cell_angle_gamma 90.000000
_cell_volume 1759.278235
_symmetry_space_group_name_H-M "C 2/C"
_symmetry_group_IT_number 15
_symmetry_cell_setting 'monoclinic'
loop_
_space_group_symop_operation_xyz
x,y,z
-x,y,1/2-z
-x,-y,-z
x,-y,1/2+z
1/2+x,1/2+y,z
1/2-x,1/2+y,1/2-z
1/2-x,1/2-y,-z
1/2+x,1/2-y,1/2+z
loop_
_atom_site_type_symbol
_atom_site_label
_atom_site_fract_x
_atom_site_fract_y
_atom_site_fract_z
Si Si1 0.412416 0.745925 0.467659
Si Si2 0.252353 0.211715 0.153853
Si Si3 0.000000 0.035833 0.750000
Si Si4 0.596040 0.651625 0.552611
Si Si5 0.255572 0.482277 0.235875
Si Si6 0.174594 0.459371 0.552548
O O1 0.330333 0.722240 0.565180
O O2 0.363844 0.700027 0.381225
O O3 0.517526 0.653555 0.478075
O O4 0.402915 0.911459 0.461359
O O5 0.247440 0.318667 0.235677
O O6 0.304173 0.070300 0.178806
O O7 0.957739 0.116881 0.844076
O O8 0.884613 0.971634 0.730558
O O9 0.707084 0.560426 0.519270
O O10 0.619760 0.812895 0.551473
O O11 0.206524 0.522581 0.149778
#
# Coordination Sequence:
#
# PCOD9285927 Si02
#       6
#     8   8   4   8   8   8
#     4  10  21  42  68  96 134 182 224 282 342 413
#     4  10  22  42  67  99 135 173 222 280 340 399
#     4  12  24  38  68  96 128 176 226 278 346 400
#     4  11  23  43  66  99 134 180 229 284 340 421
#     4  11  23  41  65  98 136 173 223 283 336 404
#     4  10  24  41  67  97 136 179 229 281 347 407
#
# _framework density 25.010255999999998
#
# number of rings (size 3 to 8) (size 9 to 14) (size 15 to 20)
#    0.000    1.455    1.818    2.727    2.545    2.182 
#    0.000    0.000    0.000    0.000    0.000    0.000 
#    0.000    0.000    0.000    0.000    0.000    0.000 
#
# Total GULP energy -122852.636229 kJ/mol
# GULP energy per Si atom -5584.210738 kJ/mol
# Density = 2.495333 g / cm^3
# Si number density = 25.010256 Si / 1000 Ang^3
#
#
#
# Elastic Constant Matrix: (Units=GPa)
#
#
# Indices 1 2 3 4 5 6 
#
# 1 30.1605 -2.7475 14.8263 0.0000 21.2760 0.0000
# 2 -2.7475 133.2715 44.9456 0.0000 15.8695 0.0000
# 3 14.8263 44.9456 112.5056 0.0000 13.8861 0.0000
# 4 0.0000 0.0000 0.0000 53.1562 0.0000 10.7512
# 5 21.2760 15.8695 13.8861 0.0000 34.0450 0.0000
# 6 0.0000 0.0000 0.0000 10.7512 0.0000 16.7769
#
#
#
# Elastic Compliance Matrix: (Units=1/GPa)
#
#
# Indices 1 2 3 4 5 6 
#
# 1 0.068803 0.009139 -0.007250 0.000000 -0.044300 0.000000
# 2 0.009139 0.010141 -0.004178 0.000000 -0.008734 0.000000
# 3 -0.007250 -0.004178 0.011281 0.000000 0.001877 0.000000
# 4 0.000000 0.000000 0.000000 0.021614 0.000000 -0.013851
# 5 -0.044300 -0.008734 0.001877 0.000000 0.060363 0.000000
# 6 0.000000 0.000000 0.000000 -0.013851 0.000000 0.068482
#
#
# Mechanical properties :
#
#
# Convention : Reuss Voigt Hill
#
# Bulk Modulus (GPa) = 11.67584 43.33184 27.50384
# Shear Modulus (GPa) = 18.26075 35.38983 26.82529
#
# Velocity S-wave (km/s) = 2.70502 3.76575 3.27857
# Velocity P-wave (km/s) = 3.79931 6.02254 5.03517
#
# Compressibility (1/GPa) = 0.08564697
#
# Stress axis : x y z
#
# Youngs Moduli (GPa) = 14.53423 98.61188 88.64350
#
# Poissons Ratio (x) = -0.90118 0.64268
# Poissons Ratio (y) = -0.13282 0.37031
# Poissons Ratio (z) = 0.10538 0.41195
#
# Static dielectric constant tensor:
#      x y z
#    x 2.119500 0.000000 -0.026460 
#    y 0.000000 2.028800 0.000000 
#    z -0.026460 0.000000 1.910350 
# 
# From -- ./inp_files/142248.got.cif
#   From: 2010.05.17/outbox.cif.g08.bks.cpg/sg15_72_cif.got.tgz:142248.got - 2010.06.03 18:47:42.
