data_PCOD9285406
_publ_section_title
;
Structure prediction by ZEFSAII (Michael W. Deem and Ramdas Pophale) SiO2 
 PCOD9285406
Probable space group: C 2/C
;
_chemical_formula_sum "Si O2"
_cell_formula_units_Z 44
_cell_length_a 9.590886
_cell_length_b 18.088003
_cell_length_c 13.980551
_cell_angle_alpha 90.000000
_cell_angle_beta 47.838833
_cell_angle_gamma 90.000000
_cell_volume 1797.810963
_symmetry_space_group_name_H-M "C 2/C"
_symmetry_group_IT_number 15
_symmetry_cell_setting 'monoclinic'
loop_
_space_group_symop_operation_xyz
x,y,z
-x,y,1/2-z
-x,-y,-z
x,-y,1/2+z
1/2+x,1/2+y,z
1/2-x,1/2+y,1/2-z
1/2-x,1/2-y,-z
1/2+x,1/2-y,1/2+z
loop_
_atom_site_type_symbol
_atom_site_label
_atom_site_fract_x
_atom_site_fract_y
_atom_site_fract_z
Si Si1 0.461091 0.966988 0.156835
Si Si2 0.620258 0.226994 0.375511
Si Si3 0.000000 0.143101 0.250000
Si Si4 0.321171 0.886506 0.950157
Si Si5 0.895309 0.053805 0.121753
Si Si6 0.682037 0.177953 0.864120
O O1 0.500000 0.950138 0.250000
O O2 0.447248 0.891198 0.107144
O O3 0.609109 0.030072 0.059113
O O4 0.258727 0.006534 0.249318
O O5 0.811402 0.190897 0.325919
O O6 0.503391 0.166982 0.366259
O O7 0.015905 0.094612 0.146135
O O8 0.467901 0.239243 0.529850
O O9 0.688260 0.294326 0.279809
O O10 0.214244 0.891862 0.900305
O O11 0.211545 0.851186 0.090107
O O12 0.000000 0.000000 0.000000
#
# Coordination Sequence:
#
# PCOD9285406 Si02
#       6
#     8   8   4   8   8   8
#     4  10  21  41  74 107 145 195 253 315 393 452
#     4  10  25  44  78 103 159 199 257 309 393 457
#     4  12  26  42  72 112 152 196 252 324 384 458
#     4   9  22  47  76 104 149 203 248 314 391 451
#     4  11  25  42  78 113 150 190 260 322 384 461
#     4  10  23  45  77 110 146 207 254 317 382 472
#
# _framework density 24.474207
#
# number of rings (size 3 to 8) (size 9 to 14) (size 15 to 20)
#    1.091    0.727    1.818    0.545    8.909    2.182 
#    0.000    0.909    8.000    0.000    0.000    0.000 
#    0.000    0.000    0.000    0.000    0.000    0.000 
#
# Total GULP energy -123006.930807 kJ/mol
# GULP energy per Si atom -5591.224128 kJ/mol
# Density = 2.441850 g / cm^3
# Si number density = 24.474207 Si / 1000 Ang^3
#
#
#
# Elastic Constant Matrix: (Units=GPa)
#
#
# Indices 1 2 3 4 5 6 
#
# 1 126.5886 44.1662 23.9105 0.0001 3.9094 0.0000
# 2 44.1662 91.6233 32.7475 0.0000 3.8402 0.0000
# 3 23.9105 32.7475 53.3831 0.0003 3.4694 -0.0002
# 4 0.0001 0.0000 0.0003 55.1880 -0.0002 8.9407
# 5 3.9094 3.8402 3.4694 -0.0002 30.6557 0.0001
# 6 0.0000 0.0000 -0.0002 8.9407 0.0001 28.7332
#
#
#
# Elastic Compliance Matrix: (Units=1/GPa)
#
#
# Indices 1 2 3 4 5 6 
#
# 1 0.009650 -0.003967 -0.001855 0.000000 -0.000524 0.000000
# 2 -0.003967 0.015629 -0.007773 0.000000 -0.000572 0.000000
# 3 -0.001855 -0.007773 0.024433 0.000000 -0.001555 0.000000
# 4 0.000000 0.000000 0.000000 0.019082 0.000000 -0.005938
# 5 -0.000524 -0.000572 -0.001555 0.000000 0.032935 0.000000
# 6 0.000000 0.000000 0.000000 -0.005938 0.000000 0.036650
#
#
# Mechanical properties :
#
#
# Convention : Reuss Voigt Hill
#
# Bulk Modulus (GPa) = 44.40182 52.58258 48.49220
# Shear Modulus (GPa) = 28.88899 34.30011 31.59455
#
# Velocity S-wave (km/s) = 3.43940 3.74770 3.59685
# Velocity P-wave (km/s) = 5.82703 6.34496 6.09150
#
# Compressibility (1/GPa) = 0.02252160
#
# Stress axis : x y z
#
# Youngs Moduli (GPa) = 103.62534 63.98461 40.92837
#
# Poissons Ratio (x) = 0.25382 0.07592
# Poissons Ratio (y) = 0.41107 0.31815
# Poissons Ratio (z) = 0.19221 0.49738
#
# Static dielectric constant tensor:
#      x y z
#    x 1.942300 0.000000 0.002720 
#    y 0.000000 1.962100 0.000000 
#    z 0.002720 0.000000 1.978700 
# 
# From -- ./inp_files/147015.got.cif
#   From: 2010.05.17/outbox.cif.g08.bks.cpg/sg15_74_cif.got.tgz:147015.got - 2010.06.03 18:47:42.
