data_PCOD9285292
_publ_section_title
;
Structure prediction by ZEFSAII (Michael W. Deem and Ramdas Pophale) SiO2 
 PCOD9285292
Probable space group: C 2/C
;
_chemical_formula_sum "Si O2"
_cell_formula_units_Z 40
_cell_length_a 20.254787
_cell_length_b 14.063708
_cell_length_c 9.809555
_cell_angle_alpha 90.000000
_cell_angle_beta 43.062611
_cell_angle_gamma 90.000000
_cell_volume 1907.956765
_symmetry_space_group_name_H-M "C 2/C"
_symmetry_group_IT_number 15
_symmetry_cell_setting 'monoclinic'
loop_
_space_group_symop_operation_xyz
x,y,z
-x,y,1/2-z
-x,-y,-z
x,-y,1/2+z
1/2+x,1/2+y,z
1/2-x,1/2+y,1/2-z
1/2-x,1/2-y,-z
1/2+x,1/2-y,1/2+z
loop_
_atom_site_type_symbol
_atom_site_label
_atom_site_fract_x
_atom_site_fract_y
_atom_site_fract_z
Si Si1 0.461863 0.065173 0.939171
Si Si2 0.767298 0.871495 0.090414
Si Si3 0.251216 0.030184 0.170966
Si Si4 0.415143 0.747130 0.208099
Si Si5 0.961202 0.083528 0.960471
O O1 0.500000 0.010241 0.750000
O O2 0.517694 0.164426 0.858356
O O3 0.347741 0.073424 0.091253
O O4 0.500000 0.000000 0.000000
O O5 0.681546 0.794409 0.210587
O O6 0.760150 0.924983 0.245928
O O7 0.748800 0.947025 0.992109
O O8 0.868729 0.819424 0.898084
O O9 0.154506 0.079048 0.369671
O O10 0.477376 0.682314 0.012861
O O11 0.000000 0.075141 0.750000
O O12 0.000000 0.000000 0.000000
#
# Coordination Sequence:
#
# PCOD9285292 Si02
#       5
#     8   8   8   8   8
#     4  12  23  40  65 101 137 177 223 279 348 409
#     4  10  21  41  69  96 136 175 225 275 340 410
#     4  11  21  43  68  97 131 175 225 275 342 406
#     4  10  22  40  63  97 136 175 222 273 336 408
#     4  11  25  46  68  96 133 179 234 286 340 403
#
# _framework density 20.964835000000001
#
# number of rings (size 3 to 8) (size 9 to 14) (size 15 to 20)
#    0.000    1.200    4.000    2.400    0.000    3.200 
#    3.600    1.000    0.000    0.000    0.000    0.000 
#    0.000    0.000    0.000    0.000    0.000    0.000 
#
# Total GULP energy -111560.525895 kJ/mol
# GULP energy per Si atom -5578.026295 kJ/mol
# Density = 2.091712 g / cm^3
# Si number density = 20.964835 Si / 1000 Ang^3
#
#
#
# Elastic Constant Matrix: (Units=GPa)
#
#
# Indices 1 2 3 4 5 6 
#
# 1 99.1020 36.9440 53.9296 0.0000 -8.3439 0.0000
# 2 36.9440 104.3946 46.1889 0.0000 20.7267 0.0000
# 3 53.9296 46.1889 121.9682 0.0000 13.6194 0.0000
# 4 0.0000 0.0000 0.0000 41.7038 0.0000 -0.5557
# 5 -8.3439 20.7267 13.6194 0.0000 45.2132 0.0000
# 6 0.0000 0.0000 0.0000 -0.5557 0.0000 33.6402
#
#
#
# Elastic Compliance Matrix: (Units=1/GPa)
#
#
# Indices 1 2 3 4 5 6 
#
# 1 0.015438 -0.004106 -0.006001 0.000000 0.006539 0.000000
# 2 -0.004106 0.013384 -0.002570 0.000000 -0.006119 0.000000
# 3 -0.006001 -0.002570 0.012229 0.000000 -0.003613 0.000000
# 4 0.000000 0.000000 0.000000 0.023984 0.000000 0.000396
# 5 0.006539 -0.006119 -0.003613 0.000000 0.027218 0.000000
# 6 0.000000 0.000000 0.000000 0.000396 0.000000 0.029733
#
#
# Mechanical properties :
#
#
# Convention : Reuss Voigt Hill
#
# Bulk Modulus (GPa) = 63.70768 66.62108 65.16438
# Shear Modulus (GPa) = 32.77161 36.67160 34.72160
#
# Velocity S-wave (km/s) = 3.95798 4.18688 4.07404
# Velocity P-wave (km/s) = 7.16529 7.43100 7.29935
#
# Compressibility (1/GPa) = 0.01569670
#
# Stress axis : x y z
#
# Youngs Moduli (GPa) = 64.77676 74.71587 81.77413
#
# Poissons Ratio (x) = 0.30681 0.49073
# Poissons Ratio (y) = 0.26600 0.21012
# Poissons Ratio (z) = 0.38873 0.19198
#
# Static dielectric constant tensor:
#      x y z
#    x 1.733150 0.000000 0.036430 
#    y 0.000000 1.816340 0.000000 
#    z 0.036430 0.000000 1.801190 
# 
# From -- ./inp_files/55169.got.cif
#   From: 2010.05.17/outbox.cif.g08.bks.cpg/sg15_28_cif.got.tgz:55169.got - 2010.06.03 18:47:42.
