data_PCOD9285452
_publ_section_title
;
Structure prediction by ZEFSAII (Michael W. Deem and Ramdas Pophale) SiO2 
 PCOD9285452
Probable space group: C 2/C
;
_chemical_formula_sum "Si O2"
_cell_formula_units_Z 52
_cell_length_a 10.135515
_cell_length_b 17.081452
_cell_length_c 15.986731
_cell_angle_alpha 90.000000
_cell_angle_beta 70.009617
_cell_angle_gamma 90.000000
_cell_volume 2601.013548
_symmetry_space_group_name_H-M "C 2/C"
_symmetry_group_IT_number 15
_symmetry_cell_setting 'monoclinic'
loop_
_space_group_symop_operation_xyz
x,y,z
-x,y,1/2-z
-x,-y,-z
x,-y,1/2+z
1/2+x,1/2+y,z
1/2-x,1/2+y,1/2-z
1/2-x,1/2-y,-z
1/2+x,1/2-y,1/2+z
loop_
_atom_site_type_symbol
_atom_site_label
_atom_site_fract_x
_atom_site_fract_y
_atom_site_fract_z
Si Si1 0.000000 0.968038 0.250000
Si Si2 0.903416 0.778745 0.947399
Si Si3 0.281126 0.153279 0.389928
Si Si4 0.663468 0.187789 0.935732
Si Si5 0.997048 0.057558 0.079387
Si Si6 0.191211 0.415664 0.280623
Si Si7 0.500000 0.947290 0.750000
Si Si8 0.000000 0.712104 0.750000
O O1 0.141344 0.922879 0.247129
O O2 0.965891 0.018146 0.340474
O O3 0.961293 0.761346 0.840783
O O4 0.017493 0.734043 0.980152
O O5 0.901385 0.870825 0.961857
O O6 0.750000 0.750000 0.000000
O O7 0.272156 0.158695 0.492079
O O8 0.260463 0.245054 0.370895
O O9 0.154232 0.100616 0.382664
O O10 0.421227 0.110023 0.331291
O O11 0.638835 0.114069 0.882111
O O12 0.000000 0.000000 0.000000
O O13 0.114842 0.495079 0.267775
O O14 0.132221 0.346125 0.235030
#
# Coordination Sequence:
#
# PCOD9285452 Si02
#       8
#     4   8   8   8   8   8   4   4
#     4  12  23  39  63  97 128 172 212 264 350 386
#     4  10  22  40  65  93 126 177 220 266 335 392
#     4  10  21  42  61  89 129 165 209 270 321 387
#     4   9  21  42  61  89 127 167 216 263 323 402
#     4  11  24  39  63  93 135 165 213 276 326 400
#     4  10  22  39  64  93 126 168 215 270 329 391
#     4  11  22  39  65  94 127 166 210 269 326 375
#     4   9  21  44  64  89 135 166 222 275 312 411
#
# _framework density 19.992207000000001
#
# number of rings (size 3 to 8) (size 9 to 14) (size 15 to 20)
#    0.000    1.846    1.538    1.385    2.154    3.692 
#    8.308    0.000    0.000    0.000    0.000    0.000 
#    0.000    0.000    0.000    0.000    0.000    0.000 
#
# Total GULP energy -144972.587564 kJ/mol
# GULP energy per Si atom -5575.868752 kJ/mol
# Density = 1.994670 g / cm^3
# Si number density = 19.992207 Si / 1000 Ang^3
#
#
#
# Elastic Constant Matrix: (Units=GPa)
#
#
# Indices 1 2 3 4 5 6 
#
# 1 107.5362 45.3164 19.0779 0.0000 5.7754 0.0000
# 2 45.3164 115.2284 44.6276 0.0000 -5.0400 0.0000
# 3 19.0779 44.6276 51.6393 0.0000 6.2422 0.0000
# 4 0.0000 0.0000 0.0000 12.5919 0.0000 7.3314
# 5 5.7754 -5.0400 6.2422 0.0000 28.8662 0.0000
# 6 0.0000 0.0000 0.0000 7.3314 0.0000 22.4851
#
#
#
# Elastic Compliance Matrix: (Units=1/GPa)
#
#
# Indices 1 2 3 4 5 6 
#
# 1 0.011416 -0.004723 0.000247 0.000000 -0.003162 0.000000
# 2 -0.004723 0.015693 -0.012592 0.000000 0.006408 0.000000
# 3 0.000247 -0.012592 0.031244 0.000000 -0.009004 0.000000
# 4 0.000000 0.000000 0.000000 0.098025 0.000000 -0.031962
# 5 -0.003162 0.006408 -0.009004 0.000000 0.038341 0.000000
# 6 0.000000 0.000000 0.000000 -0.031962 0.000000 0.054895
#
#
# Mechanical properties :
#
#
# Convention : Reuss Voigt Hill
#
# Bulk Modulus (GPa) = 41.29427 54.71642 48.00535
# Shear Modulus (GPa) = 17.13364 23.81410 20.47387
#
# Velocity S-wave (km/s) = 2.93066 3.45508 3.20362
# Velocity P-wave (km/s) = 5.67025 6.58369 6.14397
#
# Compressibility (1/GPa) = 0.02421644
#
# Stress axis : x y z
#
# Youngs Moduli (GPa) = 87.59860 63.72250 32.00569
#
# Poissons Ratio (x) = 0.30099 -0.00790
# Poissons Ratio (y) = 0.41376 0.40301
# Poissons Ratio (z) = -0.02162 0.80238
#
# Static dielectric constant tensor:
#      x y z
#    x 1.713370 0.000000 0.013840 
#    y 0.000000 1.719730 0.000000 
#    z 0.013840 0.000000 1.692730 
# 
# From -- ./inp_files/145533.got.cif
#   From: 2010.05.17/outbox.cif.g08.bks.cpg/sg15_73_cif.got.tgz:145533.got - 2010.06.03 18:47:42.
