data_PCOD9285077
_publ_section_title
;
Structure prediction by ZEFSAII (Michael W. Deem and Ramdas Pophale) SiO2 
 PCOD9285077
Probable space group: C 2/C
;
_chemical_formula_sum "Si O2"
_cell_formula_units_Z 40
_cell_length_a 14.288865
_cell_length_b 12.138651
_cell_length_c 9.834068
_cell_angle_alpha 90.000000
_cell_angle_beta 79.785866
_cell_angle_gamma 90.000000
_cell_volume 1678.662921
_symmetry_space_group_name_H-M "C 2/C"
_symmetry_group_IT_number 15
_symmetry_cell_setting 'monoclinic'
loop_
_space_group_symop_operation_xyz
x,y,z
-x,y,1/2-z
-x,-y,-z
x,-y,1/2+z
1/2+x,1/2+y,z
1/2-x,1/2+y,1/2-z
1/2-x,1/2-y,-z
1/2+x,1/2-y,1/2+z
loop_
_atom_site_type_symbol
_atom_site_label
_atom_site_fract_x
_atom_site_fract_y
_atom_site_fract_z
Si Si1 0.003590 0.820936 0.423125
Si Si2 0.652088 0.305436 0.843004
Si Si3 0.650428 0.151485 0.287633
Si Si4 0.500000 0.970391 0.250000
Si Si5 0.000000 0.970843 0.750000
Si Si6 0.123150 0.303932 0.080666
O O1 0.905795 0.770429 0.508332
O O2 0.977668 0.939954 0.374578
O O3 0.076508 0.754461 0.304643
O O4 0.072806 0.807369 0.538003
O O5 0.759564 0.343997 0.832713
O O6 0.587224 0.400913 0.790725
O O7 0.659923 0.212646 0.722904
O O8 0.585902 0.046656 0.276262
O O9 0.685612 0.155022 0.437755
O O10 0.539191 0.892612 0.120683
#
# Coordination Sequence:
#
# PCOD9285077 Si02
#       6
#     8   8   8   4   4   8
#     4  10  23  43  61  94 135 164 201 270 316 371
#     4  12  22  42  67  97 125 176 206 258 320 384
#     4  10  25  39  66  96 127 168 219 253 318 376
#     4  12  20  44  64  92 126 174 210 270 306 372
#     4  12  22  40  66  94 130 164 214 262 310 378
#     4  10  21  41  67  86 135 165 205 258 327 360
#
# _framework density 23.828489000000001
#
# number of rings (size 3 to 8) (size 9 to 14) (size 15 to 20)
#    1.200    0.000    4.000    2.400    0.000    3.200 
#    0.000    4.000    0.000    0.000    0.000    0.000 
#    0.000    0.000    0.000    0.000    0.000    0.000 
#
# Total GULP energy -111336.137473 kJ/mol
# GULP energy per Si atom -5566.806874 kJ/mol
# Density = 2.377425 g / cm^3
# Si number density = 23.828489 Si / 1000 Ang^3
#
#
#
# Elastic Constant Matrix: (Units=GPa)
#
#
# Indices 1 2 3 4 5 6 
#
# 1 93.9086 29.5649 39.9827 0.0000 -25.2341 0.0000
# 2 29.5649 85.6840 6.8719 0.0000 -1.2561 0.0000
# 3 39.9827 6.8719 101.5606 0.0000 -26.6973 0.0000
# 4 0.0000 0.0000 0.0000 27.5345 0.0000 5.5239
# 5 -25.2341 -1.2561 -26.6973 0.0000 45.1774 0.0000
# 6 0.0000 0.0000 0.0000 5.5239 0.0000 19.2255
#
#
#
# Elastic Compliance Matrix: (Units=1/GPa)
#
#
# Indices 1 2 3 4 5 6 
#
# 1 0.015653 -0.004973 -0.004219 0.000000 0.006111 0.000000
# 2 -0.004973 0.013316 0.000502 0.000000 -0.002111 0.000000
# 3 -0.004219 0.000502 0.012854 0.000000 0.005253 0.000000
# 4 0.000000 0.000000 0.000000 0.038540 0.000000 -0.011073
# 5 0.006111 -0.002111 0.005253 0.000000 0.028594 0.000000
# 6 0.000000 0.000000 0.000000 -0.011073 0.000000 0.055196
#
#
# Mechanical properties :
#
#
# Convention : Reuss Voigt Hill
#
# Bulk Modulus (GPa) = 40.91299 48.22138 44.56718
# Shear Modulus (GPa) = 26.36009 32.03639 29.19824
#
# Velocity S-wave (km/s) = 3.32963 3.67066 3.50430
# Velocity P-wave (km/s) = 5.65588 6.18432 5.92599
#
# Compressibility (1/GPa) = 0.02444212
#
# Stress axis : x y z
#
# Youngs Moduli (GPa) = 63.88605 75.10045 77.79420
#
# Poissons Ratio (x) = 0.37347 0.32824
# Poissons Ratio (y) = 0.31770 -0.03905
# Poissons Ratio (z) = 0.26955 -0.03769
#
# Static dielectric constant tensor:
#      x y z
#    x 1.922120 0.000000 0.059100 
#    y 0.000000 1.922470 0.000000 
#    z 0.059100 0.000000 2.144320 
# 
# From -- ./inp_files/94921.got.cif
#   From: 2010.05.17/outbox.cif.g08.bks.cpg/sg15_48_cif.got.tgz:94921.got - 2010.06.03 18:47:42.
