data_PCOD9285958
_publ_section_title
;
Structure prediction by ZEFSAII (Michael W. Deem and Ramdas Pophale) SiO2 
 PCOD9285958
Probable space group: C 2/C
;
_chemical_formula_sum "Si O2"
_cell_formula_units_Z 40
_cell_length_a 9.844171
_cell_length_b 14.298832
_cell_length_c 17.360984
_cell_angle_alpha 90.000000
_cell_angle_beta 41.117683
_cell_angle_gamma 90.000000
_cell_volume 1607.018938
_symmetry_space_group_name_H-M "C 2/C"
_symmetry_group_IT_number 15
_symmetry_cell_setting 'monoclinic'
loop_
_space_group_symop_operation_xyz
x,y,z
-x,y,1/2-z
-x,-y,-z
x,-y,1/2+z
1/2+x,1/2+y,z
1/2-x,1/2+y,1/2-z
1/2-x,1/2-y,-z
1/2+x,1/2-y,1/2+z
loop_
_atom_site_type_symbol
_atom_site_label
_atom_site_fract_x
_atom_site_fract_y
_atom_site_fract_z
Si Si1 0.907609 0.507545 0.639784
Si Si2 0.935497 0.186113 0.948754
Si Si3 0.463252 0.219222 0.946464
Si Si4 0.645064 0.598523 0.361737
Si Si5 0.152728 0.025785 0.604063
O O1 0.831346 0.464122 0.752161
O O2 0.713746 0.494128 0.664206
O O3 0.971668 0.615856 0.605401
O O4 0.112369 0.454180 0.525150
O O5 0.880618 0.105813 0.035933
O O6 0.063691 0.255339 0.950553
O O7 0.750000 0.250000 0.000000
O O8 0.980775 0.119809 0.856014
O O9 0.644732 0.291069 0.841817
O O10 0.250000 0.250000 0.000000
O O11 0.445723 0.555811 0.404745
#
# Coordination Sequence:
#
# PCOD9285958 Si02
#       5
#     8   8   8   8   8
#     4  11  22  41  69 102 142 189 241 302 365 434
#     4  10  21  42  69 103 134 189 245 297 368 443
#     4  10  21  44  72  98 140 192 244 293 366 436
#     4  10  23  39  69 107 139 184 249 303 355 444
#     4  11  21  41  68  95 145 192 229 303 377 423
#
# _framework density 24.890809999999998
#
# number of rings (size 3 to 8) (size 9 to 14) (size 15 to 20)
#    1.200    0.400    4.000    1.200    0.000    0.800 
#    3.600    0.000    8.800    0.000    0.000    0.000 
#    0.000    0.000    0.000    0.000    0.000    0.000 
#
# Total GULP energy -111442.781028 kJ/mol
# GULP energy per Si atom -5572.139051 kJ/mol
# Density = 2.483416 g / cm^3
# Si number density = 24.890810 Si / 1000 Ang^3
#
#
#
# Elastic Constant Matrix: (Units=GPa)
#
#
# Indices 1 2 3 4 5 6 
#
# 1 161.4533 14.4093 9.2543 -0.0001 17.8067 0.0002
# 2 14.4093 141.5103 7.0336 -0.0003 0.9459 0.0002
# 3 9.2543 7.0336 63.6097 -0.0004 7.3663 0.0003
# 4 -0.0001 -0.0003 -0.0004 35.3759 0.0001 3.3257
# 5 17.8067 0.9459 7.3663 0.0001 26.3487 -0.0002
# 6 0.0002 0.0002 0.0003 3.3257 -0.0002 42.5135
#
#
#
# Elastic Compliance Matrix: (Units=1/GPa)
#
#
# Indices 1 2 3 4 5 6 
#
# 1 0.006763 -0.000639 -0.000400 0.000000 -0.004436 0.000000
# 2 -0.000639 0.007166 -0.000744 0.000000 0.000383 0.000000
# 3 -0.000400 -0.000744 0.016356 0.000000 -0.004276 0.000000
# 4 0.000000 0.000000 0.000000 0.028477 0.000000 -0.002228
# 5 -0.004436 0.000383 -0.004276 0.000000 0.042132 0.000000
# 6 0.000000 0.000000 0.000000 -0.002228 0.000000 0.023696
#
#
# Mechanical properties :
#
#
# Convention : Reuss Voigt Hill
#
# Bulk Modulus (GPa) = 37.42418 47.55196 42.48807
# Shear Modulus (GPa) = 36.47969 43.23936 39.85952
#
# Velocity S-wave (km/s) = 3.83245 4.17245 4.00606
# Velocity P-wave (km/s) = 5.88656 6.50831 6.20523
#
# Compressibility (1/GPa) = 0.02672069
#
# Stress axis : x y z
#
# Youngs Moduli (GPa) = 147.86532 139.54569 61.13805
#
# Poissons Ratio (x) = 0.08919 0.02443
# Poissons Ratio (y) = 0.09450 0.04547
# Poissons Ratio (z) = 0.05908 0.10378
#
# Static dielectric constant tensor:
#      x y z
#    x 1.962920 0.000000 -0.007320 
#    y 0.000000 2.053480 0.000000 
#    z -0.007320 0.000000 2.107350 
# 
# From -- ./inp_files/188687.got.cif
#   From: 2010.05.17/outbox.cif.g08.bks.cpg/sg15_95_cif.got.tgz:188687.got - 2010.06.03 18:47:42.
