data_PCOD9285020
_publ_section_title
;
Structure prediction by ZEFSAII (Michael W. Deem and Ramdas Pophale) SiO2 
 PCOD9285020
Probable space group: C 2/C
;
_chemical_formula_sum "Si O2"
_cell_formula_units_Z 52
_cell_length_a 7.980373
_cell_length_b 26.447736
_cell_length_c 11.328151
_cell_angle_alpha 90.000000
_cell_angle_beta 96.736432
_cell_angle_gamma 90.000000
_cell_volume 2374.444750
_symmetry_space_group_name_H-M "C 2/C"
_symmetry_group_IT_number 15
_symmetry_cell_setting 'monoclinic'
loop_
_space_group_symop_operation_xyz
x,y,z
-x,y,1/2-z
-x,-y,-z
x,-y,1/2+z
1/2+x,1/2+y,z
1/2-x,1/2+y,1/2-z
1/2-x,1/2-y,-z
1/2+x,1/2-y,1/2+z
loop_
_atom_site_type_symbol
_atom_site_label
_atom_site_fract_x
_atom_site_fract_y
_atom_site_fract_z
Si Si1 0.363075 0.107491 0.140298
Si Si2 0.307402 0.527144 0.206233
Si Si3 0.218755 0.788104 0.602601
Si Si4 0.000000 0.230084 0.750000
Si Si5 0.661922 0.090687 0.992818
Si Si6 0.279893 0.301733 0.428922
Si Si7 0.500000 0.955081 0.250000
Si Si8 0.000000 0.737432 0.750000
O O1 0.500000 0.124563 0.250000
O O2 0.242855 0.068128 0.196617
O O3 0.258610 0.154481 0.082629
O O4 0.485287 0.087283 0.049319
O O5 0.500000 0.509738 0.250000
O O6 0.288170 0.554411 0.076814
O O7 0.149575 0.488313 0.201726
O O8 0.250000 0.750000 0.500000
O O9 0.346716 0.767647 0.712382
O O10 0.043270 0.775305 0.647157
O O11 0.952138 0.199624 0.865212
O O12 0.739618 0.147396 0.997438
O O13 0.606838 0.074954 0.857240
O O14 0.250000 0.250000 0.500000
O O15 0.140649 0.299293 0.313267
#
# Coordination Sequence:
#
# PCOD9285020 Si02
#       8
#     8   8   8   4   8   8   4   4
#     4  10  21  41  66  94 135 182 237 291 362 433
#     4  11  26  45  76 108 136 183 243 312 367 430
#     4  11  21  35  57  89 129 181 223 279 334 411
#     4  10  22  37  56  86 138 172 229 272 330 396
#     4  11  24  45  74 101 141 191 238 288 379 436
#     4  11  23  41  64  98 141 187 230 288 345 426
#     4  12  25  53  74 102 146 186 239 311 366 432
#     4  10  23  34  58  88 132 186 232 269 342 402
#
# _framework density 21.899857000000001
#
# number of rings (size 3 to 8) (size 9 to 14) (size 15 to 20)
#    0.000    1.231    3.077    3.692    7.538    3.077 
#    1.385    0.000    0.000    0.000    0.000    0.000 
#    0.000    0.000    0.000    0.000    0.000    0.000 
#
# Total GULP energy -144956.794201 kJ/mol
# GULP energy per Si atom -5575.261315 kJ/mol
# Density = 2.185001 g / cm^3
# Si number density = 21.899857 Si / 1000 Ang^3
#
#
#
# Elastic Constant Matrix: (Units=GPa)
#
#
# Indices 1 2 3 4 5 6 
#
# 1 94.0541 16.7270 11.4054 0.0000 8.5088 0.0000
# 2 16.7270 76.4023 29.6074 0.0000 6.0057 0.0000
# 3 11.4054 29.6074 82.8612 0.0000 -11.3494 0.0000
# 4 0.0000 0.0000 0.0000 33.6930 0.0000 6.5910
# 5 8.5088 6.0057 -11.3494 0.0000 38.1855 0.0000
# 6 0.0000 0.0000 0.0000 6.5910 0.0000 20.2713
#
#
#
# Elastic Compliance Matrix: (Units=1/GPa)
#
#
# Indices 1 2 3 4 5 6 
#
# 1 0.011342 -0.001778 -0.001286 0.000000 -0.002630 0.000000
# 2 -0.001778 0.016137 -0.006061 0.000000 -0.003943 0.000000
# 3 -0.001286 -0.006061 0.015200 0.000000 0.005757 0.000000
# 4 0.000000 0.000000 0.000000 0.031696 0.000000 -0.010305
# 5 -0.002630 -0.003943 0.005757 0.000000 0.029105 0.000000
# 6 0.000000 0.000000 0.000000 -0.010305 0.000000 0.052682
#
#
# Mechanical properties :
#
#
# Convention : Reuss Voigt Hill
#
# Bulk Modulus (GPa) = 40.93670 40.97746 40.95708
# Shear Modulus (GPa) = 27.38903 31.46847 29.42875
#
# Velocity S-wave (km/s) = 3.54029 3.79479 3.66975
# Velocity P-wave (km/s) = 5.95355 6.16056 6.05794
#
# Compressibility (1/GPa) = 0.02442796
#
# Stress axis : x y z
#
# Youngs Moduli (GPa) = 88.16565 61.97057 65.79061
#
# Poissons Ratio (x) = 0.11019 0.08461
# Poissons Ratio (y) = 0.15677 0.39877
# Poissons Ratio (z) = 0.11339 0.37562
#
# Static dielectric constant tensor:
#      x y z
#    x 1.914050 0.000000 -0.016430 
#    y 0.000000 1.827540 0.000000 
#    z -0.016430 0.000000 1.848660 
# 
# From -- ./inp_files/80720.got.cif
#   From: 2010.05.17/outbox.cif.g08.bks.cpg/sg15_41_cif.got.tgz:80720.got - 2010.06.03 18:47:42.
