data_PCOD9285903
_publ_section_title
;
Structure prediction by ZEFSAII (Michael W. Deem and Ramdas Pophale) SiO2 
 PCOD9285903
Probable space group: C 2/C
;
_chemical_formula_sum "Si O2"
_cell_formula_units_Z 48
_cell_length_a 6.872196
_cell_length_b 19.789910
_cell_length_c 25.466868
_cell_angle_alpha 90.000000
_cell_angle_beta 44.129891
_cell_angle_gamma 90.000000
_cell_volume 2411.589566
_symmetry_space_group_name_H-M "C 2/C"
_symmetry_group_IT_number 15
_symmetry_cell_setting 'monoclinic'
loop_
_space_group_symop_operation_xyz
x,y,z
-x,y,1/2-z
-x,-y,-z
x,-y,1/2+z
1/2+x,1/2+y,z
1/2-x,1/2+y,1/2-z
1/2-x,1/2-y,-z
1/2+x,1/2-y,1/2+z
loop_
_atom_site_type_symbol
_atom_site_label
_atom_site_fract_x
_atom_site_fract_y
_atom_site_fract_z
Si Si1 0.642815 0.544683 0.018490
Si Si2 0.370980 0.863052 0.717486
Si Si3 0.000000 0.017282 0.250000
Si Si4 0.803448 0.962514 0.393813
Si Si5 0.931321 0.186460 0.907000
Si Si6 0.138882 0.819087 0.953364
Si Si7 0.500000 0.249563 0.750000
O O1 0.560374 0.516046 0.091849
O O2 0.582832 0.624773 0.023782
O O3 0.500000 0.500000 0.000000
O O4 0.970801 0.529620 0.954268
O O5 0.500000 0.866786 0.750000
O O6 0.582497 0.848202 0.628427
O O7 0.231101 0.932644 0.728387
O O8 0.148680 0.801475 0.761434
O O9 0.093126 0.972538 0.184293
O O10 0.873618 0.888173 0.399057
O O11 0.695149 0.239237 0.931051
O O12 0.242943 0.209572 0.827456
O O13 0.898341 0.182361 0.976544
#
# Coordination Sequence:
#
# PCOD9285903 Si02
#       7
#     8   8   4   8   8   8   4
#     4  11  22  42  66  93 128 169 218 276 319 386
#     4  10  21  43  68  94 123 173 223 266 321 394
#     4  11  24  40  64  94 131 170 214 272 325 388
#     4  11  25  41  64  96 132 170 216 272 333 389
#     4  10  22  44  65  98 131 174 214 273 332 397
#     4  10  21  42  68  92 129 169 222 265 322 391
#     4   9  22  44  64  90 139 164 208 278 329 390
#
# _framework density 19.903884000000001
#
# number of rings (size 3 to 8) (size 9 to 14) (size 15 to 20)
#    0.000    1.667    1.667    2.000    2.333    2.000 
#   22.500    0.000    0.000    0.000    0.000    0.000 
#    0.000    0.000    0.000    0.000    0.000    0.000 
#
# Total GULP energy -133693.358755 kJ/mol
# GULP energy per Si atom -5570.556615 kJ/mol
# Density = 1.985858 g / cm^3
# Si number density = 19.903884 Si / 1000 Ang^3
#
#
#
# Elastic Constant Matrix: (Units=GPa)
#
#
# Indices 1 2 3 4 5 6 
#
# 1 73.8679 17.9561 16.6803 -0.0006 32.3065 0.0002
# 2 17.9561 65.7351 12.2470 0.0002 38.7590 0.0002
# 3 16.6803 12.2470 92.9988 -0.0009 36.0872 -0.0003
# 4 -0.0006 0.0002 -0.0009 10.9909 0.0004 -2.9508
# 5 32.3065 38.7590 36.0872 0.0004 6.3021 -0.0002
# 6 0.0002 0.0002 -0.0003 -2.9508 -0.0002 43.6227
#
#
#
# Elastic Compliance Matrix: (Units=1/GPa)
#
#
# Indices 1 2 3 4 5 6 
#
# 1 0.012679 -0.007682 -0.004603 0.000000 0.008610 0.000000
# 2 -0.007682 0.009321 -0.005822 -0.000002 0.015390 0.000000
# 3 -0.004603 -0.005822 0.008760 0.000000 0.009238 0.000000
# 4 0.000000 -0.000002 0.000000 0.092667 0.000002 0.006268
# 5 0.008610 0.015390 0.009238 0.000002 -0.033009 0.000000
# 6 0.000000 0.000000 0.000000 0.006268 0.000000 0.023348
#
#
# Mechanical properties :
#
#
# Convention : Reuss Voigt Hill
#
# Bulk Modulus (GPa) = -183.36325 36.26316 -73.55004
# Shear Modulus (GPa) = 33.74665 24.56439 29.15552
#
# Velocity S-wave (km/s) = 4.12209 3.51686 3.83144
# Velocity P-wave (km/s) = 8.34679 5.89489 4.17846
#
# Compressibility (1/GPa) = -0.00545366
#
# Stress axis : x y z
#
# Youngs Moduli (GPa) = 78.86989 107.28196 114.14957
#
# Poissons Ratio (x) = 0.82417 0.52547
# Poissons Ratio (y) = 0.60590 0.66454
# Poissons Ratio (z) = 0.36307 0.62456
#
# Static dielectric constant tensor:
#      x y z
#    x 1.708860 0.000000 -0.008700 
#    y 0.000000 1.707930 0.000000 
#    z -0.008700 0.000000 1.734910 
# 
# From -- ./inp_files/261307.got.cif
#   From: 2010.05.17/outbox.cif.g08.bks.cpg/sg15_131_cif.got.tgz:261307.got - 2010.06.03 18:47:42.
