data_PCOD9285991
_publ_section_title
;
Structure prediction by ZEFSAII (Michael W. Deem and Ramdas Pophale) SiO2 
 PCOD9285991
Probable space group: C 2/C
;
_chemical_formula_sum "Si O2"
_cell_formula_units_Z 64
_cell_length_a 17.194984
_cell_length_b 30.125969
_cell_length_c 8.670895
_cell_angle_alpha 90.000000
_cell_angle_beta 39.214902
_cell_angle_gamma 90.000000
_cell_volume 2839.764998
_symmetry_space_group_name_H-M "C 2/C"
_symmetry_group_IT_number 15
_symmetry_cell_setting 'monoclinic'
loop_
_space_group_symop_operation_xyz
x,y,z
-x,y,1/2-z
-x,-y,-z
x,-y,1/2+z
1/2+x,1/2+y,z
1/2-x,1/2+y,1/2-z
1/2-x,1/2-y,-z
1/2+x,1/2-y,1/2+z
loop_
_atom_site_type_symbol
_atom_site_label
_atom_site_fract_x
_atom_site_fract_y
_atom_site_fract_z
Si Si1 0.563224 0.308355 0.805446
Si Si2 0.765178 0.539174 0.709652
Si Si3 0.805100 0.180773 0.853155
Si Si4 0.831408 0.097249 0.360497
Si Si5 0.136896 0.753168 0.970040
Si Si6 0.462900 0.546621 0.629727
Si Si7 0.107602 0.606342 0.164504
Si Si8 0.875367 0.558485 0.038526
O O1 0.500000 0.289549 0.750000
O O2 0.647913 0.350934 0.633861
O O3 0.626071 0.271257 0.813823
O O4 0.445326 0.325064 0.085822
O O5 0.680257 0.545481 0.689042
O O6 0.879544 0.568935 0.487589
O O7 0.806831 0.488827 0.673211
O O8 0.695054 0.563797 0.956586
O O9 0.729171 0.212584 0.854129
O O10 0.809893 0.206584 0.007948
O O11 0.729949 0.135896 0.982147
O O12 0.719301 0.087965 0.416236
O O13 0.957139 0.081941 0.086092
O O14 0.000000 0.743970 0.250000
O O15 0.500000 0.549191 0.750000
O O16 0.500000 0.500000 0.500000
O O17 0.092846 0.584399 0.354105
O O18 0.000000 0.635363 0.250000
O O19 0.000000 0.550127 0.750000
#
# Coordination Sequence:
#
# PCOD9285991 Si02
#       8
#     8   8   8   8   8   8   8   8
#     4  11  23  40  64 102 140 171 210 273 342 394
#     4  12  25  44  64  92 130 177 228 280 330 394
#     4  10  21  42  69  96 130 170 219 271 329 404
#     4  12  24  42  66  93 135 174 225 282 331 398
#     4   9  20  40  69  99 128 170 217 266 328 409
#     4  12  24  39  60  92 124 168 222 279 334 388
#     4  12  25  42  66  93 127 174 225 277 338 395
#     4  12  27  45  65  91 129 178 233 284 333 394
#
# _framework density 22.537075999999999
#
# number of rings (size 3 to 8) (size 9 to 14) (size 15 to 20)
#    0.000    0.750    1.250    7.125    0.000    3.500 
#    0.000    0.000    0.000    9.750    0.000    0.000 
#    0.000    0.000    0.000    0.000    0.000    0.000 
#
# Total GULP energy -178961.518855 kJ/mol
# GULP energy per Si atom -5592.547464 kJ/mol
# Density = 2.248578 g / cm^3
# Si number density = 22.537076 Si / 1000 Ang^3
#
#
#
# Elastic Constant Matrix: (Units=GPa)
#
#
# Indices 1 2 3 4 5 6 
#
# 1 150.5757 50.0261 22.2967 0.0000 10.7944 0.0000
# 2 50.0261 101.7463 25.2443 0.0000 8.6885 0.0000
# 3 22.2967 25.2443 77.3579 0.0000 7.1547 0.0000
# 4 0.0000 0.0000 0.0000 24.9297 0.0000 -6.9437
# 5 10.7944 8.6885 7.1547 0.0000 44.2329 0.0000
# 6 0.0000 0.0000 0.0000 -6.9437 0.0000 20.1709
#
#
#
# Elastic Compliance Matrix: (Units=1/GPa)
#
#
# Indices 1 2 3 4 5 6 
#
# 1 0.008076 -0.003618 -0.001046 0.000000 -0.001091 0.000000
# 2 -0.003618 0.012422 -0.002910 0.000000 -0.001086 0.000000
# 3 -0.001046 -0.002910 0.014316 0.000000 -0.001489 0.000000
# 4 0.000000 0.000000 0.000000 0.044367 0.000000 0.015273
# 5 -0.001091 -0.001086 -0.001489 0.000000 0.023328 0.000000
# 6 0.000000 0.000000 0.000000 0.015273 0.000000 0.054834
#
#
# Mechanical properties :
#
#
# Convention : Reuss Voigt Hill
#
# Bulk Modulus (GPa) = 50.85215 58.31268 54.58241
# Shear Modulus (GPa) = 27.92546 33.34087 30.63316
#
# Velocity S-wave (km/s) = 3.52389 3.85044 3.69078
# Velocity P-wave (km/s) = 6.25858 6.76004 6.51414
#
# Compressibility (1/GPa) = 0.01966485
#
# Stress axis : x y z
#
# Youngs Moduli (GPa) = 123.81762 80.50082 69.85235
#
# Poissons Ratio (x) = 0.29127 0.07308
# Poissons Ratio (y) = 0.44800 0.20330
# Poissons Ratio (z) = 0.12954 0.23429
#
# Static dielectric constant tensor:
#      x y z
#    x 1.893780 0.000000 -0.051760 
#    y 0.000000 1.801270 0.000000 
#    z -0.051760 0.000000 1.880180 
# 
# From -- ./inp_files/52797.got.cif
#   From: 2010.05.17/outbox.cif.g08.bks.cpg/sg15_27_cif.got.tgz:52797.got - 2010.06.03 18:47:42.
