data_PCOD9285986
_publ_section_title
;
Structure prediction by ZEFSAII (Michael W. Deem and Ramdas Pophale) SiO2 
 PCOD9285986
Probable space group: C 2/C
;
_chemical_formula_sum "Si O2"
_cell_formula_units_Z 48
_cell_length_a 21.271775
_cell_length_b 6.906638
_cell_length_c 19.890815
_cell_angle_alpha 90.000000
_cell_angle_beta 135.636688
_cell_angle_gamma 90.000000
_cell_volume 2043.280374
_symmetry_space_group_name_H-M "C 2/C"
_symmetry_group_IT_number 15
_symmetry_cell_setting 'monoclinic'
loop_
_space_group_symop_operation_xyz
x,y,z
-x,y,1/2-z
-x,-y,-z
x,-y,1/2+z
1/2+x,1/2+y,z
1/2-x,1/2+y,1/2-z
1/2-x,1/2-y,-z
1/2+x,1/2-y,1/2+z
loop_
_atom_site_type_symbol
_atom_site_label
_atom_site_fract_x
_atom_site_fract_y
_atom_site_fract_z
Si Si1 0.716552 0.408147 0.879478
Si Si2 0.359592 0.947130 0.883617
Si Si3 0.537307 0.695359 0.997072
Si Si4 0.475855 0.243047 0.161758
Si Si5 0.172953 0.709694 0.278203
Si Si6 0.308239 0.999138 0.584188
O O1 0.811036 0.373188 0.913670
O O2 0.671751 0.559586 0.792745
O O3 0.672414 0.205836 0.865991
O O4 0.737952 0.493525 0.969455
O O5 0.452294 0.836600 0.943009
O O6 0.303050 0.879812 0.775046
O O7 0.381224 0.176121 0.909392
O O8 0.551784 0.657437 0.928734
O O9 0.500000 0.500000 0.000000
O O10 0.500000 0.355040 0.250000
O O11 0.570463 0.143081 0.214838
O O12 0.397748 0.095041 0.121755
O O13 0.229106 0.626532 0.382790
#
# Coordination Sequence:
#
# PCOD9285986 Si02
#       6
#     8   8   8   8   8   8
#     4  11  23  41  66 100 132 183 229 286 369 410
#     4  10  23  41  64  99 139 170 237 287 334 441
#     4  10  21  42  69  95 133 188 228 279 362 415
#     4   9  19  43  64  94 134 173 231 292 334 423
#     4  10  23  40  65  95 140 173 226 289 346 420
#     4  10  22  43  66  93 133 176 232 291 350 419
#
# _framework density 23.491637000000001
#
# number of rings (size 3 to 8) (size 9 to 14) (size 15 to 20)
#    0.000    2.000    1.667    0.500    2.333    4.000 
#   12.000    7.500    0.000    0.000    0.000    0.000 
#    0.000    0.000    0.000    0.000    0.000    0.000 
#
# Total GULP energy -133733.017185 kJ/mol
# GULP energy per Si atom -5572.209049 kJ/mol
# Density = 2.343817 g / cm^3
# Si number density = 23.491637 Si / 1000 Ang^3
#
#
#
# Elastic Constant Matrix: (Units=GPa)
#
#
# Indices 1 2 3 4 5 6 
#
# 1 94.3432 40.0190 48.5899 0.0000 -31.4168 0.0000
# 2 40.0190 133.3142 60.0434 0.0002 -30.9808 0.0003
# 3 48.5899 60.0434 92.3907 0.0000 -35.9587 0.0000
# 4 0.0000 0.0002 0.0000 21.8884 0.0000 -4.4592
# 5 -31.4168 -30.9808 -35.9587 0.0000 48.3953 0.0000
# 6 0.0000 0.0003 0.0000 -4.4592 0.0000 44.1382
#
#
#
# Elastic Compliance Matrix: (Units=1/GPa)
#
#
# Indices 1 2 3 4 5 6 
#
# 1 0.015651 -0.000959 -0.005476 0.000000 0.005477 0.000000
# 2 -0.000959 0.010857 -0.005752 0.000000 0.002054 0.000000
# 3 -0.005476 -0.005752 0.020575 0.000000 0.008051 0.000000
# 4 0.000000 0.000000 0.000000 0.046646 0.000000 0.004713
# 5 0.005477 0.002054 0.008051 0.000000 0.031515 0.000000
# 6 0.000000 0.000000 0.000000 0.004713 0.000000 0.023132
#
#
# Mechanical properties :
#
#
# Convention : Reuss Voigt Hill
#
# Bulk Modulus (GPa) = 44.03628 68.59475 56.31552
# Shear Modulus (GPa) = 27.72849 34.31078 31.01963
#
# Velocity S-wave (km/s) = 3.43936 3.82586 3.63775
# Velocity P-wave (km/s) = 5.87864 6.98422 6.45515
#
# Compressibility (1/GPa) = 0.02270855
#
# Stress axis : x y z
#
# Youngs Moduli (GPa) = 63.89508 92.10741 48.60251
#
# Poissons Ratio (x) = 0.08832 0.26615
# Poissons Ratio (y) = 0.06127 0.27957
# Poissons Ratio (z) = 0.34989 0.52981
#
# Static dielectric constant tensor:
#      x y z
#    x 1.892740 0.000000 0.013720 
#    y 0.000000 1.966340 0.000000 
#    z 0.013720 0.000000 2.029500 
# 
# From -- ./inp_files/254456.got.cif
#   From: 2010.05.17/outbox.cif.g08.bks.cpg/sg15_128_cif.got.tgz:254456.got - 2010.06.03 18:47:42.
