data_PCOD9285396
_publ_section_title
;
Structure prediction by ZEFSAII (Michael W. Deem and Ramdas Pophale) SiO2 
 PCOD9285396
Probable space group: C 2/C
;
_chemical_formula_sum "Si O2"
_cell_formula_units_Z 60
_cell_length_a 10.627708
_cell_length_b 10.822413
_cell_length_c 20.141515
_cell_angle_alpha 90.000000
_cell_angle_beta 86.772802
_cell_angle_gamma 90.000000
_cell_volume 2312.951786
_symmetry_space_group_name_H-M "C 2/C"
_symmetry_group_IT_number 15
_symmetry_cell_setting 'monoclinic'
loop_
_space_group_symop_operation_xyz
x,y,z
-x,y,1/2-z
-x,-y,-z
x,-y,1/2+z
1/2+x,1/2+y,z
1/2-x,1/2+y,1/2-z
1/2-x,1/2-y,-z
1/2+x,1/2-y,1/2+z
loop_
_atom_site_type_symbol
_atom_site_label
_atom_site_fract_x
_atom_site_fract_y
_atom_site_fract_z
Si Si1 0.687895 0.567297 0.975664
Si Si2 0.575433 0.825990 0.334975
Si Si3 0.052382 0.186192 0.473087
Si Si4 0.000000 0.751037 0.250000
Si Si5 0.554526 0.788654 0.611017
Si Si6 0.797480 0.562650 0.112831
Si Si7 0.223931 0.126508 0.244093
Si Si8 0.681578 0.960704 0.156874
O O1 0.607236 0.448462 0.956117
O O2 0.759721 0.607568 0.907810
O O3 0.593912 0.670066 0.004981
O O4 0.763659 0.530203 0.038814
O O5 0.564850 0.769288 0.408933
O O6 0.638076 0.723693 0.285947
O O7 0.442278 0.886904 0.318081
O O8 0.664604 0.942604 0.346057
O O9 0.107539 0.232549 0.541843
O O10 0.034870 0.802070 0.175326
O O11 0.871489 0.672270 0.240203
O O12 0.419520 0.851006 0.602558
O O13 0.639894 0.905147 0.629352
O O14 0.693485 0.619313 0.166507
O O15 0.225682 0.998235 0.286023
#
# Coordination Sequence:
#
# PCOD9285396 Si02
#       8
#     8   8   8   4   8   8   8   8
#     4  11  24  42  62  95 142 180 228 290 344 428
#     4  11  23  42  73 104 128 182 234 282 353 414
#     4  11  24  41  64  98 136 183 231 286 354 410
#     4   8  18  36  64  90 128 176 208 274 344 402
#     4   9  19  38  65  96 130 167 230 274 337 422
#     4  10  23  42  65 100 133 170 230 282 344 425
#     4  10  21  45  66 103 141 175 231 293 341 427
#     4  10  21  41  72  99 132 178 230 287 344 419
#
# _framework density 25.940878999999999
#
# number of rings (size 3 to 8) (size 9 to 14) (size 15 to 20)
#    0.000    1.867    1.333    2.400    3.733    5.333 
#    9.600    0.000    0.000    0.000    0.000    0.000 
#    0.000    0.000    0.000    0.000    0.000    0.000 
#
# Total GULP energy -167816.270416 kJ/mol
# GULP energy per Si atom -5593.875681 kJ/mol
# Density = 2.588184 g / cm^3
# Si number density = 25.940879 Si / 1000 Ang^3
#
#
#
# Elastic Constant Matrix: (Units=GPa)
#
#
# Indices 1 2 3 4 5 6 
#
# 1 61.8233 13.0003 26.9581 0.0000 -24.8485 0.0000
# 2 13.0003 63.8122 35.2122 0.0000 -14.0034 0.0000
# 3 26.9581 35.2122 154.7567 0.0000 -34.9422 0.0000
# 4 0.0000 0.0000 0.0000 48.0980 0.0000 -0.4938
# 5 -24.8485 -14.0034 -34.9422 0.0000 45.7909 0.0000
# 6 0.0000 0.0000 0.0000 -0.4938 0.0000 26.9647
#
#
#
# Elastic Compliance Matrix: (Units=1/GPa)
#
#
# Indices 1 2 3 4 5 6 
#
# 1 0.021023 -0.001484 -0.001028 0.000000 0.010170 0.000000
# 2 -0.001484 0.018342 -0.003419 0.000000 0.002195 0.000000
# 3 -0.001028 -0.003419 0.008526 0.000000 0.004902 0.000000
# 4 0.000000 0.000000 0.000000 0.020795 0.000000 0.000381
# 5 0.010170 0.002195 0.004902 0.000000 0.031769 0.000000
# 6 0.000000 0.000000 0.000000 0.000381 0.000000 0.037092
#
#
# Mechanical properties :
#
#
# Convention : Reuss Voigt Hill
#
# Bulk Modulus (GPa) = 27.75655 47.85927 37.80791
# Shear Modulus (GPa) = 30.97533 37.85218 34.41375
#
# Velocity S-wave (km/s) = 3.45929 3.82405 3.64623
# Velocity P-wave (km/s) = 5.16514 6.16338 5.68621
#
# Compressibility (1/GPa) = 0.03602754
#
# Stress axis : x y z
#
# Youngs Moduli (GPa) = 47.56685 54.52057 117.29193
#
# Poissons Ratio (x) = 0.08090 0.12061
# Poissons Ratio (y) = 0.07058 0.40106
# Poissons Ratio (z) = 0.04891 0.18642
#
# Static dielectric constant tensor:
#      x y z
#    x 2.073170 0.000000 0.028990 
#    y 0.000000 2.020150 0.000000 
#    z 0.028990 0.000000 2.120320 
# 
# From -- ./inp_files/237592.got.cif
#   From: 2010.05.17/outbox.cif.g08.bks.cpg/sg15_119_cif.got.tgz:237592.got - 2010.06.03 18:47:42.
