data_PCOD9285102
_publ_section_title
;
Structure prediction by ZEFSAII (Michael W. Deem and Ramdas Pophale) SiO2 
 PCOD9285102
Probable space group: C 2/C
;
_chemical_formula_sum "Si O2"
_cell_formula_units_Z 60
_cell_length_a 17.554399
_cell_length_b 10.413808
_cell_length_c 30.261068
_cell_angle_alpha 90.000000
_cell_angle_beta 153.733295
_cell_angle_gamma 90.000000
_cell_volume 2448.174028
_symmetry_space_group_name_H-M "C 2/C"
_symmetry_group_IT_number 15
_symmetry_cell_setting 'monoclinic'
loop_
_space_group_symop_operation_xyz
x,y,z
-x,y,1/2-z
-x,-y,-z
x,-y,1/2+z
1/2+x,1/2+y,z
1/2-x,1/2+y,1/2-z
1/2-x,1/2-y,-z
1/2+x,1/2-y,1/2+z
loop_
_atom_site_type_symbol
_atom_site_label
_atom_site_fract_x
_atom_site_fract_y
_atom_site_fract_z
Si Si1 0.897901 0.302245 0.786037
Si Si2 0.983433 0.729400 0.672947
Si Si3 0.500762 0.779746 0.079332
Si Si4 0.724770 0.523240 0.416747
Si Si5 0.500000 0.667877 0.750000
Si Si6 0.285278 0.452326 0.425586
Si Si7 0.605315 0.386595 0.443246
Si Si8 0.734149 0.444110 0.185981
O O1 0.706558 0.237331 0.689343
O O2 0.042303 0.252994 0.895390
O O3 0.870039 0.453409 0.774606
O O4 0.959526 0.255027 0.770621
O O5 0.937117 0.724150 0.597054
O O6 0.914887 0.861328 0.656452
O O7 0.891180 0.617799 0.652812
O O8 0.184928 0.697089 0.778026
O O9 0.410451 0.906715 0.011733
O O10 0.420645 0.657229 0.012164
O O11 0.663269 0.422081 0.348007
O O12 0.691677 0.456962 0.447050
O O13 0.297006 0.581295 0.460903
O O14 0.309129 0.481477 0.386729
O O15 0.419677 0.447156 0.359515
#
# Coordination Sequence:
#
# PCOD9285102 Si02
#       8
#     8   8   8   8   4   8   8   8
#     4  11  25  44  62  92 135 176 208 266 332 395
#     4  11  21  39  68  98 123 165 218 277 319 379
#     4  11  20  41  68  94 124 163 222 273 328 379
#     4  10  21  41  67  92 123 166 227 269 321 381
#     4  10  26  42  62  92 136 172 208 268 328 396
#     4  11  22  39  66 101 127 167 217 280 317 380
#     4  11  21  42  65  89 129 174 214 265 322 390
#     4  12  25  39  65 102 135 169 218 266 335 385
#
# _framework density 24.508061000000001
#
# number of rings (size 3 to 8) (size 9 to 14) (size 15 to 20)
#    0.000    1.067    5.333    1.600    5.600    0.533 
#    0.000    2.000    0.000    0.000    0.000    0.000 
#    0.000    0.000    0.000    0.000    0.000    0.000 
#
# Total GULP energy -167746.103914 kJ/mol
# GULP energy per Si atom -5591.536797 kJ/mol
# Density = 2.445228 g / cm^3
# Si number density = 24.508061 Si / 1000 Ang^3
#
#
#
# Elastic Constant Matrix: (Units=GPa)
#
#
# Indices 1 2 3 4 5 6 
#
# 1 66.6945 24.1188 26.9295 0.0000 -4.5889 0.0000
# 2 24.1188 77.9770 21.7273 -0.0001 6.2594 0.0000
# 3 26.9295 21.7273 81.6242 -0.0004 0.6405 -0.0001
# 4 0.0000 -0.0001 -0.0004 55.7107 -0.0001 4.8451
# 5 -4.5889 6.2594 0.6405 -0.0001 46.8230 0.0000
# 6 0.0000 0.0000 -0.0001 4.8451 0.0000 20.9580
#
#
#
# Elastic Compliance Matrix: (Units=1/GPa)
#
#
# Indices 1 2 3 4 5 6 
#
# 1 0.018871 -0.004645 -0.005009 0.000000 0.002539 0.000000
# 2 -0.004645 0.015149 -0.002481 0.000000 -0.002446 0.000000
# 3 -0.005009 -0.002481 0.014567 0.000000 -0.000359 0.000000
# 4 0.000000 0.000000 0.000000 0.018318 0.000000 -0.004235
# 5 0.002539 -0.002446 -0.000359 0.000000 0.021938 0.000000
# 6 0.000000 0.000000 0.000000 -0.004235 0.000000 0.048694
#
#
# Mechanical properties :
#
#
# Convention : Reuss Voigt Hill
#
# Bulk Modulus (GPa) = 41.12425 41.31633 41.22029
# Shear Modulus (GPa) = 29.42707 34.93300 32.18003
#
# Velocity S-wave (km/s) = 3.46889 3.77950 3.62752
# Velocity P-wave (km/s) = 5.73241 5.99508 5.86522
#
# Compressibility (1/GPa) = 0.02431656
#
# Stress axis : x y z
#
# Youngs Moduli (GPa) = 52.99186 66.01287 68.64770
#
# Poissons Ratio (x) = 0.30662 0.34388
# Poissons Ratio (y) = 0.24614 0.17030
# Poissons Ratio (z) = 0.26546 0.16376
#
# Static dielectric constant tensor:
#      x y z
#    x 1.911280 0.000000 0.046380 
#    y 0.000000 1.962840 0.000000 
#    z 0.046380 0.000000 2.045290 
# 
# From -- ./inp_files/225033.got.cif
#   From: 2010.05.17/outbox.cif.g08.bks.cpg/sg15_113_cif.got.tgz:225033.got - 2010.06.03 18:47:42.
