data_PCOD9285473
_publ_section_title
;
Structure prediction by ZEFSAII (Michael W. Deem and Ramdas Pophale) SiO2 
 PCOD9285473
Probable space group: C 2/C
;
_chemical_formula_sum "Si O2"
_cell_formula_units_Z 60
_cell_length_a 21.106571
_cell_length_b 12.458552
_cell_length_c 11.852437
_cell_angle_alpha 90.000000
_cell_angle_beta 66.213122
_cell_angle_gamma 90.000000
_cell_volume 2851.929024
_symmetry_space_group_name_H-M "C 2/C"
_symmetry_group_IT_number 15
_symmetry_cell_setting 'monoclinic'
loop_
_space_group_symop_operation_xyz
x,y,z
-x,y,1/2-z
-x,-y,-z
x,-y,1/2+z
1/2+x,1/2+y,z
1/2-x,1/2+y,1/2-z
1/2-x,1/2-y,-z
1/2+x,1/2-y,1/2+z
loop_
_atom_site_type_symbol
_atom_site_label
_atom_site_fract_x
_atom_site_fract_y
_atom_site_fract_z
Si Si1 0.199810 0.272428 0.184999
Si Si2 0.887925 0.079663 0.177387
Si Si3 0.000000 0.137244 0.250000
Si Si4 0.679839 0.881059 0.958287
Si Si5 0.416298 0.707550 0.951343
Si Si6 0.206306 0.627586 0.905798
Si Si7 0.556248 0.753070 0.986677
Si Si8 0.142554 0.142066 0.733049
O O1 0.136637 0.194092 0.258230
O O2 0.264814 0.190693 0.151891
O O3 0.202233 0.367016 0.272955
O O4 0.190217 0.324788 0.071456
O O5 0.957175 0.060541 0.197649
O O6 0.841819 0.982358 0.250287
O O7 0.897469 0.101201 0.038964
O O8 0.961295 0.208071 0.375041
O O9 0.601616 0.860645 0.971289
O O10 0.696863 0.006261 0.953166
O O11 0.486073 0.752025 0.961971
O O12 0.412574 0.672592 0.824086
O O13 0.356249 0.796798 0.008722
O O14 0.282726 0.677879 0.869246
O O15 0.609783 0.681612 0.874530
#
# Coordination Sequence:
#
# PCOD9285473 Si02
#       8
#     8   8   4   8   8   8   8   8
#     4  10  21  42  62 100 131 164 229 274 326 400
#     4  10  22  38  65  91 131 175 218 273 327 406
#     4  10  22  40  64  94 130 166 222 280 326 392
#     4  11  22  40  72  94 128 180 223 278 332 409
#     4  10  26  43  61  97 145 175 221 285 335 407
#     4  11  24  43  66 100 135 177 225 281 346 396
#     4  11  24  43  69  96 133 179 227 281 333 399
#     4  12  24  40  68  99 136 178 221 280 349 403
#
# _framework density 21.038392999999999
#
# number of rings (size 3 to 8) (size 9 to 14) (size 15 to 20)
#    0.000    1.333    4.000    0.800    3.733    3.733 
#    0.000    0.000    2.933    0.000    0.000    0.000 
#    0.000    0.000    0.000    0.000    0.000    0.000 
#
# Total GULP energy -167013.705822 kJ/mol
# GULP energy per Si atom -5567.123527 kJ/mol
# Density = 2.099051 g / cm^3
# Si number density = 21.038393 Si / 1000 Ang^3
#
#
#
# Elastic Constant Matrix: (Units=GPa)
#
#
# Indices 1 2 3 4 5 6 
#
# 1 98.2537 29.6583 13.9567 0.0000 -6.3665 0.0000
# 2 29.6583 55.0842 32.1683 0.0000 -1.7053 0.0000
# 3 13.9567 32.1683 90.7204 0.0000 6.0086 0.0000
# 4 0.0000 0.0000 0.0000 24.0943 0.0000 -5.9318
# 5 -6.3665 -1.7053 6.0086 0.0000 29.0781 0.0000
# 6 0.0000 0.0000 0.0000 -5.9318 0.0000 19.4905
#
#
#
# Elastic Compliance Matrix: (Units=1/GPa)
#
#
# Indices 1 2 3 4 5 6 
#
# 1 0.012315 -0.006771 0.000359 0.000000 0.002225 0.000000
# 2 -0.006771 0.026890 -0.008617 0.000000 0.001875 0.000000
# 3 0.000359 -0.008617 0.014247 0.000000 -0.003371 0.000000
# 4 0.000000 0.000000 0.000000 0.044865 0.000000 0.013655
# 5 0.002225 0.001875 -0.003371 0.000000 0.035684 0.000000
# 6 0.000000 0.000000 0.000000 0.013655 0.000000 0.055463
#
#
# Mechanical properties :
#
#
# Convention : Reuss Voigt Hill
#
# Bulk Modulus (GPa) = 42.74905 43.95832 43.35368
# Shear Modulus (GPa) = 21.99539 25.75092 23.87316
#
# Velocity S-wave (km/s) = 3.23691 3.50236 3.37225
# Velocity P-wave (km/s) = 5.85950 6.10697 5.98451
#
# Compressibility (1/GPa) = 0.02339233
#
# Stress axis : x y z
#
# Youngs Moduli (GPa) = 81.20260 37.18801 70.19266
#
# Poissons Ratio (x) = 0.25182 -0.02521
# Poissons Ratio (y) = 0.54986 0.60488
# Poissons Ratio (z) = -0.02916 0.32047
#
# Static dielectric constant tensor:
#      x y z
#    x 1.885820 0.000000 -0.032290 
#    y 0.000000 1.760650 0.000000 
#    z -0.032290 0.000000 1.774290 
# 
# From -- ./inp_files/117533.got.cif
#   From: 2010.05.17/outbox.cif.g08.bks.cpg/sg15_59_cif.got.tgz:117533.got - 2010.06.03 18:47:42.
