data_PCOD9285367
_publ_section_title
;
Structure prediction by ZEFSAII (Michael W. Deem and Ramdas Pophale) SiO2 
 PCOD9285367
Probable space group: C 2/C
;
_chemical_formula_sum "Si O2"
_cell_formula_units_Z 48
_cell_length_a 23.008953
_cell_length_b 5.889879
_cell_length_c 16.354493
_cell_angle_alpha 90.000000
_cell_angle_beta 77.613457
_cell_angle_gamma 90.000000
_cell_volume 2164.769150
_symmetry_space_group_name_H-M "C 2/C"
_symmetry_group_IT_number 15
_symmetry_cell_setting 'monoclinic'
loop_
_space_group_symop_operation_xyz
x,y,z
-x,y,1/2-z
-x,-y,-z
x,-y,1/2+z
1/2+x,1/2+y,z
1/2-x,1/2+y,1/2-z
1/2-x,1/2-y,-z
1/2+x,1/2-y,1/2+z
loop_
_atom_site_type_symbol
_atom_site_label
_atom_site_fract_x
_atom_site_fract_y
_atom_site_fract_z
Si Si1 0.331912 0.776960 0.039750
Si Si2 0.938702 0.455315 0.566167
Si Si3 0.484321 0.703069 0.842245
Si Si4 0.239513 0.319113 0.710062
Si Si5 0.600566 0.613152 0.055366
Si Si6 0.637916 0.986239 0.630766
O O1 0.280395 0.738991 0.119414
O O2 0.391518 0.842645 0.073648
O O3 0.347417 0.556120 0.983238
O O4 0.325461 0.952333 0.965996
O O5 0.907747 0.262979 0.522018
O O6 0.000000 0.500000 0.500000
O O7 0.960831 0.356149 0.644655
O O8 0.500000 0.605796 0.750000
O O9 0.462772 0.507179 0.909432
O O10 0.424809 0.856201 0.857287
O O11 0.260821 0.569215 0.742503
O O12 0.174973 0.389751 0.694466
O O13 0.619500 0.751270 0.130415
#
# Coordination Sequence:
#
# PCOD9285367 Si02
#       6
#     8   8   8   8   8   8
#     4  10  24  44  75  98 135 193 241 301 352 445
#     4  11  20  42  66 103 137 179 239 288 360 440
#     4  11  24  38  65 105 146 182 230 303 371 439
#     4  12  31  50  72 108 149 190 244 315 375 428
#     4  10  21  41  71  95 132 188 242 291 357 440
#     4  10  24  47  69 100 138 190 252 293 363 442
#
# _framework density 22.173266000000002
#
# number of rings (size 3 to 8) (size 9 to 14) (size 15 to 20)
#    0.000    1.333    5.000    1.000   11.667    1.333 
#    0.000    0.000    0.000    0.000    0.000    0.000 
#    0.000    0.000    0.000    0.000    0.000    0.000 
#
# Total GULP energy -133669.831509 kJ/mol
# GULP energy per Si atom -5569.576313 kJ/mol
# Density = 2.212280 g / cm^3
# Si number density = 22.173266 Si / 1000 Ang^3
#
#
#
# Elastic Constant Matrix: (Units=GPa)
#
#
# Indices 1 2 3 4 5 6 
#
# 1 81.9189 20.5642 7.0220 0.0000 23.4522 0.0000
# 2 20.5642 78.4205 8.3640 0.0000 8.8556 0.0000
# 3 7.0220 8.3640 59.6767 0.0000 -3.5423 0.0000
# 4 0.0000 0.0000 0.0000 22.3777 0.0000 14.3230
# 5 23.4522 8.8556 -3.5423 0.0000 39.1758 0.0000
# 6 0.0000 0.0000 0.0000 14.3230 0.0000 17.8964
#
#
#
# Elastic Compliance Matrix: (Units=1/GPa)
#
#
# Indices 1 2 3 4 5 6 
#
# 1 0.015646 -0.002889 -0.001964 0.000000 -0.008891 0.000000
# 2 -0.002889 0.013866 -0.001696 0.000000 -0.001558 0.000000
# 3 -0.001964 -0.001696 0.017412 0.000000 0.003133 0.000000
# 4 0.000000 0.000000 0.000000 0.091620 0.000000 -0.073326
# 5 -0.008891 -0.001558 0.003133 0.000000 0.031484 0.000000
# 6 0.000000 0.000000 0.000000 -0.073326 0.000000 0.114561
#
#
# Mechanical properties :
#
#
# Convention : Reuss Voigt Hill
#
# Bulk Modulus (GPa) = 29.56322 32.43517 30.99920
# Shear Modulus (GPa) = 16.18318 28.16104 22.17211
#
# Velocity S-wave (km/s) = 2.70451 3.56764 3.16563
# Velocity P-wave (km/s) = 4.80773 5.62410 5.23186
#
# Compressibility (1/GPa) = 0.03382581
#
# Stress axis : x y z
#
# Youngs Moduli (GPa) = 63.91328 72.11734 57.43253
#
# Poissons Ratio (x) = 0.20838 0.11279
# Poissons Ratio (y) = 0.18467 0.09740
# Poissons Ratio (z) = 0.12551 0.12231
#
# Static dielectric constant tensor:
#      x y z
#    x 1.832600 0.000000 0.056060 
#    y 0.000000 2.103170 0.000000 
#    z 0.056060 0.000000 1.862610 
# 
# From -- ./inp_files/217464.got.cif
#   From: 2010.05.17/outbox.cif.g08.bks.cpg/sg15_109_cif.got.tgz:217464.got - 2010.06.03 18:47:42.
