data_PCOD9285377
_publ_section_title
;
Structure prediction by ZEFSAII (Michael W. Deem and Ramdas Pophale) SiO2 
 PCOD9285377
Probable space group: C 2/C
;
_chemical_formula_sum "Si O2"
_cell_formula_units_Z 40
_cell_length_a 14.966804
_cell_length_b 15.696226
_cell_length_c 9.541775
_cell_angle_alpha 90.000000
_cell_angle_beta 53.499482
_cell_angle_gamma 90.000000
_cell_volume 1801.894266
_symmetry_space_group_name_H-M "C 2/C"
_symmetry_group_IT_number 15
_symmetry_cell_setting 'monoclinic'
loop_
_space_group_symop_operation_xyz
x,y,z
-x,y,1/2-z
-x,-y,-z
x,-y,1/2+z
1/2+x,1/2+y,z
1/2-x,1/2+y,1/2-z
1/2-x,1/2-y,-z
1/2+x,1/2-y,1/2+z
loop_
_atom_site_type_symbol
_atom_site_label
_atom_site_fract_x
_atom_site_fract_y
_atom_site_fract_z
Si Si1 0.685517 0.660492 0.583537
Si Si2 0.236679 0.033033 0.037249
Si Si3 0.520296 0.702514 0.529163
Si Si4 0.000000 0.870288 0.750000
Si Si5 0.500000 0.848105 0.750000
Si Si6 0.121977 0.471330 0.832239
O O1 0.750000 0.750000 0.500000
O O2 0.728697 0.567438 0.581403
O O3 0.617381 0.644089 0.502280
O O4 0.594651 0.680202 0.787640
O O5 0.113634 0.073527 0.139430
O O6 0.309479 0.066370 0.100835
O O7 0.305355 0.038565 0.826717
O O8 0.509274 0.689171 0.377178
O O9 0.546066 0.793297 0.576507
O O10 0.592400 0.902351 0.741182
O O11 0.000000 0.500000 0.000000
#
# Coordination Sequence:
#
# PCOD9285377 Si02
#       6
#     8   8   8   4   4   8
#     4  10  21  41  71  99 130 190 233 279 359 431
#     4  12  24  42  71 103 147 179 237 299 349 428
#     4  10  23  43  67  95 141 184 233 288 346 439
#     4  12  26  45  63 110 146 184 240 294 368 407
#     4  10  22  49  71  96 138 188 242 286 362 427
#     4  12  24  44  72 106 134 184 235 300 355 423
#
# _framework density 22.198861000000001
#
# number of rings (size 3 to 8) (size 9 to 14) (size 15 to 20)
#    0.000    1.200    2.000    6.000    0.000    2.400 
#    3.600    2.000    0.000    0.000    0.000    0.000 
#    0.000    0.000    0.000    0.000    0.000    0.000 
#
# Total GULP energy -111455.444209 kJ/mol
# GULP energy per Si atom -5572.772210 kJ/mol
# Density = 2.214834 g / cm^3
# Si number density = 22.198861 Si / 1000 Ang^3
#
#
#
# Elastic Constant Matrix: (Units=GPa)
#
#
# Indices 1 2 3 4 5 6 
#
# 1 142.0112 33.5791 85.7476 0.0000 16.4939 0.0000
# 2 33.5791 74.7935 29.2186 0.0000 5.2359 0.0000
# 3 85.7476 29.2186 161.4618 0.0000 18.9337 0.0000
# 4 0.0000 0.0000 0.0000 24.0821 0.0000 7.9941
# 5 16.4939 5.2359 18.9337 0.0000 55.5230 0.0000
# 6 0.0000 0.0000 0.0000 7.9941 0.0000 28.4942
#
#
#
# Elastic Compliance Matrix: (Units=1/GPa)
#
#
# Indices 1 2 3 4 5 6 
#
# 1 0.010976 -0.002820 -0.005174 0.000000 -0.001230 0.000000
# 2 -0.002820 0.015125 -0.001219 0.000000 -0.000173 0.000000
# 3 -0.005174 -0.001219 0.009342 0.000000 -0.001534 0.000000
# 4 0.000000 0.000000 0.000000 0.045789 0.000000 -0.012846
# 5 -0.001230 -0.000173 -0.001534 0.000000 0.018915 0.000000
# 6 0.000000 0.000000 0.000000 -0.012846 0.000000 0.038699
#
#
# Mechanical properties :
#
#
# Convention : Reuss Voigt Hill
#
# Bulk Modulus (GPa) = 58.77122 75.03969 66.90545
# Shear Modulus (GPa) = 30.68546 36.93461 33.81003
#
# Velocity S-wave (km/s) = 3.72196 4.08340 3.90686
# Velocity P-wave (km/s) = 6.70843 7.49060 7.11028
#
# Compressibility (1/GPa) = 0.01701513
#
# Stress axis : x y z
#
# Youngs Moduli (GPa) = 91.11065 66.11746 107.04631
#
# Poissons Ratio (x) = 0.18646 0.55389
# Poissons Ratio (y) = 0.25694 0.13049
# Poissons Ratio (z) = 0.47143 0.08060
#
# Static dielectric constant tensor:
#      x y z
#    x 2.055500 0.000000 -0.111960 
#    y 0.000000 1.920890 0.000000 
#    z -0.111960 0.000000 1.787460 
# 
# From -- ./inp_files/39008.got.cif
#   From: 2010.05.17/outbox.cif.g08.bks.cpg/sg15_20_cif.got.tgz:39008.got - 2010.06.03 18:47:42.
