data_PCOD9285361
_publ_section_title
;
Structure prediction by ZEFSAII (Michael W. Deem and Ramdas Pophale) SiO2 
 PCOD9285361
Probable space group: C 2/C
;
_chemical_formula_sum "Si O2"
_cell_formula_units_Z 48
_cell_length_a 38.315541
_cell_length_b 9.060498
_cell_length_c 16.113440
_cell_angle_alpha 90.000000
_cell_angle_beta 160.350562
_cell_angle_gamma 90.000000
_cell_volume 1881.031487
_symmetry_space_group_name_H-M "C 2/C"
_symmetry_group_IT_number 15
_symmetry_cell_setting 'monoclinic'
loop_
_space_group_symop_operation_xyz
x,y,z
-x,y,1/2-z
-x,-y,-z
x,-y,1/2+z
1/2+x,1/2+y,z
1/2-x,1/2+y,1/2-z
1/2-x,1/2-y,-z
1/2+x,1/2-y,1/2+z
loop_
_atom_site_type_symbol
_atom_site_label
_atom_site_fract_x
_atom_site_fract_y
_atom_site_fract_z
Si Si1 0.277899 0.989103 0.797951
Si Si2 0.924562 0.684002 0.513226
Si Si3 0.504646 0.668652 0.030929
Si Si4 0.295942 0.145893 0.511678
Si Si5 0.957442 0.582597 0.985564
Si Si6 0.621251 0.303445 0.517505
O O1 0.321643 0.867374 0.830846
O O2 0.315720 0.153356 0.863300
O O3 0.158266 0.941286 0.544126
O O4 0.318664 0.955921 0.982745
O O5 0.970151 0.521806 0.591205
O O6 0.930986 0.776522 0.442171
O O7 0.000000 0.755376 0.750000
O O8 0.622927 0.719236 0.318747
O O9 0.500000 0.500000 0.000000
O O10 0.487403 0.762203 0.906994
O O11 0.334096 0.085547 0.685221
O O12 0.173726 0.165927 0.225679
O O13 0.000000 0.500000 0.000000
O O14 0.500000 0.284050 0.250000
#
# Coordination Sequence:
#
# PCOD9285361 Si02
#       6
#     8   8   8   8   8   8
#     4  10  21  41  71 111 145 195 275 320 379 457
#     4  11  17  35  68 107 147 202 268 326 378 460
#     4   9  18  36  65 108 159 206 247 317 396 464
#     4   8  19  39  66 102 153 199 258 309 371 482
#     4   8  16  33  63  99 148 213 250 297 395 466
#     4  10  22  43  76 111 154 203 259 322 393 456
#
# _framework density 25.517914000000001
#
# number of rings (size 3 to 8) (size 9 to 14) (size 15 to 20)
#    2.000    0.667    1.667    0.500    0.000    0.000 
#    0.000   13.333    0.000    3.000    0.000    1.167 
#    0.000    0.000    0.000    0.000    0.000    0.000 
#
# Total GULP energy -133636.972358 kJ/mol
# GULP energy per Si atom -5568.207182 kJ/mol
# Density = 2.545983 g / cm^3
# Si number density = 25.517914 Si / 1000 Ang^3
#
#
#
# Elastic Constant Matrix: (Units=GPa)
#
#
# Indices 1 2 3 4 5 6 
#
# 1 114.0753 16.6334 5.1831 0.0000 4.4654 0.0000
# 2 16.6334 107.1449 4.4688 0.0000 12.7838 0.0000
# 3 5.1831 4.4688 87.6478 0.0000 23.9382 0.0000
# 4 0.0000 0.0000 0.0000 20.3448 0.0000 1.0519
# 5 4.4654 12.7838 23.9382 0.0000 37.6715 0.0000
# 6 0.0000 0.0000 0.0000 1.0519 0.0000 18.0565
#
#
#
# Elastic Compliance Matrix: (Units=1/GPa)
#
#
# Indices 1 2 3 4 5 6 
#
# 1 0.008992 -0.001335 -0.000359 0.000000 -0.000385 0.000000
# 2 -0.001335 0.009943 0.000545 0.000000 -0.003562 0.000000
# 3 -0.000359 0.000545 0.013844 0.000000 -0.008940 0.000000
# 4 0.000000 0.000000 0.000000 0.049301 0.000000 -0.002872
# 5 -0.000385 -0.003562 -0.008940 0.000000 0.033480 0.000000
# 6 0.000000 0.000000 0.000000 -0.002872 0.000000 0.055549
#
#
# Mechanical properties :
#
#
# Convention : Reuss Voigt Hill
#
# Bulk Modulus (GPa) = 32.80658 40.15985 36.48322
# Shear Modulus (GPa) = 27.23793 34.05342 30.64568
#
# Velocity S-wave (km/s) = 3.27066 3.65703 3.46923
# Velocity P-wave (km/s) = 5.21029 5.79689 5.51140
#
# Compressibility (1/GPa) = 0.03048169
#
# Stress axis : x y z
#
# Youngs Moduli (GPa) = 111.20788 100.57640 72.23186
#
# Poissons Ratio (x) = 0.13428 0.02590
# Poissons Ratio (y) = 0.14847 -0.03936
# Poissons Ratio (z) = 0.03987 -0.05480
#
# Static dielectric constant tensor:
#      x y z
#    x 2.050610 0.000000 0.034060 
#    y 0.000000 2.120800 0.000000 
#    z 0.034060 0.000000 2.120090 
# 
# From -- ./inp_files/126916.got.cif
#   From: 2010.05.17/outbox.cif.g08.bks.cpg/sg15_64_cif.got.tgz:126916.got - 2010.06.03 18:47:42.
