data_PCOD9285243
_publ_section_title
;
Structure prediction by ZEFSAII (Michael W. Deem and Ramdas Pophale) SiO2 
 PCOD9285243
Probable space group: C 2/C
;
_chemical_formula_sum "Si O2"
_cell_formula_units_Z 40
_cell_length_a 16.157546
_cell_length_b 9.196578
_cell_length_c 22.071992
_cell_angle_alpha 90.000000
_cell_angle_beta 147.891399
_cell_angle_gamma 90.000000
_cell_volume 1743.281376
_symmetry_space_group_name_H-M "C 2/C"
_symmetry_group_IT_number 15
_symmetry_cell_setting 'monoclinic'
loop_
_space_group_symop_operation_xyz
x,y,z
-x,y,1/2-z
-x,-y,-z
x,-y,1/2+z
1/2+x,1/2+y,z
1/2-x,1/2+y,1/2-z
1/2-x,1/2-y,-z
1/2+x,1/2-y,1/2+z
loop_
_atom_site_type_symbol
_atom_site_label
_atom_site_fract_x
_atom_site_fract_y
_atom_site_fract_z
Si Si1 0.500000 0.500000 0.000000
Si Si2 0.293195 0.463258 0.980976
Si Si3 0.326220 0.342677 0.132030
Si Si4 0.281981 0.787432 0.219006
Si Si5 0.000000 0.357416 0.250000
Si Si6 0.345936 0.018727 0.865753
O O1 0.564197 0.473666 0.968990
O O2 0.644683 0.397407 0.114050
O O3 0.279331 0.298538 0.945712
O O4 0.131702 0.545275 0.865417
O O5 0.315380 0.445372 0.066439
O O6 0.500000 0.288257 0.250000
O O7 0.277372 0.420638 0.162933
O O8 0.401981 0.767812 0.238267
O O9 0.206487 0.636318 0.191811
O O10 0.369230 0.865107 0.327911
O O11 0.500000 0.000000 0.000000
#
# Coordination Sequence:
#
# PCOD9285243 Si02
#       6
#     4   8   8   8   4   8
#     4  10  22  44  70 102 140 188 236 294 360 424
#     4  10  21  41  68  99 137 185 231 292 356 427
#     4  11  23  40  67 100 139 183 238 286 352 430
#     4  11  27  46  75 104 148 192 241 302 363 431
#     4  10  22  44  68 100 140 182 236 296 360 420
#     4  12  28  47  74 107 147 191 247 299 365 434
#
# _framework density 22.945233999999999
#
# number of rings (size 3 to 8) (size 9 to 14) (size 15 to 20)
#    0.000    1.200    1.000    3.600    9.800    3.200 
#    0.000    3.000    0.000    0.000    0.000    0.000 
#    0.000    0.000    0.000    0.000    0.000    0.000 
#
# Total GULP energy -111437.651747 kJ/mol
# GULP energy per Si atom -5571.882587 kJ/mol
# Density = 2.289301 g / cm^3
# Si number density = 22.945234 Si / 1000 Ang^3
#
#
#
# Elastic Constant Matrix: (Units=GPa)
#
#
# Indices 1 2 3 4 5 6 
#
# 1 57.9100 7.3306 10.2095 0.0000 4.1596 0.0000
# 2 7.3306 56.9619 17.6644 -0.0001 -1.9817 0.0000
# 3 10.2095 17.6644 58.2467 -0.0002 -7.3594 -0.0001
# 4 0.0000 -0.0001 -0.0002 19.3129 -0.0001 -6.6133
# 5 4.1596 -1.9817 -7.3594 -0.0001 42.7556 0.0000
# 6 0.0000 0.0000 -0.0001 -6.6133 0.0000 13.5274
#
#
#
# Elastic Compliance Matrix: (Units=1/GPa)
#
#
# Indices 1 2 3 4 5 6 
#
# 1 0.018159 -0.001479 -0.003032 0.000000 -0.002357 0.000000
# 2 -0.001479 0.019499 -0.005645 0.000000 0.000076 0.000000
# 3 -0.003032 -0.005645 0.019848 0.000000 0.003450 0.000000
# 4 0.000000 0.000000 0.000000 0.062190 0.000000 0.030403
# 5 -0.002357 0.000076 0.003450 0.000000 0.024215 0.000000
# 6 0.000000 0.000000 0.000000 0.030403 0.000000 0.088788
#
#
# Mechanical properties :
#
#
# Convention : Reuss Voigt Hill
#
# Bulk Modulus (GPa) = 26.88565 27.05862 26.97214
# Shear Modulus (GPa) = 18.83890 24.31346 21.57618
#
# Velocity S-wave (km/s) = 2.86848 3.25873 3.06981
# Velocity P-wave (km/s) = 4.76589 5.09680 4.93412
#
# Compressibility (1/GPa) = 0.03719456
#
# Stress axis : x y z
#
# Youngs Moduli (GPa) = 55.06831 51.28468 50.38399
#
# Poissons Ratio (x) = 0.07583 0.15278
# Poissons Ratio (y) = 0.08142 0.28440
# Poissons Ratio (z) = 0.16699 0.28949
#
# Static dielectric constant tensor:
#      x y z
#    x 1.815730 0.000000 -0.011040 
#    y 0.000000 1.848600 0.000000 
#    z -0.011040 0.000000 1.831160 
# 
# From -- ./inp_files/204275.got.cif
#   From: 2010.05.17/outbox.cif.g08.bks.cpg/sg15_103_cif.got.tgz:204275.got - 2010.06.03 18:47:42.
