data_PCOD9285708
_publ_section_title
;
Structure prediction by ZEFSAII (Michael W. Deem and Ramdas Pophale) SiO2 
 PCOD9285708
Probable space group: C 2/C
;
_chemical_formula_sum "Si O2"
_cell_formula_units_Z 40
_cell_length_a 26.384890
_cell_length_b 9.898221
_cell_length_c 7.299124
_cell_angle_alpha 90.000000
_cell_angle_beta 112.749195
_cell_angle_gamma 90.000000
_cell_volume 1757.969394
_symmetry_space_group_name_H-M "C 2/C"
_symmetry_group_IT_number 15
_symmetry_cell_setting 'monoclinic'
loop_
_space_group_symop_operation_xyz
x,y,z
-x,y,1/2-z
-x,-y,-z
x,-y,1/2+z
1/2+x,1/2+y,z
1/2-x,1/2+y,1/2-z
1/2-x,1/2-y,-z
1/2+x,1/2-y,1/2+z
loop_
_atom_site_type_symbol
_atom_site_label
_atom_site_fract_x
_atom_site_fract_y
_atom_site_fract_z
Si Si1 0.312374 0.326599 0.793176
Si Si2 0.201725 0.403281 0.516162
Si Si3 0.651362 0.181269 0.317857
Si Si4 0.044218 0.815482 0.083941
Si Si5 0.068214 0.877970 0.698390
O O1 0.263623 0.428168 0.674047
O O2 0.297208 0.189100 0.662949
O O3 0.371696 0.366858 0.800760
O O4 0.318944 0.293438 0.015731
O O5 0.167926 0.537088 0.424724
O O6 0.173262 0.321404 0.641564
O O7 0.586268 0.210248 0.230482
O O8 0.053621 0.963640 0.181433
O O9 0.062927 0.826370 0.897649
O O10 0.978470 0.799154 0.983887
#
# Coordination Sequence:
#
# PCOD9285708 Si02
#       5
#     8   8   8   8   8
#     4  11  24  42  68  91 135 174 218 278 323 397
#     4  11  25  42  63  98 131 175 224 268 329 397
#     4  12  23  45  69  95 137 176 223 275 333 398
#     4  10  22  39  70  98 135 169 217 286 324 398
#     4  10  21  42  66 103 130 168 225 271 340 387
#
# _framework density 22.753525
#
# number of rings (size 3 to 8) (size 9 to 14) (size 15 to 20)
#    0.000    1.200    4.000    1.800    0.000    7.200 
#    0.000    1.000    4.400    0.000    0.000    0.000 
#    0.000    0.000    0.000    0.000    0.000    0.000 
#
# Total GULP energy -111911.500879 kJ/mol
# GULP energy per Si atom -5595.575044 kJ/mol
# Density = 2.270174 g / cm^3
# Si number density = 22.753525 Si / 1000 Ang^3
#
#
#
# Elastic Constant Matrix: (Units=GPa)
#
#
# Indices 1 2 3 4 5 6 
#
# 1 134.4177 33.9120 46.2667 0.0000 36.6877 0.0000
# 2 33.9120 59.6440 46.1862 0.0000 21.5341 0.0000
# 3 46.2667 46.1862 115.1485 0.0000 24.5664 0.0000
# 4 0.0000 0.0000 0.0000 36.1037 0.0000 6.6485
# 5 36.6877 21.5341 24.5664 0.0000 50.6453 0.0000
# 6 0.0000 0.0000 0.0000 6.6485 0.0000 33.2262
#
#
#
# Elastic Compliance Matrix: (Units=1/GPa)
#
#
# Indices 1 2 3 4 5 6 
#
# 1 0.010192 -0.002261 -0.002028 0.000000 -0.005438 0.000000
# 2 -0.002261 0.026739 -0.008634 0.000000 -0.005543 0.000000
# 3 -0.002028 -0.008634 0.013235 0.000000 -0.001280 0.000000
# 4 0.000000 0.000000 0.000000 0.028758 0.000000 -0.005754
# 5 -0.005438 -0.005543 -0.001280 0.000000 0.026662 0.000000
# 6 0.000000 0.000000 0.000000 -0.005754 0.000000 0.031248
#
#
# Mechanical properties :
#
#
# Convention : Reuss Voigt Hill
#
# Bulk Modulus (GPa) = 41.11780 62.43779 51.77779
# Shear Modulus (GPa) = 29.27608 36.18472 32.73040
#
# Velocity S-wave (km/s) = 3.59090 3.99217 3.79684
# Velocity P-wave (km/s) = 5.94163 6.98215 6.48280
#
# Compressibility (1/GPa) = 0.02432037
#
# Stress axis : x y z
#
# Youngs Moduli (GPa) = 98.11308 37.39872 75.55482
#
# Poissons Ratio (x) = 0.08457 0.15323
# Poissons Ratio (y) = 0.22185 0.65233
# Poissons Ratio (z) = 0.19898 0.32289
#
# Static dielectric constant tensor:
#      x y z
#    x 1.857240 0.000000 0.009590 
#    y 0.000000 1.809180 0.000000 
#    z 0.009590 0.000000 1.896570 
# 
# From -- ./inp_files/64929.got.cif
#   From: 2010.05.17/outbox.cif.g08.bks.cpg/sg15_33_cif.got.tgz:64929.got - 2010.06.03 18:47:42.
