data_PCOD9285699
_publ_section_title
;
Structure prediction by ZEFSAII (Michael W. Deem and Ramdas Pophale) SiO2 
 PCOD9285699
Probable space group: C 2/C
;
_chemical_formula_sum "Si O2"
_cell_formula_units_Z 28
_cell_length_a 12.036800
_cell_length_b 10.072615
_cell_length_c 8.160753
_cell_angle_alpha 90.000000
_cell_angle_beta 95.827556
_cell_angle_gamma 90.000000
_cell_volume 984.313077
_symmetry_space_group_name_H-M "C 2/C"
_symmetry_group_IT_number 15
_symmetry_cell_setting 'monoclinic'
loop_
_space_group_symop_operation_xyz
x,y,z
-x,y,1/2-z
-x,-y,-z
x,-y,1/2+z
1/2+x,1/2+y,z
1/2-x,1/2+y,1/2-z
1/2-x,1/2-y,-z
1/2+x,1/2-y,1/2+z
loop_
_atom_site_type_symbol
_atom_site_label
_atom_site_fract_x
_atom_site_fract_y
_atom_site_fract_z
Si Si1 0.874563 0.804566 0.689909
Si Si2 0.000000 0.403773 0.750000
Si Si3 0.846000 0.396724 0.440387
Si Si4 0.629583 0.528024 0.569377
O O1 0.806895 0.709798 0.799649
O O2 0.858378 0.820195 0.494009
O O3 0.000000 0.757941 0.750000
O O4 0.868376 0.956071 0.754625
O O5 0.084111 0.494644 0.653304
O O6 0.924725 0.336280 0.597108
O O7 0.741922 0.461312 0.514814
O O8 0.500000 0.500000 0.500000
#
# Coordination Sequence:
#
# PCOD9285699 Si02
#       4
#     8   4   8   8
#     4  10  21  42  65  98 139 178 223 280 341 402
#     4  10  24  40  70  98 134 178 234 284 322 404
#     4  11  21  44  67 100 135 179 230 279 338 402
#     4  10  22  40  69  97 138 174 219 285 339 406
#
# _framework density 28.446232999999999
#
# number of rings (size 3 to 8) (size 9 to 14) (size 15 to 20)
#    0.000    1.714    1.429    2.571    0.000    0.000 
#   12.857    5.714    0.000    5.143    0.000    0.000 
#    0.000    0.000    0.000    0.000    0.000    0.000 
#
# Total GULP energy -78091.387438 kJ/mol
# GULP energy per Si atom -5577.956246 kJ/mol
# Density = 2.838149 g / cm^3
# Si number density = 28.446233 Si / 1000 Ang^3
#
#
#
# Elastic Constant Matrix: (Units=GPa)
#
#
# Indices 1 2 3 4 5 6 
#
# 1 172.5757 17.7014 65.4538 0.0000 -31.3730 0.0000
# 2 17.7014 59.0620 19.6223 0.0000 -3.4950 0.0000
# 3 65.4538 19.6223 153.5835 0.0000 26.0552 0.0000
# 4 0.0000 0.0000 0.0000 45.1815 0.0000 -21.5777
# 5 -31.3730 -3.4950 26.0552 0.0000 84.2096 0.0000
# 6 0.0000 0.0000 0.0000 -21.5777 0.0000 37.6261
#
#
#
# Elastic Compliance Matrix: (Units=1/GPa)
#
#
# Indices 1 2 3 4 5 6 
#
# 1 0.008231 -0.000839 -0.004132 0.000000 0.004310 0.000000
# 2 -0.000839 0.017952 -0.002121 0.000000 0.001089 0.000000
# 3 -0.004132 -0.002121 0.009308 0.000000 -0.004507 0.000000
# 4 0.000000 0.000000 0.000000 0.030481 0.000000 0.017480
# 5 0.004310 0.001089 -0.004507 0.000000 0.014921 0.000000
# 6 0.000000 0.000000 0.000000 0.017480 0.000000 0.036602
#
#
# Mechanical properties :
#
#
# Convention : Reuss Voigt Hill
#
# Bulk Modulus (GPa) = 46.93243 65.64181 56.28712
# Shear Modulus (GPa) = 36.02800 52.23301 44.13051
#
# Velocity S-wave (km/s) = 3.56269 4.28974 3.94301
# Velocity P-wave (km/s) = 5.78431 6.90374 6.36867
#
# Compressibility (1/GPa) = 0.02130723
#
# Stress axis : x y z
#
# Youngs Moduli (GPa) = 121.48571 55.70471 107.43777
#
# Poissons Ratio (x) = 0.04674 0.44394
# Poissons Ratio (y) = 0.10194 0.22784
# Poissons Ratio (z) = 0.50199 0.11813
#
# Static dielectric constant tensor:
#      x y z
#    x 2.256830 0.000000 -0.010100 
#    y 0.000000 2.278330 0.000000 
#    z -0.010100 0.000000 2.318070 
# 
# From -- ./inp_files/27025.got.cif
#   From: 2010.05.17/outbox.cif.g08.bks.cpg/sg15_14_cif.got.tgz:27025.got - 2010.06.03 18:47:42.
