data_PCOD9285342
_publ_section_title
;
Structure prediction by ZEFSAII (Michael W. Deem and Ramdas Pophale) SiO2 
 PCOD9285342
Probable space group: C 2/C
;
_chemical_formula_sum "Si O2"
_cell_formula_units_Z 32
_cell_length_a 14.310909
_cell_length_b 9.943498
_cell_length_c 12.934186
_cell_angle_alpha 90.000000
_cell_angle_beta 45.559906
_cell_angle_gamma 90.000000
_cell_volume 1314.114851
_symmetry_space_group_name_H-M "C 2/C"
_symmetry_group_IT_number 15
_symmetry_cell_setting 'monoclinic'
loop_
_space_group_symop_operation_xyz
x,y,z
-x,y,1/2-z
-x,-y,-z
x,-y,1/2+z
1/2+x,1/2+y,z
1/2-x,1/2+y,1/2-z
1/2-x,1/2-y,-z
1/2+x,1/2-y,1/2+z
loop_
_atom_site_type_symbol
_atom_site_label
_atom_site_fract_x
_atom_site_fract_y
_atom_site_fract_z
Si Si1 0.899399 0.715854 0.254303
Si Si2 0.165052 0.424597 0.155981
Si Si3 0.611460 0.799594 0.411526
Si Si4 0.556954 0.668278 0.106218
O O1 0.865741 0.578306 0.342660
O O2 0.757908 0.780189 0.340532
O O3 0.000000 0.794583 0.250000
O O4 0.989669 0.684046 0.083942
O O5 0.119546 0.403404 0.309744
O O6 0.110038 0.314326 0.114531
O O7 0.318318 0.399798 0.037382
O O8 0.560820 0.673130 0.383426
O O9 0.500000 0.597656 0.250000
#
# Coordination Sequence:
#
# PCOD9285342 Si02
#       4
#     8   8   8   8
#     4  12  25  42  63  92 131 179 214 258 318 379
#     4  10  21  41  70  98 123 166 220 262 323 376
#     4  11  22  43  65  92 136 165 217 261 319 383
#     4   9  19  40  69  98 128 155 211 282 308 378
#
# _framework density 24.350992000000002
#
# number of rings (size 3 to 8) (size 9 to 14) (size 15 to 20)
#    0.000    1.500    2.500    3.750    0.000    1.000 
#    0.000    1.250    0.000    0.000    0.000    0.000 
#    0.000    0.000    0.000    0.000    0.000    0.000 
#
# Total GULP energy -89109.982153 kJ/mol
# GULP energy per Si atom -5569.373885 kJ/mol
# Density = 2.429557 g / cm^3
# Si number density = 24.350992 Si / 1000 Ang^3
#
#
#
# Elastic Constant Matrix: (Units=GPa)
#
#
# Indices 1 2 3 4 5 6 
#
# 1 175.6268 24.8573 13.6807 0.0000 -34.4410 0.0000
# 2 24.8573 74.7353 5.5797 0.0000 -0.4052 0.0000
# 3 13.6807 5.5797 130.9557 0.0000 -13.1558 0.0000
# 4 0.0000 0.0000 0.0000 43.0003 0.0000 -110.8194
# 5 -34.4410 -0.4052 -13.1558 0.0000 40.9905 0.0000
# 6 0.0000 0.0000 0.0000 -110.8194 0.0000 178.5868
#
#
#
# Elastic Compliance Matrix: (Units=1/GPa)
#
#
# Indices 1 2 3 4 5 6 
#
# 1 0.007213 -0.002363 -0.000048 0.000000 0.006022 0.000000
# 2 -0.002363 0.014197 -0.000562 0.000000 -0.002025 0.000000
# 3 -0.000048 -0.000562 0.007916 0.000000 0.002495 0.000000
# 4 0.000000 0.000000 0.000000 -0.038809 0.000000 -0.024083
# 5 0.006022 -0.002025 0.002495 0.000000 0.030236 0.000000
# 6 0.000000 0.000000 0.000000 -0.024083 0.000000 -0.009345
#
#
# Mechanical properties :
#
#
# Convention : Reuss Voigt Hill
#
# Bulk Modulus (GPa) = 42.76883 52.17257 47.47070
# Shear Modulus (GPa) = 198.83413 74.99554 136.91484
#
# Velocity S-wave (km/s) = 9.04603 5.55559 7.50651
# Velocity P-wave (km/s) = 11.25652 7.91357 9.72969
#
# Compressibility (1/GPa) = 0.02338152
#
# Stress axis : x y z
#
# Youngs Moduli (GPa) = 138.64017 70.43549 126.33088
#
# Poissons Ratio (x) = 0.16643 0.00605
# Poissons Ratio (y) = 0.32758 0.07094
# Poissons Ratio (z) = 0.00664 0.03955
#
# Static dielectric constant tensor:
#      x y z
#    x 1.999480 0.000000 0.026510 
#    y 0.000000 2.012790 0.000000 
#    z 0.026510 0.000000 2.008050 
# 
# From -- ./inp_files/94291.got.cif
#   From: 2010.05.17/outbox.cif.g08.bks.cpg/sg15_48_cif.got.tgz:94291.got - 2010.06.03 18:47:42.
