data_PCOD9285013
_publ_section_title
;
Structure prediction by ZEFSAII (Michael W. Deem and Ramdas Pophale) SiO2 
 PCOD9285013
Probable space group: C 2/C
;
_chemical_formula_sum "Si O2"
_cell_formula_units_Z 64
_cell_length_a 21.424525
_cell_length_b 23.538665
_cell_length_c 15.536014
_cell_angle_alpha 90.000000
_cell_angle_beta 159.234205
_cell_angle_gamma 90.000000
_cell_volume 2777.849263
_symmetry_space_group_name_H-M "C 2/C"
_symmetry_group_IT_number 15
_symmetry_cell_setting 'monoclinic'
loop_
_space_group_symop_operation_xyz
x,y,z
-x,y,1/2-z
-x,-y,-z
x,-y,1/2+z
1/2+x,1/2+y,z
1/2-x,1/2+y,1/2-z
1/2-x,1/2-y,-z
1/2+x,1/2-y,1/2+z
loop_
_atom_site_type_symbol
_atom_site_label
_atom_site_fract_x
_atom_site_fract_y
_atom_site_fract_z
Si Si1 0.361475 0.873974 0.354521
Si Si2 0.168203 0.965559 0.679329
Si Si3 0.408128 0.296947 0.049269
Si Si4 0.181162 0.528794 0.474293
Si Si5 0.468828 0.751214 0.954170
Si Si6 0.466826 0.638533 0.392486
Si Si7 0.748852 0.917416 0.893881
Si Si8 0.813347 0.072582 0.037413
O O1 0.422954 0.808973 0.419065
O O2 0.177483 0.875014 0.170842
O O3 0.538563 0.905194 0.614881
O O4 0.297572 0.901732 0.182831
O O5 0.205977 0.961395 0.626403
O O6 0.136469 0.901159 0.672188
O O7 0.302771 0.002395 0.908872
O O8 0.000000 0.000000 0.500000
O O9 0.500000 0.268932 0.250000
O O10 0.542639 0.287833 0.146029
O O11 0.229902 0.269000 0.783888
O O12 0.347382 0.359328 0.997937
O O13 0.293727 0.566422 0.551293
O O14 0.193329 0.470884 0.434790
O O15 0.000000 0.561526 0.250000
O O16 0.552302 0.705968 0.126054
O O17 0.387955 0.618912 0.200058
O O18 0.000000 0.044599 0.250000
#
# Coordination Sequence:
#
# PCOD9285013 Si02
#       8
#     8   8   8   8   8   8   8   8
#     4  10  22  41  65  95 132 173 218 269 337 394
#     4  11  26  42  69  97 130 176 219 279 335 396
#     4  11  24  42  65  96 128 172 219 275 332 400
#     4  11  26  43  64  99 134 174 229 273 333 402
#     4  11  21  42  67  91 129 170 214 273 333 390
#     4  10  21  41  66  94 130 166 222 270 326 400
#     4  11  26  43  69  96 136 182 219 280 337 397
#     4   9  21  40  65  95 129 170 215 276 328 397
#
# _framework density 23.039407000000001
#
# number of rings (size 3 to 8) (size 9 to 14) (size 15 to 20)
#    0.000    1.500    2.500    1.125    8.750    1.500 
#    0.000    1.250    0.000    0.000    0.000    0.000 
#    0.000    0.000    0.000    0.000    0.000    0.000 
#
# Total GULP energy -178271.993401 kJ/mol
# GULP energy per Si atom -5570.999794 kJ/mol
# Density = 2.298697 g / cm^3
# Si number density = 23.039407 Si / 1000 Ang^3
#
#
#
# Elastic Constant Matrix: (Units=GPa)
#
#
# Indices 1 2 3 4 5 6 
#
# 1 53.4404 18.8413 9.4562 0.0000 15.0983 0.0000
# 2 18.8413 101.4400 14.3675 0.0000 2.3920 0.0000
# 3 9.4562 14.3675 80.1252 -0.0001 -0.9288 0.0000
# 4 0.0000 0.0000 -0.0001 15.1015 0.0000 -6.8449
# 5 15.0983 2.3920 -0.9288 0.0000 15.7585 0.0000
# 6 0.0000 0.0000 0.0000 -6.8449 0.0000 23.4848
#
#
#
# Elastic Compliance Matrix: (Units=1/GPa)
#
#
# Indices 1 2 3 4 5 6 
#
# 1 0.028209 -0.004205 -0.002883 0.000000 -0.026559 0.000000
# 2 -0.004205 0.010784 -0.001411 0.000000 0.002309 0.000000
# 3 -0.002883 -0.001411 0.013117 0.000000 0.003749 0.000000
# 4 0.000000 0.000000 0.000000 0.076298 0.000000 0.022238
# 5 -0.026559 0.002309 0.003749 0.000000 0.088775 0.000000
# 6 0.000000 0.000000 0.000000 0.022238 0.000000 0.049062
#
#
# Mechanical properties :
#
#
# Convention : Reuss Voigt Hill
#
# Bulk Modulus (GPa) = 28.47953 35.59285 32.03619
# Shear Modulus (GPa) = 16.95224 23.69166 20.32195
#
# Velocity S-wave (km/s) = 2.71549 3.21021 2.97316
# Velocity P-wave (km/s) = 4.71380 5.40581 5.07162
#
# Compressibility (1/GPa) = 0.03511294
#
# Stress axis : x y z
#
# Youngs Moduli (GPa) = 35.45027 92.72634 76.23610
#
# Poissons Ratio (x) = 0.38990 0.21979
# Poissons Ratio (y) = 0.14906 0.10755
# Poissons Ratio (z) = 0.10220 0.13082
#
# Static dielectric constant tensor:
#      x y z
#    x 2.129480 0.000000 -0.823610 
#    y 0.000000 1.877350 0.000000 
#    z -0.823610 0.000000 5.005430 
# 
# From -- ./inp_files/220300.got.cif
#   From: 2010.05.17/outbox.cif.g08.bks.cpg/sg15_111_cif.got.tgz:220300.got - 2010.06.03 18:47:42.
