data_PCOD9285897
_publ_section_title
;
Structure prediction by ZEFSAII (Michael W. Deem and Ramdas Pophale) SiO2 
 PCOD9285897
Probable space group: C 2/C
;
_chemical_formula_sum "Si O2"
_cell_formula_units_Z 52
_cell_length_a 12.255229
_cell_length_b 8.443858
_cell_length_c 22.790085
_cell_angle_alpha 90.000000
_cell_angle_beta 81.545284
_cell_angle_gamma 90.000000
_cell_volume 2332.720546
_symmetry_space_group_name_H-M "C 2/C"
_symmetry_group_IT_number 15
_symmetry_cell_setting 'monoclinic'
loop_
_space_group_symop_operation_xyz
x,y,z
-x,y,1/2-z
-x,-y,-z
x,-y,1/2+z
1/2+x,1/2+y,z
1/2-x,1/2+y,1/2-z
1/2-x,1/2-y,-z
1/2+x,1/2-y,1/2+z
loop_
_atom_site_type_symbol
_atom_site_label
_atom_site_fract_x
_atom_site_fract_y
_atom_site_fract_z
Si Si1 0.712785 0.335255 0.246275
Si Si2 0.000000 0.626135 0.250000
Si Si3 0.591038 0.844595 0.173356
Si Si4 0.839234 0.886044 0.478998
Si Si5 0.767595 0.804688 0.932136
Si Si6 0.920175 0.894306 0.081937
Si Si7 0.881549 0.875704 0.693670
O O1 0.804592 0.334308 0.290780
O O2 0.666978 0.514399 0.249779
O O3 0.604027 0.229800 0.260701
O O4 0.785103 0.253473 0.189038
O O5 0.038441 0.513507 0.193421
O O6 0.637668 0.800105 0.105973
O O7 0.493425 0.720539 0.192111
O O8 0.750000 0.750000 0.500000
O O9 0.957862 0.837068 0.444022
O O10 0.793796 0.011302 0.434816
O O11 0.872601 0.988776 0.534397
O O12 0.656691 0.758600 0.907914
O O13 0.750000 0.750000 0.000000
O O14 0.907324 0.998919 0.140783
#
# Coordination Sequence:
#
# PCOD9285897 Si02
#       7
#     8   4   8   8   8   8   8
#     4  12  25  44  67 100 131 173 223 273 338 401
#     4  12  26  44  68 100 134 172 230 276 334 406
#     4  12  23  46  66  97 136 179 223 277 340 394
#     4  10  22  42  65  97 127 171 220 267 328 391
#     4  10  21  42  68  91 135 176 214 275 332 386
#     4  10  21  43  64  93 132 169 215 271 325 389
#     4  12  23  45  69  95 138 178 217 281 335 400
#
# _framework density 22.291568999999999
#
# number of rings (size 3 to 8) (size 9 to 14) (size 15 to 20)
#    0.000    0.923    6.154    0.000    2.154    0.615 
#   13.846    0.000    0.000    0.000    0.000    0.000 
#    0.000    0.000    0.000    0.000    0.000    0.000 
#
# Total GULP energy -145086.126967 kJ/mol
# GULP energy per Si atom -5580.235653 kJ/mol
# Density = 2.224083 g / cm^3
# Si number density = 22.291569 Si / 1000 Ang^3
#
#
#
# Elastic Constant Matrix: (Units=GPa)
#
#
# Indices 1 2 3 4 5 6 
#
# 1 177.5653 59.3582 11.5271 0.0000 -29.7230 0.0000
# 2 59.3582 78.5882 -10.5210 0.0000 -10.7020 0.0000
# 3 11.5271 -10.5210 37.3096 0.0000 -24.6123 0.0000
# 4 0.0000 0.0000 0.0000 25.4004 0.0000 -7.3583
# 5 -29.7230 -10.7020 -24.6123 0.0000 37.0500 0.0000
# 6 0.0000 0.0000 0.0000 -7.3583 0.0000 57.5337
#
#
#
# Elastic Compliance Matrix: (Units=1/GPa)
#
#
# Indices 1 2 3 4 5 6 
#
# 1 0.008418 -0.006086 -0.001819 0.000000 0.003787 0.000000
# 2 -0.006086 0.020883 0.015180 0.000000 0.011234 0.000000
# 3 -0.001819 0.015180 0.059766 0.000000 0.042628 0.000000
# 4 0.000000 0.000000 0.000000 0.040884 0.000000 0.005229
# 5 0.003787 0.011234 0.042628 0.000000 0.061592 0.000000
# 6 0.000000 0.000000 0.000000 0.005229 0.000000 0.018050
#
#
# Mechanical properties :
#
#
# Convention : Reuss Voigt Hill
#
# Bulk Modulus (GPa) = 9.65083 46.02130 27.83606
# Shear Modulus (GPa) = 21.77863 39.53675 30.65769
#
# Velocity S-wave (km/s) = 3.12907 4.21600 3.71253
# Velocity P-wave (km/s) = 4.17056 6.66255 5.55802
#
# Compressibility (1/GPa) = 0.10361807
#
# Stress axis : x y z
#
# Youngs Moduli (GPa) = 118.78893 47.88478 16.73188
#
# Poissons Ratio (x) = 0.29143 0.03043
# Poissons Ratio (y) = 0.72296 -0.25399
# Poissons Ratio (z) = 0.21604 -0.72689
#
# Static dielectric constant tensor:
#      x y z
#    x 1.825110 0.000000 -0.010690 
#    y 0.000000 1.787090 0.000000 
#    z -0.010690 0.000000 1.919380 
# 
# From -- ./inp_files/291128.got.cif
#   From: 2010.05.17/outbox.cif.g08.bks.cpg/sg15_146_cif.got.tgz:291128.got - 2010.06.03 18:47:42.
