data_PCOD9285164
_publ_section_title
;
Structure prediction by ZEFSAII (Michael W. Deem and Ramdas Pophale) SiO2 
 PCOD9285164
Probable space group: C 2/C
;
_chemical_formula_sum "Si O2"
_cell_formula_units_Z 44
_cell_length_a 14.338618
_cell_length_b 23.632980
_cell_length_c 7.717222
_cell_angle_alpha 90.000000
_cell_angle_beta 46.231025
_cell_angle_gamma 90.000000
_cell_volume 1888.448372
_symmetry_space_group_name_H-M "C 2/C"
_symmetry_group_IT_number 15
_symmetry_cell_setting 'monoclinic'
loop_
_space_group_symop_operation_xyz
x,y,z
-x,y,1/2-z
-x,-y,-z
x,-y,1/2+z
1/2+x,1/2+y,z
1/2-x,1/2+y,1/2-z
1/2-x,1/2-y,-z
1/2+x,1/2-y,1/2+z
loop_
_atom_site_type_symbol
_atom_site_label
_atom_site_fract_x
_atom_site_fract_y
_atom_site_fract_z
Si Si1 0.500000 0.540004 0.750000
Si Si2 0.261834 0.975621 0.433388
Si Si3 0.080599 0.105557 0.325391
Si Si4 0.141980 0.588406 0.018984
Si Si5 0.459131 0.723830 0.005692
Si Si6 0.259830 0.707423 0.824425
O O1 0.622724 0.500860 0.557643
O O2 0.492099 0.577747 0.588740
O O3 0.211037 0.931150 0.641080
O O4 0.337244 0.938829 0.196858
O O5 0.334063 0.032424 0.396136
O O6 0.115436 0.167853 0.342345
O O7 0.000000 0.108322 0.250000
O O8 0.236910 0.642460 0.910023
O O9 0.000000 0.609767 0.250000
O O10 0.500000 0.718746 0.750000
O O11 0.596247 0.720156 0.929181
O O12 0.360630 0.775906 0.143497
O O13 0.250000 0.750000 0.000000
#
# Coordination Sequence:
#
# PCOD9285164 Si02
#       6
#     4   8   8   8   8   8
#     4  12  22  42  66 106 144 180 218 296 352 412
#     4  12  24  41  68  99 140 180 231 287 354 418
#     4  12  23  40  68 108 145 175 232 297 352 416
#     4  12  26  45  66  98 142 186 233 287 355 428
#     4  10  21  41  68 100 140 184 236 292 354 416
#     4  10  22  41  68 100 135 187 241 289 353 429
#
# _framework density 23.29955
#
# number of rings (size 3 to 8) (size 9 to 14) (size 15 to 20)
#    0.000    0.727    3.636    6.000    2.545    0.000 
#    0.000    3.636    0.000    0.000    0.000    0.000 
#    0.000    0.000    0.000    0.000    0.000    0.000 
#
# Total GULP energy -122838.581125 kJ/mol
# GULP energy per Si atom -5583.571869 kJ/mol
# Density = 2.324652 g / cm^3
# Si number density = 23.299550 Si / 1000 Ang^3
#
#
#
# Elastic Constant Matrix: (Units=GPa)
#
#
# Indices 1 2 3 4 5 6 
#
# 1 46.8338 15.5585 39.1904 0.0000 -9.6307 0.0000
# 2 15.5585 121.0521 35.6440 0.0000 -5.4358 0.0000
# 3 39.1904 35.6440 107.7610 0.0000 -12.8307 0.0000
# 4 0.0000 0.0000 0.0000 22.2827 0.0000 -2.8853
# 5 -9.6307 -5.4358 -12.8307 0.0000 46.4906 0.0000
# 6 0.0000 0.0000 0.0000 -2.8853 0.0000 42.1423
#
#
#
# Elastic Compliance Matrix: (Units=1/GPa)
#
#
# Indices 1 2 3 4 5 6 
#
# 1 0.031272 -0.000705 -0.010731 0.000000 0.003434 0.000000
# 2 -0.000705 0.009171 -0.002757 0.000000 0.000165 0.000000
# 3 -0.010731 -0.002757 0.014260 0.000000 0.001390 0.000000
# 4 0.000000 0.000000 0.000000 0.045279 0.000000 0.003100
# 5 0.003434 0.000165 0.001390 0.000000 0.022624 0.000000
# 6 0.000000 0.000000 0.000000 0.003100 0.000000 0.023941
#
#
# Mechanical properties :
#
#
# Convention : Reuss Voigt Hill
#
# Bulk Modulus (GPa) = 37.99968 50.71474 44.35721
# Shear Modulus (GPa) = 27.21733 34.53338 30.87535
#
# Velocity S-wave (km/s) = 3.42153 3.85404 3.64421
# Velocity P-wave (km/s) = 5.65276 6.45124 6.06516
#
# Compressibility (1/GPa) = 0.02631601
#
# Stress axis : x y z
#
# Youngs Moduli (GPa) = 31.97736 109.04106 70.12674
#
# Poissons Ratio (x) = 0.07692 0.75252
# Poissons Ratio (y) = 0.02256 0.19336
# Poissons Ratio (z) = 0.34314 0.30065
#
# Static dielectric constant tensor:
#      x y z
#    x 2.015010 0.000000 -0.022750 
#    y 0.000000 1.904720 0.000000 
#    z -0.022750 0.000000 1.896470 
# 
# From -- ./inp_files/43361.got.cif
#   From: 2010.05.17/outbox.cif.g08.bks.cpg/sg15_22_cif.got.tgz:43361.got - 2010.06.03 18:47:42.
