data_PCOD9285974
_publ_section_title
;
Structure prediction by ZEFSAII (Michael W. Deem and Ramdas Pophale) SiO2 
 PCOD9285974
Probable space group: C 2/C
;
_chemical_formula_sum "Si O2"
_cell_formula_units_Z 32
_cell_length_a 16.691162
_cell_length_b 11.224839
_cell_length_c 14.979924
_cell_angle_alpha 90.000000
_cell_angle_beta 28.108746
_cell_angle_gamma 90.000000
_cell_volume 1322.307006
_symmetry_space_group_name_H-M "C 2/C"
_symmetry_group_IT_number 15
_symmetry_cell_setting 'monoclinic'
loop_
_space_group_symop_operation_xyz
x,y,z
-x,y,1/2-z
-x,-y,-z
x,-y,1/2+z
1/2+x,1/2+y,z
1/2-x,1/2+y,1/2-z
1/2-x,1/2-y,-z
1/2+x,1/2-y,1/2+z
loop_
_atom_site_type_symbol
_atom_site_label
_atom_site_fract_x
_atom_site_fract_y
_atom_site_fract_z
Si Si1 0.339672 0.551729 0.043814
Si Si2 0.519611 0.775856 0.836524
Si Si3 0.680402 0.972582 0.371303
Si Si4 0.799799 0.613726 0.970590
O O1 0.311364 0.475805 0.160668
O O2 0.311466 0.468942 0.985679
O O3 0.185530 0.647033 0.193455
O O4 0.501890 0.637988 0.881653
O O5 0.500000 0.776278 0.750000
O O6 0.367842 0.852375 0.029737
O O7 0.500000 0.000000 0.500000
O O8 0.721818 0.072121 0.405722
O O9 0.000000 0.595995 0.750000
O O10 0.750000 0.750000 0.000000
#
# Coordination Sequence:
#
# PCOD9285974 Si02
#       4
#     8   8   8   8
#     4  11  24  42  70  98 132 178 229 284 348 407
#     4  11  21  41  71  93 130 174 227 277 340 405
#     4  10  21  42  69  93 135 178 224 277 358 402
#     4  12  25  45  66  97 140 183 226 287 354 420
#
# _framework density 24.200127999999999
#
# number of rings (size 3 to 8) (size 9 to 14) (size 15 to 20)
#    0.000    1.000    7.500    0.750    3.500    1.000 
#    0.000    1.250    0.000    0.000    0.000    0.000 
#    0.000    0.000    0.000    0.000    0.000    0.000 
#
# Total GULP energy -89549.543654 kJ/mol
# GULP energy per Si atom -5596.846478 kJ/mol
# Density = 2.414505 g / cm^3
# Si number density = 24.200128 Si / 1000 Ang^3
#
#
#
# Elastic Constant Matrix: (Units=GPa)
#
#
# Indices 1 2 3 4 5 6 
#
# 1 151.8704 67.4746 47.3412 0.0000 37.0547 0.0000
# 2 67.4746 160.2788 14.5451 0.0000 7.6736 0.0000
# 3 47.3412 14.5451 63.4879 0.0000 7.6221 0.0000
# 4 0.0000 0.0000 0.0000 48.7466 0.0000 -5.2337
# 5 37.0547 7.6736 7.6221 0.0000 48.7221 0.0000
# 6 0.0000 0.0000 0.0000 -5.2337 0.0000 31.7288
#
#
#
# Elastic Compliance Matrix: (Units=1/GPa)
#
#
# Indices 1 2 3 4 5 6 
#
# 1 0.012791 -0.004319 -0.007605 0.000000 -0.007858 0.000000
# 2 -0.004319 0.007860 0.001196 0.000000 0.001859 0.000000
# 3 -0.007605 0.001196 0.020868 0.000000 0.002331 0.000000
# 4 0.000000 0.000000 0.000000 0.020884 0.000000 0.003445
# 5 -0.007858 0.001859 0.002331 0.000000 0.025843 0.000000
# 6 0.000000 0.000000 0.000000 0.003445 0.000000 0.032085
#
#
# Mechanical properties :
#
#
# Convention : Reuss Voigt Hill
#
# Bulk Modulus (GPa) = 49.84037 70.48430 60.16233
# Shear Modulus (GPa) = 33.67571 42.25791 37.96681
#
# Velocity S-wave (km/s) = 3.73440 4.18327 3.96519
# Velocity P-wave (km/s) = 6.26371 7.24719 6.77333
#
# Compressibility (1/GPa) = 0.02006406
#
# Stress axis : x y z
#
# Youngs Moduli (GPa) = 78.17810 127.23353 47.91986
#
# Poissons Ratio (x) = 0.54946 0.36445
# Poissons Ratio (y) = 0.33761 -0.05733
# Poissons Ratio (z) = 0.59457 -0.15222
#
# Static dielectric constant tensor:
#      x y z
#    x 1.793980 0.000000 -0.088740 
#    y 0.000000 1.191040 0.000000 
#    z -0.088740 0.000000 2.014260 
# 
# From -- ./inp_files/36855.got.cif
#   From: 2010.05.17/outbox.cif.g08.bks.cpg/sg15_19_cif.got.tgz:36855.got - 2010.06.03 18:47:42.
