data_PCOD9285109
_publ_section_title
;
Structure prediction by ZEFSAII (Michael W. Deem and Ramdas Pophale) SiO2 
 PCOD9285109
Probable space group: C 2/C
;
_chemical_formula_sum "Si O2"
_cell_formula_units_Z 40
_cell_length_a 7.633429
_cell_length_b 16.661911
_cell_length_c 13.171729
_cell_angle_alpha 90.000000
_cell_angle_beta 103.102830
_cell_angle_gamma 90.000000
_cell_volume 1631.663190
_symmetry_space_group_name_H-M "C 2/C"
_symmetry_group_IT_number 15
_symmetry_cell_setting 'monoclinic'
loop_
_space_group_symop_operation_xyz
x,y,z
-x,y,1/2-z
-x,-y,-z
x,-y,1/2+z
1/2+x,1/2+y,z
1/2-x,1/2+y,1/2-z
1/2-x,1/2-y,-z
1/2+x,1/2-y,1/2+z
loop_
_atom_site_type_symbol
_atom_site_label
_atom_site_fract_x
_atom_site_fract_y
_atom_site_fract_z
Si Si1 0.400737 0.201777 0.628798
Si Si2 0.186552 0.031843 0.981333
Si Si3 0.483006 0.311464 0.129507
Si Si4 0.030658 0.357392 0.924246
Si Si5 0.339392 0.382402 0.657593
O O1 0.500000 0.182439 0.750000
O O2 0.187072 0.184800 0.612057
O O3 0.470344 0.157391 0.535897
O O4 0.416483 0.299420 0.619193
O O5 0.133782 0.114574 0.922270
O O6 0.231246 0.957889 0.915798
O O7 0.349300 0.063259 0.072123
O O8 0.000000 0.000000 0.000000
O O9 0.500000 0.320114 0.250000
O O10 0.384978 0.227782 0.093410
O O11 0.854476 0.355606 0.827710
O O12 0.500000 0.411047 0.750000
#
# Coordination Sequence:
#
# PCOD9285109 Si02
#       5
#     8   8   8   8   8
#     4  10  21  41  67  93 128 177 229 278 334 403
#     4  12  24  39  61  93 131 170 219 281 340 399
#     4  11  23  40  64  97 131 171 225 282 336 402
#     4  11  23  42  67  93 129 181 227 274 337 409
#     4  10  22  40  62  90 127 169 215 273 337 403
#
# _framework density 24.514862999999998
#
# number of rings (size 3 to 8) (size 9 to 14) (size 15 to 20)
#    0.000    1.200    0.000    7.800    0.000    4.800 
#    0.000    0.000    0.000    6.000    0.000    0.000 
#    0.000    0.000    0.000    0.000    0.000    0.000 
#
# Total GULP energy -111615.411437 kJ/mol
# GULP energy per Si atom -5580.770572 kJ/mol
# Density = 2.445907 g / cm^3
# Si number density = 24.514863 Si / 1000 Ang^3
#
#
#
# Elastic Constant Matrix: (Units=GPa)
#
#
# Indices 1 2 3 4 5 6 
#
# 1 80.2240 19.1363 12.2256 0.0000 23.0379 0.0000
# 2 19.1363 113.6402 -0.1184 0.0000 16.1292 0.0000
# 3 12.2256 -0.1184 69.4868 0.0000 30.4382 0.0000
# 4 0.0000 0.0000 0.0000 11.9628 0.0000 22.5036
# 5 23.0379 16.1292 30.4382 0.0000 46.6665 0.0000
# 6 0.0000 0.0000 0.0000 22.5036 0.0000 48.4748
#
#
#
# Elastic Compliance Matrix: (Units=1/GPa)
#
#
# Indices 1 2 3 4 5 6 
#
# 1 0.014785 -0.001478 0.000518 0.000000 -0.007126 0.000000
# 2 -0.001478 0.009601 0.001975 0.000000 -0.003877 0.000000
# 3 0.000518 0.001975 0.020600 0.000000 -0.014374 0.000000
# 4 0.000000 0.000000 0.000000 0.659668 0.000000 -0.306239
# 5 -0.007126 -0.003877 -0.014374 0.000000 0.035662 0.000000
# 6 0.000000 0.000000 0.000000 -0.306239 0.000000 0.162796
#
#
# Mechanical properties :
#
#
# Convention : Reuss Voigt Hill
#
# Bulk Modulus (GPa) = 21.26996 36.20422 28.73709
# Shear Modulus (GPa) = 5.45402 36.89466 21.17434
#
# Velocity S-wave (km/s) = 1.49319 3.88363 2.94212
# Velocity P-wave (km/s) = 3.41585 5.90851 4.82589
#
# Compressibility (1/GPa) = 0.04701466
#
# Stress axis : x y z
#
# Youngs Moduli (GPa) = 67.63592 104.15762 48.54333
#
# Poissons Ratio (x) = 0.15392 -0.02513
# Poissons Ratio (y) = 0.09995 -0.09585
# Poissons Ratio (z) = -0.03501 -0.20566
#
# Static dielectric constant tensor:
#      x y z
#    x 2.619430 0.000000 0.033820 
#    y 0.000000 1.514470 0.000000 
#    z 0.033820 0.000000 2.007360 
# 
# From -- ./inp_files/133273.got.cif
#   From: 2010.05.17/outbox.cif.g08.bks.cpg/sg15_67_cif.got.tgz:133273.got - 2010.06.03 18:47:42.
