data_PCOD9285870
_publ_section_title
;
Structure prediction by ZEFSAII (Michael W. Deem and Ramdas Pophale) SiO2 
 PCOD9285870
Probable space group: C 2/C
;
_chemical_formula_sum "Si O2"
_cell_formula_units_Z 40
_cell_length_a 16.653331
_cell_length_b 17.488989
_cell_length_c 7.695766
_cell_angle_alpha 90.000000
_cell_angle_beta 127.801437
_cell_angle_gamma 90.000000
_cell_volume 1771.012078
_symmetry_space_group_name_H-M "C 2/C"
_symmetry_group_IT_number 15
_symmetry_cell_setting 'monoclinic'
loop_
_space_group_symop_operation_xyz
x,y,z
-x,y,1/2-z
-x,-y,-z
x,-y,1/2+z
1/2+x,1/2+y,z
1/2-x,1/2+y,1/2-z
1/2-x,1/2-y,-z
1/2+x,1/2-y,1/2+z
loop_
_atom_site_type_symbol
_atom_site_label
_atom_site_fract_x
_atom_site_fract_y
_atom_site_fract_z
Si Si1 0.265686 0.350761 0.578488
Si Si2 0.000000 0.475429 0.750000
Si Si3 0.619970 0.794204 0.144238
Si Si4 0.915179 0.614023 0.419390
Si Si5 0.000000 0.799869 0.250000
Si Si6 0.034394 0.083304 0.101174
O O1 0.340057 0.277268 0.688093
O O2 0.207205 0.354185 0.316542
O O3 0.181153 0.348421 0.618210
O O4 0.343146 0.417229 0.728389
O O5 0.938802 0.534684 0.550494
O O6 0.918405 0.418428 0.728677
O O7 0.513593 0.831096 0.061669
O O8 0.594937 0.755378 0.925233
O O9 0.992092 0.854929 0.406186
O O10 0.000000 0.101941 0.250000
O O11 0.000000 0.000000 0.000000
#
# Coordination Sequence:
#
# PCOD9285870 Si02
#       6
#     8   4   8   8   4   8
#     4  10  23  41  74 103 138 195 239 299 381 435
#     4  10  23  38  68  93 136 184 224 304 360 421
#     4  10  21  42  67  99 139 180 240 302 356 436
#     4  11  21  45  65  99 140 180 241 300 361 437
#     4  10  23  44  72 101 136 192 238 302 378 421
#     4  11  24  47  71 104 150 192 240 305 371 453
#
# _framework density 22.585954999999998
#
# number of rings (size 3 to 8) (size 9 to 14) (size 15 to 20)
#    0.000    1.600    3.000    0.600    0.000   11.200 
#    0.000   14.000    0.000    0.000    0.000    0.000 
#    0.000    0.000    0.000    0.000    0.000    0.000 
#
# Total GULP energy -111404.493508 kJ/mol
# GULP energy per Si atom -5570.224675 kJ/mol
# Density = 2.253455 g / cm^3
# Si number density = 22.585955 Si / 1000 Ang^3
#
#
#
# Elastic Constant Matrix: (Units=GPa)
#
#
# Indices 1 2 3 4 5 6 
#
# 1 103.3029 53.7374 51.2433 0.0000 5.1601 0.0000
# 2 53.7374 124.0815 55.3166 0.0000 5.6603 0.0000
# 3 51.2433 55.3166 161.9764 0.0000 7.0361 0.0000
# 4 0.0000 0.0000 0.0000 49.9352 0.0000 -10.0368
# 5 5.1601 5.6603 7.0361 0.0000 44.8672 0.0000
# 6 0.0000 0.0000 0.0000 -10.0368 0.0000 16.4520
#
#
#
# Elastic Compliance Matrix: (Units=1/GPa)
#
#
# Indices 1 2 3 4 5 6 
#
# 1 0.013417 -0.004605 -0.002648 0.000000 -0.000547 0.000000
# 2 -0.004605 0.011109 -0.002315 0.000000 -0.000509 0.000000
# 3 -0.002648 -0.002315 0.007829 0.000000 -0.000631 0.000000
# 4 0.000000 0.000000 0.000000 0.022825 0.000000 0.013925
# 5 -0.000547 -0.000509 -0.000631 0.000000 0.022514 0.000000
# 6 0.000000 0.000000 0.000000 0.013925 0.000000 0.069278
#
#
# Mechanical properties :
#
#
# Convention : Reuss Voigt Hill
#
# Bulk Modulus (GPa) = 75.64866 78.88393 77.26630
# Shear Modulus (GPa) = 29.32313 37.52178 33.42245
#
# Velocity S-wave (km/s) = 3.60709 4.08031 3.85098
# Velocity P-wave (km/s) = 7.13544 7.56310 7.35238
#
# Compressibility (1/GPa) = 0.01321900
#
# Stress axis : x y z
#
# Youngs Moduli (GPa) = 74.53405 90.01933 127.72289
#
# Poissons Ratio (x) = 0.41454 0.33823
# Poissons Ratio (y) = 0.34323 0.29565
# Poissons Ratio (z) = 0.19738 0.20838
#
# Static dielectric constant tensor:
#      x y z
#    x 1.890590 0.000000 -0.059420 
#    y 0.000000 1.918070 0.000000 
#    z -0.059420 0.000000 1.938300 
# 
# From -- ./inp_files/48820.got.cif
#   From: 2010.05.17/outbox.cif.g08.bks.cpg/sg15_25_cif.got.tgz:48820.got - 2010.06.03 18:47:42.
