data_PCOD9285453
_publ_section_title
;
Structure prediction by ZEFSAII (Michael W. Deem and Ramdas Pophale) SiO2 
 PCOD9285453
Probable space group: C 2/C
;
_chemical_formula_sum "Si O2"
_cell_formula_units_Z 52
_cell_length_a 8.739129
_cell_length_b 11.411013
_cell_length_c 26.304458
_cell_angle_alpha 90.000000
_cell_angle_beta 72.674948
_cell_angle_gamma 90.000000
_cell_volume 2504.131304
_symmetry_space_group_name_H-M "C 2/C"
_symmetry_group_IT_number 15
_symmetry_cell_setting 'monoclinic'
loop_
_space_group_symop_operation_xyz
x,y,z
-x,y,1/2-z
-x,-y,-z
x,-y,1/2+z
1/2+x,1/2+y,z
1/2-x,1/2+y,1/2-z
1/2-x,1/2-y,-z
1/2+x,1/2-y,1/2+z
loop_
_atom_site_type_symbol
_atom_site_label
_atom_site_fract_x
_atom_site_fract_y
_atom_site_fract_z
Si Si1 0.689459 0.649303 0.042953
Si Si2 0.380673 0.354215 0.626668
Si Si3 0.843897 0.081738 0.015457
Si Si4 0.500000 0.979860 0.750000
Si Si5 0.984653 0.310668 0.949401
Si Si6 0.373329 0.459726 0.217695
Si Si7 0.550226 0.773198 0.666266
O O1 0.552725 0.695970 0.094137
O O2 0.849704 0.623533 0.057775
O O3 0.750000 0.750000 0.000000
O O4 0.624419 0.538118 0.017783
O O5 0.329461 0.415821 0.578336
O O6 0.398770 0.449575 0.668797
O O7 0.243335 0.260567 0.653967
O O8 0.661271 0.110236 0.018208
O O9 0.948463 0.189552 0.983086
O O10 0.516331 0.893196 0.699821
O O11 0.324161 0.041770 0.758200
O O12 0.977187 0.281464 0.890836
O O13 0.500000 0.497784 0.250000
O O14 0.440562 0.330941 0.197720
#
# Coordination Sequence:
#
# PCOD9285453 Si02
#       7
#     8   8   8   4   8   8   8
#     4  12  23  36  62 101 132 172 222 260 320 405
#     4  10  23  42  65  95 136 174 218 274 329 395
#     4  10  21  42  61  89 138 172 214 273 320 391
#     4  10  24  48  68 100 128 164 232 286 340 408
#     4  10  22  39  65  91 126 181 216 264 335 386
#     4  11  24  46  73  96 129 178 221 287 349 392
#     4  10  22  46  67  93 135 168 220 282 333 398
#
# _framework density 20.765684
#
# number of rings (size 3 to 8) (size 9 to 14) (size 15 to 20)
#    0.000    1.538    2.308    1.846    4.308    0.000 
#    6.923    0.000    0.000    0.000    0.000    0.000 
#    0.000    0.000    0.000    0.000    0.000    0.000 
#
# Total GULP energy -144775.534751 kJ/mol
# GULP energy per Si atom -5568.289798 kJ/mol
# Density = 2.071842 g / cm^3
# Si number density = 20.765684 Si / 1000 Ang^3
#
#
#
# Elastic Constant Matrix: (Units=GPa)
#
#
# Indices 1 2 3 4 5 6 
#
# 1 126.4593 15.6623 53.4821 0.0000 -14.4693 0.0000
# 2 15.6623 30.7700 37.3904 0.0000 4.1394 0.0000
# 3 53.4821 37.3904 93.1258 0.0000 -5.9858 0.0000
# 4 0.0000 0.0000 0.0000 22.7107 0.0000 -5.8868
# 5 -14.4693 4.1394 -5.9858 0.0000 47.9111 0.0000
# 6 0.0000 0.0000 0.0000 -5.8868 0.0000 37.9761
#
#
#
# Elastic Compliance Matrix: (Units=1/GPa)
#
#
# Indices 1 2 3 4 5 6 
#
# 1 0.010876 0.003142 -0.007373 0.000000 0.002092 0.000000
# 2 0.003142 0.068217 -0.029751 0.000000 -0.008662 0.000000
# 3 -0.007373 -0.029751 0.027158 0.000000 0.003737 0.000000
# 4 0.000000 0.000000 0.000000 0.045875 0.000000 0.007111
# 5 0.002092 -0.008662 0.003737 0.000000 0.022719 0.000000
# 6 0.000000 0.000000 0.000000 0.007111 0.000000 0.027435
#
#
# Mechanical properties :
#
#
# Convention : Reuss Voigt Hill
#
# Bulk Modulus (GPa) = 26.11834 51.49164 38.80499
# Shear Modulus (GPa) = 17.66749 31.30761 24.48755
#
# Velocity S-wave (km/s) = 2.92002 3.88707 3.43772
# Velocity P-wave (km/s) = 4.89629 6.70791 5.87238
#
# Compressibility (1/GPa) = 0.03828727
#
# Stress axis : x y z
#
# Youngs Moduli (GPa) = 91.94378 14.65916 36.82172
#
# Poissons Ratio (x) = -0.04606 0.27150
# Poissons Ratio (y) = -0.28891 1.09547
# Poissons Ratio (z) = 0.67794 0.43612
#
# Static dielectric constant tensor:
#      x y z
#    x 1.913450 0.000000 0.012920 
#    y 0.000000 1.711600 0.000000 
#    z 0.012920 0.000000 1.739390 
# 
# From -- ./inp_files/287591.got.cif
#   From: 2010.05.17/outbox.cif.g08.bks.cpg/sg15_144_cif.got.tgz:287591.got - 2010.06.03 18:47:42.
