data_PCOD9285890
_publ_section_title
;
Structure prediction by ZEFSAII (Michael W. Deem and Ramdas Pophale) SiO2 
 PCOD9285890
Probable space group: C 2/C
;
_chemical_formula_sum "Si O2"
_cell_formula_units_Z 56
_cell_length_a 9.356770
_cell_length_b 26.691277
_cell_length_c 16.168515
_cell_angle_alpha 90.000000
_cell_angle_beta 137.756075
_cell_angle_gamma 90.000000
_cell_volume 2714.694769
_symmetry_space_group_name_H-M "C 2/C"
_symmetry_group_IT_number 15
_symmetry_cell_setting 'monoclinic'
loop_
_space_group_symop_operation_xyz
x,y,z
-x,y,1/2-z
-x,-y,-z
x,-y,1/2+z
1/2+x,1/2+y,z
1/2-x,1/2+y,1/2-z
1/2-x,1/2-y,-z
1/2+x,1/2-y,1/2+z
loop_
_atom_site_type_symbol
_atom_site_label
_atom_site_fract_x
_atom_site_fract_y
_atom_site_fract_z
Si Si1 0.330931 0.570523 0.477485
Si Si2 0.251386 0.741540 0.630145
Si Si3 0.931001 0.720820 0.630845
Si Si4 0.758639 0.370681 0.982138
Si Si5 0.718465 0.958456 0.389515
Si Si6 0.694001 0.653501 0.168237
Si Si7 0.436382 0.150447 0.042778
O O1 0.225822 0.516589 0.418725
O O2 0.583033 0.557684 0.584260
O O3 0.293128 0.603609 0.379603
O O4 0.228015 0.605664 0.504689
O O5 0.500000 0.739794 0.750000
O O6 0.175656 0.799338 0.598074
O O7 0.325518 0.796722 0.472984
O O8 0.140908 0.721691 0.666080
O O9 0.750000 0.750000 0.500000
O O10 0.844285 0.664400 0.593690
O O11 0.000000 0.739919 0.750000
O O12 0.758638 0.426252 0.017257
O O13 0.517204 0.351666 0.866402
O O14 0.912030 0.363581 0.969955
O O15 0.500000 0.947808 0.250000
O O16 0.902555 0.658984 0.312486
#
# Coordination Sequence:
#
# PCOD9285890 Si02
#       7
#     8   8   8   8   8   8   8
#     4  10  23  41  64  93 125 161 213 266 314 386
#     4  11  26  39  60  95 127 169 213 268 328 383
#     4  11  24  42  63  89 127 171 212 269 320 396
#     4  10  23  39  63  95 121 166 211 263 322 384
#     4  10  21  42  68  90 121 168 210 255 325 390
#     4  11  22  41  62  89 126 170 215 257 320 396
#     4  11  24  40  62  93 131 163 211 273 322 382
#
# _framework density 20.628468999999999
#
# number of rings (size 3 to 8) (size 9 to 14) (size 15 to 20)
#    0.000    1.429    1.429    3.000    4.000    7.429 
#    0.000    0.000    0.000    1.714    0.000    0.000 
#    0.000    0.000    0.000    0.000    0.000    0.000 
#
# Total GULP energy -156353.694828 kJ/mol
# GULP energy per Si atom -5584.060530 kJ/mol
# Density = 2.058152 g / cm^3
# Si number density = 20.628469 Si / 1000 Ang^3
#
#
#
# Elastic Constant Matrix: (Units=GPa)
#
#
# Indices 1 2 3 4 5 6 
#
# 1 122.2365 47.4320 43.2804 0.0000 14.2900 0.0000
# 2 47.4320 172.4252 48.0065 0.0000 3.3386 0.0000
# 3 43.2804 48.0065 100.0614 0.0000 9.1653 0.0000
# 4 0.0000 0.0000 0.0000 14.4590 0.0000 7.1819
# 5 14.2900 3.3386 9.1653 0.0000 31.4765 0.0000
# 6 0.0000 0.0000 0.0000 7.1819 0.0000 31.8600
#
#
#
# Elastic Compliance Matrix: (Units=1/GPa)
#
#
# Indices 1 2 3 4 5 6 
#
# 1 0.010510 -0.001902 -0.003303 0.000000 -0.003608 0.000000
# 2 -0.001902 0.007039 -0.002636 0.000000 0.000884 0.000000
# 3 -0.003303 -0.002636 0.012867 0.000000 -0.001968 0.000000
# 4 0.000000 0.000000 0.000000 0.077881 0.000000 -0.017556
# 5 -0.003608 0.000884 -0.001968 0.000000 0.033887 0.000000
# 6 0.000000 0.000000 0.000000 -0.017556 0.000000 0.035345
#
#
# Mechanical properties :
#
#
# Convention : Reuss Voigt Hill
#
# Bulk Modulus (GPa) = 67.86223 74.68453 71.27338
# Shear Modulus (GPa) = 25.23683 32.62605 28.93144
#
# Velocity S-wave (km/s) = 3.50151 3.98125 3.74906
# Velocity P-wave (km/s) = 7.02255 7.57740 7.30524
#
# Compressibility (1/GPa) = 0.01473574
#
# Stress axis : x y z
#
# Youngs Moduli (GPa) = 95.14629 142.05606 77.71578
#
# Poissons Ratio (x) = 0.27014 0.25671
# Poissons Ratio (y) = 0.18094 0.20484
# Poissons Ratio (z) = 0.31429 0.37443
#
# Static dielectric constant tensor:
#      x y z
#    x 1.792450 0.000000 0.008740 
#    y 0.000000 1.758880 0.000000 
#    z 0.008740 0.000000 1.738840 
# 
# From -- ./inp_files/139562.got.cif
#   From: 2010.05.17/outbox.cif.g08.bks.cpg/sg15_70_cif.got.tgz:139562.got - 2010.06.03 18:47:42.
