data_PCOD9285334
_publ_section_title
;
Structure prediction by ZEFSAII (Michael W. Deem and Ramdas Pophale) SiO2 
 PCOD9285334
Probable space group: C 2/C
;
_chemical_formula_sum "Si O2"
_cell_formula_units_Z 56
_cell_length_a 18.470448
_cell_length_b 8.992879
_cell_length_c 19.411469
_cell_angle_alpha 90.000000
_cell_angle_beta 47.070253
_cell_angle_gamma 90.000000
_cell_volume 2360.793541
_symmetry_space_group_name_H-M "C 2/C"
_symmetry_group_IT_number 15
_symmetry_cell_setting 'monoclinic'
loop_
_space_group_symop_operation_xyz
x,y,z
-x,y,1/2-z
-x,-y,-z
x,-y,1/2+z
1/2+x,1/2+y,z
1/2-x,1/2+y,1/2-z
1/2-x,1/2-y,-z
1/2+x,1/2-y,1/2+z
loop_
_atom_site_type_symbol
_atom_site_label
_atom_site_fract_x
_atom_site_fract_y
_atom_site_fract_z
Si Si1 0.339602 0.322133 0.187654
Si Si2 0.894877 0.992476 0.532078
Si Si3 0.624150 0.172349 0.892710
Si Si4 0.209438 0.086503 0.024145
Si Si5 0.105710 0.939421 0.212474
Si Si6 0.342586 0.162145 0.403691
Si Si7 0.998559 0.444778 0.591674
O O1 0.331688 0.392909 0.117839
O O2 0.230145 0.315451 0.289173
O O3 0.389483 0.440254 0.208592
O O4 0.408202 0.174371 0.139617
O O5 0.873023 0.821523 0.562473
O O6 0.886492 0.044910 0.459286
O O7 0.000000 0.000000 0.500000
O O8 0.548951 0.110866 0.881353
O O9 0.584678 0.058952 0.977143
O O10 0.186922 0.030559 0.116232
O O11 0.250000 0.250000 0.000000
O O12 0.290989 0.994737 0.927929
O O13 0.127528 0.767115 0.178078
O O14 0.000000 0.979405 0.250000
O O15 0.250000 0.250000 0.500000
O O16 0.440402 0.121654 0.383547
#
# Coordination Sequence:
#
# PCOD9285334 Si02
#       7
#     8   8   8   8   8   8   8
#     4  12  24  43  73 103 142 193 253 311 382 460
#     4  12  25  45  68 101 151 195 239 313 390 453
#     4  11  24  41  68 102 144 184 242 300 378 446
#     4  11  26  44  71 104 146 196 250 316 390 462
#     4  11  21  43  71 100 136 193 252 309 379 469
#     4  10  21  41  70  96 136 181 246 301 376 452
#     4  11  23  43  69 104 137 187 240 313 368 451
#
# _framework density 23.720838000000001
#
# number of rings (size 3 to 8) (size 9 to 14) (size 15 to 20)
#    0.000    0.857    2.857    6.000    2.000    2.286 
#    0.000    0.714    0.000    0.000    0.000    0.000 
#    0.000    0.000    0.000    0.000    0.000    0.000 
#
# Total GULP energy -156011.690181 kJ/mol
# GULP energy per Si atom -5571.846078 kJ/mol
# Density = 2.366685 g / cm^3
# Si number density = 23.720838 Si / 1000 Ang^3
#
#
#
# Elastic Constant Matrix: (Units=GPa)
#
#
# Indices 1 2 3 4 5 6 
#
# 1 87.8088 35.8948 24.9632 0.0000 -7.9258 0.0000
# 2 35.8948 108.7896 14.6694 0.0000 0.4792 -0.0001
# 3 24.9632 14.6694 98.3833 0.0000 -5.0811 0.0000
# 4 0.0000 0.0000 0.0000 25.8074 0.0000 5.2738
# 5 -7.9258 0.4792 -5.0811 0.0000 39.1140 0.0000
# 6 0.0000 -0.0001 0.0000 5.2738 0.0000 29.7158
#
#
#
# Elastic Compliance Matrix: (Units=1/GPa)
#
#
# Indices 1 2 3 4 5 6 
#
# 1 0.014184 -0.004311 -0.002824 0.000000 0.002560 0.000000
# 2 -0.004311 0.010694 -0.000556 0.000000 -0.001077 0.000000
# 3 -0.002824 -0.000556 0.011009 0.000000 0.000865 0.000000
# 4 0.000000 0.000000 0.000000 0.040207 0.000000 -0.007136
# 5 0.002560 -0.001077 0.000865 0.000000 0.026211 0.000000
# 6 0.000000 0.000000 0.000000 -0.007136 0.000000 0.034919
#
#
# Mechanical properties :
#
#
# Convention : Reuss Voigt Hill
#
# Bulk Modulus (GPa) = 48.76903 49.55962 49.16433
# Shear Modulus (GPa) = 31.35975 33.55773 32.45874
#
# Velocity S-wave (km/s) = 3.63992 3.76532 3.70315
# Velocity P-wave (km/s) = 6.18624 6.31203 6.24945
#
# Compressibility (1/GPa) = 0.02050482
#
# Stress axis : x y z
#
# Youngs Moduli (GPa) = 70.49986 93.50968 90.83870
#
# Poissons Ratio (x) = 0.40308 0.25654
# Poissons Ratio (y) = 0.30389 0.05054
# Poissons Ratio (z) = 0.19910 0.05203
#
# Static dielectric constant tensor:
#      x y z
#    x 2.170620 0.000000 -0.030340 
#    y 0.000000 1.840830 0.000000 
#    z -0.030340 0.000000 1.958240 
# 
# From -- ./inp_files/251831.got.cif
#   From: 2010.05.17/outbox.cif.g08.bks.cpg/sg15_126_cif.got.tgz:251831.got - 2010.06.03 18:47:42.
