data_PCOD9285779
_publ_section_title
;
Structure prediction by ZEFSAII (Michael W. Deem and Ramdas Pophale) SiO2 
 PCOD9285779
Probable space group: C 2/C
;
_chemical_formula_sum "Si O2"
_cell_formula_units_Z 40
_cell_length_a 14.508156
_cell_length_b 10.101899
_cell_length_c 11.166284
_cell_angle_alpha 90.000000
_cell_angle_beta 72.396050
_cell_angle_gamma 90.000000
_cell_volume 1559.890780
_symmetry_space_group_name_H-M "C 2/C"
_symmetry_group_IT_number 15
_symmetry_cell_setting 'monoclinic'
loop_
_space_group_symop_operation_xyz
x,y,z
-x,y,1/2-z
-x,-y,-z
x,-y,1/2+z
1/2+x,1/2+y,z
1/2-x,1/2+y,1/2-z
1/2-x,1/2-y,-z
1/2+x,1/2-y,1/2+z
loop_
_atom_site_type_symbol
_atom_site_label
_atom_site_fract_x
_atom_site_fract_y
_atom_site_fract_z
Si Si1 0.768838 0.269182 0.310381
Si Si2 0.078265 0.612241 0.895888
Si Si3 0.543545 0.562420 0.607237
Si Si4 0.563162 0.821825 0.868025
Si Si5 0.758613 0.517553 0.007452
O O1 0.863206 0.273149 0.192526
O O2 0.662305 0.251802 0.296969
O O3 0.772284 0.410553 0.375510
O O4 0.764694 0.143863 0.398525
O O5 0.066356 0.473957 0.828095
O O6 0.153163 0.566141 0.972456
O O7 0.971020 0.655684 0.978600
O O8 0.500000 0.503305 0.750000
O O9 0.500000 0.500000 0.500000
O O10 0.518559 0.717082 0.627062
O O11 0.658135 0.557254 0.549772
#
# Coordination Sequence:
#
# PCOD9285779 Si02
#       5
#     8   8   8   8   8
#     4  10  21  42  66  97 142 189 235 291 361 440
#     4  10  23  43  71 100 145 189 233 302 365 427
#     4  12  26  43  72 107 146 188 245 308 357 433
#     4  10  23  44  67 108 142 183 246 293 364 434
#     4  10  23  39  66 101 135 189 243 287 361 432
#
# _framework density 25.64282
#
# number of rings (size 3 to 8) (size 9 to 14) (size 15 to 20)
#    0.000    1.600    2.000    1.200    2.800    4.000 
#    0.000   14.000    0.000    0.000    0.000    0.000 
#    0.000    0.000    0.000    0.000    0.000    0.000 
#
# Total GULP energy -111546.687262 kJ/mol
# GULP energy per Si atom -5577.334363 kJ/mol
# Density = 2.558446 g / cm^3
# Si number density = 25.642820 Si / 1000 Ang^3
#
#
#
# Elastic Constant Matrix: (Units=GPa)
#
#
# Indices 1 2 3 4 5 6 
#
# 1 91.1115 5.3904 13.2142 0.0000 -3.1081 0.0000
# 2 5.3904 65.2824 13.6477 0.0000 -0.3950 0.0000
# 3 13.2142 13.6477 94.4376 0.0000 -17.9246 0.0000
# 4 0.0000 0.0000 0.0000 5.6043 0.0000 -24.7374
# 5 -3.1081 -0.3950 -17.9246 0.0000 46.3721 0.0000
# 6 0.0000 0.0000 0.0000 -24.7374 0.0000 52.8619
#
#
#
# Elastic Compliance Matrix: (Units=1/GPa)
#
#
# Indices 1 2 3 4 5 6 
#
# 1 0.011229 -0.000624 -0.001445 0.000000 0.000189 0.000000
# 2 -0.000624 0.015858 -0.002360 0.000000 -0.000819 0.000000
# 3 -0.001445 -0.002360 0.011990 0.000000 0.004518 0.000000
# 4 0.000000 0.000000 0.000000 -0.167451 0.000000 -0.078361
# 5 0.000189 -0.000819 0.004518 0.000000 0.023317 0.000000
# 6 0.000000 0.000000 0.000000 -0.078361 0.000000 -0.017753
#
#
# Mechanical properties :
#
#
# Convention : Reuss Voigt Hill
#
# Bulk Modulus (GPa) = 33.09250 35.03735 34.06492
# Shear Modulus (GPa) = -48.13199 35.53961 -6.29619
#
# Velocity S-wave (km/s) = -4.33715 3.72687 -1.56865
# Velocity P-wave (km/s) = 3.48540 5.67562 3.16739
#
# Compressibility (1/GPa) = 0.03021833
#
# Stress axis : x y z
#
# Youngs Moduli (GPa) = 89.05903 63.05978 83.40501
#
# Poissons Ratio (x) = 0.03934 0.12053
# Poissons Ratio (y) = 0.05556 0.19682
# Poissons Ratio (z) = 0.12871 0.14881
#
# Static dielectric constant tensor:
#      x y z
#    x 2.291810 0.000000 0.244020 
#    y 0.000000 1.979290 0.000000 
#    z 0.244020 0.000000 2.404880 
# 
# From -- ./inp_files/94897.got.cif
#   From: 2010.05.17/outbox.cif.g08.bks.cpg/sg15_48_cif.got.tgz:94897.got - 2010.06.03 18:47:42.
