data_PCOD9285735
_publ_section_title
;
Structure prediction by ZEFSAII (Michael W. Deem and Ramdas Pophale) SiO2 
 PCOD9285735
Probable space group: C 2/C
;
_chemical_formula_sum "Si O2"
_cell_formula_units_Z 56
_cell_length_a 15.944949
_cell_length_b 10.509218
_cell_length_c 13.189237
_cell_angle_alpha 90.000000
_cell_angle_beta 86.304633
_cell_angle_gamma 90.000000
_cell_volume 2205.511350
_symmetry_space_group_name_H-M "C 2/C"
_symmetry_group_IT_number 15
_symmetry_cell_setting 'monoclinic'
loop_
_space_group_symop_operation_xyz
x,y,z
-x,y,1/2-z
-x,-y,-z
x,-y,1/2+z
1/2+x,1/2+y,z
1/2-x,1/2+y,1/2-z
1/2-x,1/2-y,-z
1/2+x,1/2-y,1/2+z
loop_
_atom_site_type_symbol
_atom_site_label
_atom_site_fract_x
_atom_site_fract_y
_atom_site_fract_z
Si Si1 0.363194 0.663285 0.742732
Si Si2 0.696207 0.739831 0.165077
Si Si3 0.864109 0.321484 0.127392
Si Si4 0.447052 0.184483 0.972551
Si Si5 0.574349 0.935588 0.811934
Si Si6 0.718801 0.540328 0.560849
Si Si7 0.081147 0.957109 0.433773
O O1 0.280981 0.681463 0.678147
O O2 0.402133 0.803268 0.741467
O O3 0.335937 0.616246 0.853070
O O4 0.421478 0.558139 0.685739
O O5 0.662253 0.721312 0.283631
O O6 0.626290 0.818802 0.106682
O O7 0.721341 0.606863 0.105018
O O8 0.857504 0.454696 0.191573
O O9 0.801135 0.369693 0.043769
O O10 0.959445 0.302102 0.081950
O O11 0.447160 0.087230 0.067552
O O12 0.418317 0.311463 0.031336
O O13 0.500000 0.989449 0.750000
O O14 0.662040 0.532590 0.465659
O O15 0.000000 0.000000 0.500000
#
# Coordination Sequence:
#
# PCOD9285735 Si02
#       7
#     8   8   8   8   8   8   8
#     4  10  23  40  65  90 127 166 204 260 315 377
#     4  10  21  42  66  92 122 167 213 253 310 378
#     4  11  22  41  63  97 126 161 215 257 315 372
#     4  10  23  39  67  92 123 166 209 261 303 378
#     4  11  23  39  61  92 130 164 204 257 321 370
#     4  10  23  41  65  90 128 166 207 263 312 373
#     4  10  24  41  63  93 122 166 215 254 315 375
#
# _framework density 25.390936
#
# number of rings (size 3 to 8) (size 9 to 14) (size 15 to 20)
#    0.000    1.714    1.429    1.714    8.000    1.714 
#    2.571    0.714    0.000    0.000    0.000    0.000 
#    0.000    0.000    0.000    0.000    0.000    0.000 
#
# Total GULP energy -156294.981602 kJ/mol
# GULP energy per Si atom -5581.963629 kJ/mol
# Density = 2.533315 g / cm^3
# Si number density = 25.390936 Si / 1000 Ang^3
#
#
#
# Elastic Constant Matrix: (Units=GPa)
#
#
# Indices 1 2 3 4 5 6 
#
# 1 108.9734 6.3193 32.8764 0.0000 7.2137 0.0000
# 2 6.3193 44.8825 30.8709 0.0000 -1.4382 0.0000
# 3 32.8764 30.8709 74.4165 0.0000 -2.5036 0.0000
# 4 0.0000 0.0000 0.0000 24.7921 0.0000 -0.6800
# 5 7.2137 -1.4382 -2.5036 0.0000 46.4707 0.0000
# 6 0.0000 0.0000 0.0000 -0.6800 0.0000 40.3297
#
#
#
# Elastic Compliance Matrix: (Units=1/GPa)
#
#
# Indices 1 2 3 4 5 6 
#
# 1 0.010951 0.002475 -0.005930 0.000000 -0.001943 0.000000
# 2 0.002475 0.031738 -0.014265 0.000000 -0.000170 0.000000
# 3 -0.005930 -0.014265 0.022031 0.000000 0.001666 0.000000
# 4 0.000000 0.000000 0.000000 0.040354 0.000000 0.000680
# 5 -0.001943 -0.000170 0.001666 0.000000 0.021905 0.000000
# 6 0.000000 0.000000 0.000000 0.000680 0.000000 0.024807
#
#
# Mechanical properties :
#
#
# Convention : Reuss Voigt Hill
#
# Bulk Modulus (GPa) = 34.15369 40.93398 37.54384
# Shear Modulus (GPa) = 25.38230 32.86556 29.12393
#
# Velocity S-wave (km/s) = 3.16517 3.60165 3.39044
# Velocity P-wave (km/s) = 5.18055 5.78380 5.49047
#
# Compressibility (1/GPa) = 0.02927941
#
# Stress axis : x y z
#
# Youngs Moduli (GPa) = 91.31900 31.50751 45.38962
#
# Poissons Ratio (x) = -0.07797 0.26915
# Poissons Ratio (y) = -0.22597 0.64750
# Poissons Ratio (z) = 0.54150 0.44947
#
# Static dielectric constant tensor:
#      x y z
#    x 2.148960 0.000000 0.048470 
#    y 0.000000 2.179370 0.000000 
#    z 0.048470 0.000000 2.372160 
# 
# From -- ./inp_files/152609.got.cif
#   From: 2010.05.17/outbox.cif.g08.bks.cpg/sg15_77_cif.got.tgz:152609.got - 2010.06.03 18:47:42.
