data_PCOD9285317
_publ_section_title
;
Structure prediction by ZEFSAII (Michael W. Deem and Ramdas Pophale) SiO2 
 PCOD9285317
Probable space group: C 2/C
;
_chemical_formula_sum "Si O2"
_cell_formula_units_Z 32
_cell_length_a 30.005014
_cell_length_b 12.300995
_cell_length_c 17.720071
_cell_angle_alpha 90.000000
_cell_angle_beta 166.800456
_cell_angle_gamma 90.000000
_cell_volume 1493.438928
_symmetry_space_group_name_H-M "C 2/C"
_symmetry_group_IT_number 15
_symmetry_cell_setting 'monoclinic'
loop_
_space_group_symop_operation_xyz
x,y,z
-x,y,1/2-z
-x,-y,-z
x,-y,1/2+z
1/2+x,1/2+y,z
1/2-x,1/2+y,1/2-z
1/2-x,1/2-y,-z
1/2+x,1/2-y,1/2+z
loop_
_atom_site_type_symbol
_atom_site_label
_atom_site_fract_x
_atom_site_fract_y
_atom_site_fract_z
Si Si1 0.809920 0.448565 0.148907
Si Si2 0.500000 0.757428 0.750000
Si Si3 0.582764 0.766427 0.538802
Si Si4 0.000000 0.150627 0.250000
Si Si5 0.756309 0.145671 0.564515
O O1 0.721742 0.536455 0.945744
O O2 0.000000 0.500000 0.500000
O O3 0.903251 0.344748 0.259989
O O4 0.661625 0.416606 0.970505
O O5 0.303714 0.688233 0.416213
O O6 0.454002 0.840602 0.742046
O O7 0.583133 0.724078 0.454667
O O8 0.590939 0.670256 0.615849
O O9 0.750000 0.250000 0.500000
#
# Coordination Sequence:
#
# PCOD9285317 Si02
#       5
#     8   4   8   4   8
#     4  12  24  45  72 105 140 194 243 289 378 436
#     4   8  20  42  66 100 142 186 230 302 360 414
#     4  10  24  44  72 100 150 184 237 305 359 431
#     4  12  28  48  64 108 146 178 250 308 362 432
#     4  10  21  41  70 102 143 184 242 291 355 437
#
# _framework density 21.427056
#
# number of rings (size 3 to 8) (size 9 to 14) (size 15 to 20)
#    1.500    0.000    2.500    2.250    0.000    6.000 
#    0.000    0.000    0.000    0.000    0.000    0.000 
#    0.000    0.000    0.000    0.000    0.000    0.000 
#
# Total GULP energy -89094.762576 kJ/mol
# GULP energy per Si atom -5568.422661 kJ/mol
# Density = 2.137829 g / cm^3
# Si number density = 21.427056 Si / 1000 Ang^3
#
#
#
# Elastic Constant Matrix: (Units=GPa)
#
#
# Indices 1 2 3 4 5 6 
#
# 1 204.4879 83.2187 60.3129 -0.0001 10.1098 -0.0001
# 2 83.2187 112.9906 59.6892 0.0000 3.6219 0.0000
# 3 60.3129 59.6892 84.3389 -0.0001 9.2930 -0.0001
# 4 -0.0001 0.0000 -0.0001 24.1249 -0.0001 -19.8659
# 5 10.1098 3.6219 9.2930 -0.0001 56.6967 -0.0001
# 6 -0.0001 0.0000 -0.0001 -19.8659 -0.0001 9.4504
#
#
#
# Elastic Compliance Matrix: (Units=1/GPa)
#
#
# Indices 1 2 3 4 5 6 
#
# 1 0.007265 -0.004190 -0.002155 0.000000 -0.000674 0.000000
# 2 -0.004190 0.016583 -0.008866 0.000000 0.001141 0.000000
# 3 -0.002155 -0.008866 0.019928 0.000000 -0.002316 0.000000
# 4 0.000000 0.000000 0.000000 -0.056704 0.000000 -0.119198
# 5 -0.000674 0.001141 -0.002316 0.000000 0.018065 0.000000
# 6 0.000000 0.000000 0.000000 -0.119198 0.000000 -0.144753
#
#
# Mechanical properties :
#
#
# Convention : Reuss Voigt Hill
#
# Bulk Modulus (GPa) = 74.88700 89.80656 82.34678
# Shear Modulus (GPa) = -47.73593 31.29418 -8.22088
#
# Velocity S-wave (km/s) = -4.72511 3.82579 -1.96087
# Velocity P-wave (km/s) = 2.29274 7.84342 5.77823
#
# Compressibility (1/GPa) = 0.01335345
#
# Stress axis : x y z
#
# Youngs Moduli (GPa) = 137.65471 60.30134 50.18111
#
# Poissons Ratio (x) = 0.25268 0.10815
# Poissons Ratio (y) = 0.57681 0.44489
# Poissons Ratio (z) = 0.29667 0.53461
#
# Static dielectric constant tensor:
#      x y z
#    x 1.784300 0.000000 -0.020450 
#    y 0.000000 1.892260 0.000000 
#    z -0.020450 0.000000 1.850210 
# 
# From -- ./inp_files/224830.got.cif
#   From: 2010.05.17/outbox.cif.g08.bks.cpg/sg15_113_cif.got.tgz:224830.got - 2010.06.03 18:47:42.
