data_PCOD9285956
_publ_section_title
;
Structure prediction by ZEFSAII (Michael W. Deem and Ramdas Pophale) SiO2 
 PCOD9285956
Probable space group: C 2/C
;
_chemical_formula_sum "Si O2"
_cell_formula_units_Z 40
_cell_length_a 17.309876
_cell_length_b 13.240109
_cell_length_c 10.878121
_cell_angle_alpha 90.000000
_cell_angle_beta 138.974092
_cell_angle_gamma 90.000000
_cell_volume 1636.470288
_symmetry_space_group_name_H-M "C 2/C"
_symmetry_group_IT_number 15
_symmetry_cell_setting 'monoclinic'
loop_
_space_group_symop_operation_xyz
x,y,z
-x,y,1/2-z
-x,-y,-z
x,-y,1/2+z
1/2+x,1/2+y,z
1/2-x,1/2+y,1/2-z
1/2-x,1/2-y,-z
1/2+x,1/2-y,1/2+z
loop_
_atom_site_type_symbol
_atom_site_label
_atom_site_fract_x
_atom_site_fract_y
_atom_site_fract_z
Si Si1 0.890037 0.244344 0.206098
Si Si2 0.174383 0.937275 0.715122
Si Si3 0.950418 0.594541 0.513751
Si Si4 0.401848 0.187285 0.216786
Si Si5 0.839271 0.084499 0.581570
O O1 0.879165 0.170535 0.309737
O O2 0.000000 0.205031 0.250000
O O3 0.937013 0.358301 0.281581
O O4 0.750000 0.250000 0.000000
O O5 0.141445 0.958273 0.532942
O O6 0.317834 0.930760 0.898454
O O7 0.130370 0.015378 0.765986
O O8 0.926675 0.686517 0.390041
O O9 0.000000 0.500000 0.500000
O O10 0.500000 0.140673 0.250000
O O11 0.297364 0.109407 0.075689
O O12 0.384125 0.300737 0.149505
#
# Coordination Sequence:
#
# PCOD9285956 Si02
#       5
#     8   8   8   8   8
#     4  12  27  49  76 114 163 206 262 333 404 474
#     4  11  25  46  75 112 153 205 265 323 404 469
#     4  11  25  43  77 111 152 210 268 324 395 486
#     4  10  21  42  69 101 151 200 261 316 397 471
#     4  10  24  44  72 110 151 203 259 328 393 481
#
# _framework density 24.442851999999998
#
# number of rings (size 3 to 8) (size 9 to 14) (size 15 to 20)
#    0.000    1.200    2.000    2.400    5.600    6.400 
#    0.000    3.000    0.000    0.000    0.000    0.000 
#    0.000    0.000    0.000    0.000    0.000    0.000 
#
# Total GULP energy -111438.985031 kJ/mol
# GULP energy per Si atom -5571.949252 kJ/mol
# Density = 2.438722 g / cm^3
# Si number density = 24.442852 Si / 1000 Ang^3
#
#
#
# Elastic Constant Matrix: (Units=GPa)
#
#
# Indices 1 2 3 4 5 6 
#
# 1 179.1458 45.0990 62.6934 0.0000 17.7889 0.0000
# 2 45.0990 90.5676 33.1058 0.0000 -10.6512 0.0000
# 3 62.6934 33.1058 79.5674 0.0000 -3.5253 0.0000
# 4 0.0000 0.0000 0.0000 28.9067 0.0000 -38.2850
# 5 17.7889 -10.6512 -3.5253 0.0000 60.5811 0.0000
# 6 0.0000 0.0000 0.0000 -38.2850 0.0000 7.8265
#
#
#
# Elastic Compliance Matrix: (Units=1/GPa)
#
#
# Indices 1 2 3 4 5 6 
#
# 1 0.008602 -0.002526 -0.005874 0.000000 -0.003312 0.000000
# 2 -0.002526 0.014005 -0.003704 0.000000 0.002988 0.000000
# 3 -0.005874 -0.003704 0.018833 0.000000 0.002169 0.000000
# 4 0.000000 0.000000 0.000000 -0.006314 0.000000 -0.030887
# 5 -0.003312 0.002988 0.002169 0.000000 0.018131 0.000000
# 6 0.000000 0.000000 0.000000 -0.030887 0.000000 -0.023321
#
#
# Mechanical properties :
#
#
# Convention : Reuss Voigt Hill
#
# Bulk Modulus (GPa) = 58.02999 70.11969 64.07484
# Shear Modulus (GPa) = 83.48829 33.35505 58.42167
#
# Velocity S-wave (km/s) = 5.85070 3.69808 4.89420
# Velocity P-wave (km/s) = 8.33268 6.85447 7.62946
#
# Compressibility (1/GPa) = 0.01723247
#
# Stress axis : x y z
#
# Youngs Moduli (GPa) = 116.24642 71.40381 53.09702
#
# Poissons Ratio (x) = 0.18037 0.31188
# Poissons Ratio (y) = 0.29365 0.19669
# Poissons Ratio (z) = 0.68281 0.26450
#
# Static dielectric constant tensor:
#      x y z
#    x 1.976160 0.000000 -0.063880 
#    y 0.000000 1.906210 0.000000 
#    z -0.063880 0.000000 2.172160 
# 
# From -- ./inp_files/105039.got.cif
#   From: 2010.05.17/outbox.cif.g08.bks.cpg/sg15_53_cif.got.tgz:105039.got - 2010.06.03 18:47:42.
