data_PCOD9285530
_publ_section_title
;
Structure prediction by ZEFSAII (Michael W. Deem and Ramdas Pophale) SiO2 
 PCOD9285530
Probable space group: C 2/C
;
_chemical_formula_sum "Si O2"
_cell_formula_units_Z 64
_cell_length_a 24.281262
_cell_length_b 11.735484
_cell_length_c 11.142816
_cell_angle_alpha 90.000000
_cell_angle_beta 97.429803
_cell_angle_gamma 90.000000
_cell_volume 3148.513101
_symmetry_space_group_name_H-M "C 2/C"
_symmetry_group_IT_number 15
_symmetry_cell_setting 'monoclinic'
loop_
_space_group_symop_operation_xyz
x,y,z
-x,y,1/2-z
-x,-y,-z
x,-y,1/2+z
1/2+x,1/2+y,z
1/2-x,1/2+y,1/2-z
1/2-x,1/2-y,-z
1/2+x,1/2-y,1/2+z
loop_
_atom_site_type_symbol
_atom_site_label
_atom_site_fract_x
_atom_site_fract_y
_atom_site_fract_z
Si Si1 0.908510 0.568987 0.552048
Si Si2 0.108070 0.338480 0.833127
Si Si3 0.046123 0.253312 0.589358
Si Si4 0.683409 0.968870 0.671382
Si Si5 0.131854 0.703258 0.731354
Si Si6 0.185928 0.942376 0.817489
Si Si7 0.869262 0.948229 0.433472
Si Si8 0.073773 0.179719 0.006729
O O1 0.918025 0.440872 0.597101
O O2 0.955237 0.632894 0.490885
O O3 0.854037 0.567275 0.452133
O O4 0.896274 0.646503 0.662455
O O5 0.064247 0.295180 0.724232
O O6 0.159742 0.394328 0.776711
O O7 0.117587 0.232109 0.923165
O O8 0.096262 0.169218 0.562476
O O9 0.987675 0.191892 0.561530
O O10 0.747856 0.950975 0.668503
O O11 0.669624 0.101830 0.689279
O O12 0.166309 0.815751 0.773784
O O13 0.084640 0.744002 0.626477
O O14 0.162053 0.025600 0.703228
O O15 0.165666 0.956296 0.951039
O O16 0.912788 0.051055 0.457989
#
# Coordination Sequence:
#
# PCOD9285530 Si02
#       8
#     8   8   8   8   8   8   8   8
#     4  10  21  42  63  93 133 164 222 265 320 399
#     4  10  22  41  62  98 131 164 220 273 316 406
#     4  11  23  43  67  94 130 179 215 273 334 385
#     4  10  23  41  68  94 130 174 213 270 338 387
#     4  10  22  42  60  95 132 162 217 271 316 405
#     4  11  25  42  70  96 131 179 216 276 337 391
#     4  11  25  45  66 101 134 168 236 272 320 412
#     4  11  23  42  67  95 133 173 215 274 339 379
#
# _framework density 20.327055000000001
#
# number of rings (size 3 to 8) (size 9 to 14) (size 15 to 20)
#    0.000    1.500    2.500    1.500    3.500    4.500 
#    4.500    3.750    0.000    0.000    0.000    0.000 
#    0.000    0.000    0.000    0.000    0.000    0.000 
#
# Total GULP energy -178604.041134 kJ/mol
# GULP energy per Si atom -5581.376285 kJ/mol
# Density = 2.028079 g / cm^3
# Si number density = 20.327055 Si / 1000 Ang^3
#
#
#
# Elastic Constant Matrix: (Units=GPa)
#
#
# Indices 1 2 3 4 5 6 
#
# 1 77.0929 5.5041 28.0046 0.0000 4.9491 0.0000
# 2 5.5041 61.6777 32.5317 0.0000 5.1769 0.0000
# 3 28.0046 32.5317 86.7439 0.0000 -16.9979 0.0000
# 4 0.0000 0.0000 0.0000 36.6489 0.0000 0.2332
# 5 4.9491 5.1769 -16.9979 0.0000 19.6588 0.0000
# 6 0.0000 0.0000 0.0000 0.2332 0.0000 8.6608
#
#
#
# Elastic Compliance Matrix: (Units=1/GPa)
#
#
# Indices 1 2 3 4 5 6 
#
# 1 0.017340 0.005198 -0.010440 0.000000 -0.014762 0.000000
# 2 0.005198 0.025769 -0.015566 0.000000 -0.021553 0.000000
# 3 -0.010440 -0.015566 0.026554 0.000000 0.029687 0.000000
# 4 0.000000 0.000000 0.000000 0.027291 0.000000 -0.000735
# 5 -0.014762 -0.021553 0.029687 0.000000 0.085929 0.000000
# 6 0.000000 0.000000 0.000000 -0.000735 0.000000 0.115482
#
#
# Mechanical properties :
#
#
# Convention : Reuss Voigt Hill
#
# Bulk Modulus (GPa) = 35.65428 39.73280 37.69354
# Shear Modulus (GPa) = 14.31314 23.62529 18.96921
#
# Velocity S-wave (km/s) = 2.65645 3.41289 3.05815
# Velocity P-wave (km/s) = 5.19493 5.92618 5.57256
#
# Compressibility (1/GPa) = 0.02804712
#
# Stress axis : x y z
#
# Youngs Moduli (GPa) = 57.66878 38.80683 37.65939
#
# Poissons Ratio (x) = -0.20173 0.39318
# Poissons Ratio (y) = -0.29978 0.58620
# Poissons Ratio (z) = 0.60208 0.60406
#
# Static dielectric constant tensor:
#      x y z
#    x 1.704150 0.000000 -0.036510 
#    y 0.000000 1.721320 0.000000 
#    z -0.036510 0.000000 1.757540 
# 
# From -- ./inp_files/118040.got.cif
#   From: 2010.05.17/outbox.cif.g08.bks.cpg/sg15_60_cif.got.tgz:118040.got - 2010.06.03 18:47:42.
