data_PCOD9285507
_publ_section_title
;
Structure prediction by ZEFSAII (Michael W. Deem and Ramdas Pophale) SiO2 
 PCOD9285507
Probable space group: C 2/C
;
_chemical_formula_sum "Si O2"
_cell_formula_units_Z 52
_cell_length_a 19.034954
_cell_length_b 14.185656
_cell_length_c 8.918880
_cell_angle_alpha 90.000000
_cell_angle_beta 81.236352
_cell_angle_gamma 90.000000
_cell_volume 2380.189120
_symmetry_space_group_name_H-M "C 2/C"
_symmetry_group_IT_number 15
_symmetry_cell_setting 'monoclinic'
loop_
_space_group_symop_operation_xyz
x,y,z
-x,y,1/2-z
-x,-y,-z
x,-y,1/2+z
1/2+x,1/2+y,z
1/2-x,1/2+y,1/2-z
1/2-x,1/2-y,-z
1/2+x,1/2-y,1/2+z
loop_
_atom_site_type_symbol
_atom_site_label
_atom_site_fract_x
_atom_site_fract_y
_atom_site_fract_z
Si Si1 0.262231 0.737659 0.316160
Si Si2 0.162093 0.416461 0.750873
Si Si3 0.380246 0.488826 0.953715
Si Si4 0.500000 0.192124 0.750000
Si Si5 0.572827 0.025896 0.559413
Si Si6 0.720151 0.434023 0.268575
Si Si7 0.587941 0.640478 0.314152
O O1 0.250000 0.750000 0.500000
O O2 0.194085 0.686228 0.264876
O O3 0.266000 0.840557 0.243037
O O4 0.332190 0.678207 0.250549
O O5 0.100706 0.440504 0.652725
O O6 0.228289 0.483659 0.693103
O O7 0.132282 0.450771 0.919493
O O8 0.340849 0.422410 0.086624
O O9 0.414026 0.572555 0.041142
O O10 0.320195 0.535105 0.867363
O O11 0.427176 0.425145 0.827579
O O12 0.556332 0.120867 0.657848
O O13 0.459484 0.265985 0.656064
O O14 0.500000 0.000000 0.500000
#
# Coordination Sequence:
#
# PCOD9285507 Si02
#       7
#     8   8   8   4   8   8   8
#     4  12  22  37  67 103 130 178 224 284 351 403
#     4  12  23  42  71  95 136 181 222 286 351 397
#     4  10  21  42  62  96 131 170 216 293 344 399
#     4  12  26  48  68  94 136 190 236 272 334 426
#     4  12  26  46  65  95 136 185 228 276 338 419
#     4  11  21  39  62  99 137 164 219 280 351 410
#     4  11  24  42  69  93 136 175 233 279 344 412
#
# _framework density 21.847002
#
# number of rings (size 3 to 8) (size 9 to 14) (size 15 to 20)
#    0.000    0.615    6.154    3.692    0.000    2.462 
#    0.000    0.000    0.000    0.000    0.000    0.000 
#    0.000    0.000    0.000    0.000    0.000    0.000 
#
# Total GULP energy -145300.370043 kJ/mol
# GULP energy per Si atom -5588.475771 kJ/mol
# Density = 2.179728 g / cm^3
# Si number density = 21.847002 Si / 1000 Ang^3
#
#
#
# Elastic Constant Matrix: (Units=GPa)
#
#
# Indices 1 2 3 4 5 6 
#
# 1 64.1523 17.2921 16.7812 0.0000 13.8327 0.0000
# 2 17.2921 96.5810 6.7095 0.0000 20.0783 0.0000
# 3 16.7812 6.7095 69.1599 0.0000 9.0004 0.0000
# 4 0.0000 0.0000 0.0000 30.9698 0.0000 9.6386
# 5 13.8327 20.0783 9.0004 0.0000 40.0925 0.0000
# 6 0.0000 0.0000 0.0000 9.6386 0.0000 38.1265
#
#
#
# Elastic Compliance Matrix: (Units=1/GPa)
#
#
# Indices 1 2 3 4 5 6 
#
# 1 0.018032 -0.002068 -0.003605 0.000000 -0.004376 0.000000
# 2 -0.002068 0.011804 0.000034 0.000000 -0.005206 0.000000
# 3 -0.003605 0.000034 0.015628 0.000000 -0.002281 0.000000
# 4 0.000000 0.000000 0.000000 0.035047 0.000000 -0.008860
# 5 -0.004376 -0.005206 -0.002281 0.000000 0.029571 0.000000
# 6 0.000000 0.000000 0.000000 -0.008860 0.000000 0.028468
#
#
# Mechanical properties :
#
#
# Convention : Reuss Voigt Hill
#
# Bulk Modulus (GPa) = 29.25243 34.60654 31.92948
# Shear Modulus (GPa) = 31.01270 34.44513 32.72892
#
# Velocity S-wave (km/s) = 3.77177 3.97502 3.87472
# Velocity P-wave (km/s) = 5.69096 6.07803 5.88768
#
# Compressibility (1/GPa) = 0.03418519
#
# Stress axis : x y z
#
# Youngs Moduli (GPa) = 55.45671 84.71613 63.98929
#
# Poissons Ratio (x) = 0.17521 0.23069
# Poissons Ratio (y) = 0.11470 -0.00218
# Poissons Ratio (z) = 0.19993 -0.00289
#
# Static dielectric constant tensor:
#      x y z
#    x 1.866160 0.000000 0.015820 
#    y 0.000000 1.780200 0.000000 
#    z 0.015820 0.000000 1.822190 
# 
# From -- ./inp_files/55308.got.cif
#   From: 2010.05.17/outbox.cif.g08.bks.cpg/sg15_28_cif.got.tgz:55308.got - 2010.06.03 18:47:42.
