data_PCOD9285034
_publ_section_title
;
Structure prediction by ZEFSAII (Michael W. Deem and Ramdas Pophale) SiO2 
 PCOD9285034
Probable space group: C 2/C
;
_chemical_formula_sum "Si O2"
_cell_formula_units_Z 64
_cell_length_a 20.573051
_cell_length_b 8.006062
_cell_length_c 24.768599
_cell_angle_alpha 90.000000
_cell_angle_beta 137.168801
_cell_angle_gamma 90.000000
_cell_volume 2773.487922
_symmetry_space_group_name_H-M "C 2/C"
_symmetry_group_IT_number 15
_symmetry_cell_setting 'monoclinic'
loop_
_space_group_symop_operation_xyz
x,y,z
-x,y,1/2-z
-x,-y,-z
x,-y,1/2+z
1/2+x,1/2+y,z
1/2-x,1/2+y,1/2-z
1/2-x,1/2-y,-z
1/2+x,1/2-y,1/2+z
loop_
_atom_site_type_symbol
_atom_site_label
_atom_site_fract_x
_atom_site_fract_y
_atom_site_fract_z
Si Si1 0.743424 0.171740 0.323787
Si Si2 0.979145 0.207427 0.056169
Si Si3 0.177062 0.348716 0.222754
Si Si4 0.098020 0.830487 0.313348
Si Si5 0.117039 0.198989 0.286372
Si Si6 0.360885 0.788499 0.559155
Si Si7 0.943854 0.836287 0.003101
Si Si8 0.911978 0.337960 0.121537
O O1 0.754124 0.316979 0.285768
O O2 0.683014 0.229014 0.338377
O O3 0.848417 0.120740 0.409657
O O4 0.691072 0.025917 0.259191
O O5 0.902910 0.256618 0.055991
O O6 0.073866 0.302326 0.134980
O O7 0.979901 0.244890 0.991977
O O8 0.983119 0.005434 0.054467
O O9 0.190353 0.225592 0.282178
O O10 0.100462 0.858154 0.378728
O O11 0.000000 0.730047 0.250000
O O12 0.094338 0.005597 0.280887
O O13 0.147725 0.268446 0.363645
O O14 0.020385 0.293893 0.207602
O O15 0.250000 0.750000 0.500000
O O16 0.404596 0.779375 0.526619
O O17 0.388428 0.968205 0.599663
#
# Coordination Sequence:
#
# PCOD9285034 Si02
#       8
#     8   8   8   8   8   8   8   8
#     4  11  23  44  68 101 143 172 227 286 345 399
#     4   9  21  43  70  92 130 180 230 272 338 412
#     4  10  22  41  68  99 133 179 222 286 341 400
#     4  12  25  42  72 100 133 181 227 278 338 410
#     4  10  21  42  66 100 128 167 229 278 330 398
#     4  12  26  43  66  97 139 180 223 280 347 398
#     4  10  22  45  66  95 137 180 223 278 343 412
#     4  10  21  41  66  96 131 166 223 280 325 396
#
# _framework density 23.075638999999999
#
# number of rings (size 3 to 8) (size 9 to 14) (size 15 to 20)
#    0.000    1.500    2.500    2.250    7.000    0.500 
#    4.500    1.250    0.000    0.000    0.000    0.000 
#    0.000    0.000    0.000    0.000    0.000    0.000 
#
# Total GULP energy -178281.918985 kJ/mol
# GULP energy per Si atom -5571.309968 kJ/mol
# Density = 2.302312 g / cm^3
# Si number density = 23.075639 Si / 1000 Ang^3
#
#
#
# Elastic Constant Matrix: (Units=GPa)
#
#
# Indices 1 2 3 4 5 6 
#
# 1 95.3615 0.0335 24.5458 0.0000 -40.8338 0.0000
# 2 0.0335 79.1087 28.8443 0.0000 -0.9964 -0.0001
# 3 24.5458 28.8443 56.6674 0.0000 -13.8302 0.0000
# 4 0.0000 0.0000 0.0000 34.7358 0.0000 -11.5118
# 5 -40.8338 -0.9964 -13.8302 0.0000 41.9718 0.0000
# 6 0.0000 -0.0001 0.0000 -11.5118 0.0000 32.7398
#
#
#
# Elastic Compliance Matrix: (Units=1/GPa)
#
#
# Indices 1 2 3 4 5 6 
#
# 1 0.019047 0.002102 -0.005204 0.000000 0.016866 0.000000
# 2 0.002102 0.015985 -0.009195 0.000000 -0.000605 0.000000
# 3 -0.005204 -0.009195 0.025329 0.000000 0.003065 0.000000
# 4 0.000000 0.000000 0.000000 0.032586 0.000000 0.011458
# 5 0.016866 -0.000605 0.003065 0.000000 0.041230 0.000000
# 6 0.000000 0.000000 0.000000 0.011458 0.000000 0.034573
#
#
# Mechanical properties :
#
#
# Convention : Reuss Voigt Hill
#
# Bulk Modulus (GPa) = 27.95825 37.55385 32.75605
# Shear Modulus (GPa) = 24.35871 33.73709 29.04790
#
# Velocity S-wave (km/s) = 3.25253 3.82779 3.55182
# Velocity P-wave (km/s) = 5.12323 5.98711 5.57194
#
# Compressibility (1/GPa) = 0.03576761
#
# Stress axis : x y z
#
# Youngs Moduli (GPa) = 52.50136 62.55934 39.48017
#
# Poissons Ratio (x) = -0.13149 0.20545
# Poissons Ratio (y) = -0.11035 0.36301
# Poissons Ratio (z) = 0.27321 0.57521
#
# Static dielectric constant tensor:
#      x y z
#    x 1.946980 0.000000 0.016170 
#    y 0.000000 1.846710 0.000000 
#    z 0.016170 0.000000 2.147280 
# 
# From -- ./inp_files/279578.got.cif
#   From: 2010.05.17/outbox.cif.g08.bks.cpg/sg15_140_cif.got.tgz:279578.got - 2010.06.03 18:47:42.
