data_PCOD9285175
_publ_section_title
;
Structure prediction by ZEFSAII (Michael W. Deem and Ramdas Pophale) SiO2 
 PCOD9285175
Probable space group: C 2/C
;
_chemical_formula_sum "Si O2"
_cell_formula_units_Z 40
_cell_length_a 9.259874
_cell_length_b 9.532463
_cell_length_c 32.506122
_cell_angle_alpha 90.000000
_cell_angle_beta 146.958539
_cell_angle_gamma 90.000000
_cell_volume 1564.471586
_symmetry_space_group_name_H-M "C 2/C"
_symmetry_group_IT_number 15
_symmetry_cell_setting 'monoclinic'
loop_
_space_group_symop_operation_xyz
x,y,z
-x,y,1/2-z
-x,-y,-z
x,-y,1/2+z
1/2+x,1/2+y,z
1/2-x,1/2+y,1/2-z
1/2-x,1/2-y,-z
1/2+x,1/2-y,1/2+z
loop_
_atom_site_type_symbol
_atom_site_label
_atom_site_fract_x
_atom_site_fract_y
_atom_site_fract_z
Si Si1 0.922624 0.214714 0.814096
Si Si2 0.700381 0.036126 0.416705
Si Si3 0.654124 0.585810 0.625452
Si Si4 0.469397 0.395928 0.832590
Si Si5 0.958718 0.579805 0.033753
O O1 0.988009 0.054544 0.817498
O O2 0.766787 0.190236 0.819767
O O3 0.752257 0.303571 0.741788
O O4 0.165882 0.307905 0.889720
O O5 0.646451 0.943320 0.363639
O O6 0.539376 0.011347 0.419986
O O7 0.000000 0.000000 0.500000
O O8 0.612965 0.437291 0.640480
O O9 0.350012 0.626532 0.541213
O O10 0.766662 0.333802 0.901164
O O11 0.000000 0.500000 0.000000
#
# Coordination Sequence:
#
# PCOD9285175 Si02
#       5
#     8   8   8   8   8
#     4  10  22  44  69 105 144 193 240 297 357 439
#     4  10  21  41  68 105 141 181 238 303 364 428
#     4   8  20  42  72  99 142 183 242 294 358 431
#     4   9  21  44  69 100 143 191 241 291 364 432
#     4   9  18  41  71  98 138 186 232 302 365 424
#
# _framework density 25.567739
#
# number of rings (size 3 to 8) (size 9 to 14) (size 15 to 20)
#    1.200    1.600    0.000    0.000    0.000    4.800 
#   10.800    8.000    0.000    0.000    0.000    0.000 
#    0.000    0.000    0.000    0.000    0.000    0.000 
#
# Total GULP energy -111335.811808 kJ/mol
# GULP energy per Si atom -5566.790590 kJ/mol
# Density = 2.550955 g / cm^3
# Si number density = 25.567739 Si / 1000 Ang^3
#
#
#
# Elastic Constant Matrix: (Units=GPa)
#
#
# Indices 1 2 3 4 5 6 
#
# 1 146.4395 17.1558 30.1875 0.0000 -20.8524 0.0000
# 2 17.1558 105.9751 23.2471 0.0000 2.2426 0.0000
# 3 30.1875 23.2471 107.0415 0.0000 17.3356 0.0000
# 4 0.0000 0.0000 0.0000 53.2380 0.0000 -4.3762
# 5 -20.8524 2.2426 17.3356 0.0000 45.8284 0.0000
# 6 0.0000 0.0000 0.0000 -4.3762 0.0000 21.9689
#
#
#
# Elastic Compliance Matrix: (Units=1/GPa)
#
#
# Indices 1 2 3 4 5 6 
#
# 1 0.008224 -0.000790 -0.002940 0.000000 0.004893 0.000000
# 2 -0.000790 0.009989 -0.001927 0.000000 -0.000119 0.000000
# 3 -0.002940 -0.001927 0.011496 0.000000 -0.005592 0.000000
# 4 0.000000 0.000000 0.000000 0.019096 0.000000 0.003804
# 5 0.004893 -0.000119 -0.005592 0.000000 0.026168 0.000000
# 6 0.000000 0.000000 0.000000 0.003804 0.000000 0.046277
#
#
# Mechanical properties :
#
#
# Convention : Reuss Voigt Hill
#
# Bulk Modulus (GPa) = 54.36551 55.62632 54.99592
# Shear Modulus (GPa) = 36.04995 43.46477 39.75736
#
# Velocity S-wave (km/s) = 3.75904 4.12756 3.94760
# Velocity P-wave (km/s) = 6.33640 6.67228 6.50651
#
# Compressibility (1/GPa) = 0.01839401
#
# Stress axis : x y z
#
# Youngs Moduli (GPa) = 121.59325 100.10634 86.98992
#
# Poissons Ratio (x) = 0.07908 0.25577
# Poissons Ratio (y) = 0.09605 0.16766
# Poissons Ratio (z) = 0.35751 0.19295
#
# Static dielectric constant tensor:
#      x y z
#    x 2.028710 0.000000 -0.053670 
#    y 0.000000 2.057620 0.000000 
#    z -0.053670 0.000000 2.090010 
# 
# From -- ./inp_files/307351.got.cif
#   From: 2010.05.17/outbox.cif.g08.bks.cpg/sg15_154_cif.got.tgz:307351.got - 2010.06.03 18:47:42.
