data_PCOD9285038
_publ_section_title
;
Structure prediction by ZEFSAII (Michael W. Deem and Ramdas Pophale) SiO2 
 PCOD9285038
Probable space group: C 2/C
;
_chemical_formula_sum "Si O2"
_cell_formula_units_Z 40
_cell_length_a 16.637508
_cell_length_b 8.385345
_cell_length_c 29.465900
_cell_angle_alpha 90.000000
_cell_angle_beta 29.139448
_cell_angle_gamma 90.000000
_cell_volume 2001.711895
_symmetry_space_group_name_H-M "C 2/C"
_symmetry_group_IT_number 15
_symmetry_cell_setting 'monoclinic'
loop_
_space_group_symop_operation_xyz
x,y,z
-x,y,1/2-z
-x,-y,-z
x,-y,1/2+z
1/2+x,1/2+y,z
1/2-x,1/2+y,1/2-z
1/2-x,1/2-y,-z
1/2+x,1/2-y,1/2+z
loop_
_atom_site_type_symbol
_atom_site_label
_atom_site_fract_x
_atom_site_fract_y
_atom_site_fract_z
Si Si1 0.087579 0.829480 0.558046
Si Si2 0.392430 0.131103 0.579007
Si Si3 0.508180 0.827857 0.863186
Si Si4 0.313831 0.495297 0.244605
Si Si5 0.799637 0.834408 0.540821
O O1 0.250000 0.750000 0.500000
O O2 0.999975 0.712477 0.565622
O O3 0.955212 0.877817 0.662265
O O4 0.132184 0.993306 0.508790
O O5 0.336200 0.272142 0.572929
O O6 0.500000 0.000000 0.500000
O O7 0.239470 0.037305 0.677432
O O8 0.614626 0.669004 0.808487
O O9 0.643409 0.961996 0.803538
O O10 0.393280 0.840858 0.876150
O O11 0.383992 0.800435 0.966634
#
# Coordination Sequence:
#
# PCOD9285038 Si02
#       5
#     8   8   8   8   8
#     4  11  25  46  70  95 138 189 226 275 349 416
#     4  12  24  42  70 102 137 173 232 289 337 401
#     4  10  21  41  66  96 134 176 221 271 346 408
#     4  11  22  41  67  97 133 178 227 272 343 406
#     4  10  23  41  67  97 136 178 220 280 343 403
#
# _framework density 19.982894999999999
#
# number of rings (size 3 to 8) (size 9 to 14) (size 15 to 20)
#    0.000    1.200    4.000    1.800    5.600    0.800 
#    0.000    0.000    4.400    0.000    0.000    0.000 
#    0.000    0.000    0.000    0.000    0.000    0.000 
#
# Total GULP energy -111616.916911 kJ/mol
# GULP energy per Si atom -5580.845846 kJ/mol
# Density = 1.993741 g / cm^3
# Si number density = 19.982895 Si / 1000 Ang^3
#
#
#
# Elastic Constant Matrix: (Units=GPa)
#
#
# Indices 1 2 3 4 5 6 
#
# 1 102.9167 51.0034 73.9349 0.0000 8.1316 0.0001
# 2 51.0034 107.2485 59.4146 0.0000 -1.2100 0.0003
# 3 73.9349 59.4146 126.0746 -0.0003 -12.5294 -0.0001
# 4 0.0000 0.0000 -0.0003 42.9004 0.0000 3.6352
# 5 8.1316 -1.2100 -12.5294 0.0000 20.6160 0.0000
# 6 0.0001 0.0003 -0.0001 3.6352 0.0000 34.6132
#
#
#
# Elastic Compliance Matrix: (Units=1/GPa)
#
#
# Indices 1 2 3 4 5 6 
#
# 1 0.022115 -0.003513 -0.012985 0.000000 -0.016821 0.000000
# 2 -0.003513 0.013360 -0.004279 0.000000 -0.000430 0.000000
# 3 -0.012985 -0.004279 0.019207 0.000000 0.016544 0.000000
# 4 0.000000 0.000000 0.000000 0.023519 0.000000 -0.002470
# 5 -0.016821 -0.000430 0.016544 0.000000 0.065170 0.000000
# 6 0.000000 0.000000 0.000000 -0.002470 0.000000 0.029150
#
#
# Mechanical properties :
#
#
# Convention : Reuss Voigt Hill
#
# Bulk Modulus (GPa) = 76.16966 78.32729 77.24848
# Shear Modulus (GPa) = 22.88819 29.75171 26.31995
#
# Velocity S-wave (km/s) = 3.38803 3.86276 3.63316
# Velocity P-wave (km/s) = 7.31472 7.69265 7.50606
#
# Compressibility (1/GPa) = 0.01312859
#
# Stress axis : x y z
#
# Youngs Moduli (GPa) = 45.21760 74.84756 52.06325
#
# Poissons Ratio (x) = 0.26296 0.67605
# Poissons Ratio (y) = 0.15886 0.22277
# Poissons Ratio (z) = 0.58716 0.32026
#
# Static dielectric constant tensor:
#      x y z
#    x 1.704190 0.000000 0.026030 
#    y 0.000000 1.724560 0.000000 
#    z 0.026030 0.000000 1.748710 
# 
# From -- ./inp_files/150544.got.cif
#   From: 2010.05.17/outbox.cif.g08.bks.cpg/sg15_76_cif.got.tgz:150544.got - 2010.06.03 18:47:42.
