data_PCOD9285593
_publ_section_title
;
Structure prediction by ZEFSAII (Michael W. Deem and Ramdas Pophale) SiO2 
 PCOD9285593
Probable space group: C 2/C
;
_chemical_formula_sum "Si O2"
_cell_formula_units_Z 60
_cell_length_a 8.494763
_cell_length_b 20.984129
_cell_length_c 16.713978
_cell_angle_alpha 90.000000
_cell_angle_beta 116.706855
_cell_angle_gamma 90.000000
_cell_volume 2661.509022
_symmetry_space_group_name_H-M "C 2/C"
_symmetry_group_IT_number 15
_symmetry_cell_setting 'monoclinic'
loop_
_space_group_symop_operation_xyz
x,y,z
-x,y,1/2-z
-x,-y,-z
x,-y,1/2+z
1/2+x,1/2+y,z
1/2-x,1/2+y,1/2-z
1/2-x,1/2-y,-z
1/2+x,1/2-y,1/2+z
loop_
_atom_site_type_symbol
_atom_site_label
_atom_site_fract_x
_atom_site_fract_y
_atom_site_fract_z
Si Si1 0.250482 0.287390 0.604825
Si Si2 0.275929 0.041879 0.559211
Si Si3 0.215997 0.838049 0.306866
Si Si4 0.500000 0.898331 0.250000
Si Si5 0.708055 0.190471 0.279439
Si Si6 0.977027 0.610456 0.995177
Si Si7 0.067996 0.829305 0.001822
Si Si8 0.761050 0.100165 0.423873
O O1 0.262297 0.307369 0.698893
O O2 0.187083 0.214949 0.584020
O O3 0.414117 0.300981 0.583857
O O4 0.098064 0.326826 0.524054
O O5 0.395467 0.058500 0.662928
O O6 0.404997 0.054059 0.513699
O O7 0.138146 0.098927 0.518252
O O8 0.191995 0.972898 0.549899
O O9 0.347492 0.859451 0.263647
O O10 0.244343 0.761936 0.321929
O O11 0.306189 0.876609 0.401044
O O12 0.000000 0.848982 0.250000
O O13 0.500000 0.186177 0.250000
O O14 0.771715 0.125095 0.336162
O O15 0.925919 0.601498 0.075301
O O16 0.872270 0.841180 0.988130
#
# Coordination Sequence:
#
# PCOD9285593 Si02
#       8
#     8   8   8   4   8   8   8   8
#     4  10  21  42  64  93 132 161 215 269 342 386
#     4  10  23  42  62  89 127 172 219 257 322 397
#     4  10  23  40  63  98 125 161 217 274 335 390
#     4  10  22  42  68  88 128 172 212 276 334 386
#     4  11  23  37  62  95 130 165 206 276 332 394
#     4  10  22  40  63  91 122 168 215 267 323 389
#     4  10  23  40  66  94 124 174 213 274 320 396
#     4  12  24  38  64  93 127 172 213 262 323 397
#
# _framework density 22.543600999999999
#
# number of rings (size 3 to 8) (size 9 to 14) (size 15 to 20)
#    0.000    1.600    1.333    2.400    6.533    4.800 
#    0.000    0.000    0.000    0.000    0.000    0.000 
#    0.000    0.000    0.000    0.000    0.000    0.000 
#
# Total GULP energy -167149.975621 kJ/mol
# GULP energy per Si atom -5571.665854 kJ/mol
# Density = 2.249229 g / cm^3
# Si number density = 22.543601 Si / 1000 Ang^3
#
#
#
# Elastic Constant Matrix: (Units=GPa)
#
#
# Indices 1 2 3 4 5 6 
#
# 1 101.8327 40.0761 30.3335 0.0000 -13.7813 0.0000
# 2 40.0761 126.8514 22.5187 0.0000 -5.7381 0.0000
# 3 30.3335 22.5187 65.2809 0.0000 -30.1049 0.0000
# 4 0.0000 0.0000 0.0000 15.2153 0.0000 -33.5616
# 5 -13.7813 -5.7381 -30.1049 0.0000 41.3250 0.0000
# 6 0.0000 0.0000 0.0000 -33.5616 0.0000 -96.7803
#
#
#
# Elastic Compliance Matrix: (Units=1/GPa)
#
#
# Indices 1 2 3 4 5 6 
#
# 1 0.012447 -0.003112 -0.004510 0.000000 0.000433 0.000000
# 2 -0.003112 0.009231 -0.002448 0.000000 -0.001540 0.000000
# 3 -0.004510 -0.002448 0.026215 0.000000 0.017254 0.000000
# 4 0.000000 0.000000 0.000000 0.037239 0.000000 -0.012914
# 5 0.000433 -0.001540 0.017254 0.000000 0.036698 0.000000
# 6 0.000000 0.000000 0.000000 -0.012914 0.000000 -0.005854
#
#
# Mechanical properties :
#
#
# Convention : Reuss Voigt Hill
#
# Bulk Modulus (GPa) = 36.03329 53.31352 44.67340
# Shear Modulus (GPa) = 34.39535 5.35445 19.87490
#
# Velocity S-wave (km/s) = 3.91029 1.54283 2.97243
# Velocity P-wave (km/s) = 6.03371 5.18403 5.62494
#
# Compressibility (1/GPa) = 0.02775212
#
# Stress axis : x y z
#
# Youngs Moduli (GPa) = 80.34116 108.32569 38.14542
#
# Poissons Ratio (x) = 0.33712 0.17205
# Poissons Ratio (y) = 0.25003 0.09339
# Poissons Ratio (z) = 0.36237 0.26522
#
# Static dielectric constant tensor:
#      x y z
#    x 2.061890 0.000000 0.099560 
#    y 0.000000 1.824960 0.000000 
#    z 0.099560 0.000000 1.907430 
# 
# From -- ./inp_files/192218.got.cif
#   From: 2010.05.17/outbox.cif.g08.bks.cpg/sg15_97_cif.got.tgz:192218.got - 2010.06.03 18:47:42.
