data_PCOD9285514
_publ_section_title
;
Structure prediction by ZEFSAII (Michael W. Deem and Ramdas Pophale) SiO2 
 PCOD9285514
Probable space group: C 2/C
;
_chemical_formula_sum "Si O2"
_cell_formula_units_Z 48
_cell_length_a 22.353732
_cell_length_b 21.098011
_cell_length_c 14.129441
_cell_angle_alpha 90.000000
_cell_angle_beta 22.913667
_cell_angle_gamma 90.000000
_cell_volume 2594.475993
_symmetry_space_group_name_H-M "C 2/C"
_symmetry_group_IT_number 15
_symmetry_cell_setting 'monoclinic'
loop_
_space_group_symop_operation_xyz
x,y,z
-x,y,1/2-z
-x,-y,-z
x,-y,1/2+z
1/2+x,1/2+y,z
1/2-x,1/2+y,1/2-z
1/2-x,1/2-y,-z
1/2+x,1/2-y,1/2+z
loop_
_atom_site_type_symbol
_atom_site_label
_atom_site_fract_x
_atom_site_fract_y
_atom_site_fract_z
Si Si1 0.180883 0.545666 0.092947
Si Si2 0.177154 0.785349 0.249040
Si Si3 0.596565 0.290531 0.702452
Si Si4 0.670156 0.091764 0.908143
Si Si5 0.334087 0.664696 0.948682
Si Si6 0.669335 0.568721 0.024944
O O1 0.225463 0.477024 0.065558
O O2 0.002614 0.566180 0.350238
O O3 0.237971 0.556809 0.902029
O O4 0.257587 0.596631 0.050169
O O5 0.306217 0.833384 0.103576
O O6 0.152237 0.808090 0.177819
O O7 0.024413 0.789598 0.534734
O O8 0.236855 0.713962 0.152788
O O9 0.500000 0.268477 0.750000
O O10 0.750000 0.250000 0.500000
O O11 0.644674 0.363014 0.609836
O O12 0.754981 0.078790 0.687316
O O13 0.500000 0.659275 0.750000
O O14 0.500000 0.541141 0.250000
#
# Coordination Sequence:
#
# PCOD9285514 Si02
#       6
#     8   8   8   8   8   8
#     4  10  23  40  64  94 121 166 217 263 326 384
#     4  10  22  40  63  90 124 170 206 263 328 380
#     4  11  25  44  66  94 130 177 216 265 323 394
#     4  10  21  42  63  88 126 166 211 258 330 382
#     4  10  23  36  62  95 122 157 212 271 314 380
#     4  11  22  43  65  89 130 170 209 266 330 390
#
# _framework density 18.500845999999999
#
# number of rings (size 3 to 8) (size 9 to 14) (size 15 to 20)
#    0.000    1.667    3.333    1.000   11.667    0.667 
#    6.000    0.000    0.000    0.000    0.000    0.000 
#    0.000    0.000    0.000    0.000    0.000    0.000 
#
# Total GULP energy -133911.128956 kJ/mol
# GULP energy per Si atom -5579.630373 kJ/mol
# Density = 1.845874 g / cm^3
# Si number density = 18.500846 Si / 1000 Ang^3
#
#
#
# Elastic Constant Matrix: (Units=GPa)
#
#
# Indices 1 2 3 4 5 6 
#
# 1 69.9578 65.4353 56.2106 -0.0085 -0.4424 -0.0009
# 2 65.4353 104.6356 54.5193 0.0103 -5.3339 -0.0072
# 3 56.2106 54.5193 117.7632 0.0194 9.9248 -0.0117
# 4 -0.0085 0.0103 0.0194 62.9551 -0.0014 -34.6113
# 5 -0.4424 -5.3339 9.9248 -0.0014 46.5362 0.0019
# 6 -0.0009 -0.0072 -0.0117 -34.6113 0.0019 32.6267
#
#
#
# Elastic Compliance Matrix: (Units=1/GPa)
#
#
# Indices 1 2 3 4 5 6 
#
# 1 0.042442 -0.021038 -0.010539 0.000020 0.000240 0.000014
# 2 -0.021038 0.023375 -0.001007 -0.000010 0.002694 -0.000006
# 3 -0.010539 -0.001007 0.014263 -0.000007 -0.003257 -0.000003
# 4 0.000020 -0.000010 -0.000007 0.038112 0.000000 0.040430
# 5 0.000240 0.002694 -0.003257 0.000000 0.022494 -0.000002
# 6 0.000014 -0.000006 -0.000003 0.040430 -0.000002 0.073539
#
#
# Mechanical properties :
#
#
# Convention : Reuss Voigt Hill
#
# Bulk Modulus (GPa) = 67.05922 71.63189 69.34556
# Shear Modulus (GPa) = 17.58314 36.16971 26.87642
#
# Velocity S-wave (km/s) = 3.08619 4.42637 3.81558
# Velocity P-wave (km/s) = 7.00177 8.05766 7.54820
#
# Compressibility (1/GPa) = 0.01491219
#
# Stress axis : x y z
#
# Youngs Moduli (GPa) = 23.56174 42.77985 70.11339
#
# Poissons Ratio (x) = 0.90001 0.73890
# Poissons Ratio (y) = 0.49570 0.07060
# Poissons Ratio (z) = 0.24831 0.04308
#
# Static dielectric constant tensor:
#      x y z
#    x 1.631060 0.000010 -0.056870 
#    y 0.000010 1.640480 0.000100 
#    z -0.056870 0.000100 0.836700 
# 
# From -- ./inp_files/174503.got.cif
#   From: 2010.05.17/outbox.cif.g08.bks.cpg/sg15_88_cif.got.tgz:174503.got - 2010.06.03 18:47:42.
