data_PCOD9285694
_publ_section_title
;
Structure prediction by ZEFSAII (Michael W. Deem and Ramdas Pophale) SiO2 
 PCOD9285694
Probable space group: C 2/C
;
_chemical_formula_sum "Si O2"
_cell_formula_units_Z 28
_cell_length_a 6.816185
_cell_length_b 23.636529
_cell_length_c 7.470716
_cell_angle_alpha 90.000000
_cell_angle_beta 96.554029
_cell_angle_gamma 90.000000
_cell_volume 1195.748163
_symmetry_space_group_name_H-M "C 2/C"
_symmetry_group_IT_number 15
_symmetry_cell_setting 'monoclinic'
loop_
_space_group_symop_operation_xyz
x,y,z
-x,y,1/2-z
-x,-y,-z
x,-y,1/2+z
1/2+x,1/2+y,z
1/2-x,1/2+y,1/2-z
1/2-x,1/2-y,-z
1/2+x,1/2-y,1/2+z
loop_
_atom_site_type_symbol
_atom_site_label
_atom_site_fract_x
_atom_site_fract_y
_atom_site_fract_z
Si Si1 0.500000 0.324137 0.250000
Si Si2 0.221835 0.232300 0.209001
Si Si3 0.500000 0.127672 0.250000
Si Si4 0.218892 0.923716 0.465542
Si Si5 0.500000 0.486954 0.750000
O O1 0.345630 0.281132 0.323539
O O2 0.629657 0.365692 0.383093
O O3 0.320049 0.171535 0.259433
O O4 0.000000 0.233416 0.250000
O O5 0.250000 0.250000 0.000000
O O6 0.570173 0.089158 0.423483
O O7 0.186137 0.972020 0.313186
O O8 0.069313 0.946938 0.599289
#
# Coordination Sequence:
#
# PCOD9285694 Si02
#       5
#     4   8   4   8   4
#     4  10  22  44  66  98 140 176 226 270 348 400
#     4  11  25  44  67 105 141 181 226 277 332 421
#     4  11  24  39  70 100 136 175 234 271 352 396
#     4  10  21  42  65  98 128 179 220 289 335 403
#     4   9  22  41  70  90 134 171 236 281 342 398
#
# _framework density 23.416301000000001
#
# number of rings (size 3 to 8) (size 9 to 14) (size 15 to 20)
#    0.000    1.714    2.857    0.000    2.000    8.000 
#    0.000    0.000    6.286    0.000    0.000    0.000 
#    0.000    0.000    0.000    0.000    0.000    0.000 
#
# Total GULP energy -78192.189856 kJ/mol
# GULP energy per Si atom -5585.156418 kJ/mol
# Density = 2.336300 g / cm^3
# Si number density = 23.416301 Si / 1000 Ang^3
#
#
#
# Elastic Constant Matrix: (Units=GPa)
#
#
# Indices 1 2 3 4 5 6 
#
# 1 134.6214 18.6489 25.4439 0.0000 13.2332 0.0000
# 2 18.6489 97.8510 13.8950 0.0000 12.2916 0.0000
# 3 25.4439 13.8950 70.6077 0.0000 26.2768 0.0000
# 4 0.0000 0.0000 0.0000 -13.1265 0.0000 -2.0340
# 5 13.2332 12.2916 26.2768 0.0000 47.7831 0.0000
# 6 0.0000 0.0000 0.0000 -2.0340 0.0000 19.5595
#
#
#
# Elastic Compliance Matrix: (Units=1/GPa)
#
#
# Indices 1 2 3 4 5 6 
#
# 1 0.008111 -0.001119 -0.002482 0.000000 -0.000594 0.000000
# 2 -0.001119 0.010817 -0.001013 0.000000 -0.001916 0.000000
# 3 -0.002482 -0.001013 0.018738 0.000000 -0.009357 0.000000
# 4 0.000000 0.000000 0.000000 -0.074974 0.000000 -0.007796
# 5 -0.000594 -0.001916 -0.009357 0.000000 0.026731 0.000000
# 6 0.000000 0.000000 0.000000 -0.007796 0.000000 0.050315
#
#
# Mechanical properties :
#
#
# Convention : Reuss Voigt Hill
#
# Bulk Modulus (GPa) = 35.16116 46.56176 40.86146
# Shear Modulus (GPa) = 85.55110 27.18271 56.36690
#
# Velocity S-wave (km/s) = 6.05096 3.41081 4.91161
# Velocity P-wave (km/s) = 7.99169 5.95307 7.04650
#
# Compressibility (1/GPa) = 0.02844047
#
# Stress axis : x y z
#
# Youngs Moduli (GPa) = 123.29518 92.44446 53.36617
#
# Poissons Ratio (x) = 0.10343 0.13243
# Poissons Ratio (y) = 0.13794 0.05404
# Poissons Ratio (z) = 0.30597 0.09361
#
# Static dielectric constant tensor:
#      x y z
#    x 1.863170 0.000000 0.110980 
#    y 0.000000 1.862110 0.000000 
#    z 0.110980 0.000000 2.102870 
# 
# From -- ./inp_files/19758.got.cif
#   From: 2010.05.17/outbox.cif.g08.bks.cpg/sg15_10_cif.got.tgz:19758.got - 2010.06.03 18:47:42.
