data_PCOD9285326
_publ_section_title
;
Structure prediction by ZEFSAII (Michael W. Deem and Ramdas Pophale) SiO2 
 PCOD9285326
Probable space group: C 2/C
;
_chemical_formula_sum "Si O2"
_cell_formula_units_Z 48
_cell_length_a 14.356972
_cell_length_b 11.736669
_cell_length_c 28.539027
_cell_angle_alpha 90.000000
_cell_angle_beta 148.968770
_cell_angle_gamma 90.000000
_cell_volume 2479.019440
_symmetry_space_group_name_H-M "C 2/C"
_symmetry_group_IT_number 15
_symmetry_cell_setting 'monoclinic'
loop_
_space_group_symop_operation_xyz
x,y,z
-x,y,1/2-z
-x,-y,-z
x,-y,1/2+z
1/2+x,1/2+y,z
1/2-x,1/2+y,1/2-z
1/2-x,1/2-y,-z
1/2+x,1/2-y,1/2+z
loop_
_atom_site_type_symbol
_atom_site_label
_atom_site_fract_x
_atom_site_fract_y
_atom_site_fract_z
Si Si1 0.000000 0.986056 0.750000
Si Si2 0.072461 0.504483 0.685934
Si Si3 0.458908 0.776653 0.089966
Si Si4 0.802535 0.673710 0.893682
Si Si5 0.475066 0.540804 0.342843
Si Si6 0.688779 0.129640 0.495588
Si Si7 0.000000 0.632021 0.250000
O O1 0.995583 0.923778 0.698624
O O2 0.173333 0.068794 0.824448
O O3 0.283906 0.520343 0.766253
O O4 0.992093 0.629620 0.643929
O O5 0.971215 0.425047 0.603929
O O6 0.038555 0.445906 0.721350
O O7 0.536684 0.820299 0.074210
O O8 0.548529 0.655630 0.138385
O O9 0.250000 0.750000 0.000000
O O10 0.671609 0.784774 0.833957
O O11 0.864321 0.653897 0.973511
O O12 0.641448 0.459346 0.429537
O O13 0.750000 0.250000 0.500000
#
# Coordination Sequence:
#
# PCOD9285326 Si02
#       7
#     4   8   8   8   8   8   4
#     4   9  20  39  68  94 120 175 231 256 324 404
#     4  12  25  43  69  99 137 177 220 279 340 394
#     4  12  25  44  63 100 141 169 215 289 338 378
#     4  10  21  41  70  93 130 177 222 268 327 402
#     4  11  24  42  68  97 136 173 223 282 330 395
#     4  11  24  44  70 100 129 180 233 265 327 417
#     4  11  22  43  68 100 130 181 225 266 332 414
#
# _framework density 19.362494000000002
#
# number of rings (size 3 to 8) (size 9 to 14) (size 15 to 20)
#    0.000    1.000    6.667    0.000    2.333    2.667 
#    3.000    2.500    0.000    0.000    0.000    0.000 
#    0.000    0.000    0.000    0.000    0.000    0.000 
#
# Total GULP energy -134028.988118 kJ/mol
# GULP energy per Si atom -5584.541172 kJ/mol
# Density = 1.931842 g / cm^3
# Si number density = 19.362494 Si / 1000 Ang^3
#
#
#
# Elastic Constant Matrix: (Units=GPa)
#
#
# Indices 1 2 3 4 5 6 
#
# 1 119.5558 6.3709 41.9094 0.0000 -12.3638 0.0000
# 2 6.3709 63.8142 8.2321 0.0000 -12.2557 0.0000
# 3 41.9094 8.2321 73.3009 0.0000 -11.1895 -0.0001
# 4 0.0000 0.0000 0.0000 25.6688 0.0000 -6.5918
# 5 -12.3638 -12.2557 -11.1895 0.0000 38.8212 0.0000
# 6 0.0000 0.0000 -0.0001 -6.5918 0.0000 29.6247
#
#
#
# Elastic Compliance Matrix: (Units=1/GPa)
#
#
# Indices 1 2 3 4 5 6 
#
# 1 0.010567 0.000018 -0.005784 0.000000 0.001704 0.000000
# 2 0.000018 0.016770 -0.001135 0.000000 0.004973 0.000000
# 3 -0.005784 -0.001135 0.017511 0.000000 0.002847 0.000000
# 4 0.000000 0.000000 0.000000 0.041319 0.000000 0.009194
# 5 0.001704 0.004973 0.002847 0.000000 0.028692 0.000000
# 6 0.000000 0.000000 0.000000 0.009194 0.000000 0.035801
#
#
# Mechanical properties :
#
#
# Convention : Reuss Voigt Hill
#
# Bulk Modulus (GPa) = 32.20768 41.07729 36.64248
# Shear Modulus (GPa) = 28.60250 32.16685 30.38468
#
# Velocity S-wave (km/s) = 3.84762 4.08032 3.96568
# Velocity P-wave (km/s) = 6.03399 6.59239 6.31936
#
# Compressibility (1/GPa) = 0.03104850
#
# Stress axis : x y z
#
# Youngs Moduli (GPa) = 94.63500 59.62989 57.10647
#
# Poissons Ratio (x) = -0.00110 0.33028
# Poissons Ratio (y) = -0.00174 0.06480
# Poissons Ratio (z) = 0.54732 0.06766
#
# Static dielectric constant tensor:
#      x y z
#    x 1.662400 0.000000 0.010180 
#    y 0.000000 1.603650 0.000000 
#    z 0.010180 0.000000 1.729010 
# 
# From -- ./inp_files/151895.got.cif
#   From: 2010.05.17/outbox.cif.g08.bks.cpg/sg15_76_cif.got.tgz:151895.got - 2010.06.03 18:47:42.
