data_PCOD9285567
_publ_section_title
;
Structure prediction by ZEFSAII (Michael W. Deem and Ramdas Pophale) SiO2 
 PCOD9285567
Probable space group: C 2/C
;
_chemical_formula_sum "Si O2"
_cell_formula_units_Z 32
_cell_length_a 25.232661
_cell_length_b 7.387768
_cell_length_c 16.992184
_cell_angle_alpha 90.000000
_cell_angle_beta 28.333948
_cell_angle_gamma 90.000000
_cell_volume 1503.357321
_symmetry_space_group_name_H-M "C 2/C"
_symmetry_group_IT_number 15
_symmetry_cell_setting 'monoclinic'
loop_
_space_group_symop_operation_xyz
x,y,z
-x,y,1/2-z
-x,-y,-z
x,-y,1/2+z
1/2+x,1/2+y,z
1/2-x,1/2+y,1/2-z
1/2-x,1/2-y,-z
1/2+x,1/2-y,1/2+z
loop_
_atom_site_type_symbol
_atom_site_label
_atom_site_fract_x
_atom_site_fract_y
_atom_site_fract_z
Si Si1 0.091344 0.006441 0.566189
Si Si2 0.690458 0.109451 0.634038
Si Si3 0.994597 0.637564 0.126212
Si Si4 0.965416 0.271521 0.492081
O O1 0.000000 0.938269 0.750000
O O2 0.058430 0.211349 0.589760
O O3 0.213525 0.985851 0.441944
O O4 0.080873 0.886875 0.501068
O O5 0.750000 0.250000 0.500000
O O6 0.600031 0.217606 0.804774
O O7 0.610804 0.961790 0.695392
O O8 0.068971 0.467755 0.998902
O O9 0.944934 0.728854 0.111439
#
# Coordination Sequence:
#
# PCOD9285567 Si02
#       4
#     8   8   8   8
#     4  12  22  37  65  90 123 172 210 258 332 376
#     4  10  21  42  64  90 127 165 207 268 327 374
#     4   9  22  42  60  91 128 160 221 264 311 394
#     4   9  21  45  57  90 130 159 215 276 306 384
#
# _framework density 21.285691
#
# number of rings (size 3 to 8) (size 9 to 14) (size 15 to 20)
#    1.500    0.500    2.500    0.750    0.000    6.000 
#    4.500    0.000    0.000    0.000    0.000    0.000 
#    0.000    0.000    0.000    0.000    0.000    0.000 
#
# Total GULP energy -89196.032922 kJ/mol
# GULP energy per Si atom -5574.752058 kJ/mol
# Density = 2.123724 g / cm^3
# Si number density = 21.285691 Si / 1000 Ang^3
#
#
#
# Elastic Constant Matrix: (Units=GPa)
#
#
# Indices 1 2 3 4 5 6 
#
# 1 48.4013 60.7515 17.9713 -0.0003 -15.0033 -0.0004
# 2 60.7515 108.2613 24.7674 -0.0024 -15.5041 0.0015
# 3 17.9713 24.7674 52.7310 -0.0028 -10.8846 0.0023
# 4 -0.0003 -0.0024 -0.0028 31.9703 0.0001 -3.8079
# 5 -15.0033 -15.5041 -10.8846 0.0001 40.4085 0.0002
# 6 -0.0004 0.0015 0.0023 -3.8079 0.0002 53.3350
#
#
#
# Elastic Compliance Matrix: (Units=1/GPa)
#
#
# Indices 1 2 3 4 5 6 
#
# 1 0.076392 -0.040098 -0.004789 -0.000003 0.011689 0.000002
# 2 -0.040098 0.031709 -0.001895 0.000002 -0.003232 -0.000001
# 3 -0.004789 -0.001895 0.022204 0.000002 0.003476 -0.000001
# 4 -0.000003 0.000002 0.000002 0.031547 0.000000 0.002252
# 5 0.011689 -0.003232 0.003476 0.000000 0.028783 0.000000
# 6 0.000002 -0.000001 -0.000001 0.002252 0.000000 0.018910
#
#
# Mechanical properties :
#
#
# Convention : Reuss Voigt Hill
#
# Bulk Modulus (GPa) = 27.21746 46.26378 36.74062
# Shear Modulus (GPa) = 15.85516 32.20297 24.02907
#
# Velocity S-wave (km/s) = 2.73220 3.89381 3.36353
# Velocity P-wave (km/s) = 4.77155 6.48055 5.69057
#
# Compressibility (1/GPa) = 0.03674112
#
# Stress axis : x y z
#
# Youngs Moduli (GPa) = 13.09045 31.53694 45.03780
#
# Poissons Ratio (x) = 1.26458 0.21567
# Poissons Ratio (y) = 0.52490 0.08533
# Poissons Ratio (z) = 0.06268 0.05975
#
# Static dielectric constant tensor:
#      x y z
#    x 1.768120 0.000000 0.054350 
#    y 0.000000 1.799540 0.000000 
#    z 0.054350 0.000000 1.778060 
# 
# From -- ./inp_files/93550.got.cif
#   From: 2010.05.17/outbox.cif.g08.bks.cpg/sg15_47_cif.got.tgz:93550.got - 2010.06.03 18:47:42.
