data_PCOD9285756
_publ_section_title
;
Structure prediction by ZEFSAII (Michael W. Deem and Ramdas Pophale) SiO2 
 PCOD9285756
Probable space group: C 2/C
;
_chemical_formula_sum "Si O2"
_cell_formula_units_Z 40
_cell_length_a 18.958758
_cell_length_b 15.747026
_cell_length_c 8.553354
_cell_angle_alpha 90.000000
_cell_angle_beta 41.746604
_cell_angle_gamma 90.000000
_cell_volume 1700.251197
_symmetry_space_group_name_H-M "C 2/C"
_symmetry_group_IT_number 15
_symmetry_cell_setting 'monoclinic'
loop_
_space_group_symop_operation_xyz
x,y,z
-x,y,1/2-z
-x,-y,-z
x,-y,1/2+z
1/2+x,1/2+y,z
1/2-x,1/2+y,1/2-z
1/2-x,1/2-y,-z
1/2+x,1/2-y,1/2+z
loop_
_atom_site_type_symbol
_atom_site_label
_atom_site_fract_x
_atom_site_fract_y
_atom_site_fract_z
Si Si1 0.255276 0.334414 0.097208
Si Si2 0.619765 0.036888 0.988383
Si Si3 0.546597 0.416025 0.846231
Si Si4 0.879999 0.205204 0.719236
Si Si5 0.697209 0.885711 0.659137
O O1 0.149302 0.386483 0.319163
O O2 0.316588 0.310100 0.158815
O O3 0.250000 0.250000 0.000000
O O4 0.329999 0.400536 0.880389
O O5 0.500000 0.036703 0.250000
O O6 0.693479 0.056755 0.012768
O O7 0.654366 0.946073 0.863960
O O8 0.500000 0.416626 0.750000
O O9 0.500000 0.500000 0.000000
O O10 0.494158 0.335823 0.018463
O O11 0.878954 0.305365 0.743448
O O12 0.812846 0.157721 0.966040
#
# Coordination Sequence:
#
# PCOD9285756 Si02
#       5
#     8   8   8   8   8
#     4  10  23  40  63  95 125 169 217 267 324 390
#     4  11  24  39  61  91 127 164 217 258 324 387
#     4  10  21  42  66  95 125 167 216 268 324 387
#     4   9  21  42  65  90 131 167 210 263 329 382
#     4  10  22  41  62  91 125 167 210 264 318 388
#
# _framework density 23.525933999999999
#
# number of rings (size 3 to 8) (size 9 to 14) (size 15 to 20)
#    0.000    2.000    0.000    1.800    5.600    2.400 
#   10.800    0.000    0.000    0.000    0.000    0.000 
#    0.000    0.000    0.000    0.000    0.000    0.000 
#
# Total GULP energy -111746.554421 kJ/mol
# GULP energy per Si atom -5587.327721 kJ/mol
# Density = 2.347239 g / cm^3
# Si number density = 23.525934 Si / 1000 Ang^3
#
#
#
# Elastic Constant Matrix: (Units=GPa)
#
#
# Indices 1 2 3 4 5 6 
#
# 1 21.2473 28.5186 26.5329 0.0000 -11.6775 0.0000
# 2 28.5186 171.9418 101.0692 0.0000 -5.2558 0.0000
# 3 26.5329 101.0692 176.5542 0.0000 -19.1455 0.0000
# 4 0.0000 0.0000 0.0000 64.6249 0.0000 4.5753
# 5 -11.6775 -5.2558 -19.1455 0.0000 13.6413 0.0000
# 6 0.0000 0.0000 0.0000 4.5753 0.0000 18.1542
#
#
#
# Elastic Compliance Matrix: (Units=1/GPa)
#
#
# Indices 1 2 3 4 5 6 
#
# 1 0.128908 -0.020471 0.004078 0.000000 0.108186 0.000000
# 2 -0.020471 0.012238 -0.006273 0.000000 -0.021613 0.000000
# 3 0.004078 -0.006273 0.010331 0.000000 0.015573 0.000000
# 4 0.000000 0.000000 0.000000 0.015755 0.000000 -0.003971
# 5 0.108186 -0.021613 0.015573 0.000000 0.179448 0.000000
# 6 0.000000 0.000000 0.000000 -0.003971 0.000000 0.056084
#
#
# Mechanical properties :
#
#
# Convention : Reuss Voigt Hill
#
# Bulk Modulus (GPa) = 9.42108 75.77609 42.59859
# Shear Modulus (GPa) = 10.34174 33.52561 21.93368
#
# Velocity S-wave (km/s) = 2.09891 3.77908 3.05670
# Velocity P-wave (km/s) = 3.14438 7.16390 5.53211
#
# Compressibility (1/GPa) = 0.10614492
#
# Stress axis : x y z
#
# Youngs Moduli (GPa) = 7.75745 81.71319 96.79722
#
# Poissons Ratio (x) = 1.67275 -0.39473
# Poissons Ratio (y) = 0.15880 0.60720
# Poissons Ratio (z) = -0.03163 0.51258
#
# Static dielectric constant tensor:
#      x y z
#    x 1.888610 0.000000 0.036050 
#    y 0.000000 0.894940 0.000000 
#    z 0.036050 0.000000 1.825420 
# 
# From -- ./inp_files/61359.got.cif
#   From: 2010.05.17/outbox.cif.g08.bks.cpg/sg15_31_cif.got.tgz:61359.got - 2010.06.03 18:47:42.
