data_PCOD9285629
_publ_section_title
;
Structure prediction by ZEFSAII (Michael W. Deem and Ramdas Pophale) SiO2 
 PCOD9285629
Probable space group: C 2/C
;
_chemical_formula_sum "Si O2"
_cell_formula_units_Z 60
_cell_length_a 24.726494
_cell_length_b 14.344828
_cell_length_c 19.090941
_cell_angle_alpha 90.000000
_cell_angle_beta 158.531391
_cell_angle_gamma 90.000000
_cell_volume 2478.312824
_symmetry_space_group_name_H-M "C 2/C"
_symmetry_group_IT_number 15
_symmetry_cell_setting 'monoclinic'
loop_
_space_group_symop_operation_xyz
x,y,z
-x,y,1/2-z
-x,-y,-z
x,-y,1/2+z
1/2+x,1/2+y,z
1/2-x,1/2+y,1/2-z
1/2-x,1/2-y,-z
1/2+x,1/2-y,1/2+z
loop_
_atom_site_type_symbol
_atom_site_label
_atom_site_fract_x
_atom_site_fract_y
_atom_site_fract_z
Si Si1 0.870803 0.212752 0.873741
Si Si2 0.278758 0.949211 0.527323
Si Si3 0.000000 0.834857 0.250000
Si Si4 0.572400 0.313299 0.485747
Si Si5 0.440428 0.817010 0.292856
Si Si6 0.857218 0.132312 0.108205
Si Si7 0.581621 0.990162 0.943860
Si Si8 0.141314 0.010555 0.618951
O O1 0.708273 0.253990 0.678006
O O2 0.875365 0.117255 0.923850
O O3 0.935118 0.194903 0.873473
O O4 0.978896 0.285215 0.040686
O O5 0.143722 0.891498 0.395396
O O6 0.219477 0.054024 0.438022
O O7 0.413907 0.950241 0.746100
O O8 0.346819 0.930588 0.533053
O O9 0.041694 0.780778 0.370383
O O10 0.623184 0.422588 0.545990
O O11 0.413437 0.726985 0.211380
O O12 0.537643 0.900521 0.377275
O O13 0.272018 0.847694 0.102807
O O14 0.000000 0.084641 0.250000
O O15 0.701721 0.992140 0.150638
O O16 0.000000 0.000000 0.500000
#
# Coordination Sequence:
#
# PCOD9285629 Si02
#       8
#     8   8   4   8   8   8   8   8
#     4  11  25  46  73 107 145 191 239 302 369 432
#     4  10  22  39  67  96 142 185 230 288 364 422
#     4  12  26  50  70 104 142 182 260 314 348 436
#     4  11  27  48  73 106 140 192 249 304 373 425
#     4  10  23  36  62  98 150 181 231 288 345 451
#     4  10  22  32  55 100 138 188 220 271 361 430
#     4  10  21  42  65 102 139 185 234 287 359 439
#     4  10  22  42  71 102 140 183 237 297 360 430
#
# _framework density 24.210018999999999
#
# number of rings (size 3 to 8) (size 9 to 14) (size 15 to 20)
#    0.000    1.600    2.000    1.600   13.067    1.600 
#    2.400    2.667    0.000    0.000    0.000    0.000 
#    0.000    0.000    0.000    0.000    0.000    0.000 
#
# Total GULP energy -167455.465124 kJ/mol
# GULP energy per Si atom -5581.848837 kJ/mol
# Density = 2.415492 g / cm^3
# Si number density = 24.210019 Si / 1000 Ang^3
#
#
#
# Elastic Constant Matrix: (Units=GPa)
#
#
# Indices 1 2 3 4 5 6 
#
# 1 74.6956 18.1483 21.4959 -0.0001 10.0178 -0.0001
# 2 18.1483 75.2955 13.7404 -0.0001 16.4022 -0.0001
# 3 21.4959 13.7404 130.2722 -0.0002 19.0109 -0.0001
# 4 -0.0001 -0.0001 -0.0002 28.4338 0.0000 1.1760
# 5 10.0178 16.4022 19.0109 0.0000 36.8679 0.0000
# 6 -0.0001 -0.0001 -0.0001 1.1760 0.0000 21.3872
#
#
#
# Elastic Compliance Matrix: (Units=1/GPa)
#
#
# Indices 1 2 3 4 5 6 
#
# 1 0.014864 -0.002846 -0.001890 0.000000 -0.001798 0.000000
# 2 -0.002846 0.015301 -0.000285 0.000000 -0.005887 0.000000
# 3 -0.001890 -0.000285 0.008570 0.000000 -0.003778 0.000000
# 4 0.000000 0.000000 0.000000 0.035250 0.000000 -0.001938
# 5 -0.001798 -0.005887 -0.003778 0.000000 0.032180 0.000000
# 6 0.000000 0.000000 0.000000 -0.001938 0.000000 0.046863
#
#
# Mechanical properties :
#
#
# Convention : Reuss Voigt Hill
#
# Bulk Modulus (GPa) = 34.85223 43.00359 38.92791
# Shear Modulus (GPa) = 28.96281 32.46304 30.71293
#
# Velocity S-wave (km/s) = 3.46253 3.66579 3.56561
# Velocity P-wave (km/s) = 5.51476 5.97651 5.75027
#
# Compressibility (1/GPa) = 0.02869257
#
# Stress axis : x y z
#
# Youngs Moduli (GPa) = 67.27556 65.35323 116.69167
#
# Poissons Ratio (x) = 0.18600 0.22056
# Poissons Ratio (y) = 0.19147 0.03328
# Poissons Ratio (z) = 0.12716 0.01864
#
# Static dielectric constant tensor:
#      x y z
#    x 1.945810 0.000000 -0.009430 
#    y 0.000000 1.980270 0.000000 
#    z -0.009430 0.000000 1.915540 
# 
# From -- ./inp_files/257884.got.cif
#   From: 2010.05.17/outbox.cif.g08.bks.cpg/sg15_129_cif.got.tgz:257884.got - 2010.06.03 18:47:42.
