data_PCOD9285272
_publ_section_title
;
Structure prediction by ZEFSAII (Michael W. Deem and Ramdas Pophale) SiO2 
 PCOD9285272
Probable space group: C 2/C
;
_chemical_formula_sum "Si O2"
_cell_formula_units_Z 48
_cell_length_a 9.927087
_cell_length_b 15.074189
_cell_length_c 30.657435
_cell_angle_alpha 90.000000
_cell_angle_beta 145.371213
_cell_angle_gamma 90.000000
_cell_volume 2606.973269
_symmetry_space_group_name_H-M "C 2/C"
_symmetry_group_IT_number 15
_symmetry_cell_setting 'monoclinic'
loop_
_space_group_symop_operation_xyz
x,y,z
-x,y,1/2-z
-x,-y,-z
x,-y,1/2+z
1/2+x,1/2+y,z
1/2-x,1/2+y,1/2-z
1/2-x,1/2-y,-z
1/2+x,1/2-y,1/2+z
loop_
_atom_site_type_symbol
_atom_site_label
_atom_site_fract_x
_atom_site_fract_y
_atom_site_fract_z
Si Si1 0.021113 0.381458 0.206015
Si Si2 0.638377 0.767794 0.595085
Si Si3 0.405267 0.024410 0.426616
Si Si4 0.279607 0.982321 0.575171
Si Si5 0.049831 0.866731 0.313733
Si Si6 0.722103 0.220161 0.421255
O O1 0.295683 0.370343 0.268806
O O2 0.000000 0.413874 0.250000
O O3 0.874904 0.289484 0.162958
O O4 0.907432 0.449103 0.141193
O O5 0.672239 0.872642 0.596425
O O6 0.476434 0.756462 0.595177
O O7 0.475151 0.730980 0.512387
O O8 0.607251 0.012649 0.443219
O O9 0.500000 0.000000 0.500000
O O10 0.193073 0.957810 0.358513
O O11 0.316744 0.881726 0.601236
O O12 0.000000 0.000000 0.500000
O O13 0.197893 0.788074 0.375405
O O14 0.000000 0.850889 0.250000
#
# Coordination Sequence:
#
# PCOD9285272 Si02
#       6
#     8   8   8   8   8   8
#     4  12  25  42  67  99 135 169 217 279 333 386
#     4  10  21  41  69  95 121 178 223 257 317 405
#     4  11  24  43  70  95 131 180 221 265 330 399
#     4  11  24  43  68  99 131 173 225 270 324 399
#     4  12  25  44  63  99 139 166 213 282 335 380
#     4  10  21  41  69  92 129 171 221 261 323 396
#
# _framework density 18.412156
#
# number of rings (size 3 to 8) (size 9 to 14) (size 15 to 20)
#    0.000    1.000    6.667    0.000    2.333    2.667 
#    3.000    2.500    0.000    0.000    0.000    0.000 
#    0.000    0.000    0.000    0.000    0.000    0.000 
#
# Total GULP energy -134106.939820 kJ/mol
# GULP energy per Si atom -5587.789159 kJ/mol
# Density = 1.837025 g / cm^3
# Si number density = 18.412156 Si / 1000 Ang^3
#
#
#
# Elastic Constant Matrix: (Units=GPa)
#
#
# Indices 1 2 3 4 5 6 
#
# 1 83.7410 32.1873 27.8320 0.0000 1.5173 0.0000
# 2 32.1873 113.6752 40.7149 0.0000 -8.6369 0.0000
# 3 27.8320 40.7149 75.1111 -0.0001 -5.8098 0.0000
# 4 0.0000 0.0000 -0.0001 37.3330 0.0000 -2.0938
# 5 1.5173 -8.6369 -5.8098 0.0000 47.2557 0.0000
# 6 0.0000 0.0000 0.0000 -2.0938 0.0000 28.1257
#
#
#
# Elastic Compliance Matrix: (Units=1/GPa)
#
#
# Indices 1 2 3 4 5 6 
#
# 1 0.014335 -0.002763 -0.003926 0.000000 -0.001448 0.000000
# 2 -0.002763 0.011526 -0.005103 0.000000 0.001568 0.000000
# 3 -0.003926 -0.005103 0.017640 0.000000 0.001362 0.000000
# 4 0.000000 0.000000 0.000000 0.026898 0.000000 0.002002
# 5 -0.001448 0.001568 0.001362 0.000000 0.021662 0.000000
# 6 0.000000 0.000000 0.000000 0.002002 0.000000 0.035704
#
#
# Mechanical properties :
#
#
# Convention : Reuss Voigt Hill
#
# Bulk Modulus (GPa) = 50.20770 52.66620 51.43695
# Shear Modulus (GPa) = 31.64824 33.99576 32.82200
#
# Velocity S-wave (km/s) = 4.15043 4.30161 4.22670
# Velocity P-wave (km/s) = 7.09197 7.30328 7.19840
#
# Compressibility (1/GPa) = 0.01991726
#
# Stress axis : x y z
#
# Youngs Moduli (GPa) = 69.76159 86.75977 56.68987
#
# Poissons Ratio (x) = 0.23969 0.22257
# Poissons Ratio (y) = 0.19273 0.28928
# Poissons Ratio (z) = 0.27389 0.44273
#
# Static dielectric constant tensor:
#      x y z
#    x 1.604970 0.000000 -0.010730 
#    y 0.000000 1.623120 0.000000 
#    z -0.010730 0.000000 1.621790 
# 
# From -- ./inp_files/182407.got.cif
#   From: 2010.05.17/outbox.cif.g08.bks.cpg/sg15_92_cif.got.tgz:182407.got - 2010.06.03 18:47:42.
