data_PCOD9285067
_publ_section_title
;
Structure prediction by ZEFSAII (Michael W. Deem and Ramdas Pophale) SiO2 
 PCOD9285067
Probable space group: C 2/C
;
_chemical_formula_sum "Si O2"
_cell_formula_units_Z 44
_cell_length_a 5.379349
_cell_length_b 20.495046
_cell_length_c 17.045689
_cell_angle_alpha 90.000000
_cell_angle_beta 108.838639
_cell_angle_gamma 90.000000
_cell_volume 1778.617105
_symmetry_space_group_name_H-M "C 2/C"
_symmetry_group_IT_number 15
_symmetry_cell_setting 'monoclinic'
loop_
_space_group_symop_operation_xyz
x,y,z
-x,y,1/2-z
-x,-y,-z
x,-y,1/2+z
1/2+x,1/2+y,z
1/2-x,1/2+y,1/2-z
1/2-x,1/2-y,-z
1/2+x,1/2-y,1/2+z
loop_
_atom_site_type_symbol
_atom_site_label
_atom_site_fract_x
_atom_site_fract_y
_atom_site_fract_z
Si Si1 0.183824 0.944672 0.949077
Si Si2 0.809217 0.113368 0.299900
Si Si3 0.454396 0.175622 0.023149
Si Si4 0.180830 0.251515 0.129625
Si Si5 0.500000 0.642894 0.750000
Si Si6 0.532224 0.419619 0.413227
O O1 0.895324 0.927885 0.884451
O O2 0.230284 0.018690 0.927726
O O3 0.360825 0.884990 0.938607
O O4 0.174664 0.940029 0.041956
O O5 0.500000 0.109459 0.250000
O O6 0.887347 0.188189 0.327259
O O7 0.000000 0.089737 0.250000
O O8 0.523875 0.216780 0.952114
O O9 0.183935 0.141572 0.966560
O O10 0.401826 0.221357 0.092391
O O11 0.276210 0.308304 0.196338
O O12 0.573288 0.599811 0.682219
#
# Coordination Sequence:
#
# PCOD9285067 Si02
#       6
#     8   8   8   8   4   8
#     4  11  24  42  70  99 136 190 242 291 359 434
#     4  12  26  44  69 107 144 184 237 298 359 427
#     4  10  21  43  69  99 136 188 236 294 359 432
#     4  10  21  41  67 100 137 182 237 293 357 435
#     4  10  22  42  66  94 148 176 234 302 362 422
#     4  10  23  44  66  99 140 184 242 289 363 430
#
# _framework density 24.738318
#
# number of rings (size 3 to 8) (size 9 to 14) (size 15 to 20)
#    0.000    1.455    2.727    1.636    1.273    2.182 
#    0.000    2.727    0.000    0.000    0.000    0.000 
#    0.000    0.000    0.000    0.000    0.000    0.000 
#
# Total GULP energy -122990.685786 kJ/mol
# GULP energy per Si atom -5590.485718 kJ/mol
# Density = 2.468201 g / cm^3
# Si number density = 24.738318 Si / 1000 Ang^3
#
#
#
# Elastic Constant Matrix: (Units=GPa)
#
#
# Indices 1 2 3 4 5 6 
#
# 1 56.0530 40.2529 33.1344 0.0000 -5.4715 0.0000
# 2 40.2529 135.3751 53.7876 0.0000 3.9266 0.0000
# 3 33.1344 53.7876 160.8099 0.0000 -23.0909 0.0000
# 4 0.0000 0.0000 0.0000 54.3189 0.0000 -0.8139
# 5 -5.4715 3.9266 -23.0909 0.0000 9.8699 0.0000
# 6 0.0000 0.0000 0.0000 -0.8139 0.0000 25.2561
#
#
#
# Elastic Compliance Matrix: (Units=1/GPa)
#
#
# Indices 1 2 3 4 5 6 
#
# 1 0.025275 -0.007958 -0.000120 0.000000 0.016898 0.000000
# 2 -0.007958 0.012849 -0.006062 0.000000 -0.023706 0.000000
# 3 -0.000120 -0.006062 0.012962 0.000000 0.032671 0.000000
# 4 0.000000 0.000000 0.000000 0.018419 0.000000 0.000594
# 5 0.016898 -0.023706 0.032671 0.000000 0.196551 0.000000
# 6 0.000000 0.000000 0.000000 0.000594 0.000000 0.039614
#
#
# Mechanical properties :
#
#
# Convention : Reuss Voigt Hill
#
# Bulk Modulus (GPa) = 43.84629 67.39866 55.62248
# Shear Modulus (GPa) = 14.63906 32.89317 23.76612
#
# Velocity S-wave (km/s) = 2.43524 3.65039 3.10288
# Velocity P-wave (km/s) = 5.06653 6.71348 5.94729
#
# Compressibility (1/GPa) = 0.02280695
#
# Stress axis : x y z
#
# Youngs Moduli (GPa) = 39.56434 77.82476 77.14808
#
# Poissons Ratio (x) = 0.61933 0.00924
# Poissons Ratio (y) = 0.31485 0.46768
# Poissons Ratio (z) = 0.00474 0.47179
#
# Static dielectric constant tensor:
#      x y z
#    x 2.049370 0.000000 -0.016570 
#    y 0.000000 1.999340 0.000000 
#    z -0.016570 0.000000 1.992140 
# 
# From -- ./inp_files/184942.got.cif
#   From: 2010.05.17/outbox.cif.g08.bks.cpg/sg15_93_cif.got.tgz:184942.got - 2010.06.03 18:47:42.
