data_PCOD9285836
_publ_section_title
;
Structure prediction by ZEFSAII (Michael W. Deem and Ramdas Pophale) SiO2 
 PCOD9285836
Probable space group: C 2/C
;
_chemical_formula_sum "Si O2"
_cell_formula_units_Z 44
_cell_length_a 7.078966
_cell_length_b 11.378853
_cell_length_c 26.539628
_cell_angle_alpha 90.000000
_cell_angle_beta 79.641984
_cell_angle_gamma 90.000000
_cell_volume 2102.942286
_symmetry_space_group_name_H-M "C 2/C"
_symmetry_group_IT_number 15
_symmetry_cell_setting 'monoclinic'
loop_
_space_group_symop_operation_xyz
x,y,z
-x,y,1/2-z
-x,-y,-z
x,-y,1/2+z
1/2+x,1/2+y,z
1/2-x,1/2+y,1/2-z
1/2-x,1/2-y,-z
1/2+x,1/2-y,1/2+z
loop_
_atom_site_type_symbol
_atom_site_label
_atom_site_fract_x
_atom_site_fract_y
_atom_site_fract_z
Si Si1 0.157377 0.807720 0.201219
Si Si2 0.082059 0.363294 0.612359
Si Si3 0.002596 0.069668 0.067094
Si Si4 0.685905 0.563643 0.163701
Si Si5 0.051964 0.809480 0.027042
Si Si6 0.500000 0.738532 0.250000
O O1 0.153804 0.719366 0.154464
O O2 0.108836 0.936874 0.183458
O O3 0.361605 0.809813 0.219651
O O4 0.000000 0.771648 0.250000
O O5 0.269567 0.429346 0.582074
O O6 0.988212 0.279708 0.573736
O O7 0.912315 0.443486 0.641581
O O8 0.083532 0.102396 0.117248
O O9 0.075433 0.939116 0.049996
O O10 0.057761 0.159581 0.019623
O O11 0.635249 0.655808 0.209438
O O12 0.250000 0.750000 0.000000
#
# Coordination Sequence:
#
# PCOD9285836 Si02
#       6
#     8   8   8   8   8   4
#     4  12  25  42  64  93 131 165 215 269 318 378
#     4  11  23  41  67  95 128 168 215 265 321 380
#     4  10  21  42  67  96 132 166 216 265 317 387
#     4  12  25  40  68  96 125 173 218 258 322 390
#     4   9  20  41  68  95 134 170 205 272 323 373
#     4  12  26  42  64  94 126 172 210 268 328 376
#
# _framework density 20.923065999999999
#
# number of rings (size 3 to 8) (size 9 to 14) (size 15 to 20)
#    0.000    1.091    6.364    0.000    0.000    5.091 
#    0.000    8.182    0.000    0.000    0.000    0.000 
#    0.000    0.000    0.000    0.000    0.000    0.000 
#
# Total GULP energy -122810.112119 kJ/mol
# GULP energy per Si atom -5582.277824 kJ/mol
# Density = 2.087544 g / cm^3
# Si number density = 20.923066 Si / 1000 Ang^3
#
#
#
# Elastic Constant Matrix: (Units=GPa)
#
#
# Indices 1 2 3 4 5 6 
#
# 1 69.3944 7.3731 18.8461 0.0000 -4.8129 0.0000
# 2 7.3731 56.9110 27.6725 0.0000 -4.2158 0.0000
# 3 18.8461 27.6725 115.6075 0.0000 5.9426 0.0000
# 4 0.0000 0.0000 0.0000 26.1200 0.0000 -5.8267
# 5 -4.8129 -4.2158 5.9426 0.0000 36.4217 0.0000
# 6 0.0000 0.0000 0.0000 -5.8267 0.0000 22.9639
#
#
#
# Elastic Compliance Matrix: (Units=1/GPa)
#
#
# Indices 1 2 3 4 5 6 
#
# 1 0.015310 -0.000607 -0.002472 0.000000 0.002356 0.000000
# 2 -0.000607 0.020264 -0.004909 0.000000 0.003066 0.000000
# 3 -0.002472 -0.004909 0.010361 0.000000 -0.002585 0.000000
# 4 0.000000 0.000000 0.000000 0.040582 0.000000 0.010297
# 5 0.002356 0.003066 -0.002585 0.000000 0.028544 0.000000
# 6 0.000000 0.000000 0.000000 0.010297 0.000000 0.046159
#
#
# Mechanical properties :
#
#
# Convention : Reuss Voigt Hill
#
# Bulk Modulus (GPa) = 33.37915 38.85515 36.11715
# Shear Modulus (GPa) = 26.71200 29.63587 28.17393
#
# Velocity S-wave (km/s) = 3.57694 3.76762 3.67352
# Velocity P-wave (km/s) = 5.74867 6.12678 5.94073
#
# Compressibility (1/GPa) = 0.02995882
#
# Stress axis : x y z
#
# Youngs Moduli (GPa) = 65.31890 49.34825 96.51720
#
# Poissons Ratio (x) = 0.02996 0.23854
# Poissons Ratio (y) = 0.03966 0.47382
# Poissons Ratio (z) = 0.16144 0.24226
#
# Static dielectric constant tensor:
#      x y z
#    x 1.758080 0.000000 0.001610 
#    y 0.000000 1.704680 0.000000 
#    z 0.001610 0.000000 1.766200 
# 
# From -- ./inp_files/304927.got.cif
#   From: 2010.05.17/outbox.cif.g08.bks.cpg/sg15_153_cif.got.tgz:304927.got - 2010.06.03 18:47:42.
