data_PCOD9285429
_publ_section_title
;
Structure prediction by ZEFSAII (Michael W. Deem and Ramdas Pophale) SiO2 
 PCOD9285429
Probable space group: C 2/C
;
_chemical_formula_sum "Si O2"
_cell_formula_units_Z 56
_cell_length_a 10.573611
_cell_length_b 9.219561
_cell_length_c 26.065014
_cell_angle_alpha 90.000000
_cell_angle_beta 69.042062
_cell_angle_gamma 90.000000
_cell_volume 2372.823977
_symmetry_space_group_name_H-M "C 2/C"
_symmetry_group_IT_number 15
_symmetry_cell_setting 'monoclinic'
loop_
_space_group_symop_operation_xyz
x,y,z
-x,y,1/2-z
-x,-y,-z
x,-y,1/2+z
1/2+x,1/2+y,z
1/2-x,1/2+y,1/2-z
1/2-x,1/2-y,-z
1/2+x,1/2-y,1/2+z
loop_
_atom_site_type_symbol
_atom_site_label
_atom_site_fract_x
_atom_site_fract_y
_atom_site_fract_z
Si Si1 0.068576 0.063164 0.422885
Si Si2 0.902460 0.424701 0.553896
Si Si3 0.630495 0.963355 0.762918
Si Si4 0.217870 0.690555 0.588761
Si Si5 0.900374 0.188406 0.970248
Si Si6 0.578485 0.852684 0.372746
Si Si7 0.841328 0.245441 0.287834
O O1 0.052971 0.152781 0.478116
O O2 0.106957 0.181693 0.374227
O O3 0.187058 0.947111 0.415685
O O4 0.936130 0.960999 0.435523
O O5 0.792434 0.316406 0.547011
O O6 0.000000 0.500000 0.500000
O O7 0.003218 0.311431 0.568393
O O8 0.841297 0.548959 0.598692
O O9 0.500000 0.904046 0.750000
O O10 0.587080 0.066046 0.817383
O O11 0.692478 0.085579 0.717211
O O12 0.737774 0.849892 0.769402
O O13 0.077157 0.638506 0.587388
O O14 0.182636 0.769053 0.648167
O O15 0.750000 0.250000 0.000000
O O16 0.000000 0.218824 0.250000
#
# Coordination Sequence:
#
# PCOD9285429 Si02
#       7
#     8   8   8   8   8   8   8
#     4  10  24  39  63  96 132 171 221 274 329 391
#     4  11  23  40  65  98 139 178 229 275 334 411
#     4  11  25  46  72 103 138 175 226 294 355 418
#     4  11  24  43  65  99 136 175 228 286 338 410
#     4  10  21  42  59  92 136 177 221 268 321 396
#     4  12  23  42  69  98 133 180 225 282 345 408
#     4  11  24  47  72 101 136 176 230 289 356 421
#
# _framework density 23.600572
#
# number of rings (size 3 to 8) (size 9 to 14) (size 15 to 20)
#    0.000    1.143    5.714    0.857    4.000    1.143 
#    0.000    0.000    0.000    0.000    0.000    0.000 
#    0.000    0.000    0.000    0.000    0.000    0.000 
#
# Total GULP energy -156309.994016 kJ/mol
# GULP energy per Si atom -5582.499786 kJ/mol
# Density = 2.354686 g / cm^3
# Si number density = 23.600572 Si / 1000 Ang^3
#
#
#
# Elastic Constant Matrix: (Units=GPa)
#
#
# Indices 1 2 3 4 5 6 
#
# 1 114.0580 66.7371 -3.3934 0.0000 2.3540 0.0000
# 2 66.7371 132.2693 10.3525 0.0000 -2.4180 0.0000
# 3 -3.3934 10.3525 63.6865 0.0000 8.0521 0.0000
# 4 0.0000 0.0000 0.0000 29.7613 0.0000 3.5960
# 5 2.3540 -2.4180 8.0521 0.0000 29.3259 0.0000
# 6 0.0000 0.0000 0.0000 3.5960 0.0000 50.2058
#
#
#
# Elastic Compliance Matrix: (Units=1/GPa)
#
#
# Indices 1 2 3 4 5 6 
#
# 1 0.012752 -0.006631 0.002026 0.000000 -0.002127 0.000000
# 2 -0.006631 0.011135 -0.002431 0.000000 0.002118 0.000000
# 3 0.002026 -0.002431 0.016835 0.000000 -0.004986 0.000000
# 4 0.000000 0.000000 0.000000 0.033894 0.000000 -0.002428
# 5 -0.002127 0.002118 -0.004986 0.000000 0.035814 0.000000
# 6 0.000000 0.000000 0.000000 -0.002428 0.000000 0.020092
#
#
# Mechanical properties :
#
#
# Convention : Reuss Voigt Hill
#
# Bulk Modulus (GPa) = 37.52370 50.82291 44.17330
# Shear Modulus (GPa) = 32.57791 37.61311 35.09551
#
# Velocity S-wave (km/s) = 3.71939 3.99649 3.86043
# Velocity P-wave (km/s) = 5.86337 6.54808 6.21516
#
# Compressibility (1/GPa) = 0.02664982
#
# Stress axis : x y z
#
# Youngs Moduli (GPa) = 78.42012 89.80469 59.39850
#
# Poissons Ratio (x) = 0.59554 -0.12036
# Poissons Ratio (y) = 0.52004 0.14441
# Poissons Ratio (z) = -0.15890 0.21833
#
# Static dielectric constant tensor:
#      x y z
#    x 1.922780 0.000000 -0.008660 
#    y 0.000000 1.932450 0.000000 
#    z -0.008660 0.000000 1.967570 
# 
# From -- ./inp_files/309906.got.cif
#   From: 2010.05.17/outbox.cif.g08.bks.cpg/sg15_155_cif.got.tgz:309906.got - 2010.06.03 18:47:42.
