data_PCOD9285725
_publ_section_title
;
Structure prediction by ZEFSAII (Michael W. Deem and Ramdas Pophale) SiO2 
 PCOD9285725
Probable space group: C 2/C
;
_chemical_formula_sum "Si O2"
_cell_formula_units_Z 48
_cell_length_a 17.295642
_cell_length_b 10.354720
_cell_length_c 26.545432
_cell_angle_alpha 90.000000
_cell_angle_beta 153.583759
_cell_angle_gamma 90.000000
_cell_volume 2115.030184
_symmetry_space_group_name_H-M "C 2/C"
_symmetry_group_IT_number 15
_symmetry_cell_setting 'monoclinic'
loop_
_space_group_symop_operation_xyz
x,y,z
-x,y,1/2-z
-x,-y,-z
x,-y,1/2+z
1/2+x,1/2+y,z
1/2-x,1/2+y,1/2-z
1/2-x,1/2-y,-z
1/2+x,1/2-y,1/2+z
loop_
_atom_site_type_symbol
_atom_site_label
_atom_site_fract_x
_atom_site_fract_y
_atom_site_fract_z
Si Si1 0.973974 0.113019 0.331859
Si Si2 0.500000 0.539537 0.750000
Si Si3 0.555316 0.080339 0.081622
Si Si4 0.458422 0.090280 0.830261
Si Si5 0.277600 0.744157 0.384326
Si Si6 0.404376 0.534099 0.392950
Si Si7 0.500000 0.039660 0.250000
O O1 0.054346 0.051299 0.328487
O O2 0.762463 0.101221 0.203513
O O3 0.013876 0.262208 0.364748
O O4 0.017597 0.039152 0.408836
O O5 0.351486 0.632962 0.686807
O O6 0.493994 0.999630 0.094600
O O7 0.449633 0.212905 0.013884
O O8 0.500000 0.000000 0.000000
O O9 0.250638 0.066363 0.706193
O O10 0.519091 0.039815 0.811748
O O11 0.326738 0.680041 0.358941
O O12 0.167120 0.630652 0.344187
O O13 0.500000 0.500000 0.500000
#
# Coordination Sequence:
#
# PCOD9285725 Si02
#       7
#     8   4   8   8   8   8   4
#     4  11  23  40  68  94 137 167 217 274 325 391
#     4  11  23  42  64 102 133 167 212 274 346 377
#     4  11  21  39  65  94 123 169 226 256 319 391
#     4  10  22  39  62  91 128 171 208 270 326 385
#     4  10  21  42  66  90 130 167 219 269 312 396
#     4  10  22  42  65  95 124 172 225 263 317 391
#     4   9  21  42  60  92 133 165 214 266 336 381
#
# _framework density 22.694711000000002
#
# number of rings (size 3 to 8) (size 9 to 14) (size 15 to 20)
#    0.000    1.667    1.667    2.500    2.333    0.667 
#   12.000    0.833    0.000    0.000    0.000    0.000 
#    0.000    0.000    0.000    0.000    0.000    0.000 
#
# Total GULP energy -134074.470324 kJ/mol
# GULP energy per Si atom -5586.436264 kJ/mol
# Density = 2.264306 g / cm^3
# Si number density = 22.694711 Si / 1000 Ang^3
#
#
#
# Elastic Constant Matrix: (Units=GPa)
#
#
# Indices 1 2 3 4 5 6 
#
# 1 108.8101 29.4828 12.0739 0.0001 -37.8676 0.0000
# 2 29.4828 68.1925 2.8211 -0.0001 -8.2064 -0.0004
# 3 12.0739 2.8211 71.8619 0.0012 -10.4452 -0.0003
# 4 0.0001 -0.0001 0.0012 41.0867 0.0004 -1.7539
# 5 -37.8676 -8.2064 -10.4452 0.0004 46.3448 -0.0002
# 6 0.0000 -0.0004 -0.0003 -1.7539 -0.0002 14.8477
#
#
#
# Elastic Compliance Matrix: (Units=1/GPa)
#
#
# Indices 1 2 3 4 5 6 
#
# 1 0.014296 -0.004870 -0.000660 0.000000 0.010670 0.000000
# 2 -0.004870 0.016645 0.000015 0.000000 -0.001028 0.000000
# 3 -0.000660 0.000015 0.014420 0.000000 0.002714 0.000000
# 4 0.000000 0.000000 0.000000 0.024462 0.000000 0.002890
# 5 0.010670 -0.001028 0.002714 0.000000 0.030726 0.000000
# 6 0.000000 0.000000 0.000000 0.002890 0.000000 0.067692
#
#
# Mechanical properties :
#
#
# Convention : Reuss Voigt Hill
#
# Bulk Modulus (GPa) = 29.12593 37.51333 33.31963
# Shear Modulus (GPa) = 26.21714 34.08830 30.15272
#
# Velocity S-wave (km/s) = 3.40252 3.87982 3.64898
# Velocity P-wave (km/s) = 5.31958 6.05277 5.69798
#
# Compressibility (1/GPa) = 0.03433366
#
# Stress axis : x y z
#
# Youngs Moduli (GPa) = 69.94722 60.07667 69.34684
#
# Poissons Ratio (x) = 0.29255 0.04576
# Poissons Ratio (y) = 0.34062 -0.00106
# Poissons Ratio (z) = 0.04616 -0.00092
#
# Static dielectric constant tensor:
#      x y z
#    x 1.867720 0.000000 0.038770 
#    y 0.000000 1.887290 0.000000 
#    z 0.038770 0.000000 1.862790 
# 
# From -- ./inp_files/277329.got.cif
#   From: 2010.05.17/outbox.cif.g08.bks.cpg/sg15_139_cif.got.tgz:277329.got - 2010.06.03 18:47:42.
