data_PCOD9285355
_publ_section_title
;
Structure prediction by ZEFSAII (Michael W. Deem and Ramdas Pophale) SiO2 
 PCOD9285355
Probable space group: C 2/C
;
_chemical_formula_sum "Si O2"
_cell_formula_units_Z 52
_cell_length_a 17.708948
_cell_length_b 14.578179
_cell_length_c 10.263862
_cell_angle_alpha 90.000000
_cell_angle_beta 124.744752
_cell_angle_gamma 90.000000
_cell_volume 2177.307054
_symmetry_space_group_name_H-M "C 2/C"
_symmetry_group_IT_number 15
_symmetry_cell_setting 'monoclinic'
loop_
_space_group_symop_operation_xyz
x,y,z
-x,y,1/2-z
-x,-y,-z
x,-y,1/2+z
1/2+x,1/2+y,z
1/2-x,1/2+y,1/2-z
1/2-x,1/2-y,-z
1/2+x,1/2-y,1/2+z
loop_
_atom_site_type_symbol
_atom_site_label
_atom_site_fract_x
_atom_site_fract_y
_atom_site_fract_z
Si Si1 0.190839 0.687468 0.111411
Si Si2 0.500000 0.740837 0.750000
Si Si3 0.224519 0.631236 0.848712
Si Si4 0.345633 0.871344 0.480475
Si Si5 0.173193 0.046856 0.127965
Si Si6 0.551231 0.947096 0.435788
Si Si7 0.368998 0.404330 0.193624
O O1 0.196788 0.796264 0.115606
O O2 0.272528 0.637330 0.270761
O O3 0.202520 0.655688 0.973093
O O4 0.095288 0.640540 0.050049
O O5 0.417473 0.805171 0.619006
O O6 0.555575 0.673565 0.706289
O O7 0.146194 0.649133 0.666057
O O8 0.253874 0.527926 0.853178
O O9 0.372883 0.976717 0.530439
O O10 0.237055 0.865706 0.408890
O O11 0.128822 0.991283 0.205880
O O12 0.115071 0.067029 0.941827
O O13 0.500000 0.925402 0.250000
O O14 0.500000 0.000000 0.500000
#
# Coordination Sequence:
#
# PCOD9285355 Si02
#       7
#     8   4   8   8   8   8   8
#     4  11  22  40  67 100 141 180 233 288 350 424
#     4  12  26  44  68 110 138 182 246 294 340 430
#     4  10  21  41  71 102 131 186 235 284 355 418
#     4  11  23  45  69 102 141 176 237 292 355 413
#     4  11  21  43  72 100 140 183 238 287 351 420
#     4  12  25  39  66  99 142 178 223 287 354 410
#     4  11  25  43  74 101 139 190 232 293 358 412
#
# _framework density 23.882712999999999
#
# number of rings (size 3 to 8) (size 9 to 14) (size 15 to 20)
#    0.000    0.923    5.385    2.308    2.154    4.308 
#    0.000    0.000    1.692    0.000    0.000    0.000 
#    0.000    0.000    0.000    0.000    0.000    0.000 
#
# Total GULP energy -145258.625895 kJ/mol
# GULP energy per Si atom -5586.870227 kJ/mol
# Density = 2.382835 g / cm^3
# Si number density = 23.882713 Si / 1000 Ang^3
#
#
#
# Elastic Constant Matrix: (Units=GPa)
#
#
# Indices 1 2 3 4 5 6 
#
# 1 85.5223 28.9183 18.6680 0.0000 4.9327 0.0000
# 2 28.9183 56.1795 18.0349 0.0000 9.6436 0.0000
# 3 18.6680 18.0349 89.4677 0.0000 -28.8180 0.0000
# 4 0.0000 0.0000 0.0000 31.4038 0.0000 4.8731
# 5 4.9327 9.6436 -28.8180 0.0000 36.8064 0.0000
# 6 0.0000 0.0000 0.0000 4.8731 0.0000 32.5616
#
#
#
# Elastic Compliance Matrix: (Units=1/GPa)
#
#
# Indices 1 2 3 4 5 6 
#
# 1 0.014485 -0.006277 -0.002477 0.000000 -0.002236 0.000000
# 2 -0.006277 0.025516 -0.007644 0.000000 -0.011829 0.000000
# 3 -0.002477 -0.007644 0.018704 0.000000 0.016979 0.000000
# 4 0.000000 0.000000 0.000000 0.032600 0.000000 -0.004879
# 5 -0.002236 -0.011829 0.016979 0.000000 0.043862 0.000000
# 6 0.000000 0.000000 0.000000 -0.004879 0.000000 0.031441
#
#
# Mechanical properties :
#
#
# Convention : Reuss Voigt Hill
#
# Bulk Modulus (GPa) = 38.59772 40.26798 39.43285
# Shear Modulus (GPa) = 24.03370 31.19092 27.61231
#
# Velocity S-wave (km/s) = 3.17570 3.61779 3.40393
# Velocity P-wave (km/s) = 5.44456 5.86076 5.65649
#
# Compressibility (1/GPa) = 0.02590827
#
# Stress axis : x y z
#
# Youngs Moduli (GPa) = 69.03639 39.19185 53.46415
#
# Poissons Ratio (x) = 0.24601 0.13245
# Poissons Ratio (y) = 0.43334 0.40867
# Poissons Ratio (z) = 0.17103 0.29958
#
# Static dielectric constant tensor:
#      x y z
#    x 2.028930 0.000000 -0.007100 
#    y 0.000000 1.937900 0.000000 
#    z -0.007100 0.000000 1.952210 
# 
# From -- ./inp_files/112801.got.cif
#   From: 2010.05.17/outbox.cif.g08.bks.cpg/sg15_57_cif.got.tgz:112801.got - 2010.06.03 18:47:42.
