data_PCOD9285066
_publ_section_title
;
Structure prediction by ZEFSAII (Michael W. Deem and Ramdas Pophale) SiO2 
 PCOD9285066
Probable space group: C 2/C
;
_chemical_formula_sum "Si O2"
_cell_formula_units_Z 40
_cell_length_a 8.991852
_cell_length_b 16.189969
_cell_length_c 12.333743
_cell_angle_alpha 90.000000
_cell_angle_beta 96.227502
_cell_angle_gamma 90.000000
_cell_volume 1784.923893
_symmetry_space_group_name_H-M "C 2/C"
_symmetry_group_IT_number 15
_symmetry_cell_setting 'monoclinic'
loop_
_space_group_symop_operation_xyz
x,y,z
-x,y,1/2-z
-x,-y,-z
x,-y,1/2+z
1/2+x,1/2+y,z
1/2-x,1/2+y,1/2-z
1/2-x,1/2-y,-z
1/2+x,1/2-y,1/2+z
loop_
_atom_site_type_symbol
_atom_site_label
_atom_site_fract_x
_atom_site_fract_y
_atom_site_fract_z
Si Si1 0.675592 0.871824 0.285059
Si Si2 0.894248 0.047282 0.660117
Si Si3 0.281511 0.655938 0.023598
Si Si4 0.323233 0.810018 0.757142
Si Si5 0.397317 0.403177 0.918447
O O1 0.500000 0.864017 0.250000
O O2 0.741816 0.944515 0.215152
O O3 0.719096 0.891256 0.413775
O O4 0.749793 0.781918 0.262701
O O5 0.848834 0.070630 0.534542
O O6 0.000000 0.101396 0.750000
O O7 0.015732 0.974939 0.642043
O O8 0.209698 0.639019 0.134427
O O9 0.459579 0.653371 0.046357
O O10 0.250000 0.750000 0.000000
O O11 0.500000 0.805403 0.750000
O O12 0.231196 0.858050 0.657344
#
# Coordination Sequence:
#
# PCOD9285066 Si02
#       5
#     8   8   8   8   8
#     4  11  24  43  70 104 141 182 233 291 349 418
#     4  11  23  44  71  98 134 188 227 275 356 422
#     4  10  21  41  67 100 135 176 230 290 342 405
#     4  11  24  41  70 106 139 180 237 292 347 407
#     4  11  24  44  71  98 138 182 231 286 344 422
#
# _framework density 22.40992
#
# number of rings (size 3 to 8) (size 9 to 14) (size 15 to 20)
#    0.000    1.200    2.000    4.800    5.600    0.800 
#    0.000    5.000    0.000    0.000    0.000    0.000 
#    0.000    0.000    0.000    0.000    0.000    0.000 
#
# Total GULP energy -111469.112192 kJ/mol
# GULP energy per Si atom -5573.455610 kJ/mol
# Density = 2.235891 g / cm^3
# Si number density = 22.409920 Si / 1000 Ang^3
#
#
#
# Elastic Constant Matrix: (Units=GPa)
#
#
# Indices 1 2 3 4 5 6 
#
# 1 185.0424 39.0062 52.1479 0.0000 33.9697 0.0000
# 2 39.0062 72.4622 31.3837 0.0000 15.5361 0.0000
# 3 52.1479 31.3837 165.8297 0.0000 30.0293 0.0000
# 4 0.0000 0.0000 0.0000 30.2852 0.0000 0.1907
# 5 33.9697 15.5361 30.0293 0.0000 31.4082 0.0000
# 6 0.0000 0.0000 0.0000 0.1907 0.0000 19.0807
#
#
#
# Elastic Compliance Matrix: (Units=1/GPa)
#
#
# Indices 1 2 3 4 5 6 
#
# 1 0.007183 -0.002269 -0.000757 0.000000 -0.005923 0.000000
# 2 -0.002269 0.016644 -0.001681 0.000000 -0.004172 0.000000
# 3 -0.000757 -0.001681 0.007604 0.000000 -0.005620 0.000000
# 4 0.000000 0.000000 0.000000 0.033021 0.000000 -0.000330
# 5 -0.005923 -0.004172 -0.005620 0.000000 0.045682 0.000000
# 6 0.000000 0.000000 0.000000 -0.000330 0.000000 0.052412
#
#
# Mechanical properties :
#
#
# Convention : Reuss Voigt Hill
#
# Bulk Modulus (GPa) = 45.41781 74.26776 59.84278
# Shear Modulus (GPa) = 27.88623 36.20792 32.04708
#
# Velocity S-wave (km/s) = 3.53139 4.02395 3.78569
# Velocity P-wave (km/s) = 6.07770 7.40284 6.77276
#
# Compressibility (1/GPa) = 0.02201780
#
# Stress axis : x y z
#
# Youngs Moduli (GPa) = 139.21640 60.08116 131.50690
#
# Poissons Ratio (x) = 0.13632 0.09954
# Poissons Ratio (y) = 0.31587 0.22106
# Poissons Ratio (z) = 0.10537 0.10100
#
# Static dielectric constant tensor:
#      x y z
#    x 1.823410 0.000000 -0.053500 
#    y 0.000000 1.973950 0.000000 
#    z -0.053500 0.000000 1.944860 
# 
# From -- ./inp_files/76811.got.cif
#   From: 2010.05.17/outbox.cif.g08.bks.cpg/sg15_39_cif.got.tgz:76811.got - 2010.06.03 18:47:42.
