data_PCOD9285569
_publ_section_title
;
Structure prediction by ZEFSAII (Michael W. Deem and Ramdas Pophale) SiO2 
 PCOD9285569
Probable space group: C 2/C
;
_chemical_formula_sum "Si O2"
_cell_formula_units_Z 36
_cell_length_a 22.979687
_cell_length_b 16.183424
_cell_length_c 5.396404
_cell_angle_alpha 90.000000
_cell_angle_beta 129.816043
_cell_angle_gamma 90.000000
_cell_volume 1541.484462
_symmetry_space_group_name_H-M "C 2/C"
_symmetry_group_IT_number 15
_symmetry_cell_setting 'monoclinic'
loop_
_space_group_symop_operation_xyz
x,y,z
-x,y,1/2-z
-x,-y,-z
x,-y,1/2+z
1/2+x,1/2+y,z
1/2-x,1/2+y,1/2-z
1/2-x,1/2-y,-z
1/2+x,1/2-y,1/2+z
loop_
_atom_site_type_symbol
_atom_site_label
_atom_site_fract_x
_atom_site_fract_y
_atom_site_fract_z
Si Si1 0.604782 0.028958 0.628498
Si Si2 0.635996 0.688128 0.615500
Si Si3 0.000000 0.055061 0.250000
Si Si4 0.090863 0.721183 0.492178
Si Si5 0.775573 0.961690 0.130213
O O1 0.605574 0.123828 0.551820
O O2 0.570283 0.978850 0.306436
O O3 0.688745 0.990898 0.893037
O O4 0.572097 0.616297 0.445820
O O5 0.622805 0.742803 0.822835
O O6 0.713669 0.636244 0.840182
O O7 0.626747 0.736420 0.333093
O O8 0.000000 0.000000 0.500000
O O9 0.000000 0.735474 0.250000
O O10 0.809872 0.000017 0.473725
#
# Coordination Sequence:
#
# PCOD9285569 Si02
#       5
#     8   8   4   8   8
#     4  10  23  44  67  94 127 175 227 267 320 390
#     4  12  23  41  64  99 135 169 216 270 334 388
#     4  12  22  36  62  94 128 174 206 250 322 388
#     4  12  24  43  66  98 137 170 213 274 335 389
#     4  10  21  42  64  90 132 169 223 265 314 394
#
# _framework density 23.354112000000001
#
# number of rings (size 3 to 8) (size 9 to 14) (size 15 to 20)
#    0.000    0.889    2.222    5.333    0.000    0.889 
#    0.000   26.667    0.000    0.000    0.000    0.000 
#    0.000    0.000    0.000    0.000    0.000    0.000 
#
# Total GULP energy -100756.974061 kJ/mol
# GULP energy per Si atom -5597.609670 kJ/mol
# Density = 2.330096 g / cm^3
# Si number density = 23.354112 Si / 1000 Ang^3
#
#
#
# Elastic Constant Matrix: (Units=GPa)
#
#
# Indices 1 2 3 4 5 6 
#
# 1 43.8528 43.0112 105.3474 0.0000 -29.7196 0.0000
# 2 43.0112 129.7650 58.7563 0.0000 -33.2756 0.0000
# 3 105.3474 58.7563 92.0709 0.0000 -70.0188 0.0000
# 4 0.0000 0.0000 0.0000 55.3626 0.0000 1.2809
# 5 -29.7196 -33.2756 -70.0188 0.0000 59.5714 0.0000
# 6 0.0000 0.0000 0.0000 1.2809 0.0000 60.3421
#
#
#
# Elastic Compliance Matrix: (Units=1/GPa)
#
#
# Indices 1 2 3 4 5 6 
#
# 1 -0.001508 -0.002422 0.015731 0.000000 0.016385 0.000000
# 2 -0.002422 0.010060 -0.002775 0.000000 0.001150 0.000000
# 3 0.015731 -0.002775 -0.005444 0.000000 -0.000100 0.000000
# 4 0.000000 0.000000 0.000000 0.018072 0.000000 -0.000384
# 5 0.016385 0.001150 -0.000100 0.000000 0.025485 0.000000
# 6 0.000000 0.000000 0.000000 -0.000384 0.000000 0.016580
#
#
# Mechanical properties :
#
#
# Convention : Reuss Voigt Hill
#
# Bulk Modulus (GPa) = 41.36008 75.54649 58.45329
# Shear Modulus (GPa) = 99.52978 38.96014 69.24496
#
# Velocity S-wave (km/s) = 6.53530 4.08883 5.45109
# Velocity P-wave (km/s) = 8.64265 7.39661 8.04379
#
# Compressibility (1/GPa) = 0.02417790
#
# Stress axis : x y z
#
# Youngs Moduli (GPa) = -663.27898 99.40179 -183.69945
#
# Poissons Ratio (x) = 0.24070 2.88979
# Poissons Ratio (y) = -1.60614 -0.50977
# Poissons Ratio (z) = 10.43410 0.27584
#
# Static dielectric constant tensor:
#      x y z
#    x 1.991810 0.000000 -0.038860 
#    y 0.000000 1.825840 0.000000 
#    z -0.038860 0.000000 1.844470 
# 
# From -- ./inp_files/12578.got.cif
#   From: 2010.05.17/outbox.cif.g08.bks.cpg/sg15_7_cif.got.tgz:12578.got - 2010.06.03 18:47:42.
