data_PCOD9285287
_publ_section_title
;
Structure prediction by ZEFSAII (Michael W. Deem and Ramdas Pophale) SiO2 
 PCOD9285287
Probable space group: C 2/C
;
_chemical_formula_sum "Si O2"
_cell_formula_units_Z 64
_cell_length_a 18.724043
_cell_length_b 8.468128
_cell_length_c 30.567240
_cell_angle_alpha 90.000000
_cell_angle_beta 143.534905
_cell_angle_gamma 90.000000
_cell_volume 2880.534539
_symmetry_space_group_name_H-M "C 2/C"
_symmetry_group_IT_number 15
_symmetry_cell_setting 'monoclinic'
loop_
_space_group_symop_operation_xyz
x,y,z
-x,y,1/2-z
-x,-y,-z
x,-y,1/2+z
1/2+x,1/2+y,z
1/2-x,1/2+y,1/2-z
1/2-x,1/2-y,-z
1/2+x,1/2-y,1/2+z
loop_
_atom_site_type_symbol
_atom_site_label
_atom_site_fract_x
_atom_site_fract_y
_atom_site_fract_z
Si Si1 0.365790 0.953809 0.675927
Si Si2 0.647963 0.731248 0.206645
Si Si3 0.897243 0.633554 0.605561
Si Si4 0.470071 0.228885 0.475448
Si Si5 0.704980 0.891162 0.534898
Si Si6 0.174930 0.932659 0.155204
Si Si7 0.855949 0.567926 0.880743
Si Si8 0.864514 0.077664 0.677439
O O1 0.500000 0.018335 0.750000
O O2 0.370102 0.765780 0.681735
O O3 0.352229 0.007604 0.619186
O O4 0.272671 0.012652 0.666850
O O5 0.527772 0.782159 0.173624
O O6 0.765921 0.778985 0.292296
O O7 0.650545 0.565653 0.180625
O O8 0.644511 0.859697 0.166385
O O9 0.805645 0.774863 0.567244
O O10 0.877363 0.566318 0.546922
O O11 0.373550 0.201508 0.467132
O O12 0.440136 0.378187 0.430421
O O13 0.597068 0.203543 0.561868
O O14 0.445796 0.075658 0.433452
O O15 0.784371 0.026350 0.596633
O O16 0.720341 0.519576 0.825156
O O17 0.000000 0.015829 0.750000
#
# Coordination Sequence:
#
# PCOD9285287 Si02
#       8
#     8   8   8   8   8   8   8   8
#     4  11  22  43  68  93 132 182 228 276 345 411
#     4  12  25  43  65  99 140 174 229 286 341 403
#     4  11  23  42  66  96 137 176 226 278 342 412
#     4  10  21  41  69  96 132 178 221 274 346 409
#     4  10  22  41  67  98 129 175 224 276 339 411
#     4  12  25  43  67 101 134 182 231 285 344 410
#     4  10  21  42  67  97 134 174 219 278 345 406
#     4  10  23  42  69  97 132 174 226 282 338 411
#
# _framework density 22.218098000000001
#
# number of rings (size 3 to 8) (size 9 to 14) (size 15 to 20)
#    0.000    1.250    5.000    0.750    0.000    4.500 
#    4.500    0.000    0.000    0.000    0.000    0.000 
#    0.000    0.000    0.000    0.000    0.000    0.000 
#
# Total GULP energy -178464.447794 kJ/mol
# GULP energy per Si atom -5577.013994 kJ/mol
# Density = 2.216753 g / cm^3
# Si number density = 22.218098 Si / 1000 Ang^3
#
#
#
# Elastic Constant Matrix: (Units=GPa)
#
#
# Indices 1 2 3 4 5 6 
#
# 1 81.8006 27.0648 22.8594 0.0000 1.0997 0.0000
# 2 27.0648 40.5798 -2.1490 0.0000 -12.9483 0.0000
# 3 22.8594 -2.1490 79.8786 0.0000 3.1544 0.0000
# 4 0.0000 0.0000 0.0000 44.0956 0.0000 -3.1911
# 5 1.0997 -12.9483 3.1544 0.0000 42.9567 0.0000
# 6 0.0000 0.0000 0.0000 -3.1911 0.0000 35.7582
#
#
#
# Elastic Compliance Matrix: (Units=1/GPa)
#
#
# Indices 1 2 3 4 5 6 
#
# 1 0.018427 -0.013943 -0.005480 0.000000 -0.004272 0.000000
# 2 -0.013943 0.037829 0.004557 0.000000 0.011425 0.000000
# 3 -0.005480 0.004557 0.014191 0.000000 0.000472 0.000000
# 4 0.000000 0.000000 0.000000 0.022825 0.000000 0.002037
# 5 -0.004272 0.011425 0.000472 0.000000 0.026798 0.000000
# 6 0.000000 0.000000 0.000000 0.002037 0.000000 0.028147
#
#
# Mechanical properties :
#
#
# Convention : Reuss Voigt Hill
#
# Bulk Modulus (GPa) = 24.56108 33.08991 28.82549
# Shear Modulus (GPa) = 26.10665 34.86100 30.48383
#
# Velocity S-wave (km/s) = 3.43157 3.96540 3.70811
# Velocity P-wave (km/s) = 5.17489 5.99095 5.59781
#
# Compressibility (1/GPa) = 0.04071482
#
# Stress axis : x y z
#
# Youngs Moduli (GPa) = 54.26839 26.43459 70.46642
#
# Poissons Ratio (x) = 0.36858 0.38614
# Poissons Ratio (y) = 0.75668 -0.32110
# Poissons Ratio (z) = 0.29738 -0.12046
#
# Static dielectric constant tensor:
#      x y z
#    x 1.866910 0.000000 -0.025660 
#    y 0.000000 1.836110 0.000000 
#    z -0.025660 0.000000 1.891860 
# 
# From -- ./inp_files/315740.got.cif
#   From: 2010.05.17/outbox.cif.g08.bks.cpg/sg15_158_cif.got.tgz:315740.got - 2010.06.03 18:47:42.
