data_PCOD9285679
_publ_section_title
;
Structure prediction by ZEFSAII (Michael W. Deem and Ramdas Pophale) SiO2 
 PCOD9285679
Probable space group: C 2/C
;
_chemical_formula_sum "Si O2"
_cell_formula_units_Z 56
_cell_length_a 12.270019
_cell_length_b 7.925936
_cell_length_c 32.161966
_cell_angle_alpha 90.000000
_cell_angle_beta 128.330853
_cell_angle_gamma 90.000000
_cell_volume 2453.575960
_symmetry_space_group_name_H-M "C 2/C"
_symmetry_group_IT_number 15
_symmetry_cell_setting 'monoclinic'
loop_
_space_group_symop_operation_xyz
x,y,z
-x,y,1/2-z
-x,-y,-z
x,-y,1/2+z
1/2+x,1/2+y,z
1/2-x,1/2+y,1/2-z
1/2-x,1/2-y,-z
1/2+x,1/2-y,1/2+z
loop_
_atom_site_type_symbol
_atom_site_label
_atom_site_fract_x
_atom_site_fract_y
_atom_site_fract_z
Si Si1 0.150333 0.746494 0.275746
Si Si2 0.659819 0.407085 0.615279
Si Si3 0.717691 0.418736 0.764391
Si Si4 0.229880 0.297280 0.637754
Si Si5 0.038631 0.979483 0.860601
Si Si6 0.369870 0.377151 0.978188
Si Si7 0.426143 0.183600 0.077595
O O1 0.205959 0.646664 0.327612
O O2 0.159211 0.639806 0.236152
O O3 0.000000 0.814710 0.250000
O O4 0.251253 0.901178 0.291547
O O5 0.689447 0.607100 0.614496
O O6 0.526383 0.394208 0.613563
O O7 0.640374 0.295919 0.569862
O O8 0.698398 0.296330 0.799258
O O9 0.585646 0.454590 0.702865
O O10 0.327846 0.393061 0.628477
O O11 0.081238 0.386706 0.610655
O O12 0.066166 0.169337 0.884681
O O13 0.208202 0.433744 0.946276
O O14 0.500000 0.500000 0.000000
O O15 0.400114 0.269627 0.026218
#
# Coordination Sequence:
#
# PCOD9285679 Si02
#       7
#     8   8   8   8   8   8   8
#     4  11  24  41  65  96 131 180 221 272 330 402
#     4  10  24  41  67  98 131 176 226 274 339 395
#     4  11  24  40  65  99 140 178 219 267 332 396
#     4  11  22  41  67  99 136 175 221 274 328 399
#     4  10  21  42  65  95 137 175 214 270 327 395
#     4  11  21  46  73  91 132 176 218 292 341 385
#     4  10  24  43  72  96 126 178 227 273 341 399
#
# _framework density 22.823830000000001
#
# number of rings (size 3 to 8) (size 9 to 14) (size 15 to 20)
#    0.000    1.429    2.857    3.857    6.000    3.429 
#    0.000    6.429    0.000    0.000    0.000    0.000 
#    0.000    0.000    0.000    0.000    0.000    0.000 
#
# Total GULP energy -156049.542025 kJ/mol
# GULP energy per Si atom -5573.197929 kJ/mol
# Density = 2.277188 g / cm^3
# Si number density = 22.823830 Si / 1000 Ang^3
#
#
#
# Elastic Constant Matrix: (Units=GPa)
#
#
# Indices 1 2 3 4 5 6 
#
# 1 151.5289 21.4870 20.8919 0.0000 -19.8977 0.0000
# 2 21.4870 35.0614 31.7139 0.0000 -6.2298 0.0000
# 3 20.8919 31.7139 -515.2895 0.0000 -38.7830 0.0000
# 4 0.0000 0.0000 0.0000 4.1284 0.0000 0.4144
# 5 -19.8977 -6.2298 -38.7830 0.0000 28.6753 0.0000
# 6 0.0000 0.0000 0.0000 0.4144 0.0000 38.9030
#
#
#
# Elastic Compliance Matrix: (Units=1/GPa)
#
#
# Indices 1 2 3 4 5 6 
#
# 1 0.007720 -0.003768 -0.000236 0.000000 0.004219 0.000000
# 2 -0.003768 0.030688 0.001299 0.000000 0.005809 0.000000
# 3 -0.000236 0.001299 -0.001706 0.000000 -0.002189 0.000000
# 4 0.000000 0.000000 0.000000 0.242481 0.000000 -0.002583
# 5 0.004219 0.005809 -0.002189 0.000000 0.036102 0.000000
# 6 0.000000 0.000000 0.000000 -0.002583 0.000000 0.025732
#
#
# Mechanical properties :
#
#
# Convention : Reuss Voigt Hill
#
# Bulk Modulus (GPa) = 31.95755 -20.05705 5.95025
# Shear Modulus (GPa) = 14.01110 -12.51146 0.74982
#
# Velocity S-wave (km/s) = 2.48035 -2.34385 0.57379
# Velocity P-wave (km/s) = 4.71541 4.01643 1.74691
#
# Compressibility (1/GPa) = 0.03129151
#
# Stress axis : x y z
#
# Youngs Moduli (GPa) = 129.52936 32.58618 -586.31057
#
# Poissons Ratio (x) = 0.12278 -0.13861
# Poissons Ratio (y) = 0.48805 0.76146
# Poissons Ratio (z) = 0.03062 -0.04232
#
# Static dielectric constant tensor:
#      x y z
#    x 1.846230 0.000000 -0.002040 
#    y 0.000000 1.928720 0.000000 
#    z -0.002040 0.000000 2.025920 
# 
# From -- ./inp_files/310385.got.cif
#   From: 2010.05.17/outbox.cif.g08.bks.cpg/sg15_156_cif.got.tgz:310385.got - 2010.06.03 18:47:42.
