data_PCOD9285104
_publ_section_title
;
Structure prediction by ZEFSAII (Michael W. Deem and Ramdas Pophale) SiO2 
 PCOD9285104
Probable space group: C 2/C
;
_chemical_formula_sum "Si O2"
_cell_formula_units_Z 40
_cell_length_a 7.428854
_cell_length_b 21.081429
_cell_length_c 13.616250
_cell_angle_alpha 90.000000
_cell_angle_beta 64.099621
_cell_angle_gamma 90.000000
_cell_volume 1918.258161
_symmetry_space_group_name_H-M "C 2/C"
_symmetry_group_IT_number 15
_symmetry_cell_setting 'monoclinic'
loop_
_space_group_symop_operation_xyz
x,y,z
-x,y,1/2-z
-x,-y,-z
x,-y,1/2+z
1/2+x,1/2+y,z
1/2-x,1/2+y,1/2-z
1/2-x,1/2-y,-z
1/2+x,1/2-y,1/2+z
loop_
_atom_site_type_symbol
_atom_site_label
_atom_site_fract_x
_atom_site_fract_y
_atom_site_fract_z
Si Si1 0.000000 0.800570 0.250000
Si Si2 0.000000 0.986067 0.750000
Si Si3 0.710165 0.737063 0.169490
Si Si4 0.172550 0.350751 0.031301
Si Si5 0.929933 0.066339 0.063983
Si Si6 0.737924 0.092902 0.917411
O O1 0.848154 0.757276 0.225931
O O2 0.870548 0.846917 0.350784
O O3 0.160950 0.031905 0.658483
O O4 0.102937 0.945991 0.812745
O O5 0.500000 0.706791 0.250000
O O6 0.823811 0.691738 0.067386
O O7 0.654080 0.801644 0.124848
O O8 0.382605 0.386414 0.990342
O O9 0.985908 0.397562 0.067505
O O10 0.756137 0.088366 0.031196
O O11 0.000000 0.000000 0.000000
#
# Coordination Sequence:
#
# PCOD9285104 Si02
#       6
#     4   4   8   8   8   8
#     4  11  20  40  66  96 124 172 216 257 324 394
#     4   9  22  40  64  92 130 170 208 279 322 370
#     4  11  24  40  65  96 130 170 215 265 321 384
#     4  11  24  41  65  94 130 171 213 271 320 381
#     4  10  22  42  64  92 129 167 215 275 315 377
#     4  10  21  41  67  92 125 171 220 260 324 393
#
# _framework density 20.852252
#
# number of rings (size 3 to 8) (size 9 to 14) (size 15 to 20)
#    0.000    1.600    4.000    0.000    1.400    5.600 
#    0.000    4.000    0.000    0.000    0.000    0.000 
#    0.000    0.000    0.000    0.000    0.000    0.000 
#
# Total GULP energy -111756.069865 kJ/mol
# GULP energy per Si atom -5587.803493 kJ/mol
# Density = 2.080479 g / cm^3
# Si number density = 20.852252 Si / 1000 Ang^3
#
#
#
# Elastic Constant Matrix: (Units=GPa)
#
#
# Indices 1 2 3 4 5 6 
#
# 1 75.0017 -1.3519 28.4612 0.0000 15.1100 0.0000
# 2 -1.3519 37.5382 11.0116 0.0000 8.0556 0.0000
# 3 28.4612 11.0116 88.8444 0.0000 25.6404 0.0000
# 4 0.0000 0.0000 0.0000 -16.2566 0.0000 -1.3878
# 5 15.1100 8.0556 25.6404 0.0000 33.1916 0.0000
# 6 0.0000 0.0000 0.0000 -1.3878 0.0000 30.6035
#
#
#
# Elastic Compliance Matrix: (Units=1/GPa)
#
#
# Indices 1 2 3 4 5 6 
#
# 1 0.015884 0.002786 -0.004056 0.000000 -0.004774 0.000000
# 2 0.002786 0.028857 -0.002679 0.000000 -0.006202 0.000000
# 3 -0.004056 -0.002679 0.015657 0.000000 -0.009598 0.000000
# 4 0.000000 0.000000 0.000000 -0.061276 0.000000 -0.002779
# 5 -0.004774 -0.006202 -0.009598 0.000000 0.041221 0.000000
# 6 0.000000 0.000000 0.000000 -0.002779 0.000000 0.032550
#
#
# Mechanical properties :
#
#
# Convention : Reuss Voigt Hill
#
# Bulk Modulus (GPa) = 19.04747 30.84735 24.94741
# Shear Modulus (GPa) = 50.86917 20.39191 35.63054
#
# Velocity S-wave (km/s) = 4.94449 3.13057 4.13814
# Velocity P-wave (km/s) = 6.46155 5.28135 5.90103
#
# Compressibility (1/GPa) = 0.05250040
#
# Stress axis : x y z
#
# Youngs Moduli (GPa) = 62.95555 34.65382 63.86864
#
# Poissons Ratio (x) = -0.09656 0.25906
# Poissons Ratio (y) = -0.17542 0.17112
# Poissons Ratio (z) = 0.25535 0.09284
#
# Static dielectric constant tensor:
#      x y z
#    x 1.697070 0.000000 0.022180 
#    y 0.000000 1.742110 0.000000 
#    z 0.022180 0.000000 1.751740 
# 
# From -- ./inp_files/73241.got.cif
#   From: 2010.05.17/outbox.cif.g08.bks.cpg/sg15_37_cif.got.tgz:73241.got - 2010.06.03 18:47:42.
