data_PCOD9285079
_publ_section_title
;
Structure prediction by ZEFSAII (Michael W. Deem and Ramdas Pophale) SiO2 
 PCOD9285079
Probable space group: C 2/C
;
_chemical_formula_sum "Si O2"
_cell_formula_units_Z 48
_cell_length_a 16.784041
_cell_length_b 16.067581
_cell_length_c 17.132031
_cell_angle_alpha 90.000000
_cell_angle_beta 151.377924
_cell_angle_gamma 90.000000
_cell_volume 2213.189963
_symmetry_space_group_name_H-M "C 2/C"
_symmetry_group_IT_number 15
_symmetry_cell_setting 'monoclinic'
loop_
_space_group_symop_operation_xyz
x,y,z
-x,y,1/2-z
-x,-y,-z
x,-y,1/2+z
1/2+x,1/2+y,z
1/2-x,1/2+y,1/2-z
1/2-x,1/2-y,-z
1/2+x,1/2-y,1/2+z
loop_
_atom_site_type_symbol
_atom_site_label
_atom_site_fract_x
_atom_site_fract_y
_atom_site_fract_z
Si Si1 0.392951 0.187156 0.370422
Si Si2 0.799078 0.510182 0.068715
Si Si3 0.814567 0.345130 0.277334
Si Si4 0.196902 0.333939 0.414921
Si Si5 0.861511 0.674965 0.064320
Si Si6 0.693492 0.523087 0.156924
O O1 0.300995 0.275290 0.282340
O O2 0.495848 0.178173 0.539248
O O3 0.537023 0.183304 0.428348
O O4 0.263577 0.110352 0.250754
O O5 0.736588 0.419388 0.989919
O O6 0.763600 0.587435 0.982051
O O7 0.732425 0.528558 0.097979
O O8 0.000000 0.502233 0.250000
O O9 0.765938 0.337893 0.144904
O O10 0.787858 0.442396 0.273805
O O11 0.250000 0.250000 0.500000
O O12 0.000000 0.334579 0.250000
O O13 0.000000 0.667332 0.250000
O O14 0.750000 0.750000 0.000000
O O15 0.500000 0.500000 0.000000
#
# Coordination Sequence:
#
# PCOD9285079 Si02
#       6
#     8   8   8   8   8   8
#     4  12  23  43  67 101 141 179 230 292 355 422
#     4   9  19  41  65  91 126 176 228 280 342 410
#     4  11  25  40  65 101 134 175 231 290 355 424
#     4  10  21  41  67  88 125 173 225 279 340 405
#     4  11  22  40  68  93 132 180 231 275 341 413
#     4  11  23  41  67  96 137 183 231 292 352 421
#
# _framework density 21.688151000000001
#
# number of rings (size 3 to 8) (size 9 to 14) (size 15 to 20)
#    0.000    1.333    3.333    3.500    2.333    1.333 
#    3.000    0.833    0.000    0.000    0.000    0.000 
#    0.000    0.000    0.000    0.000    0.000    0.000 
#
# Total GULP energy -133939.839003 kJ/mol
# GULP energy per Si atom -5580.826625 kJ/mol
# Density = 2.163879 g / cm^3
# Si number density = 21.688151 Si / 1000 Ang^3
#
#
#
# Elastic Constant Matrix: (Units=GPa)
#
#
# Indices 1 2 3 4 5 6 
#
# 1 91.3134 46.1011 7.8931 -0.0011 20.5668 -0.0022
# 2 46.1011 191.4773 18.7392 -0.0010 2.6219 -0.0016
# 3 7.8931 18.7392 36.0243 0.0013 8.6749 -0.0009
# 4 -0.0011 -0.0010 0.0013 50.3394 -0.0011 -7.2428
# 5 20.5668 2.6219 8.6749 -0.0011 25.1199 -0.0018
# 6 -0.0022 -0.0016 -0.0009 -7.2428 -0.0018 39.2640
#
#
#
# Elastic Compliance Matrix: (Units=1/GPa)
#
#
# Indices 1 2 3 4 5 6 
#
# 1 0.015620 -0.003744 0.001648 0.000000 -0.012967 0.000000
# 2 -0.003744 0.006405 -0.003369 0.000000 0.003561 0.000000
# 3 0.001648 -0.003369 0.032056 -0.000001 -0.012068 0.000000
# 4 0.000000 0.000000 -0.000001 0.020407 0.000002 0.003764
# 5 -0.012967 0.003561 -0.012068 0.000002 0.054222 0.000002
# 6 0.000000 0.000000 0.000000 0.003764 0.000002 0.026163
#
#
# Mechanical properties :
#
#
# Convention : Reuss Voigt Hill
#
# Bulk Modulus (GPa) = 23.17458 51.58690 37.38074
# Shear Modulus (GPa) = 27.74899 39.35011 33.54955
#
# Velocity S-wave (km/s) = 3.58083 4.26415 3.93734
# Velocity P-wave (km/s) = 5.27304 6.93407 6.15980
#
# Compressibility (1/GPa) = 0.04315073
#
# Stress axis : x y z
#
# Youngs Moduli (GPa) = 64.02095 156.12751 31.19502
#
# Poissons Ratio (x) = 0.58461 -0.05141
# Poissons Ratio (y) = 0.23972 0.10509
# Poissons Ratio (z) = -0.10550 0.52596
#
# Static dielectric constant tensor:
#      x y z
#    x 1.273360 0.000010 -0.381720 
#    y 0.000010 1.990990 0.000010 
#    z -0.381720 0.000010 1.544330 
# 
# From -- ./inp_files/211460.got.cif
#   From: 2010.05.17/outbox.cif.g08.bks.cpg/sg15_106_cif.got.tgz:211460.got - 2010.06.03 18:47:42.
