data_PCOD9285504
_publ_section_title
;
Structure prediction by ZEFSAII (Michael W. Deem and Ramdas Pophale) SiO2 
 PCOD9285504
Probable space group: C 2/C
;
_chemical_formula_sum "Si O2"
_cell_formula_units_Z 44
_cell_length_a 7.143320
_cell_length_b 16.318837
_cell_length_c 22.547522
_cell_angle_alpha 90.000000
_cell_angle_beta 52.404240
_cell_angle_gamma 90.000000
_cell_volume 2082.556807
_symmetry_space_group_name_H-M "C 2/C"
_symmetry_group_IT_number 15
_symmetry_cell_setting 'monoclinic'
loop_
_space_group_symop_operation_xyz
x,y,z
-x,y,1/2-z
-x,-y,-z
x,-y,1/2+z
1/2+x,1/2+y,z
1/2-x,1/2+y,1/2-z
1/2-x,1/2-y,-z
1/2+x,1/2-y,1/2+z
loop_
_atom_site_type_symbol
_atom_site_label
_atom_site_fract_x
_atom_site_fract_y
_atom_site_fract_z
Si Si1 0.170497 0.693525 0.448286
Si Si2 0.188645 0.025191 0.013240
Si Si3 0.629810 0.778695 0.383890
Si Si4 0.000000 0.341985 0.750000
Si Si5 0.769359 0.542995 0.619675
Si Si6 0.740496 0.618070 0.187627
O O1 0.301107 0.616436 0.457799
O O2 0.369470 0.763545 0.406736
O O3 0.119073 0.664031 0.391868
O O4 0.947112 0.719788 0.531265
O O5 0.175633 0.962223 0.070635
O O6 0.451921 0.020707 0.936350
O O7 0.000000 0.000000 0.000000
O O8 0.743087 0.867368 0.351186
O O9 0.805328 0.712855 0.321954
O O10 0.881521 0.392882 0.720571
O O11 0.661746 0.467448 0.674726
O O12 0.500000 0.666002 0.250000
#
# Coordination Sequence:
#
# PCOD9285504 Si02
#       6
#     8   8   8   4   8   8
#     4   9  20  42  65  85 132 162 198 262 319 356
#     4   9  18  36  63  92 118 158 204 246 299 377
#     4  10  21  42  62  96 122 158 206 261 307 369
#     4  12  26  40  64  92 122 164 218 244 318 386
#     4   9  21  38  59  88 124 155 201 254 304 359
#     4  11  23  42  61  86 126 169 203 257 308 373
#
# _framework density 21.127875
#
# number of rings (size 3 to 8) (size 9 to 14) (size 15 to 20)
#    0.000    2.182    1.818    1.091    3.818    0.727 
#    9.818    1.818    0.000    0.000    0.000    0.000 
#    0.000    0.000    0.000    0.000    0.000    0.000 
#
# Total GULP energy -122571.268921 kJ/mol
# GULP energy per Si atom -5571.421315 kJ/mol
# Density = 2.107979 g / cm^3
# Si number density = 21.127875 Si / 1000 Ang^3
#
#
#
# Elastic Constant Matrix: (Units=GPa)
#
#
# Indices 1 2 3 4 5 6 
#
# 1 111.2962 -13.3883 21.9198 0.0001 25.2323 -0.0004
# 2 -13.3883 21.4039 -7.0529 0.0000 -2.1395 -0.0002
# 3 21.9198 -7.0529 103.1923 -0.0005 -0.1010 0.0000
# 4 0.0001 0.0000 -0.0005 13.3475 0.0001 -0.0599
# 5 25.2323 -2.1395 -0.1010 0.0001 23.7678 0.0002
# 6 -0.0004 -0.0002 0.0000 -0.0599 0.0002 20.5367
#
#
#
# Elastic Compliance Matrix: (Units=1/GPa)
#
#
# Indices 1 2 3 4 5 6 
#
# 1 0.013271 0.006152 -0.002412 0.000000 -0.013545 0.000000
# 2 0.006152 0.051096 0.002183 0.000000 -0.001923 0.000001
# 3 -0.002412 0.002183 0.010355 0.000000 0.002801 0.000000
# 4 0.000000 0.000000 0.000000 0.074922 0.000000 0.000219
# 5 -0.013545 -0.001923 0.002801 0.000000 0.056292 -0.000001
# 6 0.000000 0.000001 0.000000 0.000219 -0.000001 0.048694
#
#
# Mechanical properties :
#
#
# Convention : Reuss Voigt Hill
#
# Bulk Modulus (GPa) = 11.55129 26.53886 19.04507
# Shear Modulus (GPa) = 18.40684 27.15798 22.78241
#
# Velocity S-wave (km/s) = 2.95483 3.58915 3.28733
# Velocity P-wave (km/s) = 4.13770 5.45567 4.84174
#
# Compressibility (1/GPa) = 0.08657042
#
# Stress axis : x y z
#
# Youngs Moduli (GPa) = 75.35237 19.57096 96.57255
#
# Poissons Ratio (x) = -0.12041 0.23291
# Poissons Ratio (y) = -0.46360 -0.21087
# Poissons Ratio (z) = 0.18173 -0.04273
#
# Static dielectric constant tensor:
#      x y z
#    x 1.751060 0.000000 -0.014920 
#    y 0.000000 1.840380 0.000000 
#    z -0.014920 0.000000 1.850300 
# 
# From -- ./inp_files/260831.got.cif
#   From: 2010.05.17/outbox.cif.g08.bks.cpg/sg15_131_cif.got.tgz:260831.got - 2010.06.03 18:47:42.
