data_PCOD9285148
_publ_section_title
;
Structure prediction by ZEFSAII (Michael W. Deem and Ramdas Pophale) SiO2 
 PCOD9285148
Probable space group: C 2/C
;
_chemical_formula_sum "Si O2"
_cell_formula_units_Z 44
_cell_length_a 24.948148
_cell_length_b 7.322753
_cell_length_c 9.568465
_cell_angle_alpha 90.000000
_cell_angle_beta 75.972171
_cell_angle_gamma 90.000000
_cell_volume 1695.924213
_symmetry_space_group_name_H-M "C 2/C"
_symmetry_group_IT_number 15
_symmetry_cell_setting 'monoclinic'
loop_
_space_group_symop_operation_xyz
x,y,z
-x,y,1/2-z
-x,-y,-z
x,-y,1/2+z
1/2+x,1/2+y,z
1/2-x,1/2+y,1/2-z
1/2-x,1/2-y,-z
1/2+x,1/2-y,1/2+z
loop_
_atom_site_type_symbol
_atom_site_label
_atom_site_fract_x
_atom_site_fract_y
_atom_site_fract_z
Si Si1 0.179477 0.066385 0.272408
Si Si2 0.249082 0.473067 0.017465
Si Si3 0.131108 0.431961 0.160400
Si Si4 0.500000 0.435060 0.750000
Si Si5 0.433993 0.979159 0.538004
Si Si6 0.426862 0.377732 0.529919
O O1 0.158914 0.263455 0.229176
O O2 0.124548 0.000852 0.387344
O O3 0.228275 0.053655 0.353134
O O4 0.206561 0.962329 0.125351
O O5 0.184576 0.518310 0.050971
O O6 0.250000 0.250000 0.000000
O O7 0.088631 0.352995 0.071356
O O8 0.095806 0.547955 0.295222
O O9 0.463598 0.347439 0.648128
O O10 0.540646 0.548743 0.623628
O O11 0.411771 0.173745 0.497520
O O12 0.500000 0.000000 0.500000
#
# Coordination Sequence:
#
# PCOD9285148 Si02
#       6
#     8   8   8   4   8   8
#     4  10  21  41  67  97 136 175 220 280 338 400
#     4  10  21  42  68  98 136 180 223 276 342 408
#     4  10  23  42  63 100 134 173 231 275 340 403
#     4  10  22  42  60  92 130 166 222 274 330 402
#     4  11  24  41  67  96 133 180 227 283 336 401
#     4  10  23  40  64  92 129 173 221 271 338 396
#
# _framework density 25.944557
#
# number of rings (size 3 to 8) (size 9 to 14) (size 15 to 20)
#    0.000    1.818    0.000    2.727    7.636    0.000 
#    3.273   25.455    0.000    0.000    0.000    0.000 
#    0.000    0.000    0.000    0.000    0.000    0.000 
#
# Total GULP energy -122777.968522 kJ/mol
# GULP energy per Si atom -5580.816751 kJ/mol
# Density = 2.588551 g / cm^3
# Si number density = 25.944557 Si / 1000 Ang^3
#
#
#
# Elastic Constant Matrix: (Units=GPa)
#
#
# Indices 1 2 3 4 5 6 
#
# 1 185.3795 19.2585 51.5262 0.0000 -1.1980 0.0000
# 2 19.2585 61.2913 17.2498 0.0000 -1.1933 0.0000
# 3 51.5262 17.2498 190.5424 0.0000 -25.3578 0.0000
# 4 0.0000 0.0000 0.0000 21.6952 0.0000 2.5603
# 5 -1.1980 -1.1933 -25.3578 0.0000 64.9176 0.0000
# 6 0.0000 0.0000 0.0000 2.5603 0.0000 21.5999
#
#
#
# Elastic Compliance Matrix: (Units=1/GPa)
#
#
# Indices 1 2 3 4 5 6 
#
# 1 0.005973 -0.001450 -0.001554 0.000000 -0.000523 0.000000
# 2 -0.001450 0.017100 -0.001179 0.000000 -0.000173 0.000000
# 3 -0.001554 -0.001179 0.006085 0.000000 0.002326 0.000000
# 4 0.000000 0.000000 0.000000 0.046747 0.000000 -0.005541
# 5 -0.000523 -0.000173 0.002326 0.000000 0.016300 0.000000
# 6 0.000000 0.000000 0.000000 -0.005541 0.000000 0.046953
#
#
# Mechanical properties :
#
#
# Convention : Reuss Voigt Hill
#
# Bulk Modulus (GPa) = 48.09410 68.14246 58.11828
# Shear Modulus (GPa) = 32.37209 44.92110 38.64659
#
# Velocity S-wave (km/s) = 3.53617 4.16556 3.86370
# Velocity P-wave (km/s) = 5.93719 7.03260 6.50798
#
# Compressibility (1/GPa) = 0.02079257
#
# Stress axis : x y z
#
# Youngs Moduli (GPa) = 167.40788 58.48109 164.34751
#
# Poissons Ratio (x) = 0.08479 0.25535
# Poissons Ratio (y) = 0.24272 0.19376
# Poissons Ratio (z) = 0.26010 0.06895
#
# Static dielectric constant tensor:
#      x y z
#    x 2.199580 0.000000 0.053630 
#    y 0.000000 2.142240 0.000000 
#    z 0.053630 0.000000 2.217290 
# 
# From -- ./inp_files/60495.got.cif
#   From: 2010.05.17/outbox.cif.g08.bks.cpg/sg15_31_cif.got.tgz:60495.got - 2010.06.03 18:47:42.
