data_PCOD9285874
_publ_section_title
;
Structure prediction by ZEFSAII (Michael W. Deem and Ramdas Pophale) SiO2 
 PCOD9285874
Probable space group: C 2/C
;
_chemical_formula_sum "Si O2"
_cell_formula_units_Z 52
_cell_length_a 8.257032
_cell_length_b 23.173681
_cell_length_c 12.385879
_cell_angle_alpha 90.000000
_cell_angle_beta 116.331644
_cell_angle_gamma 90.000000
_cell_volume 2124.080236
_symmetry_space_group_name_H-M "C 2/C"
_symmetry_group_IT_number 15
_symmetry_cell_setting 'monoclinic'
loop_
_space_group_symop_operation_xyz
x,y,z
-x,y,1/2-z
-x,-y,-z
x,-y,1/2+z
1/2+x,1/2+y,z
1/2-x,1/2+y,1/2-z
1/2-x,1/2-y,-z
1/2+x,1/2-y,1/2+z
loop_
_atom_site_type_symbol
_atom_site_label
_atom_site_fract_x
_atom_site_fract_y
_atom_site_fract_z
Si Si1 0.543421 0.337440 0.976427
Si Si2 0.500000 0.417474 0.750000
Si Si3 0.685193 0.107918 0.438946
Si Si4 0.173793 0.135663 0.730257
Si Si5 0.500000 0.199687 0.250000
Si Si6 0.388408 0.235521 0.827516
Si Si7 0.500000 0.975215 0.750000
Si Si8 0.228694 0.523584 0.652545
O O1 0.525851 0.373453 0.859981
O O2 0.373702 0.360443 0.994290
O O3 0.511123 0.270159 0.947509
O O4 0.694879 0.347044 0.110750
O O5 0.338518 0.464123 0.676666
O O6 0.541372 0.157654 0.365339
O O7 0.666520 0.065874 0.329360
O O8 0.689679 0.063831 0.539080
O O9 0.342085 0.168920 0.834776
O O10 0.171291 0.066836 0.735299
O O11 0.000000 0.154220 0.750000
O O12 0.312719 0.233592 0.223174
O O13 0.500000 0.242527 0.750000
O O14 0.542803 0.010825 0.657783
#
# Coordination Sequence:
#
# PCOD9285874 Si02
#       8
#     8   4   8   8   4   8   4   8
#     4  11  24  46  74 102 137 186 241 294 356 427
#     4  12  24  45  75  97 141 190 236 290 352 428
#     4  10  21  42  68 100 135 184 234 285 349 427
#     4  12  26  46  70 106 139 187 235 292 371 421
#     4   9  22  43  76  98 139 190 235 286 360 430
#     4  11  25  48  72 106 138 186 242 298 358 421
#     4  11  24  40  59  99 138 186 231 278 352 416
#     4  12  25  42  66 103 144 184 231 292 356 426
#
# _framework density 24.481186999999998
#
# number of rings (size 3 to 8) (size 9 to 14) (size 15 to 20)
#    0.000    0.923    5.385    0.462    3.231    3.692 
#    2.769    0.000    0.000    0.000    0.000    0.000 
#    0.000    0.000    0.000    0.000    0.000    0.000 
#
# Total GULP energy -144833.244031 kJ/mol
# GULP energy per Si atom -5570.509386 kJ/mol
# Density = 2.442547 g / cm^3
# Si number density = 24.481187 Si / 1000 Ang^3
#
#
#
# Elastic Constant Matrix: (Units=GPa)
#
#
# Indices 1 2 3 4 5 6 
#
# 1 53.0681 12.9626 -0.0204 0.0000 -5.7332 0.0000
# 2 12.9626 93.2052 23.9809 0.0000 -5.1660 0.0000
# 3 -0.0204 23.9809 100.8680 0.0000 -9.1296 0.0000
# 4 0.0000 0.0000 0.0000 10.9255 0.0000 -4.0785
# 5 -5.7332 -5.1660 -9.1296 0.0000 21.3083 0.0000
# 6 0.0000 0.0000 0.0000 -4.0785 0.0000 48.6744
#
#
#
# Elastic Compliance Matrix: (Units=1/GPa)
#
#
# Indices 1 2 3 4 5 6 
#
# 1 0.020091 -0.002799 0.001142 0.000000 0.005216 0.000000
# 2 -0.002799 0.011875 -0.002738 0.000000 0.000953 0.000000
# 3 0.001142 -0.002738 0.010958 0.000000 0.004338 0.000000
# 4 0.000000 0.000000 0.000000 0.094484 0.000000 0.007917
# 5 0.005216 0.000953 0.004338 0.000000 0.050423 0.000000
# 6 0.000000 0.000000 0.000000 0.007917 0.000000 0.021208
#
#
# Mechanical properties :
#
#
# Convention : Reuss Voigt Hill
#
# Bulk Modulus (GPa) = 29.29560 35.66525 32.48042
# Shear Modulus (GPa) = 21.81426 30.19621 26.00524
#
# Velocity S-wave (km/s) = 2.98831 3.51585 3.26276
# Velocity P-wave (km/s) = 4.88868 5.57510 5.24313
#
# Compressibility (1/GPa) = 0.03413482
#
# Stress axis : x y z
#
# Youngs Moduli (GPa) = 49.77268 84.20725 91.26003
#
# Poissons Ratio (x) = 0.23568 -0.10418
# Poissons Ratio (y) = 0.13930 0.24984
# Poissons Ratio (z) = -0.05682 0.23053
#
# Static dielectric constant tensor:
#      x y z
#    x 2.063110 0.000000 0.123740 
#    y 0.000000 1.953710 0.000000 
#    z 0.123740 0.000000 2.171230 
# 
# From -- ./inp_files/80884.got.cif
#   From: 2010.05.17/outbox.cif.g08.bks.cpg/sg15_41_cif.got.tgz:80884.got - 2010.06.03 18:47:42.
