data_PCOD9285642
_publ_section_title
;
Structure prediction by ZEFSAII (Michael W. Deem and Ramdas Pophale) SiO2 
 PCOD9285642
Probable space group: C 2/C
;
_chemical_formula_sum "Si O2"
_cell_formula_units_Z 32
_cell_length_a 6.848724
_cell_length_b 7.916375
_cell_length_c 20.382457
_cell_angle_alpha 90.000000
_cell_angle_beta 76.938897
_cell_angle_gamma 90.000000
_cell_volume 1076.488274
_symmetry_space_group_name_H-M "C 2/C"
_symmetry_group_IT_number 15
_symmetry_cell_setting 'monoclinic'
loop_
_space_group_symop_operation_xyz
x,y,z
-x,y,1/2-z
-x,-y,-z
x,-y,1/2+z
1/2+x,1/2+y,z
1/2-x,1/2+y,1/2-z
1/2-x,1/2-y,-z
1/2+x,1/2-y,1/2+z
loop_
_atom_site_type_symbol
_atom_site_label
_atom_site_fract_x
_atom_site_fract_y
_atom_site_fract_z
Si Si1 0.955350 0.011912 0.166171
Si Si2 0.509207 0.173925 0.914078
Si Si3 0.468580 0.325648 0.042235
Si Si4 0.343397 0.942249 0.710923
O O1 0.776194 0.942550 0.224989
O O2 0.882539 0.164513 0.126418
O O3 0.135359 0.104400 0.190935
O O4 0.035007 0.867404 0.111334
O O5 0.269558 0.203715 0.933246
O O6 0.548209 0.024678 0.859974
O O7 0.559469 0.180038 0.988411
O O8 0.500000 0.500000 0.000000
O O9 0.500000 0.857433 0.750000
#
# Coordination Sequence:
#
# PCOD9285642 Si02
#       4
#     8   8   8   8
#     4  10  23  41  61  92 126 161 212 257 309 377
#     4  10  21  42  65  89 130 163 202 267 308 361
#     4   9  19  41  67  91 125 163 208 260 309 367
#     4  11  23  40  61  93 126 164 211 257 307 372
#
# _framework density 29.726289000000001
#
# number of rings (size 3 to 8) (size 9 to 14) (size 15 to 20)
#    0.000    2.000    2.500    0.000    3.500    1.000 
#    9.000   11.250    0.000    0.000    0.000    0.000 
#    0.000    0.000    0.000    0.000    0.000    0.000 
#
# Total GULP energy -89236.059590 kJ/mol
# GULP energy per Si atom -5577.253724 kJ/mol
# Density = 2.965863 g / cm^3
# Si number density = 29.726289 Si / 1000 Ang^3
#
#
#
# Elastic Constant Matrix: (Units=GPa)
#
#
# Indices 1 2 3 4 5 6 
#
# 1 123.6088 27.3041 55.3051 0.0000 6.4860 0.0000
# 2 27.3041 95.6382 27.3430 0.0000 -2.4303 0.0000
# 3 55.3051 27.3430 185.1155 0.0000 -23.2947 0.0000
# 4 0.0000 0.0000 0.0000 29.1230 0.0000 14.5627
# 5 6.4860 -2.4303 -23.2947 0.0000 72.0443 0.0000
# 6 0.0000 0.0000 0.0000 14.5627 0.0000 33.7213
#
#
#
# Elastic Compliance Matrix: (Units=1/GPa)
#
#
# Indices 1 2 3 4 5 6 
#
# 1 0.009945 -0.002056 -0.002907 0.000000 -0.001905 0.000000
# 2 -0.002056 0.011344 -0.001032 0.000000 0.000234 0.000000
# 3 -0.002907 -0.001032 0.006725 0.000000 0.002401 0.000000
# 4 0.000000 0.000000 0.000000 0.043794 0.000000 -0.018913
# 5 -0.001905 0.000234 0.002401 0.000000 0.014836 0.000000
# 6 0.000000 0.000000 0.000000 -0.018913 0.000000 0.037822
#
#
# Mechanical properties :
#
#
# Convention : Reuss Voigt Hill
#
# Bulk Modulus (GPa) = 62.40804 69.36301 65.88553
# Shear Modulus (GPa) = 35.26120 46.60506 40.93313
#
# Velocity S-wave (km/s) = 3.44786 3.96385 3.71482
# Velocity P-wave (km/s) = 6.07372 6.65838 6.37276
#
# Compressibility (1/GPa) = 0.01602358
#
# Stress axis : x y z
#
# Youngs Moduli (GPa) = 100.55384 88.15141 148.69588
#
# Poissons Ratio (x) = 0.18128 0.43227
# Poissons Ratio (y) = 0.20679 0.15342
# Poissons Ratio (z) = 0.29232 0.09095
#
# Static dielectric constant tensor:
#      x y z
#    x 2.484100 0.000000 0.124290 
#    y 0.000000 2.392600 0.000000 
#    z 0.124290 0.000000 2.483140 
# 
# From -- ./inp_files/229158.got.cif
#   From: 2010.05.17/outbox.cif.g08.bks.cpg/sg15_115_cif.got.tgz:229158.got - 2010.06.03 18:47:42.
