data_PCOD9285726
_publ_section_title
;
Structure prediction by ZEFSAII (Michael W. Deem and Ramdas Pophale) SiO2 
 PCOD9285726
Probable space group: C 2/C
;
_chemical_formula_sum "Si O2"
_cell_formula_units_Z 48
_cell_length_a 10.349787
_cell_length_b 24.369937
_cell_length_c 10.815292
_cell_angle_alpha 90.000000
_cell_angle_beta 55.643915
_cell_angle_gamma 90.000000
_cell_volume 2251.984999
_symmetry_space_group_name_H-M "C 2/C"
_symmetry_group_IT_number 15
_symmetry_cell_setting 'monoclinic'
loop_
_space_group_symop_operation_xyz
x,y,z
-x,y,1/2-z
-x,-y,-z
x,-y,1/2+z
1/2+x,1/2+y,z
1/2-x,1/2+y,1/2-z
1/2-x,1/2-y,-z
1/2+x,1/2-y,1/2+z
loop_
_atom_site_type_symbol
_atom_site_label
_atom_site_fract_x
_atom_site_fract_y
_atom_site_fract_z
Si Si1 0.637575 0.842622 0.999568
Si Si2 0.311062 0.884165 0.879537
Si Si3 0.286350 0.164471 0.777464
Si Si4 0.659625 0.773210 0.734736
Si Si5 0.825644 0.059921 0.283758
Si Si6 0.321609 0.567041 0.803826
O O1 0.726960 0.819550 0.071474
O O2 0.462403 0.849119 0.141974
O O3 0.639896 0.804452 0.877275
O O4 0.713315 0.900821 0.924181
O O5 0.500000 0.886785 0.750000
O O6 0.260722 0.820414 0.892108
O O7 0.205929 0.917276 0.837466
O O8 0.280773 0.907687 0.030426
O O9 0.240108 0.216141 0.719570
O O10 0.192797 0.108798 0.802003
O O11 0.500000 0.761302 0.750000
O O12 0.000000 0.064517 0.250000
O O13 0.778998 0.996135 0.305702
O O14 0.500000 0.567388 0.750000
#
# Coordination Sequence:
#
# PCOD9285726 Si02
#       6
#     8   8   8   8   8   8
#     4  10  24  43  62  95 132 171 215 262 328 389
#     4  10  23  43  67  94 128 177 222 260 328 398
#     4  11  23  40  64  99 132 163 216 274 318 380
#     4  10  21  42  66  90 132 174 211 261 324 393
#     4  10  24  44  66  90 132 175 215 267 332 389
#     4  11  25  39  66 100 129 168 222 272 319 384
#
# _framework density 21.314530000000001
#
# number of rings (size 3 to 8) (size 9 to 14) (size 15 to 20)
#    0.000    1.667    0.000    4.000    4.667    8.000 
#   15.000    0.000    0.000    0.000    0.000    0.000 
#    0.000    0.000    0.000    0.000    0.000    0.000 
#
# Total GULP energy -134033.834349 kJ/mol
# GULP energy per Si atom -5584.743098 kJ/mol
# Density = 2.126602 g / cm^3
# Si number density = 21.314530 Si / 1000 Ang^3
#
#
#
# Elastic Constant Matrix: (Units=GPa)
#
#
# Indices 1 2 3 4 5 6 
#
# 1 100.4928 72.3510 27.4603 0.0000 28.7213 0.0000
# 2 72.3510 159.1299 26.9468 0.0000 5.8682 0.0000
# 3 27.4603 26.9468 55.5659 0.0000 12.3754 0.0000
# 4 0.0000 0.0000 0.0000 16.0365 0.0000 9.9412
# 5 28.7213 5.8682 12.3754 0.0000 30.8120 0.0000
# 6 0.0000 0.0000 0.0000 9.9412 0.0000 56.7192
#
#
#
# Elastic Compliance Matrix: (Units=1/GPa)
#
#
# Indices 1 2 3 4 5 6 
#
# 1 0.022341 -0.009046 -0.002635 0.000000 -0.018044 0.000000
# 2 -0.009046 0.010509 -0.002260 0.000000 0.007339 0.000000
# 3 -0.002635 -0.002260 0.021693 0.000000 -0.005826 0.000000
# 4 0.000000 0.000000 0.000000 0.069959 0.000000 -0.012262
# 5 -0.018044 0.007339 -0.005826 0.000000 0.050217 0.000000
# 6 0.000000 0.000000 0.000000 -0.012262 0.000000 0.019780
#
#
# Mechanical properties :
#
#
# Convention : Reuss Voigt Hill
#
# Bulk Modulus (GPa) = 37.51012 63.18943 50.34978
# Shear Modulus (GPa) = 21.62001 33.27557 27.44779
#
# Velocity S-wave (km/s) = 3.18831 3.95545 3.59242
# Velocity P-wave (km/s) = 5.58483 7.11135 6.39381
#
# Compressibility (1/GPa) = 0.02665947
#
# Stress axis : x y z
#
# Youngs Moduli (GPa) = 44.76132 95.15453 46.09860
#
# Poissons Ratio (x) = 0.86076 0.12148
# Poissons Ratio (y) = 0.40491 0.10420
# Poissons Ratio (z) = 0.11795 0.21509
#
# Static dielectric constant tensor:
#      x y z
#    x -0.123820 0.000000 2.191010 
#    y 0.000000 1.751930 0.000000 
#    z 2.191010 0.000000 -0.657900 
# 
# From -- ./inp_files/79753.got.cif
#   From: 2010.05.17/outbox.cif.g08.bks.cpg/sg15_40_cif.got.tgz:79753.got - 2010.06.03 18:47:42.
