data_PCOD9285538
_publ_section_title
;
Structure prediction by ZEFSAII (Michael W. Deem and Ramdas Pophale) SiO2 
 PCOD9285538
Probable space group: C 2/C
;
_chemical_formula_sum "Si O2"
_cell_formula_units_Z 32
_cell_length_a 13.198519
_cell_length_b 5.101961
_cell_length_c 20.292327
_cell_angle_alpha 90.000000
_cell_angle_beta 77.626985
_cell_angle_gamma 90.000000
_cell_volume 1334.713246
_symmetry_space_group_name_H-M "C 2/C"
_symmetry_group_IT_number 15
_symmetry_cell_setting 'monoclinic'
loop_
_space_group_symop_operation_xyz
x,y,z
-x,y,1/2-z
-x,-y,-z
x,-y,1/2+z
1/2+x,1/2+y,z
1/2-x,1/2+y,1/2-z
1/2-x,1/2-y,-z
1/2+x,1/2-y,1/2+z
loop_
_atom_site_type_symbol
_atom_site_label
_atom_site_fract_x
_atom_site_fract_y
_atom_site_fract_z
Si Si1 0.923262 0.275552 0.873854
Si Si2 0.400605 0.736462 0.456496
Si Si3 0.225558 0.775034 0.211665
Si Si4 0.112650 0.500785 0.410867
O O1 0.888216 0.048080 0.928569
O O2 0.887699 0.218885 0.805318
O O3 0.872733 0.548321 0.905047
O O4 0.045245 0.322824 0.869485
O O5 0.352227 0.823528 0.532395
O O6 0.525187 0.793926 0.448619
O O7 0.244794 0.994226 0.263840
O O8 0.299348 0.853756 0.140458
#
# Coordination Sequence:
#
# PCOD9285538 Si02
#       4
#     8   8   8   8
#     4  10  21  42  63  96 121 170 206 266 335 365
#     4   9  20  40  69  97 121 159 211 269 344 370
#     4  12  28  43  60  94 133 176 223 256 308 394
#     4   9  23  41  67  93 131 157 213 274 319 393
#
# _framework density 23.975186000000001
#
# number of rings (size 3 to 8) (size 9 to 14) (size 15 to 20)
#    1.500    0.500    0.000    2.250    3.500    3.000 
#    0.000    0.000    0.000    0.000    0.000    0.000 
#    0.000    0.000    0.000    0.000    0.000    0.000 
#
# Total GULP energy -89443.181795 kJ/mol
# GULP energy per Si atom -5590.198862 kJ/mol
# Density = 2.392062 g / cm^3
# Si number density = 23.975186 Si / 1000 Ang^3
#
#
#
# Elastic Constant Matrix: (Units=GPa)
#
#
# Indices 1 2 3 4 5 6 
#
# 1 51.8643 7.8467 21.9507 0.0000 4.1780 0.0000
# 2 7.8467 79.6125 -6.8143 0.0001 8.7533 0.0001
# 3 21.9507 -6.8143 68.4438 0.0001 22.3946 0.0000
# 4 0.0000 0.0001 0.0001 42.2159 0.0000 2.2331
# 5 4.1780 8.7533 22.3946 0.0000 51.4833 0.0000
# 6 0.0000 0.0001 0.0000 2.2331 0.0000 21.6043
#
#
#
# Elastic Compliance Matrix: (Units=1/GPa)
#
#
# Indices 1 2 3 4 5 6 
#
# 1 0.023204 -0.003282 -0.008552 0.000000 0.002395 0.000000
# 2 -0.003282 0.013587 0.003584 0.000000 -0.003603 0.000000
# 3 -0.008552 0.003584 0.020617 0.000000 -0.008883 0.000000
# 4 0.000000 0.000000 0.000000 0.023818 0.000000 -0.002462
# 5 0.002395 -0.003603 -0.008883 0.000000 0.023706 0.000000
# 6 0.000000 0.000000 0.000000 -0.002462 0.000000 0.046542
#
#
# Mechanical properties :
#
#
# Convention : Reuss Voigt Hill
#
# Bulk Modulus (GPa) = 24.44538 27.32077 25.88307
# Shear Modulus (GPa) = 27.53133 34.85652 31.19392
#
# Velocity S-wave (km/s) = 3.39237 3.81709 3.61098
# Velocity P-wave (km/s) = 5.05594 5.55401 5.31082
#
# Compressibility (1/GPa) = 0.04090753
#
# Stress axis : x y z
#
# Youngs Moduli (GPa) = 43.09523 73.59811 48.50392
#
# Poissons Ratio (x) = 0.24158 0.41483
# Poissons Ratio (y) = 0.14146 -0.17385
# Poissons Ratio (z) = 0.36857 -0.26380
#
# Static dielectric constant tensor:
#      x y z
#    x 1.999060 0.000000 0.009380 
#    y 0.000000 1.855830 0.000000 
#    z 0.009380 0.000000 1.889110 
# 
# From -- ./inp_files/201846.got.cif
#   From: 2010.05.17/outbox.cif.g08.bks.cpg/sg15_101_cif.got.tgz:201846.got - 2010.06.03 18:47:42.
