data_PCOD9285483
_publ_section_title
;
Structure prediction by ZEFSAII (Michael W. Deem and Ramdas Pophale) SiO2 
 PCOD9285483
Probable space group: C 2/C
;
_chemical_formula_sum "Si O2"
_cell_formula_units_Z 44
_cell_length_a 5.004105
_cell_length_b 23.407467
_cell_length_c 17.998107
_cell_angle_alpha 90.000000
_cell_angle_beta 94.113521
_cell_angle_gamma 90.000000
_cell_volume 2102.748956
_symmetry_space_group_name_H-M "C 2/C"
_symmetry_group_IT_number 15
_symmetry_cell_setting 'monoclinic'
loop_
_space_group_symop_operation_xyz
x,y,z
-x,y,1/2-z
-x,-y,-z
x,-y,1/2+z
1/2+x,1/2+y,z
1/2-x,1/2+y,1/2-z
1/2-x,1/2-y,-z
1/2+x,1/2-y,1/2+z
loop_
_atom_site_type_symbol
_atom_site_label
_atom_site_fract_x
_atom_site_fract_y
_atom_site_fract_z
Si Si1 0.353487 0.835279 0.170288
Si Si2 0.930855 0.233204 0.073154
Si Si3 0.500000 0.751698 0.750000
Si Si4 0.738995 0.435248 0.550603
Si Si5 0.583503 0.173188 0.376953
Si Si6 0.279230 0.067360 0.552165
O O1 0.500000 0.851834 0.250000
O O2 0.505936 0.791661 0.118194
O O3 0.126717 0.792014 0.194373
O O4 0.265425 0.888958 0.120025
O O5 0.723085 0.191364 0.113828
O O6 0.205570 0.200731 0.060822
O O7 0.750000 0.250000 0.000000
O O8 0.327973 0.796072 0.697815
O O9 0.856941 0.393393 0.615122
O O10 0.736954 0.501445 0.574192
O O11 0.446008 0.419656 0.514199
O O12 0.936429 0.429156 0.483659
#
# Coordination Sequence:
#
# PCOD9285483 Si02
#       6
#     8   8   4   8   8   8
#     4  11  22  39  58  86 127 158 195 245 304 359
#     4  11  22  35  59  88 115 153 199 239 291 351
#     4  10  24  38  56  86 128 160 194 240 302 366
#     4  10  21  42  62  90 113 153 205 252 294 344
#     4  11  21  37  58  82 119 153 191 241 292 346
#     4  10  23  39  65  86 118 154 200 253 296 348
#
# _framework density 20.924990999999999
#
# number of rings (size 3 to 8) (size 9 to 14) (size 15 to 20)
#    0.000    1.455    1.818    3.818    2.545    1.455 
#    1.636    0.000    0.000    0.000    0.000    0.000 
#    0.000    0.000    0.000    0.000    0.000    0.000 
#
# Total GULP energy -122676.493326 kJ/mol
# GULP energy per Si atom -5576.204242 kJ/mol
# Density = 2.087736 g / cm^3
# Si number density = 20.924991 Si / 1000 Ang^3
#
#
#
# Elastic Constant Matrix: (Units=GPa)
#
#
# Indices 1 2 3 4 5 6 
#
# 1 61.7489 12.8557 -0.2424 0.0000 10.9918 0.0000
# 2 12.8557 160.0147 69.1617 0.0000 9.7934 0.0000
# 3 -0.2424 69.1617 67.0752 0.0000 8.1554 0.0000
# 4 0.0000 0.0000 0.0000 40.9667 0.0000 3.5799
# 5 10.9918 9.7934 8.1554 0.0000 22.2616 0.0000
# 6 0.0000 0.0000 0.0000 3.5799 0.0000 23.7061
#
#
#
# Elastic Compliance Matrix: (Units=1/GPa)
#
#
# Indices 1 2 3 4 5 6 
#
# 1 0.018414 -0.002574 0.003861 0.000000 -0.009374 0.000000
# 2 -0.002574 0.011645 -0.012087 0.000000 0.000576 0.000000
# 3 0.003861 -0.012087 0.028228 0.000000 -0.006930 0.000000
# 4 0.000000 0.000000 0.000000 0.024737 0.000000 -0.003736
# 5 -0.009374 0.000576 -0.006930 0.000000 0.051834 0.000000
# 6 0.000000 0.000000 0.000000 -0.003736 0.000000 0.042747
#
#
# Mechanical properties :
#
#
# Convention : Reuss Voigt Hill
#
# Bulk Modulus (GPa) = 27.25776 50.26542 38.76159
# Shear Modulus (GPa) = 23.64790 31.19113 27.41951
#
# Velocity S-wave (km/s) = 3.36538 3.86504 3.62383
# Velocity P-wave (km/s) = 5.30620 6.63264 6.00615
#
# Compressibility (1/GPa) = 0.03668680
#
# Stress axis : x y z
#
# Youngs Moduli (GPa) = 54.30526 85.87283 35.42594
#
# Poissons Ratio (x) = 0.22107 -0.13677
# Poissons Ratio (y) = 0.13981 0.42818
# Poissons Ratio (z) = -0.20966 1.03792
#
# Static dielectric constant tensor:
#      x y z
#    x 1.145640 0.000000 -0.105230 
#    y 0.000000 1.776850 0.000000 
#    z -0.105230 0.000000 1.818150 
# 
# From -- ./inp_files/184825.got.cif
#   From: 2010.05.17/outbox.cif.g08.bks.cpg/sg15_93_cif.got.tgz:184825.got - 2010.06.03 18:47:42.
