data_PCOD9285168
_publ_section_title
;
Structure prediction by ZEFSAII (Michael W. Deem and Ramdas Pophale) SiO2 
 PCOD9285168
Probable space group: C 2/C
;
_chemical_formula_sum "Si O2"
_cell_formula_units_Z 40
_cell_length_a 12.286279
_cell_length_b 13.090458
_cell_length_c 18.093447
_cell_angle_alpha 90.000000
_cell_angle_beta 33.660284
_cell_angle_gamma 90.000000
_cell_volume 1612.931870
_symmetry_space_group_name_H-M "C 2/C"
_symmetry_group_IT_number 15
_symmetry_cell_setting 'monoclinic'
loop_
_space_group_symop_operation_xyz
x,y,z
-x,y,1/2-z
-x,-y,-z
x,-y,1/2+z
1/2+x,1/2+y,z
1/2-x,1/2+y,1/2-z
1/2-x,1/2-y,-z
1/2+x,1/2-y,1/2+z
loop_
_atom_site_type_symbol
_atom_site_label
_atom_site_fract_x
_atom_site_fract_y
_atom_site_fract_z
Si Si1 0.446635 0.135919 0.880413
Si Si2 0.719510 0.049258 0.236539
Si Si3 0.769001 0.004057 0.877994
Si Si4 0.426087 0.201408 0.446246
Si Si5 0.931772 0.182438 0.494129
O O1 0.516135 0.235030 0.886666
O O2 0.614561 0.052847 0.766592
O O3 0.294513 0.171836 0.903318
O O4 0.309019 0.074188 0.016634
O O5 0.576722 0.145895 0.305310
O O6 0.936229 0.081246 0.089715
O O7 0.720462 0.034001 0.324082
O O8 0.000000 0.014006 0.750000
O O9 0.671745 0.112239 0.949517
O O10 0.250000 0.250000 0.500000
O O11 0.534067 0.276154 0.442624
#
# Coordination Sequence:
#
# PCOD9285168 Si02
#       5
#     8   8   8   8   8
#     4  10  21  41  68 103 131 170 234 284 331 410
#     4  11  22  42  69  99 134 179 222 281 345 404
#     4  11  20  41  70  96 132 181 223 278 343 403
#     4  11  25  41  67 100 137 175 230 276 334 414
#     4  11  22  40  74  98 134 176 228 283 337 403
#
# _framework density 24.799558999999999
#
# number of rings (size 3 to 8) (size 9 to 14) (size 15 to 20)
#    0.000    1.200    6.000    1.200    2.800    0.000 
#    0.000    4.000   13.200    0.000    0.000    0.000 
#    0.000    0.000    0.000    0.000    0.000    0.000 
#
# Total GULP energy -112070.086211 kJ/mol
# GULP energy per Si atom -5603.504311 kJ/mol
# Density = 2.474311 g / cm^3
# Si number density = 24.799559 Si / 1000 Ang^3
#
#
#
# Elastic Constant Matrix: (Units=GPa)
#
#
# Indices 1 2 3 4 5 6 
#
# 1 154.8141 54.6803 17.7875 -0.0002 -23.3967 0.0000
# 2 54.6803 108.3716 41.3114 -0.0013 -11.0365 0.0002
# 3 17.7875 41.3114 58.0075 -0.0050 -23.4816 0.0007
# 4 -0.0002 -0.0013 -0.0050 37.4316 0.0009 -12.6900
# 5 -23.3967 -11.0365 -23.4816 0.0009 47.6045 0.0001
# 6 0.0000 0.0002 0.0007 -12.6900 0.0001 45.6075
#
#
#
# Elastic Compliance Matrix: (Units=1/GPa)
#
#
# Indices 1 2 3 4 5 6 
#
# 1 0.008532 -0.004854 0.002602 0.000000 0.004352 0.000000
# 2 -0.004854 0.015565 -0.011372 -0.000001 -0.004387 0.000000
# 3 0.002602 -0.011372 0.029976 0.000004 0.013428 0.000001
# 4 0.000000 -0.000001 0.000004 0.029498 0.000001 0.008208
# 5 0.004352 -0.004387 0.013428 0.000001 0.028752 0.000000
# 6 0.000000 0.000000 0.000001 0.008208 0.000000 0.024210
#
#
# Mechanical properties :
#
#
# Convention : Reuss Voigt Hill
#
# Bulk Modulus (GPa) = 37.27827 60.97240 49.12533
# Shear Modulus (GPa) = 28.94801 39.95633 34.45217
#
# Velocity S-wave (km/s) = 3.42025 4.01829 3.73127
# Velocity P-wave (km/s) = 5.53733 6.79473 6.19800
#
# Compressibility (1/GPa) = 0.02682528
#
# Stress axis : x y z
#
# Youngs Moduli (GPa) = 117.19977 64.24683 33.35984
#
# Poissons Ratio (x) = 0.31184 -0.08680
# Poissons Ratio (y) = 0.56887 0.37938
# Poissons Ratio (z) = -0.30495 0.73063
#
# Static dielectric constant tensor:
#      x y z
#    x 3.402130 0.000000 -1.246560 
#    y 0.000000 1.992190 0.000000 
#    z -1.246560 0.000000 3.036160 
# 
# From -- ./inp_files/142377.got.cif
#   From: 2010.05.17/outbox.cif.g08.bks.cpg/sg15_72_cif.got.tgz:142377.got - 2010.06.03 18:47:42.
