data_PCOD9285613
_publ_section_title
;
Structure prediction by ZEFSAII (Michael W. Deem and Ramdas Pophale) SiO2 
 PCOD9285613
Probable space group: C 2/C
;
_chemical_formula_sum "Si O2"
_cell_formula_units_Z 48
_cell_length_a 5.361273
_cell_length_b 17.577091
_cell_length_c 22.279661
_cell_angle_alpha 90.000000
_cell_angle_beta 99.196897
_cell_angle_gamma 90.000000
_cell_volume 2072.547143
_symmetry_space_group_name_H-M "C 2/C"
_symmetry_group_IT_number 15
_symmetry_cell_setting 'monoclinic'
loop_
_space_group_symop_operation_xyz
x,y,z
-x,y,1/2-z
-x,-y,-z
x,-y,1/2+z
1/2+x,1/2+y,z
1/2-x,1/2+y,1/2-z
1/2-x,1/2-y,-z
1/2+x,1/2-y,1/2+z
loop_
_atom_site_type_symbol
_atom_site_label
_atom_site_fract_x
_atom_site_fract_y
_atom_site_fract_z
Si Si1 0.649871 0.330563 0.871095
Si Si2 0.519392 0.091379 0.009882
Si Si3 0.031809 0.069696 0.853664
Si Si4 0.357984 0.951907 0.806376
Si Si5 0.692151 0.440931 0.591915
Si Si6 0.555056 0.152995 0.878692
O O1 0.798491 0.367654 0.934156
O O2 0.778436 0.365185 0.816770
O O3 0.386373 0.374561 0.865971
O O4 0.611168 0.241952 0.874111
O O5 0.245024 0.100210 0.031159
O O6 0.588061 0.127823 0.949310
O O7 0.500000 0.000000 0.000000
O O8 0.261639 0.129377 0.858756
O O9 0.763653 0.112549 0.843727
O O10 0.120940 0.007022 0.808942
O O11 0.997688 0.012203 0.910258
O O12 0.500000 0.963584 0.750000
O O13 0.547844 0.971743 0.869044
#
# Coordination Sequence:
#
# PCOD9285613 Si02
#       6
#     8   8   8   8   8   8
#     4  10  25  39  63 100 136 174 224 268 337 390
#     4  11  21  39  65  96 134 185 227 262 318 388
#     4  11  23  43  66  95 127 171 219 271 322 390
#     4  10  22  46  73  94 123 171 225 279 330 396
#     4  10  21  42  64  97 125 173 229 267 320 400
#     4  12  25  41  66  97 145 173 209 278 328 393
#
# _framework density 23.159907
#
# number of rings (size 3 to 8) (size 9 to 14) (size 15 to 20)
#    0.000    1.333    3.333    2.500    7.000    4.667 
#    0.000    1.667    0.000    0.000    0.000    0.000 
#    0.000    0.000    0.000    0.000    0.000    0.000 
#
# Total GULP energy -133632.495564 kJ/mol
# GULP energy per Si atom -5568.020649 kJ/mol
# Density = 2.310719 g / cm^3
# Si number density = 23.159907 Si / 1000 Ang^3
#
#
#
# Elastic Constant Matrix: (Units=GPa)
#
#
# Indices 1 2 3 4 5 6 
#
# 1 138.9775 58.2854 38.6670 0.0000 -31.1698 0.0000
# 2 58.2854 189.4240 16.0738 0.0000 -17.1602 0.0000
# 3 38.6670 16.0738 81.0230 0.0000 -24.8058 0.0000
# 4 0.0000 0.0000 0.0000 7.8982 0.0000 -10.6615
# 5 -31.1698 -17.1602 -24.8058 0.0000 44.8960 0.0000
# 6 0.0000 0.0000 0.0000 -10.6615 0.0000 30.5864
#
#
#
# Elastic Compliance Matrix: (Units=1/GPa)
#
#
# Indices 1 2 3 4 5 6 
#
# 1 0.010025 -0.002436 -0.002955 0.000000 0.004396 0.000000
# 2 -0.002436 0.006080 0.000181 0.000000 0.000733 0.000000
# 3 -0.002955 0.000181 0.015779 0.000000 0.006735 0.000000
# 4 0.000000 0.000000 0.000000 0.239126 0.000000 0.083352
# 5 0.004396 0.000733 0.006735 0.000000 0.029327 0.000000
# 6 0.000000 0.000000 0.000000 0.083352 0.000000 0.061748
#
#
# Mechanical properties :
#
#
# Convention : Reuss Voigt Hill
#
# Bulk Modulus (GPa) = 46.59195 70.60857 58.60026
# Shear Modulus (GPa) = 13.16969 36.43601 24.80285
#
# Velocity S-wave (km/s) = 2.38721 3.97071 3.27607
# Velocity P-wave (km/s) = 5.26873 7.18162 6.29822
#
# Compressibility (1/GPa) = 0.02146293
#
# Stress axis : x y z
#
# Youngs Moduli (GPa) = 99.74955 164.48305 63.37636
#
# Poissons Ratio (x) = 0.40063 0.18729
# Poissons Ratio (y) = 0.24296 -0.01144
# Poissons Ratio (z) = 0.29478 -0.02970
#
# Static dielectric constant tensor:
#      x y z
#    x 2.092580 0.000000 -0.032050 
#    y 0.000000 1.864820 0.000000 
#    z -0.032050 0.000000 2.006720 
# 
# From -- ./inp_files/260707.got.cif
#   From: 2010.05.17/outbox.cif.g08.bks.cpg/sg15_131_cif.got.tgz:260707.got - 2010.06.03 18:47:42.
