data_PCOD9285216
_publ_section_title
;
Structure prediction by ZEFSAII (Michael W. Deem and Ramdas Pophale) SiO2 
 PCOD9285216
Probable space group: C 2/C
;
_chemical_formula_sum "Si O2"
_cell_formula_units_Z 48
_cell_length_a 5.244253
_cell_length_b 17.876625
_cell_length_c 24.766153
_cell_angle_alpha 90.000000
_cell_angle_beta 110.040159
_cell_angle_gamma 90.000000
_cell_volume 2181.235815
_symmetry_space_group_name_H-M "C 2/C"
_symmetry_group_IT_number 15
_symmetry_cell_setting 'monoclinic'
loop_
_space_group_symop_operation_xyz
x,y,z
-x,y,1/2-z
-x,-y,-z
x,-y,1/2+z
1/2+x,1/2+y,z
1/2-x,1/2+y,1/2-z
1/2-x,1/2-y,-z
1/2+x,1/2-y,1/2+z
loop_
_atom_site_type_symbol
_atom_site_label
_atom_site_fract_x
_atom_site_fract_y
_atom_site_fract_z
Si Si1 0.308919 0.638584 0.285373
Si Si2 0.282630 0.066647 0.485099
Si Si3 0.189444 0.205697 0.404409
Si Si4 0.765796 0.216131 0.560645
Si Si5 0.464610 0.565543 0.919735
Si Si6 0.802834 0.042447 0.785712
O O1 0.500000 0.660223 0.250000
O O2 0.467394 0.671670 0.347662
O O3 0.307430 0.548185 0.289003
O O4 0.000000 0.662207 0.250000
O O5 0.313144 0.138140 0.449226
O O6 0.217941 0.087662 0.542084
O O7 0.500000 0.000000 0.500000
O O8 0.032097 0.020270 0.439732
O O9 0.445438 0.249604 0.397162
O O10 0.001236 0.257969 0.427760
O O11 0.750000 0.250000 0.500000
O O12 0.797091 0.127014 0.560875
O O13 0.368842 0.568917 0.851052
O O14 0.500000 0.067258 0.750000
O O15 0.000000 0.064079 0.750000
#
# Coordination Sequence:
#
# PCOD9285216 Si02
#       6
#     8   8   8   8   8   8
#     4  10  21  41  68  95 129 174 227 284 332 398
#     4  11  25  40  72 100 133 174 232 288 335 403
#     4  12  25  45  67 102 134 179 232 274 346 421
#     4  12  26  44  68  99 145 184 218 278 362 420
#     4  11  25  44  65 104 135 177 228 287 340 408
#     4  10  23  41  67  97 131 176 224 282 344 398
#
# _framework density 22.005873999999999
#
# number of rings (size 3 to 8) (size 9 to 14) (size 15 to 20)
#    0.000    1.000    3.333    2.500    7.000    1.333 
#    0.000    5.000    0.000    0.000    0.000    0.000 
#    0.000    0.000    0.000    0.000    0.000    0.000 
#
# Total GULP energy -134018.896245 kJ/mol
# GULP energy per Si atom -5584.120677 kJ/mol
# Density = 2.195579 g / cm^3
# Si number density = 22.005874 Si / 1000 Ang^3
#
#
#
# Elastic Constant Matrix: (Units=GPa)
#
#
# Indices 1 2 3 4 5 6 
#
# 1 121.2652 40.6773 43.3279 0.0000 15.1998 0.0000
# 2 40.6773 96.0365 29.6953 0.0000 -3.3606 0.0000
# 3 43.3279 29.6953 166.6281 0.0000 0.8817 0.0000
# 4 0.0000 0.0000 0.0000 30.6870 0.0000 2.1802
# 5 15.1998 -3.3606 0.8817 0.0000 27.1432 0.0000
# 6 0.0000 0.0000 0.0000 2.1802 0.0000 37.3560
#
#
#
# Elastic Compliance Matrix: (Units=1/GPa)
#
#
# Indices 1 2 3 4 5 6 
#
# 1 0.011331 -0.004379 -0.002130 0.000000 -0.006818 0.000000
# 2 -0.004379 0.012768 -0.001158 0.000000 0.004071 0.000000
# 3 -0.002130 -0.001158 0.006757 0.000000 0.000830 0.000000
# 4 0.000000 0.000000 0.000000 0.032723 0.000000 -0.001910
# 5 -0.006818 0.004071 0.000830 0.000000 0.041137 0.000000
# 6 0.000000 0.000000 0.000000 -0.001910 0.000000 0.026881
#
#
# Mechanical properties :
#
#
# Convention : Reuss Voigt Hill
#
# Bulk Modulus (GPa) = 64.42663 67.92565 66.17614
# Shear Modulus (GPa) = 32.87183 37.05252 34.96217
#
# Velocity S-wave (km/s) = 3.86913 4.10781 3.99026
# Velocity P-wave (km/s) = 7.02145 7.30978 7.16707
#
# Compressibility (1/GPa) = 0.01552153
#
# Stress axis : x y z
#
# Youngs Moduli (GPa) = 88.25315 78.31924 147.98973
#
# Poissons Ratio (x) = 0.34299 0.31519
# Poissons Ratio (y) = 0.38650 0.17141
# Poissons Ratio (z) = 0.18796 0.09071
#
# Static dielectric constant tensor:
#      x y z
#    x 1.887000 0.000000 0.042620 
#    y 0.000000 1.797120 0.000000 
#    z 0.042620 0.000000 1.777310 
# 
# From -- ./inp_files/260890.got.cif
#   From: 2010.05.17/outbox.cif.g08.bks.cpg/sg15_131_cif.got.tgz:260890.got - 2010.06.03 18:47:42.
