data_PCOD9285083
_publ_section_title
;
Structure prediction by ZEFSAII (Michael W. Deem and Ramdas Pophale) SiO2 
 PCOD9285083
Probable space group: C 2/C
;
_chemical_formula_sum "Si O2"
_cell_formula_units_Z 44
_cell_length_a 17.153504
_cell_length_b 31.724700
_cell_length_c 5.155509
_cell_angle_alpha 90.000000
_cell_angle_beta 53.975193
_cell_angle_gamma 90.000000
_cell_volume 2269.043852
_symmetry_space_group_name_H-M "C 2/C"
_symmetry_group_IT_number 15
_symmetry_cell_setting 'monoclinic'
loop_
_space_group_symop_operation_xyz
x,y,z
-x,y,1/2-z
-x,-y,-z
x,-y,1/2+z
1/2+x,1/2+y,z
1/2-x,1/2+y,1/2-z
1/2-x,1/2-y,-z
1/2+x,1/2-y,1/2+z
loop_
_atom_site_type_symbol
_atom_site_label
_atom_site_fract_x
_atom_site_fract_y
_atom_site_fract_z
Si Si1 0.103967 0.472453 0.103206
Si Si2 0.791750 0.274156 0.167830
Si Si3 0.795806 0.080460 0.109352
Si Si4 0.000000 0.969723 0.250000
Si Si5 0.500000 0.319151 0.750000
Si Si6 0.200097 0.135383 0.897843
Si Si7 0.500000 0.259553 0.250000
O O1 0.103695 0.488936 0.398145
O O2 0.000000 0.450326 0.250000
O O3 0.202981 0.448148 0.854439
O O4 0.750000 0.250000 0.500000
O O5 0.763632 0.323023 0.229551
O O6 0.750000 0.250000 0.000000
O O7 0.905377 0.268338 0.940323
O O8 0.792296 0.117798 0.327283
O O9 0.782844 0.099105 0.846917
O O10 0.900257 0.057420 0.934637
O O11 0.000000 0.000000 0.500000
O O12 0.592404 0.348367 0.565537
O O13 0.499630 0.289546 0.500421
#
# Coordination Sequence:
#
# PCOD9285083 Si02
#       7
#     8   8   8   4   4   8   4
#     4  10  21  41  67  89 117 162 211 249 295 376
#     4  12  23  43  64  93 122 167 226 259 317 380
#     4  12  24  41  61  96 130 161 201 255 326 369
#     4  12  24  42  68  96 130 166 208 252 308 386
#     4  12  22  39  66  86 118 169 214 251 320 370
#     4  12  24  40  62  91 131 162 203 264 315 382
#     4  12  22  41  66  88 116 163 220 273 302 374
#
# _framework density 19.391428000000001
#
# number of rings (size 3 to 8) (size 9 to 14) (size 15 to 20)
#    0.000    0.364    3.636    6.545    0.000    0.000 
#    3.273    0.000    0.000    0.000    0.000    0.000 
#    0.000    0.000    0.000    0.000    0.000    0.000 
#
# Total GULP energy -123014.316832 kJ/mol
# GULP energy per Si atom -5591.559856 kJ/mol
# Density = 1.934729 g / cm^3
# Si number density = 19.391428 Si / 1000 Ang^3
#
#
#
# Elastic Constant Matrix: (Units=GPa)
#
#
# Indices 1 2 3 4 5 6 
#
# 1 82.9984 15.7450 39.0874 0.0000 -24.7872 0.0000
# 2 15.7450 55.0501 22.8808 0.0000 -14.9482 0.0000
# 3 39.0874 22.8808 107.1708 0.0000 -11.7817 0.0000
# 4 0.0000 0.0000 0.0000 47.7907 0.0000 -3.8492
# 5 -24.7872 -14.9482 -11.7817 0.0000 66.6092 0.0000
# 6 0.0000 0.0000 0.0000 -3.8492 0.0000 43.5993
#
#
#
# Elastic Compliance Matrix: (Units=1/GPa)
#
#
# Indices 1 2 3 4 5 6 
#
# 1 0.016114 -0.001180 -0.005094 0.000000 0.004831 0.000000
# 2 -0.001180 0.021008 -0.003656 0.000000 0.003629 0.000000
# 3 -0.005094 -0.003656 0.011902 0.000000 -0.000611 0.000000
# 4 0.000000 0.000000 0.000000 0.021074 0.000000 0.001861
# 5 0.004831 0.003629 -0.000611 0.000000 0.017517 0.000000
# 6 0.000000 0.000000 0.000000 0.001861 0.000000 0.023100
#
#
# Mechanical properties :
#
#
# Convention : Reuss Voigt Hill
#
# Bulk Modulus (GPa) = 34.28872 44.51620 39.40246
# Shear Modulus (GPa) = 35.63884 42.76692 39.20288
#
# Velocity S-wave (km/s) = 4.29168 4.70132 4.50117
# Velocity P-wave (km/s) = 6.50222 7.24406 6.88314
#
# Compressibility (1/GPa) = 0.02916411
#
# Stress axis : x y z
#
# Youngs Moduli (GPa) = 62.05803 47.60197 84.01793
#
# Poissons Ratio (x) = 0.05616 0.42800
# Poissons Ratio (y) = 0.07321 0.30716
# Poissons Ratio (z) = 0.31613 0.17403
#
# Static dielectric constant tensor:
#      x y z
#    x 1.671330 0.000000 -0.012580 
#    y 0.000000 1.709170 0.000000 
#    z -0.012580 0.000000 1.657010 
# 
# From -- ./inp_files/5825.got.cif
#   From: 2010.05.17/outbox.cif.g08.bks.cpg/sg15_3_cif.got.tgz:5825.got - 2010.06.03 18:47:42.
