data_PCOD9285027
_publ_section_title
;
Structure prediction by ZEFSAII (Michael W. Deem and Ramdas Pophale) SiO2 
 PCOD9285027
Probable space group: C 2/C
;
_chemical_formula_sum "Si O2"
_cell_formula_units_Z 52
_cell_length_a 16.929745
_cell_length_b 21.720578
_cell_length_c 9.322999
_cell_angle_alpha 90.000000
_cell_angle_beta 44.941020
_cell_angle_gamma 90.000000
_cell_volume 2421.669730
_symmetry_space_group_name_H-M "C 2/C"
_symmetry_group_IT_number 15
_symmetry_cell_setting 'monoclinic'
loop_
_space_group_symop_operation_xyz
x,y,z
-x,y,1/2-z
-x,-y,-z
x,-y,1/2+z
1/2+x,1/2+y,z
1/2-x,1/2+y,1/2-z
1/2-x,1/2-y,-z
1/2+x,1/2-y,1/2+z
loop_
_atom_site_type_symbol
_atom_site_label
_atom_site_fract_x
_atom_site_fract_y
_atom_site_fract_z
Si Si1 0.258868 0.768480 0.155922
Si Si2 0.500000 0.537683 0.250000
Si Si3 0.717833 0.454311 0.016150
Si Si4 0.831381 0.422040 0.357128
Si Si5 0.034173 0.639798 0.052118
Si Si6 0.186151 0.644535 0.326385
Si Si7 0.359534 0.617315 0.605047
O O1 0.260086 0.705684 0.244417
O O2 0.153831 0.811619 0.336221
O O3 0.250000 0.750000 0.000000
O O4 0.369148 0.809608 0.044495
O O5 0.605266 0.492430 0.128554
O O6 0.474963 0.583410 0.416325
O O7 0.697148 0.418337 0.189639
O O8 0.812140 0.506296 0.910456
O O9 0.750257 0.406895 0.849745
O O10 0.851228 0.385124 0.476774
O O11 0.717117 0.394526 0.435690
O O12 0.920622 0.409615 0.118853
O O13 0.000000 0.613519 0.250000
O O14 0.922351 0.665622 0.123852
#
# Coordination Sequence:
#
# PCOD9285027 Si02
#       7
#     8   4   8   8   8   8   8
#     4  11  22  46  67  97 134 180 231 281 344 410
#     4  10  22  40  66 108 134 178 240 284 358 404
#     4  11  22  44  70  97 144 181 228 292 344 421
#     4  10  23  41  65 101 135 174 225 284 345 403
#     4  11  23  43  68  96 135 179 224 283 338 419
#     4  12  24  44  70 101 136 182 233 287 342 414
#     4  10  21  41  66  95 140 178 222 288 338 413
#
# _framework density 21.472788999999999
#
# number of rings (size 3 to 8) (size 9 to 14) (size 15 to 20)
#    0.000    1.231    3.077    3.692    0.000    4.308 
#   12.462    3.077    0.000    0.000    0.000    0.000 
#    0.000    0.000    0.000    0.000    0.000    0.000 
#
# Total GULP energy -145248.729703 kJ/mol
# GULP energy per Si atom -5586.489604 kJ/mol
# Density = 2.142392 g / cm^3
# Si number density = 21.472789 Si / 1000 Ang^3
#
#
#
# Elastic Constant Matrix: (Units=GPa)
#
#
# Indices 1 2 3 4 5 6 
#
# 1 62.5428 19.2657 27.4785 0.0000 5.1767 0.0000
# 2 19.2657 151.6015 74.0546 0.0000 9.7051 0.0000
# 3 27.4785 74.0546 151.3398 0.0000 16.4536 0.0000
# 4 0.0000 0.0000 0.0000 0.3269 0.0000 9.8440
# 5 5.1767 9.7051 16.4536 0.0000 36.9444 0.0000
# 6 0.0000 0.0000 0.0000 9.8440 0.0000 21.5670
#
#
#
# Elastic Compliance Matrix: (Units=1/GPa)
#
#
# Indices 1 2 3 4 5 6 
#
# 1 0.017503 -0.000868 -0.002639 0.000000 -0.001049 0.000000
# 2 -0.000868 0.008717 -0.004069 0.000000 -0.000356 0.000000
# 3 -0.002639 -0.004069 0.009376 0.000000 -0.002737 0.000000
# 4 0.000000 0.000000 0.000000 -0.240019 0.000000 0.109554
# 5 -0.001049 -0.000356 -0.002737 0.000000 0.028527 0.000000
# 6 0.000000 0.000000 0.000000 0.109554 0.000000 -0.003638
#
#
# Mechanical properties :
#
#
# Convention : Reuss Voigt Hill
#
# Bulk Modulus (GPa) = 48.91703 67.45351 58.18527
# Shear Modulus (GPa) = -31.73250 28.08001 -1.82624
#
# Velocity S-wave (km/s) = -3.84839 3.62014 -0.92322
# Velocity P-wave (km/s) = 1.75602 6.99682 5.10094
#
# Compressibility (1/GPa) = 0.02044278
#
# Stress axis : x y z
#
# Youngs Moduli (GPa) = 57.13378 114.71763 106.66053
#
# Poissons Ratio (x) = 0.09956 0.28150
# Poissons Ratio (y) = 0.04959 0.43402
# Poissons Ratio (z) = 0.15079 0.46681
#
# Static dielectric constant tensor:
#      x y z
#    x 1.839000 0.000000 -0.066470 
#    y 0.000000 1.782780 0.000000 
#    z -0.066470 0.000000 1.811030 
# 
# From -- ./inp_files/50578.got.cif
#   From: 2010.05.17/outbox.cif.g08.bks.cpg/sg15_26_cif.got.tgz:50578.got - 2010.06.03 18:47:42.
