data_PCOD9285181
_publ_section_title
;
Structure prediction by ZEFSAII (Michael W. Deem and Ramdas Pophale) SiO2 
 PCOD9285181
Probable space group: C 2/C
;
_chemical_formula_sum "Si O2"
_cell_formula_units_Z 52
_cell_length_a 11.701770
_cell_length_b 8.318954
_cell_length_c 26.533148
_cell_angle_alpha 90.000000
_cell_angle_beta 80.081380
_cell_angle_gamma 90.000000
_cell_volume 2544.303027
_symmetry_space_group_name_H-M "C 2/C"
_symmetry_group_IT_number 15
_symmetry_cell_setting 'monoclinic'
loop_
_space_group_symop_operation_xyz
x,y,z
-x,y,1/2-z
-x,-y,-z
x,-y,1/2+z
1/2+x,1/2+y,z
1/2-x,1/2+y,1/2-z
1/2-x,1/2-y,-z
1/2+x,1/2-y,1/2+z
loop_
_atom_site_type_symbol
_atom_site_label
_atom_site_fract_x
_atom_site_fract_y
_atom_site_fract_z
Si Si1 0.063841 0.715681 0.645450
Si Si2 0.019154 0.122731 0.444407
Si Si3 0.273833 0.938569 0.897540
Si Si4 0.377041 0.701250 0.966937
Si Si5 0.122918 0.031938 0.218351
Si Si6 0.274710 0.191412 0.286277
Si Si7 0.000000 0.484184 0.250000
O O1 0.165159 0.608578 0.614237
O O2 0.108299 0.880069 0.666850
O O3 0.987065 0.764580 0.603770
O O4 0.011018 0.617615 0.697112
O O5 0.148174 0.044241 0.433033
O O6 0.028467 0.227947 0.495235
O O7 0.918827 0.983787 0.450663
O O8 0.364212 0.815661 0.918633
O O9 0.250098 0.877295 0.843008
O O10 0.250000 0.750000 0.000000
O O11 0.175390 0.156982 0.253907
O O12 0.000000 0.979741 0.250000
O O13 0.202629 0.878176 0.210368
O O14 0.387941 0.098284 0.257629
#
# Coordination Sequence:
#
# PCOD9285181 Si02
#       7
#     8   8   8   8   8   8   4
#     4  11  23  40  61  94 131 161 217 254 308 376
#     4  10  21  41  68  88 122 166 197 266 322 377
#     4  10  22  39  60  94 124 157 208 262 309 381
#     4   9  20  43  67  90 122 158 210 258 324 382
#     4  12  24  40  60  88 125 176 214 261 306 371
#     4  11  23  40  63  88 131 169 214 261 312 367
#     4  10  22  42  60  94 130 170 214 260 304 382
#
# _framework density 20.437818
#
# number of rings (size 3 to 8) (size 9 to 14) (size 15 to 20)
#    0.000    1.538    1.538    3.692    2.154    0.615 
#    5.538    6.923    0.000    0.000    0.000    0.000 
#    0.000    0.000    0.000    0.000    0.000    0.000 
#
# Total GULP energy -144831.013830 kJ/mol
# GULP energy per Si atom -5570.423609 kJ/mol
# Density = 2.039130 g / cm^3
# Si number density = 20.437818 Si / 1000 Ang^3
#
#
#
# Elastic Constant Matrix: (Units=GPa)
#
#
# Indices 1 2 3 4 5 6 
#
# 1 68.1728 23.4700 17.5743 0.0000 -5.8278 0.0000
# 2 23.4700 77.4460 11.4836 0.0000 0.9334 0.0000
# 3 17.5743 11.4836 95.6106 0.0000 25.1519 0.0000
# 4 0.0000 0.0000 0.0000 -4.3336 0.0000 4.3595
# 5 -5.8278 0.9334 25.1519 0.0000 35.9616 0.0000
# 6 0.0000 0.0000 0.0000 4.3595 0.0000 43.3239
#
#
#
# Elastic Compliance Matrix: (Units=1/GPa)
#
#
# Indices 1 2 3 4 5 6 
#
# 1 0.017978 -0.004882 -0.004311 0.000000 0.006056 0.000000
# 2 -0.004882 0.014498 -0.000658 0.000000 -0.000707 0.000000
# 3 -0.004311 -0.000658 0.014105 0.000000 -0.010547 0.000000
# 4 0.000000 0.000000 0.000000 -0.209542 0.000000 0.021085
# 5 0.006056 -0.000707 -0.010547 0.000000 0.036184 0.000000
# 6 0.000000 0.000000 0.000000 0.021085 0.000000 0.020960
#
#
# Mechanical properties :
#
#
# Convention : Reuss Voigt Hill
#
# Bulk Modulus (GPa) = 37.20384 38.47613 37.83999
# Shear Modulus (GPa) = -64.80480 27.57047 -18.61716
#
# Velocity S-wave (km/s) = -5.63712 3.67685 -3.02142
# Velocity P-wave (km/s) = 4.91188 6.07391 2.52645
#
# Compressibility (1/GPa) = 0.02687894
#
# Stress axis : x y z
#
# Youngs Moduli (GPa) = 55.62222 68.97598 70.89643
#
# Poissons Ratio (x) = 0.33675 0.30565
# Poissons Ratio (y) = 0.27155 0.04664
# Poissons Ratio (z) = 0.23980 0.04537
#
# Static dielectric constant tensor:
#      x y z
#    x 1.630400 0.000000 -0.107120 
#    y 0.000000 1.741180 0.000000 
#    z -0.107120 0.000000 1.746380 
# 
# From -- ./inp_files/291107.got.cif
#   From: 2010.05.17/outbox.cif.g08.bks.cpg/sg15_146_cif.got.tgz:291107.got - 2010.06.03 18:47:42.
