data_PCOD9285610
_publ_section_title
;
Structure prediction by ZEFSAII (Michael W. Deem and Ramdas Pophale) SiO2 
 PCOD9285610
Probable space group: C 2/C
;
_chemical_formula_sum "Si O2"
_cell_formula_units_Z 44
_cell_length_a 15.659389
_cell_length_b 6.484779
_cell_length_c 27.774849
_cell_angle_alpha 90.000000
_cell_angle_beta 135.043415
_cell_angle_gamma 90.000000
_cell_volume 1992.862669
_symmetry_space_group_name_H-M "C 2/C"
_symmetry_group_IT_number 15
_symmetry_cell_setting 'monoclinic'
loop_
_space_group_symop_operation_xyz
x,y,z
-x,y,1/2-z
-x,-y,-z
x,-y,1/2+z
1/2+x,1/2+y,z
1/2-x,1/2+y,1/2-z
1/2-x,1/2-y,-z
1/2+x,1/2-y,1/2+z
loop_
_atom_site_type_symbol
_atom_site_label
_atom_site_fract_x
_atom_site_fract_y
_atom_site_fract_z
Si Si1 0.066562 0.153156 0.861545
Si Si2 0.914895 0.456070 0.078718
Si Si3 0.633524 0.323659 0.689910
Si Si4 0.751394 0.145608 0.825053
Si Si5 0.000000 0.461803 0.750000
Si Si6 0.269160 0.180885 0.432065
O O1 0.087700 0.297917 0.916431
O O2 0.032900 0.313973 0.806990
O O3 0.183336 0.019443 0.895290
O O4 0.957819 0.994605 0.825560
O O5 0.815411 0.355312 0.075698
O O6 0.047126 0.369205 0.144477
O O7 0.876304 0.372662 0.011303
O O8 0.737863 0.272950 0.770092
O O9 0.689717 0.427845 0.665170
O O10 0.612841 0.104795 0.783703
O O11 0.807961 0.251467 0.894257
#
# Coordination Sequence:
#
# PCOD9285610 Si02
#       6
#     8   8   8   8   4   8
#     4  11  20  40  64  94 125 169 210 271 316 384
#     4  10  21  42  64  96 129 170 206 273 317 389
#     4  11  25  40  64  90 136 164 217 264 330 377
#     4  12  23  43  63  95 125 175 212 273 318 386
#     4  12  20  38  68  90 120 166 226 256 320 372
#     4  10  22  39  67  95 129 164 223 256 323 386
#
# _framework density 22.078792
#
# number of rings (size 3 to 8) (size 9 to 14) (size 15 to 20)
#    0.000    1.091    3.636    3.818    0.000    0.727 
#    0.000    0.909    0.000    0.000    0.000    0.000 
#    0.000    0.000    0.000    0.000    0.000    0.000 
#
# Total GULP energy -123081.855933 kJ/mol
# GULP energy per Si atom -5594.629815 kJ/mol
# Density = 2.202854 g / cm^3
# Si number density = 22.078792 Si / 1000 Ang^3
#
#
#
# Elastic Constant Matrix: (Units=GPa)
#
#
# Indices 1 2 3 4 5 6 
#
# 1 40.5771 -1.3734 5.0095 0.0000 -8.9463 -0.0001
# 2 -1.3734 54.8432 -10.3812 0.0000 -1.2662 -0.0002
# 3 5.0095 -10.3812 88.6425 0.0000 -17.2483 0.0000
# 4 0.0000 0.0000 0.0000 21.5851 0.0000 -1.2288
# 5 -8.9463 -1.2662 -17.2483 0.0000 21.9572 0.0000
# 6 -0.0001 -0.0002 0.0000 -1.2288 0.0000 37.0475
#
#
#
# Elastic Compliance Matrix: (Units=1/GPa)
#
#
# Indices 1 2 3 4 5 6 
#
# 1 0.027184 0.001125 0.000901 0.000000 0.011848 0.000000
# 2 0.001125 0.018898 0.002893 0.000000 0.003821 0.000000
# 3 0.000901 0.002893 0.013779 0.000000 0.011358 0.000000
# 4 0.000000 0.000000 0.000000 0.046416 0.000000 0.001539
# 5 0.011848 0.003821 0.011358 0.000000 0.059514 0.000000
# 6 0.000000 0.000000 0.000000 0.001539 0.000000 0.027043
#
#
# Mechanical properties :
#
#
# Convention : Reuss Voigt Hill
#
# Bulk Modulus (GPa) = 14.34751 18.95252 16.65001
# Shear Modulus (GPa) = 24.24494 28.83848 26.54171
#
# Velocity S-wave (km/s) = 3.31737 3.61801 3.47094
# Velocity P-wave (km/s) = 4.60279 5.10451 4.86013
#
# Compressibility (1/GPa) = 0.06969852
#
# Stress axis : x y z
#
# Youngs Moduli (GPa) = 36.78692 52.91616 72.57272
#
# Poissons Ratio (x) = -0.05952 -0.06539
# Poissons Ratio (y) = -0.04138 -0.20996
# Poissons Ratio (z) = -0.03315 -0.15309
#
# Static dielectric constant tensor:
#      x y z
#    x 1.822870 0.000000 -0.035440 
#    y 0.000000 1.794820 0.000000 
#    z -0.035440 0.000000 1.836850 
# 
# From -- ./inp_files/246487.got.cif
#   From: 2010.05.17/outbox.cif.g08.bks.cpg/sg15_124_cif.got.tgz:246487.got - 2010.06.03 18:47:42.
