data_PCOD9285562
_publ_section_title
;
Structure prediction by ZEFSAII (Michael W. Deem and Ramdas Pophale) SiO2 
 PCOD9285562
Probable space group: C 2/C
;
_chemical_formula_sum "Si O2"
_cell_formula_units_Z 48
_cell_length_a 14.575644
_cell_length_b 20.673472
_cell_length_c 11.957824
_cell_angle_alpha 90.000000
_cell_angle_beta 43.530455
_cell_angle_gamma 90.000000
_cell_volume 2481.696474
_symmetry_space_group_name_H-M "C 2/C"
_symmetry_group_IT_number 15
_symmetry_cell_setting 'monoclinic'
loop_
_space_group_symop_operation_xyz
x,y,z
-x,y,1/2-z
-x,-y,-z
x,-y,1/2+z
1/2+x,1/2+y,z
1/2-x,1/2+y,1/2-z
1/2-x,1/2-y,-z
1/2+x,1/2-y,1/2+z
loop_
_atom_site_type_symbol
_atom_site_label
_atom_site_fract_x
_atom_site_fract_y
_atom_site_fract_z
Si Si1 0.507830 0.735670 0.515762
Si Si2 0.474169 0.878022 0.904209
Si Si3 0.934981 0.905399 0.462288
Si Si4 0.705906 0.551023 0.641411
Si Si5 0.716214 0.082567 0.342335
Si Si6 0.745147 0.271528 0.631633
O O1 0.517047 0.801849 0.576982
O O2 0.542782 0.672170 0.556399
O O3 0.608247 0.737854 0.320941
O O4 0.358798 0.733760 0.599733
O O5 0.500000 0.889460 0.750000
O O6 0.584514 0.915081 0.881239
O O7 0.327250 0.902161 0.063307
O O8 0.853718 0.929445 0.426169
O O9 0.844197 0.919504 0.648569
O O10 0.079275 0.938716 0.334064
O O11 0.766620 0.479120 0.593797
O O12 0.720510 0.152149 0.397236
O O13 0.750000 0.250000 0.500000
#
# Coordination Sequence:
#
# PCOD9285562 Si02
#       6
#     8   8   8   8   8   8
#     4  10  22  39  62  94 121 157 202 260 303 356
#     4  11  22  39  64  88 125 160 204 254 302 364
#     4  10  22  40  61  91 123 156 203 252 305 364
#     4  11  22  39  61  90 120 164 203 241 308 368
#     4  10  22  43  60  87 125 159 201 255 299 364
#     4  10  21  42  64  89 121 158 206 250 308 361
#
# _framework density 19.341608000000001
#
# number of rings (size 3 to 8) (size 9 to 14) (size 15 to 20)
#    0.000    1.667    1.667    2.500    2.333    0.667 
#   18.000    1.667    0.000    0.000    0.000    0.000 
#    0.000    0.000    0.000    0.000    0.000    0.000 
#
# Total GULP energy -134004.018552 kJ/mol
# GULP energy per Si atom -5583.500773 kJ/mol
# Density = 1.929759 g / cm^3
# Si number density = 19.341608 Si / 1000 Ang^3
#
#
#
# Elastic Constant Matrix: (Units=GPa)
#
#
# Indices 1 2 3 4 5 6 
#
# 1 89.7026 69.3847 41.7066 0.0000 -2.3671 -0.0001
# 2 69.3847 101.2387 13.1931 0.0000 3.9909 -0.0001
# 3 41.7066 13.1931 53.8467 0.0000 -11.1859 0.0000
# 4 0.0000 0.0000 0.0000 20.1115 0.0000 -0.8237
# 5 -2.3671 3.9909 -11.1859 0.0000 31.1789 0.0001
# 6 -0.0001 -0.0001 0.0000 -0.8237 0.0001 30.5393
#
#
#
# Elastic Compliance Matrix: (Units=1/GPa)
#
#
# Indices 1 2 3 4 5 6 
#
# 1 0.046501 -0.027821 -0.029960 0.000000 -0.003657 0.000000
# 2 -0.027821 0.027015 0.014882 0.000000 -0.000231 0.000000
# 3 -0.029960 0.014882 0.040263 0.000000 0.010266 0.000000
# 4 0.000000 0.000000 0.000000 0.049778 0.000000 0.001343
# 5 -0.003657 -0.000231 0.010266 0.000000 0.035508 0.000000
# 6 0.000000 0.000000 0.000000 0.001343 0.000000 0.032781
#
#
# Mechanical properties :
#
#
# Convention : Reuss Voigt Hill
#
# Bulk Modulus (GPa) = 35.74027 54.81743 45.27885
# Shear Modulus (GPa) = 15.29183 24.39952 19.84567
#
# Velocity S-wave (km/s) = 2.81484 3.55562 3.20669
# Velocity P-wave (km/s) = 5.39287 6.72754 6.09684
#
# Compressibility (1/GPa) = 0.02797964
#
# Stress axis : x y z
#
# Youngs Moduli (GPa) = 21.50485 37.01647 24.83658
#
# Poissons Ratio (x) = 1.02985 0.74411
# Poissons Ratio (y) = 0.59830 -0.36962
# Poissons Ratio (z) = 0.64429 -0.55088
#
# Static dielectric constant tensor:
#      x y z
#    x 1.656610 0.000000 -0.001910 
#    y 0.000000 1.678980 0.000000 
#    z -0.001910 0.000000 1.672010 
# 
# From -- ./inp_files/50056.got.cif
#   From: 2010.05.17/outbox.cif.g08.bks.cpg/sg15_26_cif.got.tgz:50056.got - 2010.06.03 18:47:42.
