data_PCOD9285139
_publ_section_title
;
Structure prediction by ZEFSAII (Michael W. Deem and Ramdas Pophale) SiO2 
 PCOD9285139
Probable space group: C 2/C
;
_chemical_formula_sum "Si O2"
_cell_formula_units_Z 48
_cell_length_a 31.319739
_cell_length_b 5.027712
_cell_length_c 23.250837
_cell_angle_alpha 90.000000
_cell_angle_beta 146.121338
_cell_angle_gamma 90.000000
_cell_volume 2040.901751
_symmetry_space_group_name_H-M "C 2/C"
_symmetry_group_IT_number 15
_symmetry_cell_setting 'monoclinic'
loop_
_space_group_symop_operation_xyz
x,y,z
-x,y,1/2-z
-x,-y,-z
x,-y,1/2+z
1/2+x,1/2+y,z
1/2-x,1/2+y,1/2-z
1/2-x,1/2-y,-z
1/2+x,1/2-y,1/2+z
loop_
_atom_site_type_symbol
_atom_site_label
_atom_site_fract_x
_atom_site_fract_y
_atom_site_fract_z
Si Si1 0.717251 0.854884 0.243944
Si Si2 0.871113 0.215830 0.147980
Si Si3 0.500000 0.976654 0.750000
Si Si4 0.543422 0.252458 0.522611
Si Si5 0.750000 0.750000 0.000000
Si Si6 0.301126 0.102463 0.157192
Si Si7 0.039099 0.845839 0.179911
O O1 0.770262 0.619668 0.279858
O O2 0.630938 0.757110 0.138750
O O3 0.728362 0.935546 0.322965
O O4 0.925422 0.337409 0.160608
O O5 0.814072 0.447509 0.108965
O O6 0.928606 0.134810 0.264964
O O7 0.826192 0.955098 0.080308
O O8 0.481885 0.797517 0.784416
O O9 0.500000 0.500000 0.500000
O O10 0.530344 0.297656 0.440376
O O11 0.500000 0.000000 0.500000
O O12 0.753094 0.679099 0.931457
O O13 0.385054 0.215240 0.264534
#
# Coordination Sequence:
#
# PCOD9285139 Si02
#       7
#     8   8   4   8   4   8   8
#     4  12  28  48  70 109 151 188 238 311 360 421
#     4  10  21  41  67  95 136 177 228 289 354 420
#     4  10  22  40  62 102 136 172 226 300 352 394
#     4  12  25  47  79 105 136 197 252 286 365 441
#     4  10  22  38  70  98 126 190 224 276 350 438
#     4  10  22  43  68  93 140 183 235 282 357 423
#     4  10  22  41  70  98 133 180 239 295 343 436
#
# _framework density 23.519013999999999
#
# number of rings (size 3 to 8) (size 9 to 14) (size 15 to 20)
#    0.000    1.333    1.667    3.000    7.000    1.333 
#   12.000    0.000    0.000    0.000    0.000    0.000 
#    0.000    0.000    0.000    0.000    0.000    0.000 
#
# Total GULP energy -133790.341337 kJ/mol
# GULP energy per Si atom -5574.597556 kJ/mol
# Density = 2.346548 g / cm^3
# Si number density = 23.519014 Si / 1000 Ang^3
#
#
#
# Elastic Constant Matrix: (Units=GPa)
#
#
# Indices 1 2 3 4 5 6 
#
# 1 108.6021 43.2924 29.9922 -0.0010 -1.6131 0.0003
# 2 43.2924 98.6674 -2.1342 -0.0010 -0.6186 0.0074
# 3 29.9922 -2.1342 104.7803 -0.0020 -15.0888 0.0004
# 4 -0.0010 -0.0010 -0.0020 31.8319 0.0001 4.2453
# 5 -1.6131 -0.6186 -15.0888 0.0001 20.4866 -0.0003
# 6 0.0003 0.0074 0.0004 4.2453 -0.0003 42.4346
#
#
#
# Elastic Compliance Matrix: (Units=1/GPa)
#
#
# Indices 1 2 3 4 5 6 
#
# 1 0.012509 -0.005589 -0.004001 0.000000 -0.002131 0.000001
# 2 -0.005589 0.012641 0.002068 0.000001 0.001465 -0.000002
# 3 -0.004001 0.002068 0.011964 0.000001 0.008559 0.000000
# 4 0.000000 0.000001 0.000001 0.031840 0.000000 -0.003185
# 5 -0.002131 0.001465 0.008559 0.000000 0.054993 0.000000
# 6 0.000001 -0.000002 0.000000 -0.003185 0.000000 0.023884
#
#
# Mechanical properties :
#
#
# Convention : Reuss Voigt Hill
#
# Bulk Modulus (GPa) = 45.30947 50.48342 47.89645
# Shear Modulus (GPa) = 29.37186 35.01058 32.19122
#
# Velocity S-wave (km/s) = 3.53775 3.86243 3.70365
# Velocity P-wave (km/s) = 5.99954 6.43449 6.22082
#
# Compressibility (1/GPa) = 0.02207044
#
# Stress axis : x y z
#
# Youngs Moduli (GPa) = 79.94208 79.10735 83.58597
#
# Poissons Ratio (x) = 0.44209 0.33445
# Poissons Ratio (y) = 0.44676 -0.17286
# Poissons Ratio (z) = 0.31987 -0.16360
#
# Static dielectric constant tensor:
#      x y z
#    x 1.866500 -0.000020 -0.047120 
#    y -0.000020 3.043500 -0.000160 
#    z -0.047120 -0.000160 0.743120 
# 
# From -- ./inp_files/220864.got.cif
#   From: 2010.05.17/outbox.cif.g08.bks.cpg/sg15_111_cif.got.tgz:220864.got - 2010.06.03 18:47:42.
