data_PCOD9285794
_publ_section_title
;
Structure prediction by ZEFSAII (Michael W. Deem and Ramdas Pophale) SiO2 
 PCOD9285794
Probable space group: C 2/C
;
_chemical_formula_sum "Si O2"
_cell_formula_units_Z 56
_cell_length_a 11.678603
_cell_length_b 9.059390
_cell_length_c 23.796459
_cell_angle_alpha 90.000000
_cell_angle_beta 61.757576
_cell_angle_gamma 90.000000
_cell_volume 2217.967015
_symmetry_space_group_name_H-M "C 2/C"
_symmetry_group_IT_number 15
_symmetry_cell_setting 'monoclinic'
loop_
_space_group_symop_operation_xyz
x,y,z
-x,y,1/2-z
-x,-y,-z
x,-y,1/2+z
1/2+x,1/2+y,z
1/2-x,1/2+y,1/2-z
1/2-x,1/2-y,-z
1/2+x,1/2-y,1/2+z
loop_
_atom_site_type_symbol
_atom_site_label
_atom_site_fract_x
_atom_site_fract_y
_atom_site_fract_z
Si Si1 0.387571 0.470615 0.350336
Si Si2 0.866978 0.202899 0.657201
Si Si3 0.827296 0.455512 0.447586
Si Si4 0.402870 0.815653 0.323895
Si Si5 0.081537 0.258808 0.977939
Si Si6 0.647066 0.780185 0.720588
Si Si7 0.287759 0.271653 0.575772
O O1 0.517558 0.402716 0.348361
O O2 0.114047 0.601758 0.508647
O O3 0.368083 0.394127 0.293705
O O4 0.270502 0.393300 0.411659
O O5 0.733787 0.129352 0.669017
O O6 0.913307 0.284696 0.590054
O O7 0.822563 0.298014 0.721481
O O8 0.926478 0.408085 0.374624
O O9 0.692790 0.362899 0.467433
O O10 0.793437 0.624766 0.446925
O O11 0.500000 0.820231 0.250000
O O12 0.388178 0.645076 0.346910
O O13 0.938225 0.209006 0.028899
O O14 0.500000 0.842318 0.750000
O O15 0.746994 0.823160 0.648622
#
# Coordination Sequence:
#
# PCOD9285794 Si02
#       7
#     8   8   8   8   8   8   8
#     4   9  22  44  67  97 136 178 237 295 358 423
#     4  10  21  42  67 101 134 182 230 298 351 415
#     4  10  24  44  61 100 144 174 239 295 348 434
#     4  11  24  41  66 103 137 186 234 294 361 428
#     4  10  23  42  68  96 139 186 230 289 361 430
#     4   8  18  41  64  95 134 172 229 294 346 422
#     4  10  22  42  71  97 129 192 231 285 359 426
#
# _framework density 25.248346000000002
#
# number of rings (size 3 to 8) (size 9 to 14) (size 15 to 20)
#    0.857    1.429    0.000    1.714    2.000    8.000 
#    5.143    3.571    0.000    0.000    0.000    0.000 
#    0.000    0.000    0.000    0.000    0.000    0.000 
#
# Total GULP energy -156527.362232 kJ/mol
# GULP energy per Si atom -5590.262937 kJ/mol
# Density = 2.519088 g / cm^3
# Si number density = 25.248346 Si / 1000 Ang^3
#
#
#
# Elastic Constant Matrix: (Units=GPa)
#
#
# Indices 1 2 3 4 5 6 
#
# 1 95.2992 20.8849 55.4357 0.0000 20.0403 0.0000
# 2 20.8849 110.0615 37.0089 0.0000 10.4947 0.0000
# 3 55.4357 37.0089 207.4511 0.0000 13.0322 0.0000
# 4 0.0000 0.0000 0.0000 19.2644 0.0000 -1.1621
# 5 20.0403 10.4947 13.0322 0.0000 45.5456 0.0000
# 6 0.0000 0.0000 0.0000 -1.1621 0.0000 18.5156
#
#
#
# Elastic Compliance Matrix: (Units=1/GPa)
#
#
# Indices 1 2 3 4 5 6 
#
# 1 0.013562 -0.001060 -0.003132 0.000000 -0.004827 0.000000
# 2 -0.001060 0.009890 -0.001392 0.000000 -0.001414 0.000000
# 3 -0.003132 -0.001392 0.005905 0.000000 0.000009 0.000000
# 4 0.000000 0.000000 0.000000 0.052107 0.000000 0.003270
# 5 -0.004827 -0.001414 0.000009 0.000000 0.024403 0.000000
# 6 0.000000 0.000000 0.000000 0.003270 0.000000 0.054214
#
#
# Mechanical properties :
#
#
# Convention : Reuss Voigt Hill
#
# Bulk Modulus (GPa) = 54.97799 71.05231 63.01515
# Shear Modulus (GPa) = 28.19880 36.63061 32.41471
#
# Velocity S-wave (km/s) = 3.34557 3.81309 3.58695
# Velocity P-wave (km/s) = 6.06184 6.89845 6.49363
#
# Compressibility (1/GPa) = 0.01818910
#
# Stress axis : x y z
#
# Youngs Moduli (GPa) = 73.73276 101.11245 169.34509
#
# Poissons Ratio (x) = 0.10720 0.53036
# Poissons Ratio (y) = 0.07817 0.23577
# Poissons Ratio (z) = 0.23092 0.14077
#
# Static dielectric constant tensor:
#      x y z
#    x 1.971710 0.000000 0.011120 
#    y 0.000000 2.006060 0.000000 
#    z 0.011120 0.000000 2.060530 
# 
# From -- ./inp_files/296290.got.cif
#   From: 2010.05.17/outbox.cif.g08.bks.cpg/sg15_149_cif.got.tgz:296290.got - 2010.06.03 18:47:42.
