data_PCOD9286874
_publ_section_title
;
Structure prediction by ZEFSAII (Michael W. Deem and Ramdas Pophale) SiO2 
 PCOD9286874
Probable space group: C 2/C
;
_chemical_formula_sum "Si O2"
_cell_formula_units_Z 48
_cell_length_a 8.471280
_cell_length_b 17.274058
_cell_length_c 13.780782
_cell_angle_alpha 90.000000
_cell_angle_beta 91.850867
_cell_angle_gamma 90.000000
_cell_volume 2015.536343
_symmetry_space_group_name_H-M "C 2/C"
_symmetry_group_IT_number 15
_symmetry_cell_setting 'monoclinic'
loop_
_space_group_symop_operation_xyz
x,y,z
-x,y,1/2-z
-x,-y,-z
x,-y,1/2+z
1/2+x,1/2+y,z
1/2-x,1/2+y,1/2-z
1/2-x,1/2-y,-z
1/2+x,1/2-y,1/2+z
loop_
_atom_site_type_symbol
_atom_site_label
_atom_site_fract_x
_atom_site_fract_y
_atom_site_fract_z
Si Si1 0.593233 0.777468 0.446133
Si Si2 0.197306 0.355439 0.816925
Si Si3 0.900743 0.806061 0.101453
Si Si4 0.500000 0.286931 0.750000
Si Si5 0.114707 0.591529 0.521252
Si Si6 0.157736 0.494790 0.697822
Si Si7 0.000000 0.072088 0.750000
O O1 0.750000 0.750000 0.500000
O O2 0.465509 0.724932 0.501128
O O3 0.591755 0.763120 0.331500
O O4 0.550881 0.865791 0.467758
O O5 0.122660 0.271461 0.835461
O O6 0.381012 0.339336 0.807192
O O7 0.153655 0.403509 0.720543
O O8 0.163126 0.408129 0.910241
O O9 0.735660 0.848752 0.077860
O O10 0.006735 0.869638 0.157883
O O11 0.134481 0.515214 0.584790
O O12 0.331981 0.526098 0.735634
O O13 0.000000 0.527441 0.750000
#
# Coordination Sequence:
#
# PCOD9286874 Si02
#       7
#     8   8   8   4   8   8   4
#     4  11  24  37  71 116 136 187 249 314 384 451
#     4  11  23  44  71 104 144 200 247 311 391 440
#     4  10  21  44  72 100 144 191 241 320 382 428
#     4  12  23  42  74 111 152 184 252 320 371 466
#     4  10  22  48  68  98 151 190 239 325 379 441
#     4  11  27  45  71 102 151 206 247 305 393 463
#     4  10  25  46  72 105 150 198 252 308 385 470
#
# _framework density 23.815000999999999
#
# number of rings (size 3 to 8) (size 9 to 14) (size 15 to 20)
#    0.000    1.333    3.333    1.500    7.000    2.000 
#    3.000    2.500    0.000    0.000    0.000    0.000 
#    0.000    0.000    0.000    0.000    0.000    0.000 
#
# Total GULP energy -134163.930333 kJ/mol
# GULP energy per Si atom -5590.163764 kJ/mol
# Density = 2.376080 g / cm^3
# Si number density = 23.815001 Si / 1000 Ang^3
#
#
#
# Elastic Constant Matrix: (Units=GPa)
#
#
# Indices 1 2 3 4 5 6 
#
# 1 112.1542 33.3451 31.4929 0.0000 6.9741 0.0000
# 2 33.3451 108.0226 44.8388 0.0000 3.1735 0.0000
# 3 31.4929 44.8388 132.4340 0.0000 9.2184 0.0000
# 4 0.0000 0.0000 0.0000 27.7241 0.0000 10.4031
# 5 6.9741 3.1735 9.2184 0.0000 33.9455 0.0000
# 6 0.0000 0.0000 0.0000 10.4031 0.0000 20.2352
#
#
#
# Elastic Compliance Matrix: (Units=1/GPa)
#
#
# Indices 1 2 3 4 5 6 
#
# 1 0.010158 -0.002481 -0.001474 0.000000 -0.001455 0.000000
# 2 -0.002481 0.011377 -0.003286 0.000000 0.000338 0.000000
# 3 -0.001474 -0.003286 0.009144 0.000000 -0.001873 0.000000
# 4 0.000000 0.000000 0.000000 0.044691 0.000000 -0.022976
# 5 -0.001455 0.000338 -0.001873 0.000000 0.030235 0.000000
# 6 0.000000 0.000000 0.000000 -0.022976 0.000000 0.061231
#
#
# Mechanical properties :
#
#
# Convention : Reuss Voigt Hill
#
# Bulk Modulus (GPa) = 61.73661 63.55159 62.64410
# Shear Modulus (GPa) = 26.77831 32.57655 29.67743
#
# Velocity S-wave (km/s) = 3.35689 3.70253 3.53394
# Velocity P-wave (km/s) = 6.40349 6.70982 6.55844
#
# Compressibility (1/GPa) = 0.01619784
#
# Stress axis : x y z
#
# Youngs Moduli (GPa) = 98.44062 87.89646 109.35734
#
# Poissons Ratio (x) = 0.21807 0.16124
# Poissons Ratio (y) = 0.24423 0.35930
# Poissons Ratio (z) = 0.14514 0.28879
#
# Static dielectric constant tensor:
#      x y z
#    x 2.080270 0.000000 -0.035620 
#    y 0.000000 1.910630 0.000000 
#    z -0.035620 0.000000 1.858190 
# 
# From -- ./inp_files/134899.got.cif
#   From: 2010.05.17/outbox.cif.g08.bks.cpg/sg15_68_cif.got.tgz:134899.got - 2010.06.03 18:47:42.
