data_PCOD9286352
_publ_section_title
;
Structure prediction by ZEFSAII (Michael W. Deem and Ramdas Pophale) SiO2 
 PCOD9286352
Probable space group: C 2/C
;
_chemical_formula_sum "Si O2"
_cell_formula_units_Z 60
_cell_length_a 10.410053
_cell_length_b 16.586786
_cell_length_c 18.098911
_cell_angle_alpha 90.000000
_cell_angle_beta 75.418352
_cell_angle_gamma 90.000000
_cell_volume 3024.465910
_symmetry_space_group_name_H-M "C 2/C"
_symmetry_group_IT_number 15
_symmetry_cell_setting 'monoclinic'
loop_
_space_group_symop_operation_xyz
x,y,z
-x,y,1/2-z
-x,-y,-z
x,-y,1/2+z
1/2+x,1/2+y,z
1/2-x,1/2+y,1/2-z
1/2-x,1/2-y,-z
1/2+x,1/2-y,1/2+z
loop_
_atom_site_type_symbol
_atom_site_label
_atom_site_fract_x
_atom_site_fract_y
_atom_site_fract_z
Si Si1 0.325346 0.649099 0.685694
Si Si2 0.287405 0.472240 0.064129
Si Si3 0.071313 0.758998 0.585494
Si Si4 0.536844 0.565317 0.098706
Si Si5 0.500000 0.522051 0.750000
Si Si6 0.577269 0.883090 0.310496
Si Si7 0.007763 0.528612 0.414676
Si Si8 0.127731 0.706323 0.411195
O O1 0.277113 0.607577 0.616043
O O2 0.408524 0.581877 0.716438
O O3 0.204505 0.662031 0.758915
O O4 0.401937 0.728952 0.649057
O O5 0.410921 0.520049 0.081160
O O6 0.147189 0.518653 0.087981
O O7 0.337501 0.448403 0.974556
O O8 0.993726 0.841980 0.606015
O O9 0.075988 0.735849 0.498528
O O10 0.213637 0.784834 0.599293
O O11 0.007853 0.683687 0.635361
O O12 0.565071 0.532835 0.176774
O O13 0.500000 0.914075 0.250000
O O14 0.594295 0.961607 0.358745
O O15 0.000000 0.500000 0.500000
O O16 0.070120 0.617947 0.401974
#
# Coordination Sequence:
#
# PCOD9286352 Si02
#       8
#     8   8   8   8   4   8   8   8
#     4  11  23  47  64  94 133 180 211 283 333 399
#     4  10  21  43  67  90 130 171 216 258 341 390
#     4  11  22  41  64  97 121 173 219 269 317 403
#     4  10  22  40  69  92 125 172 218 269 315 408
#     4  10  26  40  66  98 130 170 226 270 338 386
#     4  12  24  43  67  93 133 168 227 278 333 382
#     4  12  24  41  67 101 126 172 220 277 326 404
#     4  11  23  40  68  90 133 169 220 263 338 394
#
# _framework density 19.838213
#
# number of rings (size 3 to 8) (size 9 to 14) (size 15 to 20)
#    0.000    1.067    5.333    0.800    4.667    0.000 
#    6.000    0.667    0.000    0.000    0.000    0.000 
#    0.000    0.000    0.000    0.000    0.000    0.000 
#
# Total GULP energy -167364.114792 kJ/mol
# GULP energy per Si atom -5578.803826 kJ/mol
# Density = 1.979306 g / cm^3
# Si number density = 19.838213 Si / 1000 Ang^3
#
#
#
# Elastic Constant Matrix: (Units=GPa)
#
#
# Indices 1 2 3 4 5 6 
#
# 1 49.9388 37.0541 28.0290 0.0000 -12.2519 0.0000
# 2 37.0541 176.2796 73.2588 0.0000 -6.7884 0.0000
# 3 28.0290 73.2588 149.5462 0.0000 -5.3437 0.0000
# 4 0.0000 0.0000 0.0000 18.2708 0.0000 -1.9275
# 5 -12.2519 -6.7884 -5.3437 0.0000 21.1591 0.0000
# 6 0.0000 0.0000 0.0000 -1.9275 0.0000 32.5792
#
#
#
# Elastic Compliance Matrix: (Units=1/GPa)
#
#
# Indices 1 2 3 4 5 6 
#
# 1 0.028198 -0.004260 -0.002688 0.000000 0.014282 0.000000
# 2 -0.004260 0.007809 -0.003053 0.000000 -0.000733 0.000000
# 3 -0.002688 -0.003053 0.008674 0.000000 -0.000345 0.000000
# 4 0.000000 0.000000 0.000000 0.055076 0.000000 0.003258
# 5 0.014282 -0.000733 -0.000345 0.000000 0.055209 0.000000
# 6 0.000000 0.000000 0.000000 0.003258 0.000000 0.030887
#
#
# Mechanical properties :
#
#
# Convention : Reuss Voigt Hill
#
# Bulk Modulus (GPa) = 40.52067 72.49427 56.50747
# Shear Modulus (GPa) = 23.35565 30.23001 26.79283
#
# Velocity S-wave (km/s) = 3.43491 3.90786 3.67899
# Velocity P-wave (km/s) = 6.01676 7.54877 6.82588
#
# Compressibility (1/GPa) = 0.02467876
#
# Stress axis : x y z
#
# Youngs Moduli (GPa) = 35.46338 128.05880 115.28786
#
# Poissons Ratio (x) = 0.54557 0.30986
# Poissons Ratio (y) = 0.15108 0.35198
# Poissons Ratio (z) = 0.09532 0.39097
#
# Static dielectric constant tensor:
#      x y z
#    x 1.806320 0.000000 0.017790 
#    y 0.000000 1.703000 0.000000 
#    z 0.017790 0.000000 1.724380 
# 
# From -- ./inp_files/198297.got.cif
#   From: 2010.05.17/outbox.cif.g08.bks.cpg/sg15_100_cif.got.tgz:198297.got - 2010.06.03 18:47:42.
