data_PCOD9286892
_publ_section_title
;
Structure prediction by ZEFSAII (Michael W. Deem and Ramdas Pophale) SiO2 
 PCOD9286892
Probable space group: C 2/C
;
_chemical_formula_sum "Si O2"
_cell_formula_units_Z 36
_cell_length_a 23.680023
_cell_length_b 15.852654
_cell_length_c 5.699477
_cell_angle_alpha 90.000000
_cell_angle_beta 138.549019
_cell_angle_gamma 90.000000
_cell_volume 1416.326386
_symmetry_space_group_name_H-M "C 2/C"
_symmetry_group_IT_number 15
_symmetry_cell_setting 'monoclinic'
loop_
_space_group_symop_operation_xyz
x,y,z
-x,y,1/2-z
-x,-y,-z
x,-y,1/2+z
1/2+x,1/2+y,z
1/2-x,1/2+y,1/2-z
1/2-x,1/2-y,-z
1/2+x,1/2-y,1/2+z
loop_
_atom_site_type_symbol
_atom_site_label
_atom_site_fract_x
_atom_site_fract_y
_atom_site_fract_z
Si Si1 0.629610 0.018281 0.533339
Si Si2 0.588886 0.298957 0.953889
Si Si3 0.500000 0.316195 0.250000
Si Si4 0.839251 0.292348 0.222696
Si Si5 0.678957 0.458737 0.410547
O O1 0.587028 0.990459 0.645619
O O2 0.718202 0.965933 0.781957
O O3 0.655910 0.114954 0.660322
O O4 0.500000 0.257423 0.750000
O O5 0.544979 0.359297 0.609653
O O6 0.644029 0.226813 0.000565
O O7 0.645171 0.364043 0.272324
O O8 0.578822 0.256711 0.417643
O O9 0.750000 0.250000 0.000000
O O10 0.653009 0.490340 0.590984
#
# Coordination Sequence:
#
# PCOD9286892 Si02
#       5
#     8   8   4   8   8
#     4  10  22  41  66 103 136 177 240 283 350 418
#     4  10  23  41  66  98 137 180 229 290 345 423
#     4   8  24  40  64 100 132 170 242 278 348 396
#     4  10  21  44  73  96 139 189 234 293 341 425
#     4  10  22  38  62  97 142 177 227 277 354 423
#
# _framework density 25.417870000000001
#
# number of rings (size 3 to 8) (size 9 to 14) (size 15 to 20)
#    1.333    0.889    0.000    2.667    3.111    4.444 
#    0.000    7.778    0.000    0.000    0.000    0.000 
#    0.000    0.000    0.000    0.000    0.000    0.000 
#
# Total GULP energy -100242.756432 kJ/mol
# GULP energy per Si atom -5569.042024 kJ/mol
# Density = 2.536002 g / cm^3
# Si number density = 25.417870 Si / 1000 Ang^3
#
#
#
# Elastic Constant Matrix: (Units=GPa)
#
#
# Indices 1 2 3 4 5 6 
#
# 1 175.5035 56.5401 40.0554 0.0000 3.8656 0.0000
# 2 56.5401 68.4083 49.5766 0.0000 1.4249 0.0000
# 3 40.0554 49.5766 129.4461 0.0000 -9.7291 0.0000
# 4 0.0000 0.0000 0.0000 21.5692 0.0000 -14.3012
# 5 3.8656 1.4249 -9.7291 0.0000 54.8756 0.0000
# 6 0.0000 0.0000 0.0000 -14.3012 0.0000 19.1226
#
#
#
# Elastic Compliance Matrix: (Units=1/GPa)
#
#
# Indices 1 2 3 4 5 6 
#
# 1 0.007774 -0.006441 0.000033 0.000000 -0.000374 0.000000
# 2 -0.006441 0.025774 -0.008001 0.000000 -0.001634 0.000000
# 3 0.000033 -0.008001 0.010940 0.000000 0.002145 0.000000
# 4 0.000000 0.000000 0.000000 0.091964 0.000000 0.068777
# 5 -0.000374 -0.001634 0.002145 0.000000 0.018672 0.000000
# 6 0.000000 0.000000 0.000000 0.068777 0.000000 0.103730
#
#
# Mechanical properties :
#
#
# Convention : Reuss Voigt Hill
#
# Bulk Modulus (GPa) = 63.81390 73.96688 68.89039
# Shear Modulus (GPa) = 17.07090 34.25920 25.66505
#
# Velocity S-wave (km/s) = 2.59436 3.67528 3.18106
# Velocity P-wave (km/s) = 5.84249 6.86831 6.37606
#
# Compressibility (1/GPa) = 0.01567057
#
# Stress axis : x y z
#
# Youngs Moduli (GPa) = 128.63920 38.79805 91.40424
#
# Poissons Ratio (x) = 0.24991 -0.00305
# Poissons Ratio (y) = 0.82862 0.73132
# Poissons Ratio (z) = -0.00430 0.31042
#
# Static dielectric constant tensor:
#      x y z
#    x 2.234940 0.000000 -0.266660 
#    y 0.000000 1.897050 0.000000 
#    z -0.266660 0.000000 2.297450 
# 
# From -- ./inp_files/15391.got.cif
#   From: 2010.05.17/outbox.cif.g08.bks.cpg/sg15_8_cif.got.tgz:15391.got - 2010.06.03 18:47:42.
