data_PCOD9286169
_publ_section_title
;
Structure prediction by ZEFSAII (Michael W. Deem and Ramdas Pophale) SiO2 
 PCOD9286169
Probable space group: C 2/C
;
_chemical_formula_sum "Si O2"
_cell_formula_units_Z 52
_cell_length_a 19.087509
_cell_length_b 21.136503
_cell_length_c 8.360861
_cell_angle_alpha 90.000000
_cell_angle_beta 127.255361
_cell_angle_gamma 90.000000
_cell_volume 2684.829129
_symmetry_space_group_name_H-M "C 2/C"
_symmetry_group_IT_number 15
_symmetry_cell_setting 'monoclinic'
loop_
_space_group_symop_operation_xyz
x,y,z
-x,y,1/2-z
-x,-y,-z
x,-y,1/2+z
1/2+x,1/2+y,z
1/2-x,1/2+y,1/2-z
1/2-x,1/2-y,-z
1/2+x,1/2-y,1/2+z
loop_
_atom_site_type_symbol
_atom_site_label
_atom_site_fract_x
_atom_site_fract_y
_atom_site_fract_z
Si Si1 0.403390 0.082473 0.188412
Si Si2 0.940265 0.832627 0.820059
Si Si3 0.744567 0.405906 0.931044
Si Si4 0.500000 0.691236 0.750000
Si Si5 0.188199 0.497756 0.211208
Si Si6 0.333716 0.210161 0.674076
Si Si7 0.164248 0.715364 0.448504
O O1 0.500000 0.092210 0.250000
O O2 0.394502 0.032753 0.319923
O O3 0.362763 0.150606 0.175701
O O4 0.345402 0.049215 0.971230
O O5 0.847864 0.869954 0.686839
O O6 0.916048 0.757472 0.771183
O O7 0.000000 0.849680 0.750000
O O8 0.981274 0.843165 0.054128
O O9 0.755137 0.445434 0.784485
O O10 0.756811 0.456883 0.087955
O O11 0.824085 0.355322 0.065790
O O12 0.415817 0.735455 0.666446
O O13 0.250000 0.250000 0.500000
O O14 0.322823 0.197547 0.847442
O O15 0.250000 0.750000 0.500000
#
# Coordination Sequence:
#
# PCOD9286169 Si02
#       7
#     8   8   8   4   8   8   8
#     4  11  22  40  59  90 126 161 212 258 309 378
#     4  10  23  41  65  93 130 161 204 276 326 377
#     4  10  21  43  61  92 119 165 217 257 314 387
#     4  10  24  40  60 102 128 160 220 254 338 394
#     4  10  23  39  65  83 121 171 213 255 309 377
#     4   9  20  38  59  88 121 152 207 246 313 381
#     4  11  23  37  63  92 127 165 196 261 322 380
#
# _framework density 19.368086999999999
#
# number of rings (size 3 to 8) (size 9 to 14) (size 15 to 20)
#    0.000    1.846    2.308    0.462   10.769    0.000 
#    2.769    1.538    0.000    0.000    0.000    0.000 
#    0.000    0.000    0.000    0.000    0.000    0.000 
#
# Total GULP energy -144995.123255 kJ/mol
# GULP energy per Si atom -5576.735510 kJ/mol
# Density = 1.932400 g / cm^3
# Si number density = 19.368087 Si / 1000 Ang^3
#
#
#
# Elastic Constant Matrix: (Units=GPa)
#
#
# Indices 1 2 3 4 5 6 
#
# 1 96.3497 43.4706 21.3335 0.0000 14.4091 0.0000
# 2 43.4706 95.6129 18.7548 0.0000 0.9529 0.0000
# 3 21.3335 18.7548 61.9640 0.0000 -0.8841 0.0000
# 4 0.0000 0.0000 0.0000 92.0413 0.0000 -253.0104
# 5 14.4091 0.9529 -0.8841 0.0000 24.2129 0.0000
# 6 0.0000 0.0000 0.0000 -253.0104 0.0000 976.5246
#
#
#
# Elastic Compliance Matrix: (Units=1/GPa)
#
#
# Indices 1 2 3 4 5 6 
#
# 1 0.015286 -0.006169 -0.003524 0.000000 -0.008982 0.000000
# 2 -0.006169 0.013616 -0.001954 0.000000 0.003064 0.000000
# 3 -0.003524 -0.001954 0.017983 0.000000 0.002830 0.000000
# 4 0.000000 0.000000 0.000000 0.037753 0.000000 0.009781
# 5 -0.008982 0.003064 0.002830 0.000000 0.046629 0.000000
# 6 0.000000 0.000000 0.000000 0.009781 0.000000 0.003558
#
#
# Mechanical properties :
#
#
# Convention : Reuss Voigt Hill
#
# Bulk Modulus (GPa) = 42.38609 46.78269 44.58439
# Shear Modulus (GPa) = 30.12387 229.91361 130.01874
#
# Velocity S-wave (km/s) = 3.94805 10.90711 8.20220
# Velocity P-wave (km/s) = 6.53566 13.52136 10.61937
#
# Compressibility (1/GPa) = 0.02359265
#
# Stress axis : x y z
#
# Youngs Moduli (GPa) = 65.42086 73.44174 55.60726
#
# Poissons Ratio (x) = 0.45306 0.19594
# Poissons Ratio (y) = 0.40358 0.10864
# Poissons Ratio (z) = 0.23052 0.14348
#
# Static dielectric constant tensor:
#      x y z
#    x 1.681980 0.000000 -0.014200 
#    y 0.000000 1.707190 0.000000 
#    z -0.014200 0.000000 1.603710 
# 
# From -- ./inp_files/50702.got.cif
#   From: 2010.05.17/outbox.cif.g08.bks.cpg/sg15_26_cif.got.tgz:50702.got - 2010.06.03 18:47:42.
