data_PCOD9286905
_publ_section_title
;
Structure prediction by ZEFSAII (Michael W. Deem and Ramdas Pophale) SiO2 
 PCOD9286905
Probable space group: C 2/C
;
_chemical_formula_sum "Si O2"
_cell_formula_units_Z 32
_cell_length_a 5.631398
_cell_length_b 26.884386
_cell_length_c 8.095463
_cell_angle_alpha 90.000000
_cell_angle_beta 84.255489
_cell_angle_gamma 90.000000
_cell_volume 1219.471244
_symmetry_space_group_name_H-M "C 2/C"
_symmetry_group_IT_number 15
_symmetry_cell_setting 'monoclinic'
loop_
_space_group_symop_operation_xyz
x,y,z
-x,y,1/2-z
-x,-y,-z
x,-y,1/2+z
1/2+x,1/2+y,z
1/2-x,1/2+y,1/2-z
1/2-x,1/2-y,-z
1/2+x,1/2-y,1/2+z
loop_
_atom_site_type_symbol
_atom_site_label
_atom_site_fract_x
_atom_site_fract_y
_atom_site_fract_z
Si Si1 0.683203 0.522304 0.615249
Si Si2 0.238181 0.152817 0.838216
Si Si3 0.256506 0.262274 0.699487
Si Si4 0.599226 0.918841 0.905661
O O1 0.500000 0.547836 0.750000
O O2 0.500000 0.500000 0.500000
O O3 0.786106 0.469963 0.672523
O O4 0.890098 0.557867 0.536254
O O5 0.500000 0.139158 0.750000
O O6 0.250857 0.213155 0.820859
O O7 0.000000 0.144505 0.750000
O O8 0.236610 0.119322 0.003879
O O9 0.500000 0.287908 0.750000
O O10 0.250000 0.250000 0.500000
O O11 0.000000 0.286759 0.750000
O O12 0.500000 0.893209 0.750000
#
# Coordination Sequence:
#
# PCOD9286905 Si02
#       4
#     8   8   8   8
#     4  11  24  41  65  96 135 191 250 299 364 421
#     4  10  25  44  68 103 143 190 232 299 374 426
#     4  10  21  44  75 111 144 185 236 289 363 450
#     4  11  25  42  65 100 136 187 251 305 358 429
#
# _framework density 26.240881000000002
#
# number of rings (size 3 to 8) (size 9 to 14) (size 15 to 20)
#    0.000    1.500    2.500    0.750    7.000    0.000 
#    0.000   15.000    0.000    6.000    0.000    0.000 
#    0.000    0.000    0.000    0.000    0.000    0.000 
#
# Total GULP energy -89178.111880 kJ/mol
# GULP energy per Si atom -5573.631992 kJ/mol
# Density = 2.618116 g / cm^3
# Si number density = 26.240881 Si / 1000 Ang^3
#
#
#
# Elastic Constant Matrix: (Units=GPa)
#
#
# Indices 1 2 3 4 5 6 
#
# 1 201.7248 29.0008 47.6560 0.0000 19.6798 0.0000
# 2 29.0008 151.8402 37.0901 0.0000 8.8657 0.0000
# 3 47.6560 37.0901 97.7911 0.0000 21.8618 0.0000
# 4 0.0000 0.0000 0.0000 30.1193 0.0000 -8.3704
# 5 19.6798 8.8657 21.8618 0.0000 74.3874 0.0000
# 6 0.0000 0.0000 0.0000 -8.3704 0.0000 -17.4903
#
#
#
# Elastic Compliance Matrix: (Units=1/GPa)
#
#
# Indices 1 2 3 4 5 6 
#
# 1 0.005667 -0.000446 -0.002428 0.000000 -0.000732 0.000000
# 2 -0.000446 0.007294 -0.002548 0.000000 -0.000002 0.000000
# 3 -0.002428 -0.002548 0.013020 0.000000 -0.002880 0.000000
# 4 0.000000 0.000000 0.000000 0.029304 0.000000 -0.014024
# 5 -0.000732 -0.000002 -0.002880 0.000000 0.014484 0.000000
# 6 0.000000 0.000000 0.000000 -0.014024 0.000000 -0.050463
#
#
# Mechanical properties :
#
#
# Convention : Reuss Voigt Hill
#
# Bulk Modulus (GPa) = 66.07749 75.42778 70.75263
# Shear Modulus (GPa) = 142.06322 39.91054 90.98688
#
# Velocity S-wave (km/s) = 7.36584 3.90414 5.89483
# Velocity P-wave (km/s) = 9.87809 7.00927 8.56465
#
# Compressibility (1/GPa) = 0.01513375
#
# Stress axis : x y z
#
# Youngs Moduli (GPa) = 176.47394 137.10394 76.80643
#
# Poissons Ratio (x) = 0.06119 0.18652
# Poissons Ratio (y) = 0.07877 0.19573
# Poissons Ratio (z) = 0.42856 0.34939
#
# Static dielectric constant tensor:
#      x y z
#    x 2.076270 0.000000 -0.147050 
#    y 0.000000 2.103750 0.000000 
#    z -0.147050 0.000000 1.744100 
# 
# From -- ./inp_files/19947.got.cif
#   From: 2010.05.17/outbox.cif.g08.bks.cpg/sg15_10_cif.got.tgz:19947.got - 2010.06.03 18:47:42.
