data_PCOD9286703
_publ_section_title
;
Structure prediction by ZEFSAII (Michael W. Deem and Ramdas Pophale) SiO2 
 PCOD9286703
Probable space group: C 2/C
;
_chemical_formula_sum "Si O2"
_cell_formula_units_Z 52
_cell_length_a 22.349431
_cell_length_b 7.988979
_cell_length_c 20.763261
_cell_angle_alpha 90.000000
_cell_angle_beta 140.061602
_cell_angle_gamma 90.000000
_cell_volume 2379.927519
_symmetry_space_group_name_H-M "C 2/C"
_symmetry_group_IT_number 15
_symmetry_cell_setting 'monoclinic'
loop_
_space_group_symop_operation_xyz
x,y,z
-x,y,1/2-z
-x,-y,-z
x,-y,1/2+z
1/2+x,1/2+y,z
1/2-x,1/2+y,1/2-z
1/2-x,1/2-y,-z
1/2+x,1/2-y,1/2+z
loop_
_atom_site_type_symbol
_atom_site_label
_atom_site_fract_x
_atom_site_fract_y
_atom_site_fract_z
Si Si1 0.674504 0.157438 0.244939
Si Si2 0.358144 0.842767 0.554693
Si Si3 0.500000 0.635963 0.250000
Si Si4 0.943195 0.256742 0.973461
Si Si5 0.667967 0.606715 0.853460
Si Si6 0.979995 0.420825 0.339379
Si Si7 0.380997 0.396486 0.955895
O O1 0.632163 0.175969 0.139186
O O2 0.653427 0.327094 0.268933
O O3 0.784835 0.132742 0.338561
O O4 0.621754 0.000334 0.234541
O O5 0.335117 0.774760 0.605884
O O6 0.273826 0.952598 0.454876
O O7 0.369262 0.686012 0.515899
O O8 0.454103 0.939386 0.636614
O O9 0.409980 0.517011 0.184082
O O10 0.491028 0.757790 0.304340
O O11 0.903174 0.091984 0.975180
O O12 0.977325 0.384962 0.055118
O O13 0.033416 0.196277 0.007928
#
# Coordination Sequence:
#
# PCOD9286703 Si02
#       7
#     8   8   4   8   8   8   8
#     4  11  24  42  69  96 128 173 212 267 319 387
#     4  10  21  44  66  91 126 166 210 268 320 378
#     4  12  26  40  64  96 126 168 214 270 310 388
#     4  11  25  42  65  96 131 170 210 264 319 384
#     4  10  23  41  68  90 122 169 217 259 326 379
#     4  12  25  40  63  95 132 164 213 268 317 375
#     4  10  24  42  66  95 128 168 217 257 320 380
#
# _framework density 21.849405999999998
#
# number of rings (size 3 to 8) (size 9 to 14) (size 15 to 20)
#    0.000    1.231    1.538    3.231    6.462    3.077 
#    0.000    0.000    0.000    0.000    0.000    0.000 
#    0.000    0.000    0.000    0.000    0.000    0.000 
#
# Total GULP energy -145424.607578 kJ/mol
# GULP energy per Si atom -5593.254138 kJ/mol
# Density = 2.179968 g / cm^3
# Si number density = 21.849406 Si / 1000 Ang^3
#
#
#
# Elastic Constant Matrix: (Units=GPa)
#
#
# Indices 1 2 3 4 5 6 
#
# 1 32.4382 6.3883 8.3911 0.0000 8.9616 0.0000
# 2 6.3883 51.9621 16.6172 0.0000 3.5761 0.0000
# 3 8.3911 16.6172 100.4252 0.0000 -1.2551 0.0000
# 4 0.0000 0.0000 0.0000 24.3234 0.0000 -9.9901
# 5 8.9616 3.5761 -1.2551 0.0000 37.5679 0.0000
# 6 0.0000 0.0000 0.0000 -9.9901 0.0000 7.6796
#
#
#
# Elastic Compliance Matrix: (Units=1/GPa)
#
#
# Indices 1 2 3 4 5 6 
#
# 1 0.034239 -0.002865 -0.002486 0.000000 -0.007978 0.000000
# 2 -0.002865 0.020718 -0.003206 0.000000 -0.001396 0.000000
# 3 -0.002486 -0.003206 0.010712 0.000000 0.001256 0.000000
# 4 0.000000 0.000000 0.000000 0.088281 0.000000 0.114842
# 5 -0.007978 -0.001396 0.001256 0.000000 0.028696 0.000000
# 6 0.000000 0.000000 0.000000 0.114842 0.000000 0.279610
#
#
# Mechanical properties :
#
#
# Convention : Reuss Voigt Hill
#
# Bulk Modulus (GPa) = 20.59587 27.51319 24.05453
# Shear Modulus (GPa) = 10.08966 24.14276 17.11621
#
# Velocity S-wave (km/s) = 2.15124 3.32770 2.80191
# Velocity P-wave (km/s) = 3.95186 5.23300 4.63689
#
# Compressibility (1/GPa) = 0.04855343
#
# Stress axis : x y z
#
# Youngs Moduli (GPa) = 29.20615 48.26610 93.35617
#
# Poissons Ratio (x) = 0.13829 0.23213
# Poissons Ratio (y) = 0.08368 0.29933
# Poissons Ratio (z) = 0.07262 0.15476
#
# Static dielectric constant tensor:
#      x y z
#    x 1.809850 0.000000 0.004280 
#    y 0.000000 1.786530 0.000000 
#    z 0.004280 0.000000 1.804320 
# 
# From -- ./inp_files/255091.got.cif
#   From: 2010.05.17/outbox.cif.g08.bks.cpg/sg15_128_cif.got.tgz:255091.got - 2010.06.03 18:47:42.
