data_PCOD9286993
_publ_section_title
;
Structure prediction by ZEFSAII (Michael W. Deem and Ramdas Pophale) SiO2 
 PCOD9286993
Probable space group: C 2/C
;
_chemical_formula_sum "Si O2"
_cell_formula_units_Z 60
_cell_length_a 30.875069
_cell_length_b 10.976399
_cell_length_c 9.111852
_cell_angle_alpha 90.000000
_cell_angle_beta 75.572297
_cell_angle_gamma 90.000000
_cell_volume 2990.593774
_symmetry_space_group_name_H-M "C 2/C"
_symmetry_group_IT_number 15
_symmetry_cell_setting 'monoclinic'
loop_
_space_group_symop_operation_xyz
x,y,z
-x,y,1/2-z
-x,-y,-z
x,-y,1/2+z
1/2+x,1/2+y,z
1/2-x,1/2+y,1/2-z
1/2-x,1/2-y,-z
1/2+x,1/2-y,1/2+z
loop_
_atom_site_type_symbol
_atom_site_label
_atom_site_fract_x
_atom_site_fract_y
_atom_site_fract_z
Si Si1 0.323045 0.997898 0.193288
Si Si2 0.436890 0.727454 0.005255
Si Si3 0.884580 0.597474 0.381066
Si Si4 0.090700 0.004679 0.786281
Si Si5 0.500000 0.377139 0.250000
Si Si6 0.446460 0.134550 0.790548
Si Si7 0.618869 0.671509 0.016551
Si Si8 0.206801 0.330748 0.011266
O O1 0.357120 0.084169 0.254699
O O2 0.303912 0.907331 0.332148
O O3 0.287949 0.077791 0.131164
O O4 0.350924 0.929540 0.043606
O O5 0.419805 0.603577 0.090213
O O6 0.435037 0.827712 0.133415
O O7 0.407485 0.774961 0.895528
O O8 0.485902 0.704089 0.900231
O O9 0.922460 0.492355 0.347495
O O10 0.118300 0.939507 0.634380
O O11 0.042999 0.044533 0.758439
O O12 0.113218 0.111438 0.861902
O O13 0.500000 0.130006 0.750000
O O14 0.423337 0.240172 0.908645
O O15 0.663133 0.750343 0.009183
O O16 0.250000 0.250000 0.000000
#
# Coordination Sequence:
#
# PCOD9286993 Si02
#       8
#     8   8   8   8   4   8   8   8
#     4  10  21  45  70  97 136 169 214 267 350 399
#     4  11  24  37  56  91 126 178 234 274 325 393
#     4  11  21  42  64  95 131 184 216 274 336 400
#     4  11  24  41  60  90 126 177 223 281 323 395
#     4  12  24  38  60  88 134 182 238 270 338 378
#     4  11  23  38  63  92 138 177 226 277 330 393
#     4  11  23  43  64  93 133 174 223 278 343 392
#     4  11  25  46  75 102 133 174 215 282 346 410
#
# _framework density 20.062906000000002
#
# number of rings (size 3 to 8) (size 9 to 14) (size 15 to 20)
#    0.000    1.067    5.333    2.000    6.533    2.667 
#    0.000    2.667    0.000    0.000    0.000    0.000 
#    0.000    0.000    0.000    0.000    0.000    0.000 
#
# Total GULP energy -167622.090233 kJ/mol
# GULP energy per Si atom -5587.403008 kJ/mol
# Density = 2.001724 g / cm^3
# Si number density = 20.062906 Si / 1000 Ang^3
#
#
#
# Elastic Constant Matrix: (Units=GPa)
#
#
# Indices 1 2 3 4 5 6 
#
# 1 103.9379 52.7031 32.0827 0.0000 12.5422 0.0000
# 2 52.7031 76.1809 60.2129 0.0000 13.6471 0.0000
# 3 32.0827 60.2129 99.5566 0.0000 10.0882 0.0000
# 4 0.0000 0.0000 0.0000 41.2940 0.0000 18.2320
# 5 12.5422 13.6471 10.0882 0.0000 18.6509 0.0000
# 6 0.0000 0.0000 0.0000 18.2320 0.0000 99.5860
#
#
#
# Elastic Compliance Matrix: (Units=1/GPa)
#
#
# Indices 1 2 3 4 5 6 
#
# 1 0.015345 -0.012316 0.002789 0.000000 -0.002816 0.000000
# 2 -0.012316 0.037257 -0.017606 0.000000 -0.009456 0.000000
# 3 0.002789 -0.017606 0.019762 0.000000 0.000318 0.000000
# 4 0.000000 0.000000 0.000000 0.026346 0.000000 -0.004823
# 5 -0.002816 -0.009456 0.000318 0.000000 0.062258 0.000000
# 6 0.000000 0.000000 0.000000 -0.004823 0.000000 0.010925
#
#
# Mechanical properties :
#
#
# Convention : Reuss Voigt Hill
#
# Bulk Modulus (GPa) = 55.25575 63.29697 59.27636
# Shear Modulus (GPa) = 21.53403 40.88463 31.20933
#
# Velocity S-wave (km/s) = 3.27972 4.51912 3.94836
# Velocity P-wave (km/s) = 6.47635 7.67122 7.09897
#
# Compressibility (1/GPa) = 0.01809766
#
# Stress axis : x y z
#
# Youngs Moduli (GPa) = 65.16795 26.84074 50.60233
#
# Poissons Ratio (x) = 0.33057 -0.14114
# Poissons Ratio (y) = 0.80261 0.89092
# Poissons Ratio (z) = -0.18176 0.47256
#
# Static dielectric constant tensor:
#      x y z
#    x 1.679750 0.000000 0.023410 
#    y 0.000000 1.726170 0.000000 
#    z 0.023410 0.000000 1.729000 
# 
# From -- ./inp_files/69112.got.cif
#   From: 2010.05.17/outbox.cif.g08.bks.cpg/sg15_35_cif.got.tgz:69112.got - 2010.06.03 18:47:42.
