data_PCOD9286103
_publ_section_title
;
Structure prediction by ZEFSAII (Michael W. Deem and Ramdas Pophale) SiO2 
 PCOD9286103
Probable space group: C 2/C
;
_chemical_formula_sum "Si O2"
_cell_formula_units_Z 24
_cell_length_a 7.428155
_cell_length_b 17.093672
_cell_length_c 7.780071
_cell_angle_alpha 90.000000
_cell_angle_beta 70.571346
_cell_angle_gamma 90.000000
_cell_volume 931.617337
_symmetry_space_group_name_H-M "C 2/C"
_symmetry_group_IT_number 15
_symmetry_cell_setting 'monoclinic'
loop_
_space_group_symop_operation_xyz
x,y,z
-x,y,1/2-z
-x,-y,-z
x,-y,1/2+z
1/2+x,1/2+y,z
1/2-x,1/2+y,1/2-z
1/2-x,1/2-y,-z
1/2+x,1/2-y,1/2+z
loop_
_atom_site_type_symbol
_atom_site_label
_atom_site_fract_x
_atom_site_fract_y
_atom_site_fract_z
Si Si1 0.736026 0.663344 0.391765
Si Si2 0.417658 0.086647 0.022653
Si Si3 0.309147 0.309794 0.131956
O O1 0.761495 0.603511 0.222757
O O2 0.524755 0.661409 0.535958
O O3 0.775659 0.749655 0.299903
O O4 0.904213 0.638643 0.467485
O O5 0.321601 0.115836 0.876023
O O6 0.500000 0.000000 0.000000
O O7 0.250000 0.250000 0.000000
#
# Coordination Sequence:
#
# PCOD9286103 Si02
#       3
#     8   8   8
#     4  10  23  43  72 103 138 181 239 286 352 420
#     4  10  22  41  67  99 144 181 226 288 354 411
#     4  10  21  42  72 101 137 181 238 292 339 424
#
# _framework density 25.761648999999998
#
# number of rings (size 3 to 8) (size 9 to 14) (size 15 to 20)
#    0.000    2.000    0.000    4.000    0.000   16.000 
#   24.000    0.000    0.000    0.000    0.000    0.000 
#    0.000    0.000    0.000    0.000    0.000    0.000 
#
# Total GULP energy -67138.889220 kJ/mol
# GULP energy per Si atom -5594.907435 kJ/mol
# Density = 2.570301 g / cm^3
# Si number density = 25.761649 Si / 1000 Ang^3
#
#
#
# Elastic Constant Matrix: (Units=GPa)
#
#
# Indices 1 2 3 4 5 6 
#
# 1 204.8145 69.0326 84.6149 0.0000 -14.0189 0.0000
# 2 69.0326 204.5505 76.3987 0.0000 -9.4541 0.0000
# 3 84.6149 76.3987 127.3090 0.0000 -10.0534 0.0000
# 4 0.0000 0.0000 0.0000 34.8334 0.0000 2.6879
# 5 -14.0189 -9.4541 -10.0534 0.0000 63.1064 0.0000
# 6 0.0000 0.0000 0.0000 2.6879 0.0000 57.5367
#
#
#
# Elastic Compliance Matrix: (Units=1/GPa)
#
#
# Indices 1 2 3 4 5 6 
#
# 1 0.006863 -0.000773 -0.004037 0.000000 0.000766 0.000000
# 2 -0.000773 0.006396 -0.003304 0.000000 0.000260 0.000000
# 3 -0.004037 -0.003304 0.012569 0.000000 0.000611 0.000000
# 4 0.000000 0.000000 0.000000 0.028812 0.000000 -0.001346
# 5 0.000766 0.000260 0.000611 0.000000 0.016153 0.000000
# 6 0.000000 0.000000 0.000000 -0.001346 0.000000 0.017443
#
#
# Mechanical properties :
#
#
# Convention : Reuss Voigt Hill
#
# Bulk Modulus (GPa) = 104.16730 110.75184 107.45957
# Shear Modulus (GPa) = 46.44090 51.53715 48.98902
#
# Velocity S-wave (km/s) = 4.25044 4.47759 4.36549
# Velocity P-wave (km/s) = 8.03811 8.35560 8.19839
#
# Compressibility (1/GPa) = 0.00959994
#
# Stress axis : x y z
#
# Youngs Moduli (GPa) = 145.70142 156.35797 79.56015
#
# Poissons Ratio (x) = 0.12086 0.32121
# Poissons Ratio (y) = 0.11262 0.26285
# Poissons Ratio (z) = 0.58825 0.51657
#
# Static dielectric constant tensor:
#      x y z
#    x 2.044140 0.000000 0.004880 
#    y 0.000000 2.020960 0.000000 
#    z 0.004880 0.000000 2.419700 
# 
# From -- ./inp_files/21363.got.cif
#   From: 2010.05.17/outbox.cif.g08.bks.cpg/sg15_11_cif.got.tgz:21363.got - 2010.06.03 18:47:42.
