data_PCOD9286028
_publ_section_title
;
Structure prediction by ZEFSAII (Michael W. Deem and Ramdas Pophale) SiO2 
 PCOD9286028
Probable space group: C 2/C
;
_chemical_formula_sum "Si O2"
_cell_formula_units_Z 40
_cell_length_a 11.536543
_cell_length_b 13.922050
_cell_length_c 10.151926
_cell_angle_alpha 90.000000
_cell_angle_beta 105.401336
_cell_angle_gamma 90.000000
_cell_volume 1571.971054
_symmetry_space_group_name_H-M "C 2/C"
_symmetry_group_IT_number 15
_symmetry_cell_setting 'monoclinic'
loop_
_space_group_symop_operation_xyz
x,y,z
-x,y,1/2-z
-x,-y,-z
x,-y,1/2+z
1/2+x,1/2+y,z
1/2-x,1/2+y,1/2-z
1/2-x,1/2-y,-z
1/2+x,1/2-y,1/2+z
loop_
_atom_site_type_symbol
_atom_site_label
_atom_site_fract_x
_atom_site_fract_y
_atom_site_fract_z
Si Si1 0.832986 0.070226 0.537076
Si Si2 0.124437 0.536756 0.852252
Si Si3 0.507841 0.674268 0.412041
Si Si4 0.245039 0.128414 0.400730
Si Si5 0.790104 0.293655 0.311423
O O1 0.949499 0.093063 0.485852
O O2 0.802309 0.163192 0.613362
O O3 0.721476 0.046304 0.405940
O O4 0.826881 0.975219 0.628230
O O5 0.176978 0.617709 0.772310
O O6 0.000000 0.506297 0.750000
O O7 0.131260 0.591947 0.995940
O O8 0.500000 0.663401 0.250000
O O9 0.650508 0.681168 0.472891
O O10 0.418673 0.762604 0.410701
O O11 0.253328 0.199451 0.280903
#
# Coordination Sequence:
#
# PCOD9286028 Si02
#       5
#     8   8   8   8   8
#     4  10  24  40  70 112 148 189 252 309 375 445
#     4  10  23  42  65 102 149 200 239 296 373 453
#     4  10  21  42  70 102 149 192 244 309 372 439
#     4   9  22  41  72 103 146 198 243 304 374 446
#     4  11  22  41  69 106 148 188 246 308 373 447
#
# _framework density 25.445762999999999
#
# number of rings (size 3 to 8) (size 9 to 14) (size 15 to 20)
#    1.200    0.800    0.000    3.600    5.600    0.800 
#    0.000    3.000    0.000    2.400    0.000    0.000 
#    0.000    0.000    0.000    0.000    0.000    0.000 
#
# Total GULP energy -111478.899939 kJ/mol
# GULP energy per Si atom -5573.944997 kJ/mol
# Density = 2.538785 g / cm^3
# Si number density = 25.445763 Si / 1000 Ang^3
#
#
#
# Elastic Constant Matrix: (Units=GPa)
#
#
# Indices 1 2 3 4 5 6 
#
# 1 85.4559 30.8582 45.2083 0.0000 2.4423 0.0000
# 2 30.8582 80.2653 76.3688 0.0000 -38.1365 0.0000
# 3 45.2083 76.3688 33.6424 0.0000 -19.1970 0.0000
# 4 0.0000 0.0000 0.0000 49.5077 0.0000 -4.9660
# 5 2.4423 -38.1365 -19.1970 0.0000 44.2394 0.0000
# 6 0.0000 0.0000 0.0000 -4.9660 0.0000 31.9307
#
#
#
# Elastic Compliance Matrix: (Units=1/GPa)
#
#
# Indices 1 2 3 4 5 6 
#
# 1 0.015917 -0.012936 0.001477 0.000000 -0.011390 0.000000
# 2 -0.012936 -0.000127 0.023946 0.000000 0.010996 0.000000
# 3 0.001477 0.023946 -0.019784 0.000000 0.011976 0.000000
# 4 0.000000 0.000000 0.000000 0.020519 0.000000 0.003191
# 5 -0.011390 0.010996 0.011976 0.000000 0.037909 0.000000
# 6 0.000000 0.000000 0.000000 0.003191 0.000000 0.031814
#
#
# Mechanical properties :
#
#
# Convention : Reuss Voigt Hill
#
# Bulk Modulus (GPa) = 47.66527 56.02601 51.84564
# Shear Modulus (GPa) = 73.23912 28.26411 50.75161
#
# Velocity S-wave (km/s) = 5.37075 3.33642 4.47083
# Velocity P-wave (km/s) = 7.56523 6.07519 6.86078
#
# Compressibility (1/GPa) = 0.02097963
#
# Stress axis : x y z
#
# Youngs Moduli (GPa) = 62.82425 -7897.78754 -50.54647
#
# Poissons Ratio (x) = -102.16889 0.07466
# Poissons Ratio (y) = 0.81272 1.21037
# Poissons Ratio (z) = -0.09279 189.11780
#
# Static dielectric constant tensor:
#      x y z
#    x 2.039930 0.000000 0.083210 
#    y 0.000000 2.084520 0.000000 
#    z 0.083210 0.000000 2.147750 
# 
# From -- ./inp_files/85655.got.cif
#   From: 2010.05.17/outbox.cif.g08.bks.cpg/sg15_43_cif.got.tgz:85655.got - 2010.06.03 18:47:42.
