data_PCOD9286510
_publ_section_title
;
Structure prediction by ZEFSAII (Michael W. Deem and Ramdas Pophale) SiO2 
 PCOD9286510
Probable space group: C 2/C
;
_chemical_formula_sum "Si O2"
_cell_formula_units_Z 64
_cell_length_a 10.415139
_cell_length_b 16.395660
_cell_length_c 23.792599
_cell_angle_alpha 90.000000
_cell_angle_beta 46.479247
_cell_angle_gamma 90.000000
_cell_volume 2946.108486
_symmetry_space_group_name_H-M "C 2/C"
_symmetry_group_IT_number 15
_symmetry_cell_setting 'monoclinic'
loop_
_space_group_symop_operation_xyz
x,y,z
-x,y,1/2-z
-x,-y,-z
x,-y,1/2+z
1/2+x,1/2+y,z
1/2-x,1/2+y,1/2-z
1/2-x,1/2-y,-z
1/2+x,1/2-y,1/2+z
loop_
_atom_site_type_symbol
_atom_site_label
_atom_site_fract_x
_atom_site_fract_y
_atom_site_fract_z
Si Si1 0.359309 0.417813 0.925283
Si Si2 0.496531 0.560158 0.552877
Si Si3 0.450960 0.892100 0.047782
Si Si4 0.315881 0.525728 0.321707
Si Si5 0.838657 0.664883 0.458847
Si Si6 0.308137 0.177227 0.204501
Si Si7 0.952270 0.241240 0.125823
Si Si8 0.834067 0.318553 0.335662
O O1 0.465747 0.499957 0.906331
O O2 0.363235 0.410427 0.856939
O O3 0.447315 0.338980 0.926411
O O4 0.151175 0.419523 0.001830
O O5 0.500000 0.500000 0.500000
O O6 0.673394 0.611266 0.492206
O O7 0.323656 0.616479 0.609592
O O8 0.412795 0.806868 0.090206
O O9 0.320739 0.961044 0.111504
O O10 0.427933 0.875148 0.988015
O O11 0.500000 0.483642 0.250000
O O12 0.246388 0.584114 0.293387
O O13 0.750000 0.750000 0.500000
O O14 0.981825 0.676891 0.366958
O O15 0.238338 0.241814 0.178594
O O16 0.218560 0.209128 0.288452
O O17 0.083907 0.285325 0.130948
O O18 0.000000 0.353494 0.250000
#
# Coordination Sequence:
#
# PCOD9286510 Si02
#       8
#     8   8   8   8   8   8   8   8
#     4  12  23  44  70 103 138 180 237 284 338 417
#     4  12  27  44  66 102 138 181 232 285 350 411
#     4  12  26  42  72 106 139 181 238 292 347 412
#     4  12  22  41  69 100 136 180 230 287 340 403
#     4  12  25  43  71  96 142 185 228 290 352 416
#     4  11  21  44  71 100 136 182 229 275 359 413
#     4  11  24  43  74 103 136 182 234 283 341 424
#     4  10  21  43  70  94 135 184 225 277 348 416
#
# _framework density 21.723571
#
# number of rings (size 3 to 8) (size 9 to 14) (size 15 to 20)
#    0.000    0.500    6.250    2.625    1.750    3.000 
#    2.250    0.000    0.000    0.000    0.000    0.000 
#    0.000    0.000    0.000    0.000    0.000    0.000 
#
# Total GULP energy -178941.268758 kJ/mol
# GULP energy per Si atom -5591.914649 kJ/mol
# Density = 2.167413 g / cm^3
# Si number density = 21.723571 Si / 1000 Ang^3
#
#
#
# Elastic Constant Matrix: (Units=GPa)
#
#
# Indices 1 2 3 4 5 6 
#
# 1 51.6507 37.4471 37.9051 -0.0002 -19.8318 0.0003
# 2 37.4471 114.5688 53.9677 -0.0004 -29.2957 0.0002
# 3 37.9051 53.9677 133.2333 -0.0007 -39.7784 0.0004
# 4 -0.0002 -0.0004 -0.0007 36.8464 0.0002 6.2555
# 5 -19.8318 -29.2957 -39.7784 0.0002 30.7973 -0.0002
# 6 0.0003 0.0002 0.0004 6.2555 -0.0002 29.6584
#
#
#
# Elastic Compliance Matrix: (Units=1/GPa)
#
#
# Indices 1 2 3 4 5 6 
#
# 1 0.029492 -0.005706 -0.003304 0.000000 0.009296 0.000000
# 2 -0.005706 0.013077 -0.001720 0.000000 0.006543 0.000000
# 3 -0.003304 -0.001720 0.013052 0.000000 0.013094 0.000000
# 4 0.000000 0.000000 0.000000 0.028148 0.000000 -0.005937
# 5 0.009296 0.006543 0.013094 0.000000 0.061594 0.000000
# 6 0.000000 0.000000 0.000000 -0.005937 0.000000 0.034969
#
#
# Mechanical properties :
#
#
# Convention : Reuss Voigt Hill
#
# Bulk Modulus (GPa) = 29.27351 62.01029 45.64190
# Shear Modulus (GPa) = 23.45468 30.80262 27.12865
#
# Velocity S-wave (km/s) = 3.28943 3.76963 3.53769
# Velocity P-wave (km/s) = 5.28506 6.89594 6.14352
#
# Compressibility (1/GPa) = 0.03416058
#
# Stress axis : x y z
#
# Youngs Moduli (GPa) = 33.90795 76.47150 76.61859
#
# Poissons Ratio (x) = 0.43636 0.25312
# Poissons Ratio (y) = 0.19349 0.13178
# Poissons Ratio (z) = 0.11202 0.13152
#
# Static dielectric constant tensor:
#      x y z
#    x 1.909750 0.000000 0.046330 
#    y 0.000000 1.790500 0.000000 
#    z 0.046330 0.000000 1.813210 
# 
# From -- ./inp_files/293046.got.cif
#   From: 2010.05.17/outbox.cif.g08.bks.cpg/sg15_147_cif.got.tgz:293046.got - 2010.06.03 18:47:42.
