data_PCOD9286646
_publ_section_title
;
Structure prediction by ZEFSAII (Michael W. Deem and Ramdas Pophale) SiO2 
 PCOD9286646
Probable space group: C 2/C
;
_chemical_formula_sum "Si O2"
_cell_formula_units_Z 40
_cell_length_a 17.682733
_cell_length_b 11.346208
_cell_length_c 9.177621
_cell_angle_alpha 90.000000
_cell_angle_beta 102.283273
_cell_angle_gamma 90.000000
_cell_volume 1799.172052
_symmetry_space_group_name_H-M "C 2/C"
_symmetry_group_IT_number 15
_symmetry_cell_setting 'monoclinic'
loop_
_space_group_symop_operation_xyz
x,y,z
-x,y,1/2-z
-x,-y,-z
x,-y,1/2+z
1/2+x,1/2+y,z
1/2-x,1/2+y,1/2-z
1/2-x,1/2-y,-z
1/2+x,1/2-y,1/2+z
loop_
_atom_site_type_symbol
_atom_site_label
_atom_site_fract_x
_atom_site_fract_y
_atom_site_fract_z
Si Si1 0.884509 0.919134 0.704989
Si Si2 0.500000 0.169763 0.250000
Si Si3 0.077638 0.473111 0.437923
Si Si4 0.000000 0.261399 0.250000
Si Si5 0.718702 0.164431 0.116856
Si Si6 0.903797 0.843849 0.373880
O O1 0.796148 0.892648 0.710760
O O2 0.897079 0.894009 0.536435
O O3 0.941816 0.827199 0.806665
O O4 0.905961 0.048685 0.763835
O O5 0.474280 0.255203 0.369717
O O6 0.570712 0.083227 0.325298
O O7 0.159181 0.440601 0.545098
O O8 0.000000 0.500000 0.500000
O O9 0.057911 0.350957 0.351127
O O10 0.669812 0.259542 0.186858
O O11 0.750000 0.250000 0.000000
#
# Coordination Sequence:
#
# PCOD9286646 Si02
#       6
#     8   4   8   4   8   8
#     4  11  25  43  70  96 144 182 229 289 358 416
#     4  11  23  38  70 100 137 177 242 284 344 421
#     4  11  21  39  66  97 132 181 231 288 347 413
#     4  11  21  38  64  96 127 183 222 278 352 413
#     4  10  21  44  63  95 142 178 230 289 352 414
#     4  11  24  44  65 102 137 182 228 292 344 425
#
# _framework density 22.232448999999999
#
# number of rings (size 3 to 8) (size 9 to 14) (size 15 to 20)
#    0.000    1.200    6.000    0.600    0.000    9.600 
#    0.000    2.000    0.000    0.000    0.000    0.000 
#    0.000    0.000    0.000    0.000    0.000    0.000 
#
# Total GULP energy -111470.026982 kJ/mol
# GULP energy per Si atom -5573.501349 kJ/mol
# Density = 2.218185 g / cm^3
# Si number density = 22.232449 Si / 1000 Ang^3
#
#
#
# Elastic Constant Matrix: (Units=GPa)
#
#
# Indices 1 2 3 4 5 6 
#
# 1 123.7075 64.2059 29.8827 0.0000 22.9981 0.0000
# 2 64.2059 193.2839 46.6648 0.0000 3.3769 0.0000
# 3 29.8827 46.6648 55.4480 0.0000 -2.6229 0.0000
# 4 0.0000 0.0000 0.0000 38.9624 0.0000 -6.1377
# 5 22.9981 3.3769 -2.6229 0.0000 37.7858 0.0000
# 6 0.0000 0.0000 0.0000 -6.1377 0.0000 43.6927
#
#
#
# Elastic Compliance Matrix: (Units=1/GPa)
#
#
# Indices 1 2 3 4 5 6 
#
# 1 0.011964 -0.002768 -0.004466 0.000000 -0.007345 0.000000
# 2 -0.002768 0.007168 -0.004507 0.000000 0.000731 0.000000
# 3 -0.004466 -0.004507 0.024463 0.000000 0.004819 0.000000
# 4 0.000000 0.000000 0.000000 0.026247 0.000000 0.003687
# 5 -0.007345 0.000731 0.004819 0.000000 0.031204 0.000000
# 6 0.000000 0.000000 0.000000 0.003687 0.000000 0.023405
#
#
# Mechanical properties :
#
#
# Convention : Reuss Voigt Hill
#
# Bulk Modulus (GPa) = 49.71581 72.66070 61.18826
# Shear Modulus (GPa) = 32.33371 39.53392 35.93381
#
# Velocity S-wave (km/s) = 3.81773 4.22145 4.02466
# Velocity P-wave (km/s) = 6.46868 7.51759 7.01277
#
# Compressibility (1/GPa) = 0.02011432
#
# Stress axis : x y z
#
# Youngs Moduli (GPa) = 83.58149 139.50036 40.87871
#
# Poissons Ratio (x) = 0.38611 0.18257
# Poissons Ratio (y) = 0.23134 0.18423
# Poissons Ratio (z) = 0.37328 0.62868
#
# Static dielectric constant tensor:
#      x y z
#    x 1.869030 0.000000 -0.028640 
#    y 0.000000 1.792390 0.000000 
#    z -0.028640 0.000000 1.978450 
# 
# From -- ./inp_files/102737.got.cif
#   From: 2010.05.17/outbox.cif.g08.bks.cpg/sg15_52_cif.got.tgz:102737.got - 2010.06.03 18:47:42.
