data_PCOD9286717
_publ_section_title
;
Structure prediction by ZEFSAII (Michael W. Deem and Ramdas Pophale) SiO2 
 PCOD9286717
Probable space group: C 2/C
;
_chemical_formula_sum "Si O2"
_cell_formula_units_Z 48
_cell_length_a 5.148310
_cell_length_b 29.621089
_cell_length_c 14.584206
_cell_angle_alpha 90.000000
_cell_angle_beta 63.933456
_cell_angle_gamma 90.000000
_cell_volume 1997.847411
_symmetry_space_group_name_H-M "C 2/C"
_symmetry_group_IT_number 15
_symmetry_cell_setting 'monoclinic'
loop_
_space_group_symop_operation_xyz
x,y,z
-x,y,1/2-z
-x,-y,-z
x,-y,1/2+z
1/2+x,1/2+y,z
1/2-x,1/2+y,1/2-z
1/2-x,1/2-y,-z
1/2+x,1/2-y,1/2+z
loop_
_atom_site_type_symbol
_atom_site_label
_atom_site_fract_x
_atom_site_fract_y
_atom_site_fract_z
Si Si1 0.224001 0.785583 0.920626
Si Si2 0.163545 0.490375 0.068056
Si Si3 0.000000 0.223005 0.750000
Si Si4 0.000000 0.560179 0.250000
Si Si5 0.128288 0.841376 0.397606
Si Si6 0.053152 0.393022 0.431786
Si Si7 0.219501 0.638018 0.337599
O O1 0.244606 0.754921 0.828184
O O2 0.475561 0.823113 0.874196
O O3 0.250000 0.750000 0.000000
O O4 0.955648 0.815388 0.994661
O O5 0.036375 0.440168 0.102383
O O6 0.095943 0.526331 0.156462
O O7 0.500000 0.500000 0.000000
O O8 0.000000 0.500000 0.000000
O O9 0.100960 0.192765 0.818670
O O10 0.797555 0.596284 0.231378
O O11 0.879609 0.880180 0.414508
O O12 0.446048 0.858551 0.370937
O O13 0.846354 0.386035 0.553647
O O14 0.500000 0.661455 0.250000
#
# Coordination Sequence:
#
# PCOD9286717 Si02
#       7
#     8   8   4   4   8   8   8
#     4   9  21  43  66 101 137 179 231 298 357 417
#     4  12  26  46  71 106 148 185 240 304 360 428
#     4  10  21  44  66  96 142 176 242 280 355 424
#     4  12  27  44  74 108 144 194 244 296 375 434
#     4  10  24  44  69  99 136 189 229 288 354 428
#     4  11  24  46  69  97 146 182 235 292 358 413
#     4  11  24  41  74 104 140 188 244 295 364 434
#
# _framework density 24.025859000000001
#
# number of rings (size 3 to 8) (size 9 to 14) (size 15 to 20)
#    0.000    1.333    1.667    2.500    9.333    2.000 
#    6.000    7.500    0.000    0.000    0.000    0.000 
#    0.000    0.000    0.000    0.000    0.000    0.000 
#
# Total GULP energy -133821.948613 kJ/mol
# GULP energy per Si atom -5575.914526 kJ/mol
# Density = 2.397118 g / cm^3
# Si number density = 24.025859 Si / 1000 Ang^3
#
#
#
# Elastic Constant Matrix: (Units=GPa)
#
#
# Indices 1 2 3 4 5 6 
#
# 1 86.0972 18.9698 22.2048 0.0000 8.4765 0.0000
# 2 18.9698 121.2149 29.1783 0.0000 -0.7128 0.0000
# 3 22.2048 29.1783 100.7437 0.0000 8.7685 0.0000
# 4 0.0000 0.0000 0.0000 37.5652 0.0000 20.1059
# 5 8.4765 -0.7128 8.7685 0.0000 24.2609 0.0000
# 6 0.0000 0.0000 0.0000 20.1059 0.0000 13.4477
#
#
#
# Elastic Compliance Matrix: (Units=1/GPa)
#
#
# Indices 1 2 3 4 5 6 
#
# 1 0.012858 -0.001539 -0.002058 0.000000 -0.003794 0.000000
# 2 -0.001539 0.009088 -0.002440 0.000000 0.001687 0.000000
# 3 -0.002058 -0.002440 0.011388 0.000000 -0.003469 0.000000
# 4 0.000000 0.000000 0.000000 0.133252 0.000000 -0.199227
# 5 -0.003794 0.001687 -0.003469 0.000000 0.043847 0.000000
# 6 0.000000 0.000000 0.000000 -0.199227 0.000000 0.372229
#
#
# Mechanical properties :
#
#
# Convention : Reuss Voigt Hill
#
# Bulk Modulus (GPa) = 47.03539 49.86238 48.44889
# Shear Modulus (GPa) = 8.30808 30.90161 19.60485
#
# Velocity S-wave (km/s) = 1.86158 3.59023 2.85965
# Velocity P-wave (km/s) = 4.92343 6.16320 5.57786
#
# Compressibility (1/GPa) = 0.02126059
#
# Stress axis : x y z
#
# Youngs Moduli (GPa) = 77.77135 110.03686 87.80949
#
# Poissons Ratio (x) = 0.16937 0.18072
# Poissons Ratio (y) = 0.11970 0.21422
# Poissons Ratio (z) = 0.16006 0.26845
#
# Static dielectric constant tensor:
#      x y z
#    x 4.119510 0.000000 -1.379480 
#    y 0.000000 2.003240 0.000000 
#    z -1.379480 0.000000 2.751820 
# 
# From -- ./inp_files/130627.got.cif
#   From: 2010.05.17/outbox.cif.g08.bks.cpg/sg15_66_cif.got.tgz:130627.got - 2010.06.03 18:47:42.
