data_PCOD9286700
_publ_section_title
;
Structure prediction by ZEFSAII (Michael W. Deem and Ramdas Pophale) SiO2 
 PCOD9286700
Probable space group: C 2/C
;
_chemical_formula_sum "Si O2"
_cell_formula_units_Z 52
_cell_length_a 20.893869
_cell_length_b 7.571952
_cell_length_c 22.560875
_cell_angle_alpha 90.000000
_cell_angle_beta 140.443507
_cell_angle_gamma 90.000000
_cell_volume 2273.066401
_symmetry_space_group_name_H-M "C 2/C"
_symmetry_group_IT_number 15
_symmetry_cell_setting 'monoclinic'
loop_
_space_group_symop_operation_xyz
x,y,z
-x,y,1/2-z
-x,-y,-z
x,-y,1/2+z
1/2+x,1/2+y,z
1/2-x,1/2+y,1/2-z
1/2-x,1/2-y,-z
1/2+x,1/2-y,1/2+z
loop_
_atom_site_type_symbol
_atom_site_label
_atom_site_fract_x
_atom_site_fract_y
_atom_site_fract_z
Si Si1 0.675558 0.798142 0.894476
Si Si2 0.306486 0.630524 0.717010
Si Si3 0.021815 0.161436 0.867552
Si Si4 0.000000 0.875512 0.750000
Si Si5 0.284692 0.198882 0.591012
Si Si6 0.405212 0.606772 0.985906
Si Si7 0.367237 0.361296 0.850889
O O1 0.690361 0.657790 0.851988
O O2 0.572399 0.797097 0.858313
O O3 0.699121 0.990364 0.888101
O O4 0.750000 0.750000 0.000000
O O5 0.412666 0.725350 0.809896
O O6 0.322372 0.438227 0.757592
O O7 0.208857 0.722303 0.674734
O O8 0.009257 0.994665 0.814887
O O9 0.082896 0.073017 0.965016
O O10 0.105402 0.775931 0.819858
O O11 0.250000 0.250000 0.500000
O O12 0.184225 0.233842 0.557259
O O13 0.515642 0.695037 0.070016
O O14 0.377496 0.529956 0.902158
#
# Coordination Sequence:
#
# PCOD9286700 Si02
#       7
#     8   8   8   4   8   8   8
#     4  12  22  42  72  99 136 179 230 285 361 417
#     4  11  23  42  67  98 131 178 240 281 332 424
#     4  11  22  43  70  99 134 183 227 289 364 407
#     4  12  24  38  66 108 140 174 220 286 372 404
#     4  12  25  41  66 109 139 175 224 297 354 409
#     4  10  21  44  66  89 138 180 223 280 345 409
#     4  10  23  43  68  90 131 190 230 281 340 403
#
# _framework density 22.876587000000001
#
# number of rings (size 3 to 8) (size 9 to 14) (size 15 to 20)
#    0.000    0.923    6.154    0.000    2.154    2.462 
#    2.769    0.000    0.000    4.615    0.000    0.000 
#    0.000    0.000    0.000    0.000    0.000    0.000 
#
# Total GULP energy -145080.249429 kJ/mol
# GULP energy per Si atom -5580.009593 kJ/mol
# Density = 2.282452 g / cm^3
# Si number density = 22.876587 Si / 1000 Ang^3
#
#
#
# Elastic Constant Matrix: (Units=GPa)
#
#
# Indices 1 2 3 4 5 6 
#
# 1 140.1863 14.7249 48.6384 0.0000 33.6068 0.0000
# 2 14.7249 23.1786 25.8946 0.0000 13.6654 -0.0001
# 3 48.6384 25.8946 109.2149 0.0000 11.8858 0.0000
# 4 0.0000 0.0000 0.0000 27.7854 0.0000 6.9682
# 5 33.6068 13.6654 11.8858 0.0000 72.5121 0.0000
# 6 0.0000 -0.0001 0.0000 6.9682 0.0000 38.6547
#
#
#
# Elastic Compliance Matrix: (Units=1/GPa)
#
#
# Indices 1 2 3 4 5 6 
#
# 1 0.009329 0.000679 -0.003901 0.000000 -0.003812 0.000000
# 2 0.000679 0.065040 -0.014616 0.000000 -0.010176 0.000000
# 3 -0.003901 -0.014616 0.014114 0.000000 0.002249 0.000000
# 4 0.000000 0.000000 0.000000 0.037694 0.000000 -0.006795
# 5 -0.003812 -0.010176 0.002249 0.000000 0.017107 0.000000
# 6 0.000000 0.000000 0.000000 -0.006795 0.000000 0.027095
#
#
# Mechanical properties :
#
#
# Convention : Reuss Voigt Hill
#
# Bulk Modulus (GPa) = 18.93658 50.12174 34.52916
# Shear Modulus (GPa) = 22.35565 40.01190 31.18378
#
# Velocity S-wave (km/s) = 3.12946 4.18668 3.69607
# Velocity P-wave (km/s) = 4.62100 6.73263 5.77416
#
# Compressibility (1/GPa) = 0.05280784
#
# Stress axis : x y z
#
# Youngs Moduli (GPa) = 107.18767 15.37524 70.85119
#
# Poissons Ratio (x) = -0.01044 0.27638
# Poissons Ratio (y) = -0.07276 1.03553
# Poissons Ratio (z) = 0.41813 0.22472
#
# Static dielectric constant tensor:
#      x y z
#    x 1.882790 0.000000 -0.215810 
#    y 0.000000 1.812100 0.000000 
#    z -0.215810 0.000000 1.651430 
# 
# From -- ./inp_files/279620.got.cif
#   From: 2010.05.17/outbox.cif.g08.bks.cpg/sg15_140_cif.got.tgz:279620.got - 2010.06.03 18:47:42.
