data_PCOD9286537
_publ_section_title
;
Structure prediction by ZEFSAII (Michael W. Deem and Ramdas Pophale) SiO2 
 PCOD9286537
Probable space group: C 2/C
;
_chemical_formula_sum "Si O2"
_cell_formula_units_Z 48
_cell_length_a 21.845405
_cell_length_b 10.613975
_cell_length_c 12.980270
_cell_angle_alpha 90.000000
_cell_angle_beta 135.432907
_cell_angle_gamma 90.000000
_cell_volume 2112.032479
_symmetry_space_group_name_H-M "C 2/C"
_symmetry_group_IT_number 15
_symmetry_cell_setting 'monoclinic'
loop_
_space_group_symop_operation_xyz
x,y,z
-x,y,1/2-z
-x,-y,-z
x,-y,1/2+z
1/2+x,1/2+y,z
1/2-x,1/2+y,1/2-z
1/2-x,1/2-y,-z
1/2+x,1/2-y,1/2+z
loop_
_atom_site_type_symbol
_atom_site_label
_atom_site_fract_x
_atom_site_fract_y
_atom_site_fract_z
Si Si1 0.000000 0.130302 0.250000
Si Si2 0.206690 0.175466 0.170555
Si Si3 0.735382 0.899536 0.965456
Si Si4 0.919992 0.632122 0.097161
Si Si5 0.613586 0.500368 0.714261
Si Si6 0.000000 0.500000 0.000000
Si Si7 0.096937 0.757270 0.053391
O O1 0.063723 0.213513 0.398139
O O2 0.048280 0.043900 0.224134
O O3 0.236976 0.076012 0.118477
O O4 0.299048 0.227902 0.321729
O O5 0.143966 0.111987 0.177346
O O6 0.147068 0.280130 0.044562
O O7 0.637223 0.930014 0.879538
O O8 0.750000 0.750000 0.000000
O O9 0.799075 0.963321 0.120867
O O10 0.000000 0.700993 0.250000
O O11 0.956023 0.534393 0.058773
O O12 0.584401 0.618424 0.610099
O O13 0.957567 0.355034 0.959307
#
# Coordination Sequence:
#
# PCOD9286537 Si02
#       7
#     4   8   8   8   8   4   8
#     4  12  30  50  76 120 154 208 266 330 400 468
#     4  11  25  50  78 110 154 203 261 326 398 467
#     4  10  21  43  71 107 139 195 254 304 383 456
#     4  11  24  45  76 112 149 199 261 319 386 472
#     4  12  25  50  78 110 159 205 261 326 397 476
#     4  12  28  46  76 108 164 204 256 326 386 470
#     4  12  27  52  74 115 160 208 268 322 398 468
#
# _framework density 22.726922999999999
#
# number of rings (size 3 to 8) (size 9 to 14) (size 15 to 20)
#    0.000    0.667    3.333    4.500    3.500    3.333 
#    7.500    0.000    0.000    0.000    0.000    0.000 
#    0.000    0.000    0.000    0.000    0.000    0.000 
#
# Total GULP energy -133740.102793 kJ/mol
# GULP energy per Si atom -5572.504283 kJ/mol
# Density = 2.267520 g / cm^3
# Si number density = 22.726923 Si / 1000 Ang^3
#
#
#
# Elastic Constant Matrix: (Units=GPa)
#
#
# Indices 1 2 3 4 5 6 
#
# 1 180.3238 34.7804 30.9162 0.0000 -4.8907 0.0000
# 2 34.7804 63.5857 34.2631 0.0000 0.9804 0.0000
# 3 30.9162 34.2631 157.1228 0.0000 -2.7738 0.0000
# 4 0.0000 0.0000 0.0000 -0.0532 0.0000 6.0610
# 5 -4.8907 0.9804 -2.7738 0.0000 34.2717 0.0000
# 6 0.0000 0.0000 0.0000 6.0610 0.0000 30.5824
#
#
#
# Elastic Compliance Matrix: (Units=1/GPa)
#
#
# Indices 1 2 3 4 5 6 
#
# 1 0.006271 -0.003160 -0.000528 0.000000 0.000943 0.000000
# 2 -0.003160 0.019437 -0.003640 0.000000 -0.001302 0.000000
# 3 -0.000528 -0.003640 0.007273 0.000000 0.000617 0.000000
# 4 0.000000 0.000000 0.000000 -0.797178 0.000000 0.157988
# 5 0.000943 -0.001302 0.000617 0.000000 0.029400 0.000000
# 6 0.000000 0.000000 0.000000 0.157988 0.000000 0.001388
#
#
# Mechanical properties :
#
#
# Convention : Reuss Voigt Hill
#
# Bulk Modulus (GPa) = 54.57077 66.77243 60.67160
# Shear Modulus (GPa) = -7.01612 33.03168 13.00778
#
# Velocity S-wave (km/s) = -1.75893 3.81651 2.39498
# Velocity P-wave (km/s) = 4.46526 6.99035 5.86530
#
# Compressibility (1/GPa) = 0.01832483
#
# Stress axis : x y z
#
# Youngs Moduli (GPa) = 159.45829 51.44914 137.49563
#
# Poissons Ratio (x) = 0.16259 0.07262
# Poissons Ratio (y) = 0.50392 0.50043
# Poissons Ratio (z) = 0.08422 0.18726
#
# Static dielectric constant tensor:
#      x y z
#    x 1.809010 0.000000 -0.004470 
#    y 0.000000 1.827890 0.000000 
#    z -0.004470 0.000000 1.886090 
# 
# From -- ./inp_files/167947.got.cif
#   From: 2010.05.17/outbox.cif.g08.bks.cpg/sg15_84_cif.got.tgz:167947.got - 2010.06.03 18:47:42.
