data_PCOD9286887
_publ_section_title
;
Structure prediction by ZEFSAII (Michael W. Deem and Ramdas Pophale) SiO2 
 PCOD9286887
Probable space group: C 2/C
;
_chemical_formula_sum "Si O2"
_cell_formula_units_Z 48
_cell_length_a 20.177119
_cell_length_b 7.120872
_cell_length_c 27.821423
_cell_angle_alpha 90.000000
_cell_angle_beta 149.948883
_cell_angle_gamma 90.000000
_cell_volume 2001.760376
_symmetry_space_group_name_H-M "C 2/C"
_symmetry_group_IT_number 15
_symmetry_cell_setting 'monoclinic'
loop_
_space_group_symop_operation_xyz
x,y,z
-x,y,1/2-z
-x,-y,-z
x,-y,1/2+z
1/2+x,1/2+y,z
1/2-x,1/2+y,1/2-z
1/2-x,1/2-y,-z
1/2+x,1/2-y,1/2+z
loop_
_atom_site_type_symbol
_atom_site_label
_atom_site_fract_x
_atom_site_fract_y
_atom_site_fract_z
Si Si1 0.942961 0.875438 0.833968
Si Si2 0.322911 0.902657 0.013550
Si Si3 0.425445 0.255169 0.128864
Si Si4 0.767764 0.288643 0.879791
Si Si5 0.441189 0.687724 0.441026
Si Si6 0.306807 0.849234 0.657782
O O1 0.824436 0.851188 0.721776
O O2 0.893928 0.882439 0.858444
O O3 0.031497 0.688803 0.894582
O O4 0.038271 0.046485 0.874787
O O5 0.243473 0.895892 0.914052
O O6 0.250000 0.750000 0.000000
O O7 0.342232 0.111177 0.044347
O O8 0.571955 0.171203 0.229640
O O9 0.359789 0.229837 0.140567
O O10 0.733257 0.069720 0.870408
O O11 0.926133 0.312289 0.973373
O O12 0.500000 0.500000 0.500000
O O13 0.319878 0.751197 0.397843
#
# Coordination Sequence:
#
# PCOD9286887 Si02
#       6
#     8   8   8   8   8   8
#     4  11  25  46  77 106 143 198 250 306 381 458
#     4  11  23  43  72 103 150 193 243 307 380 448
#     4  11  24  44  73 110 145 193 250 316 374 450
#     4  10  21  45  75 104 144 198 247 303 385 452
#     4   9  22  46  77 103 146 200 246 311 379 458
#     4  10  21  44  73 102 151 196 244 319 378 450
#
# _framework density 23.978892999999999
#
# number of rings (size 3 to 8) (size 9 to 14) (size 15 to 20)
#    0.000    1.667    3.333    0.000    0.000    6.667 
#    9.000    0.833    3.667    0.000    0.000    0.000 
#    0.000    0.000    0.000    0.000    0.000    0.000 
#
# Total GULP energy -133980.590638 kJ/mol
# GULP energy per Si atom -5582.524610 kJ/mol
# Density = 2.392432 g / cm^3
# Si number density = 23.978893 Si / 1000 Ang^3
#
#
#
# Elastic Constant Matrix: (Units=GPa)
#
#
# Indices 1 2 3 4 5 6 
#
# 1 125.8968 34.5624 59.8683 -0.0001 2.6752 0.0003
# 2 34.5624 134.4835 44.3859 -0.0004 -0.3693 0.0020
# 3 59.8683 44.3859 174.7581 -0.0001 -28.4882 0.0000
# 4 -0.0001 -0.0004 -0.0001 47.8330 -0.0001 1.4487
# 5 2.6752 -0.3693 -28.4882 -0.0001 46.5325 0.0000
# 6 0.0003 0.0020 0.0000 1.4487 0.0000 25.5681
#
#
#
# Elastic Compliance Matrix: (Units=1/GPa)
#
#
# Indices 1 2 3 4 5 6 
#
# 1 0.010077 -0.001429 -0.003538 0.000000 -0.002757 0.000000
# 2 -0.001429 0.008394 -0.001797 0.000000 -0.000952 -0.000001
# 3 -0.003538 -0.001797 0.008245 0.000000 0.005237 0.000000
# 4 0.000000 0.000000 0.000000 0.020942 0.000000 -0.001187
# 5 -0.002757 -0.000952 0.005237 0.000000 0.024847 0.000000
# 6 0.000000 -0.000001 0.000000 -0.001187 0.000000 0.039179
#
#
# Mechanical properties :
#
#
# Convention : Reuss Voigt Hill
#
# Bulk Modulus (GPa) = 75.84582 79.19682 77.52132
# Shear Modulus (GPa) = 38.57785 43.74150 41.15967
#
# Velocity S-wave (km/s) = 4.01537 4.27566 4.14756
# Velocity P-wave (km/s) = 7.29359 7.58119 7.43878
#
# Compressibility (1/GPa) = 0.01318464
#
# Stress axis : x y z
#
# Youngs Moduli (GPa) = 99.23928 119.13536 121.29267
#
# Poissons Ratio (x) = 0.17030 0.42918
# Poissons Ratio (y) = 0.14186 0.21800
# Poissons Ratio (z) = 0.35115 0.21412
#
# Static dielectric constant tensor:
#      x y z
#    x 1.990580 0.000000 0.110040 
#    y 0.000000 2.034920 0.000000 
#    z 0.110040 0.000000 1.864120 
# 
# From -- ./inp_files/300679.got.cif
#   From: 2010.05.17/outbox.cif.g08.bks.cpg/sg15_151_cif.got.tgz:300679.got - 2010.06.03 18:47:42.
