data_PCOD9286540
_publ_section_title
;
Structure prediction by ZEFSAII (Michael W. Deem and Ramdas Pophale) SiO2 
 PCOD9286540
Probable space group: C 2/C
;
_chemical_formula_sum "Si O2"
_cell_formula_units_Z 40
_cell_length_a 25.593153
_cell_length_b 7.704241
_cell_length_c 22.616415
_cell_angle_alpha 90.000000
_cell_angle_beta 23.232288
_cell_angle_gamma 90.000000
_cell_volume 1759.058074
_symmetry_space_group_name_H-M "C 2/C"
_symmetry_group_IT_number 15
_symmetry_cell_setting 'monoclinic'
loop_
_space_group_symop_operation_xyz
x,y,z
-x,y,1/2-z
-x,-y,-z
x,-y,1/2+z
1/2+x,1/2+y,z
1/2-x,1/2+y,1/2-z
1/2-x,1/2-y,-z
1/2+x,1/2-y,1/2+z
loop_
_atom_site_type_symbol
_atom_site_label
_atom_site_fract_x
_atom_site_fract_y
_atom_site_fract_z
Si Si1 0.030545 0.074043 0.830288
Si Si2 0.888687 0.751294 0.823134
Si Si3 0.263008 0.725461 0.143529
Si Si4 0.396286 0.756327 0.182843
Si Si5 0.842017 0.423462 0.630383
O O1 0.141996 0.214708 0.728614
O O2 0.885000 0.150197 0.980189
O O3 0.070543 0.949661 0.734911
O O4 0.039400 0.936501 0.875445
O O5 0.883713 0.669824 0.762669
O O6 0.000000 0.673599 0.750000
O O7 0.750000 0.750000 0.000000
O O8 0.210626 0.593656 0.248022
O O9 0.316952 0.894471 0.123476
O O10 0.252646 0.712390 0.306655
O O11 0.507113 0.859484 0.031984
#
# Coordination Sequence:
#
# PCOD9286540 Si02
#       5
#     8   8   8   8   8
#     4   9  23  39  61  89 129 158 210 256 301 369
#     4  10  21  43  71  92 114 161 215 265 314 356
#     4  11  22  39  58  95 132 167 201 249 307 375
#     4   9  21  37  61  92 119 161 211 256 298 376
#     4  11  21  36  61  89 131 168 199 245 310 374
#
# _framework density 22.739443000000001
#
# number of rings (size 3 to 8) (size 9 to 14) (size 15 to 20)
#    1.200    0.800    0.000    3.600    0.000    8.000 
#    0.000    1.000    0.000    0.000    0.000    0.000 
#    0.000    0.000    0.000    0.000    0.000    0.000 
#
# Total GULP energy -111758.079164 kJ/mol
# GULP energy per Si atom -5587.903958 kJ/mol
# Density = 2.268769 g / cm^3
# Si number density = 22.739443 Si / 1000 Ang^3
#
#
#
# Elastic Constant Matrix: (Units=GPa)
#
#
# Indices 1 2 3 4 5 6 
#
# 1 78.9485 -4.9314 29.3641 -0.0030 5.5687 0.0012
# 2 -4.9314 80.3288 48.1511 -0.0108 6.5714 0.0039
# 3 29.3641 48.1511 189.6412 -0.0101 2.4940 0.0042
# 4 -0.0030 -0.0108 -0.0101 52.9565 0.0037 6.2208
# 5 5.5687 6.5714 2.4940 0.0037 33.0635 -0.0009
# 6 0.0012 0.0039 0.0042 6.2208 -0.0009 25.3748
#
#
#
# Elastic Compliance Matrix: (Units=1/GPa)
#
#
# Indices 1 2 3 4 5 6 
#
# 1 0.014096 0.002801 -0.002858 0.000001 -0.002715 -0.000001
# 2 0.002801 0.015474 -0.004320 0.000003 -0.003221 -0.000003
# 3 -0.002858 -0.004320 0.006802 0.000000 0.000827 0.000000
# 4 0.000001 0.000003 0.000000 0.019443 -0.000003 -0.004767
# 5 -0.002715 -0.003221 0.000827 -0.000003 0.031280 0.000002
# 6 -0.000001 -0.000003 0.000000 -0.004767 0.000002 0.040578
#
#
# Mechanical properties :
#
#
# Convention : Reuss Voigt Hill
#
# Bulk Modulus (GPa) = 36.21037 54.89847 45.55442
# Shear Modulus (GPa) = 34.33281 40.70129 37.51705
#
# Velocity S-wave (km/s) = 3.88987 4.23531 4.06626
# Velocity P-wave (km/s) = 6.01111 6.93628 6.49020
#
# Compressibility (1/GPa) = 0.02761640
#
# Stress axis : x y z
#
# Youngs Moduli (GPa) = 70.94238 64.62482 147.02185
#
# Poissons Ratio (x) = -0.18099 0.42019
# Poissons Ratio (y) = -0.19868 0.63517
# Poissons Ratio (z) = 0.20275 0.27919
#
# Static dielectric constant tensor:
#      x y z
#    x 1.868900 0.000000 -0.001480 
#    y 0.000000 1.926120 0.000000 
#    z -0.001480 0.000000 1.761220 
# 
# From -- ./inp_files/304175.got.cif
#   From: 2010.05.17/outbox.cif.g08.bks.cpg/sg15_153_cif.got.tgz:304175.got - 2010.06.03 18:47:42.
