data_PCOD9286358
_publ_section_title
;
Structure prediction by ZEFSAII (Michael W. Deem and Ramdas Pophale) SiO2 
 PCOD9286358
Probable space group: C 2/C
;
_chemical_formula_sum "Si O2"
_cell_formula_units_Z 48
_cell_length_a 28.293237
_cell_length_b 9.282819
_cell_length_c 20.649486
_cell_angle_alpha 90.000000
_cell_angle_beta 156.990089
_cell_angle_gamma 90.000000
_cell_volume 2119.955360
_symmetry_space_group_name_H-M "C 2/C"
_symmetry_group_IT_number 15
_symmetry_cell_setting 'monoclinic'
loop_
_space_group_symop_operation_xyz
x,y,z
-x,y,1/2-z
-x,-y,-z
x,-y,1/2+z
1/2+x,1/2+y,z
1/2-x,1/2+y,1/2-z
1/2-x,1/2-y,-z
1/2+x,1/2-y,1/2+z
loop_
_atom_site_type_symbol
_atom_site_label
_atom_site_fract_x
_atom_site_fract_y
_atom_site_fract_z
Si Si1 0.780525 0.408068 0.214321
Si Si2 0.062441 0.667708 0.263099
Si Si3 0.799727 0.120592 0.643281
Si Si4 0.752319 0.200315 0.291929
Si Si5 0.191607 0.791110 0.858793
Si Si6 0.508679 0.086914 0.915596
O O1 0.811491 0.309421 0.315322
O O2 0.695658 0.543365 0.123302
O O3 0.734222 0.298907 0.101502
O O4 0.903903 0.462928 0.334602
O O5 0.086869 0.795814 0.244303
O O6 0.194161 0.618734 0.455202
O O7 0.991361 0.536468 0.139322
O O8 0.000000 0.717508 0.250000
O O9 0.767075 0.209256 0.666849
O O10 0.817722 0.953047 0.677573
O O11 0.631305 0.140664 0.102872
O O12 0.056626 0.728825 0.693271
O O13 0.250000 0.750000 0.000000
#
# Coordination Sequence:
#
# PCOD9286358 Si02
#       6
#     8   8   8   8   8   8
#     4  10  24  42  66  99 133 177 220 279 333 408
#     4  11  25  42  71  96 132 185 225 274 345 408
#     4  11  23  44  65  99 138 171 224 293 328 402
#     4  12  24  43  69  98 137 179 227 272 350 406
#     4  10  21  43  67  91 138 171 218 285 338 385
#     4  10  24  44  66  96 133 175 224 276 331 412
#
# _framework density 22.641984999999998
#
# number of rings (size 3 to 8) (size 9 to 14) (size 15 to 20)
#    1.000    0.333    3.333    1.500    7.000    0.667 
#    3.000    0.833    0.000    0.000    0.000    0.000 
#    0.000    0.000    0.000    0.000    0.000    0.000 
#
# Total GULP energy -133802.320131 kJ/mol
# GULP energy per Si atom -5575.096672 kJ/mol
# Density = 2.259045 g / cm^3
# Si number density = 22.641985 Si / 1000 Ang^3
#
#
#
# Elastic Constant Matrix: (Units=GPa)
#
#
# Indices 1 2 3 4 5 6 
#
# 1 126.1102 55.7710 -14.4679 0.0000 -21.9173 0.0000
# 2 55.7710 154.2939 11.5472 0.0000 -33.3085 0.0000
# 3 -14.4679 11.5472 68.2786 0.0000 -22.7112 0.0000
# 4 0.0000 0.0000 0.0000 22.3981 0.0000 -14.4634
# 5 -21.9173 -33.3085 -22.7112 0.0000 28.2956 0.0000
# 6 0.0000 0.0000 0.0000 -14.4634 0.0000 27.2459
#
#
#
# Elastic Compliance Matrix: (Units=1/GPa)
#
#
# Indices 1 2 3 4 5 6 
#
# 1 0.011780 -0.002158 0.006891 0.000000 0.012115 0.000000
# 2 -0.002158 0.009447 0.001484 0.000000 0.010640 0.000000
# 3 0.006891 0.001484 0.024845 0.000000 0.027026 0.000000
# 4 0.000000 0.000000 0.000000 0.067934 0.000000 0.036062
# 5 0.012115 0.010640 0.027026 0.000000 0.078942 0.000000
# 6 0.000000 0.000000 0.000000 0.036062 0.000000 0.055846
#
#
# Mechanical properties :
#
#
# Convention : Reuss Voigt Hill
#
# Bulk Modulus (GPa) = 17.09255 50.48702 33.78979
# Shear Modulus (GPa) = 19.54173 35.31010 27.42591
#
# Velocity S-wave (km/s) = 2.94100 3.95333 3.48413
# Velocity P-wave (km/s) = 4.37014 6.57151 5.58045
#
# Compressibility (1/GPa) = 0.05850502
#
# Stress axis : x y z
#
# Youngs Moduli (GPa) = 84.88834 105.85108 40.25035
#
# Poissons Ratio (x) = 0.22848 -0.27736
# Poissons Ratio (y) = 0.18323 -0.05974
# Poissons Ratio (z) = -0.58496 -0.15710
#
# Static dielectric constant tensor:
#      x y z
#    x 1.893440 0.000000 -0.028730 
#    y 0.000000 1.907350 0.000000 
#    z -0.028730 0.000000 1.938450 
# 
# From -- ./inp_files/257249.got.cif
#   From: 2010.05.17/outbox.cif.g08.bks.cpg/sg15_129_cif.got.tgz:257249.got - 2010.06.03 18:47:42.
