data_PCOD9286225
_publ_section_title
;
Structure prediction by ZEFSAII (Michael W. Deem and Ramdas Pophale) SiO2 
 PCOD9286225
Probable space group: C 2/C
;
_chemical_formula_sum "Si O2"
_cell_formula_units_Z 44
_cell_length_a 14.299226
_cell_length_b 11.145647
_cell_length_c 20.499753
_cell_angle_alpha 90.000000
_cell_angle_beta 43.045491
_cell_angle_gamma 90.000000
_cell_volume 2230.073868
_symmetry_space_group_name_H-M "C 2/C"
_symmetry_group_IT_number 15
_symmetry_cell_setting 'monoclinic'
loop_
_space_group_symop_operation_xyz
x,y,z
-x,y,1/2-z
-x,-y,-z
x,-y,1/2+z
1/2+x,1/2+y,z
1/2-x,1/2+y,1/2-z
1/2-x,1/2-y,-z
1/2+x,1/2-y,1/2+z
loop_
_atom_site_type_symbol
_atom_site_label
_atom_site_fract_x
_atom_site_fract_y
_atom_site_fract_z
Si Si1 0.421647 0.922784 0.593351
Si Si2 0.894506 0.841307 0.747473
Si Si3 0.347144 0.937112 0.258974
Si Si4 0.960549 0.996467 0.096332
Si Si5 0.910592 0.770051 0.421575
Si Si6 0.500000 0.129680 0.250000
O O1 0.262146 0.888038 0.661408
O O2 0.511709 0.804216 0.561439
O O3 0.500000 0.000000 0.500000
O O4 0.420050 0.004638 0.659244
O O5 0.893729 0.696946 0.749224
O O6 0.000000 0.883829 0.750000
O O7 0.941487 0.885915 0.651282
O O8 0.187231 0.933715 0.325924
O O9 0.376123 0.035974 0.300318
O O10 0.063639 0.909433 0.080951
O O11 0.000000 0.000000 0.000000
O O12 0.750000 0.750000 0.500000
O O13 0.975940 0.715708 0.322991
#
# Coordination Sequence:
#
# PCOD9286225 Si02
#       6
#     8   8   8   8   8   4
#     4  10  24  42  64  92 129 169 210 265 326 378
#     4  11  24  43  68  95 127 168 216 269 318 388
#     4  10  21  43  64  90 129 167 208 263 326 375
#     4  11  25  42  64  95 129 171 214 261 324 380
#     4  11  24  40  64  93 126 167 217 259 316 386
#     4  10  22  42  64  90 126 166 210 266 314 374
#
# _framework density 19.730288000000002
#
# number of rings (size 3 to 8) (size 9 to 14) (size 15 to 20)
#    0.000    1.455    2.727    1.091    6.364    1.455 
#    0.000    1.818    0.000    0.000    0.000    0.000 
#    0.000    0.000    0.000    0.000    0.000    0.000 
#
# Total GULP energy -122717.684255 kJ/mol
# GULP energy per Si atom -5578.076557 kJ/mol
# Density = 1.968538 g / cm^3
# Si number density = 19.730288 Si / 1000 Ang^3
#
#
#
# Elastic Constant Matrix: (Units=GPa)
#
#
# Indices 1 2 3 4 5 6 
#
# 1 87.3577 16.7862 15.9633 0.0000 -8.5009 0.0000
# 2 16.7862 83.3078 24.9437 0.0000 9.8433 0.0000
# 3 15.9633 24.9437 69.1887 0.0000 7.5549 0.0000
# 4 0.0000 0.0000 0.0000 15.6795 0.0000 -2.0527
# 5 -8.5009 9.8433 7.5549 0.0000 40.0202 0.0000
# 6 0.0000 0.0000 0.0000 -2.0527 0.0000 38.5295
#
#
#
# Elastic Compliance Matrix: (Units=1/GPa)
#
#
# Indices 1 2 3 4 5 6 
#
# 1 0.012703 -0.002243 -0.002529 0.000000 0.003727 0.000000
# 2 -0.002243 0.014090 -0.004219 0.000000 -0.003146 0.000000
# 3 -0.002529 -0.004219 0.016851 0.000000 -0.002681 0.000000
# 4 0.000000 0.000000 0.000000 0.064226 0.000000 0.003422
# 5 0.003727 -0.003146 -0.002681 0.000000 0.027059 0.000000
# 6 0.000000 0.000000 0.000000 0.003422 0.000000 0.026136
#
#
# Mechanical properties :
#
#
# Convention : Reuss Voigt Hill
#
# Bulk Modulus (GPa) = 38.96801 39.47115 39.21958
# Shear Modulus (GPa) = 26.65232 30.98991 28.82111
#
# Velocity S-wave (km/s) = 3.67935 3.96748 3.82613
# Velocity P-wave (km/s) = 6.15170 6.40598 6.28013
#
# Compressibility (1/GPa) = 0.02566207
#
# Stress axis : x y z
#
# Youngs Moduli (GPa) = 78.72121 70.96996 59.34542
#
# Poissons Ratio (x) = 0.15916 0.15010
# Poissons Ratio (y) = 0.17655 0.25037
# Poissons Ratio (z) = 0.19911 0.29942
#
# Static dielectric constant tensor:
#      x y z
#    x 1.734890 0.000000 0.031610 
#    y 0.000000 0.680440 0.000000 
#    z 0.031610 0.000000 1.659900 
# 
# From -- ./inp_files/94961.got.cif
#   From: 2010.05.17/outbox.cif.g08.bks.cpg/sg15_48_cif.got.tgz:94961.got - 2010.06.03 18:47:42.
