data_PCOD9286935
_publ_section_title
;
Structure prediction by ZEFSAII (Michael W. Deem and Ramdas Pophale) SiO2 
 PCOD9286935
Probable space group: C 2/C
;
_chemical_formula_sum "Si O2"
_cell_formula_units_Z 64
_cell_length_a 19.885993
_cell_length_b 23.161016
_cell_length_c 18.099340
_cell_angle_alpha 90.000000
_cell_angle_beta 21.832720
_cell_angle_gamma 90.000000
_cell_volume 3100.212608
_symmetry_space_group_name_H-M "C 2/C"
_symmetry_group_IT_number 15
_symmetry_cell_setting 'monoclinic'
loop_
_space_group_symop_operation_xyz
x,y,z
-x,y,1/2-z
-x,-y,-z
x,-y,1/2+z
1/2+x,1/2+y,z
1/2-x,1/2+y,1/2-z
1/2-x,1/2-y,-z
1/2+x,1/2-y,1/2+z
loop_
_atom_site_type_symbol
_atom_site_label
_atom_site_fract_x
_atom_site_fract_y
_atom_site_fract_z
Si Si1 0.514572 0.068041 0.997965
Si Si2 0.043606 0.293447 0.121417
Si Si3 0.952080 0.829800 0.711069
Si Si4 0.716121 0.414008 0.144023
Si Si5 0.784073 0.000843 0.481716
Si Si6 0.803637 0.096957 0.082931
Si Si7 0.278596 0.105835 0.857860
Si Si8 0.288416 0.818135 0.951391
O O1 0.639072 0.088302 0.939264
O O2 0.614604 0.086287 0.822222
O O3 0.319071 0.093828 0.219189
O O4 0.500000 0.000000 0.000000
O O5 0.000000 0.278371 0.250000
O O6 0.030168 0.230565 0.098670
O O7 0.877787 0.334491 0.272952
O O8 0.237130 0.324676 0.918812
O O9 0.000000 0.836218 0.750000
O O10 0.066436 0.882040 0.559940
O O11 0.513868 0.416224 0.382582
O O12 0.772139 0.469180 0.036339
O O13 0.704025 0.359460 0.100447
O O14 0.746536 0.955027 0.585516
O O15 0.705594 0.061126 0.590143
O O16 0.000000 0.007246 0.250000
O O17 0.770369 0.154757 0.067664
O O18 0.500000 0.826318 0.750000
O O19 0.250000 0.750000 0.000000
#
# Coordination Sequence:
#
# PCOD9286935 Si02
#       8
#     8   8   8   8   8   8   8   8
#     4  12  26  45  62  92 137 183 221 264 338 412
#     4  11  21  38  66  91 122 166 204 270 328 371
#     4  11  20  41  64  91 127 157 208 274 326 373
#     4  10  23  44  69  93 138 176 214 287 340 381
#     4   9  20  40  65  96 125 163 219 277 318 382
#     4  10  21  45  65  94 134 173 217 272 342 393
#     4  12  24  39  63  97 128 169 225 260 320 399
#     4  11  20  38  75 109 132 168 227 290 342 407
#
# _framework density 20.643744999999999
#
# number of rings (size 3 to 8) (size 9 to 14) (size 15 to 20)
#    0.000    1.250    5.000    3.000    0.000    2.500 
#    2.250    1.250    0.000    0.000    0.000    0.000 
#    0.000    0.000    0.000    0.000    0.000    0.000 
#
# Total GULP energy -178488.491741 kJ/mol
# GULP energy per Si atom -5577.765367 kJ/mol
# Density = 2.059676 g / cm^3
# Si number density = 20.643745 Si / 1000 Ang^3
#
#
#
# Elastic Constant Matrix: (Units=GPa)
#
#
# Indices 1 2 3 4 5 6 
#
# 1 13.6071 3.9616 12.6378 -0.0591 6.7199 -0.0281
# 2 3.9616 101.2326 21.1436 -0.0600 15.2595 -0.0023
# 3 12.6378 21.1436 138.4408 -0.0492 2.7421 0.0691
# 4 -0.0591 -0.0600 -0.0492 -43.6467 0.0527 -69.9855
# 5 6.7199 15.2595 2.7421 0.0527 34.3801 -0.0096
# 6 -0.0281 -0.0023 0.0691 -69.9855 -0.0096 -50.2524
#
#
#
# Elastic Compliance Matrix: (Units=1/GPa)
#
#
# Indices 1 2 3 4 5 6 
#
# 1 0.089065 0.000745 -0.007905 0.000033 -0.017109 -0.000104
# 2 0.000745 0.010925 -0.001640 0.000013 -0.004864 -0.000021
# 3 -0.007905 -0.001640 0.008163 0.000015 0.001622 -0.000006
# 4 0.000033 0.000013 0.000015 0.018580 -0.000049 -0.025876
# 5 -0.017109 -0.004864 0.001622 -0.000049 0.034460 0.000074
# 6 -0.000104 -0.000021 -0.000006 -0.025876 0.000074 0.016138
#
#
# Mechanical properties :
#
#
# Convention : Reuss Voigt Hill
#
# Bulk Modulus (GPa) = 11.04338 36.52961 23.78650
# Shear Modulus (GPa) = 22.21060 2.46537 12.33798
#
# Velocity S-wave (km/s) = 3.28365 1.09400 2.44737
# Velocity P-wave (km/s) = 4.44270 4.39653 4.41967
#
# Compressibility (1/GPa) = 0.09055199
#
# Stress axis : x y z
#
# Youngs Moduli (GPa) = 11.22770 91.53484 122.49913
#
# Poissons Ratio (x) = -0.06816 0.96839
# Poissons Ratio (y) = -0.00836 0.20091
# Poissons Ratio (z) = 0.08876 0.15013
#
# Static dielectric constant tensor:
#      x y z
#    x 1.696990 -0.000060 -0.020010 
#    y -0.000060 1.914420 -0.000010 
#    z -0.020010 -0.000010 1.769160 
# 
# From -- ./inp_files/216969.got.cif
#   From: 2010.05.17/outbox.cif.g08.bks.cpg/sg15_109_cif.got.tgz:216969.got - 2010.06.03 18:47:42.
