data_PCOD9286342
_publ_section_title
;
Structure prediction by ZEFSAII (Michael W. Deem and Ramdas Pophale) SiO2 
 PCOD9286342
Probable space group: C 2/C
;
_chemical_formula_sum "Si O2"
_cell_formula_units_Z 36
_cell_length_a 10.417440
_cell_length_b 10.327907
_cell_length_c 15.101833
_cell_angle_alpha 90.000000
_cell_angle_beta 84.838331
_cell_angle_gamma 90.000000
_cell_volume 1618.222600
_symmetry_space_group_name_H-M "C 2/C"
_symmetry_group_IT_number 15
_symmetry_cell_setting 'monoclinic'
loop_
_space_group_symop_operation_xyz
x,y,z
-x,y,1/2-z
-x,-y,-z
x,-y,1/2+z
1/2+x,1/2+y,z
1/2-x,1/2+y,1/2-z
1/2-x,1/2-y,-z
1/2+x,1/2-y,1/2+z
loop_
_atom_site_type_symbol
_atom_site_label
_atom_site_fract_x
_atom_site_fract_y
_atom_site_fract_z
Si Si1 0.113707 0.316458 0.489417
Si Si2 0.064637 0.549871 0.375187
Si Si3 0.680497 0.394614 0.736476
Si Si4 0.000000 0.344419 0.250000
Si Si5 0.480352 0.432516 0.595986
O O1 0.250000 0.250000 0.500000
O O2 0.129721 0.460426 0.447613
O O3 0.038103 0.217121 0.430842
O O4 0.023689 0.338826 0.579851
O O5 0.173155 0.599406 0.301721
O O6 0.980462 0.442631 0.331320
O O7 0.623359 0.249405 0.750020
O O8 0.597503 0.449361 0.658189
O O9 0.642093 0.462527 0.831931
O O10 0.500000 0.500000 0.500000
#
# Coordination Sequence:
#
# PCOD9286342 Si02
#       5
#     8   8   8   4   8
#     4  11  24  43  63 101 134 170 236 279 336 412
#     4  11  24  42  69  95 132 179 218 287 341 397
#     4  10  22  43  67  98 138 179 228 272 346 411
#     4  10  22  44  64  98 136 170 224 278 336 410
#     4  10  21  43  67 101 141 178 225 288 330 410
#
# _framework density 22.24663
#
# number of rings (size 3 to 8) (size 9 to 14) (size 15 to 20)
#    0.000    1.778    4.444    1.333    3.111    2.667 
#    0.000    2.222    0.000    0.000    0.000    0.000 
#    0.000    0.000    0.000    0.000    0.000    0.000 
#
# Total GULP energy -100345.283031 kJ/mol
# GULP energy per Si atom -5574.737946 kJ/mol
# Density = 2.219600 g / cm^3
# Si number density = 22.246630 Si / 1000 Ang^3
#
#
#
# Elastic Constant Matrix: (Units=GPa)
#
#
# Indices 1 2 3 4 5 6 
#
# 1 90.3184 43.9226 59.2571 0.0000 -39.8575 0.0000
# 2 43.9226 59.7332 50.0053 0.0000 -16.8565 0.0000
# 3 59.2571 50.0053 188.4961 0.0000 -34.3553 0.0000
# 4 0.0000 0.0000 0.0000 57.0831 0.0000 -5.5634
# 5 -39.8575 -16.8565 -34.3553 0.0000 42.1149 0.0000
# 6 0.0000 0.0000 0.0000 -5.5634 0.0000 27.1956
#
#
#
# Elastic Compliance Matrix: (Units=1/GPa)
#
#
# Indices 1 2 3 4 5 6 
#
# 1 0.026733 -0.013086 -0.001499 0.000000 0.018840 0.000000
# 2 -0.013086 0.028729 -0.004310 0.000000 -0.004401 0.000000
# 3 -0.001499 -0.004310 0.007455 0.000000 0.002938 0.000000
# 4 0.000000 0.000000 0.000000 0.017875 0.000000 0.003657
# 5 0.018840 -0.004401 0.002938 0.000000 0.042210 0.000000
# 6 0.000000 0.000000 0.000000 0.003657 0.000000 0.037519
#
#
# Mechanical properties :
#
#
# Convention : Reuss Voigt Hill
#
# Bulk Modulus (GPa) = 39.79560 71.65752 55.72656
# Shear Modulus (GPa) = 24.19123 37.63622 30.91373
#
# Velocity S-wave (km/s) = 3.30117 4.11758 3.73177
# Velocity P-wave (km/s) = 5.69715 7.40853 6.60847
#
# Compressibility (1/GPa) = 0.02512841
#
# Stress axis : x y z
#
# Youngs Moduli (GPa) = 37.40663 34.80760 134.13535
#
# Poissons Ratio (x) = 0.45549 0.20104
# Poissons Ratio (y) = 0.48951 0.57810
# Poissons Ratio (z) = 0.05606 0.15002
#
# Static dielectric constant tensor:
#      x y z
#    x 1.880030 0.000000 0.067510 
#    y 0.000000 1.819880 0.000000 
#    z 0.067510 0.000000 1.976290 
# 
# From -- ./inp_files/141279.got.cif
#   From: 2010.05.17/outbox.cif.g08.bks.cpg/sg15_71_cif.got.tgz:141279.got - 2010.06.03 18:47:42.
