data_PCOD9286590
_publ_section_title
;
Structure prediction by ZEFSAII (Michael W. Deem and Ramdas Pophale) SiO2 
 PCOD9286590
Probable space group: C 2/C
;
_chemical_formula_sum "Si O2"
_cell_formula_units_Z 40
_cell_length_a 9.314911
_cell_length_b 13.442477
_cell_length_c 15.476609
_cell_angle_alpha 90.000000
_cell_angle_beta 54.032885
_cell_angle_gamma 90.000000
_cell_volume 1568.456429
_symmetry_space_group_name_H-M "C 2/C"
_symmetry_group_IT_number 15
_symmetry_cell_setting 'monoclinic'
loop_
_space_group_symop_operation_xyz
x,y,z
-x,y,1/2-z
-x,-y,-z
x,-y,1/2+z
1/2+x,1/2+y,z
1/2-x,1/2+y,1/2-z
1/2-x,1/2-y,-z
1/2+x,1/2-y,1/2+z
loop_
_atom_site_type_symbol
_atom_site_label
_atom_site_fract_x
_atom_site_fract_y
_atom_site_fract_z
Si Si1 0.962105 0.085372 0.608523
Si Si2 0.975894 0.587885 0.077953
Si Si3 0.794712 0.260688 0.301194
Si Si4 0.767288 0.799271 0.370089
Si Si5 0.777513 0.563241 0.367890
O O1 0.834079 0.162668 0.602040
O O2 0.062690 0.145916 0.648662
O O3 0.131386 0.047267 0.495606
O O4 0.827170 0.994020 0.670825
O O5 0.038018 0.541108 0.148017
O O6 0.798882 0.653278 0.153852
O O7 0.112927 0.670134 0.990914
O O8 0.000000 0.500000 0.000000
O O9 0.787029 0.315905 0.209936
O O10 0.000000 0.254765 0.250000
O O11 0.792622 0.681358 0.354267
#
# Coordination Sequence:
#
# PCOD9286590 Si02
#       5
#     8   8   8   8   8
#     4  10  21  43  73 108 135 194 258 306 388 459
#     4  11  25  47  75 111 153 199 254 325 397 463
#     4  12  27  43  72 115 155 202 259 320 393 471
#     4  11  23  47  76 101 150 201 250 323 380 470
#     4  10  21  43  79 101 141 202 253 308 391 464
#
# _framework density 25.502780999999999
#
# number of rings (size 3 to 8) (size 9 to 14) (size 15 to 20)
#    0.000    1.200    4.000    1.800    2.800    7.200 
#    0.000    0.000    0.000    0.000    0.000    0.000 
#    0.000    0.000    0.000    0.000    0.000    0.000 
#
# Total GULP energy -111453.272503 kJ/mol
# GULP energy per Si atom -5572.663625 kJ/mol
# Density = 2.544474 g / cm^3
# Si number density = 25.502781 Si / 1000 Ang^3
#
#
#
# Elastic Constant Matrix: (Units=GPa)
#
#
# Indices 1 2 3 4 5 6 
#
# 1 199.3685 70.6461 47.8988 0.0000 -35.8504 0.0000
# 2 70.6461 132.2336 19.0928 0.0000 5.4497 0.0000
# 3 47.8988 19.0928 54.9348 0.0000 -10.8455 0.0000
# 4 0.0000 0.0000 0.0000 41.4014 0.0000 1.5900
# 5 -35.8504 5.4497 -10.8455 0.0000 54.8461 0.0000
# 6 0.0000 0.0000 0.0000 1.5900 0.0000 52.0940
#
#
#
# Elastic Compliance Matrix: (Units=1/GPa)
#
#
# Indices 1 2 3 4 5 6 
#
# 1 0.008571 -0.004052 -0.005077 0.000000 0.005001 0.000000
# 2 -0.004052 0.009981 -0.000681 0.000000 -0.003775 0.000000
# 3 -0.005077 -0.000681 0.023128 0.000000 0.001322 0.000000
# 4 0.000000 0.000000 0.000000 0.024182 0.000000 -0.000738
# 5 0.005001 -0.003775 0.001322 0.000000 0.022138 0.000000
# 6 0.000000 0.000000 0.000000 -0.000738 0.000000 0.019219
#
#
# Mechanical properties :
#
#
# Convention : Reuss Voigt Hill
#
# Bulk Modulus (GPa) = 45.33325 73.53471 59.43398
# Shear Modulus (GPa) = 37.25961 46.26159 41.76060
#
# Velocity S-wave (km/s) = 3.82645 4.26371 4.05098
# Velocity P-wave (km/s) = 6.11038 7.28941 6.72578
#
# Compressibility (1/GPa) = 0.02205887
#
# Stress axis : x y z
#
# Youngs Moduli (GPa) = 116.67547 100.18957 43.23692
#
# Poissons Ratio (x) = 0.40596 0.21953
# Poissons Ratio (y) = 0.47276 0.02946
# Poissons Ratio (z) = 0.59242 0.06826
#
# Static dielectric constant tensor:
#      x y z
#    x 2.047180 0.000000 -0.109040 
#    y 0.000000 2.218030 0.000000 
#    z -0.109040 0.000000 0.960890 
# 
# From -- ./inp_files/188693.got.cif
#   From: 2010.05.17/outbox.cif.g08.bks.cpg/sg15_95_cif.got.tgz:188693.got - 2010.06.03 18:47:42.
