data_PCOD9286621
_publ_section_title
;
Structure prediction by ZEFSAII (Michael W. Deem and Ramdas Pophale) SiO2 
 PCOD9286621
Probable space group: C 2/C
;
_chemical_formula_sum "Si O2"
_cell_formula_units_Z 36
_cell_length_a 11.474464
_cell_length_b 9.142953
_cell_length_c 20.966070
_cell_angle_alpha 90.000000
_cell_angle_beta 142.729950
_cell_angle_gamma 90.000000
_cell_volume 1331.993401
_symmetry_space_group_name_H-M "C 2/C"
_symmetry_group_IT_number 15
_symmetry_cell_setting 'monoclinic'
loop_
_space_group_symop_operation_xyz
x,y,z
-x,y,1/2-z
-x,-y,-z
x,-y,1/2+z
1/2+x,1/2+y,z
1/2-x,1/2+y,1/2-z
1/2-x,1/2-y,-z
1/2+x,1/2-y,1/2+z
loop_
_atom_site_type_symbol
_atom_site_label
_atom_site_fract_x
_atom_site_fract_y
_atom_site_fract_z
Si Si1 0.990734 0.953799 0.858253
Si Si2 0.721688 0.819930 0.077530
Si Si3 0.249267 0.475821 0.415693
Si Si4 0.083709 0.486987 0.633970
Si Si5 0.500000 0.768167 0.250000
O O1 0.052497 0.837288 0.831485
O O2 0.098132 0.100543 0.879262
O O3 0.062442 0.934548 0.961860
O O4 0.763120 0.937966 0.753442
O O5 0.760131 0.648953 0.099192
O O6 0.676058 0.899841 0.124075
O O7 0.530914 0.860335 0.953527
O O8 0.079963 0.444417 0.393625
O O9 0.186250 0.374356 0.329781
#
# Coordination Sequence:
#
# PCOD9286621 Si02
#       5
#     8   8   8   8   4
#     4  11  22  47  71  97 151 194 236 313 379 437
#     4  10  22  46  75 106 144 189 256 310 359 455
#     4  11  27  46  72 111 146 189 258 309 365 459
#     4  10  21  43  79 102 139 198 244 297 390 427
#     4  12  26  44  66 100 156 188 234 320 366 430
#
# _framework density 27.027161
#
# number of rings (size 3 to 8) (size 9 to 14) (size 15 to 20)
#    0.000    1.333    2.222    3.333    3.111    3.556 
#    0.000    2.222    0.000    0.000    0.000    0.000 
#    0.000    0.000    0.000    0.000    0.000    0.000 
#
# Total GULP energy -100889.028651 kJ/mol
# GULP energy per Si atom -5604.946036 kJ/mol
# Density = 2.696565 g / cm^3
# Si number density = 27.027161 Si / 1000 Ang^3
#
#
#
# Elastic Constant Matrix: (Units=GPa)
#
#
# Indices 1 2 3 4 5 6 
#
# 1 55.3420 7.4523 -27.2312 0.0000 -1.9133 0.0000
# 2 7.4523 154.1594 55.7967 0.0000 -29.8445 0.0000
# 3 -27.2312 55.7967 191.9230 0.0000 7.8708 0.0000
# 4 0.0000 0.0000 0.0000 32.5554 0.0000 1.0890
# 5 -1.9133 -29.8445 7.8708 0.0000 40.8917 0.0000
# 6 0.0000 0.0000 0.0000 1.0890 0.0000 34.0839
#
#
#
# Elastic Compliance Matrix: (Units=1/GPa)
#
#
# Indices 1 2 3 4 5 6 
#
# 1 0.020189 -0.002645 0.003703 0.000000 -0.001699 0.000000
# 2 -0.002645 0.009236 -0.003358 0.000000 0.007264 0.000000
# 3 0.003703 -0.003358 0.006860 0.000000 -0.003598 0.000000
# 4 0.000000 0.000000 0.000000 0.030750 0.000000 -0.000983
# 5 -0.001699 0.007264 -0.003598 0.000000 0.030369 0.000000
# 6 0.000000 0.000000 0.000000 -0.000983 0.000000 0.029371
#
#
# Mechanical properties :
#
#
# Convention : Reuss Voigt Hill
#
# Bulk Modulus (GPa) = 31.56113 52.60667 42.08390
# Shear Modulus (GPa) = 35.22674 45.86664 40.54669
#
# Velocity S-wave (km/s) = 3.61416 4.12400 3.87747
# Velocity P-wave (km/s) = 5.39621 6.49486 5.97086
#
# Compressibility (1/GPa) = 0.03168454
#
# Stress axis : x y z
#
# Youngs Moduli (GPa) = 49.53167 108.26648 145.77661
#
# Poissons Ratio (x) = 0.28638 -0.53984
# Poissons Ratio (y) = 0.13102 0.48959
# Poissons Ratio (z) = -0.18343 0.36361
#
# Static dielectric constant tensor:
#      x y z
#    x 2.247090 0.000000 -0.040460 
#    y 0.000000 2.077120 0.000000 
#    z -0.040460 0.000000 2.101230 
# 
# From -- ./inp_files/176828.got.cif
#   From: 2010.05.17/outbox.cif.g08.bks.cpg/sg15_89_cif.got.tgz:176828.got - 2010.06.03 18:47:42.
