data_PCOD9286799
_publ_section_title
;
Structure prediction by ZEFSAII (Michael W. Deem and Ramdas Pophale) SiO2 
 PCOD9286799
Probable space group: C 2/C
;
_chemical_formula_sum "Si O2"
_cell_formula_units_Z 60
_cell_length_a 24.701951
_cell_length_b 18.187363
_cell_length_c 8.828338
_cell_angle_alpha 90.000000
_cell_angle_beta 135.825376
_cell_angle_gamma 90.000000
_cell_volume 2763.870566
_symmetry_space_group_name_H-M "C 2/C"
_symmetry_group_IT_number 15
_symmetry_cell_setting 'monoclinic'
loop_
_space_group_symop_operation_xyz
x,y,z
-x,y,1/2-z
-x,-y,-z
x,-y,1/2+z
1/2+x,1/2+y,z
1/2-x,1/2+y,1/2-z
1/2-x,1/2-y,-z
1/2+x,1/2-y,1/2+z
loop_
_atom_site_type_symbol
_atom_site_label
_atom_site_fract_x
_atom_site_fract_y
_atom_site_fract_z
Si Si1 0.422224 0.523792 0.430333
Si Si2 0.260531 0.700544 0.374212
Si Si3 0.398195 0.038769 0.792784
Si Si4 0.675827 0.729260 0.453465
Si Si5 0.699871 0.051811 0.178758
Si Si6 0.080229 0.804618 0.485133
Si Si7 0.673680 0.562165 0.539252
Si Si8 0.500000 0.952292 0.750000
O O1 0.500000 0.500000 0.500000
O O2 0.426518 0.606028 0.509230
O O3 0.397868 0.461278 0.498797
O O4 0.350971 0.530255 0.171886
O O5 0.250000 0.750000 0.500000
O O6 0.253347 0.612784 0.364692
O O7 0.344615 0.714106 0.466702
O O8 0.186461 0.719828 0.119446
O O9 0.333257 0.074526 0.553584
O O10 0.362923 0.972539 0.822259
O O11 0.453280 0.003196 0.775124
O O12 0.441266 0.086160 0.011380
O O13 0.750000 0.750000 0.500000
O O14 0.601534 0.727192 0.194301
O O15 0.684815 0.647745 0.538876
O O16 0.749781 0.978456 0.251512
O O17 0.000000 0.778847 0.250000
#
# Coordination Sequence:
#
# PCOD9286799 Si02
#       8
#     8   8   8   8   8   8   8   4
#     4  11  22  35  60 102 133 169 213 267 326 390
#     4  11  25  43  66  92 134 171 222 275 331 399
#     4   9  19  34  65  90 124 156 208 266 330 386
#     4   9  23  42  64  89 130 179 214 267 328 397
#     4  11  22  36  64  98 125 163 218 272 323 391
#     4  10  21  44  69  91 132 176 217 271 333 400
#     4  11  22  37  62  93 132 166 220 268 317 382
#     4   8  16  38  58  92 124 158 192 272 342 376
#
# _framework density 21.708687000000001
#
# number of rings (size 3 to 8) (size 9 to 14) (size 15 to 20)
#    0.000    1.867    1.333    2.000    7.467    0.000 
#    0.000    2.000   20.533    0.000    0.000    0.000 
#    0.000    0.000    0.000    0.000    0.000    0.000 
#
# Total GULP energy -167208.379537 kJ/mol
# GULP energy per Si atom -5573.612651 kJ/mol
# Density = 2.165928 g / cm^3
# Si number density = 21.708687 Si / 1000 Ang^3
#
#
#
# Elastic Constant Matrix: (Units=GPa)
#
#
# Indices 1 2 3 4 5 6 
#
# 1 91.8694 -10.2063 31.4372 0.0000 -6.3969 0.0000
# 2 -10.2063 28.9289 35.5701 0.0000 -7.8265 0.0000
# 3 31.4372 35.5701 149.9447 0.0000 -9.8923 0.0000
# 4 0.0000 0.0000 0.0000 23.5966 0.0000 -7.6157
# 5 -6.3969 -7.8265 -9.8923 0.0000 30.7401 0.0000
# 6 0.0000 0.0000 0.0000 -7.6157 0.0000 20.8069
#
#
#
# Elastic Compliance Matrix: (Units=1/GPa)
#
#
# Indices 1 2 3 4 5 6 
#
# 1 0.014883 0.014087 -0.006152 0.000000 0.004704 0.000000
# 2 0.014087 0.064636 -0.017376 0.000000 0.013796 0.000000
# 3 -0.006152 -0.017376 0.011959 0.000000 -0.001856 0.000000
# 4 0.000000 0.000000 0.000000 0.048056 0.000000 0.017589
# 5 0.004704 0.013796 -0.001856 0.000000 0.036425 0.000000
# 6 0.000000 0.000000 0.000000 0.017589 0.000000 0.054499
#
#
# Mechanical properties :
#
#
# Convention : Reuss Voigt Hill
#
# Bulk Modulus (GPa) = 13.77495 42.70500 28.23997
# Shear Modulus (GPa) = 18.27907 29.29152 23.78530
#
# Velocity S-wave (km/s) = 2.90490 3.67727 3.31366
# Velocity P-wave (km/s) = 4.19647 6.14364 5.26093
#
# Compressibility (1/GPa) = 0.07259555
#
# Stress axis : x y z
#
# Youngs Moduli (GPa) = 67.19194 15.47134 83.62247
#
# Poissons Ratio (x) = -0.21795 0.51443
# Poissons Ratio (y) = -0.94657 1.45305
# Poissons Ratio (z) = 0.41335 0.26884
#
# Static dielectric constant tensor:
#      x y z
#    x 1.806310 0.000000 -0.024180 
#    y 0.000000 1.749420 0.000000 
#    z -0.024180 0.000000 1.941830 
# 
# From -- ./inp_files/63542.got.cif
#   From: 2010.05.17/outbox.cif.g08.bks.cpg/sg15_32_cif.got.tgz:63542.got - 2010.06.03 18:47:42.
