data_PCOD9286595
_publ_section_title
;
Structure prediction by ZEFSAII (Michael W. Deem and Ramdas Pophale) SiO2 
 PCOD9286595
Probable space group: C 2/C
;
_chemical_formula_sum "Si O2"
_cell_formula_units_Z 24
_cell_length_a 5.285090
_cell_length_b 25.841212
_cell_length_c 7.317534
_cell_angle_alpha 90.000000
_cell_angle_beta 70.292353
_cell_angle_gamma 90.000000
_cell_volume 940.840479
_symmetry_space_group_name_H-M "C 2/C"
_symmetry_group_IT_number 15
_symmetry_cell_setting 'monoclinic'
loop_
_space_group_symop_operation_xyz
x,y,z
-x,y,1/2-z
-x,-y,-z
x,-y,1/2+z
1/2+x,1/2+y,z
1/2-x,1/2+y,1/2-z
1/2-x,1/2-y,-z
1/2+x,1/2-y,1/2+z
loop_
_atom_site_type_symbol
_atom_site_label
_atom_site_fract_x
_atom_site_fract_y
_atom_site_fract_z
Si Si1 0.691677 0.850185 0.462950
Si Si2 0.314237 0.545741 0.124796
Si Si3 0.180848 0.191133 0.976516
O O1 0.781333 0.908186 0.485848
O O2 0.754819 0.828713 0.245038
O O3 0.373302 0.844438 0.551570
O O4 0.862236 0.814949 0.559019
O O5 0.500000 0.563444 0.250000
O O6 0.000000 0.531257 0.250000
O O7 0.500000 0.500000 0.000000
O O8 0.250000 0.250000 0.000000
#
# Coordination Sequence:
#
# PCOD9286595 Si02
#       3
#     8   8   8
#     4  10  23  45  71 109 154 198 262 329 397 472
#     4  12  28  53  81 116 159 213 273 341 415 484
#     4  10  21  43  74 104 149 208 259 320 391 479
#
# _framework density 25.509108000000001
#
# number of rings (size 3 to 8) (size 9 to 14) (size 15 to 20)
#    0.000    1.333    0.000    4.000    4.667    0.000 
#   36.000    0.000    0.000    0.000    0.000    0.000 
#    0.000    0.000    0.000    0.000    0.000    0.000 
#
# Total GULP energy -67058.689466 kJ/mol
# GULP energy per Si atom -5588.224122 kJ/mol
# Density = 2.545105 g / cm^3
# Si number density = 25.509108 Si / 1000 Ang^3
#
#
#
# Elastic Constant Matrix: (Units=GPa)
#
#
# Indices 1 2 3 4 5 6 
#
# 1 288.1721 84.7774 54.4062 0.0000 21.8516 0.0000
# 2 84.7774 207.7265 67.5689 0.0000 19.4506 0.0000
# 3 54.4062 67.5689 161.4041 0.0000 -11.8613 0.0000
# 4 0.0000 0.0000 0.0000 45.4564 0.0000 5.5541
# 5 21.8516 19.4506 -11.8613 0.0000 18.9887 0.0000
# 6 0.0000 0.0000 0.0000 5.5541 0.0000 63.6164
#
#
#
# Elastic Compliance Matrix: (Units=1/GPa)
#
#
# Indices 1 2 3 4 5 6 
#
# 1 0.004388 -0.000813 -0.001518 0.000000 -0.005164 0.000000
# 2 -0.000813 0.006975 -0.003251 0.000000 -0.008240 0.000000
# 3 -0.001518 -0.003251 0.008848 0.000000 0.010604 0.000000
# 4 0.000000 0.000000 0.000000 0.022236 0.000000 -0.001941
# 5 -0.005164 -0.008240 0.010604 0.000000 0.073670 0.000000
# 6 0.000000 0.000000 0.000000 -0.001941 0.000000 0.015889
#
#
# Mechanical properties :
#
#
# Convention : Reuss Voigt Hill
#
# Bulk Modulus (GPa) = 110.55812 118.97864 114.76838
# Shear Modulus (GPa) = 34.20314 55.64898 44.92606
#
# Velocity S-wave (km/s) = 3.66569 4.67576 4.20119
# Velocity P-wave (km/s) = 7.83270 8.71167 8.28385
#
# Compressibility (1/GPa) = 0.00904502
#
# Stress axis : x y z
#
# Youngs Moduli (GPa) = 227.91422 143.36719 113.02358
#
# Poissons Ratio (x) = 0.11661 0.17157
# Poissons Ratio (y) = 0.18537 0.36748
# Poissons Ratio (z) = 0.34597 0.46614
#
# Static dielectric constant tensor:
#      x y z
#    x 1.920520 0.000000 0.171470 
#    y 0.000000 1.956070 0.000000 
#    z 0.171470 0.000000 1.703810 
# 
# From -- ./inp_files/19477.got.cif
#   From: 2010.05.17/outbox.cif.g08.bks.cpg/sg15_10_cif.got.tgz:19477.got - 2010.06.03 18:47:42.
