data_PCOD9286171
_publ_section_title
;
Structure prediction by ZEFSAII (Michael W. Deem and Ramdas Pophale) SiO2 
 PCOD9286171
Probable space group: C 2/C
;
_chemical_formula_sum "Si O2"
_cell_formula_units_Z 52
_cell_length_a 12.967958
_cell_length_b 12.190045
_cell_length_c 22.340078
_cell_angle_alpha 90.000000
_cell_angle_beta 144.332986
_cell_angle_gamma 90.000000
_cell_volume 2059.135649
_symmetry_space_group_name_H-M "C 2/C"
_symmetry_group_IT_number 15
_symmetry_cell_setting 'monoclinic'
loop_
_space_group_symop_operation_xyz
x,y,z
-x,y,1/2-z
-x,-y,-z
x,-y,1/2+z
1/2+x,1/2+y,z
1/2-x,1/2+y,1/2-z
1/2-x,1/2-y,-z
1/2+x,1/2-y,1/2+z
loop_
_atom_site_type_symbol
_atom_site_label
_atom_site_fract_x
_atom_site_fract_y
_atom_site_fract_z
Si Si1 0.951128 0.389460 0.861504
Si Si2 0.715998 0.687649 0.139458
Si Si3 0.650258 0.559089 0.705564
Si Si4 0.944326 0.628097 0.489717
Si Si5 0.500000 0.322044 0.250000
Si Si6 0.220755 0.953105 0.988509
Si Si7 0.713115 0.056554 0.852618
O O1 0.845759 0.327884 0.758493
O O2 0.828771 0.497453 0.807358
O O3 0.931712 0.329960 0.915604
O O4 0.148974 0.438819 0.946493
O O5 0.693144 0.564164 0.105461
O O6 0.840524 0.748762 0.150275
O O7 0.565632 0.778154 0.078348
O O8 0.580667 0.611793 0.733618
O O9 0.484015 0.482091 0.611690
O O10 0.711917 0.612812 0.671814
O O11 0.781466 0.609809 0.457671
O O12 0.000000 0.500000 0.500000
O O13 0.250225 0.892602 0.065586
O O14 0.500000 0.040326 0.750000
#
# Coordination Sequence:
#
# PCOD9286171 Si02
#       7
#     8   8   8   8   4   8   8
#     4  10  21  43  62 100 152 180 223 309 353 420
#     4  11  22  39  68  99 140 186 228 295 368 410
#     4  11  23  37  70  98 134 186 238 290 361 417
#     4  10  22  40  68 102 142 184 234 293 355 424
#     4  12  20  36  62 106 122 168 242 286 340 424
#     4  11  20  41  68  97 134 189 241 291 349 425
#     4  11  22  44  63  96 145 185 230 301 353 415
#
# _framework density 25.253314
#
# number of rings (size 3 to 8) (size 9 to 14) (size 15 to 20)
#    0.000    1.231    3.846    5.077    0.000    1.231 
#    0.000    8.462    0.000   11.077    0.000    0.000 
#    0.000    0.000    0.000    0.000    0.000    0.000 
#
# Total GULP energy -144954.457065 kJ/mol
# GULP energy per Si atom -5575.171426 kJ/mol
# Density = 2.519584 g / cm^3
# Si number density = 25.253314 Si / 1000 Ang^3
#
#
#
# Elastic Constant Matrix: (Units=GPa)
#
#
# Indices 1 2 3 4 5 6 
#
# 1 188.1198 13.8963 5.9984 0.0000 -1.2977 0.0000
# 2 13.8963 81.4682 -2.6103 0.0000 8.9975 0.0000
# 3 5.9984 -2.6103 48.7756 0.0000 -5.6367 0.0000
# 4 0.0000 0.0000 0.0000 25.6637 0.0000 2.4515
# 5 -1.2977 8.9975 -5.6367 0.0000 49.9322 0.0000
# 6 0.0000 0.0000 0.0000 2.4515 0.0000 5.6089
#
#
#
# Elastic Compliance Matrix: (Units=1/GPa)
#
#
# Indices 1 2 3 4 5 6 
#
# 1 0.005411 -0.000971 -0.000690 0.000000 0.000238 0.000000
# 2 -0.000971 0.012707 0.000539 0.000000 -0.002254 0.000000
# 3 -0.000690 0.000539 0.020875 0.000000 0.002241 0.000000
# 4 0.000000 0.000000 0.000000 0.040663 0.000000 -0.017773
# 5 0.000238 -0.002254 0.002241 0.000000 0.020693 0.000000
# 6 0.000000 0.000000 0.000000 -0.017773 0.000000 0.186056
#
#
# Mechanical properties :
#
#
# Convention : Reuss Voigt Hill
#
# Bulk Modulus (GPa) = 27.21245 39.21470 33.21357
# Shear Modulus (GPa) = 16.61692 36.31291 26.46491
#
# Velocity S-wave (km/s) = 2.56795 3.79614 3.24076
# Velocity P-wave (km/s) = 4.42625 5.89716 5.21384
#
# Compressibility (1/GPa) = 0.03674789
#
# Stress axis : x y z
#
# Youngs Moduli (GPa) = 184.80337 78.69910 47.90471
#
# Poissons Ratio (x) = 0.07645 0.03305
# Poissons Ratio (y) = 0.17951 -0.02582
# Poissons Ratio (z) = 0.12751 -0.04242
#
# Static dielectric constant tensor:
#      x y z
#    x 2.042630 0.000000 -0.071250 
#    y 0.000000 2.183390 0.000000 
#    z -0.071250 0.000000 2.087690 
# 
# From -- ./inp_files/269984.got.cif
#   From: 2010.05.17/outbox.cif.g08.bks.cpg/sg15_135_cif.got.tgz:269984.got - 2010.06.03 18:47:42.
