data_PCOD9286662
_publ_section_title
;
Structure prediction by ZEFSAII (Michael W. Deem and Ramdas Pophale) SiO2 
 PCOD9286662
Probable space group: C 2/C
;
_chemical_formula_sum "Si O2"
_cell_formula_units_Z 44
_cell_length_a 23.361067
_cell_length_b 5.279609
_cell_length_c 13.231460
_cell_angle_alpha 90.000000
_cell_angle_beta 86.699367
_cell_angle_gamma 90.000000
_cell_volume 1629.225465
_symmetry_space_group_name_H-M "C 2/C"
_symmetry_group_IT_number 15
_symmetry_cell_setting 'monoclinic'
loop_
_space_group_symop_operation_xyz
x,y,z
-x,y,1/2-z
-x,-y,-z
x,-y,1/2+z
1/2+x,1/2+y,z
1/2-x,1/2+y,1/2-z
1/2-x,1/2-y,-z
1/2+x,1/2-y,1/2+z
loop_
_atom_site_type_symbol
_atom_site_label
_atom_site_fract_x
_atom_site_fract_y
_atom_site_fract_z
Si Si1 0.446350 0.316091 0.934371
Si Si2 0.403849 0.346539 0.283764
Si Si3 0.000000 0.476984 0.250000
Si Si4 0.738550 0.656722 0.818635
Si Si5 0.336894 0.050626 0.439424
Si Si6 0.623847 0.553900 0.398369
O O1 0.443407 0.571229 0.871328
O O2 0.489475 0.157368 0.860612
O O3 0.388123 0.150681 0.932442
O O4 0.433672 0.438167 0.045287
O O5 0.442230 0.132732 0.231483
O O6 0.348210 0.241578 0.344326
O O7 0.393440 0.592119 0.216247
O O8 0.754654 0.919150 0.760942
O O9 0.779498 0.589616 0.910235
O O10 0.674226 0.652976 0.871806
O O11 0.347101 0.225312 0.538102
#
# Coordination Sequence:
#
# PCOD9286662 Si02
#       6
#     8   8   4   8   8   8
#     4  10  23  42  68  96 136 178 234 298 354 429
#     4  10  21  44  64  98 137 183 231 295 353 420
#     4  10  22  42  70  94 134 184 232 296 366 418
#     4  12  26  44  72 105 147 198 236 288 356 421
#     4  10  23  41  65 100 138 188 234 288 349 420
#     4  11  24  41  69 101 138 184 236 293 351 426
#
# _framework density 27.006698
#
# number of rings (size 3 to 8) (size 9 to 14) (size 15 to 20)
#    0.000    1.455    1.818    2.182    5.091    4.364 
#    0.000   12.727    0.000    0.000    0.000    0.000 
#    0.000    0.000    0.000    0.000    0.000    0.000 
#
# Total GULP energy -122669.933628 kJ/mol
# GULP energy per Si atom -5575.906074 kJ/mol
# Density = 2.694523 g / cm^3
# Si number density = 27.006698 Si / 1000 Ang^3
#
#
#
# Elastic Constant Matrix: (Units=GPa)
#
#
# Indices 1 2 3 4 5 6 
#
# 1 64.1609 14.8996 25.9483 0.0000 -8.9682 0.0000
# 2 14.8996 108.8213 41.8528 0.0000 -4.7205 0.0000
# 3 25.9483 41.8528 133.3434 0.0000 -4.3772 0.0000
# 4 0.0000 0.0000 0.0000 52.0149 0.0000 -12.7725
# 5 -8.9682 -4.7205 -4.3772 0.0000 41.4785 0.0000
# 6 0.0000 0.0000 0.0000 -12.7725 0.0000 18.7040
#
#
#
# Elastic Compliance Matrix: (Units=1/GPa)
#
#
# Indices 1 2 3 4 5 6 
#
# 1 0.017505 -0.001119 -0.002945 0.000000 0.003347 0.000000
# 2 -0.001119 0.010552 -0.003073 0.000000 0.000635 0.000000
# 3 -0.002945 -0.003073 0.009036 0.000000 -0.000033 0.000000
# 4 0.000000 0.000000 0.000000 0.023099 0.000000 0.015773
# 5 0.003347 0.000635 -0.000033 0.000000 0.024901 0.000000
# 6 0.000000 0.000000 0.000000 0.015773 0.000000 0.064236
#
#
# Mechanical properties :
#
#
# Convention : Reuss Voigt Hill
#
# Bulk Modulus (GPa) = 43.82552 52.41410 48.11981
# Shear Modulus (GPa) = 29.20399 37.34780 33.27590
#
# Velocity S-wave (km/s) = 3.29197 3.72278 3.51399
# Velocity P-wave (km/s) = 5.54187 6.15863 5.85837
#
# Compressibility (1/GPa) = 0.02281776
#
# Stress axis : x y z
#
# Youngs Moduli (GPa) = 57.12796 94.76742 110.66608
#
# Poissons Ratio (x) = 0.10602 0.32595
# Poissons Ratio (y) = 0.06391 0.34013
# Poissons Ratio (z) = 0.16826 0.29127
#
# Static dielectric constant tensor:
#      x y z
#    x 2.241130 0.000000 0.007620 
#    y 0.000000 2.103210 0.000000 
#    z 0.007620 0.000000 2.172870 
# 
# From -- ./inp_files/124995.got.cif
#   From: 2010.05.17/outbox.cif.g08.bks.cpg/sg15_63_cif.got.tgz:124995.got - 2010.06.03 18:47:42.
