data_PCOD9286479
_publ_section_title
;
Structure prediction by ZEFSAII (Michael W. Deem and Ramdas Pophale) SiO2 
 PCOD9286479
Probable space group: C 2/C
;
_chemical_formula_sum "Si O2"
_cell_formula_units_Z 44
_cell_length_a 23.623025
_cell_length_b 14.733454
_cell_length_c 8.298094
_cell_angle_alpha 90.000000
_cell_angle_beta 136.855434
_cell_angle_gamma 90.000000
_cell_volume 1975.030865
_symmetry_space_group_name_H-M "C 2/C"
_symmetry_group_IT_number 15
_symmetry_cell_setting 'monoclinic'
loop_
_space_group_symop_operation_xyz
x,y,z
-x,y,1/2-z
-x,-y,-z
x,-y,1/2+z
1/2+x,1/2+y,z
1/2-x,1/2+y,1/2-z
1/2-x,1/2-y,-z
1/2+x,1/2-y,1/2+z
loop_
_atom_site_type_symbol
_atom_site_label
_atom_site_fract_x
_atom_site_fract_y
_atom_site_fract_z
Si Si1 0.155182 0.908933 0.492259
Si Si2 0.157016 0.630204 0.103121
Si Si3 0.049454 0.781688 0.049105
Si Si4 0.575612 0.429017 0.674698
Si Si5 0.500000 0.160262 0.250000
Si Si6 0.091424 0.535607 0.648099
O O1 0.244433 0.863867 0.702420
O O2 0.112477 0.853004 0.260372
O O3 0.107117 0.903506 0.562309
O O4 0.145720 0.015308 0.418765
O O5 0.100732 0.715223 0.038539
O O6 0.143547 0.551267 0.207396
O O7 0.124914 0.592600 0.866125
O O8 0.020685 0.718795 0.137789
O O9 0.967352 0.840992 0.835791
O O10 0.500000 0.500000 0.500000
O O11 0.577465 0.098220 0.462713
O O12 0.000000 0.500000 0.500000
#
# Coordination Sequence:
#
# PCOD9286479 Si02
#       6
#     8   8   8   8   4   8
#     4  11  23  44  67 103 139 176 220 289 345 395
#     4  12  24  42  70 100 137 173 227 284 350 394
#     4  11  22  42  67  99 136 180 226 278 322 415
#     4  10  21  43  69  98 134 185 230 270 331 419
#     4  12  22  42  68  90 128 170 234 268 328 396
#     4  12  23  42  66  94 127 182 223 274 332 421
#
# _framework density 22.278134000000001
#
# number of rings (size 3 to 8) (size 9 to 14) (size 15 to 20)
#    0.000    0.727    5.455    3.273    0.000    0.000 
#   13.091    0.909    0.000    0.000    0.000    0.000 
#    0.000    0.000    0.000    0.000    0.000    0.000 
#
# Total GULP energy -122956.260815 kJ/mol
# GULP energy per Si atom -5588.920946 kJ/mol
# Density = 2.222743 g / cm^3
# Si number density = 22.278134 Si / 1000 Ang^3
#
#
#
# Elastic Constant Matrix: (Units=GPa)
#
#
# Indices 1 2 3 4 5 6 
#
# 1 87.6918 51.2176 9.5375 0.0000 -10.8107 0.0000
# 2 51.2176 142.4082 45.3803 0.0000 -6.5759 0.0000
# 3 9.5375 45.3803 75.6055 0.0000 -8.0622 0.0000
# 4 0.0000 0.0000 0.0000 41.3969 0.0000 -11.1082
# 5 -10.8107 -6.5759 -8.0622 0.0000 35.6536 0.0000
# 6 0.0000 0.0000 0.0000 -11.1082 0.0000 29.5644
#
#
#
# Elastic Compliance Matrix: (Units=1/GPa)
#
#
# Indices 1 2 3 4 5 6 
#
# 1 0.015121 -0.005913 0.002064 0.000000 0.003961 0.000000
# 2 -0.005913 0.011002 -0.005977 0.000000 -0.001115 0.000000
# 3 0.002064 -0.005977 0.016910 0.000000 0.003347 0.000000
# 4 0.000000 0.000000 0.000000 0.026865 0.000000 0.010094
# 5 0.003961 -0.001115 0.003347 0.000000 0.029800 0.000000
# 6 0.000000 0.000000 0.000000 0.010094 0.000000 0.037617
#
#
# Mechanical properties :
#
#
# Convention : Reuss Voigt Hill
#
# Bulk Modulus (GPa) = 42.76780 57.55291 50.16035
# Shear Modulus (GPa) = 30.34709 34.62765 32.48737
#
# Velocity S-wave (km/s) = 3.69479 3.94678 3.82286
# Velocity P-wave (km/s) = 6.11889 6.83076 6.48461
#
# Compressibility (1/GPa) = 0.02338208
#
# Stress axis : x y z
#
# Youngs Moduli (GPa) = 66.13280 90.89447 59.13527
#
# Poissons Ratio (x) = 0.53748 -0.12206
# Poissons Ratio (y) = 0.39106 0.35342
# Poissons Ratio (z) = -0.13651 0.54323
#
# Static dielectric constant tensor:
#      x y z
#    x 1.829570 0.000000 0.020460 
#    y 0.000000 1.904430 0.000000 
#    z 0.020460 0.000000 1.875190 
# 
# From -- ./inp_files/66350.got.cif
#   From: 2010.05.17/outbox.cif.g08.bks.cpg/sg15_34_cif.got.tgz:66350.got - 2010.06.03 18:47:42.
