data_PCOD9286333
_publ_section_title
;
Structure prediction by ZEFSAII (Michael W. Deem and Ramdas Pophale) SiO2 
 PCOD9286333
Probable space group: C 2/C
;
_chemical_formula_sum "Si O2"
_cell_formula_units_Z 48
_cell_length_a 21.957862
_cell_length_b 10.946234
_cell_length_c 10.570599
_cell_angle_alpha 90.000000
_cell_angle_beta 48.919634
_cell_angle_gamma 90.000000
_cell_volume 1915.155101
_symmetry_space_group_name_H-M "C 2/C"
_symmetry_group_IT_number 15
_symmetry_cell_setting 'monoclinic'
loop_
_space_group_symop_operation_xyz
x,y,z
-x,y,1/2-z
-x,-y,-z
x,-y,1/2+z
1/2+x,1/2+y,z
1/2-x,1/2+y,1/2-z
1/2-x,1/2-y,-z
1/2+x,1/2-y,1/2+z
loop_
_atom_site_type_symbol
_atom_site_label
_atom_site_fract_x
_atom_site_fract_y
_atom_site_fract_z
Si Si1 0.377768 0.929809 0.094348
Si Si2 0.628888 0.481426 0.563758
Si Si3 0.000000 0.825365 0.250000
Si Si4 0.563785 0.756620 0.296983
Si Si5 0.500000 0.970909 0.250000
Si Si6 0.599649 0.192704 0.326975
Si Si7 0.283595 0.597306 0.812784
O O1 0.375733 0.052609 0.181750
O O2 0.379154 0.801783 0.166977
O O3 0.310849 0.921574 0.077981
O O4 0.464276 0.951008 0.911093
O O5 0.562033 0.577433 0.603563
O O6 0.587665 0.363317 0.688386
O O7 0.681273 0.535395 0.608747
O O8 0.680361 0.450524 0.370090
O O9 0.059830 0.745345 0.253326
O O10 0.567882 0.876210 0.202632
O O11 0.471863 0.761418 0.477885
O O12 0.683045 0.265536 0.229100
#
# Coordination Sequence:
#
# PCOD9286333 Si02
#       7
#     8   8   4   8   4   8   8
#     4  11  26  42  69 104 142 188 234 297 360 426
#     4  11  23  44  73 106 144 186 243 291 363 424
#     4  10  21  43  72 104 138 193 237 300 348 422
#     4  11  23  41  75 100 132 186 239 301 344 428
#     4  10  21  43  66  98 136 183 239 290 352 426
#     4  10  22  45  70 105 144 185 243 289 357 424
#     4  11  26  44  69 107 149 190 231 298 359 430
#
# _framework density 25.063244999999998
#
# number of rings (size 3 to 8) (size 9 to 14) (size 15 to 20)
#    0.000    1.333    0.000    6.500    4.667    6.000 
#    0.000    1.667    0.000    0.000    0.000    0.000 
#    0.000    0.000    0.000    0.000    0.000    0.000 
#
# Total GULP energy -134112.374007 kJ/mol
# GULP energy per Si atom -5588.015584 kJ/mol
# Density = 2.500620 g / cm^3
# Si number density = 25.063245 Si / 1000 Ang^3
#
#
#
# Elastic Constant Matrix: (Units=GPa)
#
#
# Indices 1 2 3 4 5 6 
#
# 1 140.2834 45.3552 6.3503 0.0000 -8.0039 0.0000
# 2 45.3552 130.3491 28.8860 0.0000 -5.1757 0.0000
# 3 6.3503 28.8860 59.9089 0.0000 11.8719 0.0000
# 4 0.0000 0.0000 0.0000 17.6649 0.0000 -4.6642
# 5 -8.0039 -5.1757 11.8719 0.0000 37.5330 0.0000
# 6 0.0000 0.0000 0.0000 -4.6642 0.0000 34.7680
#
#
#
# Elastic Compliance Matrix: (Units=1/GPa)
#
#
# Indices 1 2 3 4 5 6 
#
# 1 0.008102 -0.002826 0.000254 0.000000 0.001258 0.000000
# 2 -0.002826 0.009832 -0.004897 0.000000 0.002302 0.000000
# 3 0.000254 -0.004897 0.020430 0.000000 -0.007083 0.000000
# 4 0.000000 0.000000 0.000000 0.058688 0.000000 0.007873
# 5 0.001258 0.002302 -0.007083 0.000000 0.029469 0.000000
# 6 0.000000 0.000000 0.000000 0.007873 0.000000 0.029818
#
#
# Mechanical properties :
#
#
# Convention : Reuss Voigt Hill
#
# Bulk Modulus (GPa) = 42.68596 54.63602 48.66099
# Shear Modulus (GPa) = 27.91969 34.65653 31.28811
#
# Velocity S-wave (km/s) = 3.34124 3.72259 3.53706
# Velocity P-wave (km/s) = 5.65274 6.35007 6.01153
#
# Compressibility (1/GPa) = 0.02342690
#
# Stress axis : x y z
#
# Youngs Moduli (GPa) = 123.42295 101.71380 48.94787
#
# Poissons Ratio (x) = 0.28740 -0.01245
# Poissons Ratio (y) = 0.34874 0.23970
# Poissons Ratio (z) = -0.03139 0.49810
#
# Static dielectric constant tensor:
#      x y z
#    x 2.043830 0.000000 0.083710 
#    y 0.000000 1.985460 0.000000 
#    z 0.083710 0.000000 2.096810 
# 
# From -- ./inp_files/111483.got.cif
#   From: 2010.05.17/outbox.cif.g08.bks.cpg/sg15_56_cif.got.tgz:111483.got - 2010.06.03 18:47:42.
