data_PCOD9286493
_publ_section_title
;
Structure prediction by ZEFSAII (Michael W. Deem and Ramdas Pophale) SiO2 
 PCOD9286493
Probable space group: C 2/C
;
_chemical_formula_sum "Si O2"
_cell_formula_units_Z 56
_cell_length_a 28.419728
_cell_length_b 15.439626
_cell_length_c 7.908889
_cell_angle_alpha 90.000000
_cell_angle_beta 43.924561
_cell_angle_gamma 90.000000
_cell_volume 2407.412611
_symmetry_space_group_name_H-M "C 2/C"
_symmetry_group_IT_number 15
_symmetry_cell_setting 'monoclinic'
loop_
_space_group_symop_operation_xyz
x,y,z
-x,y,1/2-z
-x,-y,-z
x,-y,1/2+z
1/2+x,1/2+y,z
1/2-x,1/2+y,1/2-z
1/2-x,1/2-y,-z
1/2+x,1/2-y,1/2+z
loop_
_atom_site_type_symbol
_atom_site_label
_atom_site_fract_x
_atom_site_fract_y
_atom_site_fract_z
Si Si1 0.655263 0.275352 0.386549
Si Si2 0.897163 0.030096 0.263005
Si Si3 0.000000 0.715040 0.250000
Si Si4 0.911784 0.822296 0.260521
Si Si5 0.242348 0.607299 0.083550
Si Si6 0.856294 0.716087 0.702361
Si Si7 0.500000 0.480772 0.750000
Si Si8 0.255432 0.425911 0.944387
O O1 0.596055 0.282912 0.404434
O O2 0.691210 0.185347 0.243485
O O3 0.643203 0.266260 0.618485
O O4 0.703663 0.353939 0.192594
O O5 0.901841 0.925476 0.279028
O O6 0.826141 0.058228 0.364816
O O7 0.956794 0.043783 0.977328
O O8 0.936777 0.068043 0.323433
O O9 0.980107 0.780271 0.152084
O O10 0.929684 0.669258 0.485390
O O11 0.782864 0.517143 0.427618
O O12 0.208602 0.653019 0.630235
O O13 0.264269 0.584413 0.219983
O O14 0.857937 0.780740 0.536517
#
# Coordination Sequence:
#
# PCOD9286493 Si02
#       8
#     8   8   4   8   8   8   4   8
#     4  10  21  44  67 100 141 189 248 307 362 443
#     4  11  22  43  68 101 144 195 245 292 375 443
#     4   8  21  42  70 110 143 190 256 300 375 436
#     4  10  21  43  70 105 141 191 252 299 362 447
#     4  10  23  41  64 102 142 192 246 296 376 440
#     4   9  23  44  71 105 149 189 249 312 371 435
#     4  10  25  42  64 100 149 186 240 304 369 446
#     4  11  22  43  69 102 150 196 239 310 377 437
#
# _framework density 23.261488
#
# number of rings (size 3 to 8) (size 9 to 14) (size 15 to 20)
#    0.857    1.143    1.429    1.286    2.000    1.714 
#    5.143    2.143    0.000    7.714    0.000    0.000 
#    0.000    0.000    0.000    0.000    0.000    0.000 
#
# Total GULP energy -155970.336423 kJ/mol
# GULP energy per Si atom -5570.369158 kJ/mol
# Density = 2.320854 g / cm^3
# Si number density = 23.261488 Si / 1000 Ang^3
#
#
#
# Elastic Constant Matrix: (Units=GPa)
#
#
# Indices 1 2 3 4 5 6 
#
# 1 156.9314 51.0110 37.3330 0.0000 0.1290 0.0000
# 2 51.0110 99.6365 40.2457 0.0000 5.5645 0.0000
# 3 37.3330 40.2457 130.8510 0.0000 4.3362 0.0000
# 4 0.0000 0.0000 0.0000 35.2338 0.0000 1.1634
# 5 0.1290 5.5645 4.3362 0.0000 37.2858 0.0000
# 6 0.0000 0.0000 0.0000 1.1634 0.0000 34.1529
#
#
#
# Elastic Compliance Matrix: (Units=1/GPa)
#
#
# Indices 1 2 3 4 5 6 
#
# 1 0.007805 -0.003567 -0.001151 0.000000 0.000639 0.000000
# 2 -0.003567 0.013154 -0.002975 0.000000 -0.001605 0.000000
# 3 -0.001151 -0.002975 0.008905 0.000000 -0.000588 0.000000
# 4 0.000000 0.000000 0.000000 0.028414 0.000000 -0.000968
# 5 0.000639 -0.001605 -0.000588 0.000000 0.027125 0.000000
# 6 0.000000 0.000000 0.000000 -0.000968 0.000000 0.029313
#
#
# Mechanical properties :
#
#
# Convention : Reuss Voigt Hill
#
# Bulk Modulus (GPa) = 69.06715 71.62203 70.34459
# Shear Modulus (GPa) = 37.05698 38.58978 37.82338
#
# Velocity S-wave (km/s) = 3.99565 4.07745 4.03675
# Velocity P-wave (km/s) = 7.14444 7.28177 7.21343
#
# Compressibility (1/GPa) = 0.01447866
#
# Stress axis : x y z
#
# Youngs Moduli (GPa) = 128.12551 76.02390 112.29481
#
# Poissons Ratio (x) = 0.27115 0.12925
# Poissons Ratio (y) = 0.45698 0.33407
# Poissons Ratio (z) = 0.14747 0.22616
#
# Static dielectric constant tensor:
#      x y z
#    x 2.038290 0.000000 0.030970 
#    y 0.000000 1.902620 0.000000 
#    z 0.030970 0.000000 1.967970 
# 
# From -- ./inp_files/67335.got.cif
#   From: 2010.05.17/outbox.cif.g08.bks.cpg/sg15_34_cif.got.tgz:67335.got - 2010.06.03 18:47:42.
