data_PCOD9286292
_publ_section_title
;
Structure prediction by ZEFSAII (Michael W. Deem and Ramdas Pophale) SiO2 
 PCOD9286292
Probable space group: C 2/C
;
_chemical_formula_sum "Si O2"
_cell_formula_units_Z 48
_cell_length_a 12.816701
_cell_length_b 11.842779
_cell_length_c 21.355115
_cell_angle_alpha 90.000000
_cell_angle_beta 46.987472
_cell_angle_gamma 90.000000
_cell_volume 2370.121907
_symmetry_space_group_name_H-M "C 2/C"
_symmetry_group_IT_number 15
_symmetry_cell_setting 'monoclinic'
loop_
_space_group_symop_operation_xyz
x,y,z
-x,y,1/2-z
-x,-y,-z
x,-y,1/2+z
1/2+x,1/2+y,z
1/2-x,1/2+y,1/2-z
1/2-x,1/2-y,-z
1/2+x,1/2-y,1/2+z
loop_
_atom_site_type_symbol
_atom_site_label
_atom_site_fract_x
_atom_site_fract_y
_atom_site_fract_z
Si Si1 0.224566 0.616866 0.500448
Si Si2 0.231303 0.727583 0.713137
Si Si3 0.840405 0.037276 0.326247
Si Si4 0.124851 0.632010 0.246741
Si Si5 0.336325 0.527993 0.584310
Si Si6 0.918613 0.565235 0.640611
O O1 0.250000 0.750000 0.500000
O O2 0.321250 0.564101 0.406975
O O3 0.254387 0.553740 0.553326
O O4 0.061909 0.595272 0.545982
O O5 0.181508 0.841242 0.699271
O O6 0.323909 0.761979 0.735069
O O7 0.315799 0.641855 0.633779
O O8 0.101509 0.660737 0.797974
O O9 0.000000 0.994841 0.250000
O O10 0.717590 0.956818 0.347958
O O11 0.256204 0.569909 0.156898
O O12 0.067998 0.546728 0.323153
O O13 0.000000 0.656460 0.250000
O O14 0.500000 0.500000 0.500000
#
# Coordination Sequence:
#
# PCOD9286292 Si02
#       6
#     8   8   8   8   8   8
#     4  12  23  40  68  91 127 167 220 270 317 378
#     4  10  23  40  65  93 129 162 221 257 323 388
#     4  11  24  40  66  95 128 169 215 269 330 383
#     4  10  21  43  66  88 129 174 206 260 327 387
#     4  11  25  42  63  98 130 168 215 272 326 382
#     4  10  23  41  63  93 127 166 215 269 317 385
#
# _framework density 20.252123000000001
#
# number of rings (size 3 to 8) (size 9 to 14) (size 15 to 20)
#    0.000    1.333    3.333    1.500    9.333    0.667 
#    0.000    0.833    0.000    0.000    0.000    0.000 
#    0.000    0.000    0.000    0.000    0.000    0.000 
#
# Total GULP energy -134065.425371 kJ/mol
# GULP energy per Si atom -5586.059390 kJ/mol
# Density = 2.020603 g / cm^3
# Si number density = 20.252123 Si / 1000 Ang^3
#
#
#
# Elastic Constant Matrix: (Units=GPa)
#
#
# Indices 1 2 3 4 5 6 
#
# 1 112.1425 23.9125 33.4557 0.0000 -3.1650 0.0000
# 2 23.9125 38.7264 21.1104 0.0000 1.1235 0.0000
# 3 33.4557 21.1104 105.9439 0.0000 -12.1374 0.0000
# 4 0.0000 0.0000 0.0000 3.1004 0.0000 3.8228
# 5 -3.1650 1.1235 -12.1374 0.0000 45.0941 0.0000
# 6 0.0000 0.0000 0.0000 3.8228 0.0000 19.0258
#
#
#
# Elastic Compliance Matrix: (Units=1/GPa)
#
#
# Indices 1 2 3 4 5 6 
#
# 1 0.010760 -0.005404 -0.002290 0.000000 0.000274 0.000000
# 2 -0.005404 0.031926 -0.004942 0.000000 -0.002505 0.000000
# 3 -0.002290 -0.004942 0.011497 0.000000 0.003057 0.000000
# 4 0.000000 0.000000 0.000000 0.428773 0.000000 -0.086153
# 5 0.000274 -0.002505 0.003057 0.000000 0.023080 0.000000
# 6 0.000000 0.000000 0.000000 -0.086153 0.000000 0.069871
#
#
# Mechanical properties :
#
#
# Convention : Reuss Voigt Hill
#
# Bulk Modulus (GPa) = 34.58837 45.97443 40.28140
# Shear Modulus (GPa) = 8.18577 25.33299 16.75938
#
# Velocity S-wave (km/s) = 2.01264 3.54062 2.87982
# Velocity P-wave (km/s) = 4.74520 6.28211 5.56695
#
# Compressibility (1/GPa) = 0.02891145
#
# Stress axis : x y z
#
# Youngs Moduli (GPa) = 92.93348 31.32283 86.97908
#
# Poissons Ratio (x) = 0.16927 0.19917
# Poissons Ratio (y) = 0.50221 0.42985
# Poissons Ratio (z) = 0.21280 0.15480
#
# Static dielectric constant tensor:
#      x y z
#    x 1.724410 0.000000 -0.012980 
#    y 0.000000 1.756070 0.000000 
#    z -0.012980 0.000000 1.731950 
# 
# From -- ./inp_files/237243.got.cif
#   From: 2010.05.17/outbox.cif.g08.bks.cpg/sg15_119_cif.got.tgz:237243.got - 2010.06.03 18:47:42.
