data_PCOD9286647
_publ_section_title
;
Structure prediction by ZEFSAII (Michael W. Deem and Ramdas Pophale) SiO2 
 PCOD9286647
Probable space group: C 2/C
;
_chemical_formula_sum "Si O2"
_cell_formula_units_Z 44
_cell_length_a 26.610535
_cell_length_b 5.298375
_cell_length_c 12.825023
_cell_angle_alpha 90.000000
_cell_angle_beta 105.626078
_cell_angle_gamma 90.000000
_cell_volume 1741.401077
_symmetry_space_group_name_H-M "C 2/C"
_symmetry_group_IT_number 15
_symmetry_cell_setting 'monoclinic'
loop_
_space_group_symop_operation_xyz
x,y,z
-x,y,1/2-z
-x,-y,-z
x,-y,1/2+z
1/2+x,1/2+y,z
1/2-x,1/2+y,1/2-z
1/2-x,1/2-y,-z
1/2+x,1/2-y,1/2+z
loop_
_atom_site_type_symbol
_atom_site_label
_atom_site_fract_x
_atom_site_fract_y
_atom_site_fract_z
Si Si1 0.260401 0.837102 0.819538
Si Si2 0.901926 0.921674 0.311769
Si Si3 0.500000 0.636304 0.250000
Si Si4 0.422623 0.826764 0.046810
Si Si5 0.332357 0.506614 0.598379
Si Si6 0.648118 0.823645 0.074507
O O1 0.243888 0.058933 0.729245
O O2 0.218341 0.869832 0.886879
O O3 0.318194 0.928257 0.882767
O O4 0.953939 0.976849 0.276174
O O5 0.871741 0.172733 0.336718
O O6 0.920512 0.783772 0.427905
O O7 0.859153 0.821363 0.204353
O O8 0.474764 0.795989 0.141583
O O9 0.377505 0.686286 0.087692
O O10 0.404134 0.110928 0.018772
O O11 0.318472 0.661461 0.487421
#
# Coordination Sequence:
#
# PCOD9286647 Si02
#       6
#     8   8   4   8   8   8
#     4  12  26  43  71 105 144 190 232 284 348 420
#     4  10  21  44  63  97 132 177 224 285 346 418
#     4  10  22  40  68  96 128 178 226 286 358 408
#     4  10  23  41  67  93 135 171 231 284 350 415
#     4  10  23  42  65  97 134 181 228 279 347 412
#     4  11  24  41  67  96 135 179 228 287 344 417
#
# _framework density 25.267012999999999
#
# number of rings (size 3 to 8) (size 9 to 14) (size 15 to 20)
#    0.000    1.455    1.818    2.182    5.091    4.364 
#    0.000    9.091    0.000    0.000    0.000    0.000 
#    0.000    0.000    0.000    0.000    0.000    0.000 
#
# Total GULP energy -123104.066850 kJ/mol
# GULP energy per Si atom -5595.639402 kJ/mol
# Density = 2.520950 g / cm^3
# Si number density = 25.267013 Si / 1000 Ang^3
#
#
#
# Elastic Constant Matrix: (Units=GPa)
#
#
# Indices 1 2 3 4 5 6 
#
# 1 115.1397 3.6308 58.8596 0.0000 -6.0049 0.0000
# 2 3.6308 36.5980 34.3194 0.0000 3.9395 0.0000
# 3 58.8596 34.3194 154.9418 0.0000 1.1002 0.0000
# 4 0.0000 0.0000 0.0000 26.1342 0.0000 9.5589
# 5 -6.0049 3.9395 1.1002 0.0000 54.4040 0.0000
# 6 0.0000 0.0000 0.0000 9.5589 0.0000 18.3945
#
#
#
# Elastic Compliance Matrix: (Units=1/GPa)
#
#
# Indices 1 2 3 4 5 6 
#
# 1 0.011208 0.003498 -0.005040 0.000000 0.001086 0.000000
# 2 0.003498 0.035880 -0.009262 0.000000 -0.002025 0.000000
# 3 -0.005040 -0.009262 0.010421 0.000000 -0.000096 0.000000
# 4 0.000000 0.000000 0.000000 0.047244 0.000000 -0.024551
# 5 0.001086 -0.002025 -0.000096 0.000000 0.018649 0.000000
# 6 0.000000 0.000000 0.000000 -0.024551 0.000000 0.067122
#
#
# Mechanical properties :
#
#
# Convention : Reuss Voigt Hill
#
# Bulk Modulus (GPa) = 27.85503 55.58881 41.72192
# Shear Modulus (GPa) = 22.31157 33.77786 28.04471
#
# Velocity S-wave (km/s) = 2.97481 3.66024 3.33518
# Velocity P-wave (km/s) = 4.77991 6.31755 5.60174
#
# Compressibility (1/GPa) = 0.03590016
#
# Stress axis : x y z
#
# Youngs Moduli (GPa) = 89.22242 27.87082 95.96195
#
# Poissons Ratio (x) = -0.09748 0.48366
# Poissons Ratio (y) = -0.31206 0.88876
# Poissons Ratio (z) = 0.44969 0.25813
#
# Static dielectric constant tensor:
#      x y z
#    x 1.953510 0.000000 0.038120 
#    y 0.000000 2.036300 0.000000 
#    z 0.038120 0.000000 2.056660 
# 
# From -- ./inp_files/124958.got.cif
#   From: 2010.05.17/outbox.cif.g08.bks.cpg/sg15_63_cif.got.tgz:124958.got - 2010.06.03 18:47:42.
