data_PCOD9286695
_publ_section_title
;
Structure prediction by ZEFSAII (Michael W. Deem and Ramdas Pophale) SiO2 
 PCOD9286695
Probable space group: C 2/C
;
_chemical_formula_sum "Si O2"
_cell_formula_units_Z 64
_cell_length_a 8.172715
_cell_length_b 15.843023
_cell_length_c 27.562468
_cell_angle_alpha 90.000000
_cell_angle_beta 51.472440
_cell_angle_gamma 90.000000
_cell_volume 2791.904960
_symmetry_space_group_name_H-M "C 2/C"
_symmetry_group_IT_number 15
_symmetry_cell_setting 'monoclinic'
loop_
_space_group_symop_operation_xyz
x,y,z
-x,y,1/2-z
-x,-y,-z
x,-y,1/2+z
1/2+x,1/2+y,z
1/2-x,1/2+y,1/2-z
1/2-x,1/2-y,-z
1/2+x,1/2-y,1/2+z
loop_
_atom_site_type_symbol
_atom_site_label
_atom_site_fract_x
_atom_site_fract_y
_atom_site_fract_z
Si Si1 0.522545 0.404984 0.515239
Si Si2 0.341290 0.332938 0.100894
Si Si3 0.934478 0.833700 0.196385
Si Si4 0.786965 0.295113 0.888505
Si Si5 0.991752 0.367913 0.463646
Si Si6 0.763673 0.986218 0.345395
Si Si7 0.127043 0.349055 0.907458
Si Si8 0.550352 0.072112 0.795300
O O1 0.500000 0.500000 0.500000
O O2 0.490293 0.352859 0.471169
O O3 0.360244 0.377637 0.586853
O O4 0.751950 0.375420 0.490124
O O5 0.427471 0.337205 0.139267
O O6 0.259374 0.239750 0.104667
O O7 0.153439 0.398791 0.137956
O O8 0.701675 0.845883 0.259600
O O9 0.069214 0.748968 0.179526
O O10 0.049872 0.919428 0.190148
O O11 0.618961 0.219377 0.930646
O O12 0.950105 0.325657 0.900290
O O13 0.982239 0.378945 0.523078
O O14 0.109048 0.440456 0.412100
O O15 0.664850 0.990975 0.310172
O O16 0.786935 0.080463 0.359716
O O17 0.500000 0.042612 0.750000
#
# Coordination Sequence:
#
# PCOD9286695 Si02
#       8
#     8   8   8   8   8   8   8   8
#     4  12  24  36  61  97 138 170 220 265 332 399
#     4  10  22  41  64  91 129 177 207 260 333 394
#     4   9  22  39  65  87 118 171 214 269 320 384
#     4  10  22  39  61  93 134 172 211 259 328 398
#     4  11  22  38  60  94 133 176 204 255 326 411
#     4  11  22  38  65  95 123 161 220 266 325 385
#     4  11  23  38  62  97 134 162 210 266 331 393
#     4  10  21  44  66  84 119 169 221 264 326 390
#
# _framework density 22.923418000000002
#
# number of rings (size 3 to 8) (size 9 to 14) (size 15 to 20)
#    0.000    1.500    2.500    2.250    5.250    0.000 
#    0.000    6.250    0.000   13.500    0.000    0.000 
#    0.000    0.000    0.000    0.000    0.000    0.000 
#
# Total GULP energy -178425.172011 kJ/mol
# GULP energy per Si atom -5575.786625 kJ/mol
# Density = 2.287124 g / cm^3
# Si number density = 22.923418 Si / 1000 Ang^3
#
#
#
# Elastic Constant Matrix: (Units=GPa)
#
#
# Indices 1 2 3 4 5 6 
#
# 1 43.6625 0.2069 11.2149 0.0003 7.2920 -0.0004
# 2 0.2069 84.9552 4.5706 0.0002 22.5219 -0.0001
# 3 11.2149 4.5706 58.3973 -0.0003 17.3952 0.0000
# 4 0.0003 0.0002 -0.0003 -9.9422 0.0001 9.3439
# 5 7.2920 22.5219 17.3952 0.0001 32.4795 0.0001
# 6 -0.0004 -0.0001 0.0000 9.3439 0.0001 19.5965
#
#
#
# Elastic Compliance Matrix: (Units=1/GPa)
#
#
# Indices 1 2 3 4 5 6 
#
# 1 0.024551 0.001344 -0.003451 0.000001 -0.004596 0.000000
# 2 0.001344 0.014738 0.002049 0.000000 -0.011619 0.000000
# 3 -0.003451 0.002049 0.021201 -0.000001 -0.012001 0.000000
# 4 0.000001 0.000000 -0.000001 -0.069456 0.000000 0.033118
# 5 -0.004596 -0.011619 -0.012001 0.000000 0.046304 0.000000
# 6 0.000000 0.000000 0.000000 0.033118 0.000000 0.035238
#
#
# Mechanical properties :
#
#
# Convention : Reuss Voigt Hill
#
# Bulk Modulus (GPa) = 16.56336 24.33330 20.44833
# Shear Modulus (GPa) = 53.87012 19.82826 36.84919
#
# Velocity S-wave (km/s) = 4.85294 2.94424 4.01370
# Velocity P-wave (km/s) = 6.21632 4.71128 5.51538
#
# Compressibility (1/GPa) = 0.06037423
#
# Stress axis : x y z
#
# Youngs Moduli (GPa) = 40.73232 67.85404 47.16694
#
# Poissons Ratio (x) = -0.09121 0.16278
# Poissons Ratio (y) = -0.05475 -0.09666
# Poissons Ratio (z) = 0.14057 -0.13905
#
# Static dielectric constant tensor:
#      x y z
#    x 1.988200 0.000000 0.036360 
#    y 0.000000 1.881680 0.000000 
#    z 0.036360 0.000000 2.126880 
# 
# From -- ./inp_files/308232.got.cif
#   From: 2010.05.17/outbox.cif.g08.bks.cpg/sg15_155_cif.got.tgz:308232.got - 2010.06.03 18:47:42.
