data_PCOD9286733
_publ_section_title
;
Structure prediction by ZEFSAII (Michael W. Deem and Ramdas Pophale) SiO2 
 PCOD9286733
Probable space group: C 2/C
;
_chemical_formula_sum "Si O2"
_cell_formula_units_Z 40
_cell_length_a 11.800418
_cell_length_b 9.826111
_cell_length_c 26.106842
_cell_angle_alpha 90.000000
_cell_angle_beta 149.536851
_cell_angle_gamma 90.000000
_cell_volume 1534.714946
_symmetry_space_group_name_H-M "C 2/C"
_symmetry_group_IT_number 15
_symmetry_cell_setting 'monoclinic'
loop_
_space_group_symop_operation_xyz
x,y,z
-x,y,1/2-z
-x,-y,-z
x,-y,1/2+z
1/2+x,1/2+y,z
1/2-x,1/2+y,1/2-z
1/2-x,1/2-y,-z
1/2+x,1/2-y,1/2+z
loop_
_atom_site_type_symbol
_atom_site_label
_atom_site_fract_x
_atom_site_fract_y
_atom_site_fract_z
Si Si1 0.335881 0.931133 0.559567
Si Si2 0.231394 0.564503 0.133481
Si Si3 0.915641 0.690645 0.660738
Si Si4 0.723664 0.738777 0.872369
Si Si5 0.963254 0.851110 0.589228
O O1 0.297905 0.798349 0.578951
O O2 0.558370 0.926757 0.612454
O O3 0.367514 0.050251 0.614249
O O4 0.130679 0.995675 0.446472
O O5 0.500000 0.564719 0.250000
O O6 0.216515 0.702460 0.094766
O O7 0.196399 0.417529 0.095050
O O8 0.067430 0.782815 0.680951
O O9 0.000000 0.655475 0.750000
O O10 0.500000 0.737772 0.750000
O O11 0.881650 0.832593 0.898871
O O12 0.750000 0.750000 0.500000
#
# Coordination Sequence:
#
# PCOD9286733 Si02
#       5
#     8   8   8   8   8
#     4  11  23  44  66  95 132 171 217 269 326 382
#     4  10  23  39  64  96 134 166 217 271 320 376
#     4  10  22  41  66  92 132 172 213 261 330 380
#     4  11  23  41  70  95 129 175 219 264 322 385
#     4  10  21  44  67  92 138 170 205 278 331 367
#
# _framework density 26.063472000000001
#
# number of rings (size 3 to 8) (size 9 to 14) (size 15 to 20)
#    0.000    1.600    4.000    1.200    5.600    0.800 
#    3.600    1.000    0.000    0.000    0.000    0.000 
#    0.000    0.000    0.000    0.000    0.000    0.000 
#
# Total GULP energy -111835.066787 kJ/mol
# GULP energy per Si atom -5591.753339 kJ/mol
# Density = 2.600415 g / cm^3
# Si number density = 26.063472 Si / 1000 Ang^3
#
#
#
# Elastic Constant Matrix: (Units=GPa)
#
#
# Indices 1 2 3 4 5 6 
#
# 1 191.8434 71.6522 25.7832 -0.0001 22.3294 0.0000
# 2 71.6522 149.0386 11.4144 -0.0001 16.5351 0.0000
# 3 25.7832 11.4144 67.1693 -0.0003 7.3643 0.0001
# 4 -0.0001 -0.0001 -0.0003 23.8853 0.0000 -4.8818
# 5 22.3294 16.5351 7.3643 0.0000 44.8031 0.0000
# 6 0.0000 0.0000 0.0001 -4.8818 0.0000 55.6795
#
#
#
# Elastic Compliance Matrix: (Units=1/GPa)
#
#
# Indices 1 2 3 4 5 6 
#
# 1 0.006780 -0.002893 -0.001892 0.000000 -0.002001 0.000000
# 2 -0.002893 0.008287 -0.000123 0.000000 -0.001596 0.000000
# 3 -0.001892 -0.000123 0.015811 0.000000 -0.001611 0.000000
# 4 0.000000 0.000000 0.000000 0.042631 0.000000 0.003738
# 5 -0.002001 -0.001596 -0.001611 0.000000 0.024171 0.000000
# 6 0.000000 0.000000 0.000000 0.003738 0.000000 0.018288
#
#
# Mechanical properties :
#
#
# Convention : Reuss Voigt Hill
#
# Bulk Modulus (GPa) = 47.47451 69.52787 58.50119
# Shear Modulus (GPa) = 37.64961 44.82034 41.23498
#
# Velocity S-wave (km/s) = 3.80483 4.15138 3.98188
# Velocity P-wave (km/s) = 6.12836 7.05074 6.60567
#
# Compressibility (1/GPa) = 0.02106393
#
# Stress axis : x y z
#
# Youngs Moduli (GPa) = 147.49021 120.67175 63.24572
#
# Poissons Ratio (x) = 0.34908 0.11964
# Poissons Ratio (y) = 0.42666 0.00777
# Poissons Ratio (z) = 0.27900 0.01482
#
# Static dielectric constant tensor:
#      x y z
#    x 2.077740 0.000000 -0.124970 
#    y 0.000000 2.020640 0.000000 
#    z -0.124970 0.000000 2.300760 
# 
# From -- ./inp_files/236449.got.cif
#   From: 2010.05.17/outbox.cif.g08.bks.cpg/sg15_119_cif.got.tgz:236449.got - 2010.06.03 18:47:42.
