data_PCOD9286037
_publ_section_title
;
Structure prediction by ZEFSAII (Michael W. Deem and Ramdas Pophale) SiO2 
 PCOD9286037
Probable space group: C 2/C
;
_chemical_formula_sum "Si O2"
_cell_formula_units_Z 64
_cell_length_a 10.392864
_cell_length_b 12.734183
_cell_length_c 27.079565
_cell_angle_alpha 90.000000
_cell_angle_beta 49.874852
_cell_angle_gamma 90.000000
_cell_volume 2740.338669
_symmetry_space_group_name_H-M "C 2/C"
_symmetry_group_IT_number 15
_symmetry_cell_setting 'monoclinic'
loop_
_space_group_symop_operation_xyz
x,y,z
-x,y,1/2-z
-x,-y,-z
x,-y,1/2+z
1/2+x,1/2+y,z
1/2-x,1/2+y,1/2-z
1/2-x,1/2-y,-z
1/2+x,1/2-y,1/2+z
loop_
_atom_site_type_symbol
_atom_site_label
_atom_site_fract_x
_atom_site_fract_y
_atom_site_fract_z
Si Si1 0.176818 0.151338 0.719562
Si Si2 0.649391 0.095394 0.055700
Si Si3 0.684699 0.562818 0.053988
Si Si4 0.222191 0.560993 0.360562
Si Si5 0.362283 0.209056 0.826064
Si Si6 0.550020 0.387581 0.356392
Si Si7 0.992331 0.278428 0.397399
Si Si8 0.315117 0.782479 0.053941
O O1 0.156950 0.112318 0.780067
O O2 0.321649 0.234866 0.672845
O O3 0.000000 0.201383 0.750000
O O4 0.203657 0.045212 0.680935
O O5 0.458721 0.079289 0.120144
O O6 0.780742 0.157540 0.057778
O O7 0.631364 0.170633 0.011814
O O8 0.726782 0.988737 0.014831
O O9 0.795910 0.546500 0.075829
O O10 0.514467 0.498483 0.108259
O O11 0.628069 0.681164 0.062398
O O12 0.340702 0.663679 0.328237
O O13 0.500000 0.179478 0.750000
O O14 0.175168 0.167420 0.862938
O O15 0.410883 0.169168 0.868845
O O16 0.374740 0.325758 0.391241
O O17 0.052969 0.315730 0.436583
#
# Coordination Sequence:
#
# PCOD9286037 Si02
#       8
#     8   8   8   8   8   8   8   8
#     4  12  21  38  68  94 128 166 219 264 310 388
#     4  10  21  42  70  92 126 169 225 268 313 387
#     4  10  23  40  64  93 134 167 216 266 330 378
#     4  11  22  39  68 100 119 173 223 264 313 395
#     4  11  23  40  63  95 137 166 208 268 331 380
#     4  11  21  41  65  93 129 174 210 262 323 393
#     4  11  24  41  63  99 130 167 216 267 326 386
#     4  10  21  42  70  94 123 175 220 262 323 384
#
# _framework density 23.354776000000001
#
# number of rings (size 3 to 8) (size 9 to 14) (size 15 to 20)
#    0.000    1.250    5.000    1.500    1.750    0.500 
#    2.250    6.250    0.000    0.000    0.000    0.000 
#    0.000    0.000    0.000    0.000    0.000    0.000 
#
# Total GULP energy -178643.996055 kJ/mol
# GULP energy per Si atom -5582.624877 kJ/mol
# Density = 2.330162 g / cm^3
# Si number density = 23.354776 Si / 1000 Ang^3
#
#
#
# Elastic Constant Matrix: (Units=GPa)
#
#
# Indices 1 2 3 4 5 6 
#
# 1 126.8522 28.4472 16.5355 0.0000 4.8520 0.0000
# 2 28.4472 33.8141 18.6166 0.0000 -4.9654 0.0000
# 3 16.5355 18.6166 69.3193 0.0000 1.6465 0.0000
# 4 0.0000 0.0000 0.0000 34.0952 0.0000 -3.2830
# 5 4.8520 -4.9654 1.6465 0.0000 32.4714 0.0000
# 6 0.0000 0.0000 0.0000 -3.2830 0.0000 23.5781
#
#
#
# Elastic Compliance Matrix: (Units=1/GPa)
#
#
# Indices 1 2 3 4 5 6 
#
# 1 0.009965 -0.008836 0.000063 0.000000 -0.002843 0.000000
# 2 -0.008836 0.043661 -0.009820 0.000000 0.008495 0.000000
# 3 0.000063 -0.009820 0.017105 0.000000 -0.002378 0.000000
# 4 0.000000 0.000000 0.000000 0.029728 0.000000 0.004139
# 5 -0.002843 0.008495 -0.002378 0.000000 0.032641 0.000000
# 6 0.000000 0.000000 0.000000 0.004139 0.000000 0.042989
#
#
# Mechanical properties :
#
#
# Convention : Reuss Voigt Hill
#
# Bulk Modulus (GPa) = 29.80980 39.68714 34.74847
# Shear Modulus (GPa) = 22.27623 29.12135 25.69879
#
# Velocity S-wave (km/s) = 3.09175 3.53500 3.32077
# Velocity P-wave (km/s) = 5.05340 5.80445 5.44189
#
# Compressibility (1/GPa) = 0.03354602
#
# Stress axis : x y z
#
# Youngs Moduli (GPa) = 100.34917 22.90389 58.46401
#
# Poissons Ratio (x) = 0.20238 -0.00371
# Poissons Ratio (y) = 0.88669 0.57409
# Poissons Ratio (z) = -0.00637 0.22491
#
# Static dielectric constant tensor:
#      x y z
#    x 1.908770 0.000000 0.039860 
#    y 0.000000 1.955950 0.000000 
#    z 0.039860 0.000000 1.902200 
# 
# From -- ./inp_files/308263.got.cif
#   From: 2010.05.17/outbox.cif.g08.bks.cpg/sg15_155_cif.got.tgz:308263.got - 2010.06.03 18:47:42.
