data_PCOD9286370
_publ_section_title
;
Structure prediction by ZEFSAII (Michael W. Deem and Ramdas Pophale) SiO2 
 PCOD9286370
Probable space group: C 2/C
;
_chemical_formula_sum "Si O2"
_cell_formula_units_Z 60
_cell_length_a 15.743245
_cell_length_b 12.077044
_cell_length_c 20.539986
_cell_angle_alpha 90.000000
_cell_angle_beta 140.787742
_cell_angle_gamma 90.000000
_cell_volume 2468.915116
_symmetry_space_group_name_H-M "C 2/C"
_symmetry_group_IT_number 15
_symmetry_cell_setting 'monoclinic'
loop_
_space_group_symop_operation_xyz
x,y,z
-x,y,1/2-z
-x,-y,-z
x,-y,1/2+z
1/2+x,1/2+y,z
1/2-x,1/2+y,1/2-z
1/2-x,1/2-y,-z
1/2+x,1/2-y,1/2+z
loop_
_atom_site_type_symbol
_atom_site_label
_atom_site_fract_x
_atom_site_fract_y
_atom_site_fract_z
Si Si1 0.297379 0.015994 0.957708
Si Si2 0.578305 0.286803 0.062833
Si Si3 0.748183 0.575943 0.288524
Si Si4 0.903080 0.734602 0.068074
Si Si5 0.951256 0.914912 0.647149
Si Si6 0.500000 0.880891 0.750000
Si Si7 0.683792 0.946071 0.300010
Si Si8 0.536647 0.805352 0.401047
O O1 0.272870 0.997243 0.867233
O O2 0.154924 0.014432 0.911381
O O3 0.373167 0.911271 0.031865
O O4 0.389573 0.121026 0.019773
O O5 0.678881 0.192121 0.152042
O O6 0.476362 0.315391 0.060997
O O7 0.675411 0.387848 0.100091
O O8 0.504013 0.238003 0.954993
O O9 0.587035 0.578384 0.186598
O O10 0.803231 0.519033 0.257285
O O11 0.987796 0.700222 0.181450
O O12 0.750000 0.750000 0.000000
O O13 0.890879 0.797604 0.590215
O O14 0.000000 0.901837 0.750000
O O15 0.376072 0.967566 0.683126
O O16 0.579847 0.849200 0.216482
#
# Coordination Sequence:
#
# PCOD9286370 Si02
#       8
#     8   8   8   8   8   4   8   8
#     4  10  22  41  67  99 133 179 230 275 349 417
#     4  11  25  45  69 105 132 188 236 281 352 426
#     4  10  21  43  67  93 134 186 232 275 349 425
#     4  12  28  48  68  98 143 184 234 282 350 425
#     4  10  22  37  64 104 138 173 226 290 344 411
#     4  12  28  48  72 106 140 182 240 296 360 408
#     4  12  25  43  74  99 145 183 234 297 346 407
#     4  11  22  40  72  98 138 176 225 285 357 408
#
# _framework density 24.302171999999999
#
# number of rings (size 3 to 8) (size 9 to 14) (size 15 to 20)
#    0.000    1.067    4.000    1.200    4.667    5.333 
#    1.200    1.333    0.000    0.000    0.000    0.000 
#    0.000    0.000    0.000    0.000    0.000    0.000 
#
# Total GULP energy -167732.373120 kJ/mol
# GULP energy per Si atom -5591.079104 kJ/mol
# Density = 2.424686 g / cm^3
# Si number density = 24.302172 Si / 1000 Ang^3
#
#
#
# Elastic Constant Matrix: (Units=GPa)
#
#
# Indices 1 2 3 4 5 6 
#
# 1 76.9361 -12.3206 2.1397 0.0000 19.3328 0.0000
# 2 -12.3206 14.3217 -8.6471 0.0000 0.4906 0.0000
# 3 2.1397 -8.6471 52.5215 0.0000 -2.0568 0.0000
# 4 0.0000 0.0000 0.0000 20.0816 0.0000 8.7373
# 5 19.3328 0.4906 -2.0568 0.0000 19.7072 0.0000
# 6 0.0000 0.0000 0.0000 8.7373 0.0000 37.0034
#
#
#
# Elastic Compliance Matrix: (Units=1/GPa)
#
#
# Indices 1 2 3 4 5 6 
#
# 1 0.021620 0.020316 0.001620 0.000000 -0.021546 0.000000
# 2 0.020316 0.096629 0.014265 0.000000 -0.020847 0.000000
# 3 0.001620 0.014265 0.021333 0.000000 0.000282 0.000000
# 4 0.000000 0.000000 0.000000 0.055498 0.000000 -0.013104
# 5 -0.021546 -0.020847 0.000282 0.000000 0.072429 0.000000
# 6 0.000000 0.000000 0.000000 -0.013104 0.000000 0.030119
#
#
# Mechanical properties :
#
#
# Convention : Reuss Voigt Hill
#
# Bulk Modulus (GPa) = 4.71732 11.79147 8.25440
# Shear Modulus (GPa) = 16.89830 26.19891 21.54861
#
# Velocity S-wave (km/s) = 2.63979 3.28693 2.98097
# Velocity P-wave (km/s) = 3.35211 4.38950 3.90541
#
# Compressibility (1/GPa) = 0.21198458
#
# Stress axis : x y z
#
# Youngs Moduli (GPa) = 46.25262 10.34889 46.87481
#
# Poissons Ratio (x) = -0.21025 -0.07595
# Poissons Ratio (y) = -0.93967 -0.66866
# Poissons Ratio (z) = -0.07494 -0.14763
#
# Static dielectric constant tensor:
#      x y z
#    x 1.980120 0.000000 0.073560 
#    y 0.000000 1.929260 0.000000 
#    z 0.073560 0.000000 1.944310 
# 
# From -- ./inp_files/244719.got.cif
#   From: 2010.05.17/outbox.cif.g08.bks.cpg/sg15_123_cif.got.tgz:244719.got - 2010.06.03 18:47:42.
