data_PCOD9286433
_publ_section_title
;
Structure prediction by ZEFSAII (Michael W. Deem and Ramdas Pophale) SiO2 
 PCOD9286433
Probable space group: C 2/C
;
_chemical_formula_sum "Si O2"
_cell_formula_units_Z 52
_cell_length_a 7.200650
_cell_length_b 22.095534
_cell_length_c 15.448761
_cell_angle_alpha 90.000000
_cell_angle_beta 104.626782
_cell_angle_gamma 90.000000
_cell_volume 2378.273439
_symmetry_space_group_name_H-M "C 2/C"
_symmetry_group_IT_number 15
_symmetry_cell_setting 'monoclinic'
loop_
_space_group_symop_operation_xyz
x,y,z
-x,y,1/2-z
-x,-y,-z
x,-y,1/2+z
1/2+x,1/2+y,z
1/2-x,1/2+y,1/2-z
1/2-x,1/2-y,-z
1/2+x,1/2-y,1/2+z
loop_
_atom_site_type_symbol
_atom_site_label
_atom_site_fract_x
_atom_site_fract_y
_atom_site_fract_z
Si Si1 0.116549 0.796030 0.936162
Si Si2 0.105372 0.034883 0.672852
Si Si3 0.197556 0.696905 0.647433
Si Si4 0.000000 0.394897 0.250000
Si Si5 0.771568 0.794511 0.730951
Si Si6 0.812635 0.585450 0.173871
Si Si7 0.874888 0.884608 0.018206
O O1 0.255637 0.812841 0.871400
O O2 0.926773 0.753532 0.901345
O O3 0.250000 0.750000 0.000000
O O4 0.038273 0.853438 0.978169
O O5 0.313466 0.067150 0.699552
O O6 0.000000 0.049818 0.750000
O O7 0.971872 0.059981 0.580654
O O8 0.147369 0.963599 0.672181
O O9 0.063844 0.647302 0.677611
O O10 0.302850 0.730984 0.740782
O O11 0.309979 0.663979 0.583755
O O12 0.723707 0.849573 0.787108
O O13 0.000000 0.786541 0.750000
O O14 0.000000 0.563671 0.250000
O O15 0.796393 0.596053 0.068106
#
# Coordination Sequence:
#
# PCOD9286433 Si02
#       7
#     8   8   8   4   8   8   8
#     4  11  23  39  67 107 149 190 235 299 364 441
#     4  12  27  50  77 103 146 194 249 304 367 431
#     4  11  22  43  69 107 148 181 243 290 370 440
#     4  12  22  50  72 108 146 190 242 298 366 442
#     4  10  21  43  68  97 143 194 228 292 370 434
#     4  12  27  49  71 102 146 193 252 304 359 435
#     4  12  26  44  73 112 142 192 249 306 367 434
#
# _framework density 21.864601
#
# number of rings (size 3 to 8) (size 9 to 14) (size 15 to 20)
#    0.000    0.615    7.692    2.308    2.154    0.000 
#    0.000    1.538    0.000    0.000    0.000    0.000 
#    0.000    0.000    0.000    0.000    0.000    0.000 
#
# Total GULP energy -144905.418720 kJ/mol
# GULP energy per Si atom -5573.285335 kJ/mol
# Density = 2.181484 g / cm^3
# Si number density = 21.864601 Si / 1000 Ang^3
#
#
#
# Elastic Constant Matrix: (Units=GPa)
#
#
# Indices 1 2 3 4 5 6 
#
# 1 74.9180 25.3730 38.8990 0.0000 0.7082 0.0000
# 2 25.3730 88.6533 40.5725 0.0000 -3.4566 0.0000
# 3 38.8990 40.5725 136.4584 0.0000 -13.7410 0.0000
# 4 0.0000 0.0000 0.0000 41.2762 0.0000 3.6313
# 5 0.7082 -3.4566 -13.7410 0.0000 20.6984 0.0000
# 6 0.0000 0.0000 0.0000 3.6313 0.0000 42.8573
#
#
#
# Elastic Compliance Matrix: (Units=1/GPa)
#
#
# Indices 1 2 3 4 5 6 
#
# 1 0.016588 -0.002959 -0.004239 0.000000 -0.003876 0.000000
# 2 -0.002959 0.013588 -0.003170 0.000000 0.000266 0.000000
# 3 -0.004239 -0.003170 0.010117 0.000000 0.006332 0.000000
# 4 0.000000 0.000000 0.000000 0.024409 0.000000 -0.002068
# 5 -0.003876 0.000266 0.006332 0.000000 0.052693 0.000000
# 6 0.000000 0.000000 0.000000 -0.002068 0.000000 0.023508
#
#
# Mechanical properties :
#
#
# Convention : Reuss Voigt Hill
#
# Bulk Modulus (GPa) = 51.13236 56.63542 53.88389
# Shear Modulus (GPa) = 29.73417 33.97874 31.85645
#
# Velocity S-wave (km/s) = 3.69171 3.94642 3.82119
# Velocity P-wave (km/s) = 6.45045 6.83555 6.64579
#
# Compressibility (1/GPa) = 0.01955709
#
# Stress axis : x y z
#
# Youngs Moduli (GPa) = 60.28602 73.59608 98.84632
#
# Poissons Ratio (x) = 0.21773 0.41902
# Poissons Ratio (y) = 0.17836 0.31332
# Poissons Ratio (z) = 0.25556 0.23329
#
# Static dielectric constant tensor:
#      x y z
#    x 1.851910 0.000000 -0.013880 
#    y 0.000000 1.775870 0.000000 
#    z -0.013880 0.000000 2.377980 
# 
# From -- ./inp_files/136113.got.cif
#   From: 2010.05.17/outbox.cif.g08.bks.cpg/sg15_69_cif.got.tgz:136113.got - 2010.06.03 18:47:42.
