data_PCOD9286065
_publ_section_title
;
Structure prediction by ZEFSAII (Michael W. Deem and Ramdas Pophale) SiO2 
 PCOD9286065
Probable space group: C 2/C
;
_chemical_formula_sum "Si O2"
_cell_formula_units_Z 48
_cell_length_a 28.319316
_cell_length_b 6.945138
_cell_length_c 23.022054
_cell_angle_alpha 90.000000
_cell_angle_beta 156.037266
_cell_angle_gamma 90.000000
_cell_volume 1839.018129
_symmetry_space_group_name_H-M "C 2/C"
_symmetry_group_IT_number 15
_symmetry_cell_setting 'monoclinic'
loop_
_space_group_symop_operation_xyz
x,y,z
-x,y,1/2-z
-x,-y,-z
x,-y,1/2+z
1/2+x,1/2+y,z
1/2-x,1/2+y,1/2-z
1/2-x,1/2-y,-z
1/2+x,1/2-y,1/2+z
loop_
_atom_site_type_symbol
_atom_site_label
_atom_site_fract_x
_atom_site_fract_y
_atom_site_fract_z
Si Si1 0.113039 0.771344 0.601789
Si Si2 0.256369 0.989276 0.188824
Si Si3 0.114845 0.390211 0.772865
Si Si4 0.135060 0.344844 0.399761
Si Si5 0.577138 0.183394 0.961219
Si Si6 0.909336 0.992666 0.310968
O O1 0.131771 0.558840 0.646713
O O2 0.993932 0.852316 0.443899
O O3 0.201600 0.814963 0.649663
O O4 0.146362 0.894987 0.697358
O O5 0.287418 0.009686 0.157002
O O6 0.161897 0.820907 0.094392
O O7 0.119555 0.461744 0.844142
O O8 0.134556 0.164700 0.784328
O O9 0.993681 0.483499 0.611624
O O10 0.250000 0.250000 0.500000
O O11 0.152134 0.359672 0.487793
O O12 0.000000 0.259207 0.250000
O O13 0.469979 0.338131 0.841516
#
# Coordination Sequence:
#
# PCOD9286065 Si02
#       6
#     8   8   8   8   8   8
#     4  10  22  37  58  98 135 176 232 277 349 423
#     4  11  21  37  63  93 131 177 221 283 341 418
#     4  11  22  40  68  93 133 180 232 282 358 422
#     4  10  21  42  71 100 132 180 236 290 356 422
#     4  10  22  42  64  93 136 173 226 290 348 412
#     4  10  22  41  61  94 138 177 226 289 343 422
#
# _framework density 26.100885000000002
#
# number of rings (size 3 to 8) (size 9 to 14) (size 15 to 20)
#    0.000    1.667    3.333    1.000    2.333    0.667 
#    0.000    7.500    0.000    9.000    0.000    0.000 
#    0.000    0.000    0.000    0.000    0.000    0.000 
#
# Total GULP energy -133628.771871 kJ/mol
# GULP energy per Si atom -5567.865495 kJ/mol
# Density = 2.604148 g / cm^3
# Si number density = 26.100885 Si / 1000 Ang^3
#
#
#
# Elastic Constant Matrix: (Units=GPa)
#
#
# Indices 1 2 3 4 5 6 
#
# 1 147.0562 17.4308 -0.2487 0.0000 17.9254 0.0000
# 2 17.4308 88.9387 2.3280 0.0000 20.8764 0.0000
# 3 -0.2487 2.3280 45.2869 0.0000 9.3000 0.0000
# 4 0.0000 0.0000 0.0000 32.7912 0.0000 4.3738
# 5 17.9254 20.8764 9.3000 0.0000 45.0510 0.0000
# 6 0.0000 0.0000 0.0000 4.3738 0.0000 45.3550
#
#
#
# Elastic Compliance Matrix: (Units=1/GPa)
#
#
# Indices 1 2 3 4 5 6 
#
# 1 0.007217 -0.000815 0.000620 0.000000 -0.002622 0.000000
# 2 -0.000815 0.012722 0.000507 0.000000 -0.005676 0.000000
# 3 0.000620 0.000507 0.023139 0.000000 -0.005258 0.000000
# 4 0.000000 0.000000 0.000000 0.030893 0.000000 -0.002979
# 5 -0.002622 -0.005676 -0.005258 0.000000 0.026956 0.000000
# 6 0.000000 0.000000 0.000000 -0.002979 0.000000 0.022336
#
#
# Mechanical properties :
#
#
# Convention : Reuss Voigt Hill
#
# Bulk Modulus (GPa) = 22.88226 35.58912 29.23569
# Shear Modulus (GPa) = 36.44123 42.09088 39.26605
#
# Velocity S-wave (km/s) = 3.74059 4.02010 3.88286
# Velocity P-wave (km/s) = 5.23850 5.93407 5.59710
#
# Compressibility (1/GPa) = 0.04370199
#
# Stress axis : x y z
#
# Youngs Moduli (GPa) = 138.55391 78.60096 43.21783
#
# Poissons Ratio (x) = 0.06408 -0.02679
# Poissons Ratio (y) = 0.11296 -0.02191
# Poissons Ratio (z) = -0.08590 -0.03986
#
# Static dielectric constant tensor:
#      x y z
#    x 2.027380 0.000000 -0.025650 
#    y 0.000000 2.081980 0.000000 
#    z -0.025650 0.000000 2.215120 
# 
# From -- ./inp_files/304130.got.cif
#   From: 2010.05.17/outbox.cif.g08.bks.cpg/sg15_153_cif.got.tgz:304130.got - 2010.06.03 18:47:42.
