data_PCOD9286698
_publ_section_title
;
Structure prediction by ZEFSAII (Michael W. Deem and Ramdas Pophale) SiO2 
 PCOD9286698
Probable space group: C 2/C
;
_chemical_formula_sum "Si O2"
_cell_formula_units_Z 60
_cell_length_a 26.334542
_cell_length_b 12.009232
_cell_length_c 10.559888
_cell_angle_alpha 90.000000
_cell_angle_beta 55.989905
_cell_angle_gamma 90.000000
_cell_volume 2768.362181
_symmetry_space_group_name_H-M "C 2/C"
_symmetry_group_IT_number 15
_symmetry_cell_setting 'monoclinic'
loop_
_space_group_symop_operation_xyz
x,y,z
-x,y,1/2-z
-x,-y,-z
x,-y,1/2+z
1/2+x,1/2+y,z
1/2-x,1/2+y,1/2-z
1/2-x,1/2-y,-z
1/2+x,1/2-y,1/2+z
loop_
_atom_site_type_symbol
_atom_site_label
_atom_site_fract_x
_atom_site_fract_y
_atom_site_fract_z
Si Si1 0.180432 0.840640 0.229706
Si Si2 0.156938 0.251335 0.379233
Si Si3 0.546596 0.598404 0.580639
Si Si4 0.547052 0.641134 0.006094
Si Si5 0.000000 0.665368 0.750000
Si Si6 0.200632 0.611780 0.055583
Si Si7 0.777994 0.272429 0.598776
Si Si8 0.624639 0.897347 0.181351
O O1 0.107867 0.859330 0.333296
O O2 0.193739 0.716375 0.158536
O O3 0.200542 0.834282 0.349483
O O4 0.228033 0.913069 0.079875
O O5 0.108633 0.165217 0.499020
O O6 0.172607 0.343359 0.462344
O O7 0.218893 0.185468 0.257335
O O8 0.131811 0.312903 0.289079
O O9 0.500000 0.640814 0.750000
O O10 0.513292 0.619924 0.493315
O O11 0.555897 0.466557 0.582317
O O12 0.534648 0.752115 0.103203
O O13 0.053567 0.595306 0.742840
O O14 0.160488 0.510471 0.161769
O O15 0.750000 0.250000 0.500000
O O16 0.836299 0.348661 0.491617
#
# Coordination Sequence:
#
# PCOD9286698 Si02
#       8
#     8   8   8   8   4   8   8   8
#     4  10  21  44  66  89 132 167 213 274 322 389
#     4  10  22  42  61  94 131 165 217 279 322 383
#     4  11  23  40  63  94 129 164 218 270 324 392
#     4  11  23  40  65  93 125 174 213 264 335 383
#     4  12  22  44  64  98 136 172 222 272 320 414
#     4  10  24  42  64  97 125 172 219 262 332 392
#     4   9  20  38  63  93 122 161 216 268 318 378
#     4  11  23  41  66  94 133 176 220 267 330 399
#
# _framework density 21.673466000000001
#
# number of rings (size 3 to 8) (size 9 to 14) (size 15 to 20)
#    0.000    1.600    3.333    0.800    3.733    0.000 
#    3.600    4.000    0.000    0.000    0.000    0.000 
#    0.000    0.000    0.000    0.000    0.000    0.000 
#
# Total GULP energy -167430.292143 kJ/mol
# GULP energy per Si atom -5581.009738 kJ/mol
# Density = 2.162414 g / cm^3
# Si number density = 21.673466 Si / 1000 Ang^3
#
#
#
# Elastic Constant Matrix: (Units=GPa)
#
#
# Indices 1 2 3 4 5 6 
#
# 1 73.0282 3.4497 22.1447 0.0000 -25.2499 0.0000
# 2 3.4497 45.9592 19.3725 0.0000 -14.7915 0.0000
# 3 22.1447 19.3725 93.0590 0.0000 -29.2067 0.0000
# 4 0.0000 0.0000 0.0000 26.5962 0.0000 -3.5683
# 5 -25.2499 -14.7915 -29.2067 0.0000 46.6173 0.0000
# 6 0.0000 0.0000 0.0000 -3.5683 0.0000 19.6984
#
#
#
# Elastic Compliance Matrix: (Units=1/GPa)
#
#
# Indices 1 2 3 4 5 6 
#
# 1 0.017217 0.002337 -0.001773 0.000000 0.008957 0.000000
# 2 0.002337 0.025380 -0.003628 0.000000 0.007046 0.000000
# 3 -0.001773 -0.003628 0.014016 0.000000 0.006670 0.000000
# 4 0.000000 0.000000 0.000000 0.038536 0.000000 0.006981
# 5 0.008957 0.007046 0.006670 0.000000 0.032717 0.000000
# 6 0.000000 0.000000 0.000000 0.006981 0.000000 0.052030
#
#
# Mechanical properties :
#
#
# Convention : Reuss Voigt Hill
#
# Bulk Modulus (GPa) = 19.80720 33.55336 26.68028
# Shear Modulus (GPa) = 24.64840 29.72101 27.18470
#
# Velocity S-wave (km/s) = 3.37599 3.70714 3.54543
# Velocity P-wave (km/s) = 4.93510 5.81711 5.39416
#
# Compressibility (1/GPa) = 0.05048668
#
# Stress axis : x y z
#
# Youngs Moduli (GPa) = 58.08123 39.40110 71.34459
#
# Poissons Ratio (x) = -0.09210 0.12647
# Poissons Ratio (y) = -0.13576 0.25886
# Poissons Ratio (z) = 0.10296 0.14296
#
# Static dielectric constant tensor:
#      x y z
#    x 1.849450 0.000000 0.018350 
#    y 0.000000 1.784510 0.000000 
#    z 0.018350 0.000000 1.810650 
# 
# From -- ./inp_files/126431.got.cif
#   From: 2010.05.17/outbox.cif.g08.bks.cpg/sg15_64_cif.got.tgz:126431.got - 2010.06.03 18:47:42.
