data_PCOD9286251
_publ_section_title
;
Structure prediction by ZEFSAII (Michael W. Deem and Ramdas Pophale) SiO2 
 PCOD9286251
Probable space group: C 2/C
;
_chemical_formula_sum "Si O2"
_cell_formula_units_Z 52
_cell_length_a 13.693283
_cell_length_b 8.768305
_cell_length_c 27.029501
_cell_angle_alpha 90.000000
_cell_angle_beta 135.859576
_cell_angle_gamma 90.000000
_cell_volume 2260.122863
_symmetry_space_group_name_H-M "C 2/C"
_symmetry_group_IT_number 15
_symmetry_cell_setting 'monoclinic'
loop_
_space_group_symop_operation_xyz
x,y,z
-x,y,1/2-z
-x,-y,-z
x,-y,1/2+z
1/2+x,1/2+y,z
1/2-x,1/2+y,1/2-z
1/2-x,1/2-y,-z
1/2+x,1/2-y,1/2+z
loop_
_atom_site_type_symbol
_atom_site_label
_atom_site_fract_x
_atom_site_fract_y
_atom_site_fract_z
Si Si1 0.686655 0.704982 0.364869
Si Si2 0.500000 0.049387 0.750000
Si Si3 0.444285 0.174442 0.925212
Si Si4 0.750000 0.250000 0.000000
Si Si5 0.006375 0.315241 0.556859
Si Si6 0.500000 0.546990 0.750000
Si Si7 0.568772 0.660014 0.669627
Si Si8 0.749816 0.630131 0.211265
O O1 0.577420 0.842204 0.317743
O O2 0.703241 0.673534 0.428877
O O3 0.839814 0.749987 0.400838
O O4 0.627751 0.565390 0.311164
O O5 0.620597 0.953465 0.767674
O O6 0.586975 0.256333 0.960327
O O7 0.317949 0.241748 0.848022
O O8 0.473644 0.995327 0.926617
O O9 0.418721 0.198096 0.974549
O O10 0.962694 0.223753 0.589850
O O11 0.516130 0.644707 0.706414
O O12 0.634474 0.497568 0.680507
O O13 0.692702 0.785574 0.719240
#
# Coordination Sequence:
#
# PCOD9286251 Si02
#       8
#     8   4   8   4   8   4   8   8
#     4  10  21  43  65 100 136 186 229 290 354 423
#     4  11  25  42  66 102 142 178 236 308 344 430
#     4  10  23  44  72 103 143 188 229 292 359 431
#     4  10  22  38  72 104 132 186 240 278 354 434
#     4  10  22  45  71  99 138 184 231 285 358 424
#     4  11  23  40  64  94 146 172 238 286 354 408
#     4  12  25  41  67 101 133 188 229 292 346 421
#     4  12  25  42  69  99 141 181 237 290 357 418
#
# _framework density 23.007598000000002
#
# number of rings (size 3 to 8) (size 9 to 14) (size 15 to 20)
#    0.000    1.231    1.538    4.154    6.462    0.615 
#    2.769    1.538    0.000    7.385    0.000    0.000 
#    0.000    0.000    0.000    0.000    0.000    0.000 
#
# Total GULP energy -144905.182974 kJ/mol
# GULP energy per Si atom -5573.276268 kJ/mol
# Density = 2.295523 g / cm^3
# Si number density = 23.007598 Si / 1000 Ang^3
#
#
#
# Elastic Constant Matrix: (Units=GPa)
#
#
# Indices 1 2 3 4 5 6 
#
# 1 84.3186 12.5383 15.1858 0.0000 -28.8019 0.0000
# 2 12.5383 40.2780 -5.5800 0.0000 -11.5659 0.0000
# 3 15.1858 -5.5800 56.2538 0.0000 -20.1401 0.0000
# 4 0.0000 0.0000 0.0000 23.0238 0.0000 -10.0925
# 5 -28.8019 -11.5659 -20.1401 0.0000 41.3266 0.0000
# 6 0.0000 0.0000 0.0000 -10.0925 0.0000 14.3227
#
#
#
# Elastic Compliance Matrix: (Units=1/GPa)
#
#
# Indices 1 2 3 4 5 6 
#
# 1 0.015734 -0.002179 -0.000916 0.000000 0.009909 0.000000
# 2 -0.002179 0.029429 0.007162 0.000000 0.010208 0.000000
# 3 -0.000916 0.007162 0.023286 0.000000 0.012714 0.000000
# 4 0.000000 0.000000 0.000000 0.062845 0.000000 0.044284
# 5 0.009909 0.010208 0.012714 0.000000 0.040156 0.000000
# 6 0.000000 0.000000 0.000000 0.044284 0.000000 0.101024
#
#
# Mechanical properties :
#
#
# Convention : Reuss Voigt Hill
#
# Bulk Modulus (GPa) = 13.05771 25.01539 19.03655
# Shear Modulus (GPa) = 17.24925 26.31506 21.78216
#
# Velocity S-wave (km/s) = 2.74107 3.38561 3.08025
# Velocity P-wave (km/s) = 3.96304 5.11659 4.57630
#
# Compressibility (1/GPa) = 0.07658313
#
# Stress axis : x y z
#
# Youngs Moduli (GPa) = 63.55850 33.97986 42.94376
#
# Poissons Ratio (x) = 0.07405 0.03933
# Poissons Ratio (y) = 0.13851 -0.30757
# Poissons Ratio (z) = 0.05821 -0.24337
#
# Static dielectric constant tensor:
#      x y z
#    x 1.899430 0.000000 0.001650 
#    y 0.000000 1.890640 0.000000 
#    z 0.001650 0.000000 1.856920 
# 
# From -- ./inp_files/313233.got.cif
#   From: 2010.05.17/outbox.cif.g08.bks.cpg/sg15_157_cif.got.tgz:313233.got - 2010.06.03 18:47:42.
