data_PCOD9286857
_publ_section_title
;
Structure prediction by ZEFSAII (Michael W. Deem and Ramdas Pophale) SiO2 
 PCOD9286857
Probable space group: C 2/C
;
_chemical_formula_sum "Si O2"
_cell_formula_units_Z 40
_cell_length_a 18.299068
_cell_length_b 14.272223
_cell_length_c 10.833864
_cell_angle_alpha 90.000000
_cell_angle_beta 137.184467
_cell_angle_gamma 90.000000
_cell_volume 1923.016582
_symmetry_space_group_name_H-M "C 2/C"
_symmetry_group_IT_number 15
_symmetry_cell_setting 'monoclinic'
loop_
_space_group_symop_operation_xyz
x,y,z
-x,y,1/2-z
-x,-y,-z
x,-y,1/2+z
1/2+x,1/2+y,z
1/2-x,1/2+y,1/2-z
1/2-x,1/2-y,-z
1/2+x,1/2-y,1/2+z
loop_
_atom_site_type_symbol
_atom_site_label
_atom_site_fract_x
_atom_site_fract_y
_atom_site_fract_z
Si Si1 0.928988 0.268655 0.538031
Si Si2 0.251061 0.112162 0.227430
Si Si3 0.935129 0.742641 0.542381
Si Si4 0.390797 0.558404 0.876519
Si Si5 0.765288 0.358564 0.484356
O O1 0.853046 0.179086 0.419678
O O2 0.849281 0.354021 0.476436
O O3 0.000000 0.256998 0.750000
O O4 0.995995 0.280737 0.495808
O O5 0.333737 0.172046 0.411841
O O6 0.203324 0.014959 0.212055
O O7 0.303333 0.095401 0.157421
O O8 0.901475 0.852123 0.480355
O O9 0.000000 0.733601 0.750000
O O10 0.349842 0.602744 0.697990
O O11 0.500000 0.500000 0.000000
O O12 0.750000 0.250000 0.500000
#
# Coordination Sequence:
#
# PCOD9286857 Si02
#       5
#     8   8   8   8   8
#     4  11  20  42  76  95 136 195 240 282 355 433
#     4  11  24  42  70 105 145 181 244 297 356 428
#     4  12  26  46  69 106 147 187 231 306 375 410
#     4  12  25  42  71 112 137 186 242 309 349 426
#     4  10  21  44  71 100 141 190 243 288 356 433
#
# _framework density 20.800651999999999
#
# number of rings (size 3 to 8) (size 9 to 14) (size 15 to 20)
#    0.000    0.800    8.000    1.200    2.800    0.800 
#    3.600    2.000    0.000    0.000    0.000    0.000 
#    0.000    0.000    0.000    0.000    0.000    0.000 
#
# Total GULP energy -111536.236997 kJ/mol
# GULP energy per Si atom -5576.811850 kJ/mol
# Density = 2.075331 g / cm^3
# Si number density = 20.800652 Si / 1000 Ang^3
#
#
#
# Elastic Constant Matrix: (Units=GPa)
#
#
# Indices 1 2 3 4 5 6 
#
# 1 92.2887 56.1637 46.0002 0.0000 0.5778 0.0000
# 2 56.1637 114.5014 76.5896 0.0000 8.4903 0.0000
# 3 46.0002 76.5896 191.1086 0.0000 -14.6547 0.0000
# 4 0.0000 0.0000 0.0000 45.4454 0.0000 14.1616
# 5 0.5778 8.4903 -14.6547 0.0000 31.0081 0.0000
# 6 0.0000 0.0000 0.0000 14.1616 0.0000 37.1793
#
#
#
# Elastic Compliance Matrix: (Units=1/GPa)
#
#
# Indices 1 2 3 4 5 6 
#
# 1 0.015618 -0.007261 -0.000746 0.000000 0.001345 0.000000
# 2 -0.007261 0.016379 -0.005344 0.000000 -0.006875 0.000000
# 3 -0.000746 -0.005344 0.007955 0.000000 0.005237 0.000000
# 4 0.000000 0.000000 0.000000 0.024968 0.000000 -0.009510
# 5 0.001345 -0.006875 0.005237 0.000000 0.036582 0.000000
# 6 0.000000 0.000000 0.000000 -0.009510 0.000000 0.030519
#
#
# Mechanical properties :
#
#
# Convention : Reuss Voigt Hill
#
# Bulk Modulus (GPa) = 75.46870 83.93399 79.70134
# Shear Modulus (GPa) = 30.64834 37.33625 33.99230
#
# Velocity S-wave (km/s) = 3.84270 4.24129 4.04690
# Velocity P-wave (km/s) = 7.48659 8.02645 7.76122
#
# Compressibility (1/GPa) = 0.01325053
#
# Stress axis : x y z
#
# Youngs Moduli (GPa) = 64.02846 61.05229 125.70204
#
# Poissons Ratio (x) = 0.44333 0.09378
# Poissons Ratio (y) = 0.46494 0.67171
# Poissons Ratio (z) = 0.04777 0.32624
#
# Static dielectric constant tensor:
#      x y z
#    x 1.832360 0.000000 0.042050 
#    y 0.000000 1.801830 0.000000 
#    z 0.042050 0.000000 1.788020 
# 
# From -- ./inp_files/105549.got.cif
#   From: 2010.05.17/outbox.cif.g08.bks.cpg/sg15_53_cif.got.tgz:105549.got - 2010.06.03 18:47:42.
