data_PCOD9286649
_publ_section_title
;
Structure prediction by ZEFSAII (Michael W. Deem and Ramdas Pophale) SiO2 
 PCOD9286649
Probable space group: C 2/C
;
_chemical_formula_sum "Si O2"
_cell_formula_units_Z 48
_cell_length_a 13.648251
_cell_length_b 8.927672
_cell_length_c 16.517838
_cell_angle_alpha 90.000000
_cell_angle_beta 98.766051
_cell_angle_gamma 90.000000
_cell_volume 1989.140731
_symmetry_space_group_name_H-M "C 2/C"
_symmetry_group_IT_number 15
_symmetry_cell_setting 'monoclinic'
loop_
_space_group_symop_operation_xyz
x,y,z
-x,y,1/2-z
-x,-y,-z
x,-y,1/2+z
1/2+x,1/2+y,z
1/2-x,1/2+y,1/2-z
1/2-x,1/2-y,-z
1/2+x,1/2-y,1/2+z
loop_
_atom_site_type_symbol
_atom_site_label
_atom_site_fract_x
_atom_site_fract_y
_atom_site_fract_z
Si Si1 0.391731 0.989394 0.201365
Si Si2 0.920902 0.961400 0.835722
Si Si3 0.843532 0.791227 0.957402
Si Si4 0.504556 0.764779 0.890002
Si Si5 0.128314 0.165572 0.347800
Si Si6 0.328953 0.980040 0.871375
O O1 0.500000 0.941760 0.250000
O O2 0.354175 0.843294 0.150109
O O3 0.418268 0.134661 0.151866
O O4 0.329042 0.026065 0.273320
O O5 0.841820 0.930932 0.896393
O O6 0.886814 0.890917 0.746989
O O7 0.023540 0.878134 0.873554
O O8 0.950300 0.134855 0.832675
O O9 0.853755 0.647088 0.900887
O O10 0.750000 0.750000 0.000000
O O11 0.934714 0.806270 0.029767
O O12 0.418723 0.874613 0.909967
O O13 0.223862 0.076701 0.391186
#
# Coordination Sequence:
#
# PCOD9286649 Si02
#       6
#     8   8   8   8   8   8
#     4  10  21  44  64 100 140 183 232 295 347 411
#     4  11  24  44  68 106 139 184 237 296 351 426
#     4  12  26  48  69 100 147 191 230 294 362 429
#     4  11  26  42  72 101 142 186 237 290 360 432
#     4  11  23  41  72  97 144 180 238 293 358 407
#     4  11  25  41  68 103 137 184 236 290 353 423
#
# _framework density 24.131022999999999
#
# number of rings (size 3 to 8) (size 9 to 14) (size 15 to 20)
#    0.000    1.000    3.333    3.000   11.667    0.000 
#    0.000    2.500    0.000    0.000    0.000    0.000 
#    0.000    0.000    0.000    0.000    0.000    0.000 
#
# Total GULP energy -134374.352688 kJ/mol
# GULP energy per Si atom -5598.931362 kJ/mol
# Density = 2.407610 g / cm^3
# Si number density = 24.131023 Si / 1000 Ang^3
#
#
#
# Elastic Constant Matrix: (Units=GPa)
#
#
# Indices 1 2 3 4 5 6 
#
# 1 79.6649 7.4894 11.7612 0.0000 -24.8543 0.0000
# 2 7.4894 123.5905 22.9494 0.0000 1.1874 0.0000
# 3 11.7612 22.9494 62.5684 0.0000 -6.7593 0.0000
# 4 0.0000 0.0000 0.0000 17.0733 0.0000 0.2627
# 5 -24.8543 1.1874 -6.7593 0.0000 14.7799 0.0000
# 6 0.0000 0.0000 0.0000 0.2627 0.0000 31.0759
#
#
#
# Elastic Compliance Matrix: (Units=1/GPa)
#
#
# Indices 1 2 3 4 5 6 
#
# 1 0.026951 -0.002202 0.000691 0.000000 0.045815 0.000000
# 2 -0.002202 0.008935 -0.003515 0.000000 -0.006028 0.000000
# 3 0.000691 -0.003515 0.018197 0.000000 0.009766 0.000000
# 4 0.000000 0.000000 0.000000 0.058579 0.000000 -0.000495
# 5 0.045815 -0.006028 0.009766 0.000000 0.149654 0.000000
# 6 0.000000 0.000000 0.000000 -0.000495 0.000000 0.032183
#
#
# Mechanical properties :
#
#
# Convention : Reuss Voigt Hill
#
# Bulk Modulus (GPa) = 22.71067 38.91376 30.81222
# Shear Modulus (GPa) = 15.66283 27.49407 21.57845
#
# Velocity S-wave (km/s) = 2.55046 3.37911 2.99360
# Velocity P-wave (km/s) = 4.25499 5.60228 4.97446
#
# Compressibility (1/GPa) = 0.04403216
#
# Stress axis : x y z
#
# Youngs Moduli (GPa) = 37.10427 111.91695 54.95468
#
# Poissons Ratio (x) = 0.24640 -0.03797
# Poissons Ratio (y) = 0.08169 0.19315
# Poissons Ratio (z) = -0.02563 0.39335
#
# Static dielectric constant tensor:
#      x y z
#    x 1.947130 0.000000 -0.021250 
#    y 0.000000 1.894940 0.000000 
#    z -0.021250 0.000000 1.919500 
# 
# From -- ./inp_files/203010.got.cif
#   From: 2010.05.17/outbox.cif.g08.bks.cpg/sg15_102_cif.got.tgz:203010.got - 2010.06.03 18:47:42.
