data_PCOD9286844
_publ_section_title
;
Structure prediction by ZEFSAII (Michael W. Deem and Ramdas Pophale) SiO2 
 PCOD9286844
Probable space group: C 2/C
;
_chemical_formula_sum "Si O2"
_cell_formula_units_Z 48
_cell_length_a 31.478711
_cell_length_b 7.700866
_cell_length_c 20.193830
_cell_angle_alpha 90.000000
_cell_angle_beta 24.990965
_cell_angle_gamma 90.000000
_cell_volume 2068.123965
_symmetry_space_group_name_H-M "C 2/C"
_symmetry_group_IT_number 15
_symmetry_cell_setting 'monoclinic'
loop_
_space_group_symop_operation_xyz
x,y,z
-x,y,1/2-z
-x,-y,-z
x,-y,1/2+z
1/2+x,1/2+y,z
1/2-x,1/2+y,1/2-z
1/2-x,1/2-y,-z
1/2+x,1/2-y,1/2+z
loop_
_atom_site_type_symbol
_atom_site_label
_atom_site_fract_x
_atom_site_fract_y
_atom_site_fract_z
Si Si1 0.201929 0.673755 0.755864
Si Si2 0.093755 0.963269 0.821910
Si Si3 0.267680 0.493301 0.541880
Si Si4 0.617682 0.943179 0.988992
Si Si5 0.947091 0.192922 0.255660
Si Si6 0.194537 0.614374 0.009689
O O1 0.141365 0.794653 0.790128
O O2 0.229752 0.512257 0.669745
O O3 0.299624 0.788245 0.638342
O O4 0.142170 0.595921 0.902544
O O5 0.049072 0.933981 0.812362
O O6 0.188325 0.093468 0.680046
O O7 0.000000 0.000000 0.000000
O O8 0.329933 0.669079 0.439541
O O9 0.193212 0.463337 0.585567
O O10 0.332194 0.316494 0.449362
O O11 0.632114 0.015629 0.042688
O O12 0.507674 0.859123 0.143503
O O13 0.000000 0.143773 0.250000
#
# Coordination Sequence:
#
# PCOD9286844 Si02
#       6
#     8   8   8   8   8   8
#     4  11  24  40  72  92 137 180 221 277 344 410
#     4  10  25  43  66  99 138 175 225 283 341 404
#     4  10  21  44  70  95 129 182 223 276 345 405
#     4  11  24  41  69 102 135 177 229 282 343 410
#     4  11  24  41  67 100 138 174 223 285 335 404
#     4   9  22  42  70  95 131 175 228 276 340 415
#
# _framework density 23.209441000000002
#
# number of rings (size 3 to 8) (size 9 to 14) (size 15 to 20)
#    0.000    1.667    1.667    1.000    9.333    4.000 
#    0.000    2.500    0.000    0.000    0.000    0.000 
#    0.000    0.000    0.000    0.000    0.000    0.000 
#
# Total GULP energy -133948.688985 kJ/mol
# GULP energy per Si atom -5581.195374 kJ/mol
# Density = 2.315662 g / cm^3
# Si number density = 23.209441 Si / 1000 Ang^3
#
#
#
# Elastic Constant Matrix: (Units=GPa)
#
#
# Indices 1 2 3 4 5 6 
#
# 1 63.9530 35.0584 32.2778 -0.0006 17.7595 0.0006
# 2 35.0584 103.8439 21.9797 -0.0042 -5.1077 0.0025
# 3 32.2778 21.9797 88.5894 -0.0029 6.4887 0.0006
# 4 -0.0006 -0.0042 -0.0029 34.9825 0.0002 12.8681
# 5 17.7595 -5.1077 6.4887 0.0002 37.9127 -0.0003
# 6 0.0006 0.0025 0.0006 12.8681 -0.0003 26.8264
#
#
#
# Elastic Compliance Matrix: (Units=1/GPa)
#
#
# Indices 1 2 3 4 5 6 
#
# 1 0.027236 -0.008355 -0.006920 -0.000001 -0.012699 0.000001
# 2 -0.008355 0.012853 -0.000565 0.000002 0.005742 -0.000002
# 3 -0.006920 -0.000565 0.013892 0.000001 0.000788 -0.000001
# 4 -0.000001 0.000002 0.000001 0.034710 0.000000 -0.016650
# 5 -0.012699 0.005742 0.000788 0.000000 0.032964 0.000000
# 6 0.000001 -0.000002 -0.000001 -0.016650 0.000000 0.045263
#
#
# Mechanical properties :
#
#
# Convention : Reuss Voigt Hill
#
# Bulk Modulus (GPa) = 44.84424 48.33533 46.58978
# Shear Modulus (GPa) = 24.26804 31.08235 27.67520
#
# Velocity S-wave (km/s) = 3.23710 3.66349 3.45688
# Velocity P-wave (km/s) = 5.77367 6.22622 6.00421
#
# Compressibility (1/GPa) = 0.02229941
#
# Stress axis : x y z
#
# Youngs Moduli (GPa) = 36.71619 77.80549 71.98365
#
# Poissons Ratio (x) = 0.65005 0.49816
# Poissons Ratio (y) = 0.30676 0.04069
# Poissons Ratio (z) = 0.25409 0.04398
#
# Static dielectric constant tensor:
#      x y z
#    x 1.871160 0.000000 -0.005880 
#    y 0.000000 2.013880 0.000000 
#    z -0.005880 0.000000 2.092060 
# 
# From -- ./inp_files/208942.got.cif
#   From: 2010.05.17/outbox.cif.g08.bks.cpg/sg15_105_cif.got.tgz:208942.got - 2010.06.03 18:47:42.
