data_PCOD9286987
_publ_section_title
;
Structure prediction by ZEFSAII (Michael W. Deem and Ramdas Pophale) SiO2 
 PCOD9286987
Probable space group: C 2/C
;
_chemical_formula_sum "Si O2"
_cell_formula_units_Z 48
_cell_length_a 4.929678
_cell_length_b 24.827593
_cell_length_c 18.189940
_cell_angle_alpha 90.000000
_cell_angle_beta 84.327515
_cell_angle_gamma 90.000000
_cell_volume 2215.401973
_symmetry_space_group_name_H-M "C 2/C"
_symmetry_group_IT_number 15
_symmetry_cell_setting 'monoclinic'
loop_
_space_group_symop_operation_xyz
x,y,z
-x,y,1/2-z
-x,-y,-z
x,-y,1/2+z
1/2+x,1/2+y,z
1/2-x,1/2+y,1/2-z
1/2-x,1/2-y,-z
1/2+x,1/2-y,1/2+z
loop_
_atom_site_type_symbol
_atom_site_label
_atom_site_fract_x
_atom_site_fract_y
_atom_site_fract_z
Si Si1 0.676702 0.450834 0.062327
Si Si2 0.929270 0.660319 0.585794
Si Si3 0.554899 0.715729 0.954150
Si Si4 0.000000 0.582062 0.250000
Si Si5 0.202954 0.746817 0.177719
Si Si6 0.670740 0.980122 0.599261
Si Si7 0.500000 0.656773 0.250000
O O1 0.800409 0.397831 0.095665
O O2 0.377735 0.469160 0.095159
O O3 0.875607 0.499547 0.081049
O O4 0.706748 0.445700 0.972639
O O5 0.745803 0.690428 0.526964
O O6 0.873023 0.699138 0.656923
O O7 0.250262 0.664097 0.565490
O O8 0.493555 0.754248 0.886968
O O9 0.750000 0.750000 0.000000
O O10 0.131091 0.548405 0.178939
O O11 0.241223 0.619731 0.275196
O O12 0.396944 0.696375 0.187872
O O13 0.000000 0.752132 0.250000
#
# Coordination Sequence:
#
# PCOD9286987 Si02
#       7
#     8   8   8   4   8   8   4
#     4  10  21  45  70  95 133 181 217 292 354 408
#     4  10  22  39  66  94 131 176 229 267 347 409
#     4  10  22  39  60  93 137 168 221 279 315 402
#     4  12  26  44  69 106 133 180 242 284 348 436
#     4  10  23  43  62  93 138 176 224 280 343 418
#     4  10  23  44  67  97 139 170 229 290 348 409
#     4  12  24  44  65  94 143 192 218 284 364 412
#
# _framework density 21.666499000000002
#
# number of rings (size 3 to 8) (size 9 to 14) (size 15 to 20)
#    1.000    0.667    0.833    3.500    0.000    1.333 
#    6.000    0.000    0.000    0.000    0.000    0.000 
#    0.000    0.000    0.000    0.000    0.000    0.000 
#
# Total GULP energy -133687.694994 kJ/mol
# GULP energy per Si atom -5570.320625 kJ/mol
# Density = 2.161719 g / cm^3
# Si number density = 21.666499 Si / 1000 Ang^3
#
#
#
# Elastic Constant Matrix: (Units=GPa)
#
#
# Indices 1 2 3 4 5 6 
#
# 1 142.1825 25.1208 35.0238 0.0000 5.5760 0.0000
# 2 25.1208 86.7751 48.7673 0.0000 -6.4924 0.0000
# 3 35.0238 48.7673 93.8885 0.0000 5.5975 0.0000
# 4 0.0000 0.0000 0.0000 28.8437 0.0000 -15.8960
# 5 5.5760 -6.4924 5.5975 0.0000 36.2056 0.0000
# 6 0.0000 0.0000 0.0000 -15.8960 0.0000 135.1586
#
#
#
# Elastic Compliance Matrix: (Units=1/GPa)
#
#
# Indices 1 2 3 4 5 6 
#
# 1 0.007829 -0.001041 -0.002318 0.000000 -0.001034 0.000000
# 2 -0.001041 0.017093 -0.008763 0.000000 0.004580 0.000000
# 3 -0.002318 -0.008763 0.016290 0.000000 -0.003733 0.000000
# 4 0.000000 0.000000 0.000000 0.037073 0.000000 0.004360
# 5 -0.001034 0.004580 -0.003733 0.000000 0.029178 0.000000
# 6 0.000000 0.000000 0.000000 0.004360 0.000000 0.007912
#
#
# Mechanical properties :
#
#
# Convention : Reuss Voigt Hill
#
# Bulk Modulus (GPa) = 58.93701 60.07443 59.50572
# Shear Modulus (GPa) = 34.41790 54.30386 44.36088
#
# Velocity S-wave (km/s) = 3.98996 5.01178 4.52977
# Velocity P-wave (km/s) = 6.96329 7.82800 7.40827
#
# Compressibility (1/GPa) = 0.01696727
#
# Stress axis : x y z
#
# Youngs Moduli (GPa) = 127.73531 58.50378 61.38779
#
# Poissons Ratio (x) = 0.06090 0.14230
# Poissons Ratio (y) = 0.13297 0.53795
# Poissons Ratio (z) = 0.29609 0.51267
#
# Static dielectric constant tensor:
#      x y z
#    x 1.809930 0.000000 0.025780 
#    y 0.000000 1.849840 0.000000 
#    z 0.025780 0.000000 1.826950 
# 
# From -- ./inp_files/185320.got.cif
#   From: 2010.05.17/outbox.cif.g08.bks.cpg/sg15_93_cif.got.tgz:185320.got - 2010.06.03 18:47:42.
