data_PCOD9286748
_publ_section_title
;
Structure prediction by ZEFSAII (Michael W. Deem and Ramdas Pophale) SiO2 
 PCOD9286748
Probable space group: C 2/C
;
_chemical_formula_sum "Si O2"
_cell_formula_units_Z 44
_cell_length_a 11.974494
_cell_length_b 8.840687
_cell_length_c 18.987840
_cell_angle_alpha 90.000000
_cell_angle_beta 119.467569
_cell_angle_gamma 90.000000
_cell_volume 1750.066344
_symmetry_space_group_name_H-M "C 2/C"
_symmetry_group_IT_number 15
_symmetry_cell_setting 'monoclinic'
loop_
_space_group_symop_operation_xyz
x,y,z
-x,y,1/2-z
-x,-y,-z
x,-y,1/2+z
1/2+x,1/2+y,z
1/2-x,1/2+y,1/2-z
1/2-x,1/2-y,-z
1/2+x,1/2-y,1/2+z
loop_
_atom_site_type_symbol
_atom_site_label
_atom_site_fract_x
_atom_site_fract_y
_atom_site_fract_z
Si Si1 0.591033 0.876541 0.565839
Si Si2 0.000000 0.673563 0.250000
Si Si3 0.626662 0.312841 0.420495
Si Si4 0.708085 0.027309 0.731072
Si Si5 0.576937 0.672768 0.201387
Si Si6 0.581110 0.386114 0.973264
O O1 0.491691 0.773227 0.579061
O O2 0.684800 0.971687 0.644337
O O3 0.656021 0.742947 0.539341
O O4 0.500000 0.000000 0.500000
O O5 0.906546 0.771899 0.170467
O O6 0.901242 0.562872 0.259822
O O7 0.750000 0.250000 0.500000
O O8 0.641564 0.490763 0.440014
O O9 0.852118 0.982824 0.794227
O O10 0.686006 0.201050 0.740251
O O11 0.500000 0.668155 0.250000
O O12 0.502084 0.712801 0.107101
O O13 0.500000 0.500000 0.000000
#
# Coordination Sequence:
#
# PCOD9286748 Si02
#       6
#     8   4   8   8   8   8
#     4  10  21  44  67  98 137 191 243 302 377 443
#     4  10  24  44  74 108 152 200 258 308 402 454
#     4  10  24  41  69 105 144 192 248 312 378 456
#     4  11  26  46  76 103 154 198 244 323 381 458
#     4  12  28  48  75 113 150 195 256 311 388 464
#     4  10  24  45  70 102 147 189 257 309 373 468
#
# _framework density 25.141905000000001
#
# number of rings (size 3 to 8) (size 9 to 14) (size 15 to 20)
#    0.000    1.455    2.727    0.000   14.000    1.455 
#    0.000    1.818    0.000    0.000    0.000    0.000 
#    0.000    0.000    0.000    0.000    0.000    0.000 
#
# Total GULP energy -122962.052763 kJ/mol
# GULP energy per Si atom -5589.184217 kJ/mol
# Density = 2.508468 g / cm^3
# Si number density = 25.141905 Si / 1000 Ang^3
#
#
#
# Elastic Constant Matrix: (Units=GPa)
#
#
# Indices 1 2 3 4 5 6 
#
# 1 62.1490 11.4071 7.1562 0.0000 -15.6510 0.0000
# 2 11.4071 122.9106 11.0149 0.0000 -15.6909 0.0000
# 3 7.1562 11.0149 103.8794 0.0000 -6.9760 0.0000
# 4 0.0000 0.0000 0.0000 45.3419 0.0000 11.0291
# 5 -15.6510 -15.6909 -6.9760 0.0000 34.8062 0.0000
# 6 0.0000 0.0000 0.0000 11.0291 0.0000 36.4427
#
#
#
# Elastic Compliance Matrix: (Units=1/GPa)
#
#
# Indices 1 2 3 4 5 6 
#
# 1 0.018244 -0.000640 -0.000666 0.000000 0.007782 0.000000
# 2 -0.000640 0.008701 -0.000643 0.000000 0.003506 0.000000
# 3 -0.000666 -0.000643 0.009833 0.000000 0.001381 0.000000
# 4 0.000000 0.000000 0.000000 0.023807 0.000000 -0.007205
# 5 0.007782 0.003506 0.001381 0.000000 0.034087 0.000000
# 6 0.000000 0.000000 0.000000 -0.007205 0.000000 0.029621
#
#
# Mechanical properties :
#
#
# Convention : Reuss Voigt Hill
#
# Bulk Modulus (GPa) = 30.41445 38.67728 34.54586
# Shear Modulus (GPa) = 35.93197 40.60888 38.27042
#
# Velocity S-wave (km/s) = 3.78453 4.02330 3.90574
# Velocity P-wave (km/s) = 5.58751 6.08273 5.84037
#
# Compressibility (1/GPa) = 0.03287911
#
# Stress axis : x y z
#
# Youngs Moduli (GPa) = 54.81182 114.93521 101.69423
#
# Poissons Ratio (x) = 0.07357 0.06777
# Poissons Ratio (y) = 0.03508 0.06539
# Poissons Ratio (z) = 0.03653 0.07391
#
# Static dielectric constant tensor:
#      x y z
#    x 2.017170 0.000000 -0.028260 
#    y 0.000000 1.984650 0.000000 
#    z -0.028260 0.000000 2.348280 
# 
# From -- ./inp_files/203079.got.cif
#   From: 2010.05.17/outbox.cif.g08.bks.cpg/sg15_102_cif.got.tgz:203079.got - 2010.06.03 18:47:42.
