data_PCOD9286720
_publ_section_title
;
Structure prediction by ZEFSAII (Michael W. Deem and Ramdas Pophale) SiO2 
 PCOD9286720
Probable space group: C 2/C
;
_chemical_formula_sum "Si O2"
_cell_formula_units_Z 36
_cell_length_a 19.920913
_cell_length_b 8.784009
_cell_length_c 12.408098
_cell_angle_alpha 90.000000
_cell_angle_beta 43.243370
_cell_angle_gamma 90.000000
_cell_volume 1487.511632
_symmetry_space_group_name_H-M "C 2/C"
_symmetry_group_IT_number 15
_symmetry_cell_setting 'monoclinic'
loop_
_space_group_symop_operation_xyz
x,y,z
-x,y,1/2-z
-x,-y,-z
x,-y,1/2+z
1/2+x,1/2+y,z
1/2-x,1/2+y,1/2-z
1/2-x,1/2-y,-z
1/2+x,1/2-y,1/2+z
loop_
_atom_site_type_symbol
_atom_site_label
_atom_site_fract_x
_atom_site_fract_y
_atom_site_fract_z
Si Si1 0.000000 0.061392 0.250000
Si Si2 0.914380 0.598245 0.155394
Si Si3 0.887176 0.305887 0.287649
Si Si4 0.765306 0.643336 0.138854
Si Si5 0.836993 0.136141 0.860410
O O1 0.025184 0.184165 0.314850
O O2 0.097137 0.956563 0.129896
O O3 0.900051 0.485439 0.272445
O O4 0.825450 0.612531 0.175069
O O5 0.917835 0.766096 0.200220
O O6 0.000000 0.500000 0.000000
O O7 0.833234 0.285160 0.465107
O O8 0.822637 0.265165 0.258581
O O9 0.715247 0.490597 0.151949
O O10 0.750000 0.250000 0.000000
#
# Coordination Sequence:
#
# PCOD9286720 Si02
#       5
#     4   8   8   8   8
#     4  10  24  42  70  98 132 184 236 292 358 420
#     4  12  25  40  68 105 136 179 237 293 355 421
#     4  10  21  44  66  97 138 181 230 294 353 418
#     4  10  22  43  69  95 136 184 229 283 356 423
#     4  11  24  45  70 100 139 190 232 293 356 432
#
# _framework density 24.201492999999999
#
# number of rings (size 3 to 8) (size 9 to 14) (size 15 to 20)
#    0.000    1.333    2.222    2.667    3.111    0.889 
#    4.000    5.556    0.000    0.000    0.000    0.000 
#    0.000    0.000    0.000    0.000    0.000    0.000 
#
# Total GULP energy -100251.420310 kJ/mol
# GULP energy per Si atom -5569.523351 kJ/mol
# Density = 2.414641 g / cm^3
# Si number density = 24.201493 Si / 1000 Ang^3
#
#
#
# Elastic Constant Matrix: (Units=GPa)
#
#
# Indices 1 2 3 4 5 6 
#
# 1 118.8617 31.6787 11.8093 0.0000 -24.9875 0.0000
# 2 31.6787 141.7592 23.5623 0.0000 -12.3587 0.0000
# 3 11.8093 23.5623 42.2617 0.0000 -8.8362 0.0000
# 4 0.0000 0.0000 0.0000 27.7094 0.0000 -5.9649
# 5 -24.9875 -12.3587 -8.8362 0.0000 21.1542 0.0000
# 6 0.0000 0.0000 0.0000 -5.9649 0.0000 48.2342
#
#
#
# Elastic Compliance Matrix: (Units=1/GPa)
#
#
# Indices 1 2 3 4 5 6 
#
# 1 0.011474 -0.001499 0.000307 0.000000 0.012806 0.000000
# 2 -0.001499 0.008147 -0.003833 0.000000 0.001388 0.000000
# 3 0.000307 -0.003833 0.027744 0.000000 0.009712 0.000000
# 4 0.000000 0.000000 0.000000 0.037076 0.000000 0.004585
# 5 0.012806 0.001388 0.009712 0.000000 0.067266 0.000000
# 6 0.000000 0.000000 0.000000 0.004585 0.000000 0.021299
#
#
# Mechanical properties :
#
#
# Convention : Reuss Voigt Hill
#
# Bulk Modulus (GPa) = 26.79877 48.55372 37.67625
# Shear Modulus (GPa) = 25.57605 35.14173 30.35889
#
# Velocity S-wave (km/s) = 3.25437 3.81471 3.54562
# Velocity P-wave (km/s) = 5.02180 6.28558 5.68889
#
# Compressibility (1/GPa) = 0.03731514
#
# Stress axis : x y z
#
# Youngs Moduli (GPa) = 87.15209 122.73980 36.04374
#
# Poissons Ratio (x) = 0.18395 -0.01106
# Poissons Ratio (y) = 0.13061 0.13817
# Poissons Ratio (z) = -0.02674 0.47050
#
# Static dielectric constant tensor:
#      x y z
#    x 1.952460 0.000000 -0.041100 
#    y 0.000000 1.946540 0.000000 
#    z -0.041100 0.000000 2.301320 
# 
# From -- ./inp_files/165603.got.cif
#   From: 2010.05.17/outbox.cif.g08.bks.cpg/sg15_83_cif.got.tgz:165603.got - 2010.06.03 18:47:42.
