data_PCOD9286145
_publ_section_title
;
Structure prediction by ZEFSAII (Michael W. Deem and Ramdas Pophale) SiO2 
 PCOD9286145
Probable space group: C 2/C
;
_chemical_formula_sum "Si O2"
_cell_formula_units_Z 60
_cell_length_a 14.985008
_cell_length_b 23.490344
_cell_length_c 8.855811
_cell_angle_alpha 90.000000
_cell_angle_beta 120.201488
_cell_angle_gamma 90.000000
_cell_volume 2694.138895
_symmetry_space_group_name_H-M "C 2/C"
_symmetry_group_IT_number 15
_symmetry_cell_setting 'monoclinic'
loop_
_space_group_symop_operation_xyz
x,y,z
-x,y,1/2-z
-x,-y,-z
x,-y,1/2+z
1/2+x,1/2+y,z
1/2-x,1/2+y,1/2-z
1/2-x,1/2-y,-z
1/2+x,1/2-y,1/2+z
loop_
_atom_site_type_symbol
_atom_site_label
_atom_site_fract_x
_atom_site_fract_y
_atom_site_fract_z
Si Si1 0.450631 0.402615 0.365509
Si Si2 0.748357 0.316106 0.683208
Si Si3 0.213351 0.000022 0.820203
Si Si4 0.551148 0.113860 0.134603
Si Si5 0.102295 0.111218 0.244158
Si Si6 0.500000 0.901028 0.250000
Si Si7 0.112333 0.789624 0.272959
Si Si8 0.859677 0.506259 0.184008
O O1 0.500000 0.387493 0.250000
O O2 0.374434 0.453668 0.271444
O O3 0.545565 0.417148 0.552174
O O4 0.398534 0.341617 0.355699
O O5 0.830951 0.366448 0.751149
O O6 0.669362 0.334853 0.748217
O O7 0.822393 0.260743 0.750290
O O8 0.681460 0.310131 0.474038
O O9 0.255991 0.988111 0.691706
O O10 0.172478 0.941296 0.861877
O O11 0.315623 0.026110 0.985802
O O12 0.500000 0.135212 0.250000
O O13 0.556907 0.045731 0.162139
O O14 0.514437 0.127977 0.930468
O O15 0.000000 0.126637 0.250000
O O16 0.403617 0.943451 0.195050
O O17 0.000000 0.771660 0.250000
#
# Coordination Sequence:
#
# PCOD9286145 Si02
#       8
#     8   8   8   8   8   4   8   8
#     4  11  21  40  63  93 130 172 230 280 335 411
#     4  11  22  43  70 104 133 178 238 291 359 429
#     4  12  23  36  62  97 133 186 231 275 349 433
#     4  12  24  42  69 100 141 195 242 294 363 425
#     4  12  23  40  62  97 145 180 218 289 359 419
#     4  12  24  42  58  98 148 186 244 308 344 426
#     4  10  21  42  74 101 130 170 239 301 342 419
#     4  12  21  38  59  87 137 182 230 281 349 409
#
# _framework density 22.270565000000001
#
# number of rings (size 3 to 8) (size 9 to 14) (size 15 to 20)
#    0.000    0.533    6.000    4.800    0.000    0.000 
#    0.000    0.667    1.467    0.000    0.000    0.000 
#    0.000    0.000    0.000    0.000    0.000    0.000 
#
# Total GULP energy -167097.451119 kJ/mol
# GULP energy per Si atom -5569.915037 kJ/mol
# Density = 2.221988 g / cm^3
# Si number density = 22.270565 Si / 1000 Ang^3
#
#
#
# Elastic Constant Matrix: (Units=GPa)
#
#
# Indices 1 2 3 4 5 6 
#
# 1 135.8078 40.8054 19.7339 0.0000 -4.4691 0.0000
# 2 40.8054 91.5012 15.1113 0.0000 -0.5073 0.0000
# 3 19.7339 15.1113 104.5343 0.0000 10.2484 0.0000
# 4 0.0000 0.0000 0.0000 29.3512 0.0000 3.9528
# 5 -4.4691 -0.5073 10.2484 0.0000 37.6378 0.0000
# 6 0.0000 0.0000 0.0000 3.9528 0.0000 42.4203
#
#
#
# Elastic Compliance Matrix: (Units=1/GPa)
#
#
# Indices 1 2 3 4 5 6 
#
# 1 0.008687 -0.003662 -0.001240 0.000000 0.001320 0.000000
# 2 -0.003662 0.012753 -0.001157 0.000000 0.000052 0.000000
# 3 -0.001240 -0.001157 0.010257 0.000000 -0.002956 0.000000
# 4 0.000000 0.000000 0.000000 0.034503 0.000000 -0.003215
# 5 0.001320 0.000052 -0.002956 0.000000 0.027531 0.000000
# 6 0.000000 0.000000 0.000000 -0.003215 0.000000 0.023873
#
#
# Mechanical properties :
#
#
# Convention : Reuss Voigt Hill
#
# Bulk Modulus (GPa) = 51.07467 53.68274 52.37871
# Shear Modulus (GPa) = 36.69699 38.96137 37.82918
#
# Velocity S-wave (km/s) = 4.06369 4.18719 4.12590
# Velocity P-wave (km/s) = 6.70832 6.89448 6.80204
#
# Compressibility (1/GPa) = 0.01957918
#
# Stress axis : x y z
#
# Youngs Moduli (GPa) = 115.11103 78.41079 97.49040
#
# Poissons Ratio (x) = 0.28714 0.12089
# Poissons Ratio (y) = 0.42154 0.11284
# Poissons Ratio (z) = 0.14274 0.09075
#
# Static dielectric constant tensor:
#      x y z
#    x 1.727800 0.000000 -0.194320 
#    y 0.000000 1.942830 0.000000 
#    z -0.194320 0.000000 1.667690 
# 
# From -- ./inp_files/42713.got.cif
#   From: 2010.05.17/outbox.cif.g08.bks.cpg/sg15_22_cif.got.tgz:42713.got - 2010.06.03 18:47:42.
