data_PCOD9286708
_publ_section_title
;
Structure prediction by ZEFSAII (Michael W. Deem and Ramdas Pophale) SiO2 
 PCOD9286708
Probable space group: C 2/C
;
_chemical_formula_sum "Si O2"
_cell_formula_units_Z 44
_cell_length_a 7.975975
_cell_length_b 25.414794
_cell_length_c 11.667970
_cell_angle_alpha 90.000000
_cell_angle_beta 127.261265
_cell_angle_gamma 90.000000
_cell_volume 1882.412937
_symmetry_space_group_name_H-M "C 2/C"
_symmetry_group_IT_number 15
_symmetry_cell_setting 'monoclinic'
loop_
_space_group_symop_operation_xyz
x,y,z
-x,y,1/2-z
-x,-y,-z
x,-y,1/2+z
1/2+x,1/2+y,z
1/2-x,1/2+y,1/2-z
1/2-x,1/2-y,-z
1/2+x,1/2-y,1/2+z
loop_
_atom_site_type_symbol
_atom_site_label
_atom_site_fract_x
_atom_site_fract_y
_atom_site_fract_z
Si Si1 0.131670 0.805842 0.651540
Si Si2 0.500000 0.111613 0.250000
Si Si3 0.861556 0.099592 0.090560
Si Si4 0.425108 0.059240 0.986067
Si Si5 0.388931 0.710947 0.827894
Si Si6 0.263409 0.906844 0.198363
O O1 0.314886 0.849587 0.714919
O O2 0.222426 0.758149 0.761880
O O3 0.932770 0.839887 0.610437
O O4 0.062772 0.784074 0.499055
O O5 0.401537 0.075916 0.107969
O O6 0.620984 0.095444 0.027567
O O7 0.000000 0.074858 0.250000
O O8 0.880590 0.076392 0.969774
O O9 0.245351 0.068526 0.816974
O O10 0.500000 0.000000 0.000000
O O11 0.500000 0.712111 0.750000
O O12 0.277154 0.654951 0.800088
O O13 0.500000 0.917328 0.250000
#
# Coordination Sequence:
#
# PCOD9286708 Si02
#       6
#     8   4   8   8   8   8
#     4  11  24  39  65  99 137 182 217 278 327 406
#     4  12  24  42  72  98 134 174 228 278 350 390
#     4  10  21  44  66  93 136 168 219 281 330 392
#     4  11  25  45  71  96 129 177 226 284 348 403
#     4  11  22  37  63  97 137 179 225 265 335 398
#     4   9  22  41  64  95 136 177 225 277 327 406
#
# _framework density 23.374255000000002
#
# number of rings (size 3 to 8) (size 9 to 14) (size 15 to 20)
#    0.000    1.455    2.727    1.636    6.364    0.727 
#    0.000   10.909    0.000    0.000    0.000    0.000 
#    0.000    0.000    0.000    0.000    0.000    0.000 
#
# Total GULP energy -122875.778314 kJ/mol
# GULP energy per Si atom -5585.262651 kJ/mol
# Density = 2.332105 g / cm^3
# Si number density = 23.374255 Si / 1000 Ang^3
#
#
#
# Elastic Constant Matrix: (Units=GPa)
#
#
# Indices 1 2 3 4 5 6 
#
# 1 57.3914 10.9968 11.1762 0.0000 -1.1907 0.0000
# 2 10.9968 98.9517 48.3125 0.0000 -10.3259 0.0000
# 3 11.1762 48.3125 223.0588 0.0000 -40.0078 0.0000
# 4 0.0000 0.0000 0.0000 8.2148 0.0000 -4.2714
# 5 -1.1907 -10.3259 -40.0078 0.0000 29.0617 0.0000
# 6 0.0000 0.0000 0.0000 -4.2714 0.0000 4.9000
#
#
#
# Elastic Compliance Matrix: (Units=1/GPa)
#
#
# Indices 1 2 3 4 5 6 
#
# 1 0.017871 -0.001747 -0.000660 0.000000 -0.000797 0.000000
# 2 -0.001747 0.011488 -0.002233 0.000000 0.000937 0.000000
# 3 -0.000660 -0.002233 0.006444 0.000000 0.008050 0.000000
# 4 0.000000 0.000000 0.000000 0.222653 0.000000 0.194092
# 5 -0.000797 0.000937 0.008050 0.000000 0.045792 0.000000
# 6 0.000000 0.000000 0.000000 0.194092 0.000000 0.373277
#
#
# Mechanical properties :
#
#
# Convention : Reuss Voigt Hill
#
# Bulk Modulus (GPa) = 37.70281 57.81920 47.76101
# Shear Modulus (GPa) = 7.18757 29.02972 18.10864
#
# Velocity S-wave (km/s) = 1.75547 3.52796 2.78641
# Velocity P-wave (km/s) = 4.50266 6.43314 5.55244
#
# Compressibility (1/GPa) = 0.02652322
#
# Stress axis : x y z
#
# Youngs Moduli (GPa) = 55.95677 87.04804 155.19083
#
# Poissons Ratio (x) = 0.15207 0.10243
# Poissons Ratio (y) = 0.09776 0.34649
# Poissons Ratio (z) = 0.03693 0.19435
#
# Static dielectric constant tensor:
#      x y z
#    x 1.948000 0.000000 -0.064620 
#    y 0.000000 1.832490 0.000000 
#    z -0.064620 0.000000 1.934420 
# 
# From -- ./inp_files/81559.got.cif
#   From: 2010.05.17/outbox.cif.g08.bks.cpg/sg15_41_cif.got.tgz:81559.got - 2010.06.03 18:47:42.
