data_PCOD9286526
_publ_section_title
;
Structure prediction by ZEFSAII (Michael W. Deem and Ramdas Pophale) SiO2 
 PCOD9286526
Probable space group: C 2/C
;
_chemical_formula_sum "Si O2"
_cell_formula_units_Z 48
_cell_length_a 10.855950
_cell_length_b 23.226831
_cell_length_c 8.314462
_cell_angle_alpha 90.000000
_cell_angle_beta 79.675257
_cell_angle_gamma 90.000000
_cell_volume 2062.539042
_symmetry_space_group_name_H-M "C 2/C"
_symmetry_group_IT_number 15
_symmetry_cell_setting 'monoclinic'
loop_
_space_group_symop_operation_xyz
x,y,z
-x,y,1/2-z
-x,-y,-z
x,-y,1/2+z
1/2+x,1/2+y,z
1/2-x,1/2+y,1/2-z
1/2-x,1/2-y,-z
1/2+x,1/2-y,1/2+z
loop_
_atom_site_type_symbol
_atom_site_label
_atom_site_fract_x
_atom_site_fract_y
_atom_site_fract_z
Si Si1 0.000000 0.979905 0.750000
Si Si2 0.241811 0.476011 0.183199
Si Si3 0.690614 0.087957 0.002867
Si Si4 0.237076 0.717373 0.333262
Si Si5 0.841970 0.109623 0.455009
Si Si6 0.853430 0.176880 0.787715
Si Si7 0.500000 0.841144 0.750000
O O1 0.045643 0.934202 0.605912
O O2 0.882979 0.018444 0.724679
O O3 0.164252 0.446353 0.343199
O O4 0.233266 0.436342 0.025045
O O5 0.219766 0.540461 0.130374
O O6 0.802532 0.133048 0.934522
O O7 0.576904 0.122805 0.102265
O O8 0.250000 0.750000 0.500000
O O9 0.320619 0.659284 0.327150
O O10 0.242525 0.768835 0.201104
O O11 0.099363 0.693869 0.331754
O O12 0.847613 0.142956 0.620886
O O13 0.000000 0.193615 0.750000
#
# Coordination Sequence:
#
# PCOD9286526 Si02
#       7
#     4   8   8   8   8   8   4
#     4  12  20  36  67 102 143 188 228 302 366 416
#     4  11  23  42  65 105 147 187 240 296 360 438
#     4  11  26  43  72 103 146 191 240 296 366 438
#     4  10  23  48  69 101 145 183 248 302 352 439
#     4  10  22  37  64 103 146 177 236 295 361 430
#     4  10  21  43  71 102 139 185 235 300 368 426
#     4  12  26  48  73 102 143 200 242 294 362 430
#
# _framework density 23.272286000000001
#
# number of rings (size 3 to 8) (size 9 to 14) (size 15 to 20)
#    0.000    1.333    2.500    2.500    4.667    1.333 
#    6.000    5.833    0.000    0.000    0.000    0.000 
#    0.000    0.000    0.000    0.000    0.000    0.000 
#
# Total GULP energy -133783.757022 kJ/mol
# GULP energy per Si atom -5574.323209 kJ/mol
# Density = 2.321932 g / cm^3
# Si number density = 23.272286 Si / 1000 Ang^3
#
#
#
# Elastic Constant Matrix: (Units=GPa)
#
#
# Indices 1 2 3 4 5 6 
#
# 1 23.4932 28.8031 21.6044 0.0000 1.2563 0.0000
# 2 28.8031 149.4309 46.3338 0.0000 1.9850 0.0000
# 3 21.6044 46.3338 120.6583 0.0000 -11.6836 0.0000
# 4 0.0000 0.0000 0.0000 30.3140 0.0000 22.8075
# 5 1.2563 1.9850 -11.6836 0.0000 25.3256 0.0000
# 6 0.0000 0.0000 0.0000 22.8075 0.0000 66.4017
#
#
#
# Elastic Compliance Matrix: (Units=1/GPa)
#
#
# Indices 1 2 3 4 5 6 
#
# 1 0.061725 -0.009318 -0.008060 0.000000 -0.006050 0.000000
# 2 -0.009318 0.009105 -0.001939 0.000000 -0.001146 0.000000
# 3 -0.008060 -0.001939 0.011021 0.000000 0.005636 0.000000
# 4 0.000000 0.000000 0.000000 0.044484 0.000000 -0.015279
# 5 -0.006050 -0.001146 0.005636 0.000000 0.042476 0.000000
# 6 0.000000 0.000000 0.000000 -0.015279 0.000000 0.020308
#
#
# Mechanical properties :
#
#
# Convention : Reuss Voigt Hill
#
# Bulk Modulus (GPa) = 23.13874 54.11835 38.62855
# Shear Modulus (GPa) = 20.64775 37.53101 29.08938
#
# Velocity S-wave (km/s) = 2.98186 4.02019 3.53931
# Velocity P-wave (km/s) = 4.67114 6.69732 5.77381
#
# Compressibility (1/GPa) = 0.04321756
#
# Stress axis : x y z
#
# Youngs Moduli (GPa) = 16.20090 109.83573 90.73401
#
# Poissons Ratio (x) = 1.02347 0.73129
# Poissons Ratio (y) = 0.15096 0.17590
# Poissons Ratio (z) = 0.13057 0.21294
#
# Static dielectric constant tensor:
#      x y z
#    x 1.881750 0.000000 0.015670 
#    y 0.000000 1.956440 0.000000 
#    z 0.015670 0.000000 1.947050 
# 
# From -- ./inp_files/32590.got.cif
#   From: 2010.05.17/outbox.cif.g08.bks.cpg/sg15_17_cif.got.tgz:32590.got - 2010.06.03 18:47:42.
