data_PCOD9286845
_publ_section_title
;
Structure prediction by ZEFSAII (Michael W. Deem and Ramdas Pophale) SiO2 
 PCOD9286845
Probable space group: C 2/C
;
_chemical_formula_sum "Si O2"
_cell_formula_units_Z 48
_cell_length_a 11.004196
_cell_length_b 15.710697
_cell_length_c 19.453988
_cell_angle_alpha 90.000000
_cell_angle_beta 39.425795
_cell_angle_gamma 90.000000
_cell_volume 2135.943272
_symmetry_space_group_name_H-M "C 2/C"
_symmetry_group_IT_number 15
_symmetry_cell_setting 'monoclinic'
loop_
_space_group_symop_operation_xyz
x,y,z
-x,y,1/2-z
-x,-y,-z
x,-y,1/2+z
1/2+x,1/2+y,z
1/2-x,1/2+y,1/2-z
1/2-x,1/2-y,-z
1/2+x,1/2-y,1/2+z
loop_
_atom_site_type_symbol
_atom_site_label
_atom_site_fract_x
_atom_site_fract_y
_atom_site_fract_z
Si Si1 0.709401 0.858152 0.177955
Si Si2 0.191262 0.372819 0.581840
Si Si3 0.796330 0.465707 0.744673
Si Si4 0.342734 0.074240 0.068247
Si Si5 0.454074 0.233420 0.482871
Si Si6 0.614128 0.546544 0.030021
O O1 0.500000 0.821926 0.250000
O O2 0.872156 0.789408 0.125227
O O3 0.684544 0.933474 0.245602
O O4 0.785291 0.900718 0.073943
O O5 0.291514 0.297564 0.581149
O O6 0.146720 0.326074 0.529303
O O7 0.342327 0.447795 0.503899
O O8 0.989990 0.419193 0.683777
O O9 0.760988 0.438073 0.681071
O O10 0.610502 0.438373 0.867546
O O11 0.443513 0.165533 0.013317
O O12 0.201391 0.062612 0.066904
O O13 0.500000 0.000000 0.000000
#
# Coordination Sequence:
#
# PCOD9286845 Si02
#       6
#     8   8   8   8   8   8
#     4  12  24  42  72 101 139 179 231 283 344 413
#     4  10  21  44  70  95 137 180 230 282 332 408
#     4  11  23  41  72 100 134 186 231 275 348 407
#     4  11  22  46  71  97 141 184 225 281 347 414
#     4  10  23  41  71 101 140 176 232 291 335 400
#     4  12  23  42  75  99 137 184 229 278 354 412
#
# _framework density 22.472507
#
# number of rings (size 3 to 8) (size 9 to 14) (size 15 to 20)
#    0.000    1.000    6.667    1.000    0.000    3.333 
#    0.000    3.333    3.667    0.000    0.000    0.000 
#    0.000    0.000    0.000    0.000    0.000    0.000 
#
# Total GULP energy -134035.187676 kJ/mol
# GULP energy per Si atom -5584.799487 kJ/mol
# Density = 2.242136 g / cm^3
# Si number density = 22.472507 Si / 1000 Ang^3
#
#
#
# Elastic Constant Matrix: (Units=GPa)
#
#
# Indices 1 2 3 4 5 6 
#
# 1 62.5977 21.1817 37.1386 0.0027 16.9893 -0.0008
# 2 21.1817 106.8212 45.0373 0.0036 -7.9659 -0.0016
# 3 37.1386 45.0373 108.1624 0.0071 -23.6084 -0.0029
# 4 0.0027 0.0036 0.0071 32.6845 -0.0022 -7.5236
# 5 16.9893 -7.9659 -23.6084 -0.0022 46.7989 0.0008
# 6 -0.0008 -0.0016 -0.0029 -7.5236 0.0008 45.3757
#
#
#
# Elastic Compliance Matrix: (Units=1/GPa)
#
#
# Indices 1 2 3 4 5 6 
#
# 1 0.028999 -0.001514 -0.013126 -0.000001 -0.017407 0.000000
# 2 -0.001514 0.011445 -0.004158 0.000000 0.000400 0.000000
# 3 -0.013126 -0.004158 0.018395 -0.000001 0.013337 0.000000
# 4 -0.000001 0.000000 -0.000001 0.031810 0.000001 0.005274
# 5 -0.017407 0.000400 0.013337 0.000001 0.034483 0.000000
# 6 0.000000 0.000000 0.000000 0.005274 0.000000 0.022913
#
#
# Mechanical properties :
#
#
# Convention : Reuss Voigt Hill
#
# Bulk Modulus (GPa) = 47.07697 53.81071 50.44384
# Shear Modulus (GPa) = 25.94415 36.58674 31.26545
#
# Velocity S-wave (km/s) = 3.40146 4.03931 3.73403
# Velocity P-wave (km/s) = 6.03496 6.76401 6.40986
#
# Compressibility (1/GPa) = 0.02124181
#
# Stress axis : x y z
#
# Youngs Moduli (GPa) = 34.48362 87.37700 54.36352
#
# Poissons Ratio (x) = 0.13231 0.71358
# Poissons Ratio (y) = 0.05222 0.22605
# Poissons Ratio (z) = 0.45263 0.36332
#
# Static dielectric constant tensor:
#      x y z
#    x 1.847990 0.000000 0.007780 
#    y 0.000000 1.849590 0.000000 
#    z 0.007780 0.000000 1.885220 
# 
# From -- ./inp_files/238956.got.cif
#   From: 2010.05.17/outbox.cif.g08.bks.cpg/sg15_120_cif.got.tgz:238956.got - 2010.06.03 18:47:42.
