data_PCOD9286622
_publ_section_title
;
Structure prediction by ZEFSAII (Michael W. Deem and Ramdas Pophale) SiO2 
 PCOD9286622
Probable space group: C 2/C
;
_chemical_formula_sum "Si O2"
_cell_formula_units_Z 48
_cell_length_a 10.799843
_cell_length_b 8.301879
_cell_length_c 21.482673
_cell_angle_alpha 90.000000
_cell_angle_beta 69.926192
_cell_angle_gamma 90.000000
_cell_volume 1809.105702
_symmetry_space_group_name_H-M "C 2/C"
_symmetry_group_IT_number 15
_symmetry_cell_setting 'monoclinic'
loop_
_space_group_symop_operation_xyz
x,y,z
-x,y,1/2-z
-x,-y,-z
x,-y,1/2+z
1/2+x,1/2+y,z
1/2-x,1/2+y,1/2-z
1/2-x,1/2-y,-z
1/2+x,1/2-y,1/2+z
loop_
_atom_site_type_symbol
_atom_site_label
_atom_site_fract_x
_atom_site_fract_y
_atom_site_fract_z
Si Si1 0.442701 0.720473 0.064775
Si Si2 0.271664 0.786794 0.206927
Si Si3 0.841441 0.938408 0.479248
Si Si4 0.500000 0.343702 0.750000
Si Si5 0.707389 0.434885 0.638280
Si Si6 0.500000 0.886279 0.750000
Si Si7 0.860722 0.580490 0.889001
O O1 0.328459 0.697042 0.136037
O O2 0.403237 0.722839 0.998282
O O3 0.528480 0.862881 0.080225
O O4 0.542467 0.568773 0.048792
O O5 0.377593 0.753350 0.242376
O O6 0.228259 0.473735 0.314425
O O7 0.125177 0.725847 0.247193
O O8 0.769572 0.955468 0.425714
O O9 0.745434 0.990366 0.551102
O O10 0.554436 0.447295 0.684435
O O11 0.715408 0.245932 0.620323
O O12 0.435430 0.988035 0.819525
#
# Coordination Sequence:
#
# PCOD9286622 Si02
#       7
#     8   8   8   4   8   4   8
#     4  10  21  43  79 108 157 200 262 317 400 463
#     4  12  27  51  80 119 155 214 268 335 391 477
#     4  10  21  47  79 116 159 209 257 330 400 478
#     4  12  26  50  76 110 164 212 264 332 398 470
#     4  11  25  46  83 111 155 210 265 321 405 465
#     4  12  28  50  80 118 166 208 282 326 402 480
#     4  11  23  47  78 118 163 213 256 334 399 480
#
# _framework density 26.532446
#
# number of rings (size 3 to 8) (size 9 to 14) (size 15 to 20)
#    0.000    1.000    5.000    3.000    2.333    0.667 
#    0.000    8.333    0.000    1.000    0.000    0.000 
#    0.000    0.000    0.000    0.000    0.000    0.000 
#
# Total GULP energy -133947.186853 kJ/mol
# GULP energy per Si atom -5581.132786 kJ/mol
# Density = 2.647206 g / cm^3
# Si number density = 26.532446 Si / 1000 Ang^3
#
#
#
# Elastic Constant Matrix: (Units=GPa)
#
#
# Indices 1 2 3 4 5 6 
#
# 1 130.4738 60.2948 48.1188 0.0000 -5.7109 0.0000
# 2 60.2948 93.3658 41.5529 0.0000 13.3877 0.0000
# 3 48.1188 41.5529 144.5528 0.0000 11.5483 0.0000
# 4 0.0000 0.0000 0.0000 42.0245 0.0000 6.4675
# 5 -5.7109 13.3877 11.5483 0.0000 50.5628 0.0000
# 6 0.0000 0.0000 0.0000 6.4675 0.0000 37.6695
#
#
#
# Elastic Compliance Matrix: (Units=1/GPa)
#
#
# Indices 1 2 3 4 5 6 
#
# 1 0.012033 -0.007337 -0.002200 0.000000 0.003804 0.000000
# 2 -0.007337 0.017071 -0.002076 0.000000 -0.004875 0.000000
# 3 -0.002200 -0.002076 0.008376 0.000000 -0.001612 0.000000
# 4 0.000000 0.000000 0.000000 0.024441 0.000000 -0.004196
# 5 0.003804 -0.004875 -0.001612 0.000000 0.021866 0.000000
# 6 0.000000 0.000000 0.000000 -0.004196 0.000000 0.027267
#
#
# Mechanical properties :
#
#
# Convention : Reuss Voigt Hill
#
# Bulk Modulus (GPa) = 70.15411 74.25836 72.20624
# Shear Modulus (GPa) = 35.96296 40.61310 38.28803
#
# Velocity S-wave (km/s) = 3.68562 3.91666 3.80289
# Velocity P-wave (km/s) = 6.67907 6.96434 6.82320
#
# Compressibility (1/GPa) = 0.01425433
#
# Stress axis : x y z
#
# Youngs Moduli (GPa) = 83.10500 58.57743 119.39204
#
# Poissons Ratio (x) = 0.42978 0.26271
# Poissons Ratio (y) = 0.60974 0.24780
# Poissons Ratio (z) = 0.18286 0.12158
#
# Static dielectric constant tensor:
#      x y z
#    x 2.247370 0.000000 0.099050 
#    y 0.000000 2.178080 0.000000 
#    z 0.099050 0.000000 2.124730 
# 
# From -- ./inp_files/236530.got.cif
#   From: 2010.05.17/outbox.cif.g08.bks.cpg/sg15_119_cif.got.tgz:236530.got - 2010.06.03 18:47:42.
