data_PCOD9286944
_publ_section_title
;
Structure prediction by ZEFSAII (Michael W. Deem and Ramdas Pophale) SiO2 
 PCOD9286944
Probable space group: C 2/C
;
_chemical_formula_sum "Si O2"
_cell_formula_units_Z 44
_cell_length_a 27.778201
_cell_length_b 5.544024
_cell_length_c 13.180085
_cell_angle_alpha 90.000000
_cell_angle_beta 71.632307
_cell_angle_gamma 90.000000
_cell_volume 1926.363680
_symmetry_space_group_name_H-M "C 2/C"
_symmetry_group_IT_number 15
_symmetry_cell_setting 'monoclinic'
loop_
_space_group_symop_operation_xyz
x,y,z
-x,y,1/2-z
-x,-y,-z
x,-y,1/2+z
1/2+x,1/2+y,z
1/2-x,1/2+y,1/2-z
1/2-x,1/2-y,-z
1/2+x,1/2-y,1/2+z
loop_
_atom_site_type_symbol
_atom_site_label
_atom_site_fract_x
_atom_site_fract_y
_atom_site_fract_z
Si Si1 0.585104 0.398754 0.651084
Si Si2 0.758043 0.003479 0.558437
Si Si3 0.500000 0.064421 0.750000
Si Si4 0.370672 0.428619 0.561896
Si Si5 0.342471 0.902321 0.270437
Si Si6 0.574649 0.742450 0.822481
O O1 0.598194 0.608138 0.562632
O O2 0.636888 0.270100 0.653465
O O3 0.561272 0.506323 0.768876
O O4 0.542784 0.202980 0.656203
O O5 0.750000 0.250000 0.500000
O O6 0.715759 0.031298 0.675011
O O7 0.750000 0.750000 0.500000
O O8 0.814022 0.002268 0.568255
O O9 0.530799 0.921950 0.817713
O O10 0.360891 0.223686 0.653059
O O11 0.404987 0.646277 0.584447
O O12 0.374077 0.145816 0.257605
#
# Coordination Sequence:
#
# PCOD9286944 Si02
#       6
#     8   8   4   8   8   8
#     4  10  21  45  66  99 139 184 237 303 376 437
#     4  12  27  45  73 105 147 204 245 297 367 430
#     4  10  22  42  72  96 138 186 238 304 380 444
#     4  11  25  41  71 102 144 188 244 303 366 436
#     4  10  24  41  66 102 141 189 241 296 357 444
#     4  10  23  43  67  99 137 184 240 305 364 447
#
# _framework density 22.840962999999999
#
# number of rings (size 3 to 8) (size 9 to 14) (size 15 to 20)
#    0.000    1.455    1.818    1.636    7.636    3.636 
#    0.000   12.727    0.000    0.000    0.000    0.000 
#    0.000    0.000    0.000    0.000    0.000    0.000 
#
# Total GULP energy -122467.907055 kJ/mol
# GULP energy per Si atom -5566.723048 kJ/mol
# Density = 2.278898 g / cm^3
# Si number density = 22.840963 Si / 1000 Ang^3
#
#
#
# Elastic Constant Matrix: (Units=GPa)
#
#
# Indices 1 2 3 4 5 6 
#
# 1 135.5421 19.4528 31.1138 0.0000 10.4439 0.0000
# 2 19.4528 69.5311 21.5711 0.0000 7.2198 0.0000
# 3 31.1138 21.5711 71.1428 0.0000 5.3747 0.0000
# 4 0.0000 0.0000 0.0000 18.4499 0.0000 12.2784
# 5 10.4439 7.2198 5.3747 0.0000 17.0855 0.0000
# 6 0.0000 0.0000 0.0000 12.2784 0.0000 25.7440
#
#
#
# Elastic Compliance Matrix: (Units=1/GPa)
#
#
# Indices 1 2 3 4 5 6 
#
# 1 0.008537 -0.001021 -0.003137 0.000000 -0.003800 0.000000
# 2 -0.001021 0.016484 -0.004172 0.000000 -0.005029 0.000000
# 3 -0.003137 -0.004172 0.016815 0.000000 -0.001609 0.000000
# 4 0.000000 0.000000 0.000000 0.079404 0.000000 -0.037871
# 5 -0.003800 -0.005029 -0.001609 0.000000 0.063484 0.000000
# 6 0.000000 0.000000 0.000000 -0.037871 0.000000 0.056906
#
#
# Mechanical properties :
#
#
# Convention : Reuss Voigt Hill
#
# Bulk Modulus (GPa) = 39.71884 46.72128 43.22006
# Shear Modulus (GPa) = 18.74894 25.86110 22.30502
#
# Velocity S-wave (km/s) = 2.86815 3.36850 3.12835
# Velocity P-wave (km/s) = 5.32874 5.96896 5.65791
#
# Compressibility (1/GPa) = 0.02517697
#
# Stress axis : x y z
#
# Youngs Moduli (GPa) = 117.13421 60.66461 59.47172
#
# Poissons Ratio (x) = 0.06191 0.18657
# Poissons Ratio (y) = 0.11955 0.24810
# Poissons Ratio (z) = 0.36746 0.25308
#
# Static dielectric constant tensor:
#      x y z
#    x 1.818760 0.000000 -0.013870 
#    y 0.000000 1.921020 0.000000 
#    z -0.013870 0.000000 1.803980 
# 
# From -- ./inp_files/125052.got.cif
#   From: 2010.05.17/outbox.cif.g08.bks.cpg/sg15_63_cif.got.tgz:125052.got - 2010.06.03 18:47:42.
