data_PCOD9286652
_publ_section_title
;
Structure prediction by ZEFSAII (Michael W. Deem and Ramdas Pophale) SiO2 
 PCOD9286652
Probable space group: C 2/C
;
_chemical_formula_sum "Si O2"
_cell_formula_units_Z 48
_cell_length_a 8.033874
_cell_length_b 20.254716
_cell_length_c 17.701669
_cell_angle_alpha 90.000000
_cell_angle_beta 133.165519
_cell_angle_gamma 90.000000
_cell_volume 2100.968373
_symmetry_space_group_name_H-M "C 2/C"
_symmetry_group_IT_number 15
_symmetry_cell_setting 'monoclinic'
loop_
_space_group_symop_operation_xyz
x,y,z
-x,y,1/2-z
-x,-y,-z
x,-y,1/2+z
1/2+x,1/2+y,z
1/2-x,1/2+y,1/2-z
1/2-x,1/2-y,-z
1/2+x,1/2-y,1/2+z
loop_
_atom_site_type_symbol
_atom_site_label
_atom_site_fract_x
_atom_site_fract_y
_atom_site_fract_z
Si Si1 0.000000 0.414229 0.750000
Si Si2 0.422484 0.348761 0.942475
Si Si3 0.815383 0.113778 0.129679
Si Si4 0.836803 0.493240 0.323661
Si Si5 0.860953 0.612363 0.629548
Si Si6 0.000000 0.881261 0.250000
Si Si7 0.573408 0.192274 0.562658
O O1 0.164601 0.373021 0.855413
O O2 0.154897 0.459770 0.745561
O O3 0.550877 0.374447 0.906656
O O4 0.424894 0.270055 0.946678
O O5 0.592029 0.377966 0.057881
O O6 0.736012 0.039913 0.129484
O O7 0.000000 0.135081 0.250000
O O8 0.585773 0.156989 0.049059
O O9 0.664089 0.433023 0.259191
O O10 0.077932 0.454616 0.398129
O O11 0.000000 0.610711 0.750000
O O12 0.956417 0.672007 0.606705
O O13 0.828250 0.837231 0.147185
#
# Coordination Sequence:
#
# PCOD9286652 Si02
#       7
#     4   8   8   8   8   4   8
#     4  12  23  42  62  98 133 168 216 280 322 376
#     4  11  24  42  66  96 134 170 218 266 323 393
#     4  11  21  42  67  98 124 172 219 268 320 388
#     4  11  22  41  67  97 128 172 220 264 339 376
#     4  10  22  42  64  96 129 172 214 271 325 384
#     4  10  21  44  64  92 131 168 214 272 318 392
#     4  10  24  41  68  96 128 174 219 263 326 388
#
# _framework density 22.846608
#
# number of rings (size 3 to 8) (size 9 to 14) (size 15 to 20)
#    0.000    1.333    3.333    2.500    0.000   10.667 
#    6.000    0.833    0.000    0.000    0.000    0.000 
#    0.000    0.000    0.000    0.000    0.000    0.000 
#
# Total GULP energy -134006.978417 kJ/mol
# GULP energy per Si atom -5583.624101 kJ/mol
# Density = 2.279461 g / cm^3
# Si number density = 22.846608 Si / 1000 Ang^3
#
#
#
# Elastic Constant Matrix: (Units=GPa)
#
#
# Indices 1 2 3 4 5 6 
#
# 1 52.4822 32.2058 30.4026 0.0000 2.6656 0.0000
# 2 32.2058 153.2100 79.0641 0.0000 22.5080 0.0000
# 3 30.4026 79.0641 197.2470 0.0000 29.4482 0.0000
# 4 0.0000 0.0000 0.0000 19.3561 0.0000 7.8396
# 5 2.6656 22.5080 29.4482 0.0000 39.2591 0.0000
# 6 0.0000 0.0000 0.0000 7.8396 0.0000 11.7569
#
#
#
# Elastic Compliance Matrix: (Units=1/GPa)
#
#
# Indices 1 2 3 4 5 6 
#
# 1 0.022672 -0.003949 -0.002274 0.000000 0.002431 0.000000
# 2 -0.003949 0.009146 -0.002606 0.000000 -0.003020 0.000000
# 3 -0.002274 -0.002606 0.007003 0.000000 -0.003604 0.000000
# 4 0.000000 0.000000 0.000000 0.070778 0.000000 -0.047195
# 5 0.002431 -0.003020 -0.003604 0.000000 0.029742 0.000000
# 6 0.000000 0.000000 0.000000 -0.047195 0.000000 0.116526
#
#
# Mechanical properties :
#
#
# Convention : Reuss Voigt Hill
#
# Bulk Modulus (GPa) = 47.25726 76.25381 61.75554
# Shear Modulus (GPa) = 17.82019 31.49220 24.65619
#
# Velocity S-wave (km/s) = 2.79586 3.71673 3.28869
# Velocity P-wave (km/s) = 5.58140 7.20192 6.44281
#
# Compressibility (1/GPa) = 0.02116077
#
# Stress axis : x y z
#
# Youngs Moduli (GPa) = 44.10816 109.33905 142.79147
#
# Poissons Ratio (x) = 0.43179 0.32477
# Poissons Ratio (y) = 0.17419 0.37217
# Poissons Ratio (z) = 0.10032 0.28498
#
# Static dielectric constant tensor:
#      x y z
#    x 1.943000 0.000000 0.052540 
#    y 0.000000 1.823600 0.000000 
#    z 0.052540 0.000000 1.943970 
# 
# From -- ./inp_files/234011.got.cif
#   From: 2010.05.17/outbox.cif.g08.bks.cpg/sg15_118_cif.got.tgz:234011.got - 2010.06.03 18:47:42.
