data_PCOD9286102
_publ_section_title
;
Structure prediction by ZEFSAII (Michael W. Deem and Ramdas Pophale) SiO2 
 PCOD9286102
Probable space group: C 2/C
;
_chemical_formula_sum "Si O2"
_cell_formula_units_Z 48
_cell_length_a 10.871993
_cell_length_b 21.078637
_cell_length_c 15.560125
_cell_angle_alpha 90.000000
_cell_angle_beta 35.981541
_cell_angle_gamma 90.000000
_cell_volume 2095.032727
_symmetry_space_group_name_H-M "C 2/C"
_symmetry_group_IT_number 15
_symmetry_cell_setting 'monoclinic'
loop_
_space_group_symop_operation_xyz
x,y,z
-x,y,1/2-z
-x,-y,-z
x,-y,1/2+z
1/2+x,1/2+y,z
1/2-x,1/2+y,1/2-z
1/2-x,1/2-y,-z
1/2+x,1/2-y,1/2+z
loop_
_atom_site_type_symbol
_atom_site_label
_atom_site_fract_x
_atom_site_fract_y
_atom_site_fract_z
Si Si1 0.254129 0.423013 0.894334
Si Si2 0.000000 0.351346 0.750000
Si Si3 0.929556 0.306310 0.068354
Si Si4 0.287633 0.564735 0.563750
Si Si5 0.250000 0.750000 0.000000
Si Si6 0.775039 0.542243 0.273813
Si Si7 0.783399 0.705704 0.840067
O O1 0.500000 0.400592 0.750000
O O2 0.084016 0.366846 0.985946
O O3 0.216556 0.466367 0.832768
O O4 0.237049 0.456788 0.995727
O O5 0.173030 0.304850 0.612263
O O6 0.087121 0.398961 0.773025
O O7 0.088261 0.246958 0.978398
O O8 0.801661 0.298730 0.052988
O O9 0.788182 0.302215 0.234058
O O10 0.537403 0.561736 0.431143
O O11 0.190341 0.521121 0.691848
O O12 0.225703 0.637353 0.610640
O O13 0.000000 0.736242 0.750000
#
# Coordination Sequence:
#
# PCOD9286102 Si02
#       7
#     8   4   8   8   4   8   8
#     4  10  21  42  72 101 134 181 233 291 354 419
#     4  12  24  44  70  96 140 194 228 286 354 426
#     4  12  25  42  66  99 140 181 230 287 356 417
#     4  10  23  45  69 103 141 175 240 295 345 423
#     4  12  26  44  64  98 140 188 236 282 344 446
#     4  10  23  44  71  99 139 187 228 292 358 413
#     4  12  25  40  68 103 136 176 232 295 345 413
#
# _framework density 22.911337
#
# number of rings (size 3 to 8) (size 9 to 14) (size 15 to 20)
#    0.000    1.000    3.333    3.000    5.833    0.000 
#    3.000    1.667    5.500    0.000    0.000    0.000 
#    0.000    0.000    0.000    0.000    0.000    0.000 
#
# Total GULP energy -133790.367908 kJ/mol
# GULP energy per Si atom -5574.598663 kJ/mol
# Density = 2.285919 g / cm^3
# Si number density = 22.911337 Si / 1000 Ang^3
#
#
#
# Elastic Constant Matrix: (Units=GPa)
#
#
# Indices 1 2 3 4 5 6 
#
# 1 89.6846 3.7679 9.1548 0.0053 28.5615 -0.0050
# 2 3.7679 56.4746 19.0689 -0.0196 12.5802 0.0127
# 3 9.1548 19.0689 65.7009 0.0096 15.6473 -0.0091
# 4 0.0053 -0.0196 0.0096 -188.3528 0.0133 148.8255
# 5 28.5615 12.5802 15.6473 0.0133 48.4286 -0.0074
# 6 -0.0050 0.0127 -0.0091 148.8255 -0.0074 -64.7058
#
#
#
# Elastic Compliance Matrix: (Units=1/GPa)
#
#
# Indices 1 2 3 4 5 6 
#
# 1 0.013779 0.001011 -0.000234 0.000000 -0.008314 0.000001
# 2 0.001011 0.020279 -0.005016 -0.000002 -0.004244 0.000001
# 3 -0.000234 -0.005016 0.017730 0.000001 -0.004288 0.000000
# 4 0.000000 -0.000002 0.000001 0.006496 0.000000 0.014940
# 5 -0.008314 -0.004244 -0.004288 0.000000 0.028040 -0.000002
# 6 0.000001 0.000001 0.000000 0.014940 -0.000002 0.018908
#
#
# Mechanical properties :
#
#
# Convention : Reuss Voigt Hill
#
# Bulk Modulus (GPa) = 23.08838 30.64926 26.86882
# Shear Modulus (GPa) = 39.01845 -28.93478 5.04184
#
# Velocity S-wave (km/s) = 4.13124 -3.55759 1.48505
# Velocity P-wave (km/s) = 5.73196 1.86249 3.83318
#
# Compressibility (1/GPa) = 0.04331184
#
# Stress axis : x y z
#
# Youngs Moduli (GPa) = 72.57324 49.31327 56.40144
#
# Poissons Ratio (x) = -0.04988 0.01317
# Poissons Ratio (y) = -0.07341 0.28290
# Poissons Ratio (z) = 0.01695 0.24735
#
# Static dielectric constant tensor:
#      x y z
#    x 1.912900 0.000000 -0.029060 
#    y 0.000000 1.786510 0.000000 
#    z -0.029060 0.000000 1.866720 
# 
# From -- ./inp_files/147414.got.cif
#   From: 2010.05.17/outbox.cif.g08.bks.cpg/sg15_74_cif.got.tgz:147414.got - 2010.06.03 18:47:42.
