data_PCOD9286626
_publ_section_title
;
Structure prediction by ZEFSAII (Michael W. Deem and Ramdas Pophale) SiO2 
 PCOD9286626
Probable space group: C 2/C
;
_chemical_formula_sum "Si O2"
_cell_formula_units_Z 44
_cell_length_a 5.260911
_cell_length_b 28.797005
_cell_length_c 12.756810
_cell_angle_alpha 90.000000
_cell_angle_beta 101.092904
_cell_angle_gamma 90.000000
_cell_volume 1896.528900
_symmetry_space_group_name_H-M "C 2/C"
_symmetry_group_IT_number 15
_symmetry_cell_setting 'monoclinic'
loop_
_space_group_symop_operation_xyz
x,y,z
-x,y,1/2-z
-x,-y,-z
x,-y,1/2+z
1/2+x,1/2+y,z
1/2-x,1/2+y,1/2-z
1/2-x,1/2-y,-z
1/2+x,1/2-y,1/2+z
loop_
_atom_site_type_symbol
_atom_site_label
_atom_site_fract_x
_atom_site_fract_y
_atom_site_fract_z
Si Si1 0.000000 0.323932 0.250000
Si Si2 0.828755 0.155178 0.129214
Si Si3 0.088216 0.753118 0.594770
Si Si4 0.500000 0.804670 0.750000
Si Si5 0.719035 0.960082 0.084645
Si Si6 0.500000 0.614797 0.750000
Si Si7 0.845813 0.946585 0.541576
O O1 0.007672 0.294069 0.359126
O O2 0.735088 0.353524 0.227556
O O3 0.543401 0.163662 0.152693
O O4 0.850631 0.106740 0.074926
O O5 0.000000 0.152082 0.250000
O O6 0.895104 0.202745 0.073128
O O7 0.250000 0.750000 0.500000
O O8 0.272665 0.770497 0.703483
O O9 0.857309 0.919949 0.159473
O O10 0.783802 0.013234 0.122459
O O11 0.411534 0.952185 0.052196
O O12 0.874112 0.956881 0.986455
#
# Coordination Sequence:
#
# PCOD9286626 Si02
#       7
#     4   8   8   4   8   4   8
#     4  12  26  48  68 106 145 183 248 294 338 434
#     4  10  23  41  70 102 133 179 234 293 347 420
#     4  11  25  45  69  98 141 191 232 298 355 415
#     4  10  21  44  61 102 142 163 250 287 338 428
#     4  10  24  46  66 104 140 179 233 284 347 427
#     4  12  27  44  73  96 147 192 228 285 354 422
#     4  10  23  44  72 101 140 176 231 295 344 418
#
# _framework density 23.200279999999999
#
# number of rings (size 3 to 8) (size 9 to 14) (size 15 to 20)
#    0.000    1.455    2.727    1.636    8.909    2.182 
#    3.273    0.909    0.000    0.000    0.000    0.000 
#    0.000    0.000    0.000    0.000    0.000    0.000 
#
# Total GULP energy -122691.115351 kJ/mol
# GULP energy per Si atom -5576.868880 kJ/mol
# Density = 2.314747 g / cm^3
# Si number density = 23.200280 Si / 1000 Ang^3
#
#
#
# Elastic Constant Matrix: (Units=GPa)
#
#
# Indices 1 2 3 4 5 6 
#
# 1 119.6249 56.6472 25.5840 0.0000 -2.4261 0.0000
# 2 56.6472 176.3343 38.1961 0.0000 -15.3459 0.0000
# 3 25.5840 38.1961 56.0079 0.0000 0.5410 0.0000
# 4 0.0000 0.0000 0.0000 26.2261 0.0000 0.4468
# 5 -2.4261 -15.3459 0.5410 0.0000 39.5113 0.0000
# 6 0.0000 0.0000 0.0000 0.4468 0.0000 63.7639
#
#
#
# Elastic Compliance Matrix: (Units=1/GPa)
#
#
# Indices 1 2 3 4 5 6 
#
# 1 0.010240 -0.002711 -0.002825 0.000000 -0.000386 0.000000
# 2 -0.002711 0.007661 -0.004014 0.000000 0.002864 0.000000
# 3 -0.002825 -0.004014 0.021902 0.000000 -0.002032 0.000000
# 4 0.000000 0.000000 0.000000 0.038135 0.000000 -0.000267
# 5 -0.000386 0.002864 -0.002032 0.000000 0.026426 0.000000
# 6 0.000000 0.000000 0.000000 -0.000267 0.000000 0.015685
#
#
# Mechanical properties :
#
#
# Convention : Reuss Voigt Hill
#
# Bulk Modulus (GPa) = 48.30207 65.86908 57.08558
# Shear Modulus (GPa) = 34.23562 41.33624 37.78593
#
# Velocity S-wave (km/s) = 3.84559 4.22561 4.04007
# Velocity P-wave (km/s) = 6.37047 7.22917 6.81336
#
# Compressibility (1/GPa) = 0.02070305
#
# Stress axis : x y z
#
# Youngs Moduli (GPa) = 97.66012 130.53776 45.65855
#
# Poissons Ratio (x) = 0.35391 0.12897
# Poissons Ratio (y) = 0.26477 0.18325
# Poissons Ratio (z) = 0.27586 0.52392
#
# Static dielectric constant tensor:
#      x y z
#    x 2.047650 0.000000 -0.012590 
#    y 0.000000 1.958950 0.000000 
#    z -0.012590 0.000000 1.907580 
# 
# From -- ./inp_files/129896.got.cif
#   From: 2010.05.17/outbox.cif.g08.bks.cpg/sg15_65_cif.got.tgz:129896.got - 2010.06.03 18:47:42.
