data_PCOD9286164
_publ_section_title
;
Structure prediction by ZEFSAII (Michael W. Deem and Ramdas Pophale) SiO2 
 PCOD9286164
Probable space group: C 2/C
;
_chemical_formula_sum "Si O2"
_cell_formula_units_Z 60
_cell_length_a 20.510059
_cell_length_b 11.593525
_cell_length_c 23.205260
_cell_angle_alpha 90.000000
_cell_angle_beta 149.618695
_cell_angle_gamma 90.000000
_cell_volume 2790.658698
_symmetry_space_group_name_H-M "C 2/C"
_symmetry_group_IT_number 15
_symmetry_cell_setting 'monoclinic'
loop_
_space_group_symop_operation_xyz
x,y,z
-x,y,1/2-z
-x,-y,-z
x,-y,1/2+z
1/2+x,1/2+y,z
1/2-x,1/2+y,1/2-z
1/2-x,1/2-y,-z
1/2+x,1/2-y,1/2+z
loop_
_atom_site_type_symbol
_atom_site_label
_atom_site_fract_x
_atom_site_fract_y
_atom_site_fract_z
Si Si1 0.316546 0.127852 0.222936
Si Si2 0.612215 0.310996 0.659345
Si Si3 0.363687 0.663439 0.034244
Si Si4 0.263010 0.925754 0.550082
Si Si5 0.000000 0.855102 0.750000
Si Si6 0.958703 0.751653 0.154145
Si Si7 0.741848 0.626090 0.376893
Si Si8 0.015575 0.547290 0.576167
O O1 0.185169 0.155669 0.156504
O O2 0.295065 0.084184 0.142046
O O3 0.416323 0.234015 0.290368
O O4 0.393007 0.033834 0.317794
O O5 0.476826 0.370354 0.575017
O O6 0.710113 0.341290 0.786548
O O7 0.572482 0.176614 0.624072
O O8 0.440722 0.710994 0.149357
O O9 0.280161 0.556379 0.992322
O O10 0.273912 0.755337 0.934579
O O11 0.141341 0.843390 0.445926
O O12 0.380858 0.869634 0.604146
O O13 0.886301 0.926306 0.693069
O O14 0.000000 0.785660 0.250000
O O15 0.867415 0.551333 0.482952
O O16 0.000000 0.500000 0.500000
#
# Coordination Sequence:
#
# PCOD9286164 Si02
#       8
#     8   8   8   8   4   8   8   8
#     4  11  23  40  63  92 120 170 208 253 323 374
#     4  10  23  40  60  92 128 155 215 261 308 384
#     4  10  22  38  61  89 124 162 201 262 310 372
#     4  10  22  41  61  89 123 161 209 258 317 371
#     4  10  22  38  60  92 120 162 202 248 318 370
#     4   9  22  42  61  89 124 160 211 266 307 380
#     4  10  21  43  60  92 130 160 208 265 311 381
#     4  11  23  40  66  91 125 170 210 260 322 383
#
# _framework density 21.500302000000001
#
# number of rings (size 3 to 8) (size 9 to 14) (size 15 to 20)
#    0.000    1.867    1.333    1.200    4.667    1.600 
#    3.600    0.000    0.000    0.000    0.000    0.000 
#    0.000    0.000    0.000    0.000    0.000    0.000 
#
# Total GULP energy -167468.000639 kJ/mol
# GULP energy per Si atom -5582.266688 kJ/mol
# Density = 2.145137 g / cm^3
# Si number density = 21.500302 Si / 1000 Ang^3
#
#
#
# Elastic Constant Matrix: (Units=GPa)
#
#
# Indices 1 2 3 4 5 6 
#
# 1 96.0269 10.8857 10.0706 0.0000 20.9534 0.0000
# 2 10.8857 32.7718 18.4745 0.0000 -5.6774 0.0000
# 3 10.0706 18.4745 78.7430 0.0000 -2.1088 0.0000
# 4 0.0000 0.0000 0.0000 26.1052 0.0001 1.8001
# 5 20.9534 -5.6774 -2.1088 0.0001 46.6656 0.0000
# 6 0.0000 0.0000 0.0000 1.8001 0.0000 23.3361
#
#
#
# Elastic Compliance Matrix: (Units=1/GPa)
#
#
# Indices 1 2 3 4 5 6 
#
# 1 0.012373 -0.004833 -0.000614 0.000000 -0.006171 0.000000
# 2 -0.004833 0.037780 -0.008074 0.000000 0.006402 0.000000
# 3 -0.000614 -0.008074 0.014671 0.000000 -0.000044 0.000000
# 4 0.000000 0.000000 0.000000 0.038511 0.000000 -0.002971
# 5 -0.006171 0.006402 -0.000044 0.000000 0.024977 0.000000
# 6 0.000000 0.000000 0.000000 -0.002971 0.000000 0.043081
#
#
# Mechanical properties :
#
#
# Convention : Reuss Voigt Hill
#
# Bulk Modulus (GPa) = 26.46760 31.82257 29.14509
# Shear Modulus (GPa) = 23.69339 30.42878 27.06109
#
# Velocity S-wave (km/s) = 3.32324 3.76609 3.55158
# Velocity P-wave (km/s) = 5.20215 5.80899 5.51392
#
# Compressibility (1/GPa) = 0.03778204
#
# Stress axis : x y z
#
# Youngs Moduli (GPa) = 80.82415 26.46890 68.16055
#
# Poissons Ratio (x) = 0.12792 0.04183
# Poissons Ratio (y) = 0.39061 0.55035
# Poissons Ratio (z) = 0.04961 0.21372
#
# Static dielectric constant tensor:
#      x y z
#    x 1.816680 0.000000 0.023720 
#    y 0.000000 1.766300 0.000000 
#    z 0.023720 0.000000 1.795710 
# 
# From -- ./inp_files/111654.got.cif
#   From: 2010.05.17/outbox.cif.g08.bks.cpg/sg15_56_cif.got.tgz:111654.got - 2010.06.03 18:47:42.
