data_PCOD9286193
_publ_section_title
;
Structure prediction by ZEFSAII (Michael W. Deem and Ramdas Pophale) SiO2 
 PCOD9286193
Probable space group: C 2/C
;
_chemical_formula_sum "Si O2"
_cell_formula_units_Z 44
_cell_length_a 26.639843
_cell_length_b 6.585108
_cell_length_c 14.090953
_cell_angle_alpha 90.000000
_cell_angle_beta 69.751063
_cell_angle_gamma 90.000000
_cell_volume 2319.152567
_symmetry_space_group_name_H-M "C 2/C"
_symmetry_group_IT_number 15
_symmetry_cell_setting 'monoclinic'
loop_
_space_group_symop_operation_xyz
x,y,z
-x,y,1/2-z
-x,-y,-z
x,-y,1/2+z
1/2+x,1/2+y,z
1/2-x,1/2+y,1/2-z
1/2-x,1/2-y,-z
1/2+x,1/2-y,1/2+z
loop_
_atom_site_type_symbol
_atom_site_label
_atom_site_fract_x
_atom_site_fract_y
_atom_site_fract_z
Si Si1 0.000000 0.864629 0.750000
Si Si2 0.882192 0.994188 0.305385
Si Si3 0.967196 0.636869 0.948390
Si Si4 0.188805 0.730350 0.511936
Si Si5 0.618390 0.461556 0.418125
Si Si6 0.624952 0.155861 0.048719
O O1 0.944640 0.984491 0.792746
O O2 0.004007 0.736335 0.844041
O O3 0.848434 0.170447 0.380443
O O4 0.877085 0.993287 0.196358
O O5 0.865316 0.781022 0.362133
O O6 0.926105 0.491353 0.919505
O O7 0.931810 0.813107 0.022837
O O8 0.000000 0.500000 0.000000
O O9 0.250000 0.750000 0.500000
O O10 0.169991 0.853142 0.431095
O O11 0.173805 0.497252 0.502657
O O12 0.614748 0.676381 0.474365
#
# Coordination Sequence:
#
# PCOD9286193 Si02
#       6
#     4   8   8   8   8   8
#     4  12  22  40  60  94 138 164 224 266 330 400
#     4  11  24  40  64  97 125 170 217 265 330 395
#     4  11  24  37  60  94 129 178 218 266 322 394
#     4  10  23  48  65  93 130 164 220 272 331 398
#     4  10  23  43  61  99 126 166 225 266 328 400
#     4  10  21  43  63  88 131 166 207 272 328 375
#
# _framework density 18.972446000000001
#
# number of rings (size 3 to 8) (size 9 to 14) (size 15 to 20)
#    0.000    1.455    5.455    1.091    5.091    7.273 
#    6.545    0.000    0.000    0.000    0.000    0.000 
#    0.000    0.000    0.000    0.000    0.000    0.000 
#
# Total GULP energy -122791.934146 kJ/mol
# GULP energy per Si atom -5581.451552 kJ/mol
# Density = 1.892926 g / cm^3
# Si number density = 18.972446 Si / 1000 Ang^3
#
#
#
# Elastic Constant Matrix: (Units=GPa)
#
#
# Indices 1 2 3 4 5 6 
#
# 1 96.8601 20.6951 24.4508 0.0000 -6.6670 0.0000
# 2 20.6951 104.9503 25.8511 0.0000 -0.6376 0.0000
# 3 24.4508 25.8511 92.7194 0.0000 28.6654 0.0000
# 4 0.0000 0.0000 0.0000 11.7514 0.0000 7.5029
# 5 -6.6670 -0.6376 28.6654 0.0000 29.7665 0.0000
# 6 0.0000 0.0000 0.0000 7.5029 0.0000 18.5419
#
#
#
# Elastic Compliance Matrix: (Units=1/GPa)
#
#
# Indices 1 2 3 4 5 6 
#
# 1 0.012492 -0.001062 -0.005491 0.000000 0.008063 0.000000
# 2 -0.001062 0.010708 -0.003849 0.000000 0.003698 0.000000
# 3 -0.005491 -0.003849 0.019525 0.000000 -0.020115 0.000000
# 4 0.000000 0.000000 0.000000 0.114739 0.000000 -0.046428
# 5 0.008063 0.003698 -0.020115 0.000000 0.054851 0.000000
# 6 0.000000 0.000000 0.000000 -0.046428 0.000000 0.072719
#
#
# Mechanical properties :
#
#
# Convention : Reuss Voigt Hill
#
# Bulk Modulus (GPa) = 45.61581 48.50264 47.05923
# Shear Modulus (GPa) = 15.96701 26.91415 21.44058
#
# Velocity S-wave (km/s) = 2.90416 3.77051 3.36533
# Velocity P-wave (km/s) = 5.94482 6.67652 6.32127
#
# Compressibility (1/GPa) = 0.02192222
#
# Stress axis : x y z
#
# Youngs Moduli (GPa) = 80.05014 93.38644 51.21574
#
# Poissons Ratio (x) = 0.09916 0.28123
# Poissons Ratio (y) = 0.08500 0.19712
# Poissons Ratio (z) = 0.43956 0.35943
#
# Static dielectric constant tensor:
#      x y z
#    x 1.670210 0.000000 -0.010210 
#    y 0.000000 1.685420 0.000000 
#    z -0.010210 0.000000 1.642930 
# 
# From -- ./inp_files/170818.got.cif
#   From: 2010.05.17/outbox.cif.g08.bks.cpg/sg15_86_cif.got.tgz:170818.got - 2010.06.03 18:47:42.
