data_PCOD9286898
_publ_section_title
;
Structure prediction by ZEFSAII (Michael W. Deem and Ramdas Pophale) SiO2 
 PCOD9286898
Probable space group: C 2/C
;
_chemical_formula_sum "Si O2"
_cell_formula_units_Z 44
_cell_length_a 11.603715
_cell_length_b 30.699341
_cell_length_c 5.081230
_cell_angle_alpha 90.000000
_cell_angle_beta 65.015191
_cell_angle_gamma 90.000000
_cell_volume 1640.681746
_symmetry_space_group_name_H-M "C 2/C"
_symmetry_group_IT_number 15
_symmetry_cell_setting 'monoclinic'
loop_
_space_group_symop_operation_xyz
x,y,z
-x,y,1/2-z
-x,-y,-z
x,-y,1/2+z
1/2+x,1/2+y,z
1/2-x,1/2+y,1/2-z
1/2-x,1/2-y,-z
1/2+x,1/2-y,1/2+z
loop_
_atom_site_type_symbol
_atom_site_label
_atom_site_fract_x
_atom_site_fract_y
_atom_site_fract_z
Si Si1 0.794187 0.161005 0.827937
Si Si2 0.000000 0.968697 0.750000
Si Si3 0.138735 0.751139 0.953216
Si Si4 0.326627 0.120734 0.072528
Si Si5 0.500000 0.680431 0.250000
Si Si6 0.500000 0.184451 0.750000
Si Si7 0.281762 0.969885 0.497281
O O1 0.767649 0.214496 0.932357
O O2 0.713143 0.137107 0.678930
O O3 0.931539 0.158230 0.560650
O O4 0.773878 0.132054 0.105213
O O5 0.139140 0.947878 0.629697
O O6 0.000000 0.000000 0.500000
O O7 0.111824 0.791578 0.774103
O O8 0.109060 0.714870 0.753494
O O9 0.000000 0.747835 0.250000
O O10 0.441838 0.153136 0.026224
O O11 0.364105 0.070726 0.011310
O O12 0.296002 0.007879 0.700240
#
# Coordination Sequence:
#
# PCOD9286898 Si02
#       7
#     8   4   8   8   4   4   8
#     4  12  26  47  71 108 153 193 264 313 387 466
#     4   8  16  33  61  98 130 174 224 280 375 460
#     4  11  24  49  75 104 152 212 258 315 394 462
#     4  12  27  48  76 114 150 202 269 328 387 466
#     4  11  26  47  70 108 152 198 254 312 388 462
#     4  11  28  52  75 110 158 210 272 334 377 462
#     4  10  21  44  74 105 151 196 249 321 400 473
#
# _framework density 26.818117000000001
#
# number of rings (size 3 to 8) (size 9 to 14) (size 15 to 20)
#    0.000    1.091    3.636    1.636    0.000    7.273 
#    0.000    4.545    0.000    0.000    0.000    0.000 
#    0.000    0.000    0.000    0.000    0.000    0.000 
#
# Total GULP energy -122740.603400 kJ/mol
# GULP energy per Si atom -5579.118336 kJ/mol
# Density = 2.675708 g / cm^3
# Si number density = 26.818117 Si / 1000 Ang^3
#
#
#
# Elastic Constant Matrix: (Units=GPa)
#
#
# Indices 1 2 3 4 5 6 
#
# 1 151.3722 25.2943 40.8301 0.0000 24.8013 0.0000
# 2 25.2943 97.6902 27.6008 0.0000 2.9131 0.0000
# 3 40.8301 27.6008 122.5955 0.0000 14.6677 0.0000
# 4 0.0000 0.0000 0.0000 22.7558 0.0000 4.1544
# 5 24.8013 2.9131 14.6677 0.0000 60.1837 0.0000
# 6 0.0000 0.0000 0.0000 4.1544 0.0000 -24.9624
#
#
#
# Elastic Compliance Matrix: (Units=1/GPa)
#
#
# Indices 1 2 3 4 5 6 
#
# 1 0.007806 -0.001385 -0.001968 0.000000 -0.002670 0.000000
# 2 -0.001385 0.011178 -0.002121 0.000000 0.000547 0.000000
# 3 -0.001968 -0.002121 0.009456 0.000000 -0.001391 0.000000
# 4 0.000000 0.000000 0.000000 0.042649 0.000000 0.007098
# 5 -0.002670 0.000547 -0.001391 0.000000 0.018029 0.000000
# 6 0.000000 0.000000 0.000000 0.007098 0.000000 -0.038879
#
#
# Mechanical properties :
#
#
# Convention : Reuss Voigt Hill
#
# Bulk Modulus (GPa) = 57.17044 62.12315 59.64680
# Shear Modulus (GPa) = 74.60614 30.12427 52.36520
#
# Velocity S-wave (km/s) = 5.28012 3.35517 4.42362
# Velocity P-wave (km/s) = 7.65095 6.18260 6.95563
#
# Compressibility (1/GPa) = 0.01749156
#
# Stress axis : x y z
#
# Youngs Moduli (GPa) = 128.10388 89.46155 105.74940
#
# Poissons Ratio (x) = 0.12394 0.20816
# Poissons Ratio (y) = 0.17748 0.22425
# Poissons Ratio (z) = 0.25217 0.18971
#
# Static dielectric constant tensor:
#      x y z
#    x 2.496680 0.000000 0.025510 
#    y 0.000000 2.107160 0.000000 
#    z 0.025510 0.000000 2.276540 
# 
# From -- ./inp_files/8634.got.cif
#   From: 2010.05.17/outbox.cif.g08.bks.cpg/sg15_5_cif.got.tgz:8634.got - 2010.06.03 18:47:42.
