data_PCOD9286119
_publ_section_title
;
Structure prediction by ZEFSAII (Michael W. Deem and Ramdas Pophale) SiO2 
 PCOD9286119
Probable space group: C 2/C
;
_chemical_formula_sum "Si O2"
_cell_formula_units_Z 40
_cell_length_a 13.071841
_cell_length_b 13.036818
_cell_length_c 16.759732
_cell_angle_alpha 90.000000
_cell_angle_beta 34.139309
_cell_angle_gamma 90.000000
_cell_volume 1602.870685
_symmetry_space_group_name_H-M "C 2/C"
_symmetry_group_IT_number 15
_symmetry_cell_setting 'monoclinic'
loop_
_space_group_symop_operation_xyz
x,y,z
-x,y,1/2-z
-x,-y,-z
x,-y,1/2+z
1/2+x,1/2+y,z
1/2-x,1/2+y,1/2-z
1/2-x,1/2-y,-z
1/2+x,1/2-y,1/2+z
loop_
_atom_site_type_symbol
_atom_site_label
_atom_site_fract_x
_atom_site_fract_y
_atom_site_fract_z
Si Si1 0.000000 0.267793 0.750000
Si Si2 0.942373 0.943976 0.119168
Si Si3 0.152306 0.300258 0.965696
Si Si4 0.118550 0.618001 0.741311
Si Si5 0.406994 0.788872 0.979268
Si Si6 0.500000 0.444294 0.750000
O O1 0.191091 0.205668 0.636121
O O2 0.038326 0.328356 0.643524
O O3 0.038901 0.832339 0.058339
O O4 0.725199 0.938192 0.242919
O O5 0.989634 0.995606 0.172551
O O6 0.000000 0.000000 0.000000
O O7 0.229096 0.187229 0.899910
O O8 0.318317 0.376384 0.870343
O O9 0.034099 0.332848 0.965320
O O10 0.017440 0.303786 0.127077
O O11 0.000000 0.562259 0.750000
#
# Coordination Sequence:
#
# PCOD9286119 Si02
#       6
#     4   8   8   8   8   4
#     4  10  21  42  72  95 132 174 236 288 333 412
#     4  11  26  43  67 100 151 180 230 289 360 415
#     4  11  24  41  76 101 136 179 246 286 345 410
#     4  11  23  44  71 103 135 184 241 292 344 414
#     4  10  22  42  69 100 133 180 234 282 344 411
#     4  12  27  46  68 105 148 186 228 298 351 416
#
# _framework density 24.955224999999999
#
# number of rings (size 3 to 8) (size 9 to 14) (size 15 to 20)
#    0.000    1.200    1.000    4.800    8.400    2.400 
#    5.400    0.000    0.000    0.000    0.000    0.000 
#    0.000    0.000    0.000    0.000    0.000    0.000 
#
# Total GULP energy -111899.667454 kJ/mol
# GULP energy per Si atom -5594.983373 kJ/mol
# Density = 2.489843 g / cm^3
# Si number density = 24.955225 Si / 1000 Ang^3
#
#
#
# Elastic Constant Matrix: (Units=GPa)
#
#
# Indices 1 2 3 4 5 6 
#
# 1 272.4628 46.1834 67.1759 0.0009 -15.5900 -0.0001
# 2 46.1834 70.1329 21.9386 0.0024 3.3038 -0.0007
# 3 67.1759 21.9386 134.6812 0.0050 -3.8088 -0.0016
# 4 0.0009 0.0024 0.0050 28.2579 -0.0008 2.8969
# 5 -15.5900 3.3038 -3.8088 -0.0008 52.8231 0.0000
# 6 -0.0001 -0.0007 -0.0016 2.8969 0.0000 42.4104
#
#
#
# Elastic Compliance Matrix: (Units=1/GPa)
#
#
# Indices 1 2 3 4 5 6 
#
# 1 0.004639 -0.002538 -0.001861 0.000000 0.001394 0.000000
# 2 -0.002538 0.016479 -0.001472 -0.000001 -0.001886 0.000000
# 3 -0.001861 -0.001472 0.008597 -0.000001 0.000163 0.000000
# 4 0.000000 -0.000001 -0.000001 0.035638 0.000001 -0.002434
# 5 0.001394 -0.001886 0.000163 0.000001 0.019472 0.000000
# 6 0.000000 0.000000 0.000000 -0.002434 0.000000 0.023745
#
#
# Mechanical properties :
#
#
# Convention : Reuss Voigt Hill
#
# Bulk Modulus (GPa) = 55.63600 83.09697 69.36649
# Shear Modulus (GPa) = 39.58681 47.49688 43.54185
#
# Velocity S-wave (km/s) = 3.98718 4.36740 4.18161
# Velocity P-wave (km/s) = 6.59845 7.66831 7.15341
#
# Compressibility (1/GPa) = 0.01797397
#
# Stress axis : x y z
#
# Youngs Moduli (GPa) = 215.56091 60.68181 116.31345
#
# Poissons Ratio (x) = 0.15403 0.21645
# Poissons Ratio (y) = 0.54718 0.17117
# Poissons Ratio (z) = 0.40115 0.08930
#
# Static dielectric constant tensor:
#      x y z
#    x 2.030860 0.000000 -0.008270 
#    y 0.000000 1.994050 0.000000 
#    z -0.008270 0.000000 1.963420 
# 
# From -- ./inp_files/205618.got.cif
#   From: 2010.05.17/outbox.cif.g08.bks.cpg/sg15_103_cif.got.tgz:205618.got - 2010.06.03 18:47:42.
