data_PCOD9286189
_publ_section_title
;
Structure prediction by ZEFSAII (Michael W. Deem and Ramdas Pophale) SiO2 
 PCOD9286189
Probable space group: C 2/C
;
_chemical_formula_sum "Si O2"
_cell_formula_units_Z 64
_cell_length_a 31.391230
_cell_length_b 8.167617
_cell_length_c 14.542430
_cell_angle_alpha 90.000000
_cell_angle_beta 129.541769
_cell_angle_gamma 90.000000
_cell_volume 2875.315815
_symmetry_space_group_name_H-M "C 2/C"
_symmetry_group_IT_number 15
_symmetry_cell_setting 'monoclinic'
loop_
_space_group_symop_operation_xyz
x,y,z
-x,y,1/2-z
-x,-y,-z
x,-y,1/2+z
1/2+x,1/2+y,z
1/2-x,1/2+y,1/2-z
1/2-x,1/2-y,-z
1/2+x,1/2-y,1/2+z
loop_
_atom_site_type_symbol
_atom_site_label
_atom_site_fract_x
_atom_site_fract_y
_atom_site_fract_z
Si Si1 0.583813 0.104699 0.109758
Si Si2 0.725940 0.835254 0.630134
Si Si3 0.420775 0.526154 0.955048
Si Si4 0.998052 0.490459 0.854538
Si Si5 0.306312 0.058530 0.745522
Si Si6 0.542160 0.359901 0.674392
Si Si7 0.136154 0.936029 0.944007
Si Si8 0.266063 0.436651 0.021482
O O1 0.598001 0.291333 0.102982
O O2 0.538911 0.121523 0.129807
O O3 0.632665 0.983358 0.205292
O O4 0.556925 0.015336 0.984175
O O5 0.779708 0.731590 0.736227
O O6 0.676102 0.720536 0.521470
O O7 0.702278 0.935187 0.682541
O O8 0.748800 0.962106 0.586706
O O9 0.425081 0.406559 0.873974
O O10 0.483156 0.548354 0.081348
O O11 0.379944 0.480255 0.981720
O O12 0.972054 0.670097 0.833027
O O13 0.000000 0.446139 0.750000
O O14 0.267722 0.014794 0.607757
O O15 0.579386 0.397674 0.813781
O O16 0.170553 0.044246 0.919867
O O17 0.250000 0.250000 0.000000
#
# Coordination Sequence:
#
# PCOD9286189 Si02
#       8
#     8   8   8   8   8   8   8   8
#     4  10  22  40  66  97 134 172 225 276 345 403
#     4  11  25  45  69 100 136 177 234 282 349 410
#     4  10  21  43  63 100 135 178 224 279 344 417
#     4  10  22  41  64  99 134 173 220 274 341 422
#     4  11  23  43  69  96 136 182 223 290 343 409
#     4  10  22  38  69  95 136 172 225 278 334 418
#     4  11  22  41  67  97 134 184 225 282 354 409
#     4  11  27  45  64 101 135 176 237 284 338 412
#
# _framework density 22.258424999999999
#
# number of rings (size 3 to 8) (size 9 to 14) (size 15 to 20)
#    0.000    1.500    1.250    4.125    5.250    2.000 
#    2.250    5.625    0.000    0.000    0.000    0.000 
#    0.000    0.000    0.000    0.000    0.000    0.000 
#
# Total GULP energy -178787.102956 kJ/mol
# GULP energy per Si atom -5587.096967 kJ/mol
# Density = 2.220776 g / cm^3
# Si number density = 22.258425 Si / 1000 Ang^3
#
#
#
# Elastic Constant Matrix: (Units=GPa)
#
#
# Indices 1 2 3 4 5 6 
#
# 1 89.5713 17.3679 4.0432 0.0000 -26.9017 0.0000
# 2 17.3679 49.5203 7.5025 0.0000 -0.8117 0.0000
# 3 4.0432 7.5025 76.8757 0.0000 -5.8935 0.0000
# 4 0.0000 0.0000 0.0000 25.4731 0.0000 -8.3141
# 5 -26.9017 -0.8117 -5.8935 0.0000 40.5247 0.0000
# 6 0.0000 0.0000 0.0000 -8.3141 0.0000 52.5397
#
#
#
# Elastic Compliance Matrix: (Units=1/GPa)
#
#
# Indices 1 2 3 4 5 6 
#
# 1 0.015171 -0.005229 0.000482 0.000000 0.010036 0.000000
# 2 -0.005229 0.022300 -0.002157 0.000000 -0.003338 0.000000
# 3 0.000482 -0.002157 0.013363 0.000000 0.002220 0.000000
# 4 0.000000 0.000000 0.000000 0.041395 0.000000 0.006551
# 5 0.010036 -0.003338 0.002220 0.000000 0.031595 0.000000
# 6 0.000000 0.000000 0.000000 0.006551 0.000000 0.020070
#
#
# Mechanical properties :
#
#
# Convention : Reuss Voigt Hill
#
# Bulk Modulus (GPa) = 27.00889 30.42158 28.71524
# Shear Modulus (GPa) = 29.40408 36.17774 32.79091
#
# Velocity S-wave (km/s) = 3.63854 4.03594 3.84238
# Velocity P-wave (km/s) = 5.46009 5.95109 5.71087
#
# Compressibility (1/GPa) = 0.03702484
#
# Stress axis : x y z
#
# Youngs Moduli (GPa) = 65.91636 44.84333 74.83132
#
# Poissons Ratio (x) = 0.23450 -0.03606
# Poissons Ratio (y) = 0.34469 0.16143
# Poissons Ratio (z) = -0.03176 0.09674
#
# Static dielectric constant tensor:
#      x y z
#    x 2.074520 0.000000 0.327700 
#    y 0.000000 1.852960 0.000000 
#    z 0.327700 0.000000 2.198420 
# 
# From -- ./inp_files/181190.got.cif
#   From: 2010.05.17/outbox.cif.g08.bks.cpg/sg15_91_cif.got.tgz:181190.got - 2010.06.03 18:47:42.
