data_PCOD9286997
_publ_section_title
;
Structure prediction by ZEFSAII (Michael W. Deem and Ramdas Pophale) SiO2 
 PCOD9286997
Probable space group: C 2/C
;
_chemical_formula_sum "Si O2"
_cell_formula_units_Z 40
_cell_length_a 18.100119
_cell_length_b 22.049730
_cell_length_c 8.257596
_cell_angle_alpha 90.000000
_cell_angle_beta 145.512209
_cell_angle_gamma 90.000000
_cell_volume 1866.086123
_symmetry_space_group_name_H-M "C 2/C"
_symmetry_group_IT_number 15
_symmetry_cell_setting 'monoclinic'
loop_
_space_group_symop_operation_xyz
x,y,z
-x,y,1/2-z
-x,-y,-z
x,-y,1/2+z
1/2+x,1/2+y,z
1/2-x,1/2+y,1/2-z
1/2-x,1/2-y,-z
1/2+x,1/2-y,1/2+z
loop_
_atom_site_type_symbol
_atom_site_label
_atom_site_fract_x
_atom_site_fract_y
_atom_site_fract_z
Si Si1 0.268834 0.804054 0.156766
Si Si2 0.500000 0.260682 0.250000
Si Si3 0.668837 0.943321 0.895614
Si Si4 0.932641 0.882246 0.289132
Si Si5 0.127294 0.572759 0.704449
Si Si6 0.500000 0.361827 0.750000
O O1 0.380978 0.781804 0.481646
O O2 0.317310 0.862774 0.145854
O O3 0.250000 0.750000 0.000000
O O4 0.131932 0.822511 0.988691
O O5 0.454276 0.309386 0.304102
O O6 0.529115 0.929047 0.562417
O O7 0.688043 0.014915 0.901657
O O8 0.784085 0.903439 0.030803
O O9 0.657721 0.931962 0.067284
O O10 0.000000 0.908736 0.250000
O O11 0.997200 0.898913 0.577545
#
# Coordination Sequence:
#
# PCOD9286997 Si02
#       6
#     8   4   8   8   8   4
#     4  12  24  44  67 105 142 184 239 293 352 444
#     4  10  24  42  71 100 143 186 240 282 364 428
#     4  10  21  45  70  99 139 174 245 295 346 431
#     4  10  23  45  70 106 141 186 241 289 362 424
#     4  10  23  41  73 100 132 190 230 292 363 411
#     4  12  24  44  69 104 149 184 236 296 360 422
#
# _framework density 21.435237000000001
#
# number of rings (size 3 to 8) (size 9 to 14) (size 15 to 20)
#    0.600    0.800    4.000    1.200    0.000    5.600 
#    1.800    4.000    0.000    0.000    0.000    0.000 
#    0.000    0.000    0.000    0.000    0.000    0.000 
#
# Total GULP energy -111718.782531 kJ/mol
# GULP energy per Si atom -5585.939127 kJ/mol
# Density = 2.138645 g / cm^3
# Si number density = 21.435237 Si / 1000 Ang^3
#
#
#
# Elastic Constant Matrix: (Units=GPa)
#
#
# Indices 1 2 3 4 5 6 
#
# 1 109.3333 23.2486 49.2025 0.0000 11.3059 0.0000
# 2 23.2486 116.3709 31.9683 0.0000 15.9435 0.0000
# 3 49.2025 31.9683 108.9755 0.0000 20.7284 0.0000
# 4 0.0000 0.0000 0.0000 39.0205 0.0000 8.8918
# 5 11.3059 15.9435 20.7284 0.0000 36.3315 0.0000
# 6 0.0000 0.0000 0.0000 8.8918 0.0000 16.4381
#
#
#
# Elastic Compliance Matrix: (Units=1/GPa)
#
#
# Indices 1 2 3 4 5 6 
#
# 1 0.011581 -0.000916 -0.004881 0.000000 -0.000417 0.000000
# 2 -0.000916 0.009689 -0.001878 0.000000 -0.002895 0.000000
# 3 -0.004881 -0.001878 0.012883 0.000000 -0.005007 0.000000
# 4 0.000000 0.000000 0.000000 0.029231 0.000000 -0.015812
# 5 -0.000417 -0.002895 -0.005007 0.000000 0.031782 0.000000
# 6 0.000000 0.000000 0.000000 -0.015812 0.000000 0.069387
#
#
# Mechanical properties :
#
#
# Convention : Reuss Voigt Hill
#
# Bulk Modulus (GPa) = 53.18020 60.39095 56.78558
# Shear Modulus (GPa) = 26.85735 33.70872 30.28303
#
# Velocity S-wave (km/s) = 3.54355 3.96988 3.76276
# Velocity P-wave (km/s) = 6.45026 7.01770 6.73996
#
# Compressibility (1/GPa) = 0.01880399
#
# Stress axis : x y z
#
# Youngs Moduli (GPa) = 86.35123 103.21254 77.61917
#
# Poissons Ratio (x) = 0.09450 0.37883
# Poissons Ratio (y) = 0.07907 0.14578
# Poissons Ratio (z) = 0.42145 0.19384
#
# Static dielectric constant tensor:
#      x y z
#    x 1.807180 0.000000 -0.026850 
#    y 0.000000 1.755150 0.000000 
#    z -0.026850 0.000000 1.808390 
# 
# From -- ./inp_files/51709.got.cif
#   From: 2010.05.17/outbox.cif.g08.bks.cpg/sg15_26_cif.got.tgz:51709.got - 2010.06.03 18:47:42.
