data_PCOD9286380
_publ_section_title
;
Structure prediction by ZEFSAII (Michael W. Deem and Ramdas Pophale) SiO2 
 PCOD9286380
Probable space group: C 2/C
;
_chemical_formula_sum "Si O2"
_cell_formula_units_Z 40
_cell_length_a 9.336296
_cell_length_b 14.439452
_cell_length_c 16.092643
_cell_angle_alpha 90.000000
_cell_angle_beta 114.654905
_cell_angle_gamma 90.000000
_cell_volume 1971.689826
_symmetry_space_group_name_H-M "C 2/C"
_symmetry_group_IT_number 15
_symmetry_cell_setting 'monoclinic'
loop_
_space_group_symop_operation_xyz
x,y,z
-x,y,1/2-z
-x,-y,-z
x,-y,1/2+z
1/2+x,1/2+y,z
1/2-x,1/2+y,1/2-z
1/2-x,1/2-y,-z
1/2+x,1/2-y,1/2+z
loop_
_atom_site_type_symbol
_atom_site_label
_atom_site_fract_x
_atom_site_fract_y
_atom_site_fract_z
Si Si1 0.216558 0.683786 0.069424
Si Si2 0.419069 0.540085 0.853488
Si Si3 0.890230 0.695747 0.077863
Si Si4 0.500000 0.696739 0.750000
Si Si5 0.000000 0.121134 0.250000
Si Si6 0.249987 0.999980 0.521404
O O1 0.366520 0.676902 0.167505
O O2 0.059288 0.715529 0.077827
O O3 0.250000 0.750000 0.000000
O O4 0.191194 0.581541 0.023799
O O5 0.409247 0.627036 0.789800
O O6 0.415291 0.447458 0.796147
O O7 0.297905 0.539145 0.899874
O O8 0.591218 0.538876 0.938770
O O9 0.891076 0.735870 0.170591
O O10 0.861792 0.586772 0.063139
O O11 0.750000 0.750000 0.000000
#
# Coordination Sequence:
#
# PCOD9286380 Si02
#       6
#     8   8   8   4   4   8
#     4  11  25  44  70  98 135 182 226 280 337 400
#     4   9  19  40  70  91 126 182 222 276 332 398
#     4  12  26  41  67 102 141 174 223 280 339 406
#     4  11  22  40  63 100 130 184 221 268 341 400
#     4   9  22  40  69  94 132 170 235 270 333 396
#     4  10  21  43  67  95 135 175 224 280 337 391
#
# _framework density 20.287165999999999
#
# number of rings (size 3 to 8) (size 9 to 14) (size 15 to 20)
#    0.000    1.600    2.000    1.800    8.400    0.000 
#    0.000    1.000    0.000    0.000    0.000    0.000 
#    0.000    0.000    0.000    0.000    0.000    0.000 
#
# Total GULP energy -111747.849859 kJ/mol
# GULP energy per Si atom -5587.392493 kJ/mol
# Density = 2.024099 g / cm^3
# Si number density = 20.287166 Si / 1000 Ang^3
#
#
#
# Elastic Constant Matrix: (Units=GPa)
#
#
# Indices 1 2 3 4 5 6 
#
# 1 86.7823 41.4337 45.0735 0.0000 -5.7090 0.0000
# 2 41.4337 99.9612 56.7076 0.0000 10.3787 0.0000
# 3 45.0735 56.7076 158.1188 0.0000 7.2005 0.0000
# 4 0.0000 0.0000 0.0000 55.1886 0.0000 0.8387
# 5 -5.7090 10.3787 7.2005 0.0000 26.6586 0.0000
# 6 0.0000 0.0000 0.0000 0.8387 0.0000 24.1712
#
#
#
# Elastic Compliance Matrix: (Units=1/GPa)
#
#
# Indices 1 2 3 4 5 6 
#
# 1 0.016177 -0.005768 -0.002838 0.000000 0.006476 0.000000
# 2 -0.005768 0.014991 -0.003452 0.000000 -0.006139 0.000000
# 3 -0.002838 -0.003452 0.008442 0.000000 -0.001544 0.000000
# 4 0.000000 0.000000 0.000000 0.018129 0.000000 -0.000629
# 5 0.006476 -0.006139 -0.001544 0.000000 0.041705 0.000000
# 6 0.000000 0.000000 0.000000 -0.000629 0.000000 0.041393
#
#
# Mechanical properties :
#
#
# Convention : Reuss Voigt Hill
#
# Bulk Modulus (GPa) = 64.54486 70.14355 67.34420
# Shear Modulus (GPa) = 29.39145 34.64685 32.01915
#
# Velocity S-wave (km/s) = 3.81040 4.13706 3.97709
# Velocity P-wave (km/s) = 7.15846 7.58095 7.37273
#
# Compressibility (1/GPa) = 0.01549310
#
# Stress axis : x y z
#
# Youngs Moduli (GPa) = 61.81676 66.70847 118.45847
#
# Poissons Ratio (x) = 0.38476 0.33615
# Poissons Ratio (y) = 0.35655 0.40898
# Poissons Ratio (z) = 0.17542 0.23031
#
# Static dielectric constant tensor:
#      x y z
#    x 1.682950 0.000000 -0.013680 
#    y 0.000000 1.744070 0.000000 
#    z -0.013680 0.000000 1.697390 
# 
# From -- ./inp_files/133310.got.cif
#   From: 2010.05.17/outbox.cif.g08.bks.cpg/sg15_67_cif.got.tgz:133310.got - 2010.06.03 18:47:42.
