data_PCOD9286701
_publ_section_title
;
Structure prediction by ZEFSAII (Michael W. Deem and Ramdas Pophale) SiO2 
 PCOD9286701
Probable space group: C 2/C
;
_chemical_formula_sum "Si O2"
_cell_formula_units_Z 44
_cell_length_a 7.873399
_cell_length_b 13.241293
_cell_length_c 21.807136
_cell_angle_alpha 90.000000
_cell_angle_beta 127.476573
_cell_angle_gamma 90.000000
_cell_volume 1804.239316
_symmetry_space_group_name_H-M "C 2/C"
_symmetry_group_IT_number 15
_symmetry_cell_setting 'monoclinic'
loop_
_space_group_symop_operation_xyz
x,y,z
-x,y,1/2-z
-x,-y,-z
x,-y,1/2+z
1/2+x,1/2+y,z
1/2-x,1/2+y,1/2-z
1/2-x,1/2-y,-z
1/2+x,1/2-y,1/2+z
loop_
_atom_site_type_symbol
_atom_site_label
_atom_site_fract_x
_atom_site_fract_y
_atom_site_fract_z
Si Si1 0.436784 0.308612 0.366420
Si Si2 0.058763 0.238820 0.096922
Si Si3 0.238100 0.539549 0.548735
Si Si4 0.500000 0.278432 0.250000
Si Si5 0.165984 0.874794 0.841102
Si Si6 0.715322 0.392504 0.047665
O O1 0.681811 0.345738 0.430417
O O2 0.385003 0.328782 0.283431
O O3 0.372725 0.192730 0.367460
O O4 0.304877 0.382668 0.383372
O O5 0.304483 0.225139 0.170866
O O6 0.927360 0.182034 0.121064
O O7 0.948975 0.348805 0.078976
O O8 0.966859 0.185675 0.016266
O O9 0.322885 0.487175 0.629885
O O10 0.315692 0.492077 0.500617
O O11 0.000000 0.500000 0.500000
O O12 0.000000 0.868465 0.750000
#
# Coordination Sequence:
#
# PCOD9286701 Si02
#       6
#     8   8   8   4   8   8
#     4  11  24  40  68  96 133 178 229 282 348 424
#     4   9  19  37  64  94 122 172 225 276 340 423
#     4  11  24  41  67 101 131 176 237 292 344 420
#     4  12  22  34  60 102 130 162 230 286 340 412
#     4  10  21  44  66  89 138 185 215 283 362 413
#     4   9  20  41  64  87 131 179 223 278 347 414
#
# _framework density 24.387007000000001
#
# number of rings (size 3 to 8) (size 9 to 14) (size 15 to 20)
#    0.000    1.818    1.818    2.727    1.273    2.909 
#    0.000    0.000    8.000    0.000    0.000    0.000 
#    0.000    0.000    0.000    0.000    0.000    0.000 
#
# Total GULP energy -122557.435307 kJ/mol
# GULP energy per Si atom -5570.792514 kJ/mol
# Density = 2.433150 g / cm^3
# Si number density = 24.387007 Si / 1000 Ang^3
#
#
#
# Elastic Constant Matrix: (Units=GPa)
#
#
# Indices 1 2 3 4 5 6 
#
# 1 116.0885 25.6234 46.8798 0.0000 -11.1754 0.0000
# 2 25.6234 52.9600 17.8336 0.0000 -2.8807 0.0000
# 3 46.8798 17.8336 109.6010 0.0000 -9.9275 0.0000
# 4 0.0000 0.0000 0.0000 9.4365 0.0000 12.2213
# 5 -11.1754 -2.8807 -9.9275 0.0000 67.6713 0.0000
# 6 0.0000 0.0000 0.0000 12.2213 0.0000 24.7590
#
#
#
# Elastic Compliance Matrix: (Units=1/GPa)
#
#
# Indices 1 2 3 4 5 6 
#
# 1 0.011244 -0.004014 -0.004057 0.000000 0.001091 0.000000
# 2 -0.004014 0.021420 -0.001769 0.000000 -0.000011 0.000000
# 3 -0.004057 -0.001769 0.011229 0.000000 0.000902 0.000000
# 4 0.000000 0.000000 0.000000 0.293779 0.000000 -0.145013
# 5 0.001091 -0.000011 0.000902 0.000000 0.015089 0.000000
# 6 0.000000 0.000000 0.000000 -0.145013 0.000000 0.111970
#
#
# Mechanical properties :
#
#
# Convention : Reuss Voigt Hill
#
# Bulk Modulus (GPa) = 41.30423 51.03591 46.17007
# Shear Modulus (GPa) = 10.15265 32.92755 21.54010
#
# Velocity S-wave (km/s) = 2.04259 3.67850 2.97520
# Velocity P-wave (km/s) = 4.74728 6.24618 5.54759
#
# Compressibility (1/GPa) = 0.02421060
#
# Stress axis : x y z
#
# Youngs Moduli (GPa) = 88.93928 46.68620 89.05525
#
# Poissons Ratio (x) = 0.18742 0.36132
# Poissons Ratio (y) = 0.35704 0.15755
# Poissons Ratio (z) = 0.36085 0.08259
#
# Static dielectric constant tensor:
#      x y z
#    x 2.317370 0.000000 0.501220 
#    y 0.000000 2.007590 0.000000 
#    z 0.501220 0.000000 3.357610 
# 
# From -- ./inp_files/264492.got.cif
#   From: 2010.05.17/outbox.cif.g08.bks.cpg/sg15_133_cif.got.tgz:264492.got - 2010.06.03 18:47:42.
