data_PCOD9286329
_publ_section_title
;
Structure prediction by ZEFSAII (Michael W. Deem and Ramdas Pophale) SiO2 
 PCOD9286329
Probable space group: C 2/C
;
_chemical_formula_sum "Si O2"
_cell_formula_units_Z 32
_cell_length_a 8.625363
_cell_length_b 10.453821
_cell_length_c 14.128784
_cell_angle_alpha 90.000000
_cell_angle_beta 109.373457
_cell_angle_gamma 90.000000
_cell_volume 1201.827812
_symmetry_space_group_name_H-M "C 2/C"
_symmetry_group_IT_number 15
_symmetry_cell_setting 'monoclinic'
loop_
_space_group_symop_operation_xyz
x,y,z
-x,y,1/2-z
-x,-y,-z
x,-y,1/2+z
1/2+x,1/2+y,z
1/2-x,1/2+y,1/2-z
1/2-x,1/2-y,-z
1/2+x,1/2-y,1/2+z
loop_
_atom_site_type_symbol
_atom_site_label
_atom_site_fract_x
_atom_site_fract_y
_atom_site_fract_z
Si Si1 0.343421 0.156393 0.331957
Si Si2 0.539940 0.385990 0.416134
Si Si3 0.500000 0.942695 0.250000
Si Si4 0.000000 0.105402 0.250000
Si Si5 0.222492 0.441385 0.472367
O O1 0.488736 0.257845 0.351379
O O2 0.362237 0.034874 0.268802
O O3 0.337449 0.112392 0.439958
O O4 0.157068 0.197555 0.269383
O O5 0.520842 0.507104 0.341211
O O6 0.395312 0.389362 0.465429
O O7 0.720104 0.411017 0.496828
O O8 0.589904 0.905591 0.366838
#
# Coordination Sequence:
#
# PCOD9286329 Si02
#       5
#     8   8   4   4   8
#     4  11  23  41  70  98 132 184 218 273 345 394
#     4  10  21  43  66  97 136 175 221 278 335 398
#     4  12  23  43  62 100 130 172 227 277 328 404
#     4  10  21  43  68 100 142 174 223 281 326 400
#     4  10  23  42  65  96 140 169 222 285 328 398
#
# _framework density 26.626111999999999
#
# number of rings (size 3 to 8) (size 9 to 14) (size 15 to 20)
#    0.000    1.500    2.500    2.250    0.000    2.000 
#    4.500    0.000    0.000    0.000    0.000    0.000 
#    0.000    0.000    0.000    0.000    0.000    0.000 
#
# Total GULP energy -89245.965707 kJ/mol
# GULP energy per Si atom -5577.872857 kJ/mol
# Density = 2.656551 g / cm^3
# Si number density = 26.626112 Si / 1000 Ang^3
#
#
#
# Elastic Constant Matrix: (Units=GPa)
#
#
# Indices 1 2 3 4 5 6 
#
# 1 50.0275 -10.6120 19.0565 0.0000 19.8868 0.0000
# 2 -10.6120 28.7349 -3.3929 0.0000 12.5720 0.0000
# 3 19.0565 -3.3929 158.3505 0.0000 -10.4167 0.0000
# 4 0.0000 0.0000 0.0000 8.6277 0.0000 11.1988
# 5 19.8868 12.5720 -10.4167 0.0000 68.4555 0.0000
# 6 0.0000 0.0000 0.0000 11.1988 0.0000 10.6615
#
#
#
# Elastic Compliance Matrix: (Units=1/GPa)
#
#
# Indices 1 2 3 4 5 6 
#
# 1 0.029709 0.015811 -0.004036 0.000000 -0.012149 0.000000
# 2 0.015811 0.046276 -0.001790 0.000000 -0.013364 0.000000
# 3 -0.004036 -0.001790 0.006931 0.000000 0.002556 0.000000
# 4 0.000000 0.000000 0.000000 -0.318943 0.000000 0.335015
# 5 -0.012149 -0.013364 0.002556 0.000000 0.020981 0.000000
# 6 0.000000 0.000000 0.000000 0.335015 0.000000 -0.258102
#
#
# Mechanical properties :
#
#
# Convention : Reuss Voigt Hill
#
# Bulk Modulus (GPa) = 9.71962 27.46845 18.59404
# Shear Modulus (GPa) = -10.89744 33.01970 11.06113
#
# Velocity S-wave (km/s) = -2.02525 3.52536 2.04041
# Velocity P-wave (km/s) = 1.34556 5.18745 3.54254
#
# Compressibility (1/GPa) = 0.10288467
#
# Stress axis : x y z
#
# Youngs Moduli (GPa) = 33.65942 21.60966 144.28874
#
# Poissons Ratio (x) = -0.34166 0.58231
# Poissons Ratio (y) = -0.53218 0.25832
# Poissons Ratio (z) = 0.13584 0.03869
#
# Static dielectric constant tensor:
#      x y z
#    x 2.209220 0.000000 0.158290 
#    y 0.000000 2.300200 0.000000 
#    z 0.158290 0.000000 2.249130 
# 
# From -- ./inp_files/131956.got.cif
#   From: 2010.05.17/outbox.cif.g08.bks.cpg/sg15_66_cif.got.tgz:131956.got - 2010.06.03 18:47:42.
