data_PCOD9286466
_publ_section_title
;
Structure prediction by ZEFSAII (Michael W. Deem and Ramdas Pophale) SiO2 
 PCOD9286466
Probable space group: C 2/C
;
_chemical_formula_sum "Si O2"
_cell_formula_units_Z 56
_cell_length_a 8.102423
_cell_length_b 14.425794
_cell_length_c 21.964333
_cell_angle_alpha 90.000000
_cell_angle_beta 67.285543
_cell_angle_gamma 90.000000
_cell_volume 2368.160368
_symmetry_space_group_name_H-M "C 2/C"
_symmetry_group_IT_number 15
_symmetry_cell_setting 'monoclinic'
loop_
_space_group_symop_operation_xyz
x,y,z
-x,y,1/2-z
-x,-y,-z
x,-y,1/2+z
1/2+x,1/2+y,z
1/2-x,1/2+y,1/2-z
1/2-x,1/2-y,-z
1/2+x,1/2-y,1/2+z
loop_
_atom_site_type_symbol
_atom_site_label
_atom_site_fract_x
_atom_site_fract_y
_atom_site_fract_z
Si Si1 0.932249 0.079216 0.593661
Si Si2 0.407054 0.270371 0.177844
Si Si3 0.182306 0.230635 0.369370
Si Si4 0.133153 0.426950 0.863345
Si Si5 0.618374 0.121086 0.794629
Si Si6 0.019986 0.930557 0.819390
Si Si7 0.237576 0.081763 0.461908
O O1 0.864216 0.181075 0.619111
O O2 0.134351 0.084043 0.540028
O O3 0.825093 0.012454 0.563540
O O4 0.921213 0.026676 0.659780
O O5 0.379769 0.274236 0.345631
O O6 0.369936 0.161840 0.180132
O O7 0.290023 0.322751 0.244394
O O8 0.058913 0.312393 0.359627
O O9 0.164822 0.171808 0.434611
O O10 0.150040 0.147760 0.325871
O O11 0.138978 0.520488 0.822138
O O12 0.318238 0.416931 0.873080
O O13 0.951843 0.420001 0.928381
O O14 0.500000 0.114482 0.750000
O O15 0.000000 0.930903 0.750000
#
# Coordination Sequence:
#
# PCOD9286466 Si02
#       7
#     8   8   8   8   8   8   8
#     4  10  21  43  69  95 131 175 224 273 328 396
#     4  11  23  40  65  92 125 173 220 270 334 397
#     4  10  22  40  63  91 124 169 222 268 327 398
#     4  11  24  39  61  95 130 167 215 275 336 400
#     4  12  24  39  62  95 135 171 217 278 340 403
#     4  11  22  39  63  94 130 168 217 278 339 398
#     4   9  22  43  69  97 129 174 225 274 329 396
#
# _framework density 23.647048000000002
#
# number of rings (size 3 to 8) (size 9 to 14) (size 15 to 20)
#    0.000    1.429    0.000    5.143    0.000    9.714 
#    0.000    1.429    0.000    6.857    0.000    0.000 
#    0.000    0.000    0.000    0.000    0.000    0.000 
#
# Total GULP energy -156275.895040 kJ/mol
# GULP energy per Si atom -5581.281966 kJ/mol
# Density = 2.359323 g / cm^3
# Si number density = 23.647048 Si / 1000 Ang^3
#
#
#
# Elastic Constant Matrix: (Units=GPa)
#
#
# Indices 1 2 3 4 5 6 
#
# 1 64.6953 10.0167 0.9132 0.0000 -14.0951 0.0000
# 2 10.0167 146.0766 40.5515 0.0000 -3.1157 0.0000
# 3 0.9132 40.5515 64.7207 0.0000 -13.8185 0.0000
# 4 0.0000 0.0000 0.0000 21.7121 0.0000 -10.4448
# 5 -14.0951 -3.1157 -13.8185 0.0000 32.0403 0.0000
# 6 0.0000 0.0000 0.0000 -10.4448 0.0000 21.4952
#
#
#
# Elastic Compliance Matrix: (Units=1/GPa)
#
#
# Indices 1 2 3 4 5 6 
#
# 1 0.017600 -0.001779 0.002735 0.000000 0.008749 0.000000
# 2 -0.001779 0.008540 -0.005855 0.000000 -0.002477 0.000000
# 3 0.002735 -0.005855 0.021165 0.000000 0.009762 0.000000
# 4 0.000000 0.000000 0.000000 0.060108 0.000000 0.029207
# 5 0.008749 -0.002477 0.009762 0.000000 0.039029 0.000000
# 6 0.000000 0.000000 0.000000 0.029207 0.000000 0.060714
#
#
# Mechanical properties :
#
#
# Convention : Reuss Voigt Hill
#
# Bulk Modulus (GPa) = 26.66237 42.05059 34.35648
# Shear Modulus (GPa) = 21.79053 29.98359 25.88706
#
# Velocity S-wave (km/s) = 3.03890 3.56471 3.31226
# Velocity P-wave (km/s) = 4.85930 5.89611 5.40263
#
# Compressibility (1/GPa) = 0.03750604
#
# Stress axis : x y z
#
# Youngs Moduli (GPa) = 56.81795 117.09307 47.24770
#
# Poissons Ratio (x) = 0.20835 -0.12920
# Poissons Ratio (y) = 0.10110 0.27663
# Poissons Ratio (z) = -0.15537 0.68556
#
# Static dielectric constant tensor:
#      x y z
#    x 1.944890 0.000000 -0.038860 
#    y 0.000000 1.938420 0.000000 
#    z -0.038860 0.000000 1.908100 
# 
# From -- ./inp_files/264572.got.cif
#   From: 2010.05.17/outbox.cif.g08.bks.cpg/sg15_133_cif.got.tgz:264572.got - 2010.06.03 18:47:42.
