data_PCOD9286273
_publ_section_title
;
Structure prediction by ZEFSAII (Michael W. Deem and Ramdas Pophale) SiO2 
 PCOD9286273
Probable space group: C 2/C
;
_chemical_formula_sum "Si O2"
_cell_formula_units_Z 44
_cell_length_a 18.211193
_cell_length_b 5.071805
_cell_length_c 21.357255
_cell_angle_alpha 90.000000
_cell_angle_beta 120.660164
_cell_angle_gamma 90.000000
_cell_volume 1696.873097
_symmetry_space_group_name_H-M "C 2/C"
_symmetry_group_IT_number 15
_symmetry_cell_setting 'monoclinic'
loop_
_space_group_symop_operation_xyz
x,y,z
-x,y,1/2-z
-x,-y,-z
x,-y,1/2+z
1/2+x,1/2+y,z
1/2-x,1/2+y,1/2-z
1/2-x,1/2-y,-z
1/2+x,1/2-y,1/2+z
loop_
_atom_site_type_symbol
_atom_site_label
_atom_site_fract_x
_atom_site_fract_y
_atom_site_fract_z
Si Si1 0.374963 0.058131 0.159933
Si Si2 0.528815 0.628007 0.872959
Si Si3 0.731360 0.389542 0.699261
Si Si4 0.347094 0.183689 0.522995
Si Si5 0.500000 0.419617 0.750000
Si Si6 0.075217 0.171281 0.565710
O O1 0.296354 0.115321 0.168312
O O2 0.366914 0.054303 0.079698
O O3 0.423389 0.797988 0.196459
O O4 0.439002 0.303066 0.185664
O O5 0.596750 0.436006 0.934181
O O6 0.457697 0.454297 0.806798
O O7 0.476982 0.805934 0.899801
O O8 0.736375 0.113923 0.738049
O O9 0.644933 0.482014 0.627314
O O10 0.250000 0.250000 0.500000
O O11 0.373482 0.147962 0.462168
O O12 0.000000 0.000000 0.500000
#
# Coordination Sequence:
#
# PCOD9286273 Si02
#       6
#     8   8   8   8   4   8
#     4  11  24  41  71 103 139 191 242 306 369 444
#     4  10  23  40  68  96 137 185 239 303 361 442
#     4  12  29  49  77 112 155 197 252 312 379 447
#     4  10  21  43  65  97 138 184 241 298 365 431
#     4  10  22  40  66  96 146 180 248 290 384 432
#     4  10  23  49  70 106 150 195 254 307 375 445
#
# _framework density 25.930045
#
# number of rings (size 3 to 8) (size 9 to 14) (size 15 to 20)
#    0.000    1.455    1.818    1.636   10.182    1.455 
#    6.545    0.000    0.000    0.000    0.000    0.000 
#    0.000    0.000    0.000    0.000    0.000    0.000 
#
# Total GULP energy -122524.027347 kJ/mol
# GULP energy per Si atom -5569.273970 kJ/mol
# Density = 2.587103 g / cm^3
# Si number density = 25.930045 Si / 1000 Ang^3
#
#
#
# Elastic Constant Matrix: (Units=GPa)
#
#
# Indices 1 2 3 4 5 6 
#
# 1 284.8277 16.5720 63.5582 0.0006 -36.2013 -0.0004
# 2 16.5720 98.6969 8.3600 0.0022 -12.6935 -0.0030
# 3 63.5582 8.3600 93.3518 -0.0006 -3.1813 0.0011
# 4 0.0006 0.0022 -0.0006 -33.6655 0.0003 -7.5653
# 5 -36.2013 -12.6935 -3.1813 0.0003 51.5140 0.0000
# 6 -0.0004 -0.0030 0.0011 -7.5653 0.0000 70.0830
#
#
#
# Elastic Compliance Matrix: (Units=1/GPa)
#
#
# Indices 1 2 3 4 5 6 
#
# 1 0.004567 -0.000128 -0.002996 0.000000 0.002993 0.000000
# 2 -0.000128 0.010535 -0.000772 0.000001 0.002458 0.000001
# 3 -0.002996 -0.000772 0.012770 0.000000 -0.001507 0.000000
# 4 0.000000 0.000001 0.000000 -0.029000 0.000000 -0.003131
# 5 0.002993 0.002458 -0.001507 0.000000 0.022028 0.000000
# 6 0.000000 0.000001 0.000000 -0.003131 0.000000 0.013931
#
#
# Mechanical properties :
#
#
# Convention : Reuss Voigt Hill
#
# Bulk Modulus (GPa) = 49.80365 72.65074 61.22719
# Shear Modulus (GPa) = 101.38393 43.47871 72.43132
#
# Velocity S-wave (km/s) = 6.25970 4.09928 5.29094
# Velocity P-wave (km/s) = 8.45540 7.10523 7.80955
#
# Compressibility (1/GPa) = 0.02007885
#
# Stress axis : x y z
#
# Youngs Moduli (GPa) = 218.94499 94.92051 78.30910
#
# Poissons Ratio (x) = 0.01217 0.23463
# Poissons Ratio (y) = 0.02806 0.06049
# Poissons Ratio (z) = 0.65600 0.07332
#
# Static dielectric constant tensor:
#      x y z
#    x 1.792280 0.000000 -0.395270 
#    y 0.000000 1.637160 0.000000 
#    z -0.395270 0.000000 1.870100 
# 
# From -- ./inp_files/246395.got.cif
#   From: 2010.05.17/outbox.cif.g08.bks.cpg/sg15_124_cif.got.tgz:246395.got - 2010.06.03 18:47:42.
