data_PCOD9286297
_publ_section_title
;
Structure prediction by ZEFSAII (Michael W. Deem and Ramdas Pophale) SiO2 
 PCOD9286297
Probable space group: C 2/C
;
_chemical_formula_sum "Si O2"
_cell_formula_units_Z 52
_cell_length_a 13.879309
_cell_length_b 15.004721
_cell_length_c 18.764742
_cell_angle_alpha 90.000000
_cell_angle_beta 40.536606
_cell_angle_gamma 90.000000
_cell_volume 2539.846364
_symmetry_space_group_name_H-M "C 2/C"
_symmetry_group_IT_number 15
_symmetry_cell_setting 'monoclinic'
loop_
_space_group_symop_operation_xyz
x,y,z
-x,y,1/2-z
-x,-y,-z
x,-y,1/2+z
1/2+x,1/2+y,z
1/2-x,1/2+y,1/2-z
1/2-x,1/2-y,-z
1/2+x,1/2-y,1/2+z
loop_
_atom_site_type_symbol
_atom_site_label
_atom_site_fract_x
_atom_site_fract_y
_atom_site_fract_z
Si Si1 0.500000 0.603072 0.750000
Si Si2 0.550347 0.600383 0.986959
Si Si3 0.067635 0.369654 0.924079
Si Si4 0.023683 0.259738 0.387483
Si Si5 0.628516 0.887229 0.124570
Si Si6 0.862784 0.794617 0.197018
Si Si7 0.292177 0.003635 0.558038
O O1 0.584497 0.665769 0.758430
O O2 0.627391 0.541343 0.643961
O O3 0.718794 0.609741 0.919175
O O4 0.547571 0.650537 0.912942
O O5 0.500000 0.500000 0.000000
O O6 0.464056 0.656358 0.096807
O O7 0.104838 0.309142 0.835827
O O8 0.187435 0.442066 0.882995
O O9 0.050333 0.304488 0.001544
O O10 0.911890 0.418331 0.000435
O O11 0.185819 0.302336 0.286771
O O12 0.924042 0.290469 0.376552
O O13 0.500000 0.918958 0.250000
O O14 0.654475 0.948333 0.040675
#
# Coordination Sequence:
#
# PCOD9286297 Si02
#       7
#     4   8   8   8   8   8   8
#     4  12  24  42  66 100 138 174 228 276 328 400
#     4  11  24  42  66  99 133 168 223 284 324 392
#     4   9  21  42  64  89 125 174 219 259 332 393
#     4  10  21  43  66  90 133 173 216 269 336 395
#     4  11  22  41  68 101 132 172 223 272 330 399
#     4  11  23  41  66  94 130 177 214 271 335 395
#     4  10  22  41  66  93 130 174 217 272 326 396
#
# _framework density 20.473679000000001
#
# number of rings (size 3 to 8) (size 9 to 14) (size 15 to 20)
#    0.000    1.538    3.077    1.385    0.000    4.308 
#    4.154    0.000    1.692    0.000    0.000    0.000 
#    0.000    0.000    0.000    0.000    0.000    0.000 
#
# Total GULP energy -145075.976690 kJ/mol
# GULP energy per Si atom -5579.845257 kJ/mol
# Density = 2.042708 g / cm^3
# Si number density = 20.473679 Si / 1000 Ang^3
#
#
#
# Elastic Constant Matrix: (Units=GPa)
#
#
# Indices 1 2 3 4 5 6 
#
# 1 75.6877 43.8956 26.7195 -0.0001 -3.8564 0.0000
# 2 43.8956 97.5763 33.1954 -0.0001 0.7024 0.0000
# 3 26.7195 33.1954 76.9414 -0.0002 -0.8129 0.0001
# 4 -0.0001 -0.0001 -0.0002 23.6923 0.0001 6.5179
# 5 -3.8564 0.7024 -0.8129 0.0001 26.9736 0.0000
# 6 0.0000 0.0000 0.0001 6.5179 0.0000 6.2484
#
#
#
# Elastic Compliance Matrix: (Units=1/GPa)
#
#
# Indices 1 2 3 4 5 6 
#
# 1 0.018784 -0.007338 -0.003328 0.000000 0.002776 0.000000
# 2 -0.007338 0.014884 -0.003890 0.000000 -0.001554 0.000000
# 3 -0.003328 -0.003890 0.015832 0.000000 0.000103 0.000000
# 4 0.000000 0.000000 0.000000 0.059195 0.000000 -0.061749
# 5 0.002776 -0.001554 0.000103 0.000000 0.037514 0.000001
# 6 0.000000 0.000000 0.000000 -0.061749 0.000001 0.224454
#
#
# Mechanical properties :
#
#
# Convention : Reuss Voigt Hill
#
# Bulk Modulus (GPa) = 49.04677 50.86958 49.95818
# Shear Modulus (GPa) = 12.29797 21.14250 16.72024
#
# Velocity S-wave (km/s) = 2.45352 3.21700 2.86084
# Velocity P-wave (km/s) = 5.65989 6.22086 5.94699
#
# Compressibility (1/GPa) = 0.02038870
#
# Stress axis : x y z
#
# Youngs Moduli (GPa) = 53.23606 67.18662 63.16391
#
# Poissons Ratio (x) = 0.49302 0.21021
# Poissons Ratio (y) = 0.39065 0.24568
# Poissons Ratio (z) = 0.17717 0.26133
#
# Static dielectric constant tensor:
#      x y z
#    x 1.720290 0.000000 0.017960 
#    y 0.000000 1.777890 0.000000 
#    z 0.017960 0.000000 1.744120 
# 
# From -- ./inp_files/205655.got.cif
#   From: 2010.05.17/outbox.cif.g08.bks.cpg/sg15_103_cif.got.tgz:205655.got - 2010.06.03 18:47:42.
