data_PCOD9286110
_publ_section_title
;
Structure prediction by ZEFSAII (Michael W. Deem and Ramdas Pophale) SiO2 
 PCOD9286110
Probable space group: C 2/C
;
_chemical_formula_sum "Si O2"
_cell_formula_units_Z 60
_cell_length_a 8.072291
_cell_length_b 14.275723
_cell_length_c 22.775860
_cell_angle_alpha 90.000000
_cell_angle_beta 71.663978
_cell_angle_gamma 90.000000
_cell_volume 2491.381258
_symmetry_space_group_name_H-M "C 2/C"
_symmetry_group_IT_number 15
_symmetry_cell_setting 'monoclinic'
loop_
_space_group_symop_operation_xyz
x,y,z
-x,y,1/2-z
-x,-y,-z
x,-y,1/2+z
1/2+x,1/2+y,z
1/2-x,1/2+y,1/2-z
1/2-x,1/2-y,-z
1/2+x,1/2-y,1/2+z
loop_
_atom_site_type_symbol
_atom_site_label
_atom_site_fract_x
_atom_site_fract_y
_atom_site_fract_z
Si Si1 0.793405 0.513540 0.023472
Si Si2 0.752462 0.683643 0.943340
Si Si3 0.390413 0.672008 0.994620
Si Si4 0.271276 0.585050 0.718413
Si Si5 0.173036 0.939800 0.149296
Si Si6 0.000000 0.564625 0.250000
Si Si7 0.112596 0.253392 0.381631
Si Si8 0.300535 0.695503 0.253623
O O1 0.735175 0.522809 0.098498
O O2 0.760565 0.585991 0.975323
O O3 0.682945 0.425998 0.014830
O O4 0.000000 0.500000 0.000000
O O5 0.921494 0.705820 0.887536
O O6 0.750000 0.750000 0.000000
O O7 0.562831 0.695241 0.938155
O O8 0.416968 0.682618 0.061550
O O9 0.250000 0.750000 0.000000
O O10 0.276419 0.557410 0.787455
O O11 0.464489 0.568570 0.672129
O O12 0.227087 0.696476 0.721717
O O13 0.134548 0.511368 0.705650
O O14 0.269600 0.844200 0.116952
O O15 0.125319 0.630148 0.278007
O O16 0.191237 0.202788 0.317652
O O17 0.500000 0.663808 0.250000
#
# Coordination Sequence:
#
# PCOD9286110 Si02
#       8
#     8   8   8   8   8   4   8   8
#     4  12  22  40  67  99 142 186 242 288 360 440
#     4  10  22  41  62  95 138 180 236 292 354 439
#     4  11  22  41  62  97 137 184 235 290 357 429
#     4  10  24  47  73 107 150 189 249 313 379 440
#     4  10  21  42  72 102 144 193 237 305 374 441
#     4  12  26  50  74 110 148 186 258 300 374 474
#     4  10  21  45  69 101 141 186 236 304 370 441
#     4  11  25  48  76 107 146 190 248 311 379 449
#
# _framework density 24.083024999999999
#
# number of rings (size 3 to 8) (size 9 to 14) (size 15 to 20)
#    0.000    1.333    3.333    2.800    1.867    4.267 
#    2.400    0.000    0.000    0.000    0.000    0.000 
#    0.000    0.000    0.000    0.000    0.000    0.000 
#
# Total GULP energy -167426.113664 kJ/mol
# GULP energy per Si atom -5580.870455 kJ/mol
# Density = 2.402821 g / cm^3
# Si number density = 24.083025 Si / 1000 Ang^3
#
#
#
# Elastic Constant Matrix: (Units=GPa)
#
#
# Indices 1 2 3 4 5 6 
#
# 1 167.5230 41.4864 13.1002 0.0000 -34.8200 0.0000
# 2 41.4864 68.6729 -13.4869 0.0000 -5.7813 0.0000
# 3 13.1002 -13.4869 91.2567 0.0000 -7.2153 0.0000
# 4 0.0000 0.0000 0.0000 21.5836 0.0000 -4.6128
# 5 -34.8200 -5.7813 -7.2153 0.0000 42.4482 0.0000
# 6 0.0000 0.0000 0.0000 -4.6128 0.0000 39.5830
#
#
#
# Elastic Compliance Matrix: (Units=1/GPa)
#
#
# Indices 1 2 3 4 5 6 
#
# 1 0.008585 -0.004963 -0.001482 0.000000 0.006114 0.000000
# 2 -0.004963 0.018122 0.003308 0.000000 -0.001040 0.000000
# 3 -0.001482 0.003308 0.011757 0.000000 0.001233 0.000000
# 4 0.000000 0.000000 0.000000 0.047515 0.000000 0.005537
# 5 0.006114 -0.001040 0.001233 0.000000 0.028642 0.000000
# 6 0.000000 0.000000 0.000000 0.005537 0.000000 0.025909
#
#
# Mechanical properties :
#
#
# Convention : Reuss Voigt Hill
#
# Bulk Modulus (GPa) = 31.06463 45.51689 38.29076
# Shear Modulus (GPa) = 31.73921 39.81314 35.77618
#
# Velocity S-wave (km/s) = 3.63424 4.07032 3.85845
# Velocity P-wave (km/s) = 5.52605 6.40555 5.98198
#
# Compressibility (1/GPa) = 0.03219095
#
# Stress axis : x y z
#
# Youngs Moduli (GPa) = 116.47961 55.18131 85.05309
#
# Poissons Ratio (x) = 0.27386 0.12609
# Poissons Ratio (y) = 0.57807 -0.28139
# Poissons Ratio (z) = 0.17268 -0.18256
#
# Static dielectric constant tensor:
#      x y z
#    x 2.010070 0.000000 -0.000920 
#    y 0.000000 1.890090 0.000000 
#    z -0.000920 0.000000 1.913080 
# 
# From -- ./inp_files/264661.got.cif
#   From: 2010.05.17/outbox.cif.g08.bks.cpg/sg15_133_cif.got.tgz:264661.got - 2010.06.03 18:47:42.
