data_PCOD9286642
_publ_section_title
;
Structure prediction by ZEFSAII (Michael W. Deem and Ramdas Pophale) SiO2 
 PCOD9286642
Probable space group: C 2/C
;
_chemical_formula_sum "Si O2"
_cell_formula_units_Z 40
_cell_length_a 12.262235
_cell_length_b 8.269383
_cell_length_c 18.627452
_cell_angle_alpha 90.000000
_cell_angle_beta 69.876668
_cell_angle_gamma 90.000000
_cell_volume 1773.538486
_symmetry_space_group_name_H-M "C 2/C"
_symmetry_group_IT_number 15
_symmetry_cell_setting 'monoclinic'
loop_
_space_group_symop_operation_xyz
x,y,z
-x,y,1/2-z
-x,-y,-z
x,-y,1/2+z
1/2+x,1/2+y,z
1/2-x,1/2+y,1/2-z
1/2-x,1/2-y,-z
1/2+x,1/2-y,1/2+z
loop_
_atom_site_type_symbol
_atom_site_label
_atom_site_fract_x
_atom_site_fract_y
_atom_site_fract_z
Si Si1 0.670967 0.757993 0.214504
Si Si2 0.377290 0.726275 0.062986
Si Si3 0.394211 0.542318 0.677571
Si Si4 0.386075 0.733456 0.890649
Si Si5 0.483070 0.906213 0.359633
O O1 0.649197 0.583706 0.253033
O O2 0.802797 0.813439 0.188539
O O3 0.593601 0.878617 0.282231
O O4 0.614564 0.783823 0.149211
O O5 0.395391 0.562850 0.104075
O O6 0.244858 0.783134 0.107705
O O7 0.469955 0.852466 0.073732
O O8 0.386275 0.704086 0.976243
O O9 0.520116 0.614017 0.663441
O O10 0.429858 0.916503 0.868766
#
# Coordination Sequence:
#
# PCOD9286642 Si02
#       5
#     8   8   8   8   8
#     4  10  22  42  65  94 136 168 223 267 327 395
#     4  10  23  43  66 100 129 170 225 261 326 397
#     4  11  22  44  66  96 131 176 216 272 324 387
#     4  11  22  43  71  91 134 176 213 271 326 386
#     4  10  21  44  63  95 134 164 215 276 320 389
#
# _framework density 22.553781000000001
#
# number of rings (size 3 to 8) (size 9 to 14) (size 15 to 20)
#    0.000    1.600    2.000    2.400    0.000    0.000 
#   39.600    1.000    0.000    0.000    0.000    0.000 
#    0.000    0.000    0.000    0.000    0.000    0.000 
#
# Total GULP energy -111954.311997 kJ/mol
# GULP energy per Si atom -5597.715600 kJ/mol
# Density = 2.250245 g / cm^3
# Si number density = 22.553781 Si / 1000 Ang^3
#
#
#
# Elastic Constant Matrix: (Units=GPa)
#
#
# Indices 1 2 3 4 5 6 
#
# 1 122.9029 60.6368 37.2481 0.0000 1.4725 0.0000
# 2 60.6368 86.3820 20.9625 0.0000 5.2257 0.0000
# 3 37.2481 20.9625 46.7638 0.0000 10.4821 0.0000
# 4 0.0000 0.0000 0.0000 26.9110 0.0000 5.0831
# 5 1.4725 5.2257 10.4821 0.0000 32.3945 0.0000
# 6 0.0000 0.0000 0.0000 5.0831 0.0000 11.8972
#
#
#
# Elastic Compliance Matrix: (Units=1/GPa)
#
#
# Indices 1 2 3 4 5 6 
#
# 1 0.015051 -0.008615 -0.008933 0.000000 0.003596 0.000000
# 2 -0.008615 0.017922 -0.000659 0.000000 -0.002286 0.000000
# 3 -0.008933 -0.000659 0.030923 0.000000 -0.009493 0.000000
# 4 0.000000 0.000000 0.000000 0.040422 0.000000 -0.017270
# 5 0.003596 -0.002286 -0.009493 0.000000 0.034147 0.000000
# 6 0.000000 0.000000 0.000000 -0.017270 0.000000 0.091433
#
#
# Mechanical properties :
#
#
# Convention : Reuss Voigt Hill
#
# Bulk Modulus (GPa) = 36.38785 54.86039 45.62412
# Shear Modulus (GPa) = 18.15069 23.38728 20.76899
#
# Velocity S-wave (km/s) = 2.83993 3.22367 3.03787
# Velocity P-wave (km/s) = 5.18868 6.18330 5.70770
#
# Compressibility (1/GPa) = 0.02748170
#
# Stress axis : x y z
#
# Youngs Moduli (GPa) = 66.44038 55.79649 32.33882
#
# Poissons Ratio (x) = 0.48069 0.28887
# Poissons Ratio (y) = 0.57239 0.02132
# Poissons Ratio (z) = 0.59349 0.03679
#
# Static dielectric constant tensor:
#      x y z
#    x 1.823480 0.000000 0.028130 
#    y 0.000000 1.813670 0.000000 
#    z 0.028130 0.000000 1.864470 
# 
# From -- ./inp_files/235712.got.cif
#   From: 2010.05.17/outbox.cif.g08.bks.cpg/sg15_118_cif.got.tgz:235712.got - 2010.06.03 18:47:42.
