data_PCOD9286372
_publ_section_title
;
Structure prediction by ZEFSAII (Michael W. Deem and Ramdas Pophale) SiO2 
 PCOD9286372
Probable space group: C 2/C
;
_chemical_formula_sum "Si O2"
_cell_formula_units_Z 40
_cell_length_a 23.575143
_cell_length_b 5.216611
_cell_length_c 17.934992
_cell_angle_alpha 90.000000
_cell_angle_beta 124.739896
_cell_angle_gamma 90.000000
_cell_volume 1812.518038
_symmetry_space_group_name_H-M "C 2/C"
_symmetry_group_IT_number 15
_symmetry_cell_setting 'monoclinic'
loop_
_space_group_symop_operation_xyz
x,y,z
-x,y,1/2-z
-x,-y,-z
x,-y,1/2+z
1/2+x,1/2+y,z
1/2-x,1/2+y,1/2-z
1/2-x,1/2-y,-z
1/2+x,1/2-y,1/2+z
loop_
_atom_site_type_symbol
_atom_site_label
_atom_site_fract_x
_atom_site_fract_y
_atom_site_fract_z
Si Si1 0.931309 0.924076 0.239185
Si Si2 0.613312 0.901984 0.217384
Si Si3 0.047592 0.748091 0.523698
Si Si4 0.719369 0.932843 0.415093
Si Si5 0.857781 0.806746 0.045918
O O1 0.905970 0.697239 0.276255
O O2 0.000000 0.831260 0.250000
O O3 0.939669 0.194870 0.286589
O O4 0.880846 0.987792 0.131560
O O5 0.608698 0.815401 0.128481
O O6 0.686873 0.850673 0.312443
O O7 0.082925 0.772797 0.469782
O O8 0.000000 0.500000 0.500000
O O9 0.000000 0.000000 0.500000
O O10 0.750000 0.750000 0.500000
O O11 0.785129 0.121428 0.453012
O O12 0.657358 0.061643 0.414666
#
# Coordination Sequence:
#
# PCOD9286372 Si02
#       5
#     8   8   8   8   8
#     4  11  21  38  65  93 126 171 223 264 321 388
#     4  11  23  41  63  95 129 169 217 270 327 389
#     4  12  27  46  65  99 140 175 216 272 339 399
#     4  10  21  43  67  94 129 167 229 270 317 387
#     4  10  23  41  66  96 131 176 216 278 324 384
#
# _framework density 22.068745
#
# number of rings (size 3 to 8) (size 9 to 14) (size 15 to 20)
#    0.000    1.200    2.000    4.200    2.800    1.600 
#    3.600    0.000    0.000    0.000    0.000    0.000 
#    0.000    0.000    0.000    0.000    0.000    0.000 
#
# Total GULP energy -111410.575486 kJ/mol
# GULP energy per Si atom -5570.528774 kJ/mol
# Density = 2.201852 g / cm^3
# Si number density = 22.068745 Si / 1000 Ang^3
#
#
#
# Elastic Constant Matrix: (Units=GPa)
#
#
# Indices 1 2 3 4 5 6 
#
# 1 61.2179 26.0104 2.2074 0.0000 -16.9795 -0.0002
# 2 26.0104 99.9813 16.4643 -0.0009 -3.2283 -0.0008
# 3 2.2074 16.4643 126.7565 -0.0002 11.3982 0.0000
# 4 0.0000 -0.0009 -0.0002 29.7987 0.0003 12.9028
# 5 -16.9795 -3.2283 11.3982 0.0003 35.6001 0.0001
# 6 -0.0002 -0.0008 0.0000 12.9028 0.0001 7.5325
#
#
#
# Elastic Compliance Matrix: (Units=1/GPa)
#
#
# Indices 1 2 3 4 5 6 
#
# 1 0.021268 -0.005117 -0.000593 -0.000001 0.009870 0.000002
# 2 -0.005117 0.011519 -0.001320 0.000000 -0.000973 0.000002
# 3 -0.000593 -0.001320 0.008347 0.000000 -0.003075 -0.000001
# 4 -0.000001 0.000000 0.000000 0.129920 -0.000001 -0.222545
# 5 0.009870 -0.000973 -0.003075 -0.000001 0.033694 0.000002
# 6 0.000002 0.000002 -0.000001 -0.222545 0.000002 0.513963
#
#
# Mechanical properties :
#
#
# Convention : Reuss Voigt Hill
#
# Bulk Modulus (GPa) = 36.93390 41.92442 39.42916
# Shear Modulus (GPa) = 6.74041 30.80451 18.77246
#
# Velocity S-wave (km/s) = 1.74955 3.74015 2.91973
# Velocity P-wave (km/s) = 4.56655 6.13922 5.41034
#
# Compressibility (1/GPa) = 0.02707540
#
# Stress axis : x y z
#
# Youngs Moduli (GPa) = 47.01925 86.81453 119.79783
#
# Poissons Ratio (x) = 0.44419 0.07107
# Poissons Ratio (y) = 0.24057 0.15808
# Poissons Ratio (z) = 0.02790 0.11456
#
# Static dielectric constant tensor:
#      x y z
#    x 1.834520 0.000010 0.195570 
#    y 0.000010 2.557920 -0.000020 
#    z 0.195570 -0.000020 2.351420 
# 
# From -- ./inp_files/170922.got.cif
#   From: 2010.05.17/outbox.cif.g08.bks.cpg/sg15_86_cif.got.tgz:170922.got - 2010.06.03 18:47:42.
