data_PCOD9286030
_publ_section_title
;
Structure prediction by ZEFSAII (Michael W. Deem and Ramdas Pophale) SiO2 
 PCOD9286030
Probable space group: C 2/C
;
_chemical_formula_sum "Si O2"
_cell_formula_units_Z 48
_cell_length_a 11.056173
_cell_length_b 26.947405
_cell_length_c 13.908956
_cell_angle_alpha 90.000000
_cell_angle_beta 150.017046
_cell_angle_gamma 90.000000
_cell_volume 2070.915811
_symmetry_space_group_name_H-M "C 2/C"
_symmetry_group_IT_number 15
_symmetry_cell_setting 'monoclinic'
loop_
_space_group_symop_operation_xyz
x,y,z
-x,y,1/2-z
-x,-y,-z
x,-y,1/2+z
1/2+x,1/2+y,z
1/2-x,1/2+y,1/2-z
1/2-x,1/2-y,-z
1/2+x,1/2-y,1/2+z
loop_
_atom_site_type_symbol
_atom_site_label
_atom_site_fract_x
_atom_site_fract_y
_atom_site_fract_z
Si Si1 0.926428 0.565073 0.587780
Si Si2 0.485802 0.676332 0.467771
Si Si3 0.000627 0.280081 0.543440
Si Si4 0.057591 0.912857 0.134746
Si Si5 0.000000 0.007350 0.750000
Si Si6 0.500000 0.673199 0.750000
Si Si7 0.764034 0.678247 0.474823
O O1 0.735910 0.527309 0.410497
O O2 0.816793 0.620065 0.504193
O O3 0.000000 0.554443 0.750000
O O4 0.173788 0.568351 0.699478
O O5 0.517235 0.720916 0.566030
O O6 0.478034 0.616967 0.483573
O O7 0.712957 0.685966 0.552387
O O8 0.223838 0.690869 0.244987
O O9 0.750557 0.297104 0.418534
O O10 0.042863 0.293487 0.459070
O O11 0.029046 0.865563 0.183061
O O12 0.948787 0.958035 0.121053
O O13 0.500000 0.690424 0.250000
#
# Coordination Sequence:
#
# PCOD9286030 Si02
#       7
#     8   8   8   8   4   4   8
#     4  12  23  45  78 103 138 185 239 307 368 429
#     4  11  24  43  70 106 144 190 245 290 360 424
#     4  11  24  41  71 104 149 197 236 291 350 441
#     4  11  25  47  69 103 141 186 235 302 358 432
#     4  11  28  50  72 104 144 184 242 306 373 432
#     4  11  24  44  68  98 148 198 232 284 361 420
#     4  10  21  42  70 106 144 184 235 302 358 414
#
# _framework density 23.178151
#
# number of rings (size 3 to 8) (size 9 to 14) (size 15 to 20)
#    0.000    1.000    4.167    2.000    0.000    4.000 
#    6.000    0.000    0.000    0.000    0.000    0.000 
#    0.000    0.000    0.000    0.000    0.000    0.000 
#
# Total GULP energy -133890.413875 kJ/mol
# GULP energy per Si atom -5578.767245 kJ/mol
# Density = 2.312540 g / cm^3
# Si number density = 23.178151 Si / 1000 Ang^3
#
#
#
# Elastic Constant Matrix: (Units=GPa)
#
#
# Indices 1 2 3 4 5 6 
#
# 1 101.4997 36.4786 29.6010 0.0001 31.7830 0.0000
# 2 36.4786 153.3379 33.5451 0.0001 14.0780 0.0000
# 3 29.6010 33.5451 83.6672 -0.0004 24.4756 0.0000
# 4 0.0001 0.0001 -0.0004 20.9643 -0.0001 0.9483
# 5 31.7830 14.0780 24.4756 -0.0001 37.5568 0.0000
# 6 0.0000 0.0000 0.0000 0.9483 0.0000 32.8803
#
#
#
# Elastic Compliance Matrix: (Units=1/GPa)
#
#
# Indices 1 2 3 4 5 6 
#
# 1 0.014253 -0.002186 -0.001084 0.000000 -0.010536 0.000000
# 2 -0.002186 0.007515 -0.002417 0.000000 0.000609 0.000000
# 3 -0.001084 -0.002417 0.015780 0.000000 -0.008460 0.000000
# 4 0.000000 0.000000 0.000000 0.047762 0.000000 -0.001378
# 5 -0.010536 0.000609 -0.008460 0.000000 0.040828 0.000000
# 6 0.000000 0.000000 0.000000 -0.001378 0.000000 0.030453
#
#
# Mechanical properties :
#
#
# Convention : Reuss Voigt Hill
#
# Bulk Modulus (GPa) = 38.20865 59.75046 48.97956
# Shear Modulus (GPa) = 28.29805 34.20563 31.25184
#
# Velocity S-wave (km/s) = 3.49792 3.84574 3.67595
# Velocity P-wave (km/s) = 5.73014 6.74940 6.26055
#
# Compressibility (1/GPa) = 0.02617208
#
# Stress axis : x y z
#
# Youngs Moduli (GPa) = 70.15883 133.07378 63.37245
#
# Poissons Ratio (x) = 0.29095 0.06870
# Poissons Ratio (y) = 0.15339 0.15320
# Poissons Ratio (z) = 0.07605 0.32170
#
# Static dielectric constant tensor:
#      x y z
#    x 2.033440 0.000000 -0.200840 
#    y 0.000000 1.825280 0.000000 
#    z -0.200840 0.000000 1.976570 
# 
# From -- ./inp_files/148887.got.cif
#   From: 2010.05.17/outbox.cif.g08.bks.cpg/sg15_75_cif.got.tgz:148887.got - 2010.06.03 18:47:42.
