data_PCOD9286355
_publ_section_title
;
Structure prediction by ZEFSAII (Michael W. Deem and Ramdas Pophale) SiO2 
 PCOD9286355
Probable space group: C 2/C
;
_chemical_formula_sum "Si O2"
_cell_formula_units_Z 32
_cell_length_a 12.680627
_cell_length_b 7.950759
_cell_length_c 12.126960
_cell_angle_alpha 90.000000
_cell_angle_beta 74.247573
_cell_angle_gamma 90.000000
_cell_volume 1176.729425
_symmetry_space_group_name_H-M "C 2/C"
_symmetry_group_IT_number 15
_symmetry_cell_setting 'monoclinic'
loop_
_space_group_symop_operation_xyz
x,y,z
-x,y,1/2-z
-x,-y,-z
x,-y,1/2+z
1/2+x,1/2+y,z
1/2-x,1/2+y,1/2-z
1/2-x,1/2-y,-z
1/2+x,1/2-y,1/2+z
loop_
_atom_site_type_symbol
_atom_site_label
_atom_site_fract_x
_atom_site_fract_y
_atom_site_fract_z
Si Si1 0.074195 0.161594 0.087068
Si Si2 0.391387 0.714575 0.840689
Si Si3 0.394480 0.891500 0.064523
Si Si4 0.784106 0.734942 0.150118
O O1 0.165359 0.265114 0.130782
O O2 0.954469 0.245620 0.119140
O O3 0.077118 0.973862 0.132249
O O4 0.126483 0.164716 0.948869
O O5 0.500000 0.788837 0.750000
O O6 0.298897 0.727117 0.773744
O O7 0.358216 0.812441 0.959197
O O8 0.314810 0.038920 0.127294
O O9 0.500000 0.000000 0.000000
#
# Coordination Sequence:
#
# PCOD9286355 Si02
#       4
#     8   8   8   8
#     4  10  23  43  66  97 130 169 222 274 326 395
#     4  12  23  43  65  96 129 169 219 266 332 395
#     4  10  21  43  67  91 130 172 212 270 331 384
#     4  10  24  46  65  96 135 169 221 273 324 400
#
# _framework density 27.194016000000001
#
# number of rings (size 3 to 8) (size 9 to 14) (size 15 to 20)
#    0.000    1.500    5.000    0.750    0.000    7.000 
#   13.500    0.000    0.000    0.000    0.000    0.000 
#    0.000    0.000    0.000    0.000    0.000    0.000 
#
# Total GULP energy -89704.611317 kJ/mol
# GULP energy per Si atom -5606.538207 kJ/mol
# Density = 2.713212 g / cm^3
# Si number density = 27.194016 Si / 1000 Ang^3
#
#
#
# Elastic Constant Matrix: (Units=GPa)
#
#
# Indices 1 2 3 4 5 6 
#
# 1 126.2692 15.9782 54.4549 0.0000 34.2126 0.0000
# 2 15.9782 122.1704 93.1550 0.0000 2.7357 0.0000
# 3 54.4549 93.1550 147.3626 0.0000 37.7225 0.0000
# 4 0.0000 0.0000 0.0000 49.3225 0.0000 -13.9579
# 5 34.2126 2.7357 37.7225 0.0000 51.5379 0.0000
# 6 0.0000 0.0000 0.0000 -13.9579 0.0000 37.0101
#
#
#
# Elastic Compliance Matrix: (Units=1/GPa)
#
#
# Indices 1 2 3 4 5 6 
#
# 1 0.010521 0.001644 -0.003836 0.000000 -0.004264 0.000000
# 2 0.001644 0.019253 -0.015059 0.000000 0.008909 0.000000
# 3 -0.003836 -0.015059 0.020755 0.000000 -0.011846 0.000000
# 4 0.000000 0.000000 0.000000 0.022697 0.000000 0.008560
# 5 -0.004264 0.008909 -0.011846 0.000000 0.030431 0.000000
# 6 0.000000 0.000000 0.000000 0.008560 0.000000 0.030248
#
#
# Mechanical properties :
#
#
# Convention : Reuss Voigt Hill
#
# Bulk Modulus (GPa) = 62.38856 80.33096 71.35976
# Shear Modulus (GPa) = 28.77698 43.05502 35.91600
#
# Velocity S-wave (km/s) = 3.25654 3.98333 3.63813
# Velocity P-wave (km/s) = 6.09360 7.12460 6.62917
#
# Compressibility (1/GPa) = 0.01602858
#
# Stress axis : x y z
#
# Youngs Moduli (GPa) = 95.04760 51.93922 48.18048
#
# Poissons Ratio (x) = -0.08540 0.18481
# Poissons Ratio (y) = -0.15628 0.72555
# Poissons Ratio (z) = 0.36457 0.78215
#
# Static dielectric constant tensor:
#      x y z
#    x 2.346070 0.000000 -0.016870 
#    y 0.000000 2.074060 0.000000 
#    z -0.016870 0.000000 2.082180 
# 
# From -- ./inp_files/93221.got.cif
#   From: 2010.05.17/outbox.cif.g08.bks.cpg/sg15_47_cif.got.tgz:93221.got - 2010.06.03 18:47:42.
