data_PCOD9286802
_publ_section_title
;
Structure prediction by ZEFSAII (Michael W. Deem and Ramdas Pophale) SiO2 
 PCOD9286802
Probable space group: C 2/C
;
_chemical_formula_sum "Si O2"
_cell_formula_units_Z 48
_cell_length_a 26.290319
_cell_length_b 14.927097
_cell_length_c 9.912145
_cell_angle_alpha 90.000000
_cell_angle_beta 143.873082
_cell_angle_gamma 90.000000
_cell_volume 2293.393483
_symmetry_space_group_name_H-M "C 2/C"
_symmetry_group_IT_number 15
_symmetry_cell_setting 'monoclinic'
loop_
_space_group_symop_operation_xyz
x,y,z
-x,y,1/2-z
-x,-y,-z
x,-y,1/2+z
1/2+x,1/2+y,z
1/2-x,1/2+y,1/2-z
1/2-x,1/2-y,-z
1/2+x,1/2-y,1/2+z
loop_
_atom_site_type_symbol
_atom_site_label
_atom_site_fract_x
_atom_site_fract_y
_atom_site_fract_z
Si Si1 0.674404 0.020748 0.536051
Si Si2 0.115580 0.824713 0.876201
Si Si3 0.565549 0.810332 0.769495
Si Si4 0.585199 0.646006 0.622209
Si Si5 0.205812 0.007746 0.462025
Si Si6 0.447915 0.139601 0.773105
O O1 0.637751 0.120837 0.476372
O O2 0.733467 0.011719 0.532824
O O3 0.594252 0.954784 0.345789
O O4 0.734211 0.985592 0.783307
O O5 0.176830 0.890300 0.924617
O O6 0.121037 0.719515 0.854845
O O7 0.017514 0.851933 0.624502
O O8 0.125625 0.839081 0.059250
O O9 0.500000 0.785037 0.750000
O O10 0.602663 0.725332 0.767208
O O11 0.509754 0.860908 0.534446
O O12 0.622540 0.555081 0.764543
O O13 0.500000 0.167149 0.750000
#
# Coordination Sequence:
#
# PCOD9286802 Si02
#       6
#     8   8   8   8   8   8
#     4  12  26  39  64  99 136 169 209 264 332 390
#     4  10  21  44  69  94 122 170 226 268 311 383
#     4  11  23  43  67  97 127 167 225 270 309 380
#     4  10  22  44  69  92 126 171 222 266 318 377
#     4  12  25  41  62  99 136 170 206 265 333 387
#     4  11  21  43  70  90 124 176 220 267 318 371
#
# _framework density 20.929684999999999
#
# number of rings (size 3 to 8) (size 9 to 14) (size 15 to 20)
#    0.000    1.000    5.000    3.500    0.000    5.333 
#    3.000    0.000    0.000    0.000    0.000    0.000 
#    0.000    0.000    0.000    0.000    0.000    0.000 
#
# Total GULP energy -134091.310423 kJ/mol
# GULP energy per Si atom -5587.137934 kJ/mol
# Density = 2.088205 g / cm^3
# Si number density = 20.929685 Si / 1000 Ang^3
#
#
#
# Elastic Constant Matrix: (Units=GPa)
#
#
# Indices 1 2 3 4 5 6 
#
# 1 71.5151 21.7519 7.1127 0.0000 -11.6201 0.0000
# 2 21.7519 101.2914 5.4283 0.0000 1.6211 0.0000
# 3 7.1127 5.4283 72.3624 0.0000 -27.3488 0.0000
# 4 0.0000 0.0000 0.0000 18.0878 0.0000 -15.4800
# 5 -11.6201 1.6211 -27.3488 0.0000 25.2245 0.0000
# 6 0.0000 0.0000 0.0000 -15.4800 0.0000 10.8447
#
#
#
# Elastic Compliance Matrix: (Units=1/GPa)
#
#
# Indices 1 2 3 4 5 6 
#
# 1 0.016675 -0.003906 0.002799 0.000000 0.010967 0.000000
# 2 -0.003906 0.010917 -0.002339 0.000000 -0.005037 0.000000
# 3 0.002799 -0.002339 0.024166 0.000000 0.027641 0.000000
# 4 0.000000 0.000000 0.000000 -0.249455 0.000000 -0.356078
# 5 0.010967 -0.005037 0.027641 0.000000 0.074989 0.000000
# 6 0.000000 0.000000 0.000000 -0.356078 0.000000 -0.416064
#
#
# Mechanical properties :
#
#
# Convention : Reuss Voigt Hill
#
# Bulk Modulus (GPa) = 22.28819 34.86163 28.57491
# Shear Modulus (GPa) = -9.67262 24.88980 7.60859
#
# Velocity S-wave (km/s) = -2.15210 3.45223 1.90872
# Velocity P-wave (km/s) = 2.12058 5.70818 4.30582
#
# Compressibility (1/GPa) = 0.04486681
#
# Stress axis : x y z
#
# Youngs Moduli (GPa) = 59.97055 91.59760 41.37968
#
# Poissons Ratio (x) = 0.35782 -0.11582
# Poissons Ratio (y) = 0.23427 0.09677
# Poissons Ratio (z) = -0.16786 0.21421
#
# Static dielectric constant tensor:
#      x y z
#    x 1.749140 0.000000 0.020910 
#    y 0.000000 1.764880 0.000000 
#    z 0.020910 0.000000 1.742150 
# 
# From -- ./inp_files/66502.got.cif
#   From: 2010.05.17/outbox.cif.g08.bks.cpg/sg15_34_cif.got.tgz:66502.got - 2010.06.03 18:47:42.
