data_PCOD9286067
_publ_section_title
;
Structure prediction by ZEFSAII (Michael W. Deem and Ramdas Pophale) SiO2 
 PCOD9286067
Probable space group: C 2/C
;
_chemical_formula_sum "Si O2"
_cell_formula_units_Z 28
_cell_length_a 15.034690
_cell_length_b 14.181951
_cell_length_c 9.048825
_cell_angle_alpha 90.000000
_cell_angle_beta 146.106167
_cell_angle_gamma 90.000000
_cell_volume 1075.941963
_symmetry_space_group_name_H-M "C 2/C"
_symmetry_group_IT_number 15
_symmetry_cell_setting 'monoclinic'
loop_
_space_group_symop_operation_xyz
x,y,z
-x,y,1/2-z
-x,-y,-z
x,-y,1/2+z
1/2+x,1/2+y,z
1/2-x,1/2+y,1/2-z
1/2-x,1/2-y,-z
1/2+x,1/2-y,1/2+z
loop_
_atom_site_type_symbol
_atom_site_label
_atom_site_fract_x
_atom_site_fract_y
_atom_site_fract_z
Si Si1 0.500000 0.496696 0.750000
Si Si2 0.557492 0.135851 0.175754
Si Si3 0.736327 0.846302 0.383982
Si Si4 0.889613 0.846679 0.268610
O O1 0.355833 0.428157 0.597658
O O2 0.490506 0.569093 0.599490
O O3 0.500000 0.090659 0.250000
O O4 0.747303 0.135497 0.453382
O O5 0.522823 0.248305 0.131341
O O6 0.442657 0.110696 0.881246
O O7 0.750000 0.750000 0.500000
O O8 0.804670 0.835424 0.310115
#
# Coordination Sequence:
#
# PCOD9286067 Si02
#       4
#     4   8   8   8
#     4  12  24  42  72 110 138 178 242 298 332 410
#     4   9  19  40  69  95 137 190 231 273 355 422
#     4  11  24  41  65 102 146 186 225 290 357 413
#     4  10  21  42  71 101 134 187 237 287 340 421
#
# _framework density 26.023710000000001
#
# number of rings (size 3 to 8) (size 9 to 14) (size 15 to 20)
#    0.000    1.714    1.429    2.571    0.000    1.143 
#    0.000    0.000    9.429    0.000    0.000    0.000 
#    0.000    0.000    0.000    0.000    0.000    0.000 
#
# Total GULP energy -78001.447358 kJ/mol
# GULP energy per Si atom -5571.531954 kJ/mol
# Density = 2.596448 g / cm^3
# Si number density = 26.023710 Si / 1000 Ang^3
#
#
#
# Elastic Constant Matrix: (Units=GPa)
#
#
# Indices 1 2 3 4 5 6 
#
# 1 117.9395 56.7738 39.4887 0.0000 -13.2842 0.0000
# 2 56.7738 120.4874 15.8196 0.0000 -7.1415 0.0000
# 3 39.4887 15.8196 134.0695 0.0000 -13.4546 0.0000
# 4 0.0000 0.0000 0.0000 19.6336 0.0000 3.0462
# 5 -13.2842 -7.1415 -13.4546 0.0000 21.8422 0.0000
# 6 0.0000 0.0000 0.0000 3.0462 0.0000 54.2666
#
#
#
# Elastic Compliance Matrix: (Units=1/GPa)
#
#
# Indices 1 2 3 4 5 6 
#
# 1 0.012335 -0.005223 -0.002596 0.000000 0.004195 0.000000
# 2 -0.005223 0.010750 0.000324 0.000000 0.000538 0.000000
# 3 -0.002596 0.000324 0.008567 0.000000 0.003804 0.000000
# 4 0.000000 0.000000 0.000000 0.051381 0.000000 -0.002884
# 5 0.004195 0.000538 0.003804 0.000000 0.050854 0.000000
# 6 0.000000 0.000000 0.000000 -0.002884 0.000000 0.018589
#
#
# Mechanical properties :
#
#
# Convention : Reuss Voigt Hill
#
# Bulk Modulus (GPa) = 60.01569 66.29562 63.15565
# Shear Modulus (GPa) = 28.89863 36.50942 32.70403
#
# Velocity S-wave (km/s) = 3.33599 3.74963 3.54884
# Velocity P-wave (km/s) = 6.16039 6.65408 6.41199
#
# Compressibility (1/GPa) = 0.01666231
#
# Stress axis : x y z
#
# Youngs Moduli (GPa) = 81.07240 93.02414 116.72765
#
# Poissons Ratio (x) = 0.48583 0.30300
# Poissons Ratio (y) = 0.42341 -0.03780
# Poissons Ratio (z) = 0.21045 -0.03012
#
# Static dielectric constant tensor:
#      x y z
#    x 2.114610 0.000000 -0.043540 
#    y 0.000000 2.037910 0.000000 
#    z -0.043540 0.000000 2.206630 
# 
# From -- ./inp_files/111319.got.cif
#   From: 2010.05.17/outbox.cif.g08.bks.cpg/sg15_56_cif.got.tgz:111319.got - 2010.06.03 18:47:42.
