data_PCOD9286407
_publ_section_title
;
Structure prediction by ZEFSAII (Michael W. Deem and Ramdas Pophale) SiO2 
 PCOD9286407
Probable space group: C 2/C
;
_chemical_formula_sum "Si O2"
_cell_formula_units_Z 48
_cell_length_a 17.153779
_cell_length_b 4.959010
_cell_length_c 25.288825
_cell_angle_alpha 90.000000
_cell_angle_beta 96.702652
_cell_angle_gamma 90.000000
_cell_volume 2136.510151
_symmetry_space_group_name_H-M "C 2/C"
_symmetry_group_IT_number 15
_symmetry_cell_setting 'monoclinic'
loop_
_space_group_symop_operation_xyz
x,y,z
-x,y,1/2-z
-x,-y,-z
x,-y,1/2+z
1/2+x,1/2+y,z
1/2-x,1/2+y,1/2-z
1/2-x,1/2-y,-z
1/2+x,1/2-y,1/2+z
loop_
_atom_site_type_symbol
_atom_site_label
_atom_site_fract_x
_atom_site_fract_y
_atom_site_fract_z
Si Si1 0.361329 0.026897 0.157126
Si Si2 0.599917 0.772717 0.163520
Si Si3 0.783413 0.184265 0.413477
Si Si4 0.821227 0.949286 0.518704
Si Si5 0.087030 0.785586 0.234254
Si Si6 0.561475 0.545787 0.383903
O O1 0.275755 0.995689 0.124141
O O2 0.361420 0.160458 0.214565
O O3 0.414930 0.237694 0.127059
O O4 0.399787 0.734091 0.158273
O O5 0.667197 0.837120 0.126598
O O6 0.622598 0.547513 0.208929
O O7 0.528891 0.624047 0.127088
O O8 0.575925 0.044052 0.191370
O O9 0.722746 0.348887 0.444790
O O10 0.840814 0.061263 0.462263
O O11 0.750000 0.750000 0.500000
O O12 0.896830 0.863121 0.558094
O O13 0.000000 0.852400 0.250000
#
# Coordination Sequence:
#
# PCOD9286407 Si02
#       6
#     8   8   8   8   8   8
#     4  11  22  40  65  89 126 172 209 242 321 380
#     4  12  25  40  65  99 128 157 218 268 301 367
#     4  10  25  41  63  97 126 163 212 268 308 372
#     4  10  21  43  68  85 129 172 206 250 331 379
#     4  12  23  41  66  92 129 171 206 255 320 375
#     4  11  21  39  66  93 120 171 208 253 309 383
#
# _framework density 22.466546000000001
#
# number of rings (size 3 to 8) (size 9 to 14) (size 15 to 20)
#    0.000    1.000    5.000    1.500    2.333    2.000 
#    0.000    0.833    0.000    0.000    0.000    0.000 
#    0.000    0.000    0.000    0.000    0.000    0.000 
#
# Total GULP energy -133965.620281 kJ/mol
# GULP energy per Si atom -5581.900845 kJ/mol
# Density = 2.241541 g / cm^3
# Si number density = 22.466546 Si / 1000 Ang^3
#
#
#
# Elastic Constant Matrix: (Units=GPa)
#
#
# Indices 1 2 3 4 5 6 
#
# 1 38.3152 -8.9247 32.9016 0.0000 1.5611 0.0000
# 2 -8.9247 69.3457 10.2156 0.0000 -2.6261 0.0000
# 3 32.9016 10.2156 117.5916 0.0000 10.6409 0.0000
# 4 0.0000 0.0000 0.0000 21.7685 0.0000 10.2573
# 5 1.5611 -2.6261 10.6409 0.0000 35.0661 0.0000
# 6 0.0000 0.0000 0.0000 10.2573 0.0000 17.1109
#
#
#
# Elastic Compliance Matrix: (Units=1/GPa)
#
#
# Indices 1 2 3 4 5 6 
#
# 1 0.037092 0.006499 -0.011143 0.000000 0.002217 0.000000
# 2 0.006499 0.015826 -0.003367 0.000000 0.001918 0.000000
# 3 -0.011143 -0.003367 0.012228 0.000000 -0.003467 0.000000
# 4 0.000000 0.000000 0.000000 0.064022 0.000000 -0.038379
# 5 0.002217 0.001918 -0.003467 0.000000 0.029614 0.000000
# 6 0.000000 0.000000 0.000000 -0.038379 0.000000 0.081449
#
#
# Mechanical properties :
#
#
# Convention : Reuss Voigt Hill
#
# Bulk Modulus (GPa) = 20.35689 32.62639 26.49164
# Shear Modulus (GPa) = 18.34012 27.52646 22.93329
#
# Velocity S-wave (km/s) = 2.86025 3.50411 3.19842
# Velocity P-wave (km/s) = 4.47087 5.56107 5.04550
#
# Compressibility (1/GPa) = 0.04912341
#
# Stress axis : x y z
#
# Youngs Moduli (GPa) = 26.96023 63.18909 81.77924
#
# Poissons Ratio (x) = -0.41068 0.91129
# Poissons Ratio (y) = -0.17522 0.27533
# Poissons Ratio (z) = 0.30043 0.21274
#
# Static dielectric constant tensor:
#      x y z
#    x 1.853320 0.000000 0.045920 
#    y 0.000000 1.878760 0.000000 
#    z 0.045920 0.000000 1.921570 
# 
# From -- ./inp_files/275673.got.cif
#   From: 2010.05.17/outbox.cif.g08.bks.cpg/sg15_138_cif.got.tgz:275673.got - 2010.06.03 18:47:42.
