data_PCOD9286953
_publ_section_title
;
Structure prediction by ZEFSAII (Michael W. Deem and Ramdas Pophale) SiO2 
 PCOD9286953
Probable space group: C 2/C
;
_chemical_formula_sum "Si O2"
_cell_formula_units_Z 56
_cell_length_a 31.877394
_cell_length_b 5.216396
_cell_length_c 14.823707
_cell_angle_alpha 90.000000
_cell_angle_beta 67.338743
_cell_angle_gamma 90.000000
_cell_volume 2274.663814
_symmetry_space_group_name_H-M "C 2/C"
_symmetry_group_IT_number 15
_symmetry_cell_setting 'monoclinic'
loop_
_space_group_symop_operation_xyz
x,y,z
-x,y,1/2-z
-x,-y,-z
x,-y,1/2+z
1/2+x,1/2+y,z
1/2-x,1/2+y,1/2-z
1/2-x,1/2-y,-z
1/2+x,1/2-y,1/2+z
loop_
_atom_site_type_symbol
_atom_site_label
_atom_site_fract_x
_atom_site_fract_y
_atom_site_fract_z
Si Si1 0.613355 0.497623 0.088182
Si Si2 0.748747 0.062401 0.813153
Si Si3 0.199110 0.681095 0.510689
Si Si4 0.944265 0.790097 0.710110
Si Si5 0.835639 0.333037 0.812022
Si Si6 0.086251 0.699934 0.365375
Si Si7 0.033926 0.081969 0.052316
O O1 0.660113 0.619230 0.011696
O O2 0.583422 0.694371 0.173877
O O3 0.629871 0.289452 0.145276
O O4 0.574675 0.399036 0.051887
O O5 0.741858 0.300483 0.750073
O O6 0.793095 0.150072 0.831686
O O7 0.709012 0.012497 0.919389
O O8 0.250000 0.750000 0.500000
O O9 0.180082 0.579128 0.621379
O O10 0.940107 0.507891 0.672276
O O11 0.997400 0.857315 0.659038
O O12 0.920431 0.009441 0.666525
O O13 0.861496 0.370779 0.696522
O O14 0.064616 0.695241 0.482008
O O15 0.000000 0.000000 0.000000
#
# Coordination Sequence:
#
# PCOD9286953 Si02
#       7
#     8   8   8   8   8   8   8
#     4  11  24  45  73 107 141 203 248 303 370 457
#     4  12  29  46  75 109 150 196 246 319 382 438
#     4  12  25  49  76 106 152 202 258 305 382 461
#     4  10  21  45  68 100 142 188 240 295 363 438
#     4  11  25  47  74 105 150 196 254 304 371 461
#     4  10  22  42  70 102 141 183 235 303 365 424
#     4  10  23  45  72 107 150 190 244 312 377 441
#
# _framework density 24.619022000000001
#
# number of rings (size 3 to 8) (size 9 to 14) (size 15 to 20)
#    0.000    1.143    2.857    2.143    4.000    0.000 
#   10.286    2.857    0.000    0.000    0.000    0.000 
#    0.000    0.000    0.000    0.000    0.000    0.000 
#
# Total GULP energy -156185.470184 kJ/mol
# GULP energy per Si atom -5578.052507 kJ/mol
# Density = 2.456299 g / cm^3
# Si number density = 24.619022 Si / 1000 Ang^3
#
#
#
# Elastic Constant Matrix: (Units=GPa)
#
#
# Indices 1 2 3 4 5 6 
#
# 1 134.5025 0.4359 15.9023 0.0000 -8.5868 0.0000
# 2 0.4359 41.2447 4.8036 0.0000 7.2207 0.0000
# 3 15.9023 4.8036 96.2002 0.0000 -23.2970 0.0000
# 4 0.0000 0.0000 0.0000 5.4568 0.0000 12.4296
# 5 -8.5868 7.2207 -23.2970 0.0000 49.7184 0.0000
# 6 0.0000 0.0000 0.0000 12.4296 0.0000 8.7862
#
#
#
# Elastic Compliance Matrix: (Units=1/GPa)
#
#
# Indices 1 2 3 4 5 6 
#
# 1 0.007613 -0.000105 -0.001050 0.000000 0.000838 0.000000
# 2 -0.000105 0.025376 -0.002421 0.000000 -0.004838 0.000000
# 3 -0.001050 -0.002421 0.012104 0.000000 0.005842 0.000000
# 4 0.000000 0.000000 0.000000 -0.082460 0.000000 0.116654
# 5 0.000838 -0.004838 0.005842 0.000000 0.023698 0.000000
# 6 0.000000 0.000000 0.000000 0.116654 0.000000 -0.051213
#
#
# Mechanical properties :
#
#
# Convention : Reuss Voigt Hill
#
# Bulk Modulus (GPa) = 26.35762 34.91458 30.63610
# Shear Modulus (GPa) = -110.90994 29.51264 -40.69865
#
# Velocity S-wave (km/s) = -6.71925 3.46609 -4.07029
# Velocity P-wave (km/s) = 7.03337 5.49828 3.10139
#
# Compressibility (1/GPa) = 0.03793969
#
# Stress axis : x y z
#
# Youngs Moduli (GPa) = 131.35750 39.40788 82.61518
#
# Poissons Ratio (x) = 0.00413 0.08677
# Poissons Ratio (y) = 0.01377 0.20005
# Poissons Ratio (z) = 0.13796 0.09542
#
# Static dielectric constant tensor:
#      x y z
#    x 1.978920 0.000000 0.035720 
#    y 0.000000 2.004620 0.000000 
#    z 0.035720 0.000000 2.088920 
# 
# From -- ./inp_files/223833.got.cif
#   From: 2010.05.17/outbox.cif.g08.bks.cpg/sg15_112_cif.got.tgz:223833.got - 2010.06.03 18:47:42.
