data_PCOD9286316
_publ_section_title
;
Structure prediction by ZEFSAII (Michael W. Deem and Ramdas Pophale) SiO2 
 PCOD9286316
Probable space group: C 2/C
;
_chemical_formula_sum "Si O2"
_cell_formula_units_Z 40
_cell_length_a 12.683479
_cell_length_b 13.608405
_cell_length_c 11.155687
_cell_angle_alpha 90.000000
_cell_angle_beta 94.408189
_cell_angle_gamma 90.000000
_cell_volume 1919.796947
_symmetry_space_group_name_H-M "C 2/C"
_symmetry_group_IT_number 15
_symmetry_cell_setting 'monoclinic'
loop_
_space_group_symop_operation_xyz
x,y,z
-x,y,1/2-z
-x,-y,-z
x,-y,1/2+z
1/2+x,1/2+y,z
1/2-x,1/2+y,1/2-z
1/2-x,1/2-y,-z
1/2+x,1/2-y,1/2+z
loop_
_atom_site_type_symbol
_atom_site_label
_atom_site_fract_x
_atom_site_fract_y
_atom_site_fract_z
Si Si1 0.736390 0.331421 0.394285
Si Si2 0.742024 0.861688 0.541889
Si Si3 0.384713 0.032037 0.029248
Si Si4 0.934062 0.002558 0.118350
Si Si5 0.116740 0.684240 0.252524
O O1 0.750000 0.250000 0.500000
O O2 0.834951 0.403259 0.416540
O O3 0.636734 0.404089 0.395343
O O4 0.708651 0.264574 0.279187
O O5 0.750000 0.750000 0.500000
O O6 0.851719 0.905807 0.602223
O O7 0.649194 0.864900 0.632498
O O8 0.695881 0.943056 0.446605
O O9 0.385527 0.103609 0.143469
O O10 0.500000 0.000000 0.000000
O O11 0.000000 0.005912 0.250000
O O12 0.000000 0.000000 0.000000
O O13 0.000000 0.730574 0.250000
#
# Coordination Sequence:
#
# PCOD9286316 Si02
#       5
#     8   8   8   8   8
#     4   9  22  39  70  95 130 174 228 271 343 409
#     4  11  27  43  65  99 137 174 235 286 340 418
#     4  10  21  43  66  95 130 172 222 278 345 412
#     4  11  27  46  70  99 140 182 229 287 354 413
#     4  11  22  41  70  95 132 176 226 280 350 408
#
# _framework density 20.835536000000001
#
# number of rings (size 3 to 8) (size 9 to 14) (size 15 to 20)
#    0.000    1.600    2.000    0.600   14.000    1.600 
#    0.000    0.000    0.000    0.000    0.000    0.000 
#    0.000    0.000    0.000    0.000    0.000    0.000 
#
# Total GULP energy -111458.245434 kJ/mol
# GULP energy per Si atom -5572.912272 kJ/mol
# Density = 2.078811 g / cm^3
# Si number density = 20.835536 Si / 1000 Ang^3
#
#
#
# Elastic Constant Matrix: (Units=GPa)
#
#
# Indices 1 2 3 4 5 6 
#
# 1 132.8412 59.8437 52.8872 0.0000 19.0826 0.0000
# 2 59.8437 147.7439 33.0647 0.0000 26.7560 0.0000
# 3 52.8872 33.0647 84.4482 0.0000 8.4336 0.0000
# 4 0.0000 0.0000 0.0000 26.9397 0.0000 17.9326
# 5 19.0826 26.7560 8.4336 0.0000 34.7545 0.0000
# 6 0.0000 0.0000 0.0000 17.9326 0.0000 39.6084
#
#
#
# Elastic Compliance Matrix: (Units=1/GPa)
#
#
# Indices 1 2 3 4 5 6 
#
# 1 0.011532 -0.002878 -0.005825 0.000000 -0.002703 0.000000
# 2 -0.002878 0.009152 -0.001266 0.000000 -0.005158 0.000000
# 3 -0.005825 -0.001266 0.015955 0.000000 0.000301 0.000000
# 4 0.000000 0.000000 0.000000 0.053133 0.000000 -0.024056
# 5 -0.002703 -0.005158 0.000301 0.000000 0.034155 0.000000
# 6 0.000000 0.000000 0.000000 -0.024056 0.000000 0.036138
#
#
# Mechanical properties :
#
#
# Convention : Reuss Voigt Hill
#
# Bulk Modulus (GPa) = 59.87731 72.95828 66.41779
# Shear Modulus (GPa) = 26.94416 34.87636 30.91026
#
# Velocity S-wave (km/s) = 3.59999 4.09576 3.85585
# Velocity P-wave (km/s) = 6.78825 7.58019 7.19512
#
# Compressibility (1/GPa) = 0.01670082
#
# Stress axis : x y z
#
# Youngs Moduli (GPa) = 86.71851 109.27151 62.67535
#
# Poissons Ratio (x) = 0.31446 0.36510
# Poissons Ratio (y) = 0.24956 0.07933
# Poissons Ratio (z) = 0.50515 0.13832
#
# Static dielectric constant tensor:
#      x y z
#    x 1.665040 0.000000 -0.050330 
#    y 0.000000 1.839080 0.000000 
#    z -0.050330 0.000000 1.833790 
# 
# From -- ./inp_files/85626.got.cif
#   From: 2010.05.17/outbox.cif.g08.bks.cpg/sg15_43_cif.got.tgz:85626.got - 2010.06.03 18:47:42.
