data_PCOD9286046
_publ_section_title
;
Structure prediction by ZEFSAII (Michael W. Deem and Ramdas Pophale) SiO2 
 PCOD9286046
Probable space group: C 2/C
;
_chemical_formula_sum "Si O2"
_cell_formula_units_Z 40
_cell_length_a 16.969338
_cell_length_b 24.911779
_cell_length_c 9.283854
_cell_angle_alpha 90.000000
_cell_angle_beta 151.222035
_cell_angle_gamma 90.000000
_cell_volume 1889.378761
_symmetry_space_group_name_H-M "C 2/C"
_symmetry_group_IT_number 15
_symmetry_cell_setting 'monoclinic'
loop_
_space_group_symop_operation_xyz
x,y,z
-x,y,1/2-z
-x,-y,-z
x,-y,1/2+z
1/2+x,1/2+y,z
1/2-x,1/2+y,1/2-z
1/2-x,1/2-y,-z
1/2+x,1/2-y,1/2+z
loop_
_atom_site_type_symbol
_atom_site_label
_atom_site_fract_x
_atom_site_fract_y
_atom_site_fract_z
Si Si1 0.500000 0.010904 0.750000
Si Si2 0.000000 0.955134 0.750000
Si Si3 0.222431 0.541796 0.361573
Si Si4 0.744552 0.223798 0.647857
Si Si5 0.090888 0.229090 0.163910
Si Si6 0.909975 0.122394 0.844776
O O1 0.387041 0.045375 0.458692
O O2 0.390770 0.974235 0.682710
O O3 0.962443 0.919534 0.550037
O O4 0.844483 0.992294 0.530995
O O5 0.337615 0.591667 0.591050
O O6 0.750000 0.250000 0.500000
O O7 0.609124 0.241583 0.540919
O O8 0.761173 0.159957 0.662018
O O9 0.926809 0.242076 0.989170
O O10 0.250000 0.250000 0.500000
O O11 0.057570 0.166144 0.071054
#
# Coordination Sequence:
#
# PCOD9286046 Si02
#       6
#     4   4   8   8   8   8
#     4  10  24  46  68 101 151 174 244 300 354 396
#     4  12  22  44  74 105 139 194 230 292 350 448
#     4  11  23  46  73 104 143 189 231 302 350 436
#     4  10  22  42  66  95 137 181 230 296 341 408
#     4  10  21  42  70  95 138 179 239 288 342 414
#     4  10  24  40  74 101 143 185 242 271 375 416
#
# _framework density 21.17098
#
# number of rings (size 3 to 8) (size 9 to 14) (size 15 to 20)
#    1.200    0.400    2.000    3.000    0.000    1.600 
#    3.600    2.000    0.000    0.000    0.000    0.000 
#    0.000    0.000    0.000    0.000    0.000    0.000 
#
# Total GULP energy -111376.144410 kJ/mol
# GULP energy per Si atom -5568.807220 kJ/mol
# Density = 2.112279 g / cm^3
# Si number density = 21.170980 Si / 1000 Ang^3
#
#
#
# Elastic Constant Matrix: (Units=GPa)
#
#
# Indices 1 2 3 4 5 6 
#
# 1 68.8993 27.7627 28.2195 0.0000 -10.4935 0.0000
# 2 27.7627 116.2559 58.9931 0.0000 -4.9498 0.0000
# 3 28.2195 58.9931 159.1711 0.0000 -35.3670 0.0000
# 4 0.0000 0.0000 0.0000 33.7014 0.0000 10.9122
# 5 -10.4935 -4.9498 -35.3670 0.0000 36.1310 0.0000
# 6 0.0000 0.0000 0.0000 10.9122 0.0000 29.9850
#
#
#
# Elastic Compliance Matrix: (Units=1/GPa)
#
#
# Indices 1 2 3 4 5 6 
#
# 1 0.016796 -0.003380 -0.000951 0.000000 0.003484 0.000000
# 2 -0.003380 0.011545 -0.004532 0.000000 -0.003836 0.000000
# 3 -0.000951 -0.004532 0.010136 0.000000 0.009025 0.000000
# 4 0.000000 0.000000 0.000000 0.033636 0.000000 -0.012241
# 5 0.003484 -0.003836 0.009025 0.000000 0.036997 0.000000
# 6 0.000000 0.000000 0.000000 -0.012241 0.000000 0.037805
#
#
# Mechanical properties :
#
#
# Convention : Reuss Voigt Hill
#
# Bulk Modulus (GPa) = 48.18989 63.80852 55.99921
# Shear Modulus (GPa) = 29.14452 35.25356 32.19904
#
# Velocity S-wave (km/s) = 3.71432 4.08509 3.90411
# Velocity P-wave (km/s) = 6.41923 7.24263 6.84333
#
# Compressibility (1/GPa) = 0.02075124
#
# Stress axis : x y z
#
# Youngs Moduli (GPa) = 59.53777 86.61448 98.65708
#
# Poissons Ratio (x) = 0.29277 0.09380
# Poissons Ratio (y) = 0.20125 0.44713
# Poissons Ratio (z) = 0.05661 0.39255
#
# Static dielectric constant tensor:
#      x y z
#    x 1.749020 0.000000 -0.032550 
#    y 0.000000 1.750390 0.000000 
#    z -0.032550 0.000000 1.944640 
# 
# From -- ./inp_files/52264.got.cif
#   From: 2010.05.17/outbox.cif.g08.bks.cpg/sg15_27_cif.got.tgz:52264.got - 2010.06.03 18:47:42.
