data_PCOD9286424
_publ_section_title
;
Structure prediction by ZEFSAII (Michael W. Deem and Ramdas Pophale) SiO2 
 PCOD9286424
Probable space group: C 2/C
;
_chemical_formula_sum "Si O2"
_cell_formula_units_Z 44
_cell_length_a 28.181770
_cell_length_b 10.513759
_cell_length_c 9.446046
_cell_angle_alpha 90.000000
_cell_angle_beta 137.710148
_cell_angle_gamma 90.000000
_cell_volume 1883.280154
_symmetry_space_group_name_H-M "C 2/C"
_symmetry_group_IT_number 15
_symmetry_cell_setting 'monoclinic'
loop_
_space_group_symop_operation_xyz
x,y,z
-x,y,1/2-z
-x,-y,-z
x,-y,1/2+z
1/2+x,1/2+y,z
1/2-x,1/2+y,1/2-z
1/2-x,1/2-y,-z
1/2+x,1/2-y,1/2+z
loop_
_atom_site_type_symbol
_atom_site_label
_atom_site_fract_x
_atom_site_fract_y
_atom_site_fract_z
Si Si1 0.998677 0.269180 0.490788
Si Si2 0.908322 0.681223 0.024053
Si Si3 0.253528 0.254533 0.678497
Si Si4 0.000000 0.452946 0.250000
Si Si5 0.673170 0.503103 0.556911
Si Si6 0.573431 0.540129 0.581403
O O1 0.048965 0.288460 0.738490
O O2 0.975648 0.377964 0.333575
O O3 0.047522 0.183443 0.498948
O O4 0.928674 0.236214 0.428383
O O5 0.935793 0.540075 0.053140
O O6 0.827947 0.691342 0.879955
O O7 0.250000 0.250000 0.500000
O O8 0.266611 0.400144 0.763282
O O9 0.302587 0.348915 0.386849
O O10 0.603495 0.487857 0.501329
O O11 0.640911 0.469913 0.332825
O O12 0.500000 0.500000 0.500000
#
# Coordination Sequence:
#
# PCOD9286424 Si02
#       6
#     8   8   8   4   8   8
#     4  10  22  39  69 102 137 176 244 294 369 429
#     4  10  21  43  68  94 148 186 232 302 360 430
#     4  12  27  50  72 107 152 200 257 306 368 465
#     4  10  22  38  64 116 132 188 240 290 382 434
#     4  12  28  50  76 109 148 207 250 307 388 439
#     4  12  26  46  75 106 143 188 253 318 372 448
#
# _framework density 23.363492999999998
#
# number of rings (size 3 to 8) (size 9 to 14) (size 15 to 20)
#    0.000    1.091    3.636    3.818    5.091    5.091 
#    0.000    0.000    0.000    0.000    0.000    0.000 
#    0.000    0.000    0.000    0.000    0.000    0.000 
#
# Total GULP energy -122468.483230 kJ/mol
# GULP energy per Si atom -5566.749238 kJ/mol
# Density = 2.331032 g / cm^3
# Si number density = 23.363493 Si / 1000 Ang^3
#
#
#
# Elastic Constant Matrix: (Units=GPa)
#
#
# Indices 1 2 3 4 5 6 
#
# 1 78.4745 30.0414 -5.2106 0.0000 -2.1474 0.0000
# 2 30.0414 76.3364 11.0527 0.0000 -4.0129 0.0000
# 3 -5.2106 11.0527 76.5016 0.0000 -9.9126 0.0000
# 4 0.0000 0.0000 0.0000 16.9526 0.0000 2.1489
# 5 -2.1474 -4.0129 -9.9126 0.0000 32.3229 0.0000
# 6 0.0000 0.0000 0.0000 2.1489 0.0000 43.6828
#
#
#
# Elastic Compliance Matrix: (Units=1/GPa)
#
#
# Indices 1 2 3 4 5 6 
#
# 1 0.015306 -0.006277 0.002062 0.000000 0.000870 0.000000
# 2 -0.006277 0.015992 -0.002640 0.000000 0.000759 0.000000
# 3 0.002062 -0.002640 0.014130 0.000000 0.004143 0.000000
# 4 0.000000 0.000000 0.000000 0.059358 0.000000 -0.002920
# 5 0.000870 0.000759 0.004143 0.000000 0.032360 0.000000
# 6 0.000000 0.000000 0.000000 -0.002920 0.000000 0.023036
#
#
# Mechanical properties :
#
#
# Convention : Reuss Voigt Hill
#
# Bulk Modulus (GPa) = 31.52528 33.67550 32.60039
# Shear Modulus (GPa) = 27.10545 31.62027 29.36286
#
# Velocity S-wave (km/s) = 3.40981 3.68286 3.54896
# Velocity P-wave (km/s) = 5.38749 5.70347 5.54773
#
# Compressibility (1/GPa) = 0.03172057
#
# Stress axis : x y z
#
# Youngs Moduli (GPa) = 65.33174 62.53100 70.77035
#
# Poissons Ratio (x) = 0.39248 -0.14593
# Poissons Ratio (y) = 0.41006 0.18681
# Poissons Ratio (z) = -0.13472 0.16506
#
# Static dielectric constant tensor:
#      x y z
#    x 1.794130 0.000000 0.017300 
#    y 0.000000 2.761990 0.000000 
#    z 0.017300 0.000000 1.867040 
# 
# From -- ./inp_files/65638.got.cif
#   From: 2010.05.17/outbox.cif.g08.bks.cpg/sg15_33_cif.got.tgz:65638.got - 2010.06.03 18:47:42.
