data_PCOD9286007
_publ_section_title
;
Structure prediction by ZEFSAII (Michael W. Deem and Ramdas Pophale) SiO2 
 PCOD9286007
Probable space group: C 2/C
;
_chemical_formula_sum "Si O2"
_cell_formula_units_Z 36
_cell_length_a 6.017782
_cell_length_b 20.632093
_cell_length_c 15.426220
_cell_angle_alpha 90.000000
_cell_angle_beta 115.611440
_cell_angle_gamma 90.000000
_cell_volume 1727.124308
_symmetry_space_group_name_H-M "C 2/C"
_symmetry_group_IT_number 15
_symmetry_cell_setting 'monoclinic'
loop_
_space_group_symop_operation_xyz
x,y,z
-x,y,1/2-z
-x,-y,-z
x,-y,1/2+z
1/2+x,1/2+y,z
1/2-x,1/2+y,1/2-z
1/2-x,1/2-y,-z
1/2+x,1/2-y,1/2+z
loop_
_atom_site_type_symbol
_atom_site_label
_atom_site_fract_x
_atom_site_fract_y
_atom_site_fract_z
Si Si1 0.933518 0.441626 0.927001
Si Si2 0.500000 0.745395 0.250000
Si Si3 0.189004 0.825825 0.469928
Si Si4 0.500000 0.914201 0.750000
Si Si5 0.491281 0.356468 0.612934
Si Si6 0.000000 0.808664 0.250000
O O1 0.652577 0.421811 0.892598
O O2 0.973982 0.455287 0.832644
O O3 0.000000 0.500000 0.000000
O O4 0.089354 0.376592 0.975672
O O5 0.611549 0.701162 0.345841
O O6 0.739390 0.777938 0.244003
O O7 0.250000 0.750000 0.500000
O O8 0.991875 0.842471 0.511539
O O9 0.097963 0.837910 0.357141
O O10 0.267409 0.867984 0.693851
#
# Coordination Sequence:
#
# PCOD9286007 Si02
#       6
#     8   4   8   4   8   4
#     4  11  25  45  67 102 137 191 243 297 361 441
#     4  12  22  40  74 100 144 190 242 294 362 442
#     4  11  25  43  69 102 143 184 239 300 368 436
#     4  10  21  42  69  98 129 182 241 294 354 437
#     4  11  22  41  73  98 137 185 243 289 355 443
#     4  12  27  42  65 110 151 184 239 310 380 417
#
# _framework density 20.843897999999999
#
# number of rings (size 3 to 8) (size 9 to 14) (size 15 to 20)
#    0.000    0.889    4.444    2.000    3.111    5.333 
#    8.000    0.000    0.000    0.000    0.000    0.000 
#    0.000    0.000    0.000    0.000    0.000    0.000 
#
# Total GULP energy -100295.434069 kJ/mol
# GULP energy per Si atom -5571.968559 kJ/mol
# Density = 2.079646 g / cm^3
# Si number density = 20.843898 Si / 1000 Ang^3
#
#
#
# Elastic Constant Matrix: (Units=GPa)
#
#
# Indices 1 2 3 4 5 6 
#
# 1 121.0693 33.9940 58.6770 0.0000 -23.8478 0.0000
# 2 33.9940 60.3616 35.7499 0.0000 -2.6828 0.0000
# 3 58.6770 35.7499 178.8116 0.0000 -38.6296 0.0000
# 4 0.0000 0.0000 0.0000 42.2544 0.0000 3.3252
# 5 -23.8478 -2.6828 -38.6296 0.0000 49.5759 0.0000
# 6 0.0000 0.0000 0.0000 3.3252 0.0000 -4.8952
#
#
#
# Elastic Compliance Matrix: (Units=1/GPa)
#
#
# Indices 1 2 3 4 5 6 
#
# 1 0.011341 -0.005095 -0.001905 0.000000 0.003696 0.000000
# 2 -0.005095 0.021301 -0.003448 0.000000 -0.003984 0.000000
# 3 -0.001905 -0.003448 0.008018 0.000000 0.005145 0.000000
# 4 0.000000 0.000000 0.000000 0.022465 0.000000 0.015260
# 5 0.003696 -0.003984 0.005145 0.000000 0.025742 0.000000
# 6 0.000000 0.000000 0.000000 0.015260 0.000000 -0.193915
#
#
# Mechanical properties :
#
#
# Convention : Reuss Voigt Hill
#
# Bulk Modulus (GPa) = 50.59100 68.56494 59.57797
# Shear Modulus (GPa) = -64.46287 32.84180 -15.81053
#
# Velocity S-wave (km/s) = -5.56719 3.97370 -2.75711
# Velocity P-wave (km/s) = 4.12320 7.34980 4.30226
#
# Compressibility (1/GPa) = 0.01976636
#
# Stress axis : x y z
#
# Youngs Moduli (GPa) = 88.17303 46.94637 124.71489
#
# Poissons Ratio (x) = 0.23918 0.23753
# Poissons Ratio (y) = 0.44923 0.42997
# Poissons Ratio (z) = 0.16794 0.16185
#
# Static dielectric constant tensor:
#      x y z
#    x 1.598290 0.000000 -0.379230 
#    y 0.000000 1.740170 0.000000 
#    z -0.379230 0.000000 1.057380 
# 
# From -- ./inp_files/72525.got.cif
#   From: 2010.05.17/outbox.cif.g08.bks.cpg/sg15_37_cif.got.tgz:72525.got - 2010.06.03 18:47:42.
