data_PCOD9286978
_publ_section_title
;
Structure prediction by ZEFSAII (Michael W. Deem and Ramdas Pophale) SiO2 
 PCOD9286978
Probable space group: C 2/C
;
_chemical_formula_sum "Si O2"
_cell_formula_units_Z 64
_cell_length_a 16.710928
_cell_length_b 11.439688
_cell_length_c 24.156664
_cell_angle_alpha 90.000000
_cell_angle_beta 34.170333
_cell_angle_gamma 90.000000
_cell_volume 2593.709756
_symmetry_space_group_name_H-M "C 2/C"
_symmetry_group_IT_number 15
_symmetry_cell_setting 'monoclinic'
loop_
_space_group_symop_operation_xyz
x,y,z
-x,y,1/2-z
-x,-y,-z
x,-y,1/2+z
1/2+x,1/2+y,z
1/2-x,1/2+y,1/2-z
1/2-x,1/2-y,-z
1/2+x,1/2-y,1/2+z
loop_
_atom_site_type_symbol
_atom_site_label
_atom_site_fract_x
_atom_site_fract_y
_atom_site_fract_z
Si Si1 0.659208 0.427469 0.973099
Si Si2 0.199588 0.051188 0.155907
Si Si3 0.360462 0.503337 0.138756
Si Si4 0.335556 0.245977 0.676364
Si Si5 0.523469 0.251071 0.798567
Si Si6 0.407465 0.000714 0.625601
Si Si7 0.822436 0.428542 0.473180
Si Si8 0.843571 0.774255 0.320439
O O1 0.675585 0.497669 0.905413
O O2 0.733748 0.500521 0.978742
O O3 0.732746 0.302913 0.919231
O O4 0.489598 0.418430 0.079703
O O5 0.000000 0.297253 0.250000
O O6 0.069188 0.113978 0.261527
O O7 0.342748 0.066254 0.110702
O O8 0.171738 0.913637 0.164523
O O9 0.419124 0.635047 0.116855
O O10 0.223537 0.501775 0.256136
O O11 0.340198 0.222059 0.739304
O O12 0.412595 0.136489 0.604640
O O13 0.189924 0.254345 0.725026
O O14 0.401428 0.185033 0.903167
O O15 0.271732 0.393495 0.920170
O O16 0.555801 0.983875 0.571380
O O17 0.000000 0.738898 0.250000
#
# Coordination Sequence:
#
# PCOD9286978 Si02
#       8
#     8   8   8   8   8   8   8   8
#     4  10  25  42  69 108 148 187 250 313 364 445
#     4  11  24  48  72 105 153 197 247 307 379 454
#     4  10  21  45  69  98 149 197 237 303 377 442
#     4   9  21  41  67 105 136 189 249 288 369 445
#     4  11  25  44  70 102 148 201 241 300 380 437
#     4  10  22  44  74 101 146 198 244 301 375 439
#     4  11  27  44  72 115 148 186 258 314 372 447
#     4  10  23  44  77 109 144 194 252 308 378 447
#
# _framework density 24.675080999999999
#
# number of rings (size 3 to 8) (size 9 to 14) (size 15 to 20)
#    0.000    1.750    1.250    0.750    8.750    3.000 
#    4.500    6.250    0.000    0.000    0.000    0.000 
#    0.000    0.000    0.000    0.000    0.000    0.000 
#
# Total GULP energy -178567.276739 kJ/mol
# GULP energy per Si atom -5580.227398 kJ/mol
# Density = 2.461892 g / cm^3
# Si number density = 24.675081 Si / 1000 Ang^3
#
#
#
# Elastic Constant Matrix: (Units=GPa)
#
#
# Indices 1 2 3 4 5 6 
#
# 1 214.7624 24.1774 57.1027 0.0000 -12.1250 0.0000
# 2 24.1774 97.8530 33.4971 0.0000 10.8803 0.0000
# 3 57.1027 33.4971 132.2903 -0.0002 2.1586 0.0001
# 4 0.0000 0.0000 -0.0002 22.5807 0.0000 3.7540
# 5 -12.1250 10.8803 2.1586 0.0000 38.1387 0.0000
# 6 0.0000 0.0000 0.0001 3.7540 0.0000 23.5873
#
#
#
# Elastic Compliance Matrix: (Units=1/GPa)
#
#
# Indices 1 2 3 4 5 6 
#
# 1 0.005446 -0.000834 -0.002174 0.000000 0.002093 0.000000
# 2 -0.000834 0.011679 -0.002541 0.000000 -0.003453 0.000000
# 3 -0.002174 -0.002541 0.009149 0.000000 -0.000484 0.000000
# 4 0.000000 0.000000 0.000000 0.045489 0.000000 -0.007240
# 5 0.002093 -0.003453 -0.000484 0.000000 0.027898 0.000000
# 6 0.000000 0.000000 0.000000 -0.007240 0.000000 0.043548
#
#
# Mechanical properties :
#
#
# Convention : Reuss Voigt Hill
#
# Bulk Modulus (GPa) = 65.89103 74.94004 70.41553
# Shear Modulus (GPa) = 31.37433 38.86992 35.12212
#
# Velocity S-wave (km/s) = 3.56968 3.97327 3.77687
# Velocity P-wave (km/s) = 6.61450 7.17537 6.90063
#
# Compressibility (1/GPa) = 0.01517657
#
# Stress axis : x y z
#
# Youngs Moduli (GPa) = 183.60908 85.62170 109.30484
#
# Poissons Ratio (x) = 0.07143 0.23761
# Poissons Ratio (y) = 0.15317 0.27773
# Poissons Ratio (z) = 0.39913 0.21755
#
# Static dielectric constant tensor:
#      x y z
#    x 2.029370 0.000000 -0.039020 
#    y 0.000000 1.984740 0.000000 
#    z -0.039020 0.000000 2.007190 
# 
# From -- ./inp_files/316179.got.cif
#   From: 2010.05.17/outbox.cif.g08.bks.cpg/sg15_159_cif.got.tgz:316179.got - 2010.06.03 18:47:42.
