data_PCOD9286369
_publ_section_title
;
Structure prediction by ZEFSAII (Michael W. Deem and Ramdas Pophale) SiO2 
 PCOD9286369
Probable space group: C 2/C
;
_chemical_formula_sum "Si O2"
_cell_formula_units_Z 40
_cell_length_a 9.108661
_cell_length_b 27.364420
_cell_length_c 15.143582
_cell_angle_alpha 90.000000
_cell_angle_beta 33.842620
_cell_angle_gamma 90.000000
_cell_volume 2102.118632
_symmetry_space_group_name_H-M "C 2/C"
_symmetry_group_IT_number 15
_symmetry_cell_setting 'monoclinic'
loop_
_space_group_symop_operation_xyz
x,y,z
-x,y,1/2-z
-x,-y,-z
x,-y,1/2+z
1/2+x,1/2+y,z
1/2-x,1/2+y,1/2-z
1/2-x,1/2-y,-z
1/2+x,1/2-y,1/2+z
loop_
_atom_site_type_symbol
_atom_site_label
_atom_site_fract_x
_atom_site_fract_y
_atom_site_fract_z
Si Si1 0.301648 0.126623 0.092026
Si Si2 0.280051 0.539800 0.091926
Si Si3 0.700107 0.043259 0.926963
Si Si4 0.250648 0.647188 0.183700
Si Si5 0.220841 0.301822 0.063214
O O1 0.316456 0.153576 0.179329
O O2 0.000000 0.104931 0.250000
O O3 0.543158 0.089292 0.966718
O O4 0.323207 0.160123 0.995228
O O5 0.310408 0.589420 0.133760
O O6 0.000000 0.514987 0.250000
O O7 0.500000 0.500000 0.000000
O O8 0.243028 0.553819 0.008882
O O9 0.000000 0.032909 0.750000
O O10 0.500000 0.000000 0.000000
O O11 0.000000 0.659484 0.250000
O O12 0.502113 0.679807 0.035040
O O13 0.000000 0.301311 0.250000
O O14 0.250000 0.250000 0.000000
#
# Coordination Sequence:
#
# PCOD9286369 Si02
#       5
#     8   8   8   8   8
#     4  10  22  42  65  90 133 171 215 266 327 382
#     4  11  23  40  61  92 132 175 222 266 321 376
#     4  12  25  38  60  93 134 176 225 266 320 381
#     4  10  21  43  67  93 134 172 214 270 322 382
#     4  11  25  45  72 100 128 167 216 267 333 394
#
# _framework density 19.028421999999999
#
# number of rings (size 3 to 8) (size 9 to 14) (size 15 to 20)
#    0.000    1.200    4.000    3.600    8.400    0.800 
#    0.000    5.000    0.000    0.000    0.000    0.000 
#    0.000    0.000    0.000    0.000    0.000    0.000 
#
# Total GULP energy -111481.945332 kJ/mol
# GULP energy per Si atom -5574.097267 kJ/mol
# Density = 1.898511 g / cm^3
# Si number density = 19.028422 Si / 1000 Ang^3
#
#
#
# Elastic Constant Matrix: (Units=GPa)
#
#
# Indices 1 2 3 4 5 6 
#
# 1 123.4500 47.4910 61.7594 0.0000 -16.3883 0.0000
# 2 47.4910 94.3408 65.2715 0.0000 -25.3056 0.0000
# 3 61.7594 65.2715 166.6289 0.0000 -23.7973 0.0000
# 4 0.0000 0.0000 0.0000 24.9941 0.0000 3.7781
# 5 -16.3883 -25.3056 -23.7973 0.0000 50.3391 0.0000
# 6 0.0000 0.0000 0.0000 3.7781 0.0000 37.4518
#
#
#
# Elastic Compliance Matrix: (Units=1/GPa)
#
#
# Indices 1 2 3 4 5 6 
#
# 1 0.010804 -0.003535 -0.002543 0.000000 0.000538 0.000000
# 2 -0.003535 0.016947 -0.004585 0.000000 0.005201 0.000000
# 3 -0.002543 -0.004585 0.008893 0.000000 0.001071 0.000000
# 4 0.000000 0.000000 0.000000 0.040629 0.000000 -0.004099
# 5 0.000538 0.005201 0.001071 0.000000 0.023161 0.000000
# 6 0.000000 0.000000 0.000000 -0.004099 0.000000 0.027114
#
#
# Mechanical properties :
#
#
# Convention : Reuss Voigt Hill
#
# Bulk Modulus (GPa) = 65.28564 81.49595 73.39079
# Shear Modulus (GPa) = 32.47158 36.55019 34.51089
#
# Velocity S-wave (km/s) = 4.13544 4.38747 4.26332
# Velocity P-wave (km/s) = 7.56217 8.28179 7.93015
#
# Compressibility (1/GPa) = 0.01531730
#
# Stress axis : x y z
#
# Youngs Moduli (GPa) = 92.55907 59.00769 112.44815
#
# Poissons Ratio (x) = 0.20860 0.28593
# Poissons Ratio (y) = 0.32720 0.51562
# Poissons Ratio (z) = 0.23536 0.27058
#
# Static dielectric constant tensor:
#      x y z
#    x 1.566860 0.000000 -0.161290 
#    y 0.000000 1.561500 0.000000 
#    z -0.161290 0.000000 1.394190 
# 
# From -- ./inp_files/23774.got.cif
#   From: 2010.05.17/outbox.cif.g08.bks.cpg/sg15_12_cif.got.tgz:23774.got - 2010.06.03 18:47:42.
