data_PCOD9286586
_publ_section_title
;
Structure prediction by ZEFSAII (Michael W. Deem and Ramdas Pophale) SiO2 
 PCOD9286586
Probable space group: C 2/C
;
_chemical_formula_sum "Si O2"
_cell_formula_units_Z 36
_cell_length_a 21.657052
_cell_length_b 11.806942
_cell_length_c 11.292214
_cell_angle_alpha 90.000000
_cell_angle_beta 28.092710
_cell_angle_gamma 90.000000
_cell_volume 1359.703539
_symmetry_space_group_name_H-M "C 2/C"
_symmetry_group_IT_number 15
_symmetry_cell_setting 'monoclinic'
loop_
_space_group_symop_operation_xyz
x,y,z
-x,y,1/2-z
-x,-y,-z
x,-y,1/2+z
1/2+x,1/2+y,z
1/2-x,1/2+y,1/2-z
1/2-x,1/2-y,-z
1/2+x,1/2-y,1/2+z
loop_
_atom_site_type_symbol
_atom_site_label
_atom_site_fract_x
_atom_site_fract_y
_atom_site_fract_z
Si Si1 0.706715 0.053815 0.339969
Si Si2 0.500000 0.754434 0.250000
Si Si3 0.249113 0.424583 0.507275
Si Si4 0.505238 0.365481 0.975203
Si Si5 0.034863 0.335395 0.564850
O O1 0.612396 0.161724 0.512564
O O2 0.791685 0.064926 0.074222
O O3 0.746834 0.025451 0.409818
O O4 0.629466 0.939297 0.432627
O O5 0.538720 0.669835 0.287601
O O6 0.353239 0.339858 0.270533
O O7 0.096293 0.389271 0.769522
O O8 0.588504 0.273196 0.906333
O O9 0.500000 0.500000 0.000000
O O10 0.000000 0.286167 0.750000
#
# Coordination Sequence:
#
# PCOD9286586 Si02
#       5
#     8   4   8   8   8
#     4  11  22  45  78 105 128 179 248 299 333 395
#     4  12  24  46  72  94 140 174 240 288 344 396
#     4  11  23  43  72 104 137 183 236 284 350 413
#     4  12  29  44  62 102 153 188 217 278 362 433
#     4  10  21  43  73 101 132 174 233 294 337 401
#
# _framework density 26.47636
#
# number of rings (size 3 to 8) (size 9 to 14) (size 15 to 20)
#    0.000    0.889    5.556    2.667    4.667    0.000 
#    4.000    2.222    0.000    0.000    0.000    0.000 
#    0.000    0.000    0.000    0.000    0.000    0.000 
#
# Total GULP energy -100387.282254 kJ/mol
# GULP energy per Si atom -5577.071236 kJ/mol
# Density = 2.641610 g / cm^3
# Si number density = 26.476360 Si / 1000 Ang^3
#
#
#
# Elastic Constant Matrix: (Units=GPa)
#
#
# Indices 1 2 3 4 5 6 
#
# 1 106.3215 52.6059 34.4794 0.0000 60.0373 0.0000
# 2 52.6059 189.8757 28.6022 0.0000 20.1891 0.0000
# 3 34.4794 28.6022 60.2302 0.0000 18.0208 0.0000
# 4 0.0000 0.0000 0.0000 68.8662 0.0000 24.4747
# 5 60.0373 20.1891 18.0208 0.0000 62.6002 0.0000
# 6 0.0000 0.0000 0.0000 24.4747 0.0000 37.9022
#
#
#
# Elastic Compliance Matrix: (Units=1/GPa)
#
#
# Indices 1 2 3 4 5 6 
#
# 1 0.025351 -0.003808 -0.006344 0.000000 -0.021259 0.000000
# 2 -0.003808 0.006321 -0.001428 0.000000 0.002024 0.000000
# 3 -0.006344 -0.001428 0.020741 0.000000 0.000574 0.000000
# 4 0.000000 0.000000 0.000000 0.018846 0.000000 -0.012169
# 5 -0.021259 0.002024 0.000574 0.000000 0.035545 0.000000
# 6 0.000000 0.000000 0.000000 -0.012169 0.000000 0.034242
#
#
# Mechanical properties :
#
#
# Convention : Reuss Voigt Hill
#
# Bulk Modulus (GPa) = 34.18200 65.31138 49.74669
# Shear Modulus (GPa) = 28.74296 49.92306 39.33301
#
# Velocity S-wave (km/s) = 3.29843 4.34703 3.85852
# Velocity P-wave (km/s) = 5.23876 7.06519 6.21939
#
# Compressibility (1/GPa) = 0.02925516
#
# Stress axis : x y z
#
# Youngs Moduli (GPa) = 39.44620 158.19323 48.21412
#
# Poissons Ratio (x) = 0.60234 0.30585
# Poissons Ratio (y) = 0.15020 0.06884
# Poissons Ratio (z) = 0.25023 0.22587
#
# Static dielectric constant tensor:
#      x y z
#    x 1.577410 0.000000 -0.160710 
#    y 0.000000 2.099750 0.000000 
#    z -0.160710 0.000000 2.127950 
# 
# From -- ./inp_files/84361.got.cif
#   From: 2010.05.17/outbox.cif.g08.bks.cpg/sg15_43_cif.got.tgz:84361.got - 2010.06.03 18:47:42.
