data_PCOD9286365
_publ_section_title
;
Structure prediction by ZEFSAII (Michael W. Deem and Ramdas Pophale) SiO2 
 PCOD9286365
Probable space group: C 2/C
;
_chemical_formula_sum "Si O2"
_cell_formula_units_Z 52
_cell_length_a 14.086872
_cell_length_b 11.618248
_cell_length_c 22.192335
_cell_angle_alpha 90.000000
_cell_angle_beta 40.298602
_cell_angle_gamma 90.000000
_cell_volume 2349.139804
_symmetry_space_group_name_H-M "C 2/C"
_symmetry_group_IT_number 15
_symmetry_cell_setting 'monoclinic'
loop_
_space_group_symop_operation_xyz
x,y,z
-x,y,1/2-z
-x,-y,-z
x,-y,1/2+z
1/2+x,1/2+y,z
1/2-x,1/2+y,1/2-z
1/2-x,1/2-y,-z
1/2+x,1/2-y,1/2+z
loop_
_atom_site_type_symbol
_atom_site_label
_atom_site_fract_x
_atom_site_fract_y
_atom_site_fract_z
Si Si1 0.635635 0.166523 0.088086
Si Si2 0.065271 0.874730 0.455565
Si Si3 0.546196 0.842472 0.024448
Si Si4 0.430384 0.521121 0.672076
Si Si5 0.266668 0.413280 0.016818
Si Si6 0.500000 0.682442 0.750000
Si Si7 0.632874 0.933693 0.856595
O O1 0.608031 0.230356 0.163938
O O2 0.486528 0.139925 0.122928
O O3 0.750000 0.250000 0.000000
O O4 0.704063 0.040556 0.058749
O O5 0.973331 0.772245 0.531267
O O6 0.086187 0.886650 0.374554
O O7 0.208244 0.862726 0.428648
O O8 0.000000 0.000000 0.500000
O O9 0.656585 0.842599 0.027699
O O10 0.638953 0.884944 0.921407
O O11 0.429026 0.937662 0.101364
O O12 0.575095 0.442268 0.590721
O O13 0.443189 0.597206 0.725787
O O14 0.286383 0.443138 0.748368
#
# Coordination Sequence:
#
# PCOD9286365 Si02
#       7
#     8   8   8   8   8   4   8
#     4  11  24  43  68 101 136 179 233 283 347 403
#     4  10  23  41  65  93 135 171 223 269 340 404
#     4  10  21  43  67  93 130 180 222 273 342 410
#     4  11  23  41  63 104 132 176 232 282 344 407
#     4  10  22  43  67  92 135 182 224 279 346 417
#     4  12  24  38  74  96 140 186 232 294 338 410
#     4  10  24  40  67  99 133 169 228 285 335 406
#
# _framework density 22.135762
#
# number of rings (size 3 to 8) (size 9 to 14) (size 15 to 20)
#    0.000    1.538    1.538    2.308    8.615    0.000 
#    8.308    0.000    6.769    0.000    0.000    0.000 
#    0.000    0.000    0.000    0.000    0.000    0.000 
#
# Total GULP energy -145037.437178 kJ/mol
# GULP energy per Si atom -5578.362968 kJ/mol
# Density = 2.208538 g / cm^3
# Si number density = 22.135762 Si / 1000 Ang^3
#
#
#
# Elastic Constant Matrix: (Units=GPa)
#
#
# Indices 1 2 3 4 5 6 
#
# 1 137.6347 18.4619 36.7331 0.0000 21.8432 0.0000
# 2 18.4619 85.4504 19.2039 0.0000 1.5866 0.0000
# 3 36.7331 19.2039 102.5688 0.0000 1.5196 0.0000
# 4 0.0000 0.0000 0.0000 26.8516 0.0000 11.2269
# 5 21.8432 1.5866 1.5196 0.0000 37.2005 0.0000
# 6 0.0000 0.0000 0.0000 11.2269 0.0000 42.3038
#
#
#
# Elastic Compliance Matrix: (Units=1/GPa)
#
#
# Indices 1 2 3 4 5 6 
#
# 1 0.009022 -0.001195 -0.002931 0.000000 -0.005127 0.000000
# 2 -0.001195 0.012382 -0.001894 0.000000 0.000251 0.000000
# 3 -0.002931 -0.001894 0.011134 0.000000 0.001347 0.000000
# 4 0.000000 0.000000 0.000000 0.041890 0.000000 -0.011117
# 5 -0.005127 0.000251 0.001347 0.000000 0.029826 0.000000
# 6 0.000000 0.000000 0.000000 -0.011117 0.000000 0.026589
#
#
# Mechanical properties :
#
#
# Convention : Reuss Voigt Hill
#
# Bulk Modulus (GPa) = 48.78795 52.71683 50.75239
# Shear Modulus (GPa) = 33.39665 38.02151 35.70908
#
# Velocity S-wave (km/s) = 3.88844 4.14895 4.02080
# Velocity P-wave (km/s) = 6.49985 6.84242 6.67333
#
# Compressibility (1/GPa) = 0.02049686
#
# Stress axis : x y z
#
# Youngs Moduli (GPa) = 110.84146 80.76305 89.81516
#
# Poissons Ratio (x) = 0.09653 0.26327
# Poissons Ratio (y) = 0.13248 0.17010
# Poissons Ratio (z) = 0.32491 0.15296
#
# Static dielectric constant tensor:
#      x y z
#    x 1.869130 0.000000 -0.037310 
#    y 0.000000 1.939450 0.000000 
#    z -0.037310 0.000000 1.744830 
# 
# From -- ./inp_files/273786.got.cif
#   From: 2010.05.17/outbox.cif.g08.bks.cpg/sg15_137_cif.got.tgz:273786.got - 2010.06.03 18:47:42.
