data_PCOD9286879
_publ_section_title
;
Structure prediction by ZEFSAII (Michael W. Deem and Ramdas Pophale) SiO2 
 PCOD9286879
Probable space group: C 2/C
;
_chemical_formula_sum "Si O2"
_cell_formula_units_Z 48
_cell_length_a 9.608071
_cell_length_b 27.256080
_cell_length_c 15.889451
_cell_angle_alpha 90.000000
_cell_angle_beta 145.619780
_cell_angle_gamma 90.000000
_cell_volume 2349.700595
_symmetry_space_group_name_H-M "C 2/C"
_symmetry_group_IT_number 15
_symmetry_cell_setting 'monoclinic'
loop_
_space_group_symop_operation_xyz
x,y,z
-x,y,1/2-z
-x,-y,-z
x,-y,1/2+z
1/2+x,1/2+y,z
1/2-x,1/2+y,1/2-z
1/2-x,1/2-y,-z
1/2+x,1/2-y,1/2+z
loop_
_atom_site_type_symbol
_atom_site_label
_atom_site_fract_x
_atom_site_fract_y
_atom_site_fract_z
Si Si1 0.500000 0.737851 0.750000
Si Si2 0.704530 0.484121 0.705227
Si Si3 0.000000 0.815363 0.750000
Si Si4 0.003640 0.587999 0.439842
Si Si5 0.302059 0.596169 0.046162
Si Si6 0.008531 0.299117 0.581525
Si Si7 0.500000 0.056731 0.750000
Si Si8 0.500000 0.552771 0.750000
O O1 0.241706 0.709609 0.598425
O O2 0.518824 0.770472 0.674694
O O3 0.516695 0.438365 0.616296
O O4 0.776298 0.520521 0.665875
O O5 0.609729 0.519080 0.731711
O O6 0.959566 0.456681 0.854885
O O7 0.910616 0.851400 0.628839
O O8 0.757198 0.785890 0.654712
O O9 0.964001 0.642702 0.387750
O O10 0.280731 0.585471 0.607720
O O11 0.819834 0.578058 0.426893
O O12 0.087328 0.590813 0.870361
#
# Coordination Sequence:
#
# PCOD9286879 Si02
#       8
#     4   8   4   8   8   8   4   4
#     4  10  23  45  70 103 134 146 203 266 340 392
#     4  12  21  38  58  83 123 174 216 262 298 356
#     4  10  21  44  72  84 124 174 211 239 318 391
#     4  11  21  38  65  86 119 174 218 242 309 377
#     4  11  20  41  56  83 121 165 212 263 300 361
#     4  10  22  44  70  98 129 165 199 267 322 395
#     4  12  26  33  52  93 129 159 218 275 313 324
#     4  12  20  34  60  86 121 175 222 248 287 369
#
# _framework density 20.428134
#
# number of rings (size 3 to 8) (size 9 to 14) (size 15 to 20)
#    0.000    1.000    6.667    2.500    0.000    1.333 
#    3.000    3.333    0.000    0.000    0.000    0.000 
#    0.000    0.000    0.000    0.000    0.000    0.000 
#
# Total GULP energy -133751.601127 kJ/mol
# GULP energy per Si atom -5572.983380 kJ/mol
# Density = 2.038164 g / cm^3
# Si number density = 20.428134 Si / 1000 Ang^3
#
#
#
# Elastic Constant Matrix: (Units=GPa)
#
#
# Indices 1 2 3 4 5 6 
#
# 1 100.3731 19.7032 26.1820 0.0000 17.6874 0.0000
# 2 19.7032 72.5182 38.4789 0.0000 -15.4622 0.0000
# 3 26.1820 38.4789 115.2243 0.0000 -4.0227 0.0000
# 4 0.0000 0.0000 0.0000 19.5891 0.0000 8.4504
# 5 17.6874 -15.4622 -4.0227 0.0000 45.4029 0.0000
# 6 0.0000 0.0000 0.0000 8.4504 0.0000 24.6035
#
#
#
# Elastic Compliance Matrix: (Units=1/GPa)
#
#
# Indices 1 2 3 4 5 6 
#
# 1 0.012241 -0.003713 -0.001758 0.000000 -0.006189 0.000000
# 2 -0.003713 0.019221 -0.005313 0.000000 0.007521 0.000000
# 3 -0.001758 -0.005313 0.010847 0.000000 -0.000164 0.000000
# 4 0.000000 0.000000 0.000000 0.059928 0.000000 -0.020583
# 5 -0.006189 0.007521 -0.000164 0.000000 0.026983 0.000000
# 6 0.000000 0.000000 0.000000 -0.020583 0.000000 0.047714
#
#
# Mechanical properties :
#
#
# Convention : Reuss Voigt Hill
#
# Bulk Modulus (GPa) = 48.21053 50.76041 49.48547
# Shear Modulus (GPa) = 24.34116 31.50254 27.92185
#
# Velocity S-wave (km/s) = 3.45563 3.93124 3.70108
# Velocity P-wave (km/s) = 6.29072 6.74599 6.52233
#
# Compressibility (1/GPa) = 0.02074236
#
# Stress axis : x y z
#
# Youngs Moduli (GPa) = 81.69513 52.02629 92.19543
#
# Poissons Ratio (x) = 0.19316 0.16204
# Poissons Ratio (y) = 0.30331 0.48980
# Poissons Ratio (z) = 0.14359 0.27640
#
# Static dielectric constant tensor:
#      x y z
#    x 1.738590 0.000000 0.023900 
#    y 0.000000 1.698920 0.000000 
#    z 0.023900 0.000000 1.819190 
# 
# From -- ./inp_files/80609.got.cif
#   From: 2010.05.17/outbox.cif.g08.bks.cpg/sg15_41_cif.got.tgz:80609.got - 2010.06.03 18:47:42.
