data_PCOD9286392
_publ_section_title
;
Structure prediction by ZEFSAII (Michael W. Deem and Ramdas Pophale) SiO2 
 PCOD9286392
Probable space group: C 2/C
;
_chemical_formula_sum "Si O2"
_cell_formula_units_Z 56
_cell_length_a 5.567721
_cell_length_b 13.529310
_cell_length_c 31.017078
_cell_angle_alpha 90.000000
_cell_angle_beta 90.395164
_cell_angle_gamma 90.000000
_cell_volume 2336.380998
_symmetry_space_group_name_H-M "C 2/C"
_symmetry_group_IT_number 15
_symmetry_cell_setting 'monoclinic'
loop_
_space_group_symop_operation_xyz
x,y,z
-x,y,1/2-z
-x,-y,-z
x,-y,1/2+z
1/2+x,1/2+y,z
1/2-x,1/2+y,1/2-z
1/2-x,1/2-y,-z
1/2+x,1/2-y,1/2+z
loop_
_atom_site_type_symbol
_atom_site_label
_atom_site_fract_x
_atom_site_fract_y
_atom_site_fract_z
Si Si1 0.440787 0.101160 0.977951
Si Si2 0.649265 0.645691 0.054997
Si Si3 0.000000 0.573735 0.250000
Si Si4 0.773335 0.419855 0.835300
Si Si5 0.614606 0.276368 0.709195
Si Si6 0.605457 0.746554 0.869509
Si Si7 0.250000 0.750000 0.000000
Si Si8 0.529941 0.448115 0.408731
O O1 0.228395 0.083545 0.944560
O O2 0.360993 0.166543 0.020115
O O3 0.671506 0.162626 0.965159
O O4 0.500000 0.000000 0.000000
O O5 0.704245 0.717857 0.094377
O O6 0.642757 0.532210 0.071200
O O7 0.405353 0.668828 0.029514
O O8 0.890422 0.526680 0.293428
O O9 0.795203 0.645453 0.231042
O O10 0.575603 0.343780 0.816523
O O11 0.664369 0.491806 0.870599
O O12 0.960634 0.346174 0.858622
O O13 0.500000 0.221075 0.750000
O O14 0.759326 0.215750 0.674018
O O15 0.452491 0.654468 0.886381
#
# Coordination Sequence:
#
# PCOD9286392 Si02
#       8
#     8   8   4   8   8   8   4   8
#     4  12  26  44  66  97 131 182 237 284 345 409
#     4  12  26  45  65  99 139 182 238 288 346 413
#     4   8  18  38  76  94 132 180 212 272 344 408
#     4  10  21  43  67  98 136 174 221 281 341 410
#     4   9  18  41  72  97 133 179 216 274 346 407
#     4  11  24  42  66  98 136 177 226 284 341 406
#     4  12  26  44  72  88 134 188 224 296 344 398
#     4  12  25  43  66 101 136 176 233 281 343 413
#
# _framework density 23.968692999999998
#
# number of rings (size 3 to 8) (size 9 to 14) (size 15 to 20)
#    0.000    1.143    4.286    1.714    0.000    0.000 
#    6.429    0.000   25.143    0.000    0.000    0.000 
#    0.000    0.000    0.000    0.000    0.000    0.000 
#
# Total GULP energy -155947.647141 kJ/mol
# GULP energy per Si atom -5569.558826 kJ/mol
# Density = 2.391414 g / cm^3
# Si number density = 23.968693 Si / 1000 Ang^3
#
#
#
# Elastic Constant Matrix: (Units=GPa)
#
#
# Indices 1 2 3 4 5 6 
#
# 1 37.2524 -18.1999 22.2050 0.0000 13.9466 0.0000
# 2 -18.1999 89.3651 14.9693 0.0000 -9.8637 0.0000
# 3 22.2050 14.9693 142.4697 0.0000 -24.2408 0.0000
# 4 0.0000 0.0000 0.0000 25.6468 0.0000 -5.7295
# 5 13.9466 -9.8637 -24.2408 0.0000 54.8042 0.0000
# 6 0.0000 0.0000 0.0000 -5.7295 0.0000 5.7809
#
#
#
# Elastic Compliance Matrix: (Units=1/GPa)
#
#
# Indices 1 2 3 4 5 6 
#
# 1 0.041897 0.008682 -0.009722 0.000000 -0.013400 0.000000
# 2 0.008682 0.013328 -0.002943 0.000000 -0.001112 0.000000
# 3 -0.009722 -0.002943 0.009921 0.000000 0.006333 0.000000
# 4 0.000000 0.000000 0.000000 0.050080 0.000000 0.049634
# 5 -0.013400 -0.001112 0.006333 0.000000 0.024258 0.000000
# 6 0.000000 0.000000 0.000000 0.049634 0.000000 0.222177
#
#
# Mechanical properties :
#
#
# Convention : Reuss Voigt Hill
#
# Bulk Modulus (GPa) = 17.48826 34.11513 25.80169
# Shear Modulus (GPa) = 12.86383 33.92056 23.39220
#
# Velocity S-wave (km/s) = 2.31918 3.76600 3.12741
# Velocity P-wave (km/s) = 3.80573 5.75973 4.88150
#
# Compressibility (1/GPa) = 0.05718121
#
# Stress axis : x y z
#
# Youngs Moduli (GPa) = 23.86784 75.02752 100.79615
#
# Poissons Ratio (x) = -0.65141 0.97996
# Poissons Ratio (y) = -0.20723 0.29663
# Poissons Ratio (z) = 0.23205 0.22080
#
# Static dielectric constant tensor:
#      x y z
#    x -1.974750 0.000000 1.214900 
#    y 0.000000 1.711060 0.000000 
#    z 1.214900 0.000000 1.866760 
# 
# From -- ./inp_files/305421.got.cif
#   From: 2010.05.17/outbox.cif.g08.bks.cpg/sg15_153_cif.got.tgz:305421.got - 2010.06.03 18:47:42.
