data_PCOD9286923
_publ_section_title
;
Structure prediction by ZEFSAII (Michael W. Deem and Ramdas Pophale) SiO2 
 PCOD9286923
Probable space group: C 2/C
;
_chemical_formula_sum "Si O2"
_cell_formula_units_Z 56
_cell_length_a 16.293987
_cell_length_b 12.270202
_cell_length_c 13.882936
_cell_angle_alpha 90.000000
_cell_angle_beta 117.251197
_cell_angle_gamma 90.000000
_cell_volume 2467.549430
_symmetry_space_group_name_H-M "C 2/C"
_symmetry_group_IT_number 15
_symmetry_cell_setting 'monoclinic'
loop_
_space_group_symop_operation_xyz
x,y,z
-x,y,1/2-z
-x,-y,-z
x,-y,1/2+z
1/2+x,1/2+y,z
1/2-x,1/2+y,1/2-z
1/2-x,1/2-y,-z
1/2+x,1/2-y,1/2+z
loop_
_atom_site_type_symbol
_atom_site_label
_atom_site_fract_x
_atom_site_fract_y
_atom_site_fract_z
Si Si1 0.943722 0.982503 0.099251
Si Si2 0.203226 0.004355 0.126124
Si Si3 0.000000 0.204844 0.750000
Si Si4 0.220474 0.929227 0.338199
Si Si5 0.670217 0.189402 0.275617
Si Si6 0.900574 0.443365 0.952468
Si Si7 0.170509 0.680421 0.903170
Si Si8 0.000000 0.181423 0.250000
O O1 0.004508 0.877385 0.160965
O O2 0.852340 0.956340 0.117115
O O3 0.987609 0.095769 0.156012
O O4 0.897889 0.997562 0.972202
O O5 0.194854 0.005649 0.235672
O O6 0.271048 0.908504 0.125497
O O7 0.256909 0.114365 0.132064
O O8 0.086029 0.283258 0.800318
O O9 0.214386 0.808694 0.290326
O O10 0.323217 0.962832 0.420572
O O11 0.628790 0.131189 0.156912
O O12 0.889224 0.373014 0.043014
O O13 0.000000 0.500000 0.000000
O O14 0.094689 0.748273 0.801160
O O15 0.250000 0.750000 0.000000
#
# Coordination Sequence:
#
# PCOD9286923 Si02
#       8
#     8   8   4   8   8   8   8   4
#     4  10  21  45  63  96 130 170 224 277 319 402
#     4  11  23  40  70  91 125 181 218 262 342 390
#     4   9  22  39  64  92 132 165 214 275 324 398
#     4  10  22  45  64  92 135 171 222 275 329 403
#     4  10  24  40  65  93 129 173 220 266 336 402
#     4  11  25  42  62  98 133 166 222 287 328 405
#     4  12  24  44  70  94 134 178 221 280 350 397
#     4  11  24  39  70  98 126 171 224 275 330 404
#
# _framework density 22.694580999999999
#
# number of rings (size 3 to 8) (size 9 to 14) (size 15 to 20)
#    0.000    1.429    2.857    0.857    6.000    4.571 
#    2.571    2.143    0.000    0.000    0.000    0.000 
#    0.000    0.000    0.000    0.000    0.000    0.000 
#
# Total GULP energy -156382.236462 kJ/mol
# GULP energy per Si atom -5585.079874 kJ/mol
# Density = 2.264293 g / cm^3
# Si number density = 22.694581 Si / 1000 Ang^3
#
#
#
# Elastic Constant Matrix: (Units=GPa)
#
#
# Indices 1 2 3 4 5 6 
#
# 1 85.1298 38.5898 15.8631 0.0000 27.8645 0.0000
# 2 38.5898 95.1217 16.4331 0.0000 27.5678 0.0000
# 3 15.8631 16.4331 91.8421 0.0000 28.8884 0.0000
# 4 0.0000 0.0000 0.0000 32.6236 0.0000 17.6823
# 5 27.8645 27.5678 28.8884 0.0000 44.2055 0.0000
# 6 0.0000 0.0000 0.0000 17.6823 0.0000 40.0798
#
#
#
# Elastic Compliance Matrix: (Units=1/GPa)
#
#
# Indices 1 2 3 4 5 6 
#
# 1 0.016197 -0.004400 0.000425 0.000000 -0.007743 0.000000
# 2 -0.004400 0.014033 0.000163 0.000000 -0.006084 0.000000
# 3 0.000425 0.000163 0.013723 0.000000 -0.009338 0.000000
# 4 0.000000 0.000000 0.000000 0.040286 0.000000 -0.017773
# 5 -0.007743 -0.006084 -0.009338 0.000000 0.037399 0.000000
# 6 0.000000 0.000000 0.000000 -0.017773 0.000000 0.032791
#
#
# Mechanical properties :
#
#
# Convention : Reuss Voigt Hill
#
# Bulk Modulus (GPa) = 27.52638 45.98505 36.75572
# Shear Modulus (GPa) = 28.70890 36.79562 32.75226
#
# Velocity S-wave (km/s) = 3.56056 4.03095 3.80304
# Velocity P-wave (km/s) = 5.39062 6.47853 5.95945
#
# Compressibility (1/GPa) = 0.03632879
#
# Stress axis : x y z
#
# Youngs Moduli (GPa) = 61.74123 71.25995 72.87192
#
# Poissons Ratio (x) = 0.31355 -0.03100
# Poissons Ratio (y) = 0.27167 -0.01187
# Poissons Ratio (z) = -0.02627 -0.01161
#
# Static dielectric constant tensor:
#      x y z
#    x 1.896350 0.000000 -0.002050 
#    y 0.000000 1.878100 0.000000 
#    z -0.002050 0.000000 1.900050 
# 
# From -- ./inp_files/161458.got.cif
#   From: 2010.05.17/outbox.cif.g08.bks.cpg/sg15_81_cif.got.tgz:161458.got - 2010.06.03 18:47:42.
