data_PCOD9286117
_publ_section_title
;
Structure prediction by ZEFSAII (Michael W. Deem and Ramdas Pophale) SiO2 
 PCOD9286117
Probable space group: C 2/C
;
_chemical_formula_sum "Si O2"
_cell_formula_units_Z 56
_cell_length_a 11.130633
_cell_length_b 23.811373
_cell_length_c 8.188951
_cell_angle_alpha 90.000000
_cell_angle_beta 75.723584
_cell_angle_gamma 90.000000
_cell_volume 2103.337325
_symmetry_space_group_name_H-M "C 2/C"
_symmetry_group_IT_number 15
_symmetry_cell_setting 'monoclinic'
loop_
_space_group_symop_operation_xyz
x,y,z
-x,y,1/2-z
-x,-y,-z
x,-y,1/2+z
1/2+x,1/2+y,z
1/2-x,1/2+y,1/2-z
1/2-x,1/2-y,-z
1/2+x,1/2-y,1/2+z
loop_
_atom_site_type_symbol
_atom_site_label
_atom_site_fract_x
_atom_site_fract_y
_atom_site_fract_z
Si Si1 0.000000 0.771845 0.750000
Si Si2 0.000000 0.043498 0.750000
Si Si3 0.561951 0.197018 0.410018
Si Si4 0.417908 0.042115 0.631761
Si Si5 0.693870 0.540011 0.241738
Si Si6 0.854227 0.197822 0.757539
Si Si7 0.206628 0.860977 0.548276
Si Si8 0.273777 0.385905 0.482469
O O1 0.993253 0.730826 0.587015
O O2 0.110422 0.816581 0.666819
O O3 0.920275 0.998499 0.674643
O O4 0.895257 0.081891 0.869047
O O5 0.500000 0.182506 0.250000
O O6 0.663362 0.242827 0.316480
O O7 0.648353 0.149308 0.457939
O O8 0.500000 0.064790 0.750000
O O9 0.351754 0.089908 0.549848
O O10 0.500000 0.000000 0.500000
O O11 0.308980 0.000699 0.725656
O O12 0.676700 0.572698 0.077836
O O13 0.717428 0.595673 0.337088
O O14 0.812843 0.153397 0.636048
O O15 0.784828 0.179291 0.942770
O O16 0.000000 0.195609 0.750000
#
# Coordination Sequence:
#
# PCOD9286117 Si02
#       8
#     4   4   8   8   8   8   8   8
#     4  10  21  42  72  92 136 184 214 288 353 394
#     4  10  23  38  68  98 138 164 216 274 351 398
#     4  10  24  47  68 100 137 179 232 279 338 414
#     4  11  24  46  63  83 130 179 223 267 321 394
#     4  11  25  39  65  98 131 172 219 276 337 404
#     4  10  22  40  68  96 135 165 215 280 343 402
#     4  11  25  43  65 101 137 173 228 277 341 408
#     4  11  23  40  66 100 128 171 220 277 337 407
#
# _framework density 26.624355000000001
#
# number of rings (size 3 to 8) (size 9 to 14) (size 15 to 20)
#    0.000    1.429    2.143    2.571   10.000    2.286 
#    2.571    0.000    1.571    0.000    0.000    0.000 
#    0.000    0.000    0.000    0.000    0.000    0.000 
#
# Total GULP energy -156380.588734 kJ/mol
# GULP energy per Si atom -5585.021026 kJ/mol
# Density = 2.656376 g / cm^3
# Si number density = 26.624355 Si / 1000 Ang^3
#
#
#
# Elastic Constant Matrix: (Units=GPa)
#
#
# Indices 1 2 3 4 5 6 
#
# 1 138.7323 23.2562 35.9616 0.0000 7.8942 0.0000
# 2 23.2562 65.2898 24.4370 0.0000 0.6940 0.0000
# 3 35.9616 24.4370 95.9484 0.0000 1.5062 0.0000
# 4 0.0000 0.0000 0.0000 15.1603 0.0000 -33.3806
# 5 7.8942 0.6940 1.5062 0.0000 36.2731 0.0000
# 6 0.0000 0.0000 0.0000 -33.3806 0.0000 -23.7128
#
#
#
# Elastic Compliance Matrix: (Units=1/GPa)
#
#
# Indices 1 2 3 4 5 6 
#
# 1 0.008303 -0.001973 -0.002583 0.000000 -0.001662 0.000000
# 2 -0.001973 0.017400 -0.003696 0.000000 0.000250 0.000000
# 3 -0.002583 -0.003696 0.012330 0.000000 0.000121 0.000000
# 4 0.000000 0.000000 0.000000 0.016090 0.000000 -0.022650
# 5 -0.001662 0.000250 0.000121 0.000000 0.027921 0.000000
# 6 0.000000 0.000000 0.000000 -0.022650 0.000000 -0.010287
#
#
# Mechanical properties :
#
#
# Convention : Reuss Voigt Hill
#
# Bulk Modulus (GPa) = 46.45094 51.92004 49.18549
# Shear Modulus (GPa) = 52.39038 19.96517 36.17777
#
# Velocity S-wave (km/s) = 4.44076 2.74137 3.69022
# Velocity P-wave (km/s) = 6.61653 5.43723 6.05565
#
# Compressibility (1/GPa) = 0.02152809
#
# Stress axis : x y z
#
# Youngs Moduli (GPa) = 120.43696 57.47199 81.10320
#
# Poissons Ratio (x) = 0.11339 0.20952
# Poissons Ratio (y) = 0.23762 0.29976
# Poissons Ratio (z) = 0.31114 0.21242
#
# Static dielectric constant tensor:
#      x y z
#    x 1.995330 0.000000 -0.110850 
#    y 0.000000 2.111650 0.000000 
#    z -0.110850 0.000000 1.989030 
# 
# From -- ./inp_files/34238.got.cif
#   From: 2010.05.17/outbox.cif.g08.bks.cpg/sg15_18_cif.got.tgz:34238.got - 2010.06.03 18:47:42.
