data_PCOD9286416
_publ_section_title
;
Structure prediction by ZEFSAII (Michael W. Deem and Ramdas Pophale) SiO2 
 PCOD9286416
Probable space group: C 2/C
;
_chemical_formula_sum "Si O2"
_cell_formula_units_Z 44
_cell_length_a 9.231413
_cell_length_b 16.817564
_cell_length_c 14.941986
_cell_angle_alpha 90.000000
_cell_angle_beta 74.288242
_cell_angle_gamma 90.000000
_cell_volume 2233.067147
_symmetry_space_group_name_H-M "C 2/C"
_symmetry_group_IT_number 15
_symmetry_cell_setting 'monoclinic'
loop_
_space_group_symop_operation_xyz
x,y,z
-x,y,1/2-z
-x,-y,-z
x,-y,1/2+z
1/2+x,1/2+y,z
1/2-x,1/2+y,1/2-z
1/2-x,1/2-y,-z
1/2+x,1/2-y,1/2+z
loop_
_atom_site_type_symbol
_atom_site_label
_atom_site_fract_x
_atom_site_fract_y
_atom_site_fract_z
Si Si1 0.104938 0.444020 0.542559
Si Si2 0.113085 0.973295 0.899900
Si Si3 0.209180 0.179397 0.608393
Si Si4 0.500000 0.571935 0.750000
Si Si5 0.953690 0.701835 0.154967
Si Si6 0.860823 0.197358 0.207311
O O1 0.218947 0.489390 0.590077
O O2 0.214932 0.383606 0.470201
O O3 0.000000 0.500000 0.500000
O O4 0.995232 0.383877 0.611175
O O5 0.124544 0.884095 0.854215
O O6 0.054712 0.022615 0.825355
O O7 0.000000 0.000000 0.000000
O O8 0.136318 0.127163 0.698172
O O9 0.328003 0.237179 0.636280
O O10 0.067268 0.231714 0.593633
O O11 0.775844 0.706276 0.197414
O O12 0.000000 0.704425 0.250000
O O13 0.000000 0.206227 0.250000
#
# Coordination Sequence:
#
# PCOD9286416 Si02
#       6
#     8   8   8   4   8   8
#     4  12  27  42  69 107 147 182 234 296 357 426
#     4  12  26  43  70 104 147 187 234 291 363 418
#     4  11  23  47  71  99 139 188 236 285 360 425
#     4  12  24  44  76 100 140 186 240 296 356 416
#     4  10  21  43  68  93 133 193 227 281 355 418
#     4  11  24  44  73 102 137 187 241 291 351 428
#
# _framework density 19.703841000000001
#
# number of rings (size 3 to 8) (size 9 to 14) (size 15 to 20)
#    0.000    0.727    9.091    0.545    5.091    1.455 
#    0.000    0.909    0.000    0.000    0.000    0.000 
#    0.000    0.000    0.000    0.000    0.000    0.000 
#
# Total GULP energy -122500.083123 kJ/mol
# GULP energy per Si atom -5568.185597 kJ/mol
# Density = 1.965899 g / cm^3
# Si number density = 19.703841 Si / 1000 Ang^3
#
#
#
# Elastic Constant Matrix: (Units=GPa)
#
#
# Indices 1 2 3 4 5 6 
#
# 1 179.7255 51.2926 46.9631 0.0000 10.6713 0.0000
# 2 51.2926 110.6296 40.4549 0.0000 15.4973 0.0000
# 3 46.9631 40.4549 85.0531 0.0000 11.0521 0.0000
# 4 0.0000 0.0000 0.0000 35.7847 0.0000 10.7306
# 5 10.6713 15.4973 11.0521 0.0000 22.8095 0.0000
# 6 0.0000 0.0000 0.0000 10.7306 0.0000 8.5850
#
#
#
# Elastic Compliance Matrix: (Units=1/GPa)
#
#
# Indices 1 2 3 4 5 6 
#
# 1 0.006919 -0.002141 -0.002743 0.000000 -0.000453 0.000000
# 2 -0.002141 0.012226 -0.003931 0.000000 -0.005400 0.000000
# 3 -0.002743 -0.003931 0.015611 0.000000 -0.003610 0.000000
# 4 0.000000 0.000000 0.000000 0.044698 0.000000 -0.055869
# 5 -0.000453 -0.005400 -0.003610 0.000000 0.049471 0.000000
# 6 0.000000 0.000000 0.000000 -0.055869 0.000000 0.186314
#
#
# Mechanical properties :
#
#
# Convention : Reuss Voigt Hill
#
# Bulk Modulus (GPa) = 58.39497 72.53662 65.46580
# Shear Modulus (GPa) = 14.76766 29.21569 21.99167
#
# Velocity S-wave (km/s) = 2.74064 3.85481 3.34445
# Velocity P-wave (km/s) = 6.30202 7.53035 6.94340
#
# Compressibility (1/GPa) = 0.01712476
#
# Stress axis : x y z
#
# Youngs Moduli (GPa) = 144.53353 81.79303 64.05821
#
# Poissons Ratio (x) = 0.17515 0.17571
# Poissons Ratio (y) = 0.30950 0.25182
# Poissons Ratio (z) = 0.39644 0.32154
#
# Static dielectric constant tensor:
#      x y z
#    x 1.622630 0.000000 0.006330 
#    y 0.000000 1.742080 0.000000 
#    z 0.006330 0.000000 1.711840 
# 
# From -- ./inp_files/134304.got.cif
#   From: 2010.05.17/outbox.cif.g08.bks.cpg/sg15_68_cif.got.tgz:134304.got - 2010.06.03 18:47:42.
