data_PCOD9286848
_publ_section_title
;
Structure prediction by ZEFSAII (Michael W. Deem and Ramdas Pophale) SiO2 
 PCOD9286848
Probable space group: C 2/C
;
_chemical_formula_sum "Si O2"
_cell_formula_units_Z 64
_cell_length_a 14.691525
_cell_length_b 12.331021
_cell_length_c 18.293405
_cell_angle_alpha 90.000000
_cell_angle_beta 89.813025
_cell_angle_gamma 90.000000
_cell_volume 3314.043104
_symmetry_space_group_name_H-M "C 2/C"
_symmetry_group_IT_number 15
_symmetry_cell_setting 'monoclinic'
loop_
_space_group_symop_operation_xyz
x,y,z
-x,y,1/2-z
-x,-y,-z
x,-y,1/2+z
1/2+x,1/2+y,z
1/2-x,1/2+y,1/2-z
1/2-x,1/2-y,-z
1/2+x,1/2-y,1/2+z
loop_
_atom_site_type_symbol
_atom_site_label
_atom_site_fract_x
_atom_site_fract_y
_atom_site_fract_z
Si Si1 0.666523 0.229339 0.945763
Si Si2 0.380458 0.611228 0.329302
Si Si3 0.575415 0.853880 0.814346
Si Si4 0.594258 0.591840 0.336622
Si Si5 0.993181 0.625060 0.021800
Si Si6 0.193687 0.867770 0.320633
Si Si7 0.781114 0.551406 0.675568
Si Si8 0.316134 0.795405 0.438624
O O1 0.641172 0.336485 0.898997
O O2 0.689065 0.133160 0.888094
O O3 0.750000 0.250000 0.000000
O O4 0.580173 0.190534 0.993154
O O5 0.485838 0.592083 0.347019
O O6 0.379554 0.640085 0.243155
O O7 0.313045 0.510700 0.343064
O O8 0.343729 0.705840 0.379743
O O9 0.500000 0.851438 0.750000
O O10 0.523967 0.860653 0.892119
O O11 0.638642 0.745528 0.815421
O O12 0.642441 0.958768 0.810145
O O13 0.624869 0.467706 0.328841
O O14 0.000000 0.500000 0.000000
O O15 0.904998 0.664964 0.978667
O O16 0.256140 0.884611 0.249382
O O17 0.258112 0.878340 0.391031
O O18 0.250000 0.750000 0.500000
#
# Coordination Sequence:
#
# PCOD9286848 Si02
#       8
#     8   8   8   8   8   8   8   8
#     4  12  28  45  69 103 145 185 230 295 350 418
#     4  10  21  44  70  96 134 176 235 289 340 415
#     4  12  28  48  70 105 142 188 235 286 354 422
#     4  10  24  44  68 103 133 181 233 290 352 407
#     4  12  27  48  69 103 144 186 236 288 352 419
#     4  11  26  43  75 102 139 183 235 290 355 416
#     4  11  25  46  69 103 139 184 234 290 349 421
#     4  12  23  45  71  96 138 185 232 291 341 421
#
# _framework density 19.311758999999999
#
# number of rings (size 3 to 8) (size 9 to 14) (size 15 to 20)
#    0.000    0.750    5.000    0.750   10.500    0.000 
#    2.250    1.875    0.000    0.000    0.000    0.000 
#    0.000    0.000    0.000    0.000    0.000    0.000 
#
# Total GULP energy -178836.457616 kJ/mol
# GULP energy per Si atom -5588.639301 kJ/mol
# Density = 1.926780 g / cm^3
# Si number density = 19.311759 Si / 1000 Ang^3
#
#
#
# Elastic Constant Matrix: (Units=GPa)
#
#
# Indices 1 2 3 4 5 6 
#
# 1 145.7059 58.1127 70.7609 0.0000 5.0737 0.0000
# 2 58.1127 103.9672 56.1646 0.0000 -1.9861 0.0000
# 3 70.7609 56.1646 134.5067 0.0000 3.7625 0.0000
# 4 0.0000 0.0000 0.0000 0.2727 0.0000 19.2196
# 5 5.0737 -1.9861 3.7625 0.0000 47.1909 0.0000
# 6 0.0000 0.0000 0.0000 19.2196 0.0000 7.2297
#
#
#
# Elastic Compliance Matrix: (Units=1/GPa)
#
#
# Indices 1 2 3 4 5 6 
#
# 1 0.010210 -0.003664 -0.003815 0.000000 -0.000948 0.000000
# 2 -0.003664 0.013777 -0.003861 0.000000 0.001282 0.000000
# 3 -0.003815 -0.003861 0.011071 0.000000 -0.000635 0.000000
# 4 0.000000 0.000000 0.000000 -0.019677 0.000000 0.052309
# 5 -0.000948 0.001282 -0.000635 0.000000 0.021397 0.000000
# 6 0.000000 0.000000 0.000000 0.052309 0.000000 -0.000742
#
#
# Mechanical properties :
#
#
# Convention : Reuss Voigt Hill
#
# Bulk Modulus (GPa) = 80.78491 83.80625 82.29558
# Shear Modulus (GPa) = 79.56427 24.21475 51.88951
#
# Velocity S-wave (km/s) = 6.42568 3.54487 5.18919
# Velocity P-wave (km/s) = 9.84760 7.76180 8.86625
#
# Compressibility (1/GPa) = 0.01237855
#
# Stress axis : x y z
#
# Youngs Moduli (GPa) = 97.94103 72.58625 90.32373
#
# Poissons Ratio (x) = 0.26598 0.34456
# Poissons Ratio (y) = 0.35889 0.34872
# Poissons Ratio (z) = 0.37362 0.28024
#
# Static dielectric constant tensor:
#      x y z
#    x 1.690530 0.000000 0.033110 
#    y 0.000000 1.692280 0.000000 
#    z 0.033110 0.000000 1.671430 
# 
# From -- ./inp_files/204482.got.cif
#   From: 2010.05.17/outbox.cif.g08.bks.cpg/sg15_103_cif.got.tgz:204482.got - 2010.06.03 18:47:42.
