data_PCOD9286377
_publ_section_title
;
Structure prediction by ZEFSAII (Michael W. Deem and Ramdas Pophale) SiO2 
 PCOD9286377
Probable space group: C 2/C
;
_chemical_formula_sum "Si O2"
_cell_formula_units_Z 44
_cell_length_a 12.033152
_cell_length_b 24.917077
_cell_length_c 10.050214
_cell_angle_alpha 90.000000
_cell_angle_beta 46.778504
_cell_angle_gamma 90.000000
_cell_volume 2195.874821
_symmetry_space_group_name_H-M "C 2/C"
_symmetry_group_IT_number 15
_symmetry_cell_setting 'monoclinic'
loop_
_space_group_symop_operation_xyz
x,y,z
-x,y,1/2-z
-x,-y,-z
x,-y,1/2+z
1/2+x,1/2+y,z
1/2-x,1/2+y,1/2-z
1/2-x,1/2-y,-z
1/2+x,1/2-y,1/2+z
loop_
_atom_site_type_symbol
_atom_site_label
_atom_site_fract_x
_atom_site_fract_y
_atom_site_fract_z
Si Si1 0.373279 0.042802 0.738178
Si Si2 0.325418 0.361344 0.042752
Si Si3 0.000000 0.255873 0.750000
Si Si4 0.677725 0.662668 0.263374
Si Si5 0.794014 0.282461 0.144743
Si Si6 0.579374 0.078536 0.326282
O O1 0.500000 0.046600 0.750000
O O2 0.229903 0.077871 0.898740
O O3 0.449685 0.068397 0.544117
O O4 0.339755 0.980067 0.746185
O O5 0.224959 0.325702 0.225286
O O6 0.299408 0.340925 0.914156
O O7 0.503168 0.354949 0.931211
O O8 0.860823 0.219574 0.814071
O O9 0.066612 0.289338 0.571672
O O10 0.692009 0.723409 0.302771
O O11 0.799774 0.623735 0.232283
O O12 0.500000 0.088900 0.250000
#
# Coordination Sequence:
#
# PCOD9286377 Si02
#       6
#     8   8   4   8   8   8
#     4  10  21  43  67  95 128 171 217 271 314 388
#     4  11  24  42  66  93 132 170 218 265 322 386
#     4  10  24  40  64  84 140 166 208 266 320 378
#     4  11  24  42  65  96 132 170 215 270 323 382
#     4  11  23  43  61  97 129 173 213 264 323 392
#     4  10  23  41  68  98 128 167 221 265 327 377
#
# _framework density 20.037572000000001
#
# number of rings (size 3 to 8) (size 9 to 14) (size 15 to 20)
#    0.000    1.455    3.636    0.545    3.818    2.182 
#    3.273    0.000    0.000    0.000    0.000    0.000 
#    0.000    0.000    0.000    0.000    0.000    0.000 
#
# Total GULP energy -123030.357054 kJ/mol
# GULP energy per Si atom -5592.288957 kJ/mol
# Density = 1.999197 g / cm^3
# Si number density = 20.037572 Si / 1000 Ang^3
#
#
#
# Elastic Constant Matrix: (Units=GPa)
#
#
# Indices 1 2 3 4 5 6 
#
# 1 89.5221 44.8206 25.8839 0.0000 4.6646 0.0000
# 2 44.8206 120.4162 43.0776 0.0000 -6.8035 0.0000
# 3 25.8839 43.0776 125.8099 0.0000 16.2880 0.0000
# 4 0.0000 0.0000 0.0000 26.4627 0.0000 -0.4236
# 5 4.6646 -6.8035 16.2880 0.0000 27.7521 0.0000
# 6 0.0000 0.0000 0.0000 -0.4236 0.0000 17.6107
#
#
#
# Elastic Compliance Matrix: (Units=1/GPa)
#
#
# Indices 1 2 3 4 5 6 
#
# 1 0.014145 -0.005192 -0.000714 0.000000 -0.003231 0.000000
# 2 -0.005192 0.011937 -0.003800 0.000000 0.006029 0.000000
# 3 -0.000714 -0.003800 0.010283 0.000000 -0.006847 0.000000
# 4 0.000000 0.000000 0.000000 0.037804 0.000000 0.000909
# 5 -0.003231 0.006029 -0.006847 0.000000 0.042073 0.000000
# 6 0.000000 0.000000 0.000000 0.000909 0.000000 0.056806
#
#
# Mechanical properties :
#
#
# Convention : Reuss Voigt Hill
#
# Bulk Modulus (GPa) = 58.98591 62.59028 60.78809
# Shear Modulus (GPa) = 25.23868 29.16284 27.20076
#
# Velocity S-wave (km/s) = 3.55289 3.81912 3.68841
# Velocity P-wave (km/s) = 6.80678 7.12403 6.96721
#
# Compressibility (1/GPa) = 0.01695320
#
# Stress axis : x y z
#
# Youngs Moduli (GPa) = 70.69799 83.77340 97.24989
#
# Poissons Ratio (x) = 0.43495 0.06944
# Poissons Ratio (y) = 0.36706 0.36951
# Poissons Ratio (z) = 0.05048 0.31831
#
# Static dielectric constant tensor:
#      x y z
#    x 1.692290 0.000000 0.014460 
#    y 0.000000 1.689070 0.000000 
#    z 0.014460 0.000000 1.721120 
# 
# From -- ./inp_files/32729.got.cif
#   From: 2010.05.17/outbox.cif.g08.bks.cpg/sg15_17_cif.got.tgz:32729.got - 2010.06.03 18:47:42.
