data_PCOD9286912
_publ_section_title
;
Structure prediction by ZEFSAII (Michael W. Deem and Ramdas Pophale) SiO2 
 PCOD9286912
Probable space group: C 2/C
;
_chemical_formula_sum "Si O2"
_cell_formula_units_Z 28
_cell_length_a 13.830833
_cell_length_b 10.753368
_cell_length_c 9.949675
_cell_angle_alpha 90.000000
_cell_angle_beta 128.554124
_cell_angle_gamma 90.000000
_cell_volume 1157.229416
_symmetry_space_group_name_H-M "C 2/C"
_symmetry_group_IT_number 15
_symmetry_cell_setting 'monoclinic'
loop_
_space_group_symop_operation_xyz
x,y,z
-x,y,1/2-z
-x,-y,-z
x,-y,1/2+z
1/2+x,1/2+y,z
1/2-x,1/2+y,1/2-z
1/2-x,1/2-y,-z
1/2+x,1/2-y,1/2+z
loop_
_atom_site_type_symbol
_atom_site_label
_atom_site_fract_x
_atom_site_fract_y
_atom_site_fract_z
Si Si1 0.855839 0.022096 0.383126
Si Si2 0.870246 0.242490 0.200743
Si Si3 0.735921 0.111251 0.541939
Si Si4 0.000000 0.479614 0.250000
O O1 0.832597 0.155310 0.291138
O O2 0.809407 0.029467 0.494645
O O3 0.793608 0.917975 0.235759
O O4 0.000000 0.000000 0.500000
O O5 0.000000 0.188339 0.250000
O O6 0.920695 0.382513 0.270874
O O7 0.750000 0.250000 0.000000
O O8 0.750000 0.250000 0.500000
O O9 0.595242 0.064443 0.412509
#
# Coordination Sequence:
#
# PCOD9286912 Si02
#       4
#     8   8   8   4
#     4  12  27  48  76 114 157 199 260 319 395 464
#     4  10  21  44  77 108 148 205 258 311 387 456
#     4  12  30  49  76 116 157 203 261 322 392 467
#     4  10  26  48  78 104 158 200 266 308 402 454
#
# _framework density 24.195720999999999
#
# number of rings (size 3 to 8) (size 9 to 14) (size 15 to 20)
#    0.857    0.000    2.857    2.571    8.000    3.429 
#    0.000    0.000    0.000    0.000    0.000    0.000 
#    0.000    0.000    0.000    0.000    0.000    0.000 
#
# Total GULP energy -78313.744921 kJ/mol
# GULP energy per Si atom -5593.838923 kJ/mol
# Density = 2.414065 g / cm^3
# Si number density = 24.195721 Si / 1000 Ang^3
#
#
#
# Elastic Constant Matrix: (Units=GPa)
#
#
# Indices 1 2 3 4 5 6 
#
# 1 124.3585 15.3145 63.5636 0.0000 13.2480 0.0000
# 2 15.3145 146.7809 28.6062 0.0000 19.7977 0.0000
# 3 63.5636 28.6062 117.8476 0.0000 26.0859 0.0000
# 4 0.0000 0.0000 0.0000 40.1183 0.0000 7.1225
# 5 13.2480 19.7977 26.0859 0.0000 62.6626 0.0000
# 6 0.0000 0.0000 0.0000 7.1225 0.0000 52.2077
#
#
#
# Elastic Compliance Matrix: (Units=1/GPa)
#
#
# Indices 1 2 3 4 5 6 
#
# 1 0.011103 -0.000006 -0.006023 0.000000 0.000162 0.000000
# 2 -0.000006 0.007318 -0.001389 0.000000 -0.001732 0.000000
# 3 -0.006023 -0.001389 0.012879 0.000000 -0.003649 0.000000
# 4 0.000000 0.000000 0.000000 0.025545 0.000000 -0.003485
# 5 0.000162 -0.001732 -0.003649 0.000000 0.017991 0.000000
# 6 0.000000 0.000000 0.000000 -0.003485 0.000000 0.019630
#
#
# Mechanical properties :
#
#
# Convention : Reuss Voigt Hill
#
# Bulk Modulus (GPa) = 60.74377 67.10617 63.92497
# Shear Modulus (GPa) = 43.55716 49.76457 46.66087
#
# Velocity S-wave (km/s) = 4.24748 4.54006 4.39621
# Velocity P-wave (km/s) = 7.01530 7.43491 7.22815
#
# Compressibility (1/GPa) = 0.01646259
#
# Stress axis : x y z
#
# Youngs Moduli (GPa) = 90.06212 136.64964 77.64411
#
# Poissons Ratio (x) = 0.00089 0.46766
# Poissons Ratio (y) = 0.00058 0.10788
# Poissons Ratio (z) = 0.54246 0.18986
#
# Static dielectric constant tensor:
#      x y z
#    x 1.964720 0.000000 -0.078040 
#    y 0.000000 2.058200 0.000000 
#    z -0.078040 0.000000 1.903700 
# 
# From -- ./inp_files/36666.got.cif
#   From: 2010.05.17/outbox.cif.g08.bks.cpg/sg15_19_cif.got.tgz:36666.got - 2010.06.03 18:47:42.
