data_PCOD9286901
_publ_section_title
;
Structure prediction by ZEFSAII (Michael W. Deem and Ramdas Pophale) SiO2 
 PCOD9286901
Probable space group: C 2/C
;
_chemical_formula_sum "Si O2"
_cell_formula_units_Z 40
_cell_length_a 8.755351
_cell_length_b 11.721187
_cell_length_c 13.972878
_cell_angle_alpha 90.000000
_cell_angle_beta 92.540295
_cell_angle_gamma 90.000000
_cell_volume 1432.531009
_symmetry_space_group_name_H-M "C 2/C"
_symmetry_group_IT_number 15
_symmetry_cell_setting 'monoclinic'
loop_
_space_group_symop_operation_xyz
x,y,z
-x,y,1/2-z
-x,-y,-z
x,-y,1/2+z
1/2+x,1/2+y,z
1/2-x,1/2+y,1/2-z
1/2-x,1/2-y,-z
1/2+x,1/2-y,1/2+z
loop_
_atom_site_type_symbol
_atom_site_label
_atom_site_fract_x
_atom_site_fract_y
_atom_site_fract_z
Si Si1 0.160689 0.933097 0.994436
Si Si2 0.650021 0.813431 0.136270
Si Si3 0.665619 0.598052 0.273051
Si Si4 0.912558 0.519186 0.133930
Si Si5 0.533551 0.731642 0.927309
O O1 0.184276 0.896942 0.886611
O O2 0.127715 0.829585 0.066537
O O3 0.170545 0.162079 0.879663
O O4 0.306358 0.998957 0.038264
O O5 0.532544 0.917123 0.143900
O O6 0.655514 0.722187 0.222107
O O7 0.520802 0.854090 0.877185
O O8 0.500000 0.543108 0.250000
O O9 0.794495 0.530129 0.218452
O O10 0.590609 0.749394 0.038498
O O11 0.500000 0.500000 0.000000
#
# Coordination Sequence:
#
# PCOD9286901 Si02
#       5
#     8   8   8   8   8
#     4  12  23  43  79 109 152 206 253 315 384 453
#     4  10  21  44  74  99 146 197 244 312 380 443
#     4  11  22  46  69 107 156 201 245 314 391 446
#     4  11  25  45  76 112 143 203 262 311 376 459
#     4  10  22  44  73 105 148 193 252 315 378 454
#
# _framework density 27.922606999999999
#
# number of rings (size 3 to 8) (size 9 to 14) (size 15 to 20)
#    0.000    1.200    4.000    3.000    0.000    2.400 
#    7.200    4.000    0.000   21.600    0.000    0.000 
#    0.000    0.000    0.000    0.000    0.000    0.000 
#
# Total GULP energy -112397.704883 kJ/mol
# GULP energy per Si atom -5619.885244 kJ/mol
# Density = 2.785905 g / cm^3
# Si number density = 27.922607 Si / 1000 Ang^3
#
#
#
# Elastic Constant Matrix: (Units=GPa)
#
#
# Indices 1 2 3 4 5 6 
#
# 1 174.8721 109.2880 73.0089 0.0000 -41.3075 0.0000
# 2 109.2880 158.2623 61.0712 0.0000 -20.1653 0.0000
# 3 73.0089 61.0712 169.7926 0.0000 -29.9017 0.0000
# 4 0.0000 0.0000 0.0000 40.3219 0.0000 3.9252
# 5 -41.3075 -20.1653 -29.9017 0.0000 58.3846 0.0000
# 6 0.0000 0.0000 0.0000 3.9252 0.0000 65.8699
#
#
#
# Elastic Compliance Matrix: (Units=1/GPa)
#
#
# Indices 1 2 3 4 5 6 
#
# 1 0.012039 -0.006974 -0.001750 0.000000 0.005212 0.000000
# 2 -0.006974 0.011468 -0.001426 0.000000 -0.001704 0.000000
# 3 -0.001750 -0.001426 0.007529 0.000000 0.002125 0.000000
# 4 0.000000 0.000000 0.000000 0.024945 0.000000 -0.001486
# 5 0.005212 -0.001704 0.002125 0.000000 0.021316 0.000000
# 6 0.000000 0.000000 0.000000 -0.001486 0.000000 0.015270
#
#
# Mechanical properties :
#
#
# Convention : Reuss Voigt Hill
#
# Bulk Modulus (GPa) = 93.14866 109.96259 101.55562
# Shear Modulus (GPa) = 42.93854 50.21919 46.57886
#
# Velocity S-wave (km/s) = 3.92569 4.24549 4.08872
# Velocity P-wave (km/s) = 7.34712 7.96862 7.66417
#
# Compressibility (1/GPa) = 0.01073553
#
# Stress axis : x y z
#
# Youngs Moduli (GPa) = 83.06448 87.20187 132.81408
#
# Poissons Ratio (x) = 0.60813 0.23246
# Poissons Ratio (y) = 0.57928 0.18940
# Poissons Ratio (z) = 0.14538 0.12435
#
# Static dielectric constant tensor:
#      x y z
#    x 2.159110 0.000000 -0.014610 
#    y 0.000000 2.262940 0.000000 
#    z -0.014610 0.000000 2.147170 
# 
# From -- ./inp_files/141922.got.cif
#   From: 2010.05.17/outbox.cif.g08.bks.cpg/sg15_71_cif.got.tgz:141922.got - 2010.06.03 18:47:42.
