data_PCOD9286332
_publ_section_title
;
Structure prediction by ZEFSAII (Michael W. Deem and Ramdas Pophale) SiO2 
 PCOD9286332
Probable space group: C 2/C
;
_chemical_formula_sum "Si O2"
_cell_formula_units_Z 52
_cell_length_a 11.908869
_cell_length_b 26.997206
_cell_length_c 7.323567
_cell_angle_alpha 90.000000
_cell_angle_beta 55.656111
_cell_angle_gamma 90.000000
_cell_volume 1944.091056
_symmetry_space_group_name_H-M "C 2/C"
_symmetry_group_IT_number 15
_symmetry_cell_setting 'monoclinic'
loop_
_space_group_symop_operation_xyz
x,y,z
-x,y,1/2-z
-x,-y,-z
x,-y,1/2+z
1/2+x,1/2+y,z
1/2-x,1/2+y,1/2-z
1/2-x,1/2-y,-z
1/2+x,1/2-y,1/2+z
loop_
_atom_site_type_symbol
_atom_site_label
_atom_site_fract_x
_atom_site_fract_y
_atom_site_fract_z
Si Si1 0.473756 0.077549 0.483715
Si Si2 0.380997 0.334469 0.720303
Si Si3 0.261194 0.438641 0.822302
Si Si4 0.305150 0.749827 0.743074
Si Si5 0.197088 0.045963 0.646420
Si Si6 0.500000 0.375961 0.250000
Si Si7 0.558592 0.808783 0.398513
O O1 0.500000 0.062108 0.250000
O O2 0.598192 0.060327 0.493822
O O3 0.326796 0.054624 0.656173
O O4 0.466439 0.137198 0.493180
O O5 0.500000 0.319908 0.750000
O O6 0.320018 0.387157 0.837552
O O7 0.267740 0.292996 0.805278
O O8 0.428171 0.342476 0.466551
O O9 0.333960 0.488092 0.823074
O O10 0.276778 0.438651 0.587460
O O11 0.463686 0.765570 0.578519
O O12 0.221222 0.701492 0.752511
O O13 0.250000 0.750000 0.000000
O O14 0.084557 0.085868 0.799207
O O15 0.500000 0.811202 0.250000
#
# Coordination Sequence:
#
# PCOD9286332 Si02
#       7
#     8   8   8   8   8   4   8
#     4  10  21  43  66  97 137 186 236 294 359 433
#     4  11  26  46  73 102 149 187 242 306 363 445
#     4  10  22  41  65 100 140 183 243 291 361 428
#     4  12  27  49  76 106 141 195 242 302 377 449
#     4  10  23  37  66  95 140 185 237 295 354 435
#     4  10  26  42  66 110 138 194 246 290 372 436
#     4  12  27  45  74 108 145 182 245 305 375 444
#
# _framework density 26.747719
#
# number of rings (size 3 to 8) (size 9 to 14) (size 15 to 20)
#    0.000    1.231    1.538    2.769    9.692    3.692 
#    0.000    0.000    0.000    0.000    0.000    0.000 
#    0.000    0.000    0.000    0.000    0.000    0.000 
#
# Total GULP energy -145603.136586 kJ/mol
# GULP energy per Si atom -5600.120638 kJ/mol
# Density = 2.668684 g / cm^3
# Si number density = 26.747719 Si / 1000 Ang^3
#
#
#
# Elastic Constant Matrix: (Units=GPa)
#
#
# Indices 1 2 3 4 5 6 
#
# 1 98.2842 29.7830 16.0579 0.0000 -4.3897 0.0000
# 2 29.7830 111.5718 -11.7776 0.0000 -3.7260 0.0000
# 3 16.0579 -11.7776 64.1588 0.0000 4.2376 0.0000
# 4 0.0000 0.0000 0.0000 19.2415 0.0000 -1.6154
# 5 -4.3897 -3.7260 4.2376 0.0000 42.9560 0.0000
# 6 0.0000 0.0000 0.0000 -1.6154 0.0000 34.9991
#
#
#
# Elastic Compliance Matrix: (Units=1/GPa)
#
#
# Indices 1 2 3 4 5 6 
#
# 1 0.011907 -0.003528 -0.003712 0.000000 0.001277 0.000000
# 2 -0.003528 0.010202 0.002739 0.000000 0.000254 0.000000
# 3 -0.003712 0.002739 0.017139 0.000000 -0.001833 0.000000
# 4 0.000000 0.000000 0.000000 0.052173 0.000000 0.002408
# 5 0.001277 0.000254 -0.001833 0.000000 0.023613 0.000000
# 6 0.000000 0.000000 0.000000 0.002408 0.000000 0.028683
#
#
# Mechanical properties :
#
#
# Convention : Reuss Voigt Hill
#
# Bulk Modulus (GPa) = 33.06134 38.01569 35.53851
# Shear Modulus (GPa) = 30.71218 35.43609 33.07414
#
# Velocity S-wave (km/s) = 3.39221 3.64377 3.52024
# Velocity P-wave (km/s) = 5.26593 5.65210 5.46243
#
# Compressibility (1/GPa) = 0.03024681
#
# Stress axis : x y z
#
# Youngs Moduli (GPa) = 83.98360 98.01872 58.34571
#
# Poissons Ratio (x) = 0.34578 0.21658
# Poissons Ratio (y) = 0.29627 -0.15980
# Poissons Ratio (z) = 0.31175 -0.26847
#
# Static dielectric constant tensor:
#      x y z
#    x 2.128710 0.000000 -0.085220 
#    y 0.000000 2.052710 0.000000 
#    z -0.085220 0.000000 2.204600 
# 
# From -- ./inp_files/34118.got.cif
#   From: 2010.05.17/outbox.cif.g08.bks.cpg/sg15_18_cif.got.tgz:34118.got - 2010.06.03 18:47:42.
