data_PCOD9286811
_publ_section_title
;
Structure prediction by ZEFSAII (Michael W. Deem and Ramdas Pophale) SiO2 
 PCOD9286811
Probable space group: C 2/C
;
_chemical_formula_sum "Si O2"
_cell_formula_units_Z 44
_cell_length_a 8.577097
_cell_length_b 11.026036
_cell_length_c 25.576765
_cell_angle_alpha 90.000000
_cell_angle_beta 58.026671
_cell_angle_gamma 90.000000
_cell_volume 2051.880595
_symmetry_space_group_name_H-M "C 2/C"
_symmetry_group_IT_number 15
_symmetry_cell_setting 'monoclinic'
loop_
_space_group_symop_operation_xyz
x,y,z
-x,y,1/2-z
-x,-y,-z
x,-y,1/2+z
1/2+x,1/2+y,z
1/2-x,1/2+y,1/2-z
1/2-x,1/2-y,-z
1/2+x,1/2-y,1/2+z
loop_
_atom_site_type_symbol
_atom_site_label
_atom_site_fract_x
_atom_site_fract_y
_atom_site_fract_z
Si Si1 0.500000 0.158640 0.250000
Si Si2 0.707794 0.116422 0.985404
Si Si3 0.119793 0.364355 0.027253
Si Si4 0.577594 0.509979 0.652138
Si Si5 0.788309 0.536627 0.723694
Si Si6 0.101395 0.246568 0.342090
O O1 0.322032 0.224674 0.306255
O O2 0.594829 0.075100 0.276621
O O3 0.495128 0.123715 0.005567
O O4 0.834193 0.079573 0.912899
O O5 0.750000 0.250000 0.000000
O O6 0.714004 0.995153 0.020657
O O7 0.975911 0.320557 0.095680
O O8 0.250000 0.250000 0.000000
O O9 0.708423 0.506060 0.680056
O O10 0.385637 0.562483 0.708106
O O11 0.514208 0.374934 0.645647
O O12 0.912257 0.656461 0.701762
#
# Coordination Sequence:
#
# PCOD9286811 Si02
#       6
#     4   8   8   8   8   8
#     4  10  24  40  66 102 128 176 222 274 348 408
#     4  11  25  46  69 100 136 184 229 278 340 402
#     4  11  24  46  67  98 136 178 225 279 334 399
#     4  10  21  44  69  97 135 177 220 284 338 403
#     4  10  22  42  66  98 133 174 220 277 347 402
#     4  11  22  43  68  96 138 169 224 279 335 404
#
# _framework density 21.443740999999999
#
# number of rings (size 3 to 8) (size 9 to 14) (size 15 to 20)
#    0.000    1.455    3.636    1.091    0.000    5.091 
#    9.818    0.000    0.000    0.000    0.000    0.000 
#    0.000    0.000    0.000    0.000    0.000    0.000 
#
# Total GULP energy -122661.754633 kJ/mol
# GULP energy per Si atom -5575.534302 kJ/mol
# Density = 2.139493 g / cm^3
# Si number density = 21.443741 Si / 1000 Ang^3
#
#
#
# Elastic Constant Matrix: (Units=GPa)
#
#
# Indices 1 2 3 4 5 6 
#
# 1 57.3197 51.0726 33.7463 0.0000 -5.3832 0.0000
# 2 51.0726 191.5903 79.9526 0.0000 -5.1182 0.0000
# 3 33.7463 79.9526 133.1536 0.0000 -15.5284 0.0000
# 4 0.0000 0.0000 0.0000 -19.6702 0.0000 -210.0190
# 5 -5.3832 -5.1182 -15.5284 0.0000 20.7227 0.0000
# 6 0.0000 0.0000 0.0000 -210.0190 0.0000 -538.0066
#
#
#
# Elastic Compliance Matrix: (Units=1/GPa)
#
#
# Indices 1 2 3 4 5 6 
#
# 1 0.023888 -0.005213 -0.002575 0.000000 0.002988 0.000000
# 2 -0.005213 0.008148 -0.003829 0.000000 -0.002211 0.000000
# 3 -0.002575 -0.003829 0.011257 0.000000 0.006821 0.000000
# 4 0.000000 0.000000 0.000000 0.016048 0.000000 -0.006264
# 5 0.002988 -0.002211 0.006821 0.000000 0.053598 0.000000
# 6 0.000000 0.000000 0.000000 -0.006264 0.000000 0.000587
#
#
# Mechanical properties :
#
#
# Convention : Reuss Voigt Hill
#
# Bulk Modulus (GPa) = 49.85558 79.06740 64.46149
# Shear Modulus (GPa) = 34.85607 -92.90467 -29.02430
#
# Velocity S-wave (km/s) = 4.03608 -6.58930 -3.68300
# Velocity P-wave (km/s) = 6.70969 4.57600 3.46988
#
# Compressibility (1/GPa) = 0.02005793
#
# Stress axis : x y z
#
# Youngs Moduli (GPa) = 41.86215 122.72853 88.82974
#
# Poissons Ratio (x) = 0.63982 0.22876
# Poissons Ratio (y) = 0.21824 0.34014
# Poissons Ratio (z) = 0.10781 0.46995
#
# Static dielectric constant tensor:
#      x y z
#    x 1.796520 0.000000 0.010430 
#    y 0.000000 1.862550 0.000000 
#    z 0.010430 0.000000 1.929670 
# 
# From -- ./inp_files/262804.got.cif
#   From: 2010.05.17/outbox.cif.g08.bks.cpg/sg15_132_cif.got.tgz:262804.got - 2010.06.03 18:47:42.
