data_PCOD9286112
_publ_section_title
;
Structure prediction by ZEFSAII (Michael W. Deem and Ramdas Pophale) SiO2 
 PCOD9286112
Probable space group: C 2/C
;
_chemical_formula_sum "Si O2"
_cell_formula_units_Z 44
_cell_length_a 16.918915
_cell_length_b 11.907375
_cell_length_c 9.156702
_cell_angle_alpha 90.000000
_cell_angle_beta 71.691419
_cell_angle_gamma 90.000000
_cell_volume 1751.325962
_symmetry_space_group_name_H-M "C 2/C"
_symmetry_group_IT_number 15
_symmetry_cell_setting 'monoclinic'
loop_
_space_group_symop_operation_xyz
x,y,z
-x,y,1/2-z
-x,-y,-z
x,-y,1/2+z
1/2+x,1/2+y,z
1/2-x,1/2+y,1/2-z
1/2-x,1/2-y,-z
1/2+x,1/2-y,1/2+z
loop_
_atom_site_type_symbol
_atom_site_label
_atom_site_fract_x
_atom_site_fract_y
_atom_site_fract_z
Si Si1 0.739519 0.954346 0.484276
Si Si2 0.009596 0.767653 0.412293
Si Si3 0.750000 0.250000 0.500000
Si Si4 0.590871 0.684681 0.274349
Si Si5 0.344222 0.879571 0.681272
Si Si6 0.348074 0.563741 0.664805
O O1 0.688284 0.890526 0.635765
O O2 0.806018 0.894116 0.340818
O O3 0.680610 0.013443 0.400646
O O4 0.786972 0.051632 0.557039
O O5 0.060633 0.652712 0.385442
O O6 0.069886 0.869954 0.427740
O O7 0.000000 0.796487 0.250000
O O8 0.929094 0.759639 0.557994
O O9 0.655710 0.249476 0.636785
O O10 0.707780 0.216673 0.368826
O O11 0.500000 0.677358 0.250000
O O12 0.627238 0.562844 0.299655
#
# Coordination Sequence:
#
# PCOD9286112 Si02
#       6
#     8   8   4   8   8   8
#     4  10  21  42  72 103 142 184 251 282 362 428
#     4  12  26  43  66 108 150 183 243 299 362 430
#     4  12  22  46  78 100 148 192 242 286 364 432
#     4  12  23  43  73 110 152 192 232 293 371 439
#     4  11  24  46  71 105 135 202 233 300 353 426
#     4  11  21  41  71 110 148 185 222 304 370 441
#
# _framework density 25.123822000000001
#
# number of rings (size 3 to 8) (size 9 to 14) (size 15 to 20)
#    0.000    0.727    5.455    4.364    0.000    0.727 
#    6.545    0.909    0.000    0.000    0.000    0.000 
#    0.000    0.000    0.000    0.000    0.000    0.000 
#
# Total GULP energy -122703.110948 kJ/mol
# GULP energy per Si atom -5577.414134 kJ/mol
# Density = 2.506664 g / cm^3
# Si number density = 25.123822 Si / 1000 Ang^3
#
#
#
# Elastic Constant Matrix: (Units=GPa)
#
#
# Indices 1 2 3 4 5 6 
#
# 1 68.5635 9.7576 61.9866 0.0000 -14.5994 0.0000
# 2 9.7576 30.3885 47.5778 0.0000 -12.6999 0.0000
# 3 61.9866 47.5778 294.5973 0.0000 -21.3766 0.0000
# 4 0.0000 0.0000 0.0000 30.4538 0.0000 8.1887
# 5 -14.5994 -12.6999 -21.3766 0.0000 39.1123 0.0000
# 6 0.0000 0.0000 0.0000 8.1887 0.0000 21.9082
#
#
#
# Elastic Compliance Matrix: (Units=1/GPa)
#
#
# Indices 1 2 3 4 5 6 
#
# 1 0.019071 0.002558 -0.004008 0.000000 0.005759 0.000000
# 2 0.002558 0.049296 -0.007569 0.000000 0.012825 0.000000
# 3 -0.004008 -0.007569 0.005387 0.000000 -0.001010 0.000000
# 4 0.000000 0.000000 0.000000 0.036506 0.000000 -0.013645
# 5 0.005759 0.012825 -0.001010 0.000000 0.031329 0.000000
# 6 0.000000 0.000000 0.000000 -0.013645 0.000000 0.050745
#
#
# Mechanical properties :
#
#
# Convention : Reuss Voigt Hill
#
# Bulk Modulus (GPa) = 17.94818 70.24371 44.09594
# Shear Modulus (GPa) = 21.83951 36.57670 29.20810
#
# Velocity S-wave (km/s) = 2.95155 3.81971 3.41334
# Velocity P-wave (km/s) = 4.33300 6.89009 5.75535
#
# Compressibility (1/GPa) = 0.05571596
#
# Stress axis : x y z
#
# Youngs Moduli (GPa) = 52.43658 20.28566 185.63402
#
# Poissons Ratio (x) = -0.05190 0.74402
# Poissons Ratio (y) = -0.13415 1.40507
# Poissons Ratio (z) = 0.21017 0.15354
#
# Static dielectric constant tensor:
#      x y z
#    x 2.210210 0.000000 0.036380 
#    y 0.000000 5.689290 0.000000 
#    z 0.036380 0.000000 1.895650 
# 
# From -- ./inp_files/47383.got.cif
#   From: 2010.05.17/outbox.cif.g08.bks.cpg/sg15_24_cif.got.tgz:47383.got - 2010.06.03 18:47:42.
