data_PCOD9286261
_publ_section_title
;
Structure prediction by ZEFSAII (Michael W. Deem and Ramdas Pophale) SiO2 
 PCOD9286261
Probable space group: C 2/C
;
_chemical_formula_sum "Si O2"
_cell_formula_units_Z 60
_cell_length_a 13.604291
_cell_length_b 11.609059
_cell_length_c 18.408778
_cell_angle_alpha 90.000000
_cell_angle_beta 95.670231
_cell_angle_gamma 90.000000
_cell_volume 2893.128277
_symmetry_space_group_name_H-M "C 2/C"
_symmetry_group_IT_number 15
_symmetry_cell_setting 'monoclinic'
loop_
_space_group_symop_operation_xyz
x,y,z
-x,y,1/2-z
-x,-y,-z
x,-y,1/2+z
1/2+x,1/2+y,z
1/2-x,1/2+y,1/2-z
1/2-x,1/2-y,-z
1/2+x,1/2-y,1/2+z
loop_
_atom_site_type_symbol
_atom_site_label
_atom_site_fract_x
_atom_site_fract_y
_atom_site_fract_z
Si Si1 0.200169 0.720472 0.380422
Si Si2 0.397016 0.358665 0.250402
Si Si3 0.099850 0.636066 0.151062
Si Si4 0.204531 0.914240 0.745540
Si Si5 0.177843 0.358547 0.500643
Si Si6 0.510393 0.088399 0.877947
Si Si7 0.000000 0.774497 0.750000
Si Si8 0.164343 0.606271 0.521644
O O1 0.133719 0.804655 0.328177
O O2 0.254611 0.641075 0.325572
O O3 0.145566 0.649595 0.438949
O O4 0.276649 0.798951 0.429540
O O5 0.500000 0.423009 0.250000
O O6 0.414840 0.253402 0.306066
O O7 0.317193 0.451321 0.268427
O O8 0.207821 0.594864 0.188646
O O9 0.109570 0.662792 0.066419
O O10 0.018724 0.535844 0.159156
O O11 0.103232 0.847120 0.760227
O O12 0.250000 0.250000 0.500000
O O13 0.222842 0.485188 0.521014
O O14 0.115017 0.383773 0.423241
O O15 0.491803 0.189334 0.818775
O O16 0.434554 0.089231 0.940005
#
# Coordination Sequence:
#
# PCOD9286261 Si02
#       8
#     8   8   8   8   8   8   4   8
#     4  10  23  41  68  90 128 176 214 267 334 393
#     4  11  24  38  64  97 131 165 216 276 327 394
#     4  10  24  41  66  92 131 172 223 271 331 397
#     4  11  23  44  64  96 135 173 220 273 338 402
#     4  11  24  41  64  98 132 171 215 278 331 393
#     4  11  24  41  68  93 132 169 225 272 327 400
#     4  12  24  42  66  96 130 178 220 272 344 394
#     4  10  21  43  65  93 127 171 223 266 327 397
#
# _framework density 20.738797000000002
#
# number of rings (size 3 to 8) (size 9 to 14) (size 15 to 20)
#    0.000    1.333    2.000    4.000    8.400    1.067 
#    0.000    0.000    0.000    4.800    0.000    0.000 
#    0.000    0.000    0.000    0.000    0.000    0.000 
#
# Total GULP energy -167454.671274 kJ/mol
# GULP energy per Si atom -5581.822376 kJ/mol
# Density = 2.069159 g / cm^3
# Si number density = 20.738797 Si / 1000 Ang^3
#
#
#
# Elastic Constant Matrix: (Units=GPa)
#
#
# Indices 1 2 3 4 5 6 
#
# 1 71.7252 39.4929 32.3584 0.0000 14.6022 0.0000
# 2 39.4929 120.0425 49.6531 0.0000 12.9417 0.0000
# 3 32.3584 49.6531 115.1833 0.0000 9.0414 0.0000
# 4 0.0000 0.0000 0.0000 12.5919 0.0000 7.5777
# 5 14.6022 12.9417 9.0414 0.0000 32.4525 0.0000
# 6 0.0000 0.0000 0.0000 7.5777 0.0000 37.0374
#
#
#
# Elastic Compliance Matrix: (Units=1/GPa)
#
#
# Indices 1 2 3 4 5 6 
#
# 1 0.018881 -0.004345 -0.002965 0.000000 -0.005937 0.000000
# 2 -0.004345 0.011410 -0.003572 0.000000 -0.001600 0.000000
# 3 -0.002965 -0.003572 0.011081 0.000000 -0.000328 0.000000
# 4 0.000000 0.000000 0.000000 0.090567 0.000000 -0.018530
# 5 -0.005937 -0.001600 -0.000328 0.000000 0.034215 0.000000
# 6 0.000000 0.000000 0.000000 -0.018530 0.000000 0.030791
#
#
# Mechanical properties :
#
#
# Convention : Reuss Voigt Hill
#
# Bulk Modulus (GPa) = 51.00421 61.10662 56.05542
# Shear Modulus (GPa) = 22.19805 28.77948 25.48876
#
# Velocity S-wave (km/s) = 3.27519 3.72924 3.50957
# Velocity P-wave (km/s) = 6.24095 6.93339 6.59626
#
# Compressibility (1/GPa) = 0.01960622
#
# Stress axis : x y z
#
# Youngs Moduli (GPa) = 52.96353 87.64245 90.24841
#
# Poissons Ratio (x) = 0.38082 0.26760
# Poissons Ratio (y) = 0.23014 0.32240
# Poissons Ratio (z) = 0.15704 0.31309
#
# Static dielectric constant tensor:
#      x y z
#    x 1.801720 0.000000 0.017090 
#    y 0.000000 1.755700 0.000000 
#    z 0.017090 0.000000 1.729190 
# 
# From -- ./inp_files/204070.got.cif
#   From: 2010.05.17/outbox.cif.g08.bks.cpg/sg15_103_cif.got.tgz:204070.got - 2010.06.03 18:47:42.
