data_PCOD9286114
_publ_section_title
;
Structure prediction by ZEFSAII (Michael W. Deem and Ramdas Pophale) SiO2 
 PCOD9286114
Probable space group: C 2/C
;
_chemical_formula_sum "Si O2"
_cell_formula_units_Z 56
_cell_length_a 5.396614
_cell_length_b 17.186006
_cell_length_c 27.695152
_cell_angle_alpha 90.000000
_cell_angle_beta 64.433342
_cell_angle_gamma 90.000000
_cell_volume 2317.111642
_symmetry_space_group_name_H-M "C 2/C"
_symmetry_group_IT_number 15
_symmetry_cell_setting 'monoclinic'
loop_
_space_group_symop_operation_xyz
x,y,z
-x,y,1/2-z
-x,-y,-z
x,-y,1/2+z
1/2+x,1/2+y,z
1/2-x,1/2+y,1/2-z
1/2-x,1/2-y,-z
1/2+x,1/2-y,1/2+z
loop_
_atom_site_type_symbol
_atom_site_label
_atom_site_fract_x
_atom_site_fract_y
_atom_site_fract_z
Si Si1 0.306275 0.575223 0.510322
Si Si2 0.151539 0.793550 0.303125
Si Si3 0.075663 0.924257 0.888634
Si Si4 0.741839 0.428337 0.099884
Si Si5 0.131666 0.647052 0.815605
Si Si6 0.957581 0.211465 0.944795
Si Si7 0.837963 0.653070 0.143661
O O1 0.500000 0.500000 0.500000
O O2 0.388424 0.602968 0.449871
O O3 0.356409 0.649634 0.540955
O O4 0.008455 0.541960 0.549068
O O5 0.249602 0.843633 0.248708
O O6 0.313026 0.836832 0.333092
O O7 0.822552 0.788521 0.325721
O O8 0.234887 0.704744 0.303321
O O9 0.927207 0.890621 0.853781
O O10 0.389397 0.898610 0.870217
O O11 0.014816 0.016111 0.888883
O O12 0.805131 0.421599 0.151973
O O13 0.703308 0.344760 0.078425
O O14 0.084057 0.282548 0.903746
O O15 0.750000 0.250000 0.000000
#
# Coordination Sequence:
#
# PCOD9286114 Si02
#       7
#     8   8   8   8   8   8   8
#     4  12  25  44  65  99 153 202 238 293 359 427
#     4  10  21  42  72 106 137 170 229 312 367 418
#     4  12  27  43  67  99 154 192 237 283 368 428
#     4  12  26  43  69 102 143 199 238 296 356 439
#     4  10  22  41  73 107 132 176 241 294 366 432
#     4  12  25  39  67 100 139 187 252 285 343 419
#     4  12  25  44  68 107 139 187 235 306 354 429
#
# _framework density 24.168022000000001
#
# number of rings (size 3 to 8) (size 9 to 14) (size 15 to 20)
#    0.000    0.571    4.286    3.857    2.000    1.143 
#    0.000    0.000    0.000   13.714    0.000    0.000 
#    0.000    0.000    0.000    0.000    0.000    0.000 
#
# Total GULP energy -156107.609155 kJ/mol
# GULP energy per Si atom -5575.271756 kJ/mol
# Density = 2.411301 g / cm^3
# Si number density = 24.168022 Si / 1000 Ang^3
#
#
#
# Elastic Constant Matrix: (Units=GPa)
#
#
# Indices 1 2 3 4 5 6 
#
# 1 132.2509 45.8646 34.6843 0.0000 26.4656 0.0000
# 2 45.8646 104.4061 25.0780 0.0000 6.2458 0.0000
# 3 34.6843 25.0780 99.8695 0.0000 10.1313 0.0000
# 4 0.0000 0.0000 0.0000 -7.0514 0.0000 16.4469
# 5 26.4656 6.2458 10.1313 0.0000 41.5387 0.0000
# 6 0.0000 0.0000 0.0000 16.4469 0.0000 56.3126
#
#
#
# Elastic Compliance Matrix: (Units=1/GPa)
#
#
# Indices 1 2 3 4 5 6 
#
# 1 0.010567 -0.003789 -0.002146 0.000000 -0.005639 0.000000
# 2 -0.003789 0.011587 -0.001704 0.000000 0.001087 0.000000
# 3 -0.002146 -0.001704 0.011301 0.000000 -0.001133 0.000000
# 4 0.000000 0.000000 0.000000 -0.084353 0.000000 0.024637
# 5 -0.005639 0.001087 -0.001133 0.000000 0.027780 0.000000
# 6 0.000000 0.000000 0.000000 0.024637 0.000000 0.010563
#
#
# Mechanical properties :
#
#
# Convention : Reuss Voigt Hill
#
# Bulk Modulus (GPa) = 55.01670 60.86447 57.94059
# Shear Modulus (GPa) = 569.40278 33.55330 301.47804
#
# Velocity S-wave (km/s) = 15.36598 3.73008 11.18094
# Velocity P-wave (km/s) = 18.37475 6.61739 13.80980
#
# Compressibility (1/GPa) = 0.01817630
#
# Stress axis : x y z
#
# Youngs Moduli (GPa) = 94.63590 86.30601 88.48591
#
# Poissons Ratio (x) = 0.32701 0.18992
# Poissons Ratio (y) = 0.35858 0.15077
# Poissons Ratio (z) = 0.20312 0.14706
#
# Static dielectric constant tensor:
#      x y z
#    x 1.973700 0.000000 0.041590 
#    y 0.000000 1.976040 0.000000 
#    z 0.041590 0.000000 2.024080 
# 
# From -- ./inp_files/286010.got.cif
#   From: 2010.05.17/outbox.cif.g08.bks.cpg/sg15_144_cif.got.tgz:286010.got - 2010.06.03 18:47:42.
