data_PCOD9286240
_publ_section_title
;
Structure prediction by ZEFSAII (Michael W. Deem and Ramdas Pophale) SiO2 
 PCOD9286240
Probable space group: C 2/C
;
_chemical_formula_sum "Si O2"
_cell_formula_units_Z 56
_cell_length_a 17.734246
_cell_length_b 20.549450
_cell_length_c 9.194969
_cell_angle_alpha 90.000000
_cell_angle_beta 128.543521
_cell_angle_gamma 90.000000
_cell_volume 2620.866893
_symmetry_space_group_name_H-M "C 2/C"
_symmetry_group_IT_number 15
_symmetry_cell_setting 'monoclinic'
loop_
_space_group_symop_operation_xyz
x,y,z
-x,y,1/2-z
-x,-y,-z
x,-y,1/2+z
1/2+x,1/2+y,z
1/2-x,1/2+y,1/2-z
1/2-x,1/2-y,-z
1/2+x,1/2-y,1/2+z
loop_
_atom_site_type_symbol
_atom_site_label
_atom_site_fract_x
_atom_site_fract_y
_atom_site_fract_z
Si Si1 0.061965 0.417204 0.035390
Si Si2 0.176312 0.962035 0.639943
Si Si3 0.700915 0.191800 0.747215
Si Si4 0.310944 0.672712 0.176055
Si Si5 0.632188 0.604073 0.663994
Si Si6 0.500000 0.351919 0.750000
Si Si7 0.500000 0.415299 0.250000
Si Si8 0.128925 0.530924 0.304806
O O1 0.101478 0.344603 0.095279
O O2 0.094967 0.458683 0.215503
O O3 0.110572 0.452482 0.951779
O O4 0.948121 0.423581 0.873129
O O5 0.187957 0.899434 0.757335
O O6 0.073839 0.955509 0.436853
O O7 0.264469 0.961124 0.631631
O O8 0.171235 0.030496 0.717053
O O9 0.704981 0.268891 0.730567
O O10 0.780904 0.153332 0.752479
O O11 0.733325 0.178675 0.953580
O O12 0.416893 0.686450 0.235211
O O13 0.561957 0.607725 0.440177
O O14 0.568530 0.623347 0.724609
#
# Coordination Sequence:
#
# PCOD9286240 Si02
#       8
#     8   8   8   8   8   4   4   8
#     4  10  21  43  64  95 132 172 217 279 328 384
#     4  12  24  39  65 100 129 173 214 274 320 391
#     4  10  22  44  67  91 131 177 214 275 321 394
#     4  10  24  42  65  98 133 170 226 263 332 388
#     4  11  23  38  68  92 133 164 216 262 321 378
#     4  10  21  44  62  92 128 171 212 272 303 394
#     4  12  25  38  62 104 126 173 212 262 339 380
#     4  10  23  39  66  98 129 167 224 271 332 381
#
# _framework density 21.366973999999999
#
# number of rings (size 3 to 8) (size 9 to 14) (size 15 to 20)
#    0.000    1.429    2.857    1.714    6.000    0.000 
#    7.714    4.286    0.000    0.000    0.000    0.000 
#    0.000    0.000    0.000    0.000    0.000    0.000 
#
# Total GULP energy -156420.198127 kJ/mol
# GULP energy per Si atom -5586.435647 kJ/mol
# Density = 2.131834 g / cm^3
# Si number density = 21.366974 Si / 1000 Ang^3
#
#
#
# Elastic Constant Matrix: (Units=GPa)
#
#
# Indices 1 2 3 4 5 6 
#
# 1 79.3033 34.2723 15.2020 0.0000 3.4072 0.0000
# 2 34.2723 105.3217 15.8629 0.0000 -7.5624 0.0000
# 3 15.2020 15.8629 48.7407 0.0000 7.9222 0.0000
# 4 0.0000 0.0000 0.0000 8.4925 0.0000 -4.4259
# 5 3.4072 -7.5624 7.9222 0.0000 35.6447 0.0000
# 6 0.0000 0.0000 0.0000 -4.4259 0.0000 9.8066
#
#
#
# Elastic Compliance Matrix: (Units=1/GPa)
#
#
# Indices 1 2 3 4 5 6 
#
# 1 0.015263 -0.004650 -0.002956 0.000000 -0.001788 0.000000
# 2 -0.004650 0.011708 -0.002943 0.000000 0.003582 0.000000
# 3 -0.002956 -0.002943 0.023293 0.000000 -0.005519 0.000000
# 4 0.000000 0.000000 0.000000 0.153965 0.000000 0.069488
# 5 -0.001788 0.003582 -0.005519 0.000000 0.030212 0.000000
# 6 0.000000 0.000000 0.000000 0.069488 0.000000 0.133334
#
#
# Mechanical properties :
#
#
# Convention : Reuss Voigt Hill
#
# Bulk Modulus (GPa) = 34.28526 40.44892 37.36709
# Shear Modulus (GPa) = 12.54406 21.99066 17.26736
#
# Velocity S-wave (km/s) = 2.42560 3.21158 2.84585
# Velocity P-wave (km/s) = 4.89136 5.72049 5.32210
#
# Compressibility (1/GPa) = 0.02916705
#
# Stress axis : x y z
#
# Youngs Moduli (GPa) = 65.51848 85.41026 42.93045
#
# Poissons Ratio (x) = 0.39714 0.12692
# Poissons Ratio (y) = 0.30465 0.12632
# Poissons Ratio (z) = 0.19370 0.25132
#
# Static dielectric constant tensor:
#      x y z
#    x 1.794700 0.000000 -0.018690 
#    y 0.000000 1.760830 0.000000 
#    z -0.018690 0.000000 1.841700 
# 
# From -- ./inp_files/50380.got.cif
#   From: 2010.05.17/outbox.cif.g08.bks.cpg/sg15_26_cif.got.tgz:50380.got - 2010.06.03 18:47:42.
