data_PCOD9286630
_publ_section_title
;
Structure prediction by ZEFSAII (Michael W. Deem and Ramdas Pophale) SiO2 
 PCOD9286630
Probable space group: C 2/C
;
_chemical_formula_sum "Si O2"
_cell_formula_units_Z 60
_cell_length_a 20.753476
_cell_length_b 9.652583
_cell_length_c 22.139020
_cell_angle_alpha 90.000000
_cell_angle_beta 137.216321
_cell_angle_gamma 90.000000
_cell_volume 3012.389293
_symmetry_space_group_name_H-M "C 2/C"
_symmetry_group_IT_number 15
_symmetry_cell_setting 'monoclinic'
loop_
_space_group_symop_operation_xyz
x,y,z
-x,y,1/2-z
-x,-y,-z
x,-y,1/2+z
1/2+x,1/2+y,z
1/2-x,1/2+y,1/2-z
1/2-x,1/2-y,-z
1/2+x,1/2-y,1/2+z
loop_
_atom_site_type_symbol
_atom_site_label
_atom_site_fract_x
_atom_site_fract_y
_atom_site_fract_z
Si Si1 0.598394 0.733997 0.428619
Si Si2 0.498776 0.663086 0.484242
Si Si3 0.905692 0.104847 0.717603
Si Si4 0.210500 0.119749 0.165658
Si Si5 0.334570 0.095991 0.134491
Si Si6 0.500000 0.872712 0.250000
Si Si7 0.254351 0.464283 0.537088
Si Si8 0.858697 0.838207 0.318848
O O1 0.543051 0.687216 0.449444
O O2 0.526387 0.782709 0.326683
O O3 0.668286 0.618123 0.449790
O O4 0.669020 0.860527 0.493769
O O5 0.500000 0.500000 0.500000
O O6 0.388735 0.700850 0.409413
O O7 0.565876 0.724067 0.582092
O O8 0.887774 0.259319 0.679966
O O9 0.911163 0.114074 0.793438
O O10 0.000000 0.049435 0.750000
O O11 0.812311 0.020835 0.633614
O O12 0.253647 0.088132 0.129618
O O13 0.283775 0.220346 0.249661
O O14 0.190332 0.974647 0.185929
O O15 0.408809 0.971388 0.196462
O O16 0.290513 0.079303 0.037762
#
# Coordination Sequence:
#
# PCOD9286630 Si02
#       8
#     8   8   8   8   8   4   8   8
#     4  10  23  39  63 100 127 168 207 265 328 373
#     4  10  22  41  62  89 127 169 209 257 323 389
#     4  11  24  38  65  93 123 166 219 263 317 378
#     4  10  23  40  66  88 125 170 213 259 325 386
#     4  10  21  44  62  89 127 173 206 261 331 374
#     4  10  22  40  66  94 134 164 216 268 320 384
#     4  10  22  39  62  94 128 162 213 265 317 384
#     4  10  24  42  62  94 123 169 215 267 320 385
#
# _framework density 19.917746000000001
#
# number of rings (size 3 to 8) (size 9 to 14) (size 15 to 20)
#    0.000    1.867    0.667    2.000   10.267    0.000 
#    0.000    0.667    0.000    0.000    0.000    0.000 
#    0.000    0.000    0.000    0.000    0.000    0.000 
#
# Total GULP energy -167598.122209 kJ/mol
# GULP energy per Si atom -5586.604074 kJ/mol
# Density = 1.987241 g / cm^3
# Si number density = 19.917746 Si / 1000 Ang^3
#
#
#
# Elastic Constant Matrix: (Units=GPa)
#
#
# Indices 1 2 3 4 5 6 
#
# 1 104.4919 14.8265 30.6435 0.0000 4.6434 0.0000
# 2 14.8265 40.1029 13.5203 0.0000 -5.6677 0.0000
# 3 30.6435 13.5203 97.7948 0.0000 -4.5800 0.0000
# 4 0.0000 0.0000 0.0000 25.4290 0.0000 3.8213
# 5 4.6434 -5.6677 -4.5800 0.0000 25.6732 0.0000
# 6 0.0000 0.0000 0.0000 3.8213 0.0000 -4.3387
#
#
#
# Elastic Compliance Matrix: (Units=1/GPa)
#
#
# Indices 1 2 3 4 5 6 
#
# 1 0.011148 -0.003530 -0.003162 0.000000 -0.003360 0.000000
# 2 -0.003530 0.027972 -0.002463 0.000000 0.006374 0.000000
# 3 -0.003162 -0.002463 0.011656 0.000000 0.002108 0.000000
# 4 0.000000 0.000000 0.000000 0.034729 0.000000 0.030587
# 5 -0.003360 0.006374 0.002108 0.000000 0.041342 0.000000
# 6 0.000000 0.000000 0.000000 0.030587 0.000000 -0.203546
#
#
# Mechanical properties :
#
#
# Convention : Reuss Voigt Hill
#
# Bulk Modulus (GPa) = 30.80206 40.04112 35.42159
# Shear Modulus (GPa) = -105.11239 21.57932 -41.76654
#
# Velocity S-wave (km/s) = -7.27240 3.29511 -4.58422
# Velocity P-wave (km/s) = 7.41747 5.88420 3.19335
#
# Compressibility (1/GPa) = 0.03246536
#
# Stress axis : x y z
#
# Youngs Moduli (GPa) = 89.70443 35.74998 85.79591
#
# Poissons Ratio (x) = 0.12620 0.27132
# Poissons Ratio (y) = 0.31666 0.21127
# Poissons Ratio (z) = 0.28368 0.08803
#
# Static dielectric constant tensor:
#      x y z
#    x 1.752580 0.000000 0.152430 
#    y 0.000000 1.708980 0.000000 
#    z 0.152430 0.000000 1.963140 
# 
# From -- ./inp_files/279710.got.cif
#   From: 2010.05.17/outbox.cif.g08.bks.cpg/sg15_140_cif.got.tgz:279710.got - 2010.06.03 18:47:42.
