data_PCOD9286230
_publ_section_title
;
Structure prediction by ZEFSAII (Michael W. Deem and Ramdas Pophale) SiO2 
 PCOD9286230
Probable space group: C 2/C
;
_chemical_formula_sum "Si O2"
_cell_formula_units_Z 56
_cell_length_a 6.858610
_cell_length_b 22.488407
_cell_length_c 19.174319
_cell_angle_alpha 90.000000
_cell_angle_beta 106.216054
_cell_angle_gamma 90.000000
_cell_volume 2839.771856
_symmetry_space_group_name_H-M "C 2/C"
_symmetry_group_IT_number 15
_symmetry_cell_setting 'monoclinic'
loop_
_space_group_symop_operation_xyz
x,y,z
-x,y,1/2-z
-x,-y,-z
x,-y,1/2+z
1/2+x,1/2+y,z
1/2-x,1/2+y,1/2-z
1/2-x,1/2-y,-z
1/2+x,1/2-y,1/2+z
loop_
_atom_site_type_symbol
_atom_site_label
_atom_site_fract_x
_atom_site_fract_y
_atom_site_fract_z
Si Si1 0.358472 0.510862 0.677772
Si Si2 0.986304 0.429999 0.664725
Si Si3 0.648783 0.516992 0.577869
Si Si4 0.999981 0.194175 0.549962
Si Si5 0.168469 0.854668 0.321700
Si Si6 0.597735 0.832565 0.944662
Si Si7 0.086517 0.364935 0.428812
O O1 0.500000 0.481681 0.750000
O O2 0.169780 0.468029 0.649815
O O3 0.492254 0.526810 0.624846
O O4 0.297896 0.576428 0.697628
O O5 0.000000 0.432601 0.750000
O O6 0.785713 0.462149 0.616234
O O7 0.979919 0.364349 0.632288
O O8 0.500000 0.500000 0.500000
O O9 0.802858 0.572345 0.579587
O O10 0.228290 0.180497 0.552953
O O11 0.936849 0.160673 0.614971
O O12 0.841553 0.169762 0.476793
O O13 0.968096 0.264186 0.556539
O O14 0.406643 0.839953 0.360460
O O15 0.000000 0.830375 0.250000
O O16 0.511595 0.867424 0.003892
#
# Coordination Sequence:
#
# PCOD9286230 Si02
#       7
#     8   8   8   8   8   8   8
#     4  11  22  41  60  92 130 164 207 263 321 380
#     4  12  25  42  64  92 131 171 206 257 330 385
#     4  12  24  37  65  96 128 164 214 261 317 387
#     4  10  21  43  64  93 126 165 216 267 319 367
#     4  10  22  37  63  92 126 161 212 267 316 373
#     4  10  24  41  65  91 128 168 212 265 314 391
#     4  11  21  39  66  94 121 165 212 263 321 370
#
# _framework density 19.719895000000001
#
# number of rings (size 3 to 8) (size 9 to 14) (size 15 to 20)
#    0.000    1.143    4.286    2.143    2.000    2.286 
#    0.000    0.000    3.143    0.000    0.000    0.000 
#    0.000    0.000    0.000    0.000    0.000    0.000 
#
# Total GULP energy -156055.692377 kJ/mol
# GULP energy per Si atom -5573.417585 kJ/mol
# Density = 1.967501 g / cm^3
# Si number density = 19.719895 Si / 1000 Ang^3
#
#
#
# Elastic Constant Matrix: (Units=GPa)
#
#
# Indices 1 2 3 4 5 6 
#
# 1 116.0368 20.7847 44.1676 0.0000 24.5936 0.0000
# 2 20.7847 63.8815 26.6131 0.0000 -0.1063 0.0000
# 3 44.1676 26.6131 100.6985 0.0000 20.1796 0.0000
# 4 0.0000 0.0000 0.0000 60.4095 0.0000 14.1751
# 5 24.5936 -0.1063 20.1796 0.0000 29.2081 0.0000
# 6 0.0000 0.0000 0.0000 14.1751 0.0000 24.6633
#
#
#
# Elastic Compliance Matrix: (Units=1/GPa)
#
#
# Indices 1 2 3 4 5 6 
#
# 1 0.011904 -0.002676 -0.002906 0.000000 -0.008026 0.000000
# 2 -0.002676 0.018564 -0.004872 0.000000 0.005687 0.000000
# 3 -0.002906 -0.004872 0.013935 0.000000 -0.007199 0.000000
# 4 0.000000 0.000000 0.000000 0.019134 0.000000 -0.010997
# 5 -0.008026 0.005687 -0.007199 0.000000 0.045989 0.000000
# 6 0.000000 0.000000 0.000000 -0.010997 0.000000 0.046867
#
#
# Mechanical properties :
#
#
# Convention : Reuss Voigt Hill
#
# Bulk Modulus (GPa) = 42.56076 51.52748 47.04412
# Shear Modulus (GPa) = 27.00758 35.45962 31.23360
#
# Velocity S-wave (km/s) = 3.70477 4.24508 3.98409
# Velocity P-wave (km/s) = 6.31901 7.08618 6.71357
#
# Compressibility (1/GPa) = 0.02349582
#
# Stress axis : x y z
#
# Youngs Moduli (GPa) = 84.00263 53.86825 71.75976
#
# Poissons Ratio (x) = 0.14415 0.20852
# Poissons Ratio (y) = 0.22479 0.34961
# Poissons Ratio (z) = 0.24410 0.26245
#
# Static dielectric constant tensor:
#      x y z
#    x 1.732480 0.000000 0.022810 
#    y 0.000000 1.720590 0.000000 
#    z 0.022810 0.000000 1.739590 
# 
# From -- ./inp_files/186107.got.cif
#   From: 2010.05.17/outbox.cif.g08.bks.cpg/sg15_94_cif.got.tgz:186107.got - 2010.06.03 18:47:42.
