data_PCOD9286636
_publ_section_title
;
Structure prediction by ZEFSAII (Michael W. Deem and Ramdas Pophale) SiO2 
 PCOD9286636
Probable space group: C 2/C
;
_chemical_formula_sum "Si O2"
_cell_formula_units_Z 56
_cell_length_a 11.852686
_cell_length_b 20.015092
_cell_length_c 11.301621
_cell_angle_alpha 90.000000
_cell_angle_beta 85.533176
_cell_angle_gamma 90.000000
_cell_volume 2672.969321
_symmetry_space_group_name_H-M "C 2/C"
_symmetry_group_IT_number 15
_symmetry_cell_setting 'monoclinic'
loop_
_space_group_symop_operation_xyz
x,y,z
-x,y,1/2-z
-x,-y,-z
x,-y,1/2+z
1/2+x,1/2+y,z
1/2-x,1/2+y,1/2-z
1/2-x,1/2-y,-z
1/2+x,1/2-y,1/2+z
loop_
_atom_site_type_symbol
_atom_site_label
_atom_site_fract_x
_atom_site_fract_y
_atom_site_fract_z
Si Si1 0.000000 0.009302 0.750000
Si Si2 0.824001 0.105574 0.667158
Si Si3 0.232073 0.725164 0.807819
Si Si4 0.499218 0.606467 0.059087
Si Si5 0.500000 0.279089 0.750000
Si Si6 0.755561 0.354948 0.954105
Si Si7 0.474907 0.074954 0.384798
Si Si8 0.936928 0.420632 0.372199
O O1 0.888389 0.055309 0.750947
O O2 0.005098 0.960113 0.637414
O O3 0.813630 0.180230 0.721232
O O4 0.696908 0.082505 0.644812
O O5 0.907273 0.105025 0.548999
O O6 0.267920 0.798335 0.851189
O O7 0.113226 0.737346 0.754992
O O8 0.213805 0.681559 0.926968
O O9 0.518506 0.671222 0.138855
O O10 0.370879 0.617332 0.026946
O O11 0.843430 0.412502 0.920619
O O12 0.500000 0.101674 0.250000
O O13 0.539786 0.105299 0.494746
O O14 0.489486 0.995315 0.377044
O O15 0.000000 0.392369 0.250000
#
# Coordination Sequence:
#
# PCOD9286636 Si02
#       8
#     4   8   8   8   4   8   8   8
#     4  11  24  42  66  96 134 169 204 282 350 391
#     4  12  24  38  66 100 125 168 222 267 327 411
#     4  10  23  39  63  90 128 170 215 269 330 384
#     4  10  23  43  68  92 127 169 218 274 330 395
#     4   9  22  44  64  88 130 171 214 268 340 383
#     4  10  21  44  63  89 128 174 213 272 329 383
#     4  10  22  41  64  94 127 173 222 262 326 402
#     4  10  23  39  62  96 134 168 210 275 333 395
#
# _framework density 20.950485
#
# number of rings (size 3 to 8) (size 9 to 14) (size 15 to 20)
#    0.000    1.714    0.000    3.000    3.000    8.571 
#    9.000    0.000    0.000    0.000    0.000    0.000 
#    0.000    0.000    0.000    0.000    0.000    0.000 
#
# Total GULP energy -156296.143997 kJ/mol
# GULP energy per Si atom -5582.005143 kJ/mol
# Density = 2.090280 g / cm^3
# Si number density = 20.950485 Si / 1000 Ang^3
#
#
#
# Elastic Constant Matrix: (Units=GPa)
#
#
# Indices 1 2 3 4 5 6 
#
# 1 134.0837 25.4485 50.0688 0.0000 6.0879 0.0000
# 2 25.4485 60.7854 24.9629 0.0000 -5.0204 0.0000
# 3 50.0688 24.9629 93.5664 0.0000 -2.3317 0.0000
# 4 0.0000 0.0000 0.0000 22.5994 0.0000 4.3715
# 5 6.0879 -5.0204 -2.3317 0.0000 26.0607 0.0000
# 6 0.0000 0.0000 0.0000 4.3715 0.0000 35.4909
#
#
#
# Elastic Compliance Matrix: (Units=1/GPa)
#
#
# Indices 1 2 3 4 5 6 
#
# 1 0.009814 -0.002451 -0.004677 0.000000 -0.003183 0.000000
# 2 -0.002451 0.019345 -0.003751 0.000000 0.003964 0.000000
# 3 -0.004677 -0.003751 0.014232 0.000000 0.001643 0.000000
# 4 0.000000 0.000000 0.000000 0.045329 0.000000 -0.005583
# 5 -0.003183 0.003964 0.001643 0.000000 0.040026 0.000000
# 6 0.000000 0.000000 0.000000 -0.005583 0.000000 0.028864
#
#
# Mechanical properties :
#
#
# Convention : Reuss Voigt Hill
#
# Bulk Modulus (GPa) = 46.22452 54.37731 50.30091
# Shear Modulus (GPa) = 26.79818 29.36055 28.07936
#
# Velocity S-wave (km/s) = 3.58036 3.74762 3.66495
# Velocity P-wave (km/s) = 6.26127 6.68863 6.47848
#
# Compressibility (1/GPa) = 0.02163354
#
# Stress axis : x y z
#
# Youngs Moduli (GPa) = 101.89235 51.69243 70.26381
#
# Poissons Ratio (x) = 0.12670 0.32864
# Poissons Ratio (y) = 0.24974 0.26355
# Poissons Ratio (z) = 0.47657 0.19389
#
# Static dielectric constant tensor:
#      x y z
#    x 1.725250 0.000000 0.027430 
#    y 0.000000 1.753330 0.000000 
#    z 0.027430 0.000000 1.825740 
# 
# From -- ./inp_files/88929.got.cif
#   From: 2010.05.17/outbox.cif.g08.bks.cpg/sg15_45_cif.got.tgz:88929.got - 2010.06.03 18:47:42.
