data_PCOD9286463
_publ_section_title
;
Structure prediction by ZEFSAII (Michael W. Deem and Ramdas Pophale) SiO2 
 PCOD9286463
Probable space group: C 2/C
;
_chemical_formula_sum "Si O2"
_cell_formula_units_Z 44
_cell_length_a 27.953726
_cell_length_b 13.774914
_cell_length_c 5.142541
_cell_angle_alpha 90.000000
_cell_angle_beta 94.783848
_cell_angle_gamma 90.000000
_cell_volume 1973.289556
_symmetry_space_group_name_H-M "C 2/C"
_symmetry_group_IT_number 15
_symmetry_cell_setting 'monoclinic'
loop_
_space_group_symop_operation_xyz
x,y,z
-x,y,1/2-z
-x,-y,-z
x,-y,1/2+z
1/2+x,1/2+y,z
1/2-x,1/2+y,1/2-z
1/2-x,1/2-y,-z
1/2+x,1/2-y,1/2+z
loop_
_atom_site_type_symbol
_atom_site_label
_atom_site_fract_x
_atom_site_fract_y
_atom_site_fract_z
Si Si1 0.184615 0.937415 0.582613
Si Si2 0.978355 0.608072 0.485356
Si Si3 0.402849 0.693416 0.270237
Si Si4 0.614705 0.815500 0.740604
Si Si5 0.710700 0.932822 0.772563
Si Si6 0.000000 0.069961 0.250000
O O1 0.138876 0.874851 0.635684
O O2 0.236177 0.888579 0.664178
O O3 0.183701 0.972133 0.284326
O O4 0.922127 0.606152 0.403623
O O5 0.000000 0.663014 0.250000
O O6 0.000000 0.500000 0.500000
O O7 0.000000 0.655511 0.750000
O O8 0.403713 0.778939 0.487516
O O9 0.452255 0.635459 0.255026
O O10 0.387851 0.732535 0.979814
O O11 0.667458 0.858669 0.789906
O O12 0.707017 0.982917 0.489050
O O13 0.000000 0.000000 0.500000
#
# Coordination Sequence:
#
# PCOD9286463 Si02
#       6
#     8   8   8   8   8   4
#     4  10  21  43  69  95 125 171 219 259 319 393
#     4  10  23  39  60  85 119 181 213 252 299 377
#     4  12  26  42  67  98 131 164 208 279 334 377
#     4  12  26  40  63 100 133 167 212 269 325 378
#     4  10  23  41  67  95 131 176 220 258 302 384
#     4  12  26  48  70  92 122 168 218 268 320 392
#
# _framework density 22.297792999999999
#
# number of rings (size 3 to 8) (size 9 to 14) (size 15 to 20)
#    0.000    1.091    0.000    5.455    8.909    1.455 
#    0.000    0.000    0.000    0.000    0.000    0.000 
#    0.000    0.000    0.000    0.000    0.000    0.000 
#
# Total GULP energy -122954.047226 kJ/mol
# GULP energy per Si atom -5588.820328 kJ/mol
# Density = 2.224704 g / cm^3
# Si number density = 22.297793 Si / 1000 Ang^3
#
#
#
# Elastic Constant Matrix: (Units=GPa)
#
#
# Indices 1 2 3 4 5 6 
#
# 1 198.4675 58.2305 17.1684 0.0000 8.5861 0.0000
# 2 58.2305 51.1670 6.0796 0.0000 9.4632 0.0000
# 3 17.1684 6.0796 127.3093 0.0000 -14.5813 0.0000
# 4 0.0000 0.0000 0.0000 28.7023 0.0000 -5.3794
# 5 8.5861 9.4632 -14.5813 0.0000 34.8922 0.0000
# 6 0.0000 0.0000 0.0000 -5.3794 0.0000 34.8583
#
#
#
# Elastic Compliance Matrix: (Units=1/GPa)
#
#
# Indices 1 2 3 4 5 6 
#
# 1 0.007614 -0.008636 -0.000589 0.000000 0.000223 0.000000
# 2 -0.008636 0.030729 -0.001065 0.000000 -0.006654 0.000000
# 3 -0.000589 -0.001065 0.008439 0.000000 0.003960 0.000000
# 4 0.000000 0.000000 0.000000 0.035878 0.000000 0.005537
# 5 0.000223 -0.006654 0.003960 0.000000 0.032065 0.000000
# 6 0.000000 0.000000 0.000000 0.005537 0.000000 0.029542
#
#
# Mechanical properties :
#
#
# Convention : Reuss Voigt Hill
#
# Bulk Modulus (GPa) = 38.16494 59.98899 49.07696
# Shear Modulus (GPa) = 28.80515 39.38823 34.09669
#
# Velocity S-wave (km/s) = 3.59811 4.20749 3.91468
# Velocity P-wave (km/s) = 5.86644 7.11097 6.51847
#
# Compressibility (1/GPa) = 0.02620206
#
# Stress axis : x y z
#
# Youngs Moduli (GPa) = 131.34178 32.54231 118.50108
#
# Poissons Ratio (x) = 0.28103 0.06978
# Poissons Ratio (y) = 1.13427 0.12620
# Poissons Ratio (z) = 0.07734 0.03466
#
# Static dielectric constant tensor:
#      x y z
#    x 1.846770 0.000000 -0.008340 
#    y 0.000000 1.812010 0.000000 
#    z -0.008340 0.000000 1.882750 
# 
# From -- ./inp_files/15139.got.cif
#   From: 2010.05.17/outbox.cif.g08.bks.cpg/sg15_8_cif.got.tgz:15139.got - 2010.06.03 18:47:42.
