data_PCOD9286495
_publ_section_title
;
Structure prediction by ZEFSAII (Michael W. Deem and Ramdas Pophale) SiO2 
 PCOD9286495
Probable space group: C 2/C
;
_chemical_formula_sum "Si O2"
_cell_formula_units_Z 48
_cell_length_a 13.912710
_cell_length_b 12.039797
_cell_length_c 19.080627
_cell_angle_alpha 90.000000
_cell_angle_beta 137.538355
_cell_angle_gamma 90.000000
_cell_volume 2157.691745
_symmetry_space_group_name_H-M "C 2/C"
_symmetry_group_IT_number 15
_symmetry_cell_setting 'monoclinic'
loop_
_space_group_symop_operation_xyz
x,y,z
-x,y,1/2-z
-x,-y,-z
x,-y,1/2+z
1/2+x,1/2+y,z
1/2-x,1/2+y,1/2-z
1/2-x,1/2-y,-z
1/2+x,1/2-y,1/2+z
loop_
_atom_site_type_symbol
_atom_site_label
_atom_site_fract_x
_atom_site_fract_y
_atom_site_fract_z
Si Si1 0.567051 0.965102 0.931993
Si Si2 0.160142 0.612810 0.707541
Si Si3 0.951532 0.882699 0.442588
Si Si4 0.789929 0.695983 0.448386
Si Si5 0.500000 0.230322 0.750000
Si Si6 0.198540 0.734396 0.589330
Si Si7 0.000000 0.347637 0.750000
O O1 0.547965 0.922897 0.841908
O O2 0.402291 0.998646 0.858933
O O3 0.652207 0.871842 0.019465
O O4 0.641681 0.079266 0.995595
O O5 0.321791 0.597498 0.819564
O O6 0.057243 0.651650 0.716808
O O7 0.155399 0.706775 0.646024
O O8 0.882993 0.786483 0.455750
O O9 0.101512 0.829166 0.501318
O O10 0.000000 0.000000 0.500000
O O11 0.750000 0.750000 0.500000
O O12 0.635913 0.690408 0.330458
O O13 0.361433 0.770627 0.683992
#
# Coordination Sequence:
#
# PCOD9286495 Si02
#       7
#     8   8   8   8   4   8   4
#     4  12  25  46  76 102 150 194 252 309 379 443
#     4  11  23  44  75 105 147 193 245 307 378 444
#     4  11  25  43  70 104 148 189 247 306 374 445
#     4  11  23  42  69 106 142 190 247 306 371 439
#     4  10  21  43  70 108 148 193 243 296 376 456
#     4  12  26  50  69 111 145 201 252 315 378 449
#     4  12  29  49  78 104 152 207 253 308 392 456
#
# _framework density 22.245995000000001
#
# number of rings (size 3 to 8) (size 9 to 14) (size 15 to 20)
#    0.000    0.667    3.333    3.500    4.667    0.667 
#    6.000    0.000    0.000    0.000    0.000    0.000 
#    0.000    0.000    0.000    0.000    0.000    0.000 
#
# Total GULP energy -133760.391564 kJ/mol
# GULP energy per Si atom -5573.349649 kJ/mol
# Density = 2.219536 g / cm^3
# Si number density = 22.245995 Si / 1000 Ang^3
#
#
#
# Elastic Constant Matrix: (Units=GPa)
#
#
# Indices 1 2 3 4 5 6 
#
# 1 76.9516 28.7900 52.9100 0.0000 11.1411 0.0000
# 2 28.7900 155.0849 80.5418 0.0000 11.9630 0.0000
# 3 52.9100 80.5418 177.2629 0.0000 28.6204 0.0000
# 4 0.0000 0.0000 0.0000 29.1091 0.0000 -3.7122
# 5 11.1411 11.9630 28.6204 0.0000 40.9220 0.0000
# 6 0.0000 0.0000 0.0000 -3.7122 0.0000 17.5721
#
#
#
# Elastic Compliance Matrix: (Units=1/GPa)
#
#
# Indices 1 2 3 4 5 6 
#
# 1 0.016454 -0.000670 -0.004413 0.000000 -0.001197 0.000000
# 2 -0.000670 0.008469 -0.003695 0.000000 0.000291 0.000000
# 3 -0.004413 -0.003695 0.009322 0.000000 -0.004238 0.000000
# 4 0.000000 0.000000 0.000000 0.035305 0.000000 0.007458
# 5 -0.001197 0.000291 -0.004238 0.000000 0.027641 0.000000
# 6 0.000000 0.000000 0.000000 0.007458 0.000000 0.058484
#
#
# Mechanical properties :
#
#
# Convention : Reuss Voigt Hill
#
# Bulk Modulus (GPa) = 59.92496 81.53145 70.72820
# Shear Modulus (GPa) = 27.96514 33.99115 30.97814
#
# Velocity S-wave (km/s) = 3.54939 3.91316 3.73571
# Velocity P-wave (km/s) = 6.61766 7.55954 7.10423
#
# Compressibility (1/GPa) = 0.01668754
#
# Stress axis : x y z
#
# Youngs Moduli (GPa) = 60.77643 118.07812 107.27597
#
# Poissons Ratio (x) = 0.07912 0.47346
# Poissons Ratio (y) = 0.04072 0.39638
# Poissons Ratio (z) = 0.26823 0.43629
#
# Static dielectric constant tensor:
#      x y z
#    x 1.896240 0.000000 -0.010540 
#    y 0.000000 2.053270 0.000000 
#    z -0.010540 0.000000 2.340910 
# 
# From -- ./inp_files/244011.got.cif
#   From: 2010.05.17/outbox.cif.g08.bks.cpg/sg15_123_cif.got.tgz:244011.got - 2010.06.03 18:47:42.
