data_PCOD9286783
_publ_section_title
;
Structure prediction by ZEFSAII (Michael W. Deem and Ramdas Pophale) SiO2 
 PCOD9286783
Probable space group: C 2/C
;
_chemical_formula_sum "Si O2"
_cell_formula_units_Z 56
_cell_length_a 13.082122
_cell_length_b 13.748407
_cell_length_c 15.147634
_cell_angle_alpha 90.000000
_cell_angle_beta 120.388585
_cell_angle_gamma 90.000000
_cell_volume 2350.131246
_symmetry_space_group_name_H-M "C 2/C"
_symmetry_group_IT_number 15
_symmetry_cell_setting 'monoclinic'
loop_
_space_group_symop_operation_xyz
x,y,z
-x,y,1/2-z
-x,-y,-z
x,-y,1/2+z
1/2+x,1/2+y,z
1/2-x,1/2+y,1/2-z
1/2-x,1/2-y,-z
1/2+x,1/2-y,1/2+z
loop_
_atom_site_type_symbol
_atom_site_label
_atom_site_fract_x
_atom_site_fract_y
_atom_site_fract_z
Si Si1 0.945250 0.429477 0.821991
Si Si2 0.020842 0.231051 0.931933
Si Si3 0.500000 0.623094 0.750000
Si Si4 0.810667 0.472639 0.525339
Si Si5 0.705801 0.519574 0.289240
Si Si6 0.128096 0.778282 0.827393
Si Si7 0.666967 0.640323 0.541279
Si Si8 0.250000 0.750000 0.500000
O O1 0.947756 0.328826 0.879864
O O2 0.813880 0.473483 0.767273
O O3 0.000000 0.406897 0.750000
O O4 0.050174 0.497443 0.905748
O O5 0.948827 0.150485 0.951126
O O6 0.063250 0.189009 0.853598
O O7 0.145145 0.251231 0.031441
O O8 0.402237 0.557688 0.757039
O O9 0.773040 0.493427 0.409201
O O10 0.722909 0.537706 0.544386
O O11 0.789652 0.361614 0.541539
O O12 0.648659 0.625926 0.277338
O O13 0.233220 0.702111 0.864525
O O14 0.000000 0.736160 0.750000
O O15 0.136308 0.811608 0.933302
#
# Coordination Sequence:
#
# PCOD9286783 Si02
#       8
#     8   8   4   8   8   8   8   4
#     4  11  24  43  67  97 134 180 230 282 339 415
#     4  11  23  45  64  98 138 180 227 289 342 409
#     4  12  24  42  68  98 140 180 226 286 344 408
#     4  10  23  43  69  96 135 178 230 280 344 407
#     4  11  22  44  69  97 132 182 227 281 346 409
#     4  10  21  44  68  99 134 180 227 282 354 407
#     4  10  23  43  68  99 138 177 234 291 333 416
#     4  10  22  44  64  94 132 174 228 270 352 408
#
# _framework density 23.828455000000002
#
# number of rings (size 3 to 8) (size 9 to 14) (size 15 to 20)
#    0.000    1.429    4.286    0.429    2.000    1.143 
#    7.714    0.000    0.000    0.000    0.000    0.000 
#    0.000    0.000    0.000    0.000    0.000    0.000 
#
# Total GULP energy -155962.523242 kJ/mol
# GULP energy per Si atom -5570.090116 kJ/mol
# Density = 2.377422 g / cm^3
# Si number density = 23.828455 Si / 1000 Ang^3
#
#
#
# Elastic Constant Matrix: (Units=GPa)
#
#
# Indices 1 2 3 4 5 6 
#
# 1 154.1072 38.5380 5.0762 0.0000 14.6991 0.0000
# 2 38.5380 71.1396 -9.8314 0.0000 -4.0392 0.0000
# 3 5.0762 -9.8314 33.7126 0.0000 11.1067 0.0000
# 4 0.0000 0.0000 0.0000 10.1739 0.0000 5.1679
# 5 14.6991 -4.0392 11.1067 0.0000 28.9163 0.0000
# 6 0.0000 0.0000 0.0000 5.1679 0.0000 20.9295
#
#
#
# Elastic Compliance Matrix: (Units=1/GPa)
#
#
# Indices 1 2 3 4 5 6 
#
# 1 0.008152 -0.004829 -0.001200 0.000000 -0.004357 0.000000
# 2 -0.004829 0.017514 0.004831 0.000000 0.003046 0.000000
# 3 -0.001200 0.004831 0.035295 0.000000 -0.012272 0.000000
# 4 0.000000 0.000000 0.000000 0.112387 0.000000 -0.027751
# 5 -0.004357 0.003046 -0.012272 0.000000 0.041937 0.000000
# 6 0.000000 0.000000 0.000000 -0.027751 0.000000 0.054632
#
#
# Mechanical properties :
#
#
# Convention : Reuss Voigt Hill
#
# Bulk Modulus (GPa) = 17.07540 36.28055 26.67798
# Shear Modulus (GPa) = 17.13303 27.01571 22.07437
#
# Velocity S-wave (km/s) = 2.68436 3.37079 3.04696
# Velocity P-wave (km/s) = 4.09746 5.51438 4.85786
#
# Compressibility (1/GPa) = 0.05856377
#
# Stress axis : x y z
#
# Youngs Moduli (GPa) = 122.67193 57.09848 28.33256
#
# Poissons Ratio (x) = 0.27575 0.03401
# Poissons Ratio (y) = 0.59242 -0.13688
# Poissons Ratio (z) = 0.14723 -0.27585
#
# Static dielectric constant tensor:
#      x y z
#    x 1.873810 0.000000 -0.099670 
#    y 0.000000 0.230630 0.000000 
#    z -0.099670 0.000000 1.743980 
# 
# From -- ./inp_files/198462.got.cif
#   From: 2010.05.17/outbox.cif.g08.bks.cpg/sg15_100_cif.got.tgz:198462.got - 2010.06.03 18:47:42.
