data_PCOD9286926
_publ_section_title
;
Structure prediction by ZEFSAII (Michael W. Deem and Ramdas Pophale) SiO2 
 PCOD9286926
Probable space group: C 2/C
;
_chemical_formula_sum "Si O2"
_cell_formula_units_Z 40
_cell_length_a 23.381807
_cell_length_b 5.183009
_cell_length_c 13.626147
_cell_angle_alpha 90.000000
_cell_angle_beta 111.574699
_cell_angle_gamma 90.000000
_cell_volume 1535.633382
_symmetry_space_group_name_H-M "C 2/C"
_symmetry_group_IT_number 15
_symmetry_cell_setting 'monoclinic'
loop_
_space_group_symop_operation_xyz
x,y,z
-x,y,1/2-z
-x,-y,-z
x,-y,1/2+z
1/2+x,1/2+y,z
1/2-x,1/2+y,1/2-z
1/2-x,1/2-y,-z
1/2+x,1/2-y,1/2+z
loop_
_atom_site_type_symbol
_atom_site_label
_atom_site_fract_x
_atom_site_fract_y
_atom_site_fract_z
Si Si1 0.744092 0.792825 0.179940
Si Si2 0.148802 0.027942 0.369905
Si Si3 0.860273 0.615103 0.470743
Si Si4 0.956244 0.737160 0.075116
Si Si5 0.580802 0.485975 0.142484
O O1 0.751570 0.013203 0.268881
O O2 0.797722 0.842452 0.134915
O O3 0.679694 0.869965 0.087649
O O4 0.172850 0.236039 0.462190
O O5 0.093604 0.884690 0.390814
O O6 0.116786 0.132954 0.250629
O O7 0.928446 0.548570 0.555446
O O8 0.873291 0.795020 0.385943
O O9 0.025016 0.808183 0.147278
O O10 0.947702 0.826260 0.956637
#
# Coordination Sequence:
#
# PCOD9286926 Si02
#       5
#     8   8   8   8   8
#     4  12  27  47  75 105 146 195 239 300 364 432
#     4  11  24  42  67 103 140 185 237 299 359 432
#     4  11  24  42  70 103 137 190 237 298 359 436
#     4  10  23  40  71  98 138 182 237 297 360 434
#     4  10  21  45  64 101 140 182 233 297 363 430
#
# _framework density 26.047885999999998
#
# number of rings (size 3 to 8) (size 9 to 14) (size 15 to 20)
#    0.000    1.200    2.000    3.000    5.600    2.400 
#    0.000    8.000    0.000    0.000    0.000    0.000 
#    0.000    0.000    0.000    0.000    0.000    0.000 
#
# Total GULP energy -112058.482270 kJ/mol
# GULP energy per Si atom -5602.924114 kJ/mol
# Density = 2.598860 g / cm^3
# Si number density = 26.047886 Si / 1000 Ang^3
#
#
#
# Elastic Constant Matrix: (Units=GPa)
#
#
# Indices 1 2 3 4 5 6 
#
# 1 132.6682 19.5408 32.8804 0.0000 2.5093 0.0000
# 2 19.5408 51.3819 5.3216 0.0000 -2.3994 0.0000
# 3 32.8804 5.3216 95.7791 0.0000 -0.6554 0.0000
# 4 0.0000 0.0000 0.0000 37.0916 0.0000 10.7922
# 5 2.5093 -2.3994 -0.6554 0.0000 40.5904 0.0000
# 6 0.0000 0.0000 0.0000 10.7922 0.0000 35.6127
#
#
#
# Elastic Compliance Matrix: (Units=1/GPa)
#
#
# Indices 1 2 3 4 5 6 
#
# 1 0.008701 -0.003052 -0.002823 0.000000 -0.000764 0.000000
# 2 -0.003052 0.020698 -0.000092 0.000000 0.001411 0.000000
# 3 -0.002823 -0.000092 0.011417 0.000000 0.000353 0.000000
# 4 0.000000 0.000000 0.000000 0.029567 0.000000 -0.008960
# 5 -0.000764 0.001411 0.000353 0.000000 0.024773 0.000000
# 6 0.000000 0.000000 0.000000 -0.008960 0.000000 0.030795
#
#
# Mechanical properties :
#
#
# Convention : Reuss Voigt Hill
#
# Bulk Modulus (GPa) = 34.62408 43.92387 39.27397
# Shear Modulus (GPa) = 33.89491 37.46469 35.67980
#
# Velocity S-wave (km/s) = 3.61120 3.79661 3.70507
# Velocity P-wave (km/s) = 5.54157 6.00985 5.78046
#
# Compressibility (1/GPa) = 0.02888164
#
# Stress axis : x y z
#
# Youngs Moduli (GPa) = 114.92633 48.31281 87.58664
#
# Poissons Ratio (x) = 0.14747 0.24723
# Poissons Ratio (y) = 0.35081 0.00810
# Poissons Ratio (z) = 0.32440 0.00447
#
# Static dielectric constant tensor:
#      x y z
#    x 2.049400 0.000000 0.019920 
#    y 0.000000 2.065500 0.000000 
#    z 0.019920 0.000000 2.055100 
# 
# From -- ./inp_files/170751.got.cif
#   From: 2010.05.17/outbox.cif.g08.bks.cpg/sg15_86_cif.got.tgz:170751.got - 2010.06.03 18:47:42.
