data_PCOD9286048
_publ_section_title
;
Structure prediction by ZEFSAII (Michael W. Deem and Ramdas Pophale) SiO2 
 PCOD9286048
Probable space group: C 2/C
;
_chemical_formula_sum "Si O2"
_cell_formula_units_Z 56
_cell_length_a 26.194401
_cell_length_b 8.978643
_cell_length_c 18.683626
_cell_angle_alpha 90.000000
_cell_angle_beta 142.204546
_cell_angle_gamma 90.000000
_cell_volume 2692.963912
_symmetry_space_group_name_H-M "C 2/C"
_symmetry_group_IT_number 15
_symmetry_cell_setting 'monoclinic'
loop_
_space_group_symop_operation_xyz
x,y,z
-x,y,1/2-z
-x,-y,-z
x,-y,1/2+z
1/2+x,1/2+y,z
1/2-x,1/2+y,1/2-z
1/2-x,1/2-y,-z
1/2+x,1/2-y,1/2+z
loop_
_atom_site_type_symbol
_atom_site_label
_atom_site_fract_x
_atom_site_fract_y
_atom_site_fract_z
Si Si1 0.530384 0.867603 0.364827
Si Si2 0.159536 0.639631 0.197473
Si Si3 0.119179 0.310530 0.201287
Si Si4 0.540260 0.216347 0.372211
Si Si5 0.730707 0.202091 0.560229
Si Si6 0.000125 0.165040 0.529977
Si Si7 0.717039 0.869547 0.601265
O O1 0.500000 0.862355 0.250000
O O2 0.458833 0.790237 0.331986
O O3 0.625361 0.811742 0.476667
O O4 0.533251 0.043495 0.389685
O O5 0.132805 0.483228 0.201142
O O6 0.210381 0.724925 0.314995
O O7 0.208640 0.609297 0.178065
O O8 0.078110 0.737791 0.089278
O O9 0.204384 0.237719 0.322814
O O10 0.086304 0.238215 0.091442
O O11 0.500000 0.225934 0.250000
O O12 0.636875 0.252418 0.472378
O O13 0.496631 0.321947 0.381044
O O14 0.750000 0.250000 0.500000
O O15 0.732327 0.024126 0.576275
O O16 0.000000 0.000000 0.500000
#
# Coordination Sequence:
#
# PCOD9286048 Si02
#       7
#     8   8   8   8   8   8   8
#     4  10  22  43  69 100 135 183 230 278 348 420
#     4  12  23  43  71  99 141 185 238 290 355 424
#     4  12  24  43  71 102 137 183 232 289 352 414
#     4  10  21  42  70  96 132 184 231 278 342 418
#     4  11  25  44  68 104 140 186 239 287 353 429
#     4  12  24  41  70 103 136 179 235 293 348 416
#     4  11  24  43  71 103 141 182 238 293 350 423
#
# _framework density 20.794933
#
# number of rings (size 3 to 8) (size 9 to 14) (size 15 to 20)
#    0.000    0.857    2.857    5.571    4.000    1.714 
#    0.000    0.714    0.000    0.000    0.000    0.000 
#    0.000    0.000    0.000    0.000    0.000    0.000 
#
# Total GULP energy -156547.655754 kJ/mol
# GULP energy per Si atom -5590.987706 kJ/mol
# Density = 2.074760 g / cm^3
# Si number density = 20.794933 Si / 1000 Ang^3
#
#
#
# Elastic Constant Matrix: (Units=GPa)
#
#
# Indices 1 2 3 4 5 6 
#
# 1 120.9350 39.8864 45.8324 0.0000 4.4229 0.0000
# 2 39.8864 84.1761 40.1306 0.0000 20.2012 0.0000
# 3 45.8324 40.1306 134.1049 0.0000 27.6358 0.0000
# 4 0.0000 0.0000 0.0000 23.2418 0.0000 7.6687
# 5 4.4229 20.2012 27.6358 0.0000 37.9516 0.0000
# 6 0.0000 0.0000 0.0000 7.6687 0.0000 25.9825
#
#
#
# Elastic Compliance Matrix: (Units=1/GPa)
#
#
# Indices 1 2 3 4 5 6 
#
# 1 0.010765 -0.004453 -0.003031 0.000000 0.003323 0.000000
# 2 -0.004453 0.016602 -0.002038 0.000000 -0.006834 0.000000
# 3 -0.003031 -0.002038 0.010361 0.000000 -0.006107 0.000000
# 4 0.000000 0.000000 0.000000 0.047668 0.000000 -0.014069
# 5 0.003323 -0.006834 -0.006107 0.000000 0.034047 0.000000
# 6 0.000000 0.000000 0.000000 -0.014069 0.000000 0.042640
#
#
# Mechanical properties :
#
#
# Convention : Reuss Voigt Hill
#
# Bulk Modulus (GPa) = 53.52432 65.65719 59.59075
# Shear Modulus (GPa) = 26.68740 31.65963 29.17352
#
# Velocity S-wave (km/s) = 3.58629 3.90612 3.74961
# Velocity P-wave (km/s) = 6.55314 7.21012 6.88947
#
# Compressibility (1/GPa) = 0.01868310
#
# Stress axis : x y z
#
# Youngs Moduli (GPa) = 92.89417 60.23534 96.51506
#
# Poissons Ratio (x) = 0.26825 0.29256
# Poissons Ratio (y) = 0.41368 0.19667
# Poissons Ratio (z) = 0.28159 0.12274
#
# Static dielectric constant tensor:
#      x y z
#    x 1.773580 0.000000 -0.022640 
#    y 0.000000 1.745270 0.000000 
#    z -0.022640 0.000000 1.792710 
# 
# From -- ./inp_files/222081.got.cif
#   From: 2010.05.17/outbox.cif.g08.bks.cpg/sg15_112_cif.got.tgz:222081.got - 2010.06.03 18:47:42.
