data_PCOD9286337
_publ_section_title
;
Structure prediction by ZEFSAII (Michael W. Deem and Ramdas Pophale) SiO2 
 PCOD9286337
Probable space group: C 2/C
;
_chemical_formula_sum "Si O2"
_cell_formula_units_Z 40
_cell_length_a 7.723917
_cell_length_b 21.761079
_cell_length_c 12.550078
_cell_angle_alpha 90.000000
_cell_angle_beta 48.819319
_cell_angle_gamma 90.000000
_cell_volume 1587.632542
_symmetry_space_group_name_H-M "C 2/C"
_symmetry_group_IT_number 15
_symmetry_cell_setting 'monoclinic'
loop_
_space_group_symop_operation_xyz
x,y,z
-x,y,1/2-z
-x,-y,-z
x,-y,1/2+z
1/2+x,1/2+y,z
1/2-x,1/2+y,1/2-z
1/2-x,1/2-y,-z
1/2+x,1/2-y,1/2+z
loop_
_atom_site_type_symbol
_atom_site_label
_atom_site_fract_x
_atom_site_fract_y
_atom_site_fract_z
Si Si1 0.500000 0.435198 0.250000
Si Si2 0.696368 0.649668 0.237140
Si Si3 0.775408 0.466060 0.548624
Si Si4 0.172661 0.325905 0.338444
Si Si5 0.292983 0.642161 0.552211
Si Si6 0.000000 0.722513 0.250000
O O1 0.429684 0.483902 0.370067
O O2 0.283396 0.389282 0.334714
O O3 0.500000 0.686388 0.250000
O O4 0.734156 0.587749 0.154319
O O5 0.552375 0.640502 0.404884
O O6 0.930096 0.681364 0.177570
O O7 0.791601 0.428367 0.431976
O O8 0.000000 0.500000 0.500000
O O9 0.264463 0.329630 0.179246
O O10 0.285534 0.268342 0.350028
O O11 0.898272 0.323233 0.442914
#
# Coordination Sequence:
#
# PCOD9286337 Si02
#       6
#     4   8   8   8   8   4
#     4  11  20  40  64  98 136 173 228 276 348 409
#     4  10  24  46  68  98 135 186 228 280 353 403
#     4  11  21  42  68  96 142 179 226 291 340 419
#     4  10  24  41  66 103 134 184 231 287 341 407
#     4  10  21  43  66  99 136 181 229 278 358 398
#     4  11  26  48  66 102 142 179 244 282 340 419
#
# _framework density 25.194745999999999
#
# number of rings (size 3 to 8) (size 9 to 14) (size 15 to 20)
#    0.000    1.600    5.000    0.000    2.800    4.000 
#   10.800    0.000    0.000    0.000    0.000    0.000 
#    0.000    0.000    0.000    0.000    0.000    0.000 
#
# Total GULP energy -111571.509087 kJ/mol
# GULP energy per Si atom -5578.575454 kJ/mol
# Density = 2.513740 g / cm^3
# Si number density = 25.194746 Si / 1000 Ang^3
#
#
#
# Elastic Constant Matrix: (Units=GPa)
#
#
# Indices 1 2 3 4 5 6 
#
# 1 115.2318 63.9407 17.4219 0.0000 0.4909 0.0000
# 2 63.9407 133.0290 25.9516 0.0000 -2.3564 0.0000
# 3 17.4219 25.9516 92.2690 0.0000 -12.4617 0.0000
# 4 0.0000 0.0000 0.0000 10.9367 0.0000 17.3653
# 5 0.4909 -2.3564 -12.4617 0.0000 27.1687 0.0000
# 6 0.0000 0.0000 0.0000 17.3653 0.0000 -17.9583
#
#
#
# Elastic Compliance Matrix: (Units=1/GPa)
#
#
# Indices 1 2 3 4 5 6 
#
# 1 0.011903 -0.005580 -0.000824 0.000000 -0.001077 0.000000
# 2 -0.005580 0.010572 -0.001900 0.000000 0.000146 0.000000
# 3 -0.000824 -0.001900 0.012268 0.000000 0.005477 0.000000
# 4 0.000000 0.000000 0.000000 0.036064 0.000000 0.034873
# 5 -0.001077 0.000146 0.005477 0.000000 0.039351 0.000000
# 6 0.000000 0.000000 0.000000 0.034873 0.000000 -0.021963
#
#
# Mechanical properties :
#
#
# Convention : Reuss Voigt Hill
#
# Bulk Modulus (GPa) = 55.13908 61.68424 58.41166
# Shear Modulus (GPa) = 45.10676 19.57715 32.34195
#
# Velocity S-wave (km/s) = 4.23581 2.79056 3.58673
# Velocity P-wave (km/s) = 6.77167 5.90924 6.35510
#
# Compressibility (1/GPa) = 0.01813596
#
# Stress axis : x y z
#
# Youngs Moduli (GPa) = 84.00938 94.58586 81.51580
#
# Poissons Ratio (x) = 0.52777 0.06714
# Poissons Ratio (y) = 0.46876 0.15490
# Poissons Ratio (z) = 0.06919 0.17974
#
# Static dielectric constant tensor:
#      x y z
#    x 2.028760 0.000000 -0.011140 
#    y 0.000000 2.013140 0.000000 
#    z -0.011140 0.000000 2.082380 
# 
# From -- ./inp_files/135797.got.cif
#   From: 2010.05.17/outbox.cif.g08.bks.cpg/sg15_68_cif.got.tgz:135797.got - 2010.06.03 18:47:42.
