data_PCOD9286957
_publ_section_title
;
Structure prediction by ZEFSAII (Michael W. Deem and Ramdas Pophale) SiO2 
 PCOD9286957
Probable space group: C 2/C
;
_chemical_formula_sum "Si O2"
_cell_formula_units_Z 64
_cell_length_a 21.909696
_cell_length_b 11.725218
_cell_length_c 11.838499
_cell_angle_alpha 90.000000
_cell_angle_beta 106.782584
_cell_angle_gamma 90.000000
_cell_volume 2911.727031
_symmetry_space_group_name_H-M "C 2/C"
_symmetry_group_IT_number 15
_symmetry_cell_setting 'monoclinic'
loop_
_space_group_symop_operation_xyz
x,y,z
-x,y,1/2-z
-x,-y,-z
x,-y,1/2+z
1/2+x,1/2+y,z
1/2-x,1/2+y,1/2-z
1/2-x,1/2-y,-z
1/2+x,1/2-y,1/2+z
loop_
_atom_site_type_symbol
_atom_site_label
_atom_site_fract_x
_atom_site_fract_y
_atom_site_fract_z
Si Si1 0.552506 0.683728 0.684177
Si Si2 0.795987 0.660290 0.962049
Si Si3 0.094268 0.360775 0.380449
Si Si4 0.101838 0.036057 0.266729
Si Si5 0.807176 0.417478 0.880717
Si Si6 0.305696 0.270526 0.722697
Si Si7 0.974303 0.140565 0.087964
Si Si8 0.614215 0.909292 0.792431
O O1 0.500000 0.657002 0.750000
O O2 0.608932 0.596581 0.745226
O O3 0.529050 0.651215 0.547645
O O4 0.572509 0.813363 0.710021
O O5 0.775823 0.528736 0.923589
O O6 0.808710 0.713426 0.846260
O O7 0.750000 0.750000 0.000000
O O8 0.856231 0.644573 0.077691
O O9 0.128180 0.395229 0.515253
O O10 0.150813 0.301041 0.339154
O O11 0.040099 0.267964 0.374210
O O12 0.077604 0.476103 0.306221
O O13 0.161410 0.105975 0.256324
O O14 0.082096 0.064711 0.385495
O O15 0.040535 0.087816 0.166165
O O16 0.764729 0.302969 0.857249
O O17 0.828078 0.439959 0.762536
#
# Coordination Sequence:
#
# PCOD9286957 Si02
#       8
#     8   8   8   8   8   8   8   8
#     4  12  25  43  67  97 133 169 225 272 333 395
#     4  11  24  41  64  95 140 173 219 276 321 389
#     4  10  22  45  66  92 129 174 224 268 332 389
#     4  10  24  41  66  98 132 174 221 272 329 390
#     4  11  22  43  64  97 133 172 222 271 324 398
#     4  11  23  40  68  95 128 180 217 267 331 393
#     4  10  21  45  68  90 131 175 213 281 328 385
#     4  11  24  42  65  97 136 174 216 274 331 397
#
# _framework density 21.980081999999999
#
# number of rings (size 3 to 8) (size 9 to 14) (size 15 to 20)
#    0.000    1.250    5.000    0.750    3.500    0.000 
#    6.750    0.625    0.000    0.000    0.000    0.000 
#    0.000    0.000    0.000    0.000    0.000    0.000 
#
# Total GULP energy -178721.676627 kJ/mol
# GULP energy per Si atom -5585.052395 kJ/mol
# Density = 2.193005 g / cm^3
# Si number density = 21.980082 Si / 1000 Ang^3
#
#
#
# Elastic Constant Matrix: (Units=GPa)
#
#
# Indices 1 2 3 4 5 6 
#
# 1 14.5365 12.5078 14.6601 0.0000 0.9399 0.0000
# 2 12.5078 108.7463 28.2960 0.0000 -5.9169 0.0000
# 3 14.6601 28.2960 127.2488 0.0000 -22.7249 0.0000
# 4 0.0000 0.0000 0.0000 24.2999 0.0000 -0.1271
# 5 0.9399 -5.9169 -22.7249 0.0000 19.2508 0.0000
# 6 0.0000 0.0000 0.0000 -0.1271 0.0000 30.1072
#
#
#
# Elastic Compliance Matrix: (Units=1/GPa)
#
#
# Indices 1 2 3 4 5 6 
#
# 1 0.089748 -0.008282 -0.012336 0.000000 -0.021489 0.000000
# 2 -0.008282 0.010529 -0.000934 0.000000 0.002538 0.000000
# 3 -0.012336 -0.000934 0.012093 0.000000 0.014591 0.000000
# 4 0.000000 0.000000 0.000000 0.041153 0.000000 0.000174
# 5 -0.021489 0.002538 0.014591 0.000000 0.070999 0.000000
# 6 0.000000 0.000000 0.000000 0.000174 0.000000 0.033215
#
#
# Mechanical properties :
#
#
# Convention : Reuss Voigt Hill
#
# Bulk Modulus (GPa) = 14.43680 40.16213 27.29946
# Shear Modulus (GPa) = 15.43538 27.73611 21.58575
#
# Velocity S-wave (km/s) = 2.65286 3.55614 3.13718
# Velocity P-wave (km/s) = 3.99574 5.93070 5.05664
#
# Compressibility (1/GPa) = 0.06926744
#
# Stress axis : x y z
#
# Youngs Moduli (GPa) = 11.14227 94.97195 82.69135
#
# Poissons Ratio (x) = 0.78657 1.02005
# Poissons Ratio (y) = 0.09228 0.07723
# Poissons Ratio (z) = 0.13745 0.08870
#
# Static dielectric constant tensor:
#      x y z
#    x 1.829590 0.000000 0.011970 
#    y 0.000000 1.848450 0.000000 
#    z 0.011970 0.000000 1.804130 
# 
# From -- ./inp_files/117613.got.cif
#   From: 2010.05.17/outbox.cif.g08.bks.cpg/sg15_59_cif.got.tgz:117613.got - 2010.06.03 18:47:42.
