data_PCOD9286227
_publ_section_title
;
Structure prediction by ZEFSAII (Michael W. Deem and Ramdas Pophale) SiO2 
 PCOD9286227
Probable space group: C 2/C
;
_chemical_formula_sum "Si O2"
_cell_formula_units_Z 64
_cell_length_a 28.488510
_cell_length_b 12.532150
_cell_length_c 18.067044
_cell_angle_alpha 90.000000
_cell_angle_beta 29.805393
_cell_angle_gamma 90.000000
_cell_volume 3206.176497
_symmetry_space_group_name_H-M "C 2/C"
_symmetry_group_IT_number 15
_symmetry_cell_setting 'monoclinic'
loop_
_space_group_symop_operation_xyz
x,y,z
-x,y,1/2-z
-x,-y,-z
x,-y,1/2+z
1/2+x,1/2+y,z
1/2-x,1/2+y,1/2-z
1/2-x,1/2-y,-z
1/2+x,1/2-y,1/2+z
loop_
_atom_site_type_symbol
_atom_site_label
_atom_site_fract_x
_atom_site_fract_y
_atom_site_fract_z
Si Si1 0.826622 0.340245 0.157287
Si Si2 0.759053 0.459968 0.115428
Si Si3 0.000236 0.234186 0.659709
Si Si4 0.751653 0.481692 0.844593
Si Si5 0.185210 0.647473 0.101837
Si Si6 0.545657 0.487045 0.357670
Si Si7 0.566221 0.357918 0.587470
Si Si8 0.300194 0.168302 0.141426
O O1 0.751949 0.383739 0.197362
O O2 0.833790 0.437987 0.203948
O O3 0.787878 0.242961 0.257887
O O4 0.909822 0.296066 0.994063
O O5 0.657273 0.477831 0.218276
O O6 0.805418 0.567870 0.081128
O O7 0.823179 0.410053 0.964951
O O8 0.914902 0.302964 0.742733
O O9 0.990313 0.116429 0.638482
O O10 0.000000 0.227765 0.750000
O O11 0.770064 0.430474 0.898865
O O12 0.765939 0.383317 0.766937
O O13 0.653801 0.553438 0.977847
O O14 0.250000 0.750000 0.000000
O O15 0.500000 0.500000 0.500000
O O16 0.508267 0.588670 0.365358
O O17 0.500000 0.337867 0.750000
O O18 0.612832 0.250053 0.489393
#
# Coordination Sequence:
#
# PCOD9286227 Si02
#       8
#     8   8   8   8   8   8   8   8
#     4  10  21  43  64  91 131 181 220 272 351 402
#     4  11  22  42  64  96 135 173 226 276 343 407
#     4  12  25  40  67  99 133 174 227 281 338 405
#     4  10  23  42  67  93 134 178 219 282 346 408
#     4  12  24  40  67  97 130 166 227 283 343 396
#     4  12  24  38  66 104 129 169 230 290 323 407
#     4  11  24  44  69 100 139 177 230 280 348 407
#     4  10  22  43  67  91 136 185 213 277 354 409
#
# _framework density 19.961472000000001
#
# number of rings (size 3 to 8) (size 9 to 14) (size 15 to 20)
#    0.000    1.000    2.500    5.625    3.500    0.500 
#    4.500    6.875    0.000    0.000    0.000    0.000 
#    0.000    0.000    0.000    0.000    0.000    0.000 
#
# Total GULP energy -178345.940647 kJ/mol
# GULP energy per Si atom -5573.310645 kJ/mol
# Density = 1.991604 g / cm^3
# Si number density = 19.961472 Si / 1000 Ang^3
#
#
#
# Elastic Constant Matrix: (Units=GPa)
#
#
# Indices 1 2 3 4 5 6 
#
# 1 26.4772 2.8163 1.3719 0.0000 5.7304 0.0000
# 2 2.8163 84.2311 26.8713 0.0001 4.7278 0.0000
# 3 1.3719 26.8713 91.7214 0.0000 2.4881 0.0000
# 4 0.0000 0.0001 0.0000 38.0299 0.0000 7.8883
# 5 5.7304 4.7278 2.4881 0.0000 36.4602 0.0000
# 6 0.0000 0.0000 0.0000 7.8883 0.0000 19.3635
#
#
#
# Elastic Compliance Matrix: (Units=1/GPa)
#
#
# Indices 1 2 3 4 5 6 
#
# 1 0.039179 -0.000923 -0.000152 0.000000 -0.006028 0.000000
# 2 -0.000923 0.013194 -0.003816 0.000000 -0.001305 0.000000
# 3 -0.000152 -0.003816 0.012031 0.000000 -0.000302 0.000000
# 4 0.000000 0.000000 0.000000 0.028722 0.000000 -0.011701
# 5 -0.006028 -0.001305 -0.000302 0.000000 0.028564 0.000000
# 6 0.000000 0.000000 0.000000 -0.011701 0.000000 0.056410
#
#
# Mechanical properties :
#
#
# Convention : Reuss Voigt Hill
#
# Bulk Modulus (GPa) = 18.30793 29.39428 23.85111
# Shear Modulus (GPa) = 24.26127 30.19540 27.22834
#
# Velocity S-wave (km/s) = 3.49005 3.89354 3.69730
# Velocity P-wave (km/s) = 5.04303 5.91358 5.49557
#
# Compressibility (1/GPa) = 0.05462115
#
# Stress axis : x y z
#
# Youngs Moduli (GPa) = 25.52389 75.79414 83.11835
#
# Poissons Ratio (x) = 0.06997 0.01264
# Poissons Ratio (y) = 0.02356 0.31719
# Poissons Ratio (z) = 0.00388 0.28924
#
# Static dielectric constant tensor:
#      x y z
#    x 1.968080 0.000000 -0.035450 
#    y 0.000000 1.803100 0.000000 
#    z -0.035450 0.000000 1.850490 
# 
# From -- ./inp_files/225157.got.cif
#   From: 2010.05.17/outbox.cif.g08.bks.cpg/sg15_113_cif.got.tgz:225157.got - 2010.06.03 18:47:42.
