data_PCOD9286549
_publ_section_title
;
Structure prediction by ZEFSAII (Michael W. Deem and Ramdas Pophale) SiO2 
 PCOD9286549
Probable space group: C 2/C
;
_chemical_formula_sum "Si O2"
_cell_formula_units_Z 64
_cell_length_a 7.417877
_cell_length_b 25.981498
_cell_length_c 14.211026
_cell_angle_alpha 90.000000
_cell_angle_beta 99.304618
_cell_angle_gamma 90.000000
_cell_volume 2702.820329
_symmetry_space_group_name_H-M "C 2/C"
_symmetry_group_IT_number 15
_symmetry_cell_setting 'monoclinic'
loop_
_space_group_symop_operation_xyz
x,y,z
-x,y,1/2-z
-x,-y,-z
x,-y,1/2+z
1/2+x,1/2+y,z
1/2-x,1/2+y,1/2-z
1/2-x,1/2-y,-z
1/2+x,1/2-y,1/2+z
loop_
_atom_site_type_symbol
_atom_site_label
_atom_site_fract_x
_atom_site_fract_y
_atom_site_fract_z
Si Si1 0.654156 0.820584 0.414835
Si Si2 0.760899 0.212371 0.590295
Si Si3 0.821458 0.032545 0.554867
Si Si4 0.767891 0.132436 0.121606
Si Si5 0.281097 0.267019 0.721147
Si Si6 0.456090 0.373113 0.354634
Si Si7 0.347754 0.027735 0.313806
Si Si8 0.084388 0.058353 0.127582
O O1 0.437151 0.813585 0.406131
O O2 0.726972 0.838090 0.521809
O O3 0.740207 0.769511 0.372767
O O4 0.742640 0.864197 0.355434
O O5 0.750000 0.250000 0.500000
O O6 0.800965 0.243456 0.690404
O O7 0.915602 0.169833 0.585583
O O8 0.773430 0.052736 0.447116
O O9 0.968661 0.072757 0.605466
O O10 0.663620 0.020665 0.616598
O O11 0.923811 0.977704 0.571969
O O12 0.727054 0.174672 0.197221
O O13 0.645767 0.082121 0.130541
O O14 0.978852 0.112090 0.134648
O O15 0.500000 0.267179 0.750000
O O16 0.500000 0.367694 0.250000
O O17 0.500000 0.020236 0.250000
O O18 0.172935 0.036777 0.229690
#
# Coordination Sequence:
#
# PCOD9286549 Si02
#       8
#     8   8   8   8   8   8   8   8
#     4  11  25  44  66 101 138 179 237 284 346 414
#     4  11  28  44  65 102 144 181 237 291 337 417
#     4  10  22  43  71  97 127 180 227 284 347 419
#     4  11  22  41  73  95 132 183 231 282 348 417
#     4  10  22  41  66  96 136 185 228 288 341 406
#     4  12  24  44  71  97 138 187 235 286 353 413
#     4  11  25  44  64 106 142 174 224 292 354 430
#     4  10  21  43  71  97 131 170 235 281 340 426
#
# _framework density 23.678968000000001
#
# number of rings (size 3 to 8) (size 9 to 14) (size 15 to 20)
#    0.000    1.250    2.500    3.375    5.250    3.500 
#    4.500    0.000    0.000    0.000    0.000    0.000 
#    0.000    0.000    0.000    0.000    0.000    0.000 
#
# Total GULP energy -178693.748844 kJ/mol
# GULP energy per Si atom -5584.179651 kJ/mol
# Density = 2.362507 g / cm^3
# Si number density = 23.678968 Si / 1000 Ang^3
#
#
#
# Elastic Constant Matrix: (Units=GPa)
#
#
# Indices 1 2 3 4 5 6 
#
# 1 94.7375 33.3766 25.8335 0.0000 -24.8498 0.0000
# 2 33.3766 96.3891 38.1703 0.0000 -9.2088 0.0000
# 3 25.8335 38.1703 131.5037 0.0000 -16.2978 0.0000
# 4 0.0000 0.0000 0.0000 31.1257 0.0000 -1.2043
# 5 -24.8498 -9.2088 -16.2978 0.0000 31.6328 0.0000
# 6 0.0000 0.0000 0.0000 -1.2043 0.0000 12.3342
#
#
#
# Elastic Compliance Matrix: (Units=1/GPa)
#
#
# Indices 1 2 3 4 5 6 
#
# 1 0.014749 -0.003939 -0.000492 0.000000 0.010187 0.000000
# 2 -0.003939 0.012868 -0.003077 0.000000 -0.000934 0.000000
# 3 -0.000492 -0.003077 0.009010 0.000000 0.003360 0.000000
# 4 0.000000 0.000000 0.000000 0.032250 0.000000 0.003149
# 5 0.010187 -0.000934 0.003360 0.000000 0.041075 0.000000
# 6 0.000000 0.000000 0.000000 0.003149 0.000000 0.081383
#
#
# Mechanical properties :
#
#
# Convention : Reuss Voigt Hill
#
# Bulk Modulus (GPa) = 46.27042 57.48790 51.87916
# Shear Modulus (GPa) = 23.41322 30.03520 26.72421
#
# Velocity S-wave (km/s) = 3.14789 3.56537 3.36312
# Velocity P-wave (km/s) = 5.72673 6.42494 6.08586
#
# Compressibility (1/GPa) = 0.02161208
#
# Stress axis : x y z
#
# Youngs Moduli (GPa) = 67.79964 77.71244 110.98171
#
# Poissons Ratio (x) = 0.30614 0.05455
# Poissons Ratio (y) = 0.26709 0.34148
# Poissons Ratio (z) = 0.03333 0.23911
#
# Static dielectric constant tensor:
#      x y z
#    x 2.053590 0.000000 -0.069040 
#    y 0.000000 1.872180 0.000000 
#    z -0.069040 0.000000 1.983090 
# 
# From -- ./inp_files/137876.got.cif
#   From: 2010.05.17/outbox.cif.g08.bks.cpg/sg15_69_cif.got.tgz:137876.got - 2010.06.03 18:47:42.
