data_PCOD9286502
_publ_section_title
;
Structure prediction by ZEFSAII (Michael W. Deem and Ramdas Pophale) SiO2 
 PCOD9286502
Probable space group: C 2/C
;
_chemical_formula_sum "Si O2"
_cell_formula_units_Z 32
_cell_length_a 9.326700
_cell_length_b 11.791266
_cell_length_c 10.761350
_cell_angle_alpha 90.000000
_cell_angle_beta 76.560996
_cell_angle_gamma 90.000000
_cell_volume 1151.058655
_symmetry_space_group_name_H-M "C 2/C"
_symmetry_group_IT_number 15
_symmetry_cell_setting 'monoclinic'
loop_
_space_group_symop_operation_xyz
x,y,z
-x,y,1/2-z
-x,-y,-z
x,-y,1/2+z
1/2+x,1/2+y,z
1/2-x,1/2+y,1/2-z
1/2-x,1/2-y,-z
1/2+x,1/2-y,1/2+z
loop_
_atom_site_type_symbol
_atom_site_label
_atom_site_fract_x
_atom_site_fract_y
_atom_site_fract_z
Si Si1 0.077200 0.120679 0.858309
Si Si2 0.116652 0.329339 0.982341
Si Si3 0.639072 0.701908 0.418442
Si Si4 0.165752 0.529021 0.267490
O O1 0.070197 0.258078 0.867139
O O2 0.000000 0.077450 0.750000
O O3 0.242847 0.075881 0.810812
O O4 0.972203 0.109467 0.999024
O O5 0.158157 0.451197 0.919364
O O6 0.250000 0.250000 0.000000
O O7 0.972477 0.304663 0.094778
O O8 0.750000 0.750000 0.500000
O O9 0.728511 0.631830 0.300659
O O10 0.000000 0.527953 0.250000
#
# Coordination Sequence:
#
# PCOD9286502 Si02
#       4
#     8   8   8   8
#     4  10  24  44  66 101 134 178 225 278 341 404
#     4  10  24  44  69  99 131 179 229 278 341 403
#     4  10  21  43  70  92 133 179 230 269 343 399
#     4  12  23  44  67  97 138 183 224 289 337 402
#
# _framework density 27.800495000000002
#
# number of rings (size 3 to 8) (size 9 to 14) (size 15 to 20)
#    1.500    0.000    2.500    3.000    3.500    0.000 
#    9.000    2.500    0.000    0.000    0.000    0.000 
#    0.000    0.000    0.000    0.000    0.000    0.000 
#
# Total GULP energy -89169.713842 kJ/mol
# GULP energy per Si atom -5573.107115 kJ/mol
# Density = 2.773722 g / cm^3
# Si number density = 27.800495 Si / 1000 Ang^3
#
#
#
# Elastic Constant Matrix: (Units=GPa)
#
#
# Indices 1 2 3 4 5 6 
#
# 1 148.6383 -3.1664 40.0494 0.0000 -39.6190 0.0000
# 2 -3.1664 84.8540 20.4197 0.0000 -21.4991 0.0000
# 3 40.0494 20.4197 139.8640 0.0000 -57.1336 0.0000
# 4 0.0000 0.0000 0.0000 44.5166 0.0000 -21.8659
# 5 -39.6190 -21.4991 -57.1336 0.0000 62.0328 0.0000
# 6 0.0000 0.0000 0.0000 -21.8659 0.0000 29.9802
#
#
#
# Elastic Compliance Matrix: (Units=1/GPa)
#
#
# Indices 1 2 3 4 5 6 
#
# 1 0.008369 0.001830 -0.000354 0.000000 0.005653 0.000000
# 2 0.001830 0.013320 -0.000169 0.000000 0.005629 0.000000
# 3 -0.000354 -0.000169 0.011478 0.000000 0.010286 0.000000
# 4 0.000000 0.000000 0.000000 0.035003 0.000000 0.025529
# 5 0.005653 0.005629 0.010286 0.000000 0.031156 0.000000
# 6 0.000000 0.000000 0.000000 0.025529 0.000000 0.051975
#
#
# Mechanical properties :
#
#
# Convention : Reuss Voigt Hill
#
# Bulk Modulus (GPa) = 27.94876 54.21796 41.08336
# Shear Modulus (GPa) = 31.13027 48.37616 39.75321
#
# Velocity S-wave (km/s) = 3.34993 4.17600 3.78557
# Velocity P-wave (km/s) = 5.00379 6.54193 5.82386
#
# Compressibility (1/GPa) = 0.03577976
#
# Stress axis : x y z
#
# Youngs Moduli (GPa) = 119.48925 75.07385 87.12361
#
# Poissons Ratio (x) = -0.13737 0.03088
# Poissons Ratio (y) = -0.21864 0.01473
# Poissons Ratio (z) = 0.04235 0.01269
#
# Static dielectric constant tensor:
#      x y z
#    x 2.322580 0.000000 -0.063450 
#    y 0.000000 2.341130 0.000000 
#    z -0.063450 0.000000 2.209050 
# 
# From -- ./inp_files/132574.got.cif
#   From: 2010.05.17/outbox.cif.g08.bks.cpg/sg15_67_cif.got.tgz:132574.got - 2010.06.03 18:47:42.
