data_PCOD9286442
_publ_section_title
;
Structure prediction by ZEFSAII (Michael W. Deem and Ramdas Pophale) SiO2 
 PCOD9286442
Probable space group: C 2/C
;
_chemical_formula_sum "Si O2"
_cell_formula_units_Z 52
_cell_length_a 9.447952
_cell_length_b 16.766461
_cell_length_c 18.073604
_cell_angle_alpha 90.000000
_cell_angle_beta 50.022791
_cell_angle_gamma 90.000000
_cell_volume 2193.929706
_symmetry_space_group_name_H-M "C 2/C"
_symmetry_group_IT_number 15
_symmetry_cell_setting 'monoclinic'
loop_
_space_group_symop_operation_xyz
x,y,z
-x,y,1/2-z
-x,-y,-z
x,-y,1/2+z
1/2+x,1/2+y,z
1/2-x,1/2+y,1/2-z
1/2-x,1/2-y,-z
1/2+x,1/2-y,1/2+z
loop_
_atom_site_type_symbol
_atom_site_label
_atom_site_fract_x
_atom_site_fract_y
_atom_site_fract_z
Si Si1 0.273030 0.622943 0.705016
Si Si2 0.110832 0.613275 0.085332
Si Si3 0.000000 0.752494 0.750000
Si Si4 0.500000 0.990866 0.750000
Si Si5 0.528063 0.659583 0.483273
Si Si6 0.350022 0.181989 0.047896
Si Si7 0.000000 0.037801 0.750000
Si Si8 0.171519 0.961741 0.549197
O O1 0.174092 0.549822 0.695319
O O2 0.435144 0.650574 0.595499
O O3 0.353194 0.592310 0.755208
O O4 0.123907 0.693532 0.759199
O O5 0.984141 0.566161 0.185158
O O6 0.994388 0.657734 0.063149
O O7 0.254019 0.669259 0.080753
O O8 0.240527 0.542906 0.009697
O O9 0.848993 0.801199 0.847208
O O10 0.427767 0.737725 0.485360
O O11 0.479944 0.581617 0.451134
O O12 0.328810 0.105718 0.002845
O O13 0.092808 0.983860 0.655872
#
# Coordination Sequence:
#
# PCOD9286442 Si02
#       8
#     8   8   4   4   8   8   4   8
#     4  10  21  43  69 101 133 185 232 289 349 416
#     4  12  24  44  73 105 140 181 238 289 346 410
#     4   9  23  46  68  92 146 188 230 274 368 422
#     4  11  22  40  72 100 141 184 236 280 349 420
#     4  11  23  48  70  98 142 191 225 286 357 420
#     4  11  25  44  69 104 143 181 232 292 345 416
#     4  12  23  40  74 108 137 170 246 302 337 400
#     4  12  24  44  72 106 140 184 231 291 349 410
#
# _framework density 23.701761999999999
#
# number of rings (size 3 to 8) (size 9 to 14) (size 15 to 20)
#    0.000    0.923    3.077    4.154    0.000    1.231 
#    2.769    3.077    0.000    0.000    0.000    0.000 
#    0.000    0.000    0.000    0.000    0.000    0.000 
#
# Total GULP energy -145591.293195 kJ/mol
# GULP energy per Si atom -5599.665123 kJ/mol
# Density = 2.364782 g / cm^3
# Si number density = 23.701762 Si / 1000 Ang^3
#
#
#
# Elastic Constant Matrix: (Units=GPa)
#
#
# Indices 1 2 3 4 5 6 
#
# 1 122.9728 33.5763 -2.1021 0.0000 7.1783 -0.0001
# 2 33.5763 93.8589 10.8319 0.0000 -2.8100 0.0000
# 3 -2.1021 10.8319 38.0111 0.0001 10.6233 -0.0002
# 4 0.0000 0.0000 0.0001 8.6622 -0.0001 5.8962
# 5 7.1783 -2.8100 10.6233 -0.0001 31.4226 0.0001
# 6 -0.0001 0.0000 -0.0002 5.8962 0.0001 11.9467
#
#
#
# Elastic Compliance Matrix: (Units=1/GPa)
#
#
# Indices 1 2 3 4 5 6 
#
# 1 0.009394 -0.003751 0.002520 0.000000 -0.003333 0.000000
# 2 -0.003751 0.012662 -0.004828 0.000000 0.003621 0.000000
# 3 0.002520 -0.004828 0.031037 -0.000001 -0.011500 0.000001
# 4 0.000000 0.000000 -0.000001 0.173848 0.000001 -0.085802
# 5 -0.003333 0.003621 -0.011500 0.000001 0.036798 -0.000001
# 6 0.000000 0.000000 0.000001 -0.085802 -0.000001 0.126053
#
#
# Mechanical properties :
#
#
# Convention : Reuss Voigt Hill
#
# Bulk Modulus (GPa) = 24.40497 37.71724 31.06110
# Shear Modulus (GPa) = 12.03176 24.57542 18.30359
#
# Velocity S-wave (km/s) = 2.25551 3.22353 2.78195
# Velocity P-wave (km/s) = 4.13548 5.45918 4.84277
#
# Compressibility (1/GPa) = 0.04097527
#
# Stress axis : x y z
#
# Youngs Moduli (GPa) = 106.45419 78.97818 32.21930
#
# Poissons Ratio (x) = 0.29625 -0.08119
# Poissons Ratio (y) = 0.39932 0.15554
# Poissons Ratio (z) = -0.26827 0.38128
#
# Static dielectric constant tensor:
#      x y z
#    x 1.889830 0.000000 -0.011220 
#    y 0.000000 1.905030 0.000000 
#    z -0.011220 0.000000 1.886590 
# 
# From -- ./inp_files/190876.got.cif
#   From: 2010.05.17/outbox.cif.g08.bks.cpg/sg15_96_cif.got.tgz:190876.got - 2010.06.03 18:47:42.
