data_PCOD9286988
_publ_section_title
;
Structure prediction by ZEFSAII (Michael W. Deem and Ramdas Pophale) SiO2 
 PCOD9286988
Probable space group: C 2/C
;
_chemical_formula_sum "Si O2"
_cell_formula_units_Z 48
_cell_length_a 16.855256
_cell_length_b 21.272909
_cell_length_c 14.207148
_cell_angle_alpha 90.000000
_cell_angle_beta 154.502074
_cell_angle_gamma 90.000000
_cell_volume 2192.908595
_symmetry_space_group_name_H-M "C 2/C"
_symmetry_group_IT_number 15
_symmetry_cell_setting 'monoclinic'
loop_
_space_group_symop_operation_xyz
x,y,z
-x,y,1/2-z
-x,-y,-z
x,-y,1/2+z
1/2+x,1/2+y,z
1/2-x,1/2+y,1/2-z
1/2-x,1/2-y,-z
1/2+x,1/2-y,1/2+z
loop_
_atom_site_type_symbol
_atom_site_label
_atom_site_fract_x
_atom_site_fract_y
_atom_site_fract_z
Si Si1 0.990960 0.841908 0.136394
Si Si2 0.974657 0.533050 0.571894
Si Si3 0.832276 0.342857 0.834792
Si Si4 0.703205 0.813304 0.505304
Si Si5 0.700351 0.545183 0.432692
Si Si6 0.903557 0.696565 0.050397
O O1 0.198473 0.830759 0.323599
O O2 0.000000 0.871291 0.250000
O O3 0.899132 0.772337 0.053013
O O4 0.850068 0.870694 0.910758
O O5 0.940934 0.604561 0.507684
O O6 0.794651 0.514673 0.440802
O O7 0.000000 0.500000 0.500000
O O8 0.153101 0.529860 0.828605
O O9 0.969177 0.318405 0.901805
O O10 0.778367 0.297478 0.863336
O O11 0.500000 0.828304 0.250000
O O12 0.750000 0.750000 0.500000
O O13 0.808892 0.878949 0.597109
O O14 0.500000 0.523925 0.250000
O O15 0.000000 0.673253 0.250000
#
# Coordination Sequence:
#
# PCOD9286988 Si02
#       6
#     8   8   8   8   8   8
#     4  11  20  35  56  85 125 167 207 251 316 390
#     4  10  23  46  67  92 129 171 219 278 339 389
#     4  11  23  38  61  90 125 171 216 265 330 382
#     4  11  23  39  60  97 137 176 219 268 327 401
#     4  10  21  45  70  96 134 172 218 279 335 403
#     4  11  20  36  57  84 128 173 209 258 317 385
#
# _framework density 21.888736999999999
#
# number of rings (size 3 to 8) (size 9 to 14) (size 15 to 20)
#    0.000    1.333    6.667    1.500    2.333    3.333 
#    3.000    0.833    0.000    0.000    0.000    0.000 
#    0.000    0.000    0.000    0.000    0.000    0.000 
#
# Total GULP energy -133975.392087 kJ/mol
# GULP energy per Si atom -5582.308004 kJ/mol
# Density = 2.183892 g / cm^3
# Si number density = 21.888737 Si / 1000 Ang^3
#
#
#
# Elastic Constant Matrix: (Units=GPa)
#
#
# Indices 1 2 3 4 5 6 
#
# 1 201.3354 32.1326 84.0150 0.0000 -10.0134 0.0000
# 2 32.1326 21.4196 2.3895 0.0000 0.6244 0.0000
# 3 84.0150 2.3895 120.9308 0.0000 7.8792 0.0000
# 4 0.0000 0.0000 0.0000 6.6928 0.0000 -6.5128
# 5 -10.0134 0.6244 7.8792 0.0000 48.4279 0.0000
# 6 0.0000 0.0000 0.0000 -6.5128 0.0000 24.1349
#
#
#
# Elastic Compliance Matrix: (Units=1/GPa)
#
#
# Indices 1 2 3 4 5 6 
#
# 1 0.010630 -0.015235 -0.007318 0.000000 0.003585 0.000000
# 2 -0.015235 0.068634 0.009593 0.000000 -0.005596 0.000000
# 3 -0.007318 0.009593 0.013412 0.000000 -0.003819 0.000000
# 4 0.000000 0.000000 0.000000 0.202622 0.000000 0.054677
# 5 0.003585 -0.005596 -0.003819 0.000000 0.022084 0.000000
# 6 0.000000 0.000000 0.000000 0.054677 0.000000 0.056189
#
#
# Mechanical properties :
#
#
# Convention : Reuss Voigt Hill
#
# Bulk Modulus (GPa) = 14.97980 64.52890 39.75435
# Shear Modulus (GPa) = 11.85556 30.86102 21.35829
#
# Velocity S-wave (km/s) = 2.32982 3.75894 3.12711
# Velocity P-wave (km/s) = 3.75445 6.95586 5.58927
#
# Compressibility (1/GPa) = 0.06675655
#
# Stress axis : x y z
#
# Youngs Moduli (GPa) = 94.07143 14.57003 74.55806
#
# Poissons Ratio (x) = 0.22198 0.54560
# Poissons Ratio (y) = 1.43318 -0.71522
# Poissons Ratio (z) = 0.68839 -0.13977
#
# Static dielectric constant tensor:
#      x y z
#    x 1.974520 0.000000 -0.021320 
#    y 0.000000 2.098260 0.000000 
#    z -0.021320 0.000000 1.806120 
# 
# From -- ./inp_files/101397.got.cif
#   From: 2010.05.17/outbox.cif.g08.bks.cpg/sg15_51_cif.got.tgz:101397.got - 2010.06.03 18:47:42.
