data_PCOD9286408
_publ_section_title
;
Structure prediction by ZEFSAII (Michael W. Deem and Ramdas Pophale) SiO2 
 PCOD9286408
Probable space group: C 2/C
;
_chemical_formula_sum "Si O2"
_cell_formula_units_Z 48
_cell_length_a 24.828456
_cell_length_b 17.144890
_cell_length_c 16.803998
_cell_angle_alpha 90.000000
_cell_angle_beta 17.221263
_cell_angle_gamma 90.000000
_cell_volume 2117.778337
_symmetry_space_group_name_H-M "C 2/C"
_symmetry_group_IT_number 15
_symmetry_cell_setting 'monoclinic'
loop_
_space_group_symop_operation_xyz
x,y,z
-x,y,1/2-z
-x,-y,-z
x,-y,1/2+z
1/2+x,1/2+y,z
1/2-x,1/2+y,1/2-z
1/2-x,1/2-y,-z
1/2+x,1/2-y,1/2+z
loop_
_atom_site_type_symbol
_atom_site_label
_atom_site_fract_x
_atom_site_fract_y
_atom_site_fract_z
Si Si1 0.000000 0.759024 0.250000
Si Si2 0.151498 0.354749 0.400874
Si Si3 0.500000 0.474159 0.750000
Si Si4 0.781676 0.770639 0.063935
Si Si5 0.843770 0.122487 0.334283
Si Si6 0.735824 0.103241 0.083835
Si Si7 0.718193 0.962763 0.439917
O O1 0.943171 0.704079 0.402827
O O2 0.830369 0.816120 0.473097
O O3 0.250410 0.304381 0.195156
O O4 0.265867 0.416485 0.292324
O O5 0.979715 0.396840 0.602366
O O6 0.515324 0.421342 0.806215
O O7 0.671411 0.531492 0.501761
O O8 0.651832 0.696673 0.230268
O O9 0.733355 0.834702 0.063651
O O10 0.000000 0.751607 0.750000
O O11 0.773002 0.051497 0.379642
O O12 0.782605 0.086184 0.925305
O O13 0.500000 0.961934 0.750000
#
# Coordination Sequence:
#
# PCOD9286408 Si02
#       7
#     4   8   4   8   8   8   8
#     4  11  20  36  64  97 140 170 220 275 350 412
#     4  11  22  39  68  98 134 176 222 278 340 401
#     4   9  18  40  72  91 134 170 220 283 334 402
#     4  11  25  44  66  96 137 183 229 274 326 397
#     4  10  21  43  68  88 136 177 224 278 324 399
#     4   9  19  37  64 101 131 172 214 283 346 402
#     4   9  18  39  66  94 127 166 220 280 340 393
#
# _framework density 22.665261000000001
#
# number of rings (size 3 to 8) (size 9 to 14) (size 15 to 20)
#    0.000    2.000    3.333    1.000    0.000    2.667 
#    0.000   13.333    0.000    0.000    0.000    0.000 
#    0.000    0.000    0.000    0.000    0.000    0.000 
#
# Total GULP energy -133860.033188 kJ/mol
# GULP energy per Si atom -5577.501383 kJ/mol
# Density = 2.261367 g / cm^3
# Si number density = 22.665261 Si / 1000 Ang^3
#
#
#
# Elastic Constant Matrix: (Units=GPa)
#
#
# Indices 1 2 3 4 5 6 
#
# 1 113.9325 85.8756 32.8149 0.0007 -4.6887 -0.0020
# 2 85.8756 163.9136 32.7554 -0.0016 -3.2094 0.0004
# 3 32.8149 32.7554 50.2866 -0.0016 1.1967 0.0000
# 4 0.0007 -0.0016 -0.0016 10.1432 0.0012 -8.1464
# 5 -4.6887 -3.2094 1.1967 0.0012 34.7812 0.0009
# 6 -0.0020 0.0004 0.0000 -8.1464 0.0009 59.4404
#
#
#
# Elastic Compliance Matrix: (Units=1/GPa)
#
#
# Indices 1 2 3 4 5 6 
#
# 1 0.015885 -0.007139 -0.005756 -0.000003 0.001681 0.000000
# 2 -0.007139 0.010245 -0.002016 0.000002 0.000052 0.000000
# 3 -0.005756 -0.002016 0.024998 0.000005 -0.001822 0.000000
# 4 -0.000003 0.000002 0.000005 0.110782 -0.000005 0.015183
# 5 0.001681 0.000052 -0.001822 -0.000005 0.029045 -0.000001
# 6 0.000000 0.000000 0.000000 0.015183 -0.000001 0.018904
#
#
# Mechanical properties :
#
#
# Convention : Reuss Voigt Hill
#
# Bulk Modulus (GPa) = 46.93283 70.11381 58.52332
# Shear Modulus (GPa) = 20.26065 32.65210 26.45638
#
# Velocity S-wave (km/s) = 2.99307 3.79967 3.42023
# Velocity P-wave (km/s) = 5.71809 7.08884 6.44004
#
# Compressibility (1/GPa) = 0.02130705
#
# Stress axis : x y z
#
# Youngs Moduli (GPa) = 62.95154 97.60902 40.00282
#
# Poissons Ratio (x) = 0.69686 0.23024
# Poissons Ratio (y) = 0.44943 0.08063
# Poissons Ratio (z) = 0.36233 0.19675
#
# Static dielectric constant tensor:
#      x y z
#    x 1.871250 0.000000 -0.037990 
#    y 0.000000 1.862610 0.000000 
#    z -0.037990 0.000000 1.958050 
# 
# From -- ./inp_files/222872.got.cif
#   From: 2010.05.17/outbox.cif.g08.bks.cpg/sg15_112_cif.got.tgz:222872.got - 2010.06.03 18:47:42.
