data_PCOD9286173
_publ_section_title
;
Structure prediction by ZEFSAII (Michael W. Deem and Ramdas Pophale) SiO2 
 PCOD9286173
Probable space group: C 2/C
;
_chemical_formula_sum "Si O2"
_cell_formula_units_Z 56
_cell_length_a 12.096549
_cell_length_b 26.244357
_cell_length_c 9.609091
_cell_angle_alpha 90.000000
_cell_angle_beta 71.380356
_cell_angle_gamma 90.000000
_cell_volume 2890.891704
_symmetry_space_group_name_H-M "C 2/C"
_symmetry_group_IT_number 15
_symmetry_cell_setting 'monoclinic'
loop_
_space_group_symop_operation_xyz
x,y,z
-x,y,1/2-z
-x,-y,-z
x,-y,1/2+z
1/2+x,1/2+y,z
1/2-x,1/2+y,1/2-z
1/2-x,1/2-y,-z
1/2+x,1/2-y,1/2+z
loop_
_atom_site_type_symbol
_atom_site_label
_atom_site_fract_x
_atom_site_fract_y
_atom_site_fract_z
Si Si1 0.007928 0.807150 0.021138
Si Si2 0.000000 0.895371 0.250000
Si Si3 0.500000 0.776182 0.750000
Si Si4 0.131032 0.383448 0.206965
Si Si5 0.717432 0.690943 0.039128
Si Si6 0.415458 0.005933 0.904004
Si Si7 0.739695 0.831135 0.660880
Si Si8 0.251574 0.578890 0.939139
O O1 0.990559 0.857482 0.122126
O O2 0.969889 0.760171 0.132689
O O3 0.921514 0.811944 0.927097
O O4 0.144093 0.800621 0.931818
O O5 0.880974 0.925727 0.323146
O O6 0.615167 0.807974 0.669936
O O7 0.120358 0.437062 0.127147
O O8 0.172078 0.397299 0.346901
O O9 0.000000 0.361386 0.250000
O O10 0.219827 0.344216 0.101354
O O11 0.754937 0.669573 0.174163
O O12 0.750000 0.750000 0.000000
O O13 0.500000 0.984456 0.750000
O O14 0.302642 0.973342 0.985571
O O15 0.500000 0.000000 0.000000
O O16 0.751976 0.883631 0.571696
#
# Coordination Sequence:
#
# PCOD9286173 Si02
#       8
#     8   4   4   8   8   8   8   8
#     4  10  21  43  62  82 134 179 223 268 336 389
#     4   9  20  42  66  92 124 184 220 261 326 404
#     4  11  22  38  60  96 126 168 226 281 336 404
#     4  11  25  43  68 100 135 176 218 280 346 402
#     4  12  25  43  63  97 136 176 228 281 329 404
#     4  11  23  43  72 104 137 173 218 285 352 406
#     4  11  26  37  66  97 127 173 227 284 331 405
#     4  11  23  43  71  95 135 177 223 274 335 416
#
# _framework density 19.371186000000002
#
# number of rings (size 3 to 8) (size 9 to 14) (size 15 to 20)
#    0.000    1.143    5.714    0.857    5.000    2.286 
#    0.000    0.714    3.143    0.000    0.000    0.000 
#    0.000    0.000    0.000    0.000    0.000    0.000 
#
# Total GULP energy -156254.290446 kJ/mol
# GULP energy per Si atom -5580.510373 kJ/mol
# Density = 1.932710 g / cm^3
# Si number density = 19.371186 Si / 1000 Ang^3
#
#
#
# Elastic Constant Matrix: (Units=GPa)
#
#
# Indices 1 2 3 4 5 6 
#
# 1 124.4712 30.6621 29.6681 0.0000 -16.9651 0.0000
# 2 30.6621 60.6414 27.6505 0.0000 -12.1941 0.0000
# 3 29.6681 27.6505 91.3591 0.0000 1.0145 0.0000
# 4 0.0000 0.0000 0.0000 11.9021 0.0000 -9.3831
# 5 -16.9651 -12.1941 1.0145 0.0000 57.1534 0.0000
# 6 0.0000 0.0000 0.0000 -9.3831 0.0000 18.5329
#
#
#
# Elastic Compliance Matrix: (Units=1/GPa)
#
#
# Indices 1 2 3 4 5 6 
#
# 1 0.009696 -0.003503 -0.002112 0.000000 0.002168 0.000000
# 2 -0.003503 0.021452 -0.005395 0.000000 0.003633 0.000000
# 3 -0.002112 -0.005395 0.013287 0.000000 -0.002014 0.000000
# 4 0.000000 0.000000 0.000000 0.139831 0.000000 0.070796
# 5 0.002168 0.003633 -0.002014 0.000000 0.018951 0.000000
# 6 0.000000 0.000000 0.000000 0.070796 0.000000 0.089802
#
#
# Mechanical properties :
#
#
# Convention : Reuss Voigt Hill
#
# Bulk Modulus (GPa) = 44.61671 50.27036 47.44354
# Shear Modulus (GPa) = 15.50325 30.08374 22.79350
#
# Velocity S-wave (km/s) = 2.83207 3.94511 3.43398
# Velocity P-wave (km/s) = 5.81177 6.83807 6.34570
#
# Compressibility (1/GPa) = 0.02241313
#
# Stress axis : x y z
#
# Youngs Moduli (GPa) = 103.13494 46.61475 75.26086
#
# Poissons Ratio (x) = 0.16331 0.15898
# Poissons Ratio (y) = 0.36133 0.40606
# Poissons Ratio (z) = 0.21787 0.25150
#
# Static dielectric constant tensor:
#      x y z
#    x 1.709410 0.000000 -0.007050 
#    y 0.000000 1.655080 0.000000 
#    z -0.007050 0.000000 1.674500 
# 
# From -- ./inp_files/35171.got.cif
#   From: 2010.05.17/outbox.cif.g08.bks.cpg/sg15_18_cif.got.tgz:35171.got - 2010.06.03 18:47:42.
