data_PCOD9286010
_publ_section_title
;
Structure prediction by ZEFSAII (Michael W. Deem and Ramdas Pophale) SiO2 
 PCOD9286010
Probable space group: C 2/C
;
_chemical_formula_sum "Si O2"
_cell_formula_units_Z 48
_cell_length_a 16.113015
_cell_length_b 9.247504
_cell_length_c 15.432564
_cell_angle_alpha 90.000000
_cell_angle_beta 64.192564
_cell_angle_gamma 90.000000
_cell_volume 2070.181767
_symmetry_space_group_name_H-M "C 2/C"
_symmetry_group_IT_number 15
_symmetry_cell_setting 'monoclinic'
loop_
_space_group_symop_operation_xyz
x,y,z
-x,y,1/2-z
-x,-y,-z
x,-y,1/2+z
1/2+x,1/2+y,z
1/2-x,1/2+y,1/2-z
1/2-x,1/2-y,-z
1/2+x,1/2-y,1/2+z
loop_
_atom_site_type_symbol
_atom_site_label
_atom_site_fract_x
_atom_site_fract_y
_atom_site_fract_z
Si Si1 0.091923 0.492323 0.404629
Si Si2 0.341981 0.695446 0.193926
Si Si3 0.843136 0.834073 0.432325
Si Si4 0.737195 0.353711 0.588424
Si Si5 0.362983 0.829079 0.758623
Si Si6 0.971311 0.062372 0.660413
O O1 0.136375 0.335630 0.372432
O O2 0.164829 0.598706 0.416762
O O3 0.078934 0.547539 0.312559
O O4 0.000000 0.500000 0.500000
O O5 0.319980 0.718318 0.306376
O O6 0.245026 0.634012 0.201664
O O7 0.426258 0.585501 0.150796
O O8 0.750000 0.750000 0.500000
O O9 0.882908 0.716105 0.346492
O O10 0.939413 0.882248 0.433203
O O11 0.809194 0.991417 0.413692
O O12 0.750000 0.250000 0.500000
O O13 0.390049 0.681204 0.696186
O O14 0.000000 0.045741 0.750000
#
# Coordination Sequence:
#
# PCOD9286010 Si02
#       6
#     8   8   8   8   8   8
#     4  11  26  42  67 103 141 181 240 297 357 425
#     4  11  21  45  72  96 141 185 235 294 354 435
#     4  11  24  44  70 102 143 183 245 302 360 439
#     4  11  25  46  69 102 142 187 241 297 369 431
#     4  10  21  44  67  96 139 184 232 296 355 422
#     4  10  21  42  69  98 134 185 233 284 357 427
#
# _framework density 23.186368999999999
#
# number of rings (size 3 to 8) (size 9 to 14) (size 15 to 20)
#    0.000    1.333    5.000    1.000    7.000    0.000 
#    0.000    4.167    0.000    0.000    0.000    0.000 
#    0.000    0.000    0.000    0.000    0.000    0.000 
#
# Total GULP energy -133886.525599 kJ/mol
# GULP energy per Si atom -5578.605233 kJ/mol
# Density = 2.313360 g / cm^3
# Si number density = 23.186369 Si / 1000 Ang^3
#
#
#
# Elastic Constant Matrix: (Units=GPa)
#
#
# Indices 1 2 3 4 5 6 
#
# 1 101.0700 46.8863 51.4545 0.0000 -21.5774 0.0000
# 2 46.8863 70.1811 42.5342 0.0000 -15.5003 0.0000
# 3 51.4545 42.5342 115.3081 0.0000 -39.8261 0.0000
# 4 0.0000 0.0000 0.0000 32.6346 0.0000 -7.8697
# 5 -21.5774 -15.5003 -39.8261 0.0000 33.9547 0.0000
# 6 0.0000 0.0000 0.0000 -7.8697 0.0000 48.8483
#
#
#
# Elastic Compliance Matrix: (Units=1/GPa)
#
#
# Indices 1 2 3 4 5 6 
#
# 1 0.015811 -0.008058 -0.003166 0.000000 0.002656 0.000000
# 2 -0.008058 0.022469 -0.004906 0.000000 -0.000618 0.000000
# 3 -0.003166 -0.004906 0.017527 0.000000 0.016306 0.000000
# 4 0.000000 0.000000 0.000000 0.031881 0.000000 0.005136
# 5 0.002656 -0.000618 0.016306 0.000000 0.049982 0.000000
# 6 0.000000 0.000000 0.000000 0.005136 0.000000 0.021299
#
#
# Mechanical properties :
#
#
# Convention : Reuss Voigt Hill
#
# Bulk Modulus (GPa) = 42.46693 63.14547 52.80620
# Shear Modulus (GPa) = 25.11602 32.79979 28.95791
#
# Velocity S-wave (km/s) = 3.29481 3.76522 3.53784
# Velocity P-wave (km/s) = 5.72971 6.79673 6.28590
#
# Compressibility (1/GPa) = 0.02354773
#
# Stress axis : x y z
#
# Youngs Moduli (GPa) = 63.24834 44.50613 57.05593
#
# Poissons Ratio (x) = 0.35861 0.18062
# Poissons Ratio (y) = 0.50962 0.27991
# Poissons Ratio (z) = 0.20023 0.21835
#
# Static dielectric constant tensor:
#      x y z
#    x 1.985760 0.000000 0.070290 
#    y 0.000000 1.893260 0.000000 
#    z 0.070290 0.000000 1.985710 
# 
# From -- ./inp_files/208952.got.cif
#   From: 2010.05.17/outbox.cif.g08.bks.cpg/sg15_105_cif.got.tgz:208952.got - 2010.06.03 18:47:42.
