data_PCOD9286837
_publ_section_title
;
Structure prediction by ZEFSAII (Michael W. Deem and Ramdas Pophale) SiO2 
 PCOD9286837
Probable space group: C 2/C
;
_chemical_formula_sum "Si O2"
_cell_formula_units_Z 52
_cell_length_a 8.569292
_cell_length_b 27.047007
_cell_length_c 11.520529
_cell_angle_alpha 90.000000
_cell_angle_beta 115.694029
_cell_angle_gamma 90.000000
_cell_volume 2406.136551
_symmetry_space_group_name_H-M "C 2/C"
_symmetry_group_IT_number 15
_symmetry_cell_setting 'monoclinic'
loop_
_space_group_symop_operation_xyz
x,y,z
-x,y,1/2-z
-x,-y,-z
x,-y,1/2+z
1/2+x,1/2+y,z
1/2-x,1/2+y,1/2-z
1/2-x,1/2-y,-z
1/2+x,1/2-y,1/2+z
loop_
_atom_site_type_symbol
_atom_site_label
_atom_site_fract_x
_atom_site_fract_y
_atom_site_fract_z
Si Si1 0.004399 0.902537 0.054020
Si Si2 0.270962 0.565848 0.094928
Si Si3 0.000000 0.978207 0.250000
Si Si4 0.791586 0.616487 0.185591
Si Si5 0.976550 0.354938 0.050138
Si Si6 0.755791 0.822184 0.305915
Si Si7 0.143875 0.713951 0.203768
O O1 0.059654 0.943262 0.164646
O O2 0.061593 0.849041 0.117681
O O3 0.104708 0.914063 0.966397
O O4 0.802223 0.903920 0.957631
O O5 0.343118 0.511306 0.146745
O O6 0.283418 0.590321 0.225370
O O7 0.082687 0.588388 0.995545
O O8 0.744515 0.673995 0.188857
O O9 0.000000 0.611762 0.250000
O O10 0.855432 0.337509 0.117565
O O11 0.165588 0.344999 0.162450
O O12 0.934635 0.319039 0.927269
O O13 0.763000 0.763241 0.305299
O O14 0.000000 0.730025 0.250000
#
# Coordination Sequence:
#
# PCOD9286837 Si02
#       7
#     8   8   4   8   8   8   8
#     4  11  24  41  68  96 128 168 218 267 321 383
#     4  10  21  44  70  86 127 168 211 272 326 380
#     4  12  24  40  74  98 120 168 222 270 326 388
#     4  10  22  43  65  96 131 171 215 264 319 384
#     4   9  21  42  62  92 127 165 219 261 313 376
#     4  10  22  40  63  94 130 169 210 265 309 377
#     4  10  22  37  61  91 129 177 206 253 316 381
#
# _framework density 21.611408999999998
#
# number of rings (size 3 to 8) (size 9 to 14) (size 15 to 20)
#    0.000    1.846    1.538    0.923    3.231    4.308 
#    5.538    3.077    0.000    0.000    0.000    0.000 
#    0.000    0.000    0.000    0.000    0.000    0.000 
#
# Total GULP energy -144895.860363 kJ/mol
# GULP energy per Si atom -5572.917706 kJ/mol
# Density = 2.156222 g / cm^3
# Si number density = 21.611409 Si / 1000 Ang^3
#
#
#
# Elastic Constant Matrix: (Units=GPa)
#
#
# Indices 1 2 3 4 5 6 
#
# 1 51.2921 14.2542 33.7243 0.0000 -1.2921 0.0000
# 2 14.2542 77.5461 24.2482 0.0000 1.1026 0.0000
# 3 33.7243 24.2482 120.9118 0.0000 9.0846 0.0000
# 4 0.0000 0.0000 0.0000 34.9131 0.0000 -7.6070
# 5 -1.2921 1.1026 9.0846 0.0000 31.6981 0.0000
# 6 0.0000 0.0000 0.0000 -7.6070 0.0000 20.9451
#
#
#
# Elastic Compliance Matrix: (Units=1/GPa)
#
#
# Indices 1 2 3 4 5 6 
#
# 1 0.024594 -0.002505 -0.006581 0.000000 0.002976 0.000000
# 2 -0.002505 0.014017 -0.002113 0.000000 0.000016 0.000000
# 3 -0.006581 -0.002113 0.010777 0.000000 -0.003283 0.000000
# 4 0.000000 0.000000 0.000000 0.031104 0.000000 0.011297
# 5 0.002976 0.000016 -0.003283 0.000000 0.032609 0.000000
# 6 0.000000 0.000000 0.000000 0.011297 0.000000 0.051847
#
#
# Mechanical properties :
#
#
# Convention : Reuss Voigt Hill
#
# Bulk Modulus (GPa) = 37.05316 43.80039 40.42678
# Shear Modulus (GPa) = 25.46566 29.34614 27.40590
#
# Velocity S-wave (km/s) = 3.43642 3.68897 3.56493
# Velocity P-wave (km/s) = 5.73827 6.20128 5.97426
#
# Compressibility (1/GPa) = 0.02698825
#
# Stress axis : x y z
#
# Youngs Moduli (GPa) = 40.65979 71.34348 92.79413
#
# Poissons Ratio (x) = 0.17874 0.61067
# Poissons Ratio (y) = 0.10187 0.19611
# Poissons Ratio (z) = 0.26758 0.15078
#
# Static dielectric constant tensor:
#      x y z
#    x 1.871880 0.000000 0.048450 
#    y 0.000000 1.791660 0.000000 
#    z 0.048450 0.000000 1.818310 
# 
# From -- ./inp_files/81500.got.cif
#   From: 2010.05.17/outbox.cif.g08.bks.cpg/sg15_41_cif.got.tgz:81500.got - 2010.06.03 18:47:42.
