data_PCOD9286148
_publ_section_title
;
Structure prediction by ZEFSAII (Michael W. Deem and Ramdas Pophale) SiO2 
 PCOD9286148
Probable space group: C 2/C
;
_chemical_formula_sum "Si O2"
_cell_formula_units_Z 40
_cell_length_a 10.333048
_cell_length_b 17.966780
_cell_length_c 11.525373
_cell_angle_alpha 90.000000
_cell_angle_beta 57.381387
_cell_angle_gamma 90.000000
_cell_volume 1802.224118
_symmetry_space_group_name_H-M "C 2/C"
_symmetry_group_IT_number 15
_symmetry_cell_setting 'monoclinic'
loop_
_space_group_symop_operation_xyz
x,y,z
-x,y,1/2-z
-x,-y,-z
x,-y,1/2+z
1/2+x,1/2+y,z
1/2-x,1/2+y,1/2-z
1/2-x,1/2-y,-z
1/2+x,1/2-y,1/2+z
loop_
_atom_site_type_symbol
_atom_site_label
_atom_site_fract_x
_atom_site_fract_y
_atom_site_fract_z
Si Si1 0.583392 0.252581 0.949928
Si Si2 0.500000 0.083689 0.750000
Si Si3 0.345255 0.363005 0.397896
Si Si4 0.310036 0.849026 0.556820
Si Si5 0.000000 0.209298 0.250000
Si Si6 0.331037 0.995736 0.136771
O O1 0.711932 0.194622 0.928482
O O2 0.595930 0.253802 0.805417
O O3 0.610323 0.333395 0.994811
O O4 0.419746 0.213990 0.058675
O O5 0.594889 0.126617 0.604060
O O6 0.631670 0.037429 0.755059
O O7 0.500000 0.352736 0.250000
O O8 0.275509 0.443161 0.392629
O O9 0.137159 0.827049 0.609609
O O10 0.283095 0.918655 0.655648
O O11 0.500000 0.000000 0.000000
#
# Coordination Sequence:
#
# PCOD9286148 Si02
#       6
#     8   4   8   8   4   8
#     4  11  24  44  66  98 144 187 231 287 358 421
#     4  10  21  42  74  90 135 188 228 284 348 431
#     4  11  24  41  68  99 138 181 238 290 350 414
#     4  11  24  45  68 102 137 183 236 286 355 419
#     4  12  27  40  70 106 139 176 234 290 344 427
#     4  10  22  43  67  96 131 183 234 279 353 415
#
# _framework density 22.194797000000001
#
# number of rings (size 3 to 8) (size 9 to 14) (size 15 to 20)
#    0.000    1.200    4.000    2.400    4.200    3.200 
#    1.800    2.000    0.000    0.000    0.000    0.000 
#    0.000    0.000    0.000    0.000    0.000    0.000 
#
# Total GULP energy -111394.178044 kJ/mol
# GULP energy per Si atom -5569.708902 kJ/mol
# Density = 2.214428 g / cm^3
# Si number density = 22.194797 Si / 1000 Ang^3
#
#
#
# Elastic Constant Matrix: (Units=GPa)
#
#
# Indices 1 2 3 4 5 6 
#
# 1 118.5177 49.9174 43.3601 0.0000 -3.0169 -0.0001
# 2 49.9174 76.9147 22.2994 0.0000 13.3364 0.0000
# 3 43.3601 22.2994 77.7149 0.0000 -1.2391 0.0000
# 4 0.0000 0.0000 0.0000 -992.1901 0.0000 2535.2218
# 5 -3.0169 13.3364 -1.2391 0.0000 55.3862 0.0001
# 6 -0.0001 0.0000 0.0000 2535.2218 0.0001-6420.5111
#
#
#
# Elastic Compliance Matrix: (Units=1/GPa)
#
#
# Indices 1 2 3 4 5 6 
#
# 1 0.013763 -0.007801 -0.005400 0.000000 0.002507 0.000000
# 2 -0.007801 0.019318 -0.001272 0.000000 -0.005105 0.000000
# 3 -0.005400 -0.001272 0.016252 0.000000 0.000376 0.000000
# 4 0.000000 0.000000 0.000000 0.112676 0.000000 0.044491
# 5 0.002507 -0.005105 0.000376 0.000000 0.019429 0.000000
# 6 0.000000 0.000000 0.000000 0.044491 0.000000 0.017412
#
#
# Mechanical properties :
#
#
# Convention : Reuss Voigt Hill
#
# Bulk Modulus (GPa) = 49.05402 56.03346 52.54374
# Shear Modulus (GPa) = 21.31360 -1460.95831 -719.82235
#
# Velocity S-wave (km/s) = 3.10223 -25.68409 -18.02843
# Velocity P-wave (km/s) = 5.91450 29.22777 20.23958
#
# Compressibility (1/GPa) = 0.02038569
#
# Stress axis : x y z
#
# Youngs Moduli (GPa) = 72.65975 51.76457 61.53235
#
# Poissons Ratio (x) = 0.40382 0.33230
# Poissons Ratio (y) = 0.56682 0.07827
# Poissons Ratio (z) = 0.39239 0.06585
#
# Static dielectric constant tensor:
#      x y z
#    x 2.011800 0.000000 -0.002420 
#    y 0.000000 2.012710 0.000000 
#    z -0.002420 0.000000 1.863250 
# 
# From -- ./inp_files/87119.got.cif
#   From: 2010.05.17/outbox.cif.g08.bks.cpg/sg15_44_cif.got.tgz:87119.got - 2010.06.03 18:47:42.
