data_PCOD9286265
_publ_section_title
;
Structure prediction by ZEFSAII (Michael W. Deem and Ramdas Pophale) SiO2 
 PCOD9286265
Probable space group: C 2/C
;
_chemical_formula_sum "Si O2"
_cell_formula_units_Z 48
_cell_length_a 12.414818
_cell_length_b 13.364678
_cell_length_c 20.482774
_cell_angle_alpha 90.000000
_cell_angle_beta 136.573583
_cell_angle_gamma 90.000000
_cell_volume 2336.207059
_symmetry_space_group_name_H-M "C 2/C"
_symmetry_group_IT_number 15
_symmetry_cell_setting 'monoclinic'
loop_
_space_group_symop_operation_xyz
x,y,z
-x,y,1/2-z
-x,-y,-z
x,-y,1/2+z
1/2+x,1/2+y,z
1/2-x,1/2+y,1/2-z
1/2-x,1/2-y,-z
1/2+x,1/2-y,1/2+z
loop_
_atom_site_type_symbol
_atom_site_label
_atom_site_fract_x
_atom_site_fract_y
_atom_site_fract_z
Si Si1 0.341345 0.837705 0.502802
Si Si2 0.975703 0.120897 0.045680
Si Si3 0.495385 0.994193 0.352504
Si Si4 0.588924 0.165618 0.000913
Si Si5 0.872559 0.023784 0.135852
Si Si6 0.241928 0.993954 0.142201
O O1 0.250000 0.750000 0.500000
O O2 0.458394 0.807390 0.496935
O O3 0.460913 0.896115 0.603278
O O4 0.221759 0.920821 0.420250
O O5 0.901776 0.227578 0.029852
O O6 0.943476 0.053990 0.096159
O O7 0.888360 0.081452 0.942115
O O8 0.158162 0.101935 0.109854
O O9 0.523441 0.917245 0.422812
O O10 0.325558 0.977302 0.247550
O O11 0.624432 0.980763 0.353038
O O12 0.745871 0.112061 0.096717
O O13 0.000000 0.015569 0.250000
#
# Coordination Sequence:
#
# PCOD9286265 Si02
#       6
#     8   8   8   8   8   8
#     4  11  24  46  67  93 132 173 219 271 328 391
#     4  11  23  42  64  96 130 168 219 268 328 390
#     4  10  21  43  65  94 129 172 216 268 326 388
#     4  11  24  42  68  95 131 173 217 271 332 390
#     4  11  25  44  66  97 134 169 216 276 330 389
#     4  10  22  39  67  89 134 169 216 266 325 387
#
# _framework density 20.546123000000001
#
# number of rings (size 3 to 8) (size 9 to 14) (size 15 to 20)
#    0.000    1.333    3.333    3.500    7.000    1.333 
#    6.000    0.000    0.000    0.000    0.000    0.000 
#    0.000    0.000    0.000    0.000    0.000    0.000 
#
# Total GULP energy -133764.511617 kJ/mol
# GULP energy per Si atom -5573.521317 kJ/mol
# Density = 2.049936 g / cm^3
# Si number density = 20.546123 Si / 1000 Ang^3
#
#
#
# Elastic Constant Matrix: (Units=GPa)
#
#
# Indices 1 2 3 4 5 6 
#
# 1 77.5403 20.3189 25.5453 0.0000 6.7304 0.0000
# 2 20.3189 73.2621 16.2575 0.0000 1.5364 0.0000
# 3 25.5453 16.2575 138.1989 0.0000 -5.3567 0.0000
# 4 0.0000 0.0000 0.0000 8.6999 0.0000 9.2469
# 5 6.7304 1.5364 -5.3567 0.0000 24.3383 0.0000
# 6 0.0000 0.0000 0.0000 9.2469 0.0000 32.1691
#
#
#
# Elastic Compliance Matrix: (Units=1/GPa)
#
#
# Indices 1 2 3 4 5 6 
#
# 1 0.015045 -0.003514 -0.002542 0.000000 -0.004498 0.000000
# 2 -0.003514 0.014875 -0.001108 0.000000 -0.000211 0.000000
# 3 -0.002542 -0.001108 0.007934 0.000000 0.002519 0.000000
# 4 0.000000 0.000000 0.000000 0.165510 0.000000 -0.047575
# 5 -0.004498 -0.000211 0.002519 0.000000 0.042899 0.000000
# 6 0.000000 0.000000 0.000000 -0.047575 0.000000 0.044761
#
#
# Mechanical properties :
#
#
# Convention : Reuss Voigt Hill
#
# Bulk Modulus (GPa) = 42.50900 45.91607 44.21253
# Shear Modulus (GPa) = 15.96449 28.16676 22.06562
#
# Velocity S-wave (km/s) = 2.79051 3.70659 3.28068
# Velocity P-wave (km/s) = 5.57827 6.38081 5.99299
#
# Compressibility (1/GPa) = 0.02352443
#
# Stress axis : x y z
#
# Youngs Moduli (GPa) = 66.46590 67.22820 126.04210
#
# Poissons Ratio (x) = 0.23626 0.32040
# Poissons Ratio (y) = 0.23358 0.13971
# Poissons Ratio (z) = 0.16895 0.07452
#
# Static dielectric constant tensor:
#      x y z
#    x 1.837100 0.000000 0.028740 
#    y 0.000000 1.769050 0.000000 
#    z 0.028740 0.000000 1.755630 
# 
# From -- ./inp_files/239044.got.cif
#   From: 2010.05.17/outbox.cif.g08.bks.cpg/sg15_120_cif.got.tgz:239044.got - 2010.06.03 18:47:42.
