data_PCOD9286376
_publ_section_title
;
Structure prediction by ZEFSAII (Michael W. Deem and Ramdas Pophale) SiO2 
 PCOD9286376
Probable space group: C 2/C
;
_chemical_formula_sum "Si O2"
_cell_formula_units_Z 40
_cell_length_a 7.059350
_cell_length_b 13.220699
_cell_length_c 21.599292
_cell_angle_alpha 90.000000
_cell_angle_beta 117.735427
_cell_angle_gamma 90.000000
_cell_volume 1784.242790
_symmetry_space_group_name_H-M "C 2/C"
_symmetry_group_IT_number 15
_symmetry_cell_setting 'monoclinic'
loop_
_space_group_symop_operation_xyz
x,y,z
-x,y,1/2-z
-x,-y,-z
x,-y,1/2+z
1/2+x,1/2+y,z
1/2-x,1/2+y,1/2-z
1/2-x,1/2-y,-z
1/2+x,1/2-y,1/2+z
loop_
_atom_site_type_symbol
_atom_site_label
_atom_site_fract_x
_atom_site_fract_y
_atom_site_fract_z
Si Si1 0.354482 0.506615 0.538029
Si Si2 0.932327 0.821202 0.363678
Si Si3 0.749061 0.050647 0.220231
Si Si4 0.000000 0.286551 0.750000
Si Si5 0.935501 0.631376 0.437291
Si Si6 0.000000 0.623272 0.750000
O O1 0.500000 0.500000 0.500000
O O2 0.492997 0.565673 0.610525
O O3 0.256271 0.400568 0.546022
O O4 0.149477 0.577283 0.493266
O O5 0.977245 0.748179 0.428420
O O6 0.677530 0.815145 0.313786
O O7 0.039481 0.779821 0.317066
O O8 0.693073 0.137911 0.261791
O O9 0.634348 0.084285 0.139437
O O10 0.000000 0.040196 0.250000
O O11 0.637463 0.948409 0.226119
#
# Coordination Sequence:
#
# PCOD9286376 Si02
#       6
#     8   8   8   4   8   4
#     4  11  24  46  67  94 132 183 226 275 337 399
#     4  11  24  44  66 101 138 175 224 284 341 410
#     4  10  21  43  67  94 135 175 222 282 338 406
#     4   9  24  40  63 100 128 174 223 278 344 405
#     4  10  24  42  66  96 128 176 228 277 334 404
#     4  11  24  38  63 104 132 178 217 268 352 405
#
# _framework density 22.418475000000001
#
# number of rings (size 3 to 8) (size 9 to 14) (size 15 to 20)
#    0.000    1.600    0.000    3.000    9.800    4.000 
#    0.000    0.000    0.000    0.000    0.000    0.000 
#    0.000    0.000    0.000    0.000    0.000    0.000 
#
# Total GULP energy -111893.176435 kJ/mol
# GULP energy per Si atom -5594.658822 kJ/mol
# Density = 2.236745 g / cm^3
# Si number density = 22.418475 Si / 1000 Ang^3
#
#
#
# Elastic Constant Matrix: (Units=GPa)
#
#
# Indices 1 2 3 4 5 6 
#
# 1 143.9999 25.1166 27.0871 0.0000 -16.2315 0.0000
# 2 25.1166 50.4499 3.6561 0.0000 -16.0722 0.0000
# 3 27.0871 3.6561 57.2958 0.0000 3.3878 0.0000
# 4 0.0000 0.0000 0.0000 34.3097 0.0000 -1.4912
# 5 -16.2315 -16.0722 3.3878 0.0000 45.1457 0.0000
# 6 0.0000 0.0000 0.0000 -1.4912 0.0000 24.6171
#
#
#
# Elastic Compliance Matrix: (Units=1/GPa)
#
#
# Indices 1 2 3 4 5 6 
#
# 1 0.008499 -0.003246 -0.003941 0.000000 0.002196 0.000000
# 2 -0.003246 0.023806 -0.000418 0.000000 0.007339 0.000000
# 3 -0.003941 -0.000418 0.019522 0.000000 -0.003031 0.000000
# 4 0.000000 0.000000 0.000000 0.029223 0.000000 0.001770
# 5 0.002196 0.007339 -0.003031 0.000000 0.025780 0.000000
# 6 0.000000 0.000000 0.000000 0.001770 0.000000 0.040729
#
#
# Mechanical properties :
#
#
# Convention : Reuss Voigt Hill
#
# Bulk Modulus (GPa) = 27.30974 40.38502 33.84738
# Shear Modulus (GPa) = 28.57505 33.87356 31.22430
#
# Velocity S-wave (km/s) = 3.57406 3.89133 3.73606
# Velocity P-wave (km/s) = 5.40741 6.18411 5.80876
#
# Compressibility (1/GPa) = 0.03661697
#
# Stress axis : x y z
#
# Youngs Moduli (GPa) = 117.65399 42.00561 51.22355
#
# Poissons Ratio (x) = 0.13636 0.20187
# Poissons Ratio (y) = 0.38195 0.02143
# Poissons Ratio (z) = 0.46366 0.01757
#
# Static dielectric constant tensor:
#      x y z
#    x 1.811760 0.000000 -0.005840 
#    y 0.000000 1.868770 0.000000 
#    z -0.005840 0.000000 1.829710 
# 
# From -- ./inp_files/260484.got.cif
#   From: 2010.05.17/outbox.cif.g08.bks.cpg/sg15_131_cif.got.tgz:260484.got - 2010.06.03 18:47:42.
