data_PCOD9286619
_publ_section_title
;
Structure prediction by ZEFSAII (Michael W. Deem and Ramdas Pophale) SiO2 
 PCOD9286619
Probable space group: C 2/C
;
_chemical_formula_sum "Si O2"
_cell_formula_units_Z 44
_cell_length_a 13.084735
_cell_length_b 15.593522
_cell_length_c 9.701079
_cell_angle_alpha 90.000000
_cell_angle_beta 69.847776
_cell_angle_gamma 90.000000
_cell_volume 1858.203642
_symmetry_space_group_name_H-M "C 2/C"
_symmetry_group_IT_number 15
_symmetry_cell_setting 'monoclinic'
loop_
_space_group_symop_operation_xyz
x,y,z
-x,y,1/2-z
-x,-y,-z
x,-y,1/2+z
1/2+x,1/2+y,z
1/2-x,1/2+y,1/2-z
1/2-x,1/2-y,-z
1/2+x,1/2-y,1/2+z
loop_
_atom_site_type_symbol
_atom_site_label
_atom_site_fract_x
_atom_site_fract_y
_atom_site_fract_z
Si Si1 0.375813 0.481900 0.111901
Si Si2 0.229025 0.646572 0.528991
Si Si3 0.000000 0.723723 0.250000
Si Si4 0.723153 0.865624 0.707967
Si Si5 0.500000 0.563804 0.250000
Si Si6 0.500000 0.853245 0.250000
Si Si7 0.436590 0.285922 0.565942
O O1 0.284591 0.552565 0.114911
O O2 0.400688 0.497561 0.263393
O O3 0.472024 0.635419 0.146358
O O4 0.500000 0.500000 0.000000
O O5 0.250000 0.750000 0.500000
O O6 0.221843 0.619473 0.373043
O O7 0.327043 0.604791 0.571341
O O8 0.119967 0.612919 0.657099
O O9 0.895193 0.662557 0.284227
O O10 0.981646 0.782665 0.391938
O O11 0.806098 0.788348 0.634019
O O12 0.520611 0.796817 0.376034
#
# Coordination Sequence:
#
# PCOD9286619 Si02
#       7
#     8   8   4   8   4   4   8
#     4  11  25  46  75 108 155 204 257 331 400 472
#     4  12  26  47  83 115 152 213 268 334 396 477
#     4  12  24  43  73 122 166 210 260 338 391 473
#     4  11  25  46  72 109 163 202 266 332 397 478
#     4   9  22  48  75 109 161 196 264 323 385 478
#     4  11  22  45  78 115 149 200 276 325 394 459
#     4  10  21  43  76 112 158 207 265 322 391 466
#
# _framework density 23.678782000000002
#
# number of rings (size 3 to 8) (size 9 to 14) (size 15 to 20)
#    0.000    1.091    3.636    2.727    5.091    0.727 
#    6.545   17.273    0.000    0.000    0.000    0.000 
#    0.000    0.000    0.000    0.000    0.000    0.000 
#
# Total GULP energy -122501.537065 kJ/mol
# GULP energy per Si atom -5568.251685 kJ/mol
# Density = 2.362489 g / cm^3
# Si number density = 23.678782 Si / 1000 Ang^3
#
#
#
# Elastic Constant Matrix: (Units=GPa)
#
#
# Indices 1 2 3 4 5 6 
#
# 1 208.5660 71.4981 61.3929 0.0000 -26.4882 0.0000
# 2 71.4981 73.9197 16.2115 0.0000 0.5642 0.0000
# 3 61.3929 16.2115 149.0441 0.0000 -3.9728 0.0000
# 4 0.0000 0.0000 0.0000 26.4823 0.0000 0.7586
# 5 -26.4882 0.5642 -3.9728 0.0000 54.9473 0.0000
# 6 0.0000 0.0000 0.0000 0.7586 0.0000 55.4913
#
#
#
# Elastic Compliance Matrix: (Units=1/GPa)
#
#
# Indices 1 2 3 4 5 6 
#
# 1 0.008853 -0.008010 -0.002665 0.000000 0.004157 0.000000
# 2 -0.008010 0.021110 0.000896 0.000000 -0.004013 0.000000
# 3 -0.002665 0.000896 0.007690 0.000000 -0.000738 0.000000
# 4 0.000000 0.000000 0.000000 0.037776 0.000000 -0.000516
# 5 0.004157 -0.004013 -0.000738 0.000000 0.020191 0.000000
# 6 0.000000 0.000000 0.000000 -0.000516 0.000000 0.018028
#
#
# Mechanical properties :
#
#
# Convention : Reuss Voigt Hill
#
# Bulk Modulus (GPa) = 55.26077 81.08164 68.17121
# Shear Modulus (GPa) = 35.91007 46.21266 41.06136
#
# Velocity S-wave (km/s) = 3.89852 4.42254 4.16877
# Velocity P-wave (km/s) = 6.60703 7.77143 7.21277
#
# Compressibility (1/GPa) = 0.01809602
#
# Stress axis : x y z
#
# Youngs Moduli (GPa) = 112.95681 47.37073 130.04217
#
# Poissons Ratio (x) = 0.37945 0.34650
# Poissons Ratio (y) = 0.90482 -0.11657
# Poissons Ratio (z) = 0.30098 -0.04246
#
# Static dielectric constant tensor:
#      x y z
#    x 2.182820 0.000000 0.892230 
#    y 0.000000 1.979140 0.000000 
#    z 0.892230 0.000000 3.674340 
# 
# From -- ./inp_files/98162.got.cif
#   From: 2010.05.17/outbox.cif.g08.bks.cpg/sg15_50_cif.got.tgz:98162.got - 2010.06.03 18:47:42.
