data_PCOD9286214
_publ_section_title
;
Structure prediction by ZEFSAII (Michael W. Deem and Ramdas Pophale) SiO2 
 PCOD9286214
Probable space group: C 2/C
;
_chemical_formula_sum "Si O2"
_cell_formula_units_Z 48
_cell_length_a 18.986646
_cell_length_b 5.778792
_cell_length_c 25.652763
_cell_angle_alpha 90.000000
_cell_angle_beta 47.904985
_cell_angle_gamma 90.000000
_cell_volume 2088.542747
_symmetry_space_group_name_H-M "C 2/C"
_symmetry_group_IT_number 15
_symmetry_cell_setting 'monoclinic'
loop_
_space_group_symop_operation_xyz
x,y,z
-x,y,1/2-z
-x,-y,-z
x,-y,1/2+z
1/2+x,1/2+y,z
1/2-x,1/2+y,1/2-z
1/2-x,1/2-y,-z
1/2+x,1/2-y,1/2+z
loop_
_atom_site_type_symbol
_atom_site_label
_atom_site_fract_x
_atom_site_fract_y
_atom_site_fract_z
Si Si1 0.341545 0.471901 0.430890
Si Si2 0.082753 0.056586 0.917627
Si Si3 0.803625 0.156999 0.223953
Si Si4 0.463290 0.902748 0.908792
Si Si5 0.326438 0.797157 0.537155
Si Si6 0.476236 0.260285 0.702179
O O1 0.368496 0.211072 0.430956
O O2 0.317557 0.597736 0.497529
O O3 0.261515 0.532761 0.428814
O O4 0.439917 0.578359 0.361305
O O5 0.162067 0.189218 0.911981
O O6 0.031973 0.219353 0.900881
O O7 0.130558 0.851777 0.861056
O O8 0.000000 0.000000 0.000000
O O9 0.752502 0.409307 0.250339
O O10 0.873562 0.140833 0.239076
O O11 0.515567 0.030855 0.836512
O O12 0.422866 0.070615 0.973416
O O13 0.500000 0.217219 0.750000
#
# Coordination Sequence:
#
# PCOD9286214 Si02
#       6
#     8   8   8   8   8   8
#     4  10  21  43  64 103 146 184 254 312 377 454
#     4  12  23  47  76 110 150 206 260 320 402 463
#     4  12  29  54  78 115 160 202 265 331 389 476
#     4  11  21  44  71 107 148 194 255 328 382 463
#     4  10  22  38  69 107 146 188 245 317 383 458
#     4  11  26  49  70  98 149 204 256 310 393 470
#
# _framework density 22.982531000000002
#
# number of rings (size 3 to 8) (size 9 to 14) (size 15 to 20)
#    0.000    1.000    3.333    3.000    2.333    2.000 
#    0.000    0.000    0.000    0.000    0.000    0.000 
#    0.000    0.000    0.000    0.000    0.000    0.000 
#
# Total GULP energy -134225.444597 kJ/mol
# GULP energy per Si atom -5592.726858 kJ/mol
# Density = 2.293022 g / cm^3
# Si number density = 22.982531 Si / 1000 Ang^3
#
#
#
# Elastic Constant Matrix: (Units=GPa)
#
#
# Indices 1 2 3 4 5 6 
#
# 1 154.2187 35.0672 39.3637 -0.0450 4.6032 -0.0196
# 2 35.0672 81.7481 40.0964 -0.0216 -4.1138 0.0109
# 3 39.3637 40.0964 83.3213 -0.0378 6.0722 -0.0137
# 4 -0.0450 -0.0216 -0.0378 20.7191 -0.0342 -9.9469
# 5 4.6032 -4.1138 6.0722 -0.0342 34.3225 -0.0217
# 6 -0.0196 0.0109 -0.0137 -9.9469 -0.0217 39.6509
#
#
#
# Elastic Compliance Matrix: (Units=1/GPa)
#
#
# Indices 1 2 3 4 5 6 
#
# 1 0.007629 -0.002062 -0.002552 0.000011 -0.000819 0.000006
# 2 -0.002062 0.016953 -0.007448 0.000003 0.003626 -0.000006
# 3 -0.002552 -0.007448 0.017052 0.000016 -0.003567 0.000009
# 4 0.000011 0.000003 0.000016 0.054873 0.000059 0.013766
# 5 -0.000819 0.003626 -0.003567 0.000059 0.030311 0.000029
# 6 0.000006 -0.000006 0.000009 0.013766 0.000029 0.028673
#
#
# Mechanical properties :
#
#
# Convention : Reuss Voigt Hill
#
# Bulk Modulus (GPa) = 57.11442 60.92698 59.02070
# Shear Modulus (GPa) = 26.96098 32.58921 29.77510
#
# Velocity S-wave (km/s) = 3.42878 3.76972 3.60328
# Velocity P-wave (km/s) = 6.37029 6.74651 6.56110
#
# Compressibility (1/GPa) = 0.01750871
#
# Stress axis : x y z
#
# Youngs Moduli (GPa) = 131.07774 58.98652 58.64470
#
# Poissons Ratio (x) = 0.12163 0.14968
# Poissons Ratio (y) = 0.27028 0.43681
# Poissons Ratio (z) = 0.33455 0.43935
#
# Static dielectric constant tensor:
#      x y z
#    x 1.880930 0.000000 -0.049110 
#    y 0.000000 1.918320 -0.000010 
#    z -0.049110 -0.000010 1.885180 
# 
# From -- ./inp_files/278823.got.cif
#   From: 2010.05.17/outbox.cif.g08.bks.cpg/sg15_140_cif.got.tgz:278823.got - 2010.06.03 18:47:42.
