data_PCOD9286785
_publ_section_title
;
Structure prediction by ZEFSAII (Michael W. Deem and Ramdas Pophale) SiO2 
 PCOD9286785
Probable space group: C 2/C
;
_chemical_formula_sum "Si O2"
_cell_formula_units_Z 56
_cell_length_a 10.221577
_cell_length_b 14.584592
_cell_length_c 26.092076
_cell_angle_alpha 90.000000
_cell_angle_beta 34.462755
_cell_angle_gamma 90.000000
_cell_volume 2201.089985
_symmetry_space_group_name_H-M "C 2/C"
_symmetry_group_IT_number 15
_symmetry_cell_setting 'monoclinic'
loop_
_space_group_symop_operation_xyz
x,y,z
-x,y,1/2-z
-x,-y,-z
x,-y,1/2+z
1/2+x,1/2+y,z
1/2-x,1/2+y,1/2-z
1/2-x,1/2-y,-z
1/2+x,1/2-y,1/2+z
loop_
_atom_site_type_symbol
_atom_site_label
_atom_site_fract_x
_atom_site_fract_y
_atom_site_fract_z
Si Si1 0.243709 0.745929 0.785759
Si Si2 0.507519 0.754779 0.895416
Si Si3 0.561400 0.105363 0.921380
Si Si4 0.300119 0.257617 0.064047
Si Si5 0.288944 0.962264 0.782563
Si Si6 0.401783 0.442969 0.983725
Si Si7 0.246426 0.554842 0.321833
O O1 0.413424 0.716314 0.684744
O O2 0.309870 0.850925 0.775341
O O3 0.226976 0.677012 0.838530
O O4 0.972273 0.748802 0.857167
O O5 0.662567 0.712659 0.890046
O O6 0.569910 0.862104 0.875292
O O7 0.250000 0.750000 0.000000
O O8 0.709861 0.014722 0.880855
O O9 0.425838 0.162838 0.007894
O O10 0.364359 0.060626 0.947581
O O11 0.427073 0.334864 0.988814
O O12 0.500000 0.997563 0.750000
O O13 0.269384 0.991104 0.729684
O O14 0.050881 0.978727 0.888563
O O15 0.500000 0.500000 0.000000
O O16 0.500000 0.595953 0.250000
#
# Coordination Sequence:
#
# PCOD9286785 Si02
#       7
#     8   8   8   8   8   8   8
#     4  10  21  44  68  99 140 186 236 298 367 442
#     4  11  26  42  69 102 141 185 244 298 359 432
#     4  11  23  43  72 101 141 191 244 291 372 444
#     4  11  22  44  69 102 139 196 237 296 372 443
#     4  11  22  41  71  99 139 189 241 304 365 421
#     4  11  23  40  70 102 143 181 244 306 363 436
#     4  11  27  47  69 104 149 193 241 299 366 439
#
# _framework density 25.441939000000001
#
# number of rings (size 3 to 8) (size 9 to 14) (size 15 to 20)
#    0.000    1.143    2.857    3.857    6.000    3.429 
#    0.000    1.429    0.000    0.000    0.000    0.000 
#    0.000    0.000    0.000    0.000    0.000    0.000 
#
# Total GULP energy -156541.578930 kJ/mol
# GULP energy per Si atom -5590.770676 kJ/mol
# Density = 2.538403 g / cm^3
# Si number density = 25.441939 Si / 1000 Ang^3
#
#
#
# Elastic Constant Matrix: (Units=GPa)
#
#
# Indices 1 2 3 4 5 6 
#
# 1 98.8906 -6.1626 35.6123 -0.0006 0.1277 0.0007
# 2 -6.1626 69.8748 29.8553 -0.0017 -7.6759 -0.0003
# 3 35.6123 29.8553 170.0528 0.0083 14.2050 0.0106
# 4 -0.0006 -0.0017 0.0083 37.8577 -0.0049 1.9855
# 5 0.1277 -7.6759 14.2050 -0.0049 28.1045 -0.0046
# 6 0.0007 -0.0003 0.0106 1.9855 -0.0046 8.1667
#
#
#
# Elastic Compliance Matrix: (Units=1/GPa)
#
#
# Indices 1 2 3 4 5 6 
#
# 1 0.011346 0.002518 -0.002998 0.000001 0.002151 0.000004
# 2 0.002518 0.017009 -0.004072 0.000002 0.006692 0.000009
# 3 -0.002998 -0.004072 0.007638 -0.000002 -0.004959 -0.000012
# 4 0.000001 0.000002 -0.000002 0.026756 0.000005 -0.006505
# 5 0.002151 0.006692 -0.004959 0.000005 0.039906 0.000028
# 6 0.000004 0.000009 -0.000012 -0.006505 0.000028 0.124030
#
#
# Mechanical properties :
#
#
# Convention : Reuss Voigt Hill
#
# Bulk Modulus (GPa) = 37.19240 50.82536 44.00888
# Shear Modulus (GPa) = 20.42896 33.46001 26.94448
#
# Velocity S-wave (km/s) = 2.83674 3.63044 3.25785
# Velocity P-wave (km/s) = 5.03783 6.13138 5.61131
#
# Compressibility (1/GPa) = 0.02688721
#
# Stress axis : x y z
#
# Youngs Moduli (GPa) = 88.13779 58.79394 130.93238
#
# Poissons Ratio (x) = -0.14803 0.39251
# Poissons Ratio (y) = -0.22192 0.53321
# Poissons Ratio (z) = 0.26422 0.23943
#
# Static dielectric constant tensor:
#      x y z
#    x 2.127750 -0.000020 -0.130240 
#    y -0.000020 2.052780 0.000060 
#    z -0.130240 0.000060 2.360780 
# 
# From -- ./inp_files/311303.got.cif
#   From: 2010.05.17/outbox.cif.g08.bks.cpg/sg15_156_cif.got.tgz:311303.got - 2010.06.03 18:47:42.
