data_PCOD9286713
_publ_section_title
;
Structure prediction by ZEFSAII (Michael W. Deem and Ramdas Pophale) SiO2 
 PCOD9286713
Probable space group: C 2/C
;
_chemical_formula_sum "Si O2"
_cell_formula_units_Z 56
_cell_length_a 14.493639
_cell_length_b 11.242866
_cell_length_c 17.981538
_cell_angle_alpha 90.000000
_cell_angle_beta 70.117282
_cell_angle_gamma 90.000000
_cell_volume 2755.431755
_symmetry_space_group_name_H-M "C 2/C"
_symmetry_group_IT_number 15
_symmetry_cell_setting 'monoclinic'
loop_
_space_group_symop_operation_xyz
x,y,z
-x,y,1/2-z
-x,-y,-z
x,-y,1/2+z
1/2+x,1/2+y,z
1/2-x,1/2+y,1/2-z
1/2-x,1/2-y,-z
1/2+x,1/2-y,1/2+z
loop_
_atom_site_type_symbol
_atom_site_label
_atom_site_fract_x
_atom_site_fract_y
_atom_site_fract_z
Si Si1 0.198745 0.504914 0.352991
Si Si2 0.618696 0.220129 0.468565
Si Si3 0.733654 0.613237 0.518078
Si Si4 0.702268 0.893496 0.083914
Si Si5 0.593454 0.561749 0.279701
Si Si6 0.897092 0.336677 0.236788
Si Si7 0.993709 0.088700 0.933483
O O1 0.159693 0.629229 0.395977
O O2 0.212196 0.425787 0.422288
O O3 0.304860 0.524095 0.286311
O O4 0.127296 0.436631 0.316667
O O5 0.619167 0.152403 0.548027
O O6 0.696783 0.325327 0.462107
O O7 0.525479 0.283929 0.458089
O O8 0.750000 0.750000 0.500000
O O9 0.775366 0.530599 0.440093
O O10 0.618238 0.590214 0.561971
O O11 0.677597 0.856439 0.174098
O O12 0.500000 0.558807 0.250000
O O13 0.605723 0.702561 0.295785
O O14 0.565301 0.469079 0.352276
O O15 0.000000 0.353059 0.250000
O O16 0.000000 0.000000 0.000000
#
# Coordination Sequence:
#
# PCOD9286713 Si02
#       7
#     8   8   8   8   8   8   8
#     4  11  24  45  65 100 136 178 218 281 340 386
#     4  10  22  40  70  95 137 173 224 270 337 400
#     4  11  26  44  68  99 137 176 221 281 339 400
#     4  10  21  44  66  96 131 182 221 270 334 409
#     4  11  24  43  67  98 134 173 230 276 329 410
#     4  11  26  41  70  97 133 179 229 275 337 404
#     4  12  25  41  69 103 128 177 231 276 331 404
#
# _framework density 20.323494
#
# number of rings (size 3 to 8) (size 9 to 14) (size 15 to 20)
#    0.000    1.143    4.286    0.857    6.000    1.143 
#    0.000    3.571    0.000    0.000    0.000    0.000 
#    0.000    0.000    0.000    0.000    0.000    0.000 
#
# Total GULP energy -156377.006061 kJ/mol
# GULP energy per Si atom -5584.893074 kJ/mol
# Density = 2.027724 g / cm^3
# Si number density = 20.323494 Si / 1000 Ang^3
#
#
#
# Elastic Constant Matrix: (Units=GPa)
#
#
# Indices 1 2 3 4 5 6 
#
# 1 49.7227 24.4309 1.2907 0.0000 10.4861 0.0000
# 2 24.4309 130.2417 20.4901 0.0000 4.3549 0.0000
# 3 1.2907 20.4901 42.6884 0.0000 3.1135 0.0000
# 4 0.0000 0.0000 0.0000 21.9118 0.0000 2.0594
# 5 10.4861 4.3549 3.1135 0.0000 23.4235 0.0000
# 6 0.0000 0.0000 0.0000 2.0594 0.0000 39.7140
#
#
#
# Elastic Compliance Matrix: (Units=1/GPa)
#
#
# Indices 1 2 3 4 5 6 
#
# 1 0.024510 -0.004600 0.002226 0.000000 -0.010413 0.000000
# 2 -0.004600 0.009193 -0.004341 0.000000 0.000927 0.000000
# 3 0.002226 -0.004341 0.025705 0.000000 -0.003606 0.000000
# 4 0.000000 0.000000 0.000000 0.045861 0.000000 -0.002378
# 5 -0.010413 0.000927 -0.003606 0.000000 0.047661 0.000000
# 6 0.000000 0.000000 0.000000 -0.002378 0.000000 0.025303
#
#
# Mechanical properties :
#
#
# Convention : Reuss Voigt Hill
#
# Bulk Modulus (GPa) = 21.74922 35.00847 28.37884
# Shear Modulus (GPa) = 24.15600 28.77258 26.46429
#
# Velocity S-wave (km/s) = 3.45131 3.76670 3.61245
# Velocity P-wave (km/s) = 5.15818 6.01501 5.60300
#
# Compressibility (1/GPa) = 0.04597867
#
# Stress axis : x y z
#
# Youngs Moduli (GPa) = 40.80007 108.78105 38.90304
#
# Poissons Ratio (x) = 0.50035 -0.08661
# Poissons Ratio (y) = 0.18766 0.16888
# Poissons Ratio (z) = -0.09083 0.47222
#
# Static dielectric constant tensor:
#      x y z
#    x 1.755740 0.000000 -0.020220 
#    y 0.000000 1.801340 0.000000 
#    z -0.020220 0.000000 1.739360 
# 
# From -- ./inp_files/209518.got.cif
#   From: 2010.05.17/outbox.cif.g08.bks.cpg/sg15_105_cif.got.tgz:209518.got - 2010.06.03 18:47:42.
