data_PCOD9286319
_publ_section_title
;
Structure prediction by ZEFSAII (Michael W. Deem and Ramdas Pophale) SiO2 
 PCOD9286319
Probable space group: C 2/C
;
_chemical_formula_sum "Si O2"
_cell_formula_units_Z 60
_cell_length_a 11.002332
_cell_length_b 18.135040
_cell_length_c 27.490731
_cell_angle_alpha 90.000000
_cell_angle_beta 147.619568
_cell_angle_gamma 90.000000
_cell_volume 2937.515533
_symmetry_space_group_name_H-M "C 2/C"
_symmetry_group_IT_number 15
_symmetry_cell_setting 'monoclinic'
loop_
_space_group_symop_operation_xyz
x,y,z
-x,y,1/2-z
-x,-y,-z
x,-y,1/2+z
1/2+x,1/2+y,z
1/2-x,1/2+y,1/2-z
1/2-x,1/2-y,-z
1/2+x,1/2-y,1/2+z
loop_
_atom_site_type_symbol
_atom_site_label
_atom_site_fract_x
_atom_site_fract_y
_atom_site_fract_z
Si Si1 0.529356 0.481948 0.566185
Si Si2 0.011287 0.620069 0.148138
Si Si3 0.655519 0.596292 0.692000
Si Si4 0.848780 0.233339 0.478935
Si Si5 0.518809 0.050086 0.890244
Si Si6 0.809617 0.858417 0.149424
Si Si7 0.238179 0.248285 0.669615
Si Si8 0.000000 0.403342 0.750000
O O1 0.500000 0.500000 0.500000
O O2 0.567687 0.549872 0.616391
O O3 0.775312 0.444477 0.655276
O O4 0.287104 0.440499 0.493182
O O5 0.013701 0.538743 0.126101
O O6 0.154905 0.674583 0.163033
O O7 0.094619 0.630143 0.231736
O O8 0.759593 0.654451 0.066840
O O9 0.898850 0.575326 0.798416
O O10 0.460538 0.587759 0.666709
O O11 0.671116 0.681611 0.682562
O O12 0.750000 0.250000 0.500000
O O13 0.786349 0.294247 0.417826
O O14 0.114641 0.232755 0.576930
O O15 0.373719 0.094765 0.881838
O O16 0.000000 0.825026 0.250000
O O17 0.500000 0.248104 0.750000
#
# Coordination Sequence:
#
# PCOD9286319 Si02
#       8
#     8   8   8   8   8   8   8   4
#     4  12  24  42  67 102 135 177 232 289 351 419
#     4  11  23  45  64 101 137 181 231 284 358 409
#     4  11  23  46  68  98 137 186 230 280 357 425
#     4  10  21  43  66  95 135 186 230 270 361 427
#     4  11  25  41  72 105 137 178 240 299 347 414
#     4  10  23  43  71 104 137 188 230 291 354 430
#     4  11  26  40  70  97 137 183 232 286 348 435
#     4  12  26  40  68  96 136 182 220 294 348 418
#
# _framework density 20.425422999999999
#
# number of rings (size 3 to 8) (size 9 to 14) (size 15 to 20)
#    0.000    1.067    5.333    0.800    5.600    3.200 
#    0.000    0.000    0.000    4.000    0.000    0.000 
#    0.000    0.000    0.000    0.000    0.000    0.000 
#
# Total GULP energy -167088.887100 kJ/mol
# GULP energy per Si atom -5569.629570 kJ/mol
# Density = 2.037893 g / cm^3
# Si number density = 20.425423 Si / 1000 Ang^3
#
#
#
# Elastic Constant Matrix: (Units=GPa)
#
#
# Indices 1 2 3 4 5 6 
#
# 1 79.6105 27.8392 52.2823 0.0003 -0.0491 -0.0001
# 2 27.8392 94.5432 52.2748 0.0001 -4.8105 0.0000
# 3 52.2823 52.2748 180.9383 -0.0003 3.7415 0.0003
# 4 0.0003 0.0001 -0.0003 18.1134 0.0002 -1.9858
# 5 -0.0491 -4.8105 3.7415 0.0002 43.2630 0.0000
# 6 -0.0001 0.0000 0.0003 -1.9858 0.0000 21.1511
#
#
#
# Elastic Compliance Matrix: (Units=1/GPa)
#
#
# Indices 1 2 3 4 5 6 
#
# 1 0.016010 -0.002561 -0.003888 0.000000 0.000070 0.000000
# 2 -0.002561 0.013126 -0.003088 0.000000 0.001724 0.000000
# 3 -0.003888 -0.003088 0.007563 0.000000 -0.001002 0.000000
# 4 0.000000 0.000000 0.000000 0.055782 0.000000 0.005237
# 5 0.000070 0.001724 -0.001002 0.000000 0.023393 0.000000
# 6 0.000000 0.000000 0.000000 0.005237 0.000000 0.047770
#
#
# Mechanical properties :
#
#
# Convention : Reuss Voigt Hill
#
# Bulk Modulus (GPa) = 56.73497 68.87607 62.80552
# Shear Modulus (GPa) = 26.51213 31.35191 28.93202
#
# Velocity S-wave (km/s) = 3.60668 3.92209 3.76769
# Velocity P-wave (km/s) = 6.72169 7.36915 7.05285
#
# Compressibility (1/GPa) = 0.01762581
#
# Stress axis : x y z
#
# Youngs Moduli (GPa) = 62.46141 76.18219 132.22444
#
# Poissons Ratio (x) = 0.19512 0.51403
# Poissons Ratio (y) = 0.15998 0.40830
# Poissons Ratio (z) = 0.24282 0.23524
#
# Static dielectric constant tensor:
#      x y z
#    x 2.064250 0.000000 -0.307350 
#    y 0.000000 1.735520 0.000000 
#    z -0.307350 0.000000 2.147530 
# 
# From -- ./inp_files/311572.got.cif
#   From: 2010.05.17/outbox.cif.g08.bks.cpg/sg15_156_cif.got.tgz:311572.got - 2010.06.03 18:47:42.
