data_PCOD9286070
_publ_section_title
;
Structure prediction by ZEFSAII (Michael W. Deem and Ramdas Pophale) SiO2 
 PCOD9286070
Probable space group: C 2/C
;
_chemical_formula_sum "Si O2"
_cell_formula_units_Z 44
_cell_length_a 17.767003
_cell_length_b 16.565061
_cell_length_c 7.577060
_cell_angle_alpha 90.000000
_cell_angle_beta 56.268705
_cell_angle_gamma 90.000000
_cell_volume 1854.594746
_symmetry_space_group_name_H-M "C 2/C"
_symmetry_group_IT_number 15
_symmetry_cell_setting 'monoclinic'
loop_
_space_group_symop_operation_xyz
x,y,z
-x,y,1/2-z
-x,-y,-z
x,-y,1/2+z
1/2+x,1/2+y,z
1/2-x,1/2+y,1/2-z
1/2-x,1/2-y,-z
1/2+x,1/2-y,1/2+z
loop_
_atom_site_type_symbol
_atom_site_label
_atom_site_fract_x
_atom_site_fract_y
_atom_site_fract_z
Si Si1 0.777780 0.884171 0.573618
Si Si2 0.683702 0.563501 0.872273
Si Si3 0.401564 0.062525 0.316803
Si Si4 0.932812 0.772565 0.509316
Si Si5 0.641654 0.106029 0.758595
Si Si6 0.000000 0.877222 0.750000
O O1 0.814698 0.896645 0.324634
O O2 0.665542 0.883831 0.718373
O O3 0.836094 0.810518 0.573846
O O4 0.797664 0.967906 0.646208
O O5 0.752421 0.610484 0.920412
O O6 0.585589 0.571311 0.084029
O O7 0.500000 0.091637 0.250000
O O8 0.345175 0.065368 0.567498
O O9 0.409843 0.967650 0.264797
O O10 0.909793 0.687828 0.637407
O O11 0.000000 0.767928 0.250000
O O12 0.976269 0.825389 0.607220
#
# Coordination Sequence:
#
# PCOD9286070 Si02
#       6
#     8   8   8   8   8   4
#     4  10  22  42  68 106 148 185 246 303 364 432
#     4  10  22  42  68 101 139 200 243 294 361 440
#     4  10  21  42  71 102 138 194 244 291 357 441
#     4  12  26  46  70 111 150 193 237 309 371 430
#     4  10  24  44  68 105 146 187 244 306 366 427
#     4  12  26  44  70 104 146 198 252 286 370 444
#
# _framework density 23.724858999999999
#
# number of rings (size 3 to 8) (size 9 to 14) (size 15 to 20)
#    0.000    1.455    1.818    2.182    2.545    6.545 
#    3.273    0.000    0.000    0.000    0.000    0.000 
#    0.000    0.000    0.000    0.000    0.000    0.000 
#
# Total GULP energy -122535.700877 kJ/mol
# GULP energy per Si atom -5569.804585 kJ/mol
# Density = 2.367086 g / cm^3
# Si number density = 23.724859 Si / 1000 Ang^3
#
#
#
# Elastic Constant Matrix: (Units=GPa)
#
#
# Indices 1 2 3 4 5 6 
#
# 1 129.7511 28.3305 21.8397 0.0000 -29.8006 0.0000
# 2 28.3305 57.4756 -8.1748 0.0000 -16.8905 0.0000
# 3 21.8397 -8.1748 44.2707 0.0000 -16.1673 0.0000
# 4 0.0000 0.0000 0.0000 35.5189 0.0000 -3.9710
# 5 -29.8006 -16.8905 -16.1673 0.0000 39.1608 0.0000
# 6 0.0000 0.0000 0.0000 -3.9710 0.0000 34.3655
#
#
#
# Elastic Compliance Matrix: (Units=1/GPa)
#
#
# Indices 1 2 3 4 5 6 
#
# 1 0.010396 -0.004556 -0.004473 0.000000 0.004100 0.000000
# 2 -0.004556 0.024679 0.011099 0.000000 0.011760 0.000000
# 3 -0.004473 0.011099 0.032205 0.000000 0.014679 0.000000
# 4 0.000000 0.000000 0.000000 0.028523 0.000000 0.003296
# 5 0.004100 0.011760 0.014679 0.000000 0.039788 0.000000
# 6 0.000000 0.000000 0.000000 0.003296 0.000000 0.029480
#
#
# Mechanical properties :
#
#
# Convention : Reuss Voigt Hill
#
# Bulk Modulus (GPa) = 14.00149 35.05424 24.52786
# Shear Modulus (GPa) = 27.06563 34.44250 30.75406
#
# Velocity S-wave (km/s) = 3.38126 3.81431 3.60429
# Velocity P-wave (km/s) = 4.59981 5.84859 5.26138
#
# Compressibility (1/GPa) = 0.07142096
#
# Stress axis : x y z
#
# Youngs Moduli (GPa) = 96.18832 40.52069 31.05115
#
# Poissons Ratio (x) = 0.18460 0.13888
# Poissons Ratio (y) = 0.43821 -0.34464
# Poissons Ratio (z) = 0.43022 -0.44974
#
# Static dielectric constant tensor:
#      x y z
#    x 2.165930 0.000000 -0.134480 
#    y 0.000000 1.887600 0.000000 
#    z -0.134480 0.000000 2.185990 
# 
# From -- ./inp_files/39541.got.cif
#   From: 2010.05.17/outbox.cif.g08.bks.cpg/sg15_20_cif.got.tgz:39541.got - 2010.06.03 18:47:42.
