data_PCOD9286865
_publ_section_title
;
Structure prediction by ZEFSAII (Michael W. Deem and Ramdas Pophale) SiO2 
 PCOD9286865
Probable space group: C 2/C
;
_chemical_formula_sum "Si O2"
_cell_formula_units_Z 36
_cell_length_a 25.151486
_cell_length_b 5.400739
_cell_length_c 9.899638
_cell_angle_alpha 90.000000
_cell_angle_beta 84.755830
_cell_angle_gamma 90.000000
_cell_volume 1339.104539
_symmetry_space_group_name_H-M "C 2/C"
_symmetry_group_IT_number 15
_symmetry_cell_setting 'monoclinic'
loop_
_space_group_symop_operation_xyz
x,y,z
-x,y,1/2-z
-x,-y,-z
x,-y,1/2+z
1/2+x,1/2+y,z
1/2-x,1/2+y,1/2-z
1/2-x,1/2-y,-z
1/2+x,1/2-y,1/2+z
loop_
_atom_site_type_symbol
_atom_site_label
_atom_site_fract_x
_atom_site_fract_y
_atom_site_fract_z
Si Si1 0.941406 0.026532 0.576316
Si Si2 0.091879 0.715431 0.669188
Si Si3 0.500000 0.104413 0.250000
Si Si4 0.715937 0.331407 0.237107
Si Si5 0.812581 0.825896 0.977348
O O1 0.908437 0.076077 0.448773
O O2 0.955727 0.242431 0.679021
O O3 0.919161 0.810317 0.677529
O O4 0.000000 0.000000 0.500000
O O5 0.039644 0.555113 0.647267
O O6 0.152445 0.639536 0.625409
O O7 0.748168 0.585530 0.271123
O O8 0.672577 0.308516 0.367371
O O9 0.691397 0.412558 0.100104
O O10 0.750000 0.750000 0.000000
#
# Coordination Sequence:
#
# PCOD9286865 Si02
#       5
#     8   8   4   8   8
#     4  12  23  46  68 101 140 176 232 296 350 428
#     4  12  25  44  73 100 139 185 228 292 362 419
#     4  12  24  44  72 100 134 178 242 282 360 420
#     4  10  21  44  71  96 141 187 235 291 345 419
#     4  10  23  46  66 104 139 182 234 287 353 428
#
# _framework density 26.88364
#
# number of rings (size 3 to 8) (size 9 to 14) (size 15 to 20)
#    0.000    0.889    4.444    2.667    0.000    0.000 
#   32.000    0.000    0.000    0.000    0.000    0.000 
#    0.000    0.000    0.000    0.000    0.000    0.000 
#
# Total GULP energy -100425.519147 kJ/mol
# GULP energy per Si atom -5579.195508 kJ/mol
# Density = 2.682245 g / cm^3
# Si number density = 26.883640 Si / 1000 Ang^3
#
#
#
# Elastic Constant Matrix: (Units=GPa)
#
#
# Indices 1 2 3 4 5 6 
#
# 1 105.4925 24.4652 8.4834 0.0000 -18.2214 0.0000
# 2 24.4652 90.6627 15.5509 0.0000 -8.3670 0.0000
# 3 8.4834 15.5509 164.2537 0.0000 -33.7682 0.0000
# 4 0.0000 0.0000 0.0000 27.9666 0.0000 3.8846
# 5 -18.2214 -8.3670 -33.7682 0.0000 73.5736 0.0000
# 6 0.0000 0.0000 0.0000 3.8846 0.0000 26.1542
#
#
#
# Elastic Compliance Matrix: (Units=1/GPa)
#
#
# Indices 1 2 3 4 5 6 
#
# 1 0.010489 -0.002644 0.000200 0.000000 0.002389 0.000000
# 2 -0.002644 0.011929 -0.000937 0.000000 0.000272 0.000000
# 3 0.000200 -0.000937 0.006796 0.000000 0.003062 0.000000
# 4 0.000000 0.000000 0.000000 0.036510 0.000000 -0.005423
# 5 0.002389 0.000272 0.003062 0.000000 0.015620 0.000000
# 6 0.000000 0.000000 0.000000 -0.005423 0.000000 0.039040
#
#
# Mechanical properties :
#
#
# Convention : Reuss Voigt Hill
#
# Bulk Modulus (GPa) = 44.54090 50.82309 47.68199
# Shear Modulus (GPa) = 37.13844 46.33284 41.73564
#
# Velocity S-wave (km/s) = 3.72082 4.15596 3.94439
# Velocity P-wave (km/s) = 5.92143 6.47883 6.20639
#
# Compressibility (1/GPa) = 0.02245128
#
# Stress axis : x y z
#
# Youngs Moduli (GPa) = 95.33683 83.82762 147.14398
#
# Poissons Ratio (x) = 0.22166 -0.02938
# Poissons Ratio (y) = 0.25210 0.13787
# Poissons Ratio (z) = -0.01904 0.07855
#
# Static dielectric constant tensor:
#      x y z
#    x 1.329640 0.000000 -0.551490 
#    y 0.000000 2.165160 0.000000 
#    z -0.551490 0.000000 2.098890 
# 
# From -- ./inp_files/120664.got.cif
#   From: 2010.05.17/outbox.cif.g08.bks.cpg/sg15_61_cif.got.tgz:120664.got - 2010.06.03 18:47:42.
