data_PCOD9286872
_publ_section_title
;
Structure prediction by ZEFSAII (Michael W. Deem and Ramdas Pophale) SiO2 
 PCOD9286872
Probable space group: C 2/C
;
_chemical_formula_sum "Si O2"
_cell_formula_units_Z 40
_cell_length_a 21.507405
_cell_length_b 10.888620
_cell_length_c 14.997305
_cell_angle_alpha 90.000000
_cell_angle_beta 24.530477
_cell_angle_gamma 90.000000
_cell_volume 1458.168087
_symmetry_space_group_name_H-M "C 2/C"
_symmetry_group_IT_number 15
_symmetry_cell_setting 'monoclinic'
loop_
_space_group_symop_operation_xyz
x,y,z
-x,y,1/2-z
-x,-y,-z
x,-y,1/2+z
1/2+x,1/2+y,z
1/2-x,1/2+y,1/2-z
1/2-x,1/2-y,-z
1/2+x,1/2-y,1/2+z
loop_
_atom_site_type_symbol
_atom_site_label
_atom_site_fract_x
_atom_site_fract_y
_atom_site_fract_z
Si Si1 0.811691 0.797624 0.640997
Si Si2 0.184175 0.457545 0.645788
Si Si3 0.412586 0.617283 0.271146
Si Si4 0.638055 0.371953 0.247562
Si Si5 0.958678 0.626682 0.906752
O O1 0.765991 0.894972 0.622178
O O2 0.015295 0.498018 0.379346
O O3 0.990165 0.789346 0.420766
O O4 0.717115 0.847353 0.848441
O O5 0.251103 0.588891 0.524327
O O6 0.233341 0.375216 0.497355
O O7 0.228794 0.174028 0.714707
O O8 0.500000 0.598667 0.250000
O O9 0.431950 0.507204 0.176126
O O10 0.465241 0.745075 0.163378
O O11 0.000000 0.610564 0.750000
#
# Coordination Sequence:
#
# PCOD9286872 Si02
#       5
#     8   8   8   8   8
#     4  12  24  46  73 109 144 191 239 296 361 433
#     4  10  21  44  71  99 140 184 238 294 357 422
#     4   9  19  42  69  92 143 181 233 290 359 408
#     4  10  24  44  75 105 145 185 242 295 363 422
#     4  11  26  44  68 105 144 189 244 295 358 429
#
# _framework density 27.431678999999999
#
# number of rings (size 3 to 8) (size 9 to 14) (size 15 to 20)
#    1.200    0.400    2.000    2.400    0.000    7.200 
#    7.200    0.000    0.000    0.000    0.000    0.000 
#    0.000    0.000    0.000    0.000    0.000    0.000 
#
# Total GULP energy -111599.171544 kJ/mol
# GULP energy per Si atom -5579.958577 kJ/mol
# Density = 2.736924 g / cm^3
# Si number density = 27.431679 Si / 1000 Ang^3
#
#
#
# Elastic Constant Matrix: (Units=GPa)
#
#
# Indices 1 2 3 4 5 6 
#
# 1 102.2196 22.2916 38.7981 0.0000 -5.3567 0.0000
# 2 22.2916 126.8340 29.6266 0.0000 -28.1713 0.0000
# 3 38.7981 29.6266 99.5848 0.0000 4.4203 0.0000
# 4 0.0000 0.0000 0.0000 14.8684 0.0000 -28.1349
# 5 -5.3567 -28.1713 4.4203 0.0000 64.4754 0.0000
# 6 0.0000 0.0000 0.0000 -28.1349 0.0000 30.0889
#
#
#
# Elastic Compliance Matrix: (Units=1/GPa)
#
#
# Indices 1 2 3 4 5 6 
#
# 1 0.011657 -0.000837 -0.004333 0.000000 0.000900 0.000000
# 2 -0.000837 0.009630 -0.002731 0.000000 0.004325 0.000000
# 3 -0.004333 -0.002731 0.012650 0.000000 -0.002420 0.000000
# 4 0.000000 0.000000 0.000000 -0.087418 0.000000 -0.081741
# 5 0.000900 0.004325 -0.002420 0.000000 0.017640 0.000000
# 6 0.000000 0.000000 0.000000 -0.081741 0.000000 -0.043197
#
#
# Mechanical properties :
#
#
# Convention : Reuss Voigt Hill
#
# Bulk Modulus (GPa) = 55.13914 56.67455 55.90685
# Shear Modulus (GPa) = -87.42442 37.74802 -24.83820
#
# Velocity S-wave (km/s) = -5.65147 3.71357 -3.01235
# Velocity P-wave (km/s) = 4.73722 6.25241 2.88542
#
# Compressibility (1/GPa) = 0.01813594
#
# Stress axis : x y z
#
# Youngs Moduli (GPa) = 85.78575 103.84206 79.05444
#
# Poissons Ratio (x) = 0.08690 0.34250
# Poissons Ratio (y) = 0.07179 0.21589
# Poissons Ratio (z) = 0.37167 0.28358
#
# Static dielectric constant tensor:
#      x y z
#    x 2.239920 0.000000 -0.193110 
#    y 0.000000 2.202140 0.000000 
#    z -0.193110 0.000000 2.445690 
# 
# From -- ./inp_files/222690.got.cif
#   From: 2010.05.17/outbox.cif.g08.bks.cpg/sg15_112_cif.got.tgz:222690.got - 2010.06.03 18:47:42.
