data_PCOD9286272
_publ_section_title
;
Structure prediction by ZEFSAII (Michael W. Deem and Ramdas Pophale) SiO2 
 PCOD9286272
Probable space group: C 2/C
;
_chemical_formula_sum "Si O2"
_cell_formula_units_Z 56
_cell_length_a 20.357165
_cell_length_b 12.913179
_cell_length_c 8.771769
_cell_angle_alpha 90.000000
_cell_angle_beta 94.893902
_cell_angle_gamma 90.000000
_cell_volume 2297.478676
_symmetry_space_group_name_H-M "C 2/C"
_symmetry_group_IT_number 15
_symmetry_cell_setting 'monoclinic'
loop_
_space_group_symop_operation_xyz
x,y,z
-x,y,1/2-z
-x,-y,-z
x,-y,1/2+z
1/2+x,1/2+y,z
1/2-x,1/2+y,1/2-z
1/2-x,1/2-y,-z
1/2+x,1/2-y,1/2+z
loop_
_atom_site_type_symbol
_atom_site_label
_atom_site_fract_x
_atom_site_fract_y
_atom_site_fract_z
Si Si1 0.083183 0.526356 0.344042
Si Si2 0.824032 0.644604 0.974652
Si Si3 0.571452 0.274921 0.681734
Si Si4 0.891966 0.848054 0.500177
Si Si5 0.054603 0.934401 0.399753
Si Si6 0.957496 0.366587 0.948963
Si Si7 0.186940 0.839891 0.297094
O O1 0.153003 0.543473 0.431925
O O2 0.053565 0.417860 0.389107
O O3 0.083270 0.557982 0.170143
O O4 0.031240 0.611244 0.405180
O O5 0.880974 0.685346 0.872172
O O6 0.757988 0.624981 0.868318
O O7 0.819248 0.731449 0.109155
O O8 0.500000 0.260104 0.750000
O O9 0.555159 0.349050 0.535280
O O10 0.615684 0.326415 0.822353
O O11 0.932226 0.749570 0.437551
O O12 0.825600 0.842655 0.387044
O O13 0.934131 0.954529 0.514952
O O14 0.125341 0.910139 0.336076
O O15 0.000000 0.932485 0.250000
#
# Coordination Sequence:
#
# PCOD9286272 Si02
#       7
#     8   8   8   8   8   8   8
#     4  10  21  43  65  97 130 179 228 297 359 419
#     4  10  22  45  70  96 138 194 229 285 355 426
#     4  11  24  40  67 107 142 179 233 296 346 418
#     4  12  23  42  65 104 139 184 236 297 348 420
#     4  11  25  46  70 101 146 195 236 290 356 426
#     4  10  23  40  69  99 134 173 235 298 357 422
#     4  10  23  45  70  95 139 190 242 276 349 433
#
# _framework density 24.374545000000001
#
# number of rings (size 3 to 8) (size 9 to 14) (size 15 to 20)
#    0.000    1.429    1.429    3.000    2.000    3.429 
#    7.714    1.429    0.000    0.000    0.000    0.000 
#    0.000    0.000    0.000    0.000    0.000    0.000 
#
# Total GULP energy -156287.637386 kJ/mol
# GULP energy per Si atom -5581.701335 kJ/mol
# Density = 2.431907 g / cm^3
# Si number density = 24.374545 Si / 1000 Ang^3
#
#
#
# Elastic Constant Matrix: (Units=GPa)
#
#
# Indices 1 2 3 4 5 6 
#
# 1 113.2177 26.3938 73.1438 0.0000 54.3024 0.0000
# 2 26.3938 91.0301 32.9265 0.0000 19.5338 0.0000
# 3 73.1438 32.9265 182.5678 0.0000 55.4399 0.0000
# 4 0.0000 0.0000 0.0000 30.3450 0.0000 6.7851
# 5 54.3024 19.5338 55.4399 0.0000 56.6596 0.0000
# 6 0.0000 0.0000 0.0000 6.7851 0.0000 18.3755
#
#
#
# Elastic Compliance Matrix: (Units=1/GPa)
#
#
# Indices 1 2 3 4 5 6 
#
# 1 0.017335 -0.001155 -0.002579 0.000000 -0.013692 0.000000
# 2 -0.001155 0.012153 -0.001128 0.000000 -0.001979 0.000000
# 3 -0.002579 -0.001128 0.008317 0.000000 -0.005277 0.000000
# 4 0.000000 0.000000 0.000000 0.035920 0.000000 -0.013263
# 5 -0.013692 -0.001979 -0.005277 0.000000 0.036617 0.000000
# 6 0.000000 0.000000 0.000000 -0.013263 0.000000 0.059318
#
#
# Mechanical properties :
#
#
# Convention : Reuss Voigt Hill
#
# Bulk Modulus (GPa) = 35.61223 72.41597 54.01410
# Shear Modulus (GPa) = 26.49086 38.03280 32.26183
#
# Velocity S-wave (km/s) = 3.30028 3.95441 3.64206
# Velocity P-wave (km/s) = 5.40043 7.11505 6.31619
#
# Compressibility (1/GPa) = 0.02808024
#
# Stress axis : x y z
#
# Youngs Moduli (GPa) = 57.68630 82.28418 120.24262
#
# Poissons Ratio (x) = 0.09506 0.31009
# Poissons Ratio (y) = 0.06664 0.13564
# Poissons Ratio (z) = 0.14877 0.09282
#
# Static dielectric constant tensor:
#      x y z
#    x 1.980330 0.000000 -0.053710 
#    y 0.000000 1.966030 0.000000 
#    z -0.053710 0.000000 2.079860 
# 
# From -- ./inp_files/49749.got.cif
#   From: 2010.05.17/outbox.cif.g08.bks.cpg/sg15_25_cif.got.tgz:49749.got - 2010.06.03 18:47:42.
