data_PCOD9286204
_publ_section_title
;
Structure prediction by ZEFSAII (Michael W. Deem and Ramdas Pophale) SiO2 
 PCOD9286204
Probable space group: C 2/C
;
_chemical_formula_sum "Si O2"
_cell_formula_units_Z 44
_cell_length_a 25.297544
_cell_length_b 12.225444
_cell_length_c 12.176243
_cell_angle_alpha 90.000000
_cell_angle_beta 34.864065
_cell_angle_gamma 90.000000
_cell_volume 2152.644753
_symmetry_space_group_name_H-M "C 2/C"
_symmetry_group_IT_number 15
_symmetry_cell_setting 'monoclinic'
loop_
_space_group_symop_operation_xyz
x,y,z
-x,y,1/2-z
-x,-y,-z
x,-y,1/2+z
1/2+x,1/2+y,z
1/2-x,1/2+y,1/2-z
1/2-x,1/2-y,-z
1/2+x,1/2-y,1/2+z
loop_
_atom_site_type_symbol
_atom_site_label
_atom_site_fract_x
_atom_site_fract_y
_atom_site_fract_z
Si Si1 0.131619 0.304652 0.117803
Si Si2 0.522433 0.319159 0.985397
Si Si3 0.342082 0.028932 0.524765
Si Si4 0.000000 0.694768 0.250000
Si Si5 0.741723 0.599096 0.904455
Si Si6 0.351342 0.470621 0.270923
O O1 0.050999 0.257580 0.333814
O O2 0.204906 0.354016 0.080578
O O3 0.117231 0.407828 0.063746
O O4 0.178216 0.201397 0.976691
O O5 0.594322 0.420770 0.861625
O O6 0.528104 0.262709 0.094375
O O7 0.421090 0.370473 0.143496
O O8 0.415613 0.116893 0.358850
O O9 0.317096 0.056217 0.692262
O O10 0.243313 0.043553 0.633455
O O11 0.676907 0.500564 0.056017
#
# Coordination Sequence:
#
# PCOD9286204 Si02
#       6
#     8   8   8   4   8   8
#     4   9  19  40  62  84 131 158 199 255 310 361
#     4  10  21  43  63  93 123 163 201 266 312 357
#     4  11  23  39  61  96 119 170 208 248 308 383
#     4  12  26  38  62  90 128 168 206 250 314 378
#     4   9  18  38  65  89 117 166 206 251 307 361
#     4   9  22  41  67  92 122 157 211 264 305 362
#
# _framework density 20.439972999999998
#
# number of rings (size 3 to 8) (size 9 to 14) (size 15 to 20)
#    0.000    2.182    1.818    1.091    2.545    1.455 
#    3.273    0.000    0.000    0.000    0.000    0.000 
#    0.000    0.000    0.000    0.000    0.000    0.000 
#
# Total GULP energy -122722.275305 kJ/mol
# GULP energy per Si atom -5578.285241 kJ/mol
# Density = 2.039345 g / cm^3
# Si number density = 20.439973 Si / 1000 Ang^3
#
#
#
# Elastic Constant Matrix: (Units=GPa)
#
#
# Indices 1 2 3 4 5 6 
#
# 1 24.8689 13.4069 17.1975 0.0000 -17.9705 0.0000
# 2 13.4069 81.3359 55.8834 0.0000 7.8519 0.0000
# 3 17.1975 55.8834 82.2936 0.0000 2.2084 0.0000
# 4 0.0000 0.0000 0.0000 -2.7855 0.0000 -18.9455
# 5 -17.9705 7.8519 2.2084 0.0000 40.7402 0.0000
# 6 0.0000 0.0000 0.0000 -18.9455 0.0000 13.7208
#
#
#
# Elastic Compliance Matrix: (Units=1/GPa)
#
#
# Indices 1 2 3 4 5 6 
#
# 1 0.080495 -0.008746 -0.011897 0.000000 0.037837 0.000000
# 2 -0.008746 0.024538 -0.014626 0.000000 -0.007794 0.000000
# 3 -0.011897 -0.014626 0.024671 0.000000 -0.003766 0.000000
# 4 0.000000 0.000000 0.000000 -0.034548 0.000000 -0.047703
# 5 0.037837 -0.007794 -0.003766 0.000000 0.042942 0.000000
# 6 0.000000 0.000000 0.000000 -0.047703 0.000000 0.007014
#
#
# Mechanical properties :
#
#
# Convention : Reuss Voigt Hill
#
# Bulk Modulus (GPa) = 16.90225 40.16376 28.53301
# Shear Modulus (GPa) = 21.24287 17.13579 19.18933
#
# Velocity S-wave (km/s) = 3.22729 2.89856 3.06733
# Velocity P-wave (km/s) = 4.70896 5.55828 5.15116
#
# Compressibility (1/GPa) = 0.05916372
#
# Stress axis : x y z
#
# Youngs Moduli (GPa) = 12.42320 40.75309 40.53309
#
# Poissons Ratio (x) = 0.35644 0.48224
# Poissons Ratio (y) = 0.10866 0.59284
# Poissons Ratio (z) = 0.14780 0.59606
#
# Static dielectric constant tensor:
#      x y z
#    x 1.754910 0.000000 0.011350 
#    y 0.000000 1.758530 0.000000 
#    z 0.011350 0.000000 1.740100 
# 
# From -- ./inp_files/117903.got.cif
#   From: 2010.05.17/outbox.cif.g08.bks.cpg/sg15_59_cif.got.tgz:117903.got - 2010.06.03 18:47:42.
