data_PCOD9286747
_publ_section_title
;
Structure prediction by ZEFSAII (Michael W. Deem and Ramdas Pophale) SiO2 
 PCOD9286747
Probable space group: C 2/C
;
_chemical_formula_sum "Si O2"
_cell_formula_units_Z 56
_cell_length_a 15.855163
_cell_length_b 16.329185
_cell_length_c 17.238274
_cell_angle_alpha 90.000000
_cell_angle_beta 31.261863
_cell_angle_gamma 90.000000
_cell_volume 2316.086258
_symmetry_space_group_name_H-M "C 2/C"
_symmetry_group_IT_number 15
_symmetry_cell_setting 'monoclinic'
loop_
_space_group_symop_operation_xyz
x,y,z
-x,y,1/2-z
-x,-y,-z
x,-y,1/2+z
1/2+x,1/2+y,z
1/2-x,1/2+y,1/2-z
1/2-x,1/2-y,-z
1/2+x,1/2-y,1/2+z
loop_
_atom_site_type_symbol
_atom_site_label
_atom_site_fract_x
_atom_site_fract_y
_atom_site_fract_z
Si Si1 0.978090 0.711834 0.603803
Si Si2 0.331097 0.317950 0.243396
Si Si3 0.702552 0.357092 0.715433
Si Si4 0.000000 0.631673 0.750000
Si Si5 0.226762 0.494463 0.542018
Si Si6 0.216805 0.811903 0.953333
Si Si7 0.500000 0.420226 0.750000
Si Si8 0.166995 0.517858 0.912492
O O1 0.796918 0.678406 0.727192
O O2 0.936921 0.807839 0.631509
O O3 0.117025 0.682058 0.434960
O O4 0.024596 0.685515 0.653831
O O5 0.295567 0.234213 0.318357
O O6 0.524638 0.322072 0.087181
O O7 0.257708 0.395898 0.346184
O O8 0.634157 0.362834 0.681932
O O9 0.721542 0.451744 0.719987
O O10 0.146666 0.568402 0.651655
O O11 0.214046 0.402756 0.584364
O O12 0.411593 0.520164 0.379855
O O13 0.144128 0.501401 0.521475
O O14 0.250000 0.750000 0.000000
O O15 0.000000 0.500000 0.000000
#
# Coordination Sequence:
#
# PCOD9286747 Si02
#       8
#     8   8   8   4   8   8   4   8
#     4  12  26  46  68 105 141 185 241 303 358 429
#     4  12  26  47  72 105 148 188 246 297 371 436
#     4  11  24  42  69  96 134 183 233 289 357 420
#     4  12  25  46  73 104 142 180 250 301 362 425
#     4  11  24  42  69 105 137 183 240 293 359 432
#     4  12  26  44  73 107 145 191 237 304 361 437
#     4  10  21  44  67  98 134 186 230 275 354 439
#     4  11  21  45  71  97 137 195 234 285 361 440
#
# _framework density 24.178719999999998
#
# number of rings (size 3 to 8) (size 9 to 14) (size 15 to 20)
#    0.000    0.571    5.714    3.429    4.000    1.143 
#    2.571    0.714    0.000    0.000    0.000    0.000 
#    0.000    0.000    0.000    0.000    0.000    0.000 
#
# Total GULP energy -156198.435111 kJ/mol
# GULP energy per Si atom -5578.515540 kJ/mol
# Density = 2.412369 g / cm^3
# Si number density = 24.178720 Si / 1000 Ang^3
#
#
#
# Elastic Constant Matrix: (Units=GPa)
#
#
# Indices 1 2 3 4 5 6 
#
# 1 91.1796 6.0795 17.0064 0.0012 -26.6763 -0.0002
# 2 6.0795 101.7183 24.1561 0.0024 -2.9647 0.0000
# 3 17.0064 24.1561 85.8336 0.0053 -21.7227 -0.0006
# 4 0.0012 0.0024 0.0053 39.8160 -0.0011 -1.1272
# 5 -26.6763 -2.9647 -21.7227 -0.0011 40.1751 -0.0003
# 6 -0.0002 0.0000 -0.0006 -1.1272 -0.0003 29.7833
#
#
#
# Elastic Compliance Matrix: (Units=1/GPa)
#
#
# Indices 1 2 3 4 5 6 
#
# 1 0.013650 -0.000480 -0.000330 0.000000 0.008850 0.000000
# 2 -0.000480 0.010584 -0.003205 0.000000 -0.001270 0.000000
# 3 -0.000330 -0.003205 0.014485 -0.000002 0.007376 0.000000
# 4 0.000000 0.000000 -0.000002 0.025142 0.000000 0.000952
# 5 0.008850 -0.001270 0.007376 0.000000 0.034662 0.000001
# 6 0.000000 0.000000 0.000000 0.000952 0.000001 0.033612
#
#
# Mechanical properties :
#
#
# Convention : Reuss Voigt Hill
#
# Bulk Modulus (GPa) = 32.58436 41.46838 37.02637
# Shear Modulus (GPa) = 33.24605 37.38750 35.31678
#
# Velocity S-wave (km/s) = 3.71214 3.93657 3.82600
# Velocity P-wave (km/s) = 5.64615 6.15224 5.90462
#
# Compressibility (1/GPa) = 0.03068957
#
# Stress axis : x y z
#
# Youngs Moduli (GPa) = 73.25963 94.48346 69.03881
#
# Poissons Ratio (x) = 0.04531 0.02277
# Poissons Ratio (y) = 0.03513 0.22128
# Poissons Ratio (z) = 0.02416 0.30283
#
# Static dielectric constant tensor:
#      x y z
#    x 2.034410 0.000000 0.014530 
#    y 0.000000 2.076470 0.000000 
#    z 0.014530 0.000000 1.989470 
# 
# From -- ./inp_files/249249.got.cif
#   From: 2010.05.17/outbox.cif.g08.bks.cpg/sg15_125_cif.got.tgz:249249.got - 2010.06.03 18:47:42.
