data_PCOD9286697
_publ_section_title
;
Structure prediction by ZEFSAII (Michael W. Deem and Ramdas Pophale) SiO2 
 PCOD9286697
Probable space group: C 2/C
;
_chemical_formula_sum "Si O2"
_cell_formula_units_Z 56
_cell_length_a 7.463804
_cell_length_b 29.350807
_cell_length_c 12.029074
_cell_angle_alpha 90.000000
_cell_angle_beta 99.623546
_cell_angle_gamma 90.000000
_cell_volume 2598.109281
_symmetry_space_group_name_H-M "C 2/C"
_symmetry_group_IT_number 15
_symmetry_cell_setting 'monoclinic'
loop_
_space_group_symop_operation_xyz
x,y,z
-x,y,1/2-z
-x,-y,-z
x,-y,1/2+z
1/2+x,1/2+y,z
1/2-x,1/2+y,1/2-z
1/2-x,1/2-y,-z
1/2+x,1/2-y,1/2+z
loop_
_atom_site_type_symbol
_atom_site_label
_atom_site_fract_x
_atom_site_fract_y
_atom_site_fract_z
Si Si1 0.145123 0.614954 0.996265
Si Si2 0.668003 0.289992 0.918169
Si Si3 0.000000 0.097405 0.750000
Si Si4 0.000000 0.318361 0.750000
Si Si5 0.216993 0.236931 0.165602
Si Si6 0.313694 0.155433 0.857943
Si Si7 0.203201 0.384972 0.908354
Si Si8 0.011863 0.053774 0.514051
O O1 0.246252 0.661070 0.046403
O O2 0.996136 0.598141 0.071308
O O3 0.292957 0.576559 0.989734
O O4 0.013545 0.632744 0.882960
O O5 0.451910 0.286976 0.910509
O O6 0.706852 0.278131 0.793686
O O7 0.750000 0.250000 0.000000
O O8 0.825359 0.130343 0.737986
O O9 0.973301 0.067333 0.637954
O O10 0.916074 0.281475 0.651742
O O11 0.839386 0.355295 0.704777
O O12 0.188595 0.290751 0.158559
O O13 0.246035 0.145079 0.977143
O O14 0.359451 0.422281 0.920465
O O15 0.000000 0.000000 0.500000
#
# Coordination Sequence:
#
# PCOD9286697 Si02
#       8
#     8   8   4   4   8   8   8   8
#     4  10  21  44  66  87 139 172 204 279 330 368
#     4  11  21  37  55  90 128 167 222 258 308 398
#     4  10  23  44  66 100 132 156 226 263 344 394
#     4  12  21  40  58  92 132 180 216 263 324 398
#     4  11  22  33  61  90 129 176 226 253 317 383
#     4   9  20  40  59  95 126 175 213 274 312 379
#     4   9  22  44  62  93 132 169 222 267 336 393
#     4  11  25  47  71  99 127 167 217 287 334 399
#
# _framework density 21.554134000000001
#
# number of rings (size 3 to 8) (size 9 to 14) (size 15 to 20)
#    0.857    0.857    2.857    1.286    2.000    1.714 
#    2.571    0.000    0.000    0.000    0.000    0.000 
#    0.000    0.000    0.000    0.000    0.000    0.000 
#
# Total GULP energy -155937.232104 kJ/mol
# GULP energy per Si atom -5569.186861 kJ/mol
# Density = 2.150508 g / cm^3
# Si number density = 21.554134 Si / 1000 Ang^3
#
#
#
# Elastic Constant Matrix: (Units=GPa)
#
#
# Indices 1 2 3 4 5 6 
#
# 1 115.4067 87.2251 36.5816 0.0000 38.8034 0.0000
# 2 87.2251 145.4263 48.0652 0.0000 29.7133 0.0000
# 3 36.5816 48.0652 90.7434 0.0000 32.3312 0.0000
# 4 0.0000 0.0000 0.0000 28.3862 0.0000 2.7789
# 5 38.8034 29.7133 32.3312 0.0000 50.2519 0.0000
# 6 0.0000 0.0000 0.0000 2.7789 0.0000 29.3595
#
#
#
# Elastic Compliance Matrix: (Units=1/GPa)
#
#
# Indices 1 2 3 4 5 6 
#
# 1 0.018872 -0.009686 0.000875 0.000000 -0.009408 0.000000
# 2 -0.009686 0.013601 -0.004021 0.000000 0.002024 0.000000
# 3 0.000875 -0.004021 0.015816 0.000000 -0.008474 0.000000
# 4 0.000000 0.000000 0.000000 0.035558 0.000000 -0.003366
# 5 -0.009408 0.002024 -0.008474 0.000000 0.031420 0.000000
# 6 0.000000 0.000000 0.000000 -0.003366 0.000000 0.034379
#
#
# Mechanical properties :
#
#
# Convention : Reuss Voigt Hill
#
# Bulk Modulus (GPa) = 44.19836 77.25779 60.72807
# Shear Modulus (GPa) = 27.34461 33.57982 30.46222
#
# Velocity S-wave (km/s) = 3.56567 3.95134 3.76345
# Velocity P-wave (km/s) = 6.12391 7.53252 6.86444
#
# Compressibility (1/GPa) = 0.02262527
#
# Stress axis : x y z
#
# Youngs Moduli (GPa) = 52.98960 73.52291 63.22546
#
# Poissons Ratio (x) = 0.71213 -0.05530
# Poissons Ratio (y) = 0.51325 0.25421
# Poissons Ratio (z) = -0.04634 0.29561
#
# Static dielectric constant tensor:
#      x y z
#    x 3.279710 0.000000 -0.259470 
#    y 0.000000 1.740840 0.000000 
#    z -0.259470 0.000000 1.857700 
# 
# From -- ./inp_files/193056.got.cif
#   From: 2010.05.17/outbox.cif.g08.bks.cpg/sg15_97_cif.got.tgz:193056.got - 2010.06.03 18:47:42.
