data_PCOD9286839
_publ_section_title
;
Structure prediction by ZEFSAII (Michael W. Deem and Ramdas Pophale) SiO2 
 PCOD9286839
Probable space group: C 2/C
;
_chemical_formula_sum "Si O2"
_cell_formula_units_Z 44
_cell_length_a 9.041774
_cell_length_b 27.469920
_cell_length_c 9.916814
_cell_angle_alpha 90.000000
_cell_angle_beta 120.899926
_cell_angle_gamma 90.000000
_cell_volume 2113.506976
_symmetry_space_group_name_H-M "C 2/C"
_symmetry_group_IT_number 15
_symmetry_cell_setting 'monoclinic'
loop_
_space_group_symop_operation_xyz
x,y,z
-x,y,1/2-z
-x,-y,-z
x,-y,1/2+z
1/2+x,1/2+y,z
1/2-x,1/2+y,1/2-z
1/2-x,1/2-y,-z
1/2+x,1/2-y,1/2+z
loop_
_atom_site_type_symbol
_atom_site_label
_atom_site_fract_x
_atom_site_fract_y
_atom_site_fract_z
Si Si1 0.500000 0.070494 0.750000
Si Si2 0.000000 0.115253 0.750000
Si Si3 0.553630 0.240345 0.428396
Si Si4 0.361334 0.152930 0.855587
Si Si5 0.500000 0.377587 0.750000
Si Si6 0.096803 0.051253 0.537702
Si Si7 0.312752 0.697366 0.984555
O O1 0.459710 0.103364 0.864184
O O2 0.308787 0.046598 0.632675
O O3 0.179326 0.144590 0.847367
O O4 0.045656 0.081427 0.645768
O O5 0.500000 0.232547 0.250000
O O6 0.750000 0.250000 0.500000
O O7 0.532407 0.192484 0.511213
O O8 0.476518 0.286899 0.470111
O O9 0.310657 0.173480 0.684098
O O10 0.484766 0.415645 0.619256
O O11 0.357815 0.338337 0.628656
O O12 0.000000 0.000000 0.500000
O O13 0.250000 0.750000 0.000000
#
# Coordination Sequence:
#
# PCOD9286839 Si02
#       7
#     4   4   8   8   4   8   8
#     4  10  22  45  74  96 140 176 231 312 382 448
#     4  10  21  44  70  90 138 178 220 301 374 416
#     4  12  25  38  60  95 144 192 241 295 350 421
#     4  11  21  41  62  95 139 187 237 293 362 430
#     4  12  25  43  76 102 144 194 251 295 382 444
#     4  11  25  47  77 106 139 185 249 313 389 453
#     4  12  24  40  65 100 142 191 247 297 350 439
#
# _framework density 20.818480000000001
#
# number of rings (size 3 to 8) (size 9 to 14) (size 15 to 20)
#    0.000    0.727    5.455    3.818    0.000    0.000 
#    0.000    8.182    0.000    0.000    0.000    0.000 
#    0.000    0.000    0.000    0.000    0.000    0.000 
#
# Total GULP energy -122577.760938 kJ/mol
# GULP energy per Si atom -5571.716406 kJ/mol
# Density = 2.077110 g / cm^3
# Si number density = 20.818480 Si / 1000 Ang^3
#
#
#
# Elastic Constant Matrix: (Units=GPa)
#
#
# Indices 1 2 3 4 5 6 
#
# 1 143.5268 43.1043 39.3789 0.0000 22.4384 0.0000
# 2 43.1043 126.4562 49.6871 0.0000 17.3375 0.0000
# 3 39.3789 49.6871 151.8914 0.0000 7.1445 0.0000
# 4 0.0000 0.0000 0.0000 53.6719 0.0000 14.6275
# 5 22.4384 17.3375 7.1445 0.0000 26.5139 0.0000
# 6 0.0000 0.0000 0.0000 14.6275 0.0000 38.3921
#
#
#
# Elastic Compliance Matrix: (Units=1/GPa)
#
#
# Indices 1 2 3 4 5 6 
#
# 1 0.008788 -0.001594 -0.001475 0.000000 -0.005998 0.000000
# 2 -0.001594 0.010131 -0.002687 0.000000 -0.004552 0.000000
# 3 -0.001475 -0.002687 0.007802 0.000000 0.000903 0.000000
# 4 0.000000 0.000000 0.000000 0.020791 0.000000 -0.007921
# 5 -0.005998 -0.004552 0.000903 0.000000 0.045525 0.000000
# 6 0.000000 0.000000 0.000000 -0.007921 0.000000 0.029065
#
#
# Mechanical properties :
#
#
# Convention : Reuss Voigt Hill
#
# Bulk Modulus (GPa) = 65.74290 76.24610 70.99450
# Shear Modulus (GPa) = 36.05325 43.02918 39.54121
#
# Velocity S-wave (km/s) = 4.16599 4.55122 4.36286
# Velocity P-wave (km/s) = 7.40191 8.02009 7.71720
#
# Compressibility (1/GPa) = 0.01521077
#
# Stress axis : x y z
#
# Youngs Moduli (GPa) = 113.78716 98.70813 128.16435
#
# Poissons Ratio (x) = 0.15732 0.18904
# Poissons Ratio (y) = 0.18135 0.34434
# Poissons Ratio (z) = 0.16783 0.26520
#
# Static dielectric constant tensor:
#      x y z
#    x 1.837850 0.000000 0.043920 
#    y 0.000000 1.754770 0.000000 
#    z 0.043920 0.000000 1.732360 
# 
# From -- ./inp_files/26286.got.cif
#   From: 2010.05.17/outbox.cif.g08.bks.cpg/sg15_14_cif.got.tgz:26286.got - 2010.06.03 18:47:42.
