data_PCOD9286833
_publ_section_title
;
Structure prediction by ZEFSAII (Michael W. Deem and Ramdas Pophale) SiO2 
 PCOD9286833
Probable space group: C 2/C
;
_chemical_formula_sum "Si O2"
_cell_formula_units_Z 36
_cell_length_a 14.396118
_cell_length_b 14.503124
_cell_length_c 9.546490
_cell_angle_alpha 90.000000
_cell_angle_beta 134.836885
_cell_angle_gamma 90.000000
_cell_volume 1413.411300
_symmetry_space_group_name_H-M "C 2/C"
_symmetry_group_IT_number 15
_symmetry_cell_setting 'monoclinic'
loop_
_space_group_symop_operation_xyz
x,y,z
-x,y,1/2-z
-x,-y,-z
x,-y,1/2+z
1/2+x,1/2+y,z
1/2-x,1/2+y,1/2-z
1/2-x,1/2-y,-z
1/2+x,1/2-y,1/2+z
loop_
_atom_site_type_symbol
_atom_site_label
_atom_site_fract_x
_atom_site_fract_y
_atom_site_fract_z
Si Si1 0.130559 0.511532 0.732224
Si Si2 0.000000 0.922283 0.250000
Si Si3 0.000000 0.671862 0.750000
Si Si4 0.500000 0.142115 0.250000
Si Si5 0.363261 0.464448 0.783239
Si Si6 0.528568 0.281917 0.515971
O O1 0.245484 0.506146 0.743470
O O2 0.000000 0.500000 0.500000
O O3 0.110859 0.602975 0.805779
O O4 0.115435 0.421356 0.812506
O O5 0.961734 0.849669 0.331536
O O6 0.118836 0.995987 0.353862
O O7 0.040869 0.735830 0.924495
O O8 0.561809 0.199813 0.444584
O O9 0.366221 0.353790 0.806452
O O10 0.500000 0.500000 0.000000
#
# Coordination Sequence:
#
# PCOD9286833 Si02
#       6
#     8   4   4   4   8   8
#     4  11  24  44  71 105 150 188 239 300 381 425
#     4   9  21  43  73  98 146 184 243 289 373 417
#     4  11  23  45  71 110 144 188 245 303 361 435
#     4  10  22  44  70 108 144 190 242 306 364 430
#     4  10  23  46  69 105 142 195 235 299 366 437
#     4  10  21  44  70 106 140 189 244 298 350 440
#
# _framework density 25.470293000000002
#
# number of rings (size 3 to 8) (size 9 to 14) (size 15 to 20)
#    0.000    1.778    2.222    0.667    0.000    8.000 
#   12.000    5.556    0.000    0.000    0.000    0.000 
#    0.000    0.000    0.000    0.000    0.000    0.000 
#
# Total GULP energy -100231.115408 kJ/mol
# GULP energy per Si atom -5568.395300 kJ/mol
# Density = 2.541232 g / cm^3
# Si number density = 25.470293 Si / 1000 Ang^3
#
#
#
# Elastic Constant Matrix: (Units=GPa)
#
#
# Indices 1 2 3 4 5 6 
#
# 1 246.1343 91.0139 57.1409 0.0000 -4.6688 0.0000
# 2 91.0139 148.9410 37.2170 0.0000 -21.0811 0.0000
# 3 57.1409 37.2170 72.1462 0.0000 -18.9650 0.0000
# 4 0.0000 0.0000 0.0000 339.3007 0.0000 -158.3706
# 5 -4.6688 -21.0811 -18.9650 0.0000 55.7953 0.0000
# 6 0.0000 0.0000 0.0000 -158.3706 0.0000 114.8041
#
#
#
# Elastic Compliance Matrix: (Units=1/GPa)
#
#
# Indices 1 2 3 4 5 6 
#
# 1 0.005997 -0.003009 -0.003695 0.000000 -0.001891 0.000000
# 2 -0.003009 0.009370 -0.001741 0.000000 0.002697 0.000000
# 3 -0.003695 -0.001741 0.019141 0.000000 0.005539 0.000000
# 4 0.000000 0.000000 0.000000 0.008276 0.000000 0.011417
# 5 -0.001891 0.002697 0.005539 0.000000 0.020666 0.000000
# 6 0.000000 0.000000 0.000000 0.011417 0.000000 0.024460
#
#
# Mechanical properties :
#
#
# Convention : Reuss Voigt Hill
#
# Bulk Modulus (GPa) = 56.76022 93.10721 74.93372
# Shear Modulus (GPa) = 45.17792 120.77001 82.97396
#
# Velocity S-wave (km/s) = 4.21616 6.89340 5.71380
# Velocity P-wave (km/s) = 6.78488 9.99966 8.54482
#
# Compressibility (1/GPa) = 0.01761797
#
# Stress axis : x y z
#
# Youngs Moduli (GPa) = 166.73680 106.72684 52.24284
#
# Poissons Ratio (x) = 0.32117 0.19303
# Poissons Ratio (y) = 0.50176 0.09096
# Poissons Ratio (z) = 0.61606 0.18583
#
# Static dielectric constant tensor:
#      x y z
#    x 1.711070 0.000000 0.635370 
#    y 0.000000 2.115600 0.000000 
#    z 0.635370 0.000000 0.537130 
# 
# From -- ./inp_files/95886.got.cif
#   From: 2010.05.17/outbox.cif.g08.bks.cpg/sg15_48_cif.got.tgz:95886.got - 2010.06.03 18:47:42.
