data_PCOD9286850
_publ_section_title
;
Structure prediction by ZEFSAII (Michael W. Deem and Ramdas Pophale) SiO2 
 PCOD9286850
Probable space group: C 2/C
;
_chemical_formula_sum "Si O2"
_cell_formula_units_Z 40
_cell_length_a 10.060166
_cell_length_b 22.154956
_cell_length_c 14.162358
_cell_angle_alpha 90.000000
_cell_angle_beta 32.042279
_cell_angle_gamma 90.000000
_cell_volume 1674.687398
_symmetry_space_group_name_H-M "C 2/C"
_symmetry_group_IT_number 15
_symmetry_cell_setting 'monoclinic'
loop_
_space_group_symop_operation_xyz
x,y,z
-x,y,1/2-z
-x,-y,-z
x,-y,1/2+z
1/2+x,1/2+y,z
1/2-x,1/2+y,1/2-z
1/2-x,1/2-y,-z
1/2+x,1/2-y,1/2+z
loop_
_atom_site_type_symbol
_atom_site_label
_atom_site_fract_x
_atom_site_fract_y
_atom_site_fract_z
Si Si1 0.210687 0.370131 0.040336
Si Si2 0.000000 0.088547 0.750000
Si Si3 0.324183 0.821407 0.131531
Si Si4 0.074492 0.184342 0.458957
Si Si5 0.901971 0.998785 0.452070
Si Si6 0.500000 0.909609 0.750000
O O1 0.342480 0.434895 0.951485
O O2 0.000000 0.377714 0.250000
O O3 0.078175 0.344444 0.027288
O O4 0.414192 0.324470 0.960363
O O5 0.231057 0.135265 0.604571
O O6 0.914923 0.042267 0.719902
O O7 0.334228 0.752790 0.092260
O O8 0.113991 0.826443 0.340329
O O9 0.292000 0.134498 0.330810
O O10 0.653142 0.957694 0.594825
O O11 0.000000 0.000000 0.500000
#
# Coordination Sequence:
#
# PCOD9286850 Si02
#       6
#     8   4   8   8   8   4
#     4  10  21  44  70  96 137 185 230 286 350 416
#     4  12  27  44  68 106 135 178 244 286 350 420
#     4  11  25  44  66  98 140 182 237 291 339 415
#     4  11  24  43  69  99 135 186 234 285 355 408
#     4  12  24  47  71 101 140 183 229 291 357 418
#     4  12  23  40  78  96 133 184 228 286 360 416
#
# _framework density 23.885055000000001
#
# number of rings (size 3 to 8) (size 9 to 14) (size 15 to 20)
#    0.000    0.800    5.000    2.400    2.800    2.400 
#    3.600    0.000    0.000    0.000    0.000    0.000 
#    0.000    0.000    0.000    0.000    0.000    0.000 
#
# Total GULP energy -111860.856098 kJ/mol
# GULP energy per Si atom -5593.042805 kJ/mol
# Density = 2.383069 g / cm^3
# Si number density = 23.885055 Si / 1000 Ang^3
#
#
#
# Elastic Constant Matrix: (Units=GPa)
#
#
# Indices 1 2 3 4 5 6 
#
# 1 106.6381 18.2947 5.1843 0.0005 -7.7777 0.0014
# 2 18.2947 132.8302 6.9939 -0.0031 8.1933 0.0026
# 3 5.1843 6.9939 39.3961 0.0133 -9.9729 -0.0116
# 4 0.0005 -0.0031 0.0133 39.3047 -0.0067 -4.2440
# 5 -7.7777 8.1933 -9.9729 -0.0067 19.6077 0.0021
# 6 0.0014 0.0026 -0.0116 -4.2440 0.0021 36.2919
#
#
#
# Elastic Compliance Matrix: (Units=1/GPa)
#
#
# Indices 1 2 3 4 5 6 
#
# 1 0.010005 -0.001682 0.000189 0.000000 0.004767 0.000000
# 2 -0.001682 0.008233 -0.002617 0.000001 -0.005439 -0.000001
# 3 0.000189 -0.002617 0.029979 -0.000007 0.016416 0.000008
# 4 0.000000 0.000001 -0.000007 0.025768 0.000005 0.003013
# 5 0.004767 -0.005439 0.016416 0.000005 0.063514 0.000002
# 6 0.000000 -0.000001 0.000008 0.003013 0.000002 0.027907
#
#
# Mechanical properties :
#
#
# Convention : Reuss Voigt Hill
#
# Bulk Modulus (GPa) = 25.00231 37.75667 31.37949
# Shear Modulus (GPa) = 26.74410 35.60028 31.17219
#
# Velocity S-wave (km/s) = 3.34982 3.86487 3.61652
# Velocity P-wave (km/s) = 5.04502 5.97982 5.53220
#
# Compressibility (1/GPa) = 0.03999631
#
# Stress axis : x y z
#
# Youngs Moduli (GPa) = 99.95409 121.45755 33.35706
#
# Poissons Ratio (x) = 0.20428 -0.00630
# Poissons Ratio (y) = 0.16812 0.08730
# Poissons Ratio (z) = -0.01888 0.31786
#
# Static dielectric constant tensor:
#      x y z
#    x 1.979970 0.000000 0.166460 
#    y 0.000000 1.826260 0.000000 
#    z 0.166460 0.000000 2.174940 
# 
# From -- ./inp_files/89357.got.cif
#   From: 2010.05.17/outbox.cif.g08.bks.cpg/sg15_45_cif.got.tgz:89357.got - 2010.06.03 18:47:42.
