data_PCOD9286038
_publ_section_title
;
Structure prediction by ZEFSAII (Michael W. Deem and Ramdas Pophale) SiO2 
 PCOD9286038
Probable space group: C 2/C
;
_chemical_formula_sum "Si O2"
_cell_formula_units_Z 48
_cell_length_a 9.444486
_cell_length_b 16.442175
_cell_length_c 16.910482
_cell_angle_alpha 90.000000
_cell_angle_beta 112.244858
_cell_angle_gamma 90.000000
_cell_volume 2430.552199
_symmetry_space_group_name_H-M "C 2/C"
_symmetry_group_IT_number 15
_symmetry_cell_setting 'monoclinic'
loop_
_space_group_symop_operation_xyz
x,y,z
-x,y,1/2-z
-x,-y,-z
x,-y,1/2+z
1/2+x,1/2+y,z
1/2-x,1/2+y,1/2-z
1/2-x,1/2-y,-z
1/2+x,1/2-y,1/2+z
loop_
_atom_site_type_symbol
_atom_site_label
_atom_site_fract_x
_atom_site_fract_y
_atom_site_fract_z
Si Si1 0.000000 0.389051 0.250000
Si Si2 0.300659 0.699213 0.852848
Si Si3 0.340356 0.874565 0.635870
Si Si4 0.993985 0.902678 0.982654
Si Si5 0.135874 0.534960 0.190529
Si Si6 0.634951 0.366213 0.841629
Si Si7 0.500000 0.272052 0.250000
O O1 0.131919 0.338448 0.318790
O O2 0.085995 0.445828 0.204799
O O3 0.262147 0.794149 0.862364
O O4 0.380543 0.687025 0.784148
O O5 0.408372 0.650639 0.935550
O O6 0.321604 0.920319 0.717032
O O7 0.481984 0.921714 0.626618
O O8 0.398879 0.785685 0.671397
O O9 0.184177 0.878143 0.556061
O O10 0.061754 0.879165 0.911332
O O11 0.000000 0.000000 0.000000
O O12 0.277134 0.551347 0.164336
O O13 0.500000 0.349227 0.750000
#
# Coordination Sequence:
#
# PCOD9286038 Si02
#       7
#     4   8   8   8   8   8   4
#     4  10  23  40  64  97 134 170 214 276 325 392
#     4  12  24  42  65 101 133 167 228 273 325 385
#     4   9  17  39  65  87 125 164 219 256 318 380
#     4  12  26  41  62 101 139 166 217 285 329 380
#     4   9  18  39  67  87 120 180 217 249 322 399
#     4  12  22  43  71  93 128 181 225 259 329 399
#     4  10  21  42  70  93 122 180 224 260 317 408
#
# _framework density 19.748598999999999
#
# number of rings (size 3 to 8) (size 9 to 14) (size 15 to 20)
#    0.000    1.667    5.833    2.500    0.000    2.000 
#    0.000    3.333    0.000    0.000    0.000    0.000 
#    0.000    0.000    0.000    0.000    0.000    0.000 
#
# Total GULP energy -133869.914699 kJ/mol
# GULP energy per Si atom -5577.913112 kJ/mol
# Density = 1.970365 g / cm^3
# Si number density = 19.748599 Si / 1000 Ang^3
#
#
#
# Elastic Constant Matrix: (Units=GPa)
#
#
# Indices 1 2 3 4 5 6 
#
# 1 62.6924 25.7105 33.0733 0.0000 12.7796 0.0000
# 2 25.7105 65.2456 30.5630 0.0000 6.2448 0.0000
# 3 33.0733 30.5630 86.9942 0.0000 30.5461 0.0000
# 4 0.0000 0.0000 0.0000 1.2969 0.0000 15.7083
# 5 12.7796 6.2448 30.5461 0.0000 44.3285 0.0000
# 6 0.0000 0.0000 0.0000 15.7083 0.0000 4.8411
#
#
#
# Elastic Compliance Matrix: (Units=1/GPa)
#
#
# Indices 1 2 3 4 5 6 
#
# 1 0.021592 -0.005706 -0.005673 0.000000 -0.001512 0.000000
# 2 -0.005706 0.020058 -0.005887 0.000000 0.002876 0.000000
# 3 -0.005673 -0.005887 0.019596 0.000000 -0.011038 0.000000
# 4 0.000000 0.000000 0.000000 -0.020132 0.000000 0.065323
# 5 -0.001512 0.002876 -0.011038 0.000000 0.030196 0.000000
# 6 0.000000 0.000000 0.000000 0.065323 0.000000 -0.005393
#
#
# Mechanical properties :
#
#
# Convention : Reuss Voigt Hill
#
# Bulk Modulus (GPa) = 37.43604 43.73620 40.58612
# Shear Modulus (GPa) = 45.72268 18.46568 32.09418
#
# Velocity S-wave (km/s) = 4.81691 3.06116 4.03567
# Velocity P-wave (km/s) = 7.06642 5.88972 6.50473
#
# Compressibility (1/GPa) = 0.02671223
#
# Stress axis : x y z
#
# Youngs Moduli (GPa) = 46.31299 49.85587 51.03051
#
# Poissons Ratio (x) = 0.28449 0.28951
# Poissons Ratio (y) = 0.26428 0.30043
# Poissons Ratio (z) = 0.26275 0.29352
#
# Static dielectric constant tensor:
#      x y z
#    x 1.716730 0.000000 -0.036890 
#    y 0.000000 1.718240 0.000000 
#    z -0.036890 0.000000 1.733200 
# 
# From -- ./inp_files/232335.got.cif
#   From: 2010.05.17/outbox.cif.g08.bks.cpg/sg15_117_cif.got.tgz:232335.got - 2010.06.03 18:47:42.
