data_PCOD9286366
_publ_section_title
;
Structure prediction by ZEFSAII (Michael W. Deem and Ramdas Pophale) SiO2 
 PCOD9286366
Probable space group: C 2/C
;
_chemical_formula_sum "Si O2"
_cell_formula_units_Z 60
_cell_length_a 19.369220
_cell_length_b 17.580441
_cell_length_c 13.183676
_cell_angle_alpha 90.000000
_cell_angle_beta 145.322592
_cell_angle_gamma 90.000000
_cell_volume 2554.209811
_symmetry_space_group_name_H-M "C 2/C"
_symmetry_group_IT_number 15
_symmetry_cell_setting 'monoclinic'
loop_
_space_group_symop_operation_xyz
x,y,z
-x,y,1/2-z
-x,-y,-z
x,-y,1/2+z
1/2+x,1/2+y,z
1/2-x,1/2+y,1/2-z
1/2-x,1/2-y,-z
1/2+x,1/2-y,1/2+z
loop_
_atom_site_type_symbol
_atom_site_label
_atom_site_fract_x
_atom_site_fract_y
_atom_site_fract_z
Si Si1 0.277962 0.127563 0.990120
Si Si2 0.287868 0.604803 0.951121
Si Si3 0.862733 0.532346 0.545297
Si Si4 0.113443 0.740345 0.231378
Si Si5 0.240634 0.146926 0.260214
Si Si6 0.500000 0.275483 0.750000
Si Si7 0.103855 0.721895 0.673321
Si Si8 0.616418 0.551822 0.962792
O O1 0.167233 0.175175 0.808469
O O2 0.224698 0.085148 0.024725
O O3 0.367107 0.192916 0.141400
O O4 0.334011 0.057478 0.996145
O O5 0.227756 0.568720 0.979592
O O6 0.180294 0.645318 0.760600
O O7 0.386660 0.669351 0.092515
O O8 0.355173 0.535320 0.977924
O O9 0.832776 0.582959 0.411124
O O10 0.000000 0.539047 0.750000
O O11 0.196419 0.699717 0.247157
O O12 0.979412 0.734352 0.025143
O O13 0.193901 0.205934 0.287159
O O14 0.125273 0.102499 0.073571
O O15 0.526486 0.225319 0.682949
O O16 0.500000 0.556600 0.750000
#
# Coordination Sequence:
#
# PCOD9286366 Si02
#       8
#     8   8   8   8   8   4   8   8
#     4   9  22  43  66  96 130 180 228 276 343 396
#     4  11  24  42  65  95 136 176 223 267 348 397
#     4  11  24  42  65  97 138 180 222 279 334 406
#     4  10  22  43  67  94 136 173 228 287 330 402
#     4  11  24  40  64 100 130 173 231 274 339 407
#     4  12  24  42  64  94 140 178 220 286 328 408
#     4  12  25  40  66 101 133 178 227 279 340 405
#     4  10  21  43  67  93 133 174 220 288 336 395
#
# _framework density 23.490632000000002
#
# number of rings (size 3 to 8) (size 9 to 14) (size 15 to 20)
#    0.000    1.333    2.000    2.800    2.800    4.267 
#    0.000    8.000    0.000    0.000    0.000    0.000 
#    0.000    0.000    0.000    0.000    0.000    0.000 
#
# Total GULP energy -167796.200886 kJ/mol
# GULP energy per Si atom -5593.206696 kJ/mol
# Density = 2.343717 g / cm^3
# Si number density = 23.490632 Si / 1000 Ang^3
#
#
#
# Elastic Constant Matrix: (Units=GPa)
#
#
# Indices 1 2 3 4 5 6 
#
# 1 36.6698 8.8356 -3.6544 0.0000 0.6014 0.0000
# 2 8.8356 132.3553 61.0630 0.0000 -7.3697 0.0000
# 3 -3.6544 61.0630 112.8718 0.0000 7.4233 0.0000
# 4 0.0000 0.0000 0.0000 26.6436 0.0000 9.9951
# 5 0.6014 -7.3697 7.4233 0.0000 24.2073 0.0000
# 6 0.0000 0.0000 0.0000 9.9951 0.0000 10.3188
#
#
#
# Elastic Compliance Matrix: (Units=1/GPa)
#
#
# Indices 1 2 3 4 5 6 
#
# 1 0.028424 -0.003397 0.002932 0.000000 -0.002639 0.000000
# 2 -0.003397 0.011061 -0.006451 0.000000 0.005430 0.000000
# 3 0.002932 -0.006451 0.012837 0.000000 -0.005973 0.000000
# 4 0.000000 0.000000 0.000000 0.058955 0.000000 -0.057105
# 5 -0.002639 0.005430 -0.005973 0.000000 0.044860 0.000000
# 6 0.000000 0.000000 0.000000 -0.057105 0.000000 0.152225
#
#
# Mechanical properties :
#
#
# Convention : Reuss Voigt Hill
#
# Bulk Modulus (GPa) = 25.98094 46.04284 36.01189
# Shear Modulus (GPa) = 14.92428 26.61080 20.76754
#
# Velocity S-wave (km/s) = 2.52331 3.36940 2.97657
# Velocity P-wave (km/s) = 4.42420 5.89747 5.21315
#
# Compressibility (1/GPa) = 0.03848975
#
# Stress axis : x y z
#
# Youngs Moduli (GPa) = 35.18115 90.41034 77.89830
#
# Poissons Ratio (x) = 0.30712 -0.22837
# Poissons Ratio (y) = 0.11951 0.50251
# Poissons Ratio (z) = -0.10314 0.58322
#
# Static dielectric constant tensor:
#      x y z
#    x 1.920570 0.000000 -0.013750 
#    y 0.000000 1.865180 0.000000 
#    z -0.013750 0.000000 1.899590 
# 
# From -- ./inp_files/174110.got.cif
#   From: 2010.05.17/outbox.cif.g08.bks.cpg/sg15_88_cif.got.tgz:174110.got - 2010.06.03 18:47:42.
