data_PCOD9286965
_publ_section_title
;
Structure prediction by ZEFSAII (Michael W. Deem and Ramdas Pophale) SiO2 
 PCOD9286965
Probable space group: C 2/C
;
_chemical_formula_sum "Si O2"
_cell_formula_units_Z 36
_cell_length_a 30.688475
_cell_length_b 9.887155
_cell_length_c 9.316707
_cell_angle_alpha 90.000000
_cell_angle_beta 31.401531
_cell_angle_gamma 90.000000
_cell_volume 1472.901997
_symmetry_space_group_name_H-M "C 2/C"
_symmetry_group_IT_number 15
_symmetry_cell_setting 'monoclinic'
loop_
_space_group_symop_operation_xyz
x,y,z
-x,y,1/2-z
-x,-y,-z
x,-y,1/2+z
1/2+x,1/2+y,z
1/2-x,1/2+y,1/2-z
1/2-x,1/2-y,-z
1/2+x,1/2-y,1/2+z
loop_
_atom_site_type_symbol
_atom_site_label
_atom_site_fract_x
_atom_site_fract_y
_atom_site_fract_z
Si Si1 0.676962 0.558090 0.753326
Si Si2 0.364912 0.276322 0.679826
Si Si3 0.500000 0.466402 0.250000
Si Si4 0.564604 0.017528 0.942956
Si Si5 0.176239 0.710730 0.031927
O O1 0.698813 0.402661 0.649283
O O2 0.735940 0.630949 0.702712
O O3 0.683123 0.645826 0.591176
O O4 0.579741 0.550725 0.079016
O O5 0.448885 0.359658 0.490659
O O6 0.371326 0.141810 0.754151
O O7 0.359552 0.227127 0.527559
O O8 0.616751 0.880093 0.800740
O O9 0.500000 0.047704 0.250000
O O10 0.500000 0.000000 0.000000
#
# Coordination Sequence:
#
# PCOD9286965 Si02
#       5
#     8   8   4   8   8
#     4   9  23  43  64  98 136 188 236 291 348 431
#     4  10  21  45  68  97 144 187 232 296 354 425
#     4   8  18  44  64  88 132 190 226 280 348 428
#     4  12  23  44  71 103 144 188 235 298 357 426
#     4  11  23  41  68 106 141 177 247 296 352 424
#
# _framework density 24.441545000000001
#
# number of rings (size 3 to 8) (size 9 to 14) (size 15 to 20)
#    1.333    0.444    3.333    0.000    1.556    5.333 
#    4.000    0.000    0.000    0.000    0.000    0.000 
#    0.000    0.000    0.000    0.000    0.000    0.000 
#
# Total GULP energy -100206.231576 kJ/mol
# GULP energy per Si atom -5567.012865 kJ/mol
# Density = 2.438592 g / cm^3
# Si number density = 24.441545 Si / 1000 Ang^3
#
#
#
# Elastic Constant Matrix: (Units=GPa)
#
#
# Indices 1 2 3 4 5 6 
#
# 1 125.6290 52.1646 38.4499 0.0000 -20.3567 0.0000
# 2 52.1646 172.6143 24.8133 0.0000 -2.2216 0.0000
# 3 38.4499 24.8133 73.5011 0.0000 -43.1670 0.0000
# 4 0.0000 0.0000 0.0000 26.5823 0.0000 -3.0731
# 5 -20.3567 -2.2216 -43.1670 0.0000 37.0137 0.0000
# 6 0.0000 0.0000 0.0000 -3.0731 0.0000 23.3204
#
#
#
# Elastic Compliance Matrix: (Units=1/GPa)
#
#
# Indices 1 2 3 4 5 6 
#
# 1 0.010404 -0.002535 -0.004176 0.000000 0.000700 0.000000
# 2 -0.002535 0.007233 -0.005331 0.000000 -0.007177 0.000000
# 3 -0.004176 -0.005331 0.050950 0.000000 0.056803 0.000000
# 4 0.000000 0.000000 0.000000 0.038201 0.000000 0.005034
# 5 0.000700 -0.007177 0.056803 0.000000 0.093218 0.000000
# 6 0.000000 0.000000 0.000000 0.005034 0.000000 0.043544
#
#
# Mechanical properties :
#
#
# Convention : Reuss Voigt Hill
#
# Bulk Modulus (GPa) = 22.47002 66.95556 44.71279
# Shear Modulus (GPa) = 17.70114 34.47107 26.08610
#
# Velocity S-wave (km/s) = 2.69406 3.75953 3.27048
# Velocity P-wave (km/s) = 4.34633 6.80434 5.70919
#
# Compressibility (1/GPa) = 0.04450374
#
# Stress axis : x y z
#
# Youngs Moduli (GPa) = 96.11782 138.25041 19.62715
#
# Poissons Ratio (x) = 0.35044 0.08196
# Poissons Ratio (y) = 0.24364 0.10463
# Poissons Ratio (z) = 0.40137 0.73702
#
# Static dielectric constant tensor:
#      x y z
#    x 1.862720 0.000000 -0.756040 
#    y 0.000000 1.968570 0.000000 
#    z -0.756040 0.000000 -14.452990 
# 
# From -- ./inp_files/64983.got.cif
#   From: 2010.05.17/outbox.cif.g08.bks.cpg/sg15_33_cif.got.tgz:64983.got - 2010.06.03 18:47:42.
