data_PCOD9286672
_publ_section_title
;
Structure prediction by ZEFSAII (Michael W. Deem and Ramdas Pophale) SiO2 
 PCOD9286672
Probable space group: C 2/C
;
_chemical_formula_sum "Si O2"
_cell_formula_units_Z 48
_cell_length_a 27.886948
_cell_length_b 15.267596
_cell_length_c 14.088555
_cell_angle_alpha 90.000000
_cell_angle_beta 156.882589
_cell_angle_gamma 90.000000
_cell_volume 2355.085998
_symmetry_space_group_name_H-M "C 2/C"
_symmetry_group_IT_number 15
_symmetry_cell_setting 'monoclinic'
loop_
_space_group_symop_operation_xyz
x,y,z
-x,y,1/2-z
-x,-y,-z
x,-y,1/2+z
1/2+x,1/2+y,z
1/2-x,1/2+y,1/2-z
1/2-x,1/2-y,-z
1/2+x,1/2-y,1/2+z
loop_
_atom_site_type_symbol
_atom_site_label
_atom_site_fract_x
_atom_site_fract_y
_atom_site_fract_z
Si Si1 0.764510 0.254733 0.336951
Si Si2 0.691273 0.830996 0.522552
Si Si3 0.500000 0.365596 0.250000
Si Si4 0.519960 0.771510 0.505069
Si Si5 0.432100 0.119835 0.220620
Si Si6 0.500000 0.046558 0.750000
Si Si7 0.941225 0.085460 0.439054
O O1 0.880494 0.190587 0.563005
O O2 0.644820 0.223148 0.173759
O O3 0.797069 0.348868 0.444033
O O4 0.743134 0.247242 0.184059
O O5 0.617709 0.892573 0.462363
O O6 0.797768 0.888863 0.669105
O O7 0.594495 0.796543 0.269866
O O8 0.537877 0.420046 0.410306
O O9 0.529023 0.834813 0.612328
O O10 0.504774 0.672847 0.514564
O O11 0.500000 0.154959 0.250000
O O12 0.472262 0.018720 0.287487
O O13 0.000000 0.000000 0.500000
#
# Coordination Sequence:
#
# PCOD9286672 Si02
#       7
#     8   8   4   8   8   4   8
#     4  11  20  42  71  92 131 179 225 272 344 410
#     4  11  24  47  65 100 142 169 223 289 343 396
#     4  10  21  44  65  92 136 168 218 283 326 401
#     4  12  23  42  70  99 128 185 224 278 343 416
#     4  10  22  39  66  94 129 172 224 268 336 400
#     4  10  23  44  63 100 130 172 220 283 332 395
#     4  11  26  44  66  99 135 177 229 278 337 405
#
# _framework density 20.381421
#
# number of rings (size 3 to 8) (size 9 to 14) (size 15 to 20)
#    0.500    0.667    4.167    2.000    2.333    0.667 
#    9.000    0.000    0.000    0.000    0.000    0.000 
#    0.000    0.000    0.000    0.000    0.000    0.000 
#
# Total GULP energy -133665.708569 kJ/mol
# GULP energy per Si atom -5569.404524 kJ/mol
# Density = 2.033503 g / cm^3
# Si number density = 20.381421 Si / 1000 Ang^3
#
#
#
# Elastic Constant Matrix: (Units=GPa)
#
#
# Indices 1 2 3 4 5 6 
#
# 1 92.2288 36.9841 49.6685 0.0000 5.9701 0.0000
# 2 36.9841 89.6358 20.7266 0.0000 -4.4026 0.0000
# 3 49.6685 20.7266 108.2323 0.0000 -5.0847 0.0000
# 4 0.0000 0.0000 0.0000 39.1161 0.0000 31.2031
# 5 5.9701 -4.4026 -5.0847 0.0000 46.2994 0.0000
# 6 0.0000 0.0000 0.0000 31.2031 0.0000 62.2583
#
#
#
# Elastic Compliance Matrix: (Units=1/GPa)
#
#
# Indices 1 2 3 4 5 6 
#
# 1 0.017036 -0.005603 -0.006909 0.000000 -0.003488 0.000000
# 2 -0.005603 0.013551 0.000071 0.000000 0.002019 0.000000
# 3 -0.006909 0.000071 0.012503 0.000000 0.002271 0.000000
# 4 0.000000 0.000000 0.000000 0.042594 0.000000 -0.021348
# 5 -0.003488 0.002019 0.002271 0.000000 0.022490 0.000000
# 6 0.000000 0.000000 0.000000 -0.021348 0.000000 0.026761
#
#
# Mechanical properties :
#
#
# Convention : Reuss Voigt Hill
#
# Bulk Modulus (GPa) = 54.91988 56.09504 55.50746
# Shear Modulus (GPa) = 30.14140 41.71595 35.92867
#
# Velocity S-wave (km/s) = 3.84977 4.52902 4.20314
# Velocity P-wave (km/s) = 6.83854 7.41160 7.13083
#
# Compressibility (1/GPa) = 0.01820834
#
# Stress axis : x y z
#
# Youngs Moduli (GPa) = 58.70006 73.79669 79.98130
#
# Poissons Ratio (x) = 0.41347 0.55257
# Poissons Ratio (y) = 0.32889 -0.00568
# Poissons Ratio (z) = 0.40554 -0.00524
#
# Static dielectric constant tensor:
#      x y z
#    x 1.762380 0.000000 0.042090 
#    y 0.000000 1.768650 0.000000 
#    z 0.042090 0.000000 1.815830 
# 
# From -- ./inp_files/182481.got.cif
#   From: 2010.05.17/outbox.cif.g08.bks.cpg/sg15_92_cif.got.tgz:182481.got - 2010.06.03 18:47:42.
