data_PCOD9286890
_publ_section_title
;
Structure prediction by ZEFSAII (Michael W. Deem and Ramdas Pophale) SiO2 
 PCOD9286890
Probable space group: C 2/C
;
_chemical_formula_sum "Si O2"
_cell_formula_units_Z 56
_cell_length_a 19.231833
_cell_length_b 12.391426
_cell_length_c 12.603460
_cell_angle_alpha 90.000000
_cell_angle_beta 128.539104
_cell_angle_gamma 90.000000
_cell_volume 2349.309254
_symmetry_space_group_name_H-M "C 2/C"
_symmetry_group_IT_number 15
_symmetry_cell_setting 'monoclinic'
loop_
_space_group_symop_operation_xyz
x,y,z
-x,y,1/2-z
-x,-y,-z
x,-y,1/2+z
1/2+x,1/2+y,z
1/2-x,1/2+y,1/2-z
1/2-x,1/2-y,-z
1/2+x,1/2-y,1/2+z
loop_
_atom_site_type_symbol
_atom_site_label
_atom_site_fract_x
_atom_site_fract_y
_atom_site_fract_z
Si Si1 0.037155 0.301481 0.006878
Si Si2 0.020842 0.904518 0.940230
Si Si3 0.367792 0.894315 0.764370
Si Si4 0.607035 0.709757 0.871251
Si Si5 0.638673 0.461816 0.867895
Si Si6 0.343810 0.135997 0.684910
Si Si7 0.204372 0.324733 0.577230
O O1 0.975027 0.388033 0.887920
O O2 0.109219 0.249665 0.995010
O O3 0.974993 0.203534 0.987586
O O4 0.083028 0.342340 0.156081
O O5 0.108335 0.927003 0.956191
O O6 0.938006 0.912572 0.780932
O O7 0.000000 0.000000 0.000000
O O8 0.350890 0.799546 0.664040
O O9 0.326129 0.866156 0.838426
O O10 0.333108 0.007246 0.686227
O O11 0.500000 0.704971 0.750000
O O12 0.640017 0.591110 0.873973
O O13 0.727472 0.411906 0.907097
O O14 0.260717 0.214119 0.634996
O O15 0.367791 0.174038 0.587418
#
# Coordination Sequence:
#
# PCOD9286890 Si02
#       7
#     8   8   8   8   8   8   8
#     4  11  23  45  75 106 138 184 249 300 357 427
#     4  11  20  37  69 108 140 175 229 292 365 411
#     4  11  27  46  75 101 143 194 235 302 357 434
#     4  10  21  44  73 111 136 177 244 301 360 418
#     4  11  22  41  68 108 144 179 232 298 357 430
#     4  11  27  49  65 103 143 187 243 290 356 434
#     4  11  28  47  68 104 147 193 238 289 368 441
#
# _framework density 23.836791999999999
#
# number of rings (size 3 to 8) (size 9 to 14) (size 15 to 20)
#    0.000    1.143    4.286    1.286    8.000    2.857 
#    2.571    1.429    0.000    0.000    0.000    0.000 
#    0.000    0.000    0.000    0.000    0.000    0.000 
#
# Total GULP energy -156686.460226 kJ/mol
# GULP energy per Si atom -5595.945008 kJ/mol
# Density = 2.378254 g / cm^3
# Si number density = 23.836792 Si / 1000 Ang^3
#
#
#
# Elastic Constant Matrix: (Units=GPa)
#
#
# Indices 1 2 3 4 5 6 
#
# 1 72.0148 49.6995 31.9981 0.0000 -22.3106 0.0000
# 2 49.6995 184.6714 50.7207 0.0000 -11.3407 0.0000
# 3 31.9981 50.7207 93.6688 0.0000 -18.4798 0.0000
# 4 0.0000 0.0000 0.0000 40.4527 0.0000 -2.9735
# 5 -22.3106 -11.3407 -18.4798 0.0000 39.2332 0.0000
# 6 0.0000 0.0000 0.0000 -2.9735 0.0000 23.0086
#
#
#
# Elastic Compliance Matrix: (Units=1/GPa)
#
#
# Indices 1 2 3 4 5 6 
#
# 1 0.021067 -0.004259 -0.003053 0.000000 0.009310 0.000000
# 2 -0.004259 0.007224 -0.002781 0.000000 -0.001644 0.000000
# 3 -0.003053 -0.002781 0.014027 0.000000 0.004067 0.000000
# 4 0.000000 0.000000 0.000000 0.024957 0.000000 0.003225
# 5 0.009310 -0.001644 0.004067 0.000000 0.032224 0.000000
# 6 0.000000 0.000000 0.000000 0.003225 0.000000 0.043879
#
#
# Mechanical properties :
#
#
# Convention : Reuss Voigt Hill
#
# Bulk Modulus (GPa) = 45.18627 68.35463 56.77045
# Shear Modulus (GPa) = 29.24972 35.06804 32.15888
#
# Velocity S-wave (km/s) = 3.50677 3.83975 3.67703
# Velocity P-wave (km/s) = 5.94931 6.95676 6.47267
#
# Compressibility (1/GPa) = 0.02213062
#
# Stress axis : x y z
#
# Youngs Moduli (GPa) = 47.46871 138.42433 71.28956
#
# Poissons Ratio (x) = 0.58957 0.21768
# Poissons Ratio (y) = 0.20218 0.19827
# Poissons Ratio (z) = 0.14494 0.38498
#
# Static dielectric constant tensor:
#      x y z
#    x 1.915200 0.000000 0.054730 
#    y 0.000000 1.895830 0.000000 
#    z 0.054730 0.000000 1.887850 
# 
# From -- ./inp_files/111661.got.cif
#   From: 2010.05.17/outbox.cif.g08.bks.cpg/sg15_56_cif.got.tgz:111661.got - 2010.06.03 18:47:42.
