data_PCOD9286152
_publ_section_title
;
Structure prediction by ZEFSAII (Michael W. Deem and Ramdas Pophale) SiO2 
 PCOD9286152
Probable space group: C 2/C
;
_chemical_formula_sum "Si O2"
_cell_formula_units_Z 44
_cell_length_a 21.248756
_cell_length_b 10.923706
_cell_length_c 9.266743
_cell_angle_alpha 90.000000
_cell_angle_beta 70.595579
_cell_angle_gamma 90.000000
_cell_volume 2028.771118
_symmetry_space_group_name_H-M "C 2/C"
_symmetry_group_IT_number 15
_symmetry_cell_setting 'monoclinic'
loop_
_space_group_symop_operation_xyz
x,y,z
-x,y,1/2-z
-x,-y,-z
x,-y,1/2+z
1/2+x,1/2+y,z
1/2-x,1/2+y,1/2-z
1/2-x,1/2-y,-z
1/2+x,1/2-y,1/2+z
loop_
_atom_site_type_symbol
_atom_site_label
_atom_site_fract_x
_atom_site_fract_y
_atom_site_fract_z
Si Si1 0.895665 0.640132 0.371322
Si Si2 0.454274 0.358267 0.147408
Si Si3 0.931378 0.763596 0.629421
Si Si4 0.336791 0.457320 0.767983
Si Si5 0.748002 0.611040 0.440410
Si Si6 0.000000 0.553583 0.750000
O O1 0.924518 0.727079 0.222553
O O2 0.891562 0.727937 0.513980
O O3 0.826160 0.579383 0.382563
O O4 0.948844 0.536269 0.367580
O O5 0.500000 0.399940 0.250000
O O6 0.391924 0.446241 0.166464
O O7 0.504459 0.339425 0.976393
O O8 0.883554 0.841516 0.769038
O O9 0.957738 0.641886 0.681510
O O10 0.284048 0.409608 0.690989
O O11 0.296420 0.526433 0.921949
O O12 0.750000 0.750000 0.500000
#
# Coordination Sequence:
#
# PCOD9286152 Si02
#       6
#     8   8   8   8   8   4
#     4  11  23  47  70  95 142 195 225 290 367 425
#     4  10  21  42  75 100 138 183 234 295 363 410
#     4  11  24  41  68 105 137 173 243 298 356 413
#     4  12  26  45  75 103 148 188 234 304 358 433
#     4  12  26  48  72 103 150 193 238 290 365 440
#     4  12  26  40  70 102 140 178 240 304 350 420
#
# _framework density 21.688006000000001
#
# number of rings (size 3 to 8) (size 9 to 14) (size 15 to 20)
#    0.000    0.727    6.364    2.182    6.364    0.000 
#    0.000    1.818    0.000    0.000    0.000    0.000 
#    0.000    0.000    0.000    0.000    0.000    0.000 
#
# Total GULP energy -122967.817237 kJ/mol
# GULP energy per Si atom -5589.446238 kJ/mol
# Density = 2.163864 g / cm^3
# Si number density = 21.688006 Si / 1000 Ang^3
#
#
#
# Elastic Constant Matrix: (Units=GPa)
#
#
# Indices 1 2 3 4 5 6 
#
# 1 123.7437 35.0006 7.4951 0.0000 -16.3664 0.0000
# 2 35.0006 88.6163 7.8183 0.0000 -8.2673 0.0000
# 3 7.4951 7.8183 30.1956 0.0000 -9.9007 0.0000
# 4 0.0000 0.0000 0.0000 8.5570 0.0000 17.7590
# 5 -16.3664 -8.2673 -9.9007 0.0000 24.3927 0.0000
# 6 0.0000 0.0000 0.0000 17.7590 0.0000 23.5938
#
#
#
# Elastic Compliance Matrix: (Units=1/GPa)
#
#
# Indices 1 2 3 4 5 6 
#
# 1 0.009743 -0.003357 0.000255 0.000000 0.005503 0.000000
# 2 -0.003357 0.012914 -0.002092 0.000000 0.001275 0.000000
# 3 0.000255 -0.002092 0.038550 0.000000 0.015109 0.000000
# 4 0.000000 0.000000 0.000000 -0.207893 0.000000 0.156481
# 5 0.005503 0.001275 0.015109 0.000000 0.051253 0.000000
# 6 0.000000 0.000000 0.000000 0.156481 0.000000 -0.075399
#
#
# Mechanical properties :
#
#
# Convention : Reuss Voigt Hill
#
# Bulk Modulus (GPa) = 19.67798 38.13153 28.90476
# Shear Modulus (GPa) = -34.84256 24.12481 -5.35887
#
# Velocity S-wave (km/s) = -4.01251 3.33882 -1.57361
# Velocity P-wave (km/s) = 3.51768 5.69944 3.17093
#
# Compressibility (1/GPa) = 0.05081821
#
# Stress axis : x y z
#
# Youngs Moduli (GPa) = 102.63557 77.43403 25.94044
#
# Poissons Ratio (x) = 0.25998 -0.00662
# Poissons Ratio (y) = 0.34459 0.05428
# Poissons Ratio (z) = -0.02619 0.16202
#
# Static dielectric constant tensor:
#      x y z
#    x 1.809660 0.000000 0.006120 
#    y 0.000000 1.805830 0.000000 
#    z 0.006120 0.000000 1.794950 
# 
# From -- ./inp_files/54416.got.cif
#   From: 2010.05.17/outbox.cif.g08.bks.cpg/sg15_28_cif.got.tgz:54416.got - 2010.06.03 18:47:42.
