data_PCOD9286928
_publ_section_title
;
Structure prediction by ZEFSAII (Michael W. Deem and Ramdas Pophale) SiO2 
 PCOD9286928
Probable space group: C 2/C
;
_chemical_formula_sum "Si O2"
_cell_formula_units_Z 64
_cell_length_a 14.472147
_cell_length_b 15.394207
_cell_length_c 18.834124
_cell_angle_alpha 90.000000
_cell_angle_beta 134.227080
_cell_angle_gamma 90.000000
_cell_volume 3006.775586
_symmetry_space_group_name_H-M "C 2/C"
_symmetry_group_IT_number 15
_symmetry_cell_setting 'monoclinic'
loop_
_space_group_symop_operation_xyz
x,y,z
-x,y,1/2-z
-x,-y,-z
x,-y,1/2+z
1/2+x,1/2+y,z
1/2-x,1/2+y,1/2-z
1/2-x,1/2-y,-z
1/2+x,1/2-y,1/2+z
loop_
_atom_site_type_symbol
_atom_site_label
_atom_site_fract_x
_atom_site_fract_y
_atom_site_fract_z
Si Si1 0.403293 0.331533 0.042880
Si Si2 0.893136 0.153126 0.238433
Si Si3 0.397433 0.735191 0.388970
Si Si4 0.442161 0.465283 0.291147
Si Si5 0.660393 0.917358 0.127399
Si Si6 0.469206 0.039556 0.653130
Si Si7 0.822654 0.678762 0.491904
Si Si8 0.880406 0.631233 0.049558
O O1 0.507726 0.403307 0.120652
O O2 0.434323 0.229790 0.077055
O O3 0.387005 0.329383 0.949188
O O4 0.270904 0.356795 0.012444
O O5 0.860786 0.197306 0.294340
O O6 0.767195 0.148950 0.121543
O O7 0.000000 0.205036 0.250000
O O8 0.974563 0.067345 0.307485
O O9 0.302889 0.815792 0.350878
O O10 0.541727 0.777880 0.461419
O O11 0.500000 0.426470 0.250000
O O12 0.289884 0.470255 0.201552
O O13 0.579019 0.940784 0.153222
O O14 0.599310 0.918097 0.015799
O O15 0.500000 0.066398 0.750000
O O16 0.352971 0.096636 0.558464
O O17 0.439386 0.937161 0.635608
O O18 0.750000 0.750000 0.500000
#
# Coordination Sequence:
#
# PCOD9286928 Si02
#       8
#     8   8   8   8   8   8   8   8
#     4  10  23  40  65  97 133 175 225 283 331 397
#     4  11  24  42  65  97 130 176 224 268 344 410
#     4  10  24  41  65 101 130 175 226 280 329 403
#     4  11  23  40  67  95 130 179 222 272 335 402
#     4  10  22  43  65  93 134 176 222 270 330 413
#     4  11  26  42  68 103 134 173 227 279 335 399
#     4  11  24  41  70  91 139 178 217 279 337 405
#     4  10  21  45  64  91 136 178 223 271 337 402
#
# _framework density 21.285260999999998
#
# number of rings (size 3 to 8) (size 9 to 14) (size 15 to 20)
#    0.000    1.500    2.500    1.125    7.000    4.000 
#    0.000    0.000    0.000    0.000    0.000    0.000 
#    0.000    0.000    0.000    0.000    0.000    0.000 
#
# Total GULP energy -178431.489210 kJ/mol
# GULP energy per Si atom -5575.984038 kJ/mol
# Density = 2.123681 g / cm^3
# Si number density = 21.285261 Si / 1000 Ang^3
#
#
#
# Elastic Constant Matrix: (Units=GPa)
#
#
# Indices 1 2 3 4 5 6 
#
# 1 69.2267 9.5808 25.6218 0.0000 -17.8731 0.0000
# 2 9.5808 54.7477 51.1244 0.0000 -15.2633 0.0000
# 3 25.6218 51.1244 134.9089 0.0000 -30.5250 0.0000
# 4 0.0000 0.0000 0.0000 15.0585 0.0000 -11.7653
# 5 -17.8731 -15.2633 -30.5250 0.0000 31.2735 0.0000
# 6 0.0000 0.0000 0.0000 -11.7653 0.0000 24.8940
#
#
#
# Elastic Compliance Matrix: (Units=1/GPa)
#
#
# Indices 1 2 3 4 5 6 
#
# 1 0.017163 0.000966 -0.001668 0.000000 0.008652 0.000000
# 2 0.000966 0.028779 -0.009994 0.000000 0.004844 0.000000
# 3 -0.001668 -0.009994 0.013087 0.000000 0.006943 0.000000
# 4 0.000000 0.000000 0.000000 0.105284 0.000000 0.049759
# 5 0.008652 0.004844 0.006943 0.000000 0.046062 0.000000
# 6 0.000000 0.000000 0.000000 0.049759 0.000000 0.063687
#
#
# Mechanical properties :
#
#
# Convention : Reuss Voigt Hill
#
# Bulk Modulus (GPa) = 26.56839 47.94859 37.25849
# Shear Modulus (GPa) = 16.23378 25.74895 20.99136
#
# Velocity S-wave (km/s) = 2.76466 3.48186 3.14378
# Velocity P-wave (km/s) = 4.76448 6.22415 5.54258
#
# Compressibility (1/GPa) = 0.03763871
#
# Stress axis : x y z
#
# Youngs Moduli (GPa) = 58.26565 34.74749 76.40965
#
# Poissons Ratio (x) = -0.03358 0.12746
# Poissons Ratio (y) = -0.05631 0.76360
# Poissons Ratio (z) = 0.09719 0.34725
#
# Static dielectric constant tensor:
#      x y z
#    x 1.820680 0.000000 -0.023340 
#    y 0.000000 1.799520 0.000000 
#    z -0.023340 0.000000 1.841670 
# 
# From -- ./inp_files/205750.got.cif
#   From: 2010.05.17/outbox.cif.g08.bks.cpg/sg15_103_cif.got.tgz:205750.got - 2010.06.03 18:47:42.
