data_PCOD9286144
_publ_section_title
;
Structure prediction by ZEFSAII (Michael W. Deem and Ramdas Pophale) SiO2 
 PCOD9286144
Probable space group: C 2/C
;
_chemical_formula_sum "Si O2"
_cell_formula_units_Z 48
_cell_length_a 12.163128
_cell_length_b 13.888689
_cell_length_c 15.416919
_cell_angle_alpha 90.000000
_cell_angle_beta 40.049996
_cell_angle_gamma 90.000000
_cell_volume 1675.802556
_symmetry_space_group_name_H-M "C 2/C"
_symmetry_group_IT_number 15
_symmetry_cell_setting 'monoclinic'
loop_
_space_group_symop_operation_xyz
x,y,z
-x,y,1/2-z
-x,-y,-z
x,-y,1/2+z
1/2+x,1/2+y,z
1/2-x,1/2+y,1/2-z
1/2-x,1/2-y,-z
1/2+x,1/2-y,1/2+z
loop_
_atom_site_type_symbol
_atom_site_label
_atom_site_fract_x
_atom_site_fract_y
_atom_site_fract_z
Si Si1 0.810405 0.644575 0.351465
Si Si2 0.198825 0.129620 0.644603
Si Si3 0.748774 0.674962 0.814276
Si Si4 0.619776 0.523496 0.008844
Si Si5 0.082025 0.640986 0.401979
Si Si6 0.168951 0.172805 0.114768
O O1 0.809301 0.756546 0.372557
O O2 0.689147 0.582296 0.485743
O O3 0.796078 0.630939 0.255919
O O4 0.000000 0.607579 0.250000
O O5 0.237346 0.130707 0.726472
O O6 0.000000 0.094980 0.750000
O O7 0.320093 0.889791 0.570222
O O8 0.760153 0.589720 0.875860
O O9 0.576219 0.741753 0.922673
O O10 0.878337 0.758550 0.771233
O O11 0.500000 0.500000 0.000000
O O12 0.570681 0.590613 0.119013
O O13 0.894543 0.601221 0.499820
O O14 0.250000 0.250000 0.000000
#
# Coordination Sequence:
#
# PCOD9286144 Si02
#       6
#     8   8   8   8   8   8
#     4  10  23  41  64  96 139 179 232 302 370 428
#     4  10  21  42  73  98 134 189 246 296 357 445
#     4   9  23  39  68 100 135 181 247 286 357 449
#     4  12  24  41  67 100 142 184 236 302 381 429
#     4   9  21  42  68  97 137 182 240 298 353 435
#     4  10  23  42  68 100 138 186 240 302 358 446
#
# _framework density 28.642992
#
# number of rings (size 3 to 8) (size 9 to 14) (size 15 to 20)
#    1.000    1.000    0.000    2.500    2.333    9.333 
#    0.000    7.500    0.000    1.000    0.000    0.000 
#    0.000    0.000    0.000    0.000    0.000    0.000 
#
# Total GULP energy -133614.734244 kJ/mol
# GULP energy per Si atom -5567.280593 kJ/mol
# Density = 2.857780 g / cm^3
# Si number density = 28.642992 Si / 1000 Ang^3
#
#
#
# Elastic Constant Matrix: (Units=GPa)
#
#
# Indices 1 2 3 4 5 6 
#
# 1 167.9608 -1.8763 24.3645 -0.0002 18.1494 0.0001
# 2 -1.8763 129.2154 17.7464 -0.0001 -7.2713 0.0001
# 3 24.3645 17.7464 136.4293 -0.0003 2.6602 0.0002
# 4 -0.0002 -0.0001 -0.0003 34.5263 0.0002 9.6796
# 5 18.1494 -7.2713 2.6602 0.0002 40.9624 -0.0001
# 6 0.0001 0.0001 0.0002 9.6796 -0.0001 31.7939
#
#
#
# Elastic Compliance Matrix: (Units=1/GPa)
#
#
# Indices 1 2 3 4 5 6 
#
# 1 0.006412 0.000090 -0.001103 0.000000 -0.002754 0.000000
# 2 0.000090 0.007970 -0.001081 0.000000 0.001445 0.000000
# 3 -0.001103 -0.001081 0.007671 0.000000 -0.000201 0.000000
# 4 0.000000 0.000000 0.000000 0.031666 0.000000 -0.009641
# 5 -0.002754 0.001445 -0.000201 0.000000 0.025902 0.000000
# 6 0.000000 0.000000 0.000000 -0.009641 0.000000 0.034388
#
#
# Mechanical properties :
#
#
# Convention : Reuss Voigt Hill
#
# Bulk Modulus (GPa) = 55.97542 57.11942 56.54742
# Shear Modulus (GPa) = 40.27261 47.68123 43.97692
#
# Velocity S-wave (km/s) = 3.75376 4.08447 3.92260
# Velocity P-wave (km/s) = 6.19455 6.49838 6.34829
#
# Compressibility (1/GPa) = 0.01786499
#
# Stress axis : x y z
#
# Youngs Moduli (GPa) = 155.94937 125.46892 130.35529
#
# Poissons Ratio (x) = -0.01125 0.14380
# Poissons Ratio (y) = -0.01398 0.14090
# Poissons Ratio (z) = 0.17203 0.13562
#
# Static dielectric constant tensor:
#      x y z
#    x 2.026660 0.000000 0.911560 
#    y 0.000000 2.209090 0.000000 
#    z 0.911560 0.000000 0.755970 
# 
# From -- ./inp_files/236507.got.cif
#   From: 2010.05.17/outbox.cif.g08.bks.cpg/sg15_119_cif.got.tgz:236507.got - 2010.06.03 18:47:42.
