data_PCOD9286984
_publ_section_title
;
Structure prediction by ZEFSAII (Michael W. Deem and Ramdas Pophale) SiO2 
 PCOD9286984
Probable space group: C 2/C
;
_chemical_formula_sum "Si O2"
_cell_formula_units_Z 40
_cell_length_a 14.391109
_cell_length_b 14.973160
_cell_length_c 9.409230
_cell_angle_alpha 90.000000
_cell_angle_beta 93.484702
_cell_angle_gamma 90.000000
_cell_volume 2023.755705
_symmetry_space_group_name_H-M "C 2/C"
_symmetry_group_IT_number 15
_symmetry_cell_setting 'monoclinic'
loop_
_space_group_symop_operation_xyz
x,y,z
-x,y,1/2-z
-x,-y,-z
x,-y,1/2+z
1/2+x,1/2+y,z
1/2-x,1/2+y,1/2-z
1/2-x,1/2-y,-z
1/2+x,1/2-y,1/2+z
loop_
_atom_site_type_symbol
_atom_site_label
_atom_site_fract_x
_atom_site_fract_y
_atom_site_fract_z
Si Si1 0.664327 0.620857 0.283500
Si Si2 0.000000 0.733413 0.750000
Si Si3 0.400649 0.533985 0.936536
Si Si4 0.500000 0.675095 0.750000
Si Si5 0.487021 0.895806 0.520687
Si Si6 0.868445 0.328825 0.726562
O O1 0.586640 0.698466 0.273020
O O2 0.657994 0.570446 0.435359
O O3 0.644107 0.544596 0.162541
O O4 0.762859 0.667535 0.263186
O O5 0.010120 0.667674 0.615943
O O6 0.436115 0.615815 0.844727
O O7 0.500000 0.500000 0.000000
O O8 0.419553 0.738396 0.677825
O O9 0.388693 0.890604 0.593950
O O10 0.568178 0.861821 0.635493
O O11 0.500000 0.000000 0.500000
#
# Coordination Sequence:
#
# PCOD9286984 Si02
#       6
#     8   4   8   4   8   8
#     4  12  26  42  68 109 133 179 229 281 335 408
#     4  12  23  43  74  96 138 178 220 279 343 404
#     4  12  22  44  70  96 140 179 223 278 343 403
#     4  10  21  45  70  88 138 180 216 283 339 402
#     4  10  23  46  66  91 135 179 222 273 337 398
#     4  10  25  43  65  97 136 174 226 278 334 395
#
# _framework density 19.765232000000001
#
# number of rings (size 3 to 8) (size 9 to 14) (size 15 to 20)
#    0.000    1.200    4.000    3.600    2.800    4.000 
#    3.600    0.000    0.000    0.000    0.000    0.000 
#    0.000    0.000    0.000    0.000    0.000    0.000 
#
# Total GULP energy -111492.031549 kJ/mol
# GULP energy per Si atom -5574.601577 kJ/mol
# Density = 1.972025 g / cm^3
# Si number density = 19.765232 Si / 1000 Ang^3
#
#
#
# Elastic Constant Matrix: (Units=GPa)
#
#
# Indices 1 2 3 4 5 6 
#
# 1 123.6950 23.8298 30.1295 0.0000 -25.7289 0.0000
# 2 23.8298 110.4055 47.9646 0.0000 -8.3706 0.0000
# 3 30.1295 47.9646 121.3564 0.0000 -16.8724 0.0000
# 4 0.0000 0.0000 0.0000 67.6345 0.0000 -20.7293
# 5 -25.7289 -8.3706 -16.8724 0.0000 24.3695 0.0000
# 6 0.0000 0.0000 0.0000 -20.7293 0.0000 24.4683
#
#
#
# Elastic Compliance Matrix: (Units=1/GPa)
#
#
# Indices 1 2 3 4 5 6 
#
# 1 0.010639 -0.001195 -0.000735 0.000000 0.010313 0.000000
# 2 -0.001195 0.011085 -0.004128 0.000000 -0.000312 0.000000
# 3 -0.000735 -0.004128 0.010788 0.000000 0.005275 0.000000
# 4 0.000000 0.000000 0.000000 0.019971 0.000000 0.016919
# 5 0.010313 -0.000312 0.005275 0.000000 0.055468 0.000000
# 6 0.000000 0.000000 0.000000 0.016919 0.000000 0.055203
#
#
# Mechanical properties :
#
#
# Convention : Reuss Voigt Hill
#
# Bulk Modulus (GPa) = 49.03115 62.14498 55.58807
# Shear Modulus (GPa) = 27.46228 40.19666 33.82947
#
# Velocity S-wave (km/s) = 3.73154 4.51455 4.14159
# Velocity P-wave (km/s) = 6.58988 7.66060 7.14532
#
# Compressibility (1/GPa) = 0.02039520
#
# Stress axis : x y z
#
# Youngs Moduli (GPa) = 93.99578 90.21090 92.69884
#
# Poissons Ratio (x) = 0.10780 0.06815
# Poissons Ratio (y) = 0.11232 0.38266
# Poissons Ratio (z) = 0.06911 0.37239
#
# Static dielectric constant tensor:
#      x y z
#    x 1.567530 0.000000 0.054600 
#    y 0.000000 1.721760 0.000000 
#    z 0.054600 0.000000 1.667150 
# 
# From -- ./inp_files/38002.got.cif
#   From: 2010.05.17/outbox.cif.g08.bks.cpg/sg15_20_cif.got.tgz:38002.got - 2010.06.03 18:47:42.
