data_PCOD9286353
_publ_section_title
;
Structure prediction by ZEFSAII (Michael W. Deem and Ramdas Pophale) SiO2 
 PCOD9286353
Probable space group: C 2/C
;
_chemical_formula_sum "Si O2"
_cell_formula_units_Z 52
_cell_length_a 12.774475
_cell_length_b 8.487409
_cell_length_c 21.493162
_cell_angle_alpha 90.000000
_cell_angle_beta 77.162306
_cell_angle_gamma 90.000000
_cell_volume 2272.085287
_symmetry_space_group_name_H-M "C 2/C"
_symmetry_group_IT_number 15
_symmetry_cell_setting 'monoclinic'
loop_
_space_group_symop_operation_xyz
x,y,z
-x,y,1/2-z
-x,-y,-z
x,-y,1/2+z
1/2+x,1/2+y,z
1/2-x,1/2+y,1/2-z
1/2-x,1/2-y,-z
1/2+x,1/2-y,1/2+z
loop_
_atom_site_type_symbol
_atom_site_label
_atom_site_fract_x
_atom_site_fract_y
_atom_site_fract_z
Si Si1 0.289285 0.998267 0.071297
Si Si2 0.047516 0.926894 0.633426
Si Si3 0.091750 0.174926 0.469129
Si Si4 0.173414 0.481316 0.788018
Si Si5 0.365818 0.333573 0.056293
Si Si6 0.500000 0.204529 0.750000
Si Si7 0.134813 0.863667 0.301376
O O1 0.338374 0.834203 0.039092
O O2 0.331989 0.003729 0.136998
O O3 0.161672 0.012945 0.095491
O O4 0.326436 0.164810 0.035499
O O5 0.055427 0.801669 0.687440
O O6 0.974455 0.851365 0.587471
O O7 0.982436 0.068461 0.673549
O O8 0.995706 0.179092 0.532272
O O9 0.157307 0.009988 0.466580
O O10 0.092401 0.603056 0.768979
O O11 0.141131 0.307281 0.771630
O O12 0.291338 0.519074 0.746851
O O13 0.324899 0.344940 0.132531
#
# Coordination Sequence:
#
# PCOD9286353 Si02
#       7
#     8   8   8   8   8   4   8
#     4  11  22  41  64  94 126 175 210 270 324 386
#     4  11  23  41  64  95 130 166 223 261 330 399
#     4  10  21  43  67  90 132 174 208 275 321 383
#     4  11  23  39  65  88 128 163 216 266 332 385
#     4   9  21  41  65  94 129 167 222 264 321 390
#     4  12  22  40  58  96 124 164 216 270 324 402
#     4  10  22  42  61  92 125 169 209 272 322 391
#
# _framework density 22.886465999999999
#
# number of rings (size 3 to 8) (size 9 to 14) (size 15 to 20)
#    0.000    1.538    1.538    4.154    2.154    2.462 
#    2.769    6.923    0.000    0.000    0.000    0.000 
#    0.000    0.000    0.000    0.000    0.000    0.000 
#
# Total GULP energy -145313.907605 kJ/mol
# GULP energy per Si atom -5588.996446 kJ/mol
# Density = 2.283438 g / cm^3
# Si number density = 22.886466 Si / 1000 Ang^3
#
#
#
# Elastic Constant Matrix: (Units=GPa)
#
#
# Indices 1 2 3 4 5 6 
#
# 1 85.7770 65.3470 16.4885 0.0000 -8.5256 0.0000
# 2 65.3470 215.9912 50.3948 0.0000 -29.5775 0.0000
# 3 16.4885 50.3948 80.9791 0.0000 -6.9587 0.0000
# 4 0.0000 0.0000 0.0000 41.3790 0.0000 -6.9602
# 5 -8.5256 -29.5775 -6.9587 0.0000 49.4020 0.0000
# 6 0.0000 0.0000 0.0000 -6.9602 0.0000 44.6355
#
#
#
# Elastic Compliance Matrix: (Units=1/GPa)
#
#
# Indices 1 2 3 4 5 6 
#
# 1 0.015156 -0.004541 -0.000272 0.000000 -0.000142 0.000000
# 2 -0.004541 0.007189 -0.003287 0.000000 0.003058 0.000000
# 3 -0.000272 -0.003287 0.014451 0.000000 0.000021 0.000000
# 4 0.000000 0.000000 0.000000 0.024818 0.000000 0.003870
# 5 -0.000142 0.003058 0.000021 0.000000 0.022051 0.000000
# 6 0.000000 0.000000 0.000000 0.003870 0.000000 0.023007
#
#
# Mechanical properties :
#
#
# Convention : Reuss Voigt Hill
#
# Bulk Modulus (GPa) = 48.55117 71.91198 60.23158
# Shear Modulus (GPa) = 38.53910 43.78444 41.16177
#
# Velocity S-wave (km/s) = 4.10802 4.37866 4.24550
# Velocity P-wave (km/s) = 6.61521 7.55334 7.09979
#
# Compressibility (1/GPa) = 0.02059683
#
# Stress axis : x y z
#
# Youngs Moduli (GPa) = 65.98036 139.09547 69.19756
#
# Poissons Ratio (x) = 0.63168 0.01882
# Poissons Ratio (y) = 0.29964 0.22743
# Poissons Ratio (z) = 0.01795 0.45715
#
# Static dielectric constant tensor:
#      x y z
#    x 1.875060 0.000000 0.048250 
#    y 0.000000 1.871490 0.000000 
#    z 0.048250 0.000000 1.838500 
# 
# From -- ./inp_files/242415.got.cif
#   From: 2010.05.17/outbox.cif.g08.bks.cpg/sg15_122_cif.got.tgz:242415.got - 2010.06.03 18:47:42.
