data_PCOD9286427
_publ_section_title
;
Structure prediction by ZEFSAII (Michael W. Deem and Ramdas Pophale) SiO2 
 PCOD9286427
Probable space group: C 2/C
;
_chemical_formula_sum "Si O2"
_cell_formula_units_Z 28
_cell_length_a 14.992789
_cell_length_b 17.221092
_cell_length_c 5.107366
_cell_angle_alpha 90.000000
_cell_angle_beta 115.588236
_cell_angle_gamma 90.000000
_cell_volume 1189.347334
_symmetry_space_group_name_H-M "C 2/C"
_symmetry_group_IT_number 15
_symmetry_cell_setting 'monoclinic'
loop_
_space_group_symop_operation_xyz
x,y,z
-x,y,1/2-z
-x,-y,-z
x,-y,1/2+z
1/2+x,1/2+y,z
1/2-x,1/2+y,1/2-z
1/2-x,1/2-y,-z
1/2+x,1/2-y,1/2+z
loop_
_atom_site_type_symbol
_atom_site_label
_atom_site_fract_x
_atom_site_fract_y
_atom_site_fract_z
Si Si1 0.108109 0.045335 0.553074
Si Si2 0.654083 0.049211 0.628648
Si Si3 0.680475 0.229919 0.662719
Si Si4 0.500000 0.328068 0.250000
O O1 0.064746 0.121195 0.630769
O O2 0.083925 0.025412 0.222746
O O3 0.226288 0.048777 0.714398
O O4 0.638516 0.141575 0.613200
O O5 0.620167 0.997781 0.830807
O O6 0.750000 0.250000 0.500000
O O7 0.581831 0.281121 0.515626
O O8 0.750000 0.250000 0.000000
#
# Coordination Sequence:
#
# PCOD9286427 Si02
#       4
#     8   8   8   4
#     4  10  22  38  65 101 135 172 214 276 352 422
#     4  10  21  43  68  95 134 182 225 278 336 402
#     4  12  27  46  69 103 142 180 229 283 343 408
#     4  12  26  44  70 100 144 176 230 280 350 400
#
# _framework density 23.542327
#
# number of rings (size 3 to 8) (size 9 to 14) (size 15 to 20)
#    0.000    1.143    2.857    2.571    8.000    3.429 
#    0.000    1.429    0.000    0.000    0.000    0.000 
#    0.000    0.000    0.000    0.000    0.000    0.000 
#
# Total GULP energy -78341.937267 kJ/mol
# GULP energy per Si atom -5595.852662 kJ/mol
# Density = 2.348874 g / cm^3
# Si number density = 23.542327 Si / 1000 Ang^3
#
#
#
# Elastic Constant Matrix: (Units=GPa)
#
#
# Indices 1 2 3 4 5 6 
#
# 1 66.1438 24.0479 46.3664 0.0000 -0.5150 0.0000
# 2 24.0479 184.4971 63.3605 0.0000 -9.0247 0.0000
# 3 46.3664 63.3605 156.9933 0.0000 -22.0443 0.0000
# 4 0.0000 0.0000 0.0000 34.2554 0.0000 7.8993
# 5 -0.5150 -9.0247 -22.0443 0.0000 36.1057 0.0000
# 6 0.0000 0.0000 0.0000 7.8993 0.0000 33.8334
#
#
#
# Elastic Compliance Matrix: (Units=1/GPa)
#
#
# Indices 1 2 3 4 5 6 
#
# 1 0.019539 -0.000659 -0.006003 0.000000 -0.003551 0.000000
# 2 -0.000659 0.006314 -0.002334 0.000000 0.000144 0.000000
# 3 -0.006003 -0.002334 0.009834 0.000000 0.005335 0.000000
# 4 0.000000 0.000000 0.000000 0.030854 0.000000 -0.007204
# 5 -0.003551 0.000144 0.005335 0.000000 0.030939 0.000000
# 6 0.000000 0.000000 0.000000 -0.007204 0.000000 0.031238
#
#
# Mechanical properties :
#
#
# Convention : Reuss Voigt Hill
#
# Bulk Modulus (GPa) = 56.51197 75.02041 65.76619
# Shear Modulus (GPa) = 32.76365 39.09620 35.92993
#
# Velocity S-wave (km/s) = 3.73458 4.07956 3.91088
# Velocity P-wave (km/s) = 6.53090 7.35702 6.95624
#
# Compressibility (1/GPa) = 0.01769537
#
# Stress axis : x y z
#
# Youngs Moduli (GPa) = 51.18034 158.36612 101.69125
#
# Poissons Ratio (x) = 0.10432 0.61049
# Poissons Ratio (y) = 0.03372 0.23731
# Poissons Ratio (z) = 0.30725 0.36957
#
# Static dielectric constant tensor:
#      x y z
#    x 1.972140 0.000000 0.038010 
#    y 0.000000 1.916230 0.000000 
#    z 0.038010 0.000000 1.916030 
# 
# From -- ./inp_files/9481.got.cif
#   From: 2010.05.17/outbox.cif.g08.bks.cpg/sg15_5_cif.got.tgz:9481.got - 2010.06.03 18:47:42.
