data_PCOD9286324
_publ_section_title
;
Structure prediction by ZEFSAII (Michael W. Deem and Ramdas Pophale) SiO2 
 PCOD9286324
Probable space group: C 2/C
;
_chemical_formula_sum "Si O2"
_cell_formula_units_Z 40
_cell_length_a 8.411789
_cell_length_b 24.797370
_cell_length_c 9.286767
_cell_angle_alpha 90.000000
_cell_angle_beta 71.633696
_cell_angle_gamma 90.000000
_cell_volume 1838.454517
_symmetry_space_group_name_H-M "C 2/C"
_symmetry_group_IT_number 15
_symmetry_cell_setting 'monoclinic'
loop_
_space_group_symop_operation_xyz
x,y,z
-x,y,1/2-z
-x,-y,-z
x,-y,1/2+z
1/2+x,1/2+y,z
1/2-x,1/2+y,1/2-z
1/2-x,1/2-y,-z
1/2+x,1/2-y,1/2+z
loop_
_atom_site_type_symbol
_atom_site_label
_atom_site_fract_x
_atom_site_fract_y
_atom_site_fract_z
Si Si1 0.704848 0.744611 0.180840
Si Si2 0.426042 0.078161 0.618050
Si Si3 0.663863 0.665294 0.632167
Si Si4 0.157588 0.535743 0.309097
Si Si5 0.154202 0.860013 0.814484
O O1 0.500000 0.748801 0.250000
O O2 0.787516 0.785317 0.274684
O O3 0.769314 0.684756 0.205774
O O4 0.750000 0.750000 0.000000
O O5 0.500000 0.094143 0.750000
O O6 0.324014 0.127028 0.583223
O O7 0.582839 0.060858 0.475922
O O8 0.300936 0.026433 0.669514
O O9 0.500000 0.639200 0.750000
O O10 0.615802 0.669019 0.477463
O O11 0.275762 0.579365 0.200169
O O12 0.000000 0.529615 0.250000
O O13 0.000000 0.864609 0.750000
#
# Coordination Sequence:
#
# PCOD9286324 Si02
#       5
#     8   8   8   8   8
#     4  11  26  46  69  99 132 174 222 276 339 402
#     4  10  23  40  68  97 131 170 221 271 328 396
#     4  12  25  43  65  98 132 173 222 271 335 396
#     4  10  21  43  66  97 129 173 221 269 328 394
#     4  11  25  43  65  94 133 173 218 274 328 392
#
# _framework density 21.757407000000001
#
# number of rings (size 3 to 8) (size 9 to 14) (size 15 to 20)
#    0.000    1.200    2.000    3.600    8.400    1.600 
#    0.000    2.000    0.000    0.000    0.000    0.000 
#    0.000    0.000    0.000    0.000    0.000    0.000 
#
# Total GULP energy -111450.711502 kJ/mol
# GULP energy per Si atom -5572.535575 kJ/mol
# Density = 2.170789 g / cm^3
# Si number density = 21.757407 Si / 1000 Ang^3
#
#
#
# Elastic Constant Matrix: (Units=GPa)
#
#
# Indices 1 2 3 4 5 6 
#
# 1 49.6073 7.5296 11.0413 0.0000 11.3304 0.0000
# 2 7.5296 78.3557 -4.2461 0.0000 9.0261 0.0000
# 3 11.0413 -4.2461 124.6523 0.0000 15.0319 0.0000
# 4 0.0000 0.0000 0.0000 0.4640 0.0000 -9.5147
# 5 11.3304 9.0261 15.0319 0.0000 30.8367 0.0000
# 6 0.0000 0.0000 0.0000 -9.5147 0.0000 11.1702
#
#
#
# Elastic Compliance Matrix: (Units=1/GPa)
#
#
# Indices 1 2 3 4 5 6 
#
# 1 0.022272 -0.001370 -0.001148 0.000000 -0.007222 0.000000
# 2 -0.001370 0.013404 0.001052 0.000000 -0.003933 0.000000
# 3 -0.001148 0.001052 0.008655 0.000000 -0.004105 0.000000
# 4 0.000000 0.000000 0.000000 -0.130880 0.000000 -0.111483
# 5 -0.007222 -0.003933 -0.004105 0.000000 0.038235 0.000000
# 6 0.000000 0.000000 0.000000 -0.111483 0.000000 -0.005436
#
#
# Mechanical properties :
#
#
# Convention : Reuss Voigt Hill
#
# Bulk Modulus (GPa) = 24.15630 31.25168 27.70399
# Shear Modulus (GPa) = -135.06819 24.38021 -55.34399
#
# Velocity S-wave (km/s) = -7.88758 3.35109 -5.04897
# Velocity P-wave (km/s) = 8.47498 5.41922 4.60746
#
# Compressibility (1/GPa) = 0.04139707
#
# Stress axis : x y z
#
# Youngs Moduli (GPa) = 44.90034 74.60425 115.54139
#
# Poissons Ratio (x) = 0.10224 0.13270
# Poissons Ratio (y) = 0.06153 -0.12158
# Poissons Ratio (z) = 0.05157 -0.07850
#
# Static dielectric constant tensor:
#      x y z
#    x 1.574400 0.000000 0.845780 
#    y 0.000000 1.903830 0.000000 
#    z 0.845780 0.000000 -0.820150 
# 
# From -- ./inp_files/23407.got.cif
#   From: 2010.05.17/outbox.cif.g08.bks.cpg/sg15_12_cif.got.tgz:23407.got - 2010.06.03 18:47:42.
