data_PCOD9286281
_publ_section_title
;
Structure prediction by ZEFSAII (Michael W. Deem and Ramdas Pophale) SiO2 
 PCOD9286281
Probable space group: C 2/C
;
_chemical_formula_sum "Si O2"
_cell_formula_units_Z 44
_cell_length_a 7.657484
_cell_length_b 20.939253
_cell_length_c 12.046093
_cell_angle_alpha 90.000000
_cell_angle_beta 81.797744
_cell_angle_gamma 90.000000
_cell_volume 1911.736578
_symmetry_space_group_name_H-M "C 2/C"
_symmetry_group_IT_number 15
_symmetry_cell_setting 'monoclinic'
loop_
_space_group_symop_operation_xyz
x,y,z
-x,y,1/2-z
-x,-y,-z
x,-y,1/2+z
1/2+x,1/2+y,z
1/2-x,1/2+y,1/2-z
1/2-x,1/2-y,-z
1/2+x,1/2-y,1/2+z
loop_
_atom_site_type_symbol
_atom_site_label
_atom_site_fract_x
_atom_site_fract_y
_atom_site_fract_z
Si Si1 0.000000 0.211710 0.250000
Si Si2 0.032199 0.147110 0.616082
Si Si3 0.326952 0.227789 0.345163
Si Si4 0.720386 0.622752 0.063111
Si Si5 0.425019 0.096823 0.378768
Si Si6 0.814931 0.982878 0.460328
O O1 0.152315 0.251369 0.297556
O O2 0.111137 0.167508 0.155122
O O3 0.111978 0.216500 0.577715
O O4 0.156783 0.085017 0.599293
O O5 0.000000 0.153241 0.750000
O O6 0.865835 0.132800 0.550332
O O7 0.500000 0.218476 0.250000
O O8 0.283371 0.154095 0.379182
O O9 0.716214 0.548140 0.101958
O O10 0.929166 0.631853 0.056858
O O11 0.500000 0.082752 0.250000
O O12 0.338915 0.033853 0.438656
O O13 0.000000 0.000000 0.500000
#
# Coordination Sequence:
#
# PCOD9286281 Si02
#       6
#     4   8   8   8   8   8
#     4  12  22  42  76  98 128 188 232 284 338 408
#     4  10  24  44  63  98 141 178 224 281 338 406
#     4  10  21  43  65  99 134 174 232 279 338 401
#     4  11  24  40  70 100 131 181 226 276 347 401
#     4  11  22  42  67 103 139 172 231 287 331 414
#     4  10  23  41  66 100 134 184 224 272 348 400
#
# _framework density 23.015723000000001
#
# number of rings (size 3 to 8) (size 9 to 14) (size 15 to 20)
#    0.000    1.455    3.636    2.727    1.273    5.091 
#    6.545    0.000    0.000    0.000    0.000    0.000 
#    0.000    0.000    0.000    0.000    0.000    0.000 
#
# Total GULP energy -122622.572614 kJ/mol
# GULP energy per Si atom -5573.753301 kJ/mol
# Density = 2.296334 g / cm^3
# Si number density = 23.015723 Si / 1000 Ang^3
#
#
#
# Elastic Constant Matrix: (Units=GPa)
#
#
# Indices 1 2 3 4 5 6 
#
# 1 128.2675 -2.4258 20.9253 0.0000 24.3427 0.0000
# 2 -2.4258 95.6452 3.5907 0.0000 3.1016 0.0000
# 3 20.9253 3.5907 78.5706 0.0000 8.8625 0.0000
# 4 0.0000 0.0000 0.0000 19.4098 0.0000 1.6614
# 5 24.3427 3.1016 8.8625 0.0000 37.4497 0.0000
# 6 0.0000 0.0000 0.0000 1.6614 0.0000 30.0177
#
#
#
# Elastic Compliance Matrix: (Units=1/GPa)
#
#
# Indices 1 2 3 4 5 6 
#
# 1 0.009160 0.000481 -0.001834 0.000000 -0.005560 0.000000
# 2 0.000481 0.010521 -0.000488 0.000000 -0.001069 0.000000
# 3 -0.001834 -0.000488 0.013458 0.000000 -0.001952 0.000000
# 4 0.000000 0.000000 0.000000 0.051766 0.000000 -0.002865
# 5 -0.005560 -0.001069 -0.001952 0.000000 0.030867 0.000000
# 6 0.000000 0.000000 0.000000 -0.002865 0.000000 0.033472
#
#
# Mechanical properties :
#
#
# Convention : Reuss Voigt Hill
#
# Bulk Modulus (GPa) = 33.94900 38.51819 36.23360
# Shear Modulus (GPa) = 30.72297 36.06831 33.39564
#
# Velocity S-wave (km/s) = 3.65755 3.96298 3.81332
# Velocity P-wave (km/s) = 5.71133 6.14102 5.93007
#
# Compressibility (1/GPa) = 0.02945595
#
# Stress axis : x y z
#
# Youngs Moduli (GPa) = 109.17412 95.05239 74.30279
#
# Poissons Ratio (x) = -0.04576 0.13630
# Poissons Ratio (y) = -0.05256 0.03630
# Poissons Ratio (z) = 0.20026 0.04643
#
# Static dielectric constant tensor:
#      x y z
#    x 2.218530 0.000000 -0.013150 
#    y 0.000000 2.160020 0.000000 
#    z -0.013150 0.000000 1.958310 
# 
# From -- ./inp_files/78215.got.cif
#   From: 2010.05.17/outbox.cif.g08.bks.cpg/sg15_40_cif.got.tgz:78215.got - 2010.06.03 18:47:42.
