data_PCOD9286969
_publ_section_title
;
Structure prediction by ZEFSAII (Michael W. Deem and Ramdas Pophale) SiO2 
 PCOD9286969
Probable space group: C 2/C
;
_chemical_formula_sum "Si O2"
_cell_formula_units_Z 60
_cell_length_a 9.534110
_cell_length_b 18.424548
_cell_length_c 20.811661
_cell_angle_alpha 90.000000
_cell_angle_beta 131.818567
_cell_angle_gamma 90.000000
_cell_volume 2724.529639
_symmetry_space_group_name_H-M "C 2/C"
_symmetry_group_IT_number 15
_symmetry_cell_setting 'monoclinic'
loop_
_space_group_symop_operation_xyz
x,y,z
-x,y,1/2-z
-x,-y,-z
x,-y,1/2+z
1/2+x,1/2+y,z
1/2-x,1/2+y,1/2-z
1/2-x,1/2-y,-z
1/2+x,1/2-y,1/2+z
loop_
_atom_site_type_symbol
_atom_site_label
_atom_site_fract_x
_atom_site_fract_y
_atom_site_fract_z
Si Si1 0.944957 0.395634 0.093084
Si Si2 0.051584 0.364475 0.541688
Si Si3 0.157722 0.828493 0.455487
Si Si4 0.017968 0.917790 0.983316
Si Si5 0.775181 0.986355 0.679289
Si Si6 0.802651 0.392990 0.718201
Si Si7 0.000000 0.336577 0.250000
Si Si8 0.648281 0.245583 0.185327
O O1 0.121100 0.449322 0.134439
O O2 0.946897 0.379584 0.169709
O O3 0.961074 0.340860 0.036756
O O4 0.726616 0.415731 0.019110
O O5 0.193682 0.431491 0.599146
O O6 0.112492 0.302057 0.609817
O O7 0.833977 0.380735 0.495127
O O8 0.250000 0.750000 0.500000
O O9 0.030573 0.863597 0.472429
O O10 0.015401 0.805205 0.355837
O O11 0.861478 0.898872 0.883084
O O12 0.000000 0.000000 0.000000
O O13 0.747591 0.940495 0.735777
O O14 0.000000 0.005137 0.750000
O O15 0.833224 0.311040 0.751854
O O16 0.000000 0.419482 0.750000
O O17 0.163585 0.286913 0.272495
#
# Coordination Sequence:
#
# PCOD9286969 Si02
#       8
#     8   8   8   8   8   8   4   8
#     4  12  27  44  66 103 139 186 244 292 382 434
#     4  10  23  44  72 101 134 186 244 298 368 446
#     4  10  21  45  69 101 143 190 239 315 367 448
#     4  12  25  43  72 106 146 195 249 309 378 463
#     4  11  25  45  70 104 148 184 239 310 371 457
#     4  11  24  43  74 108 139 194 244 301 376 455
#     4  12  28  44  64 102 146 190 236 318 356 430
#     4  10  24  43  68  97 148 180 248 299 367 429
#
# _framework density 22.022148999999999
#
# number of rings (size 3 to 8) (size 9 to 14) (size 15 to 20)
#    0.000    1.067    1.333    5.200    8.400    5.867 
#    0.000    0.000    0.000    0.000    0.000    0.000 
#    0.000    0.000    0.000    0.000    0.000    0.000 
#
# Total GULP energy -167259.856520 kJ/mol
# GULP energy per Si atom -5575.328551 kJ/mol
# Density = 2.197203 g / cm^3
# Si number density = 22.022149 Si / 1000 Ang^3
#
#
#
# Elastic Constant Matrix: (Units=GPa)
#
#
# Indices 1 2 3 4 5 6 
#
# 1 116.0758 18.7745 43.9048 0.0000 23.9918 0.0000
# 2 18.7745 53.1144 31.1241 0.0000 1.7964 0.0000
# 3 43.9048 31.1241 137.8571 0.0000 7.7425 0.0000
# 4 0.0000 0.0000 0.0000 5.9155 0.0000 15.9728
# 5 23.9918 1.7964 7.7425 0.0000 60.5411 0.0000
# 6 0.0000 0.0000 0.0000 15.9728 0.0000 -14.8656
#
#
#
# Elastic Compliance Matrix: (Units=1/GPa)
#
#
# Indices 1 2 3 4 5 6 
#
# 1 0.010789 -0.002071 -0.002752 0.000000 -0.003862 0.000000
# 2 -0.002071 0.022095 -0.004370 0.000000 0.000724 0.000000
# 3 -0.002752 -0.004370 0.009114 0.000000 0.000055 0.000000
# 4 0.000000 0.000000 0.000000 0.043331 0.000000 0.046559
# 5 -0.003862 0.000724 0.000055 0.000000 0.018020 0.000000
# 6 0.000000 0.000000 0.000000 0.046559 0.000000 -0.017243
#
#
# Mechanical properties :
#
#
# Convention : Reuss Voigt Hill
#
# Bulk Modulus (GPa) = 42.34746 54.96154 48.65450
# Shear Modulus (GPa) = 44.49928 24.53446 34.51687
#
# Velocity S-wave (km/s) = 4.50005 3.34141 3.96330
# Velocity P-wave (km/s) = 6.80234 6.31651 6.56392
#
# Compressibility (1/GPa) = 0.02361416
#
# Stress axis : x y z
#
# Youngs Moduli (GPa) = 92.68641 45.25859 109.72453
#
# Poissons Ratio (x) = 0.09371 0.30193
# Poissons Ratio (y) = 0.19191 0.47946
# Poissons Ratio (z) = 0.25505 0.19777
#
# Static dielectric constant tensor:
#      x y z
#    x 1.918770 0.000000 0.013790 
#    y 0.000000 1.867670 0.000000 
#    z 0.013790 0.000000 1.945390 
# 
# From -- ./inp_files/234081.got.cif
#   From: 2010.05.17/outbox.cif.g08.bks.cpg/sg15_118_cif.got.tgz:234081.got - 2010.06.03 18:47:42.
