data_PCOD9286753
_publ_section_title
;
Structure prediction by ZEFSAII (Michael W. Deem and Ramdas Pophale) SiO2 
 PCOD9286753
Probable space group: C 2/C
;
_chemical_formula_sum "Si O2"
_cell_formula_units_Z 52
_cell_length_a 11.725770
_cell_length_b 10.524197
_cell_length_c 20.082677
_cell_angle_alpha 90.000000
_cell_angle_beta 114.801094
_cell_angle_gamma 90.000000
_cell_volume 2249.715061
_symmetry_space_group_name_H-M "C 2/C"
_symmetry_group_IT_number 15
_symmetry_cell_setting 'monoclinic'
loop_
_space_group_symop_operation_xyz
x,y,z
-x,y,1/2-z
-x,-y,-z
x,-y,1/2+z
1/2+x,1/2+y,z
1/2-x,1/2+y,1/2-z
1/2-x,1/2-y,-z
1/2+x,1/2-y,1/2+z
loop_
_atom_site_type_symbol
_atom_site_label
_atom_site_fract_x
_atom_site_fract_y
_atom_site_fract_z
Si Si1 0.424274 0.110326 0.446994
Si Si2 0.500000 0.860369 0.250000
Si Si3 0.503682 0.556956 0.604063
Si Si4 0.545664 0.106706 0.190591
Si Si5 0.763869 0.203140 0.779662
Si Si6 0.063179 0.812566 0.545860
Si Si7 0.732737 0.597955 0.866332
O O1 0.494593 0.141299 0.393890
O O2 0.439231 0.227977 0.499930
O O3 0.500000 0.000000 0.500000
O O4 0.295320 0.038346 0.399437
O O5 0.370292 0.788868 0.218779
O O6 0.511598 0.959640 0.191471
O O7 0.634181 0.631930 0.648984
O O8 0.540744 0.409646 0.600854
O O9 0.429473 0.601977 0.519111
O O10 0.407632 0.590149 0.639596
O O11 0.500000 0.163828 0.250000
O O12 0.687260 0.156732 0.225597
O O13 0.763170 0.125413 0.710998
O O14 0.179998 0.714832 0.583445
#
# Coordination Sequence:
#
# PCOD9286753 Si02
#       7
#     8   4   8   8   8   8   8
#     4  10  21  44  67  99 146 187 238 282 363 434
#     4  10  26  46  68 100 142 188 226 304 362 426
#     4  11  24  43  67 104 139 180 237 296 346 431
#     4  10  21  44  71  98 137 185 233 292 355 417
#     4  12  24  44  72 105 136 182 246 293 364 427
#     4  10  24  44  65 100 144 187 233 278 366 431
#     4  11  23  43  70 102 137 187 234 295 352 426
#
# _framework density 23.114037
#
# number of rings (size 3 to 8) (size 9 to 14) (size 15 to 20)
#    0.462    0.923    3.077    1.846    2.154    0.615 
#   13.846    0.000    0.000    0.000    0.000    0.000 
#    0.000    0.000    0.000    0.000    0.000    0.000 
#
# Total GULP energy -144838.855458 kJ/mol
# GULP energy per Si atom -5570.725210 kJ/mol
# Density = 2.306143 g / cm^3
# Si number density = 23.114037 Si / 1000 Ang^3
#
#
#
# Elastic Constant Matrix: (Units=GPa)
#
#
# Indices 1 2 3 4 5 6 
#
# 1 169.6496 48.2004 33.9648 0.0000 11.0336 0.0000
# 2 48.2004 76.9131 10.5730 0.0000 -1.3287 0.0000
# 3 33.9648 10.5730 86.9971 0.0000 -2.4086 0.0000
# 4 0.0000 0.0000 0.0000 33.1385 0.0000 1.9893
# 5 11.0336 -1.3287 -2.4086 0.0000 22.9101 0.0000
# 6 0.0000 0.0000 0.0000 1.9893 0.0000 22.4842
#
#
#
# Elastic Compliance Matrix: (Units=1/GPa)
#
#
# Indices 1 2 3 4 5 6 
#
# 1 0.008079 -0.004769 -0.002698 0.000000 -0.004451 0.000000
# 2 -0.004769 0.016046 0.000001 0.000000 0.003228 0.000000
# 3 -0.002698 0.000001 0.012620 0.000000 0.002626 0.000000
# 4 0.000000 0.000000 0.000000 0.030337 0.000000 -0.002684
# 5 -0.004451 0.003228 0.002626 0.000000 0.046256 0.000000
# 6 0.000000 0.000000 0.000000 -0.002684 0.000000 0.044713
#
#
# Mechanical properties :
#
#
# Convention : Reuss Voigt Hill
#
# Bulk Modulus (GPa) = 45.84202 57.67070 51.75636
# Shear Modulus (GPa) = 27.73850 31.76135 29.74993
#
# Velocity S-wave (km/s) = 3.46796 3.71093 3.59150
# Velocity P-wave (km/s) = 5.99264 6.58529 6.29594
#
# Compressibility (1/GPa) = 0.02181405
#
# Stress axis : x y z
#
# Youngs Moduli (GPa) = 123.77627 62.32085 79.23636
#
# Poissons Ratio (x) = 0.29721 0.21377
# Poissons Ratio (y) = 0.59030 -0.00009
# Poissons Ratio (z) = 0.33393 -0.00007
#
# Static dielectric constant tensor:
#      x y z
#    x 1.852990 0.000000 -0.002490 
#    y 0.000000 1.971410 0.000000 
#    z -0.002490 0.000000 1.891290 
# 
# From -- ./inp_files/237694.got.cif
#   From: 2010.05.17/outbox.cif.g08.bks.cpg/sg15_119_cif.got.tgz:237694.got - 2010.06.03 18:47:42.
