data_PCOD9286247
_publ_section_title
;
Structure prediction by ZEFSAII (Michael W. Deem and Ramdas Pophale) SiO2 
 PCOD9286247
Probable space group: C 2/C
;
_chemical_formula_sum "Si O2"
_cell_formula_units_Z 40
_cell_length_a 10.613527
_cell_length_b 9.175102
_cell_length_c 19.219431
_cell_angle_alpha 90.000000
_cell_angle_beta 84.449006
_cell_angle_gamma 90.000000
_cell_volume 1862.815066
_symmetry_space_group_name_H-M "C 2/C"
_symmetry_group_IT_number 15
_symmetry_cell_setting 'monoclinic'
loop_
_space_group_symop_operation_xyz
x,y,z
-x,y,1/2-z
-x,-y,-z
x,-y,1/2+z
1/2+x,1/2+y,z
1/2-x,1/2+y,1/2-z
1/2-x,1/2-y,-z
1/2+x,1/2-y,1/2+z
loop_
_atom_site_type_symbol
_atom_site_label
_atom_site_fract_x
_atom_site_fract_y
_atom_site_fract_z
Si Si1 0.204978 0.873303 0.405236
Si Si2 0.852276 0.294917 0.259809
Si Si3 0.083212 0.356805 0.001567
Si Si4 0.496189 0.428129 0.923825
Si Si5 0.871238 0.963605 0.293754
O O1 0.295143 0.835597 0.337608
O O2 0.113204 0.736498 0.430066
O O3 0.282817 0.899209 0.471702
O O4 0.130590 0.018226 0.389156
O O5 0.850864 0.120077 0.258490
O O6 0.753372 0.366514 0.211177
O O7 0.000000 0.340715 0.250000
O O8 0.000000 0.500000 0.000000
O O9 0.023280 0.240820 0.059226
O O10 0.399680 0.496461 0.873065
O O11 0.500000 0.500000 0.000000
O O12 0.000000 0.900540 0.250000
#
# Coordination Sequence:
#
# PCOD9286247 Si02
#       5
#     8   8   8   8   8
#     4  10  21  43  64  97 138 176 225 282 343 405
#     4  11  25  44  67  99 139 186 230 280 341 414
#     4  10  22  41  68 100 135 175 226 288 344 406
#     4  10  21  43  71  98 136 178 222 284 345 401
#     4  11  23  46  68  95 141 183 228 284 341 406
#
# _framework density 21.472877
#
# number of rings (size 3 to 8) (size 9 to 14) (size 15 to 20)
#    0.000    1.600    4.000    0.000    0.000    3.200 
#    7.200    0.000    0.000    0.000    0.000    0.000 
#    0.000    0.000    0.000    0.000    0.000    0.000 
#
# Total GULP energy -111555.047172 kJ/mol
# GULP energy per Si atom -5577.752359 kJ/mol
# Density = 2.142400 g / cm^3
# Si number density = 21.472877 Si / 1000 Ang^3
#
#
#
# Elastic Constant Matrix: (Units=GPa)
#
#
# Indices 1 2 3 4 5 6 
#
# 1 134.8125 74.4830 38.1205 0.0000 5.8893 0.0000
# 2 74.4830 83.4465 39.8690 0.0000 20.8826 0.0000
# 3 38.1205 39.8690 131.6167 0.0000 7.0397 0.0000
# 4 0.0000 0.0000 0.0000 30.3906 0.0000 0.2135
# 5 5.8893 20.8826 7.0397 0.0000 47.5485 0.0000
# 6 0.0000 0.0000 0.0000 0.2135 0.0000 42.3979
#
#
#
# Elastic Compliance Matrix: (Units=1/GPa)
#
#
# Indices 1 2 3 4 5 6 
#
# 1 0.015512 -0.014903 -0.000228 0.000000 0.004657 0.000000
# 2 -0.014903 0.029963 -0.004188 0.000000 -0.010693 0.000000
# 3 -0.000228 -0.004188 0.008903 0.000000 0.000549 0.000000
# 4 0.000000 0.000000 0.000000 0.032906 0.000000 -0.000166
# 5 0.004657 -0.010693 0.000549 0.000000 0.025069 0.000000
# 6 0.000000 0.000000 0.000000 -0.000166 0.000000 0.023587
#
#
# Mechanical properties :
#
#
# Convention : Reuss Voigt Hill
#
# Bulk Modulus (GPa) = 63.52780 72.75783 68.14282
# Shear Modulus (GPa) = 27.80498 37.22761 32.51629
#
# Velocity S-wave (km/s) = 3.60236 4.16829 3.89562
# Velocity P-wave (km/s) = 6.85215 7.55800 7.21372
#
# Compressibility (1/GPa) = 0.01574114
#
# Stress axis : x y z
#
# Youngs Moduli (GPa) = 64.46489 33.37493 112.32207
#
# Poissons Ratio (x) = 0.49738 0.02557
# Poissons Ratio (y) = 0.96071 0.47039
# Poissons Ratio (z) = 0.01468 0.13977
#
# Static dielectric constant tensor:
#      x y z
#    x 1.864150 0.000000 -0.040300 
#    y 0.000000 1.817300 0.000000 
#    z -0.040300 0.000000 1.859520 
# 
# From -- ./inp_files/195165.got.cif
#   From: 2010.05.17/outbox.cif.g08.bks.cpg/sg15_98_cif.got.tgz:195165.got - 2010.06.03 18:47:42.
