data_PCOD9286406
_publ_section_title
;
Structure prediction by ZEFSAII (Michael W. Deem and Ramdas Pophale) SiO2 
 PCOD9286406
Probable space group: C 2/C
;
_chemical_formula_sum "Si O2"
_cell_formula_units_Z 40
_cell_length_a 5.217057
_cell_length_b 12.487953
_cell_length_c 26.316730
_cell_angle_alpha 90.000000
_cell_angle_beta 109.753542
_cell_angle_gamma 90.000000
_cell_volume 1613.652343
_symmetry_space_group_name_H-M "C 2/C"
_symmetry_group_IT_number 15
_symmetry_cell_setting 'monoclinic'
loop_
_space_group_symop_operation_xyz
x,y,z
-x,y,1/2-z
-x,-y,-z
x,-y,1/2+z
1/2+x,1/2+y,z
1/2-x,1/2+y,1/2-z
1/2-x,1/2-y,-z
1/2+x,1/2-y,1/2+z
loop_
_atom_site_type_symbol
_atom_site_label
_atom_site_fract_x
_atom_site_fract_y
_atom_site_fract_z
Si Si1 0.684575 0.429278 0.451184
Si Si2 0.196913 0.600330 0.714960
Si Si3 0.152346 0.284731 0.393135
Si Si4 0.390949 0.059820 0.372524
Si Si5 0.096338 0.140135 0.049601
O O1 0.411100 0.363975 0.415985
O O2 0.844512 0.465911 0.411401
O O3 0.633521 0.549801 0.470371
O O4 0.761211 0.365518 0.507884
O O5 0.500000 0.635007 0.750000
O O6 0.210093 0.485766 0.687411
O O7 0.000000 0.596120 0.750000
O O8 0.054898 0.673980 0.663089
O O9 0.250955 0.168988 0.380100
O O10 0.014455 0.252785 0.437981
O O11 0.706753 0.092027 0.393944
#
# Coordination Sequence:
#
# PCOD9286406 Si02
#       5
#     8   8   8   8   8
#     4  10  21  43  68 109 152 192 225 291 368 447
#     4  12  29  53  75 101 144 191 248 320 370 419
#     4  11  25  45  72 105 142 190 246 300 362 448
#     4  11  25  45  71 105 144 189 244 302 359 450
#     4  10  22  40  73 106 150 187 237 286 368 448
#
# _framework density 24.788487
#
# number of rings (size 3 to 8) (size 9 to 14) (size 15 to 20)
#    0.000    1.200    2.000    2.400    8.400    1.600 
#    0.000    0.000    0.000    0.000    0.000    0.000 
#    0.000    0.000    0.000    0.000    0.000    0.000 
#
# Total GULP energy -111819.477618 kJ/mol
# GULP energy per Si atom -5590.973881 kJ/mol
# Density = 2.473207 g / cm^3
# Si number density = 24.788487 Si / 1000 Ang^3
#
#
#
# Elastic Constant Matrix: (Units=GPa)
#
#
# Indices 1 2 3 4 5 6 
#
# 1 98.7080 29.8560 42.5331 0.0000 -5.7100 0.0000
# 2 29.8560 149.0069 42.9946 0.0000 1.3371 0.0000
# 3 42.5331 42.9946 128.3553 0.0000 3.7494 0.0000
# 4 0.0000 0.0000 0.0000 9.1416 0.0000 0.6317
# 5 -5.7100 1.3371 3.7494 0.0000 57.0685 0.0000
# 6 0.0000 0.0000 0.0000 0.6317 0.0000 38.5124
#
#
#
# Elastic Compliance Matrix: (Units=1/GPa)
#
#
# Indices 1 2 3 4 5 6 
#
# 1 0.012202 -0.001416 -0.003613 0.000000 0.001491 0.000000
# 2 -0.001416 0.007593 -0.002069 0.000000 -0.000184 0.000000
# 3 -0.003613 -0.002069 0.009709 0.000000 -0.000951 0.000000
# 4 0.000000 0.000000 0.000000 0.109515 0.000000 -0.001796
# 5 0.001491 -0.000184 -0.000951 0.000000 0.017739 0.000000
# 6 0.000000 0.000000 0.000000 -0.001796 0.000000 0.025995
#
#
# Mechanical properties :
#
#
# Convention : Reuss Voigt Hill
#
# Bulk Modulus (GPa) = 65.32005 67.42640 66.37322
# Shear Modulus (GPa) = 24.74620 38.32359 31.53490
#
# Velocity S-wave (km/s) = 3.16301 3.93622 3.57060
# Velocity P-wave (km/s) = 6.30457 6.92229 6.62064
#
# Compressibility (1/GPa) = 0.01530924
#
# Stress axis : x y z
#
# Youngs Moduli (GPa) = 81.95290 131.69279 102.99895
#
# Poissons Ratio (x) = 0.18646 0.37211
# Poissons Ratio (y) = 0.11603 0.21310
# Poissons Ratio (z) = 0.29607 0.27247
#
# Static dielectric constant tensor:
#      x y z
#    x 2.092060 0.000000 -0.020060 
#    y 0.000000 1.991540 0.000000 
#    z -0.020060 0.000000 1.934060 
# 
# From -- ./inp_files/260480.got.cif
#   From: 2010.05.17/outbox.cif.g08.bks.cpg/sg15_131_cif.got.tgz:260480.got - 2010.06.03 18:47:42.
