data_PCOD9286140
_publ_section_title
;
Structure prediction by ZEFSAII (Michael W. Deem and Ramdas Pophale) SiO2 
 PCOD9286140
Probable space group: C 2/C
;
_chemical_formula_sum "Si O2"
_cell_formula_units_Z 36
_cell_length_a 5.002840
_cell_length_b 22.409912
_cell_length_c 12.259845
_cell_angle_alpha 90.000000
_cell_angle_beta 94.284851
_cell_angle_gamma 90.000000
_cell_volume 1370.648699
_symmetry_space_group_name_H-M "C 2/C"
_symmetry_group_IT_number 15
_symmetry_cell_setting 'monoclinic'
loop_
_space_group_symop_operation_xyz
x,y,z
-x,y,1/2-z
-x,-y,-z
x,-y,1/2+z
1/2+x,1/2+y,z
1/2-x,1/2+y,1/2-z
1/2-x,1/2-y,-z
1/2+x,1/2-y,1/2+z
loop_
_atom_site_type_symbol
_atom_site_label
_atom_site_fract_x
_atom_site_fract_y
_atom_site_fract_z
Si Si1 0.865950 0.609864 0.892310
Si Si2 0.945046 0.782626 0.091184
Si Si3 0.121108 0.973904 0.116786
Si Si4 0.000000 0.921201 0.750000
Si Si5 0.673087 0.837213 0.580380
O O1 0.744932 0.673313 0.844307
O O2 0.633587 0.564649 0.856202
O O3 0.132382 0.571983 0.876121
O O4 0.917929 0.628458 0.020754
O O5 0.105234 0.724901 0.138765
O O6 0.154715 0.819812 0.022966
O O7 0.750000 0.750000 0.000000
O O8 0.181914 0.032429 0.188330
O O9 0.000000 0.000000 0.000000
O O10 0.833153 0.880369 0.663545
#
# Coordination Sequence:
#
# PCOD9286140 Si02
#       5
#     8   8   8   4   8
#     4  11  21  44  71  99 145 198 245 292 384 443
#     4   9  19  40  76 102 138 196 248 307 395 439
#     4  12  25  43  70 104 150 202 240 310 369 443
#     4  12  26  44  72 118 150 196 268 308 372 456
#     4  10  21  42  73 111 144 193 253 320 375 457
#
# _framework density 26.264937
#
# number of rings (size 3 to 8) (size 9 to 14) (size 15 to 20)
#    0.000    1.333    4.444    0.667    0.000    0.889 
#    8.000    0.000   14.667    0.000    0.000    0.000 
#    0.000    0.000    0.000    0.000    0.000    0.000 
#
# Total GULP energy -100547.985645 kJ/mol
# GULP energy per Si atom -5585.999202 kJ/mol
# Density = 2.620516 g / cm^3
# Si number density = 26.264937 Si / 1000 Ang^3
#
#
#
# Elastic Constant Matrix: (Units=GPa)
#
#
# Indices 1 2 3 4 5 6 
#
# 1 164.2073 94.1581 33.3595 0.0000 13.4004 0.0000
# 2 94.1581 254.0311 77.3811 0.0000 7.1158 0.0000
# 3 33.3595 77.3811 85.9555 0.0000 9.1612 0.0000
# 4 0.0000 0.0000 0.0000 39.7641 0.0000 10.2928
# 5 13.4004 7.1158 9.1612 0.0000 34.8641 0.0000
# 6 0.0000 0.0000 0.0000 10.2928 0.0000 50.0869
#
#
#
# Elastic Compliance Matrix: (Units=1/GPa)
#
#
# Indices 1 2 3 4 5 6 
#
# 1 0.007945 -0.002778 -0.000327 0.000000 -0.002401 0.000000
# 2 -0.002778 0.006396 -0.004789 0.000000 0.001021 0.000000
# 3 -0.000327 -0.004789 0.016414 0.000000 -0.003210 0.000000
# 4 0.000000 0.000000 0.000000 0.026561 0.000000 -0.005458
# 5 -0.002401 0.001021 -0.003210 0.000000 0.030241 0.000000
# 6 0.000000 0.000000 0.000000 -0.005458 0.000000 0.021087
#
#
# Mechanical properties :
#
#
# Convention : Reuss Voigt Hill
#
# Bulk Modulus (GPa) = 66.80818 101.55459 84.18139
# Shear Modulus (GPa) = 38.63342 44.89601 41.76472
#
# Velocity S-wave (km/s) = 3.83941 4.13892 3.99197
# Velocity P-wave (km/s) = 6.71909 7.84794 7.30536
#
# Compressibility (1/GPa) = 0.01496823
#
# Stress axis : x y z
#
# Youngs Moduli (GPa) = 125.86234 156.33643 60.92341
#
# Poissons Ratio (x) = 0.43433 0.01990
# Poissons Ratio (y) = 0.34967 0.29176
# Poissons Ratio (z) = 0.04111 0.74869
#
# Static dielectric constant tensor:
#      x y z
#    x 1.995850 0.000000 0.190710 
#    y 0.000000 2.056350 0.000000 
#    z 0.190710 0.000000 2.283060 
# 
# From -- ./inp_files/128786.got.cif
#   From: 2010.05.17/outbox.cif.g08.bks.cpg/sg15_65_cif.got.tgz:128786.got - 2010.06.03 18:47:42.
