data_PCOD9286322
_publ_section_title
;
Structure prediction by ZEFSAII (Michael W. Deem and Ramdas Pophale) SiO2 
 PCOD9286322
Probable space group: C 2/C
;
_chemical_formula_sum "Si O2"
_cell_formula_units_Z 56
_cell_length_a 10.939340
_cell_length_b 16.677354
_cell_length_c 14.763194
_cell_angle_alpha 90.000000
_cell_angle_beta 66.074914
_cell_angle_gamma 90.000000
_cell_volume 2461.960782
_symmetry_space_group_name_H-M "C 2/C"
_symmetry_group_IT_number 15
_symmetry_cell_setting 'monoclinic'
loop_
_space_group_symop_operation_xyz
x,y,z
-x,y,1/2-z
-x,-y,-z
x,-y,1/2+z
1/2+x,1/2+y,z
1/2-x,1/2+y,1/2-z
1/2-x,1/2-y,-z
1/2+x,1/2-y,1/2+z
loop_
_atom_site_type_symbol
_atom_site_label
_atom_site_fract_x
_atom_site_fract_y
_atom_site_fract_z
Si Si1 0.351058 0.823006 0.301562
Si Si2 0.500000 0.464196 0.750000
Si Si3 0.500000 0.156297 0.250000
Si Si4 0.615311 0.386747 0.441229
Si Si5 0.855532 0.321188 0.972676
Si Si6 0.234948 0.849609 0.722545
Si Si7 0.103268 0.702579 0.500699
Si Si8 0.344453 0.463714 0.455554
O O1 0.500000 0.856700 0.250000
O O2 0.223311 0.879849 0.327541
O O3 0.322610 0.741889 0.253219
O O4 0.351431 0.803799 0.409814
O O5 0.605089 0.405998 0.770321
O O6 0.599184 0.517349 0.660527
O O7 0.550492 0.196516 0.142541
O O8 0.645131 0.124236 0.245229
O O9 0.592473 0.296497 0.480486
O O10 0.470898 0.420242 0.462244
O O11 0.676787 0.450440 0.491999
O O12 0.750000 0.250000 0.000000
O O13 0.779723 0.405639 0.993567
O O14 0.952662 0.326677 0.029431
O O15 0.303327 0.843397 0.601331
#
# Coordination Sequence:
#
# PCOD9286322 Si02
#       8
#     8   4   4   8   8   8   8   8
#     4  11  22  37  67 103 128 176 226 283 336 415
#     4  12  24  41  70 103 132 174 230 278 344 427
#     4  10  26  43  66 101 136 178 232 274 344 411
#     4  10  22  42  62  91 135 174 223 282 343 408
#     4  11  24  44  69  97 135 183 225 289 342 411
#     4  10  22  42  69  98 133 182 221 281 338 412
#     4  10  21  43  66  96 135 176 228 279 342 409
#     4  11  25  41  67  96 134 181 226 285 349 411
#
# _framework density 22.746098
#
# number of rings (size 3 to 8) (size 9 to 14) (size 15 to 20)
#    0.000    1.429    2.143    3.429    6.000    1.714 
#    1.286    6.429    0.000    0.000    0.000    0.000 
#    0.000    0.000    0.000    0.000    0.000    0.000 
#
# Total GULP energy -156051.870878 kJ/mol
# GULP energy per Si atom -5573.281103 kJ/mol
# Density = 2.269433 g / cm^3
# Si number density = 22.746098 Si / 1000 Ang^3
#
#
#
# Elastic Constant Matrix: (Units=GPa)
#
#
# Indices 1 2 3 4 5 6 
#
# 1 141.6793 25.0376 -6.6697 0.0000 -5.5846 0.0000
# 2 25.0376 69.6944 16.6023 0.0000 -4.2069 0.0000
# 3 -6.6697 16.6023 55.3336 0.0000 -10.0564 0.0000
# 4 0.0000 0.0000 0.0000 13.0720 0.0000 -4.7457
# 5 -5.5846 -4.2069 -10.0564 0.0000 39.2285 0.0000
# 6 0.0000 0.0000 0.0000 -4.7457 0.0000 -22.4134
#
#
#
# Elastic Compliance Matrix: (Units=1/GPa)
#
#
# Indices 1 2 3 4 5 6 
#
# 1 0.007781 -0.003227 0.002144 0.000000 0.001311 0.000000
# 2 -0.003227 0.016800 -0.005439 0.000000 -0.000052 0.000000
# 3 0.002144 -0.005439 0.020885 0.000000 0.005076 0.000000
# 4 0.000000 0.000000 0.000000 0.071038 0.000000 -0.015041
# 5 0.001311 -0.000052 0.005076 0.000000 0.026974 0.000000
# 6 0.000000 0.000000 0.000000 -0.015041 0.000000 -0.041431
#
#
# Mechanical properties :
#
#
# Convention : Reuss Voigt Hill
#
# Bulk Modulus (GPa) = 30.84227 37.40532 34.12380
# Shear Modulus (GPa) = 39.71442 21.42656 30.57049
#
# Velocity S-wave (km/s) = 4.18304 3.07251 3.67002
# Velocity P-wave (km/s) = 6.07612 5.39143 5.74398
#
# Compressibility (1/GPa) = 0.03242303
#
# Stress axis : x y z
#
# Youngs Moduli (GPa) = 128.51607 59.52305 47.88085
#
# Poissons Ratio (x) = 0.19208 -0.10268
# Poissons Ratio (y) = 0.41473 0.26043
# Poissons Ratio (z) = -0.27560 0.32376
#
# Static dielectric constant tensor:
#      x y z
#    x 1.959540 0.000000 0.009290 
#    y 0.000000 1.826120 0.000000 
#    z 0.009290 0.000000 1.973600 
# 
# From -- ./inp_files/145999.got.cif
#   From: 2010.05.17/outbox.cif.g08.bks.cpg/sg15_73_cif.got.tgz:145999.got - 2010.06.03 18:47:42.
