data_PCOD9286402
_publ_section_title
;
Structure prediction by ZEFSAII (Michael W. Deem and Ramdas Pophale) SiO2 
 PCOD9286402
Probable space group: C 2/C
;
_chemical_formula_sum "Si O2"
_cell_formula_units_Z 28
_cell_length_a 5.265497
_cell_length_b 19.946794
_cell_length_c 10.217838
_cell_angle_alpha 90.000000
_cell_angle_beta 96.007331
_cell_angle_gamma 90.000000
_cell_volume 1067.283978
_symmetry_space_group_name_H-M "C 2/C"
_symmetry_group_IT_number 15
_symmetry_cell_setting 'monoclinic'
loop_
_space_group_symop_operation_xyz
x,y,z
-x,y,1/2-z
-x,-y,-z
x,-y,1/2+z
1/2+x,1/2+y,z
1/2-x,1/2+y,1/2-z
1/2-x,1/2-y,-z
1/2+x,1/2-y,1/2+z
loop_
_atom_site_type_symbol
_atom_site_label
_atom_site_fract_x
_atom_site_fract_y
_atom_site_fract_z
Si Si1 0.832440 0.623734 0.608108
Si Si2 0.226441 0.982454 0.662598
Si Si3 0.500000 0.718350 0.750000
Si Si4 0.830772 0.340739 0.615867
O O1 0.760255 0.546827 0.570452
O O2 0.602255 0.671789 0.639319
O O3 0.000000 0.621703 0.750000
O O4 0.989821 0.656543 0.499949
O O5 0.500000 0.982852 0.750000
O O6 0.163552 0.908312 0.602036
O O7 0.000000 0.000155 0.750000
O O8 0.282120 0.765067 0.666448
O O9 0.000000 0.358475 0.750000
#
# Coordination Sequence:
#
# PCOD9286402 Si02
#       4
#     8   8   4   8
#     4  11  22  41  65  98 131 175 227 275 333 399
#     4  10  21  43  68 101 135 178 227 278 336 402
#     4  10  22  42  66  94 136 174 218 278 340 398
#     4   9  22  42  63  95 137 173 220 274 341 396
#
# _framework density 26.234817
#
# number of rings (size 3 to 8) (size 9 to 14) (size 15 to 20)
#    0.857    1.143    1.429    1.714    0.000    2.286 
#   10.286    8.571    0.000    0.000    0.000    0.000 
#    0.000    0.000    0.000    0.000    0.000    0.000 
#
# Total GULP energy -77994.521800 kJ/mol
# GULP energy per Si atom -5571.037271 kJ/mol
# Density = 2.617511 g / cm^3
# Si number density = 26.234817 Si / 1000 Ang^3
#
#
#
# Elastic Constant Matrix: (Units=GPa)
#
#
# Indices 1 2 3 4 5 6 
#
# 1 77.8437 13.5324 10.3094 0.0000 0.7832 0.0000
# 2 13.5324 200.7149 21.2086 0.0000 4.4821 0.0000
# 3 10.3094 21.2086 134.0610 0.0000 -9.1849 0.0000
# 4 0.0000 0.0000 0.0000 43.6055 0.0000 -8.4184
# 5 0.7832 4.4821 -9.1849 0.0000 29.8641 0.0000
# 6 0.0000 0.0000 0.0000 -8.4184 0.0000 -16.2447
#
#
#
# Elastic Compliance Matrix: (Units=1/GPa)
#
#
# Indices 1 2 3 4 5 6 
#
# 1 0.013108 -0.000775 -0.000920 0.000000 -0.000510 0.000000
# 2 -0.000775 0.005144 -0.000823 0.000000 -0.001005 0.000000
# 3 -0.000920 -0.000823 0.007835 0.000000 0.002558 0.000000
# 4 0.000000 0.000000 0.000000 0.020847 0.000000 -0.010804
# 5 -0.000510 -0.001005 0.002558 0.000000 0.034436 0.000000
# 6 0.000000 0.000000 0.000000 -0.010804 0.000000 -0.055960
#
#
# Mechanical properties :
#
#
# Convention : Reuss Voigt Hill
#
# Bulk Modulus (GPa) = 47.50498 55.85781 51.68140
# Shear Modulus (GPa) = 133.46049 35.94959 84.70504
#
# Velocity S-wave (km/s) = 7.14016 3.70577 5.68835
# Velocity P-wave (km/s) = 9.28024 6.29667 7.93003
#
# Compressibility (1/GPa) = 0.02105042
#
# Stress axis : x y z
#
# Youngs Moduli (GPa) = 76.28911 194.40694 127.62442
#
# Poissons Ratio (x) = 0.15069 0.11746
# Poissons Ratio (y) = 0.05913 0.10503
# Poissons Ratio (z) = 0.07021 0.16000
#
# Static dielectric constant tensor:
#      x y z
#    x 2.223120 0.000000 0.130790 
#    y 0.000000 2.373690 0.000000 
#    z 0.130790 0.000000 1.968480 
# 
# From -- ./inp_files/71613.got.cif
#   From: 2010.05.17/outbox.cif.g08.bks.cpg/sg15_36_cif.got.tgz:71613.got - 2010.06.03 18:47:42.
