data_PCOD9286815
_publ_section_title
;
Structure prediction by ZEFSAII (Michael W. Deem and Ramdas Pophale) SiO2 
 PCOD9286815
Probable space group: C 2/C
;
_chemical_formula_sum "Si O2"
_cell_formula_units_Z 40
_cell_length_a 12.456590
_cell_length_b 8.909578
_cell_length_c 22.455482
_cell_angle_alpha 90.000000
_cell_angle_beta 38.698413
_cell_angle_gamma 90.000000
_cell_volume 1558.160785
_symmetry_space_group_name_H-M "C 2/C"
_symmetry_group_IT_number 15
_symmetry_cell_setting 'monoclinic'
loop_
_space_group_symop_operation_xyz
x,y,z
-x,y,1/2-z
-x,-y,-z
x,-y,1/2+z
1/2+x,1/2+y,z
1/2-x,1/2+y,1/2-z
1/2-x,1/2-y,-z
1/2+x,1/2-y,1/2+z
loop_
_atom_site_type_symbol
_atom_site_label
_atom_site_fract_x
_atom_site_fract_y
_atom_site_fract_z
Si Si1 0.699183 0.069292 0.172094
Si Si2 0.465839 0.640854 0.361866
Si Si3 0.368801 0.676339 0.529680
Si Si4 0.865479 0.796598 0.393035
Si Si5 0.814550 0.775247 0.177590
O O1 0.500000 0.021044 0.250000
O O2 0.694364 0.237240 0.145229
O O3 0.814554 0.992046 0.069407
O O4 0.762694 0.953009 0.197533
O O5 0.495914 0.675288 0.419374
O O6 0.308809 0.746912 0.412316
O O7 0.397455 0.474069 0.381234
O O8 0.638966 0.684435 0.253871
O O9 0.414632 0.751689 0.572391
O O10 0.750000 0.750000 0.500000
O O11 0.058832 0.732506 0.323898
#
# Coordination Sequence:
#
# PCOD9286815 Si02
#       5
#     8   8   8   8   8
#     4  10  21  44  69  98 143 186 232 305 362 421
#     4  11  21  41  75 102 137 193 240 291 364 446
#     4   9  20  42  74  91 144 194 227 292 369 424
#     4  12  26  43  71 109 141 181 252 304 356 440
#     4  10  23  43  72 100 145 189 238 293 372 428
#
# _framework density 25.671292999999999
#
# number of rings (size 3 to 8) (size 9 to 14) (size 15 to 20)
#    1.200    0.400    4.000    0.600    2.800    4.800 
#    0.000    1.000    4.400    0.000    0.000    0.000 
#    0.000    0.000    0.000    0.000    0.000    0.000 
#
# Total GULP energy -111571.115180 kJ/mol
# GULP energy per Si atom -5578.555759 kJ/mol
# Density = 2.561286 g / cm^3
# Si number density = 25.671293 Si / 1000 Ang^3
#
#
#
# Elastic Constant Matrix: (Units=GPa)
#
#
# Indices 1 2 3 4 5 6 
#
# 1 125.6895 34.2686 0.9956 0.0000 8.4579 0.0000
# 2 34.2686 117.5013 21.8206 0.0000 -3.3822 0.0000
# 3 0.9956 21.8206 112.0457 0.0000 0.9217 0.0000
# 4 0.0000 0.0000 0.0000 35.1971 0.0000 -6.1044
# 5 8.4579 -3.3822 0.9217 0.0000 42.4950 0.0000
# 6 0.0000 0.0000 0.0000 -6.1044 0.0000 40.3179
#
#
#
# Elastic Compliance Matrix: (Units=1/GPa)
#
#
# Indices 1 2 3 4 5 6 
#
# 1 0.008827 -0.002718 0.000467 0.000000 -0.001983 0.000000
# 2 -0.002718 0.009690 -0.001874 0.000000 0.001353 0.000000
# 3 0.000467 -0.001874 0.009289 0.000000 -0.000444 0.000000
# 4 0.000000 0.000000 0.000000 0.029178 0.000000 0.004418
# 5 -0.001983 0.001353 -0.000444 0.000000 0.024044 0.000000
# 6 0.000000 0.000000 0.000000 0.004418 0.000000 0.025472
#
#
# Mechanical properties :
#
#
# Convention : Reuss Voigt Hill
#
# Bulk Modulus (GPa) = 51.13393 52.15624 51.64508
# Shear Modulus (GPa) = 41.23059 43.47880 42.35469
#
# Velocity S-wave (km/s) = 4.01196 4.11989 4.06628
# Velocity P-wave (km/s) = 6.43608 6.55686 6.49675
#
# Compressibility (1/GPa) = 0.01955649
#
# Stress axis : x y z
#
# Youngs Moduli (GPa) = 113.28904 103.19627 107.64952
#
# Poissons Ratio (x) = 0.28051 -0.05030
# Poissons Ratio (y) = 0.30794 0.20175
# Poissons Ratio (z) = -0.05293 0.19340
#
# Static dielectric constant tensor:
#      x y z
#    x 2.145380 0.000000 -0.020680 
#    y 0.000000 2.039000 0.000000 
#    z -0.020680 0.000000 2.067120 
# 
# From -- ./inp_files/313049.got.cif
#   From: 2010.05.17/outbox.cif.g08.bks.cpg/sg15_157_cif.got.tgz:313049.got - 2010.06.03 18:47:42.
