data_PCOD9286503
_publ_section_title
;
Structure prediction by ZEFSAII (Michael W. Deem and Ramdas Pophale) SiO2 
 PCOD9286503
Probable space group: C 2/C
;
_chemical_formula_sum "Si O2"
_cell_formula_units_Z 48
_cell_length_a 21.331306
_cell_length_b 12.356101
_cell_length_c 8.599046
_cell_angle_alpha 90.000000
_cell_angle_beta 73.283539
_cell_angle_gamma 90.000000
_cell_volume 2170.684709
_symmetry_space_group_name_H-M "C 2/C"
_symmetry_group_IT_number 15
_symmetry_cell_setting 'monoclinic'
loop_
_space_group_symop_operation_xyz
x,y,z
-x,y,1/2-z
-x,-y,-z
x,-y,1/2+z
1/2+x,1/2+y,z
1/2-x,1/2+y,1/2-z
1/2-x,1/2-y,-z
1/2+x,1/2-y,1/2+z
loop_
_atom_site_type_symbol
_atom_site_label
_atom_site_fract_x
_atom_site_fract_y
_atom_site_fract_z
Si Si1 0.086650 0.285051 0.924940
Si Si2 0.000000 0.178397 0.250000
Si Si3 0.000000 0.415631 0.750000
Si Si4 0.320933 0.599429 0.606073
Si Si5 0.375118 0.025312 0.918094
Si Si6 0.136419 0.878166 0.777954
Si Si7 0.677516 0.140876 0.837557
O O1 0.046420 0.340523 0.818895
O O2 0.125865 0.178102 0.852815
O O3 0.136685 0.372218 0.962378
O O4 0.036984 0.250961 0.096993
O O5 0.941178 0.114105 0.207292
O O6 0.049867 0.488733 0.616802
O O7 0.338430 0.476824 0.636807
O O8 0.327617 0.618059 0.415981
O O9 0.250576 0.632170 0.721043
O O10 0.365040 0.069372 0.752726
O O11 0.330817 0.922855 0.994723
O O12 0.151296 0.762820 0.847651
#
# Coordination Sequence:
#
# PCOD9286503 Si02
#       7
#     8   4   4   8   8   8   8
#     4  11  24  42  66  99 134 174 218 277 336 397
#     4  10  21  43  70  92 134 173 221 268 334 394
#     4  12  25  39  70 106 138 161 229 280 346 400
#     4  11  26  44  68  95 136 184 226 268 334 396
#     4  12  24  42  69 103 132 177 214 282 341 392
#     4  11  25  44  68  97 134 180 224 280 329 395
#     4  12  25  44  71  97 138 175 227 277 333 398
#
# _framework density 22.112836999999999
#
# number of rings (size 3 to 8) (size 9 to 14) (size 15 to 20)
#    0.000    0.667    5.000    3.500    2.333    6.000 
#    0.000    2.500    0.000    0.000    0.000    0.000 
#    0.000    0.000    0.000    0.000    0.000    0.000 
#
# Total GULP energy -134310.350282 kJ/mol
# GULP energy per Si atom -5596.264595 kJ/mol
# Density = 2.206251 g / cm^3
# Si number density = 22.112837 Si / 1000 Ang^3
#
#
#
# Elastic Constant Matrix: (Units=GPa)
#
#
# Indices 1 2 3 4 5 6 
#
# 1 67.2922 29.6732 8.3349 0.0000 -23.2517 0.0000
# 2 29.6732 129.4829 21.1523 0.0000 -3.6374 0.0000
# 3 8.3349 21.1523 26.0833 0.0000 -12.1714 0.0000
# 4 0.0000 0.0000 0.0000 26.7445 0.0000 -1.2193
# 5 -23.2517 -3.6374 -12.1714 0.0000 39.6985 0.0000
# 6 0.0000 0.0000 0.0000 -1.2193 0.0000 18.0208
#
#
#
# Elastic Compliance Matrix: (Units=1/GPa)
#
#
# Indices 1 2 3 4 5 6 
#
# 1 0.021137 -0.005030 0.003369 0.000000 0.012952 0.000000
# 2 -0.005030 0.010191 -0.008864 0.000000 -0.004730 0.000000
# 3 0.003369 -0.008864 0.052504 0.000000 0.017259 0.000000
# 4 0.000000 0.000000 0.000000 0.037507 0.000000 0.002538
# 5 0.012952 -0.004730 0.017259 0.000000 0.037634 0.000000
# 6 0.000000 0.000000 0.000000 0.002538 0.000000 0.055663
#
#
# Mechanical properties :
#
#
# Convention : Reuss Voigt Hill
#
# Bulk Modulus (GPa) = 15.92848 37.90879 26.91864
# Shear Modulus (GPa) = 19.48452 27.80595 23.64524
#
# Velocity S-wave (km/s) = 2.97162 3.54991 3.27356
# Velocity P-wave (km/s) = 4.35809 5.82950 5.14665
#
# Compressibility (1/GPa) = 0.06278063
#
# Stress axis : x y z
#
# Youngs Moduli (GPa) = 47.31086 98.12560 19.04610
#
# Poissons Ratio (x) = 0.49361 -0.06417
# Poissons Ratio (y) = 0.23799 0.16883
# Poissons Ratio (z) = -0.15939 0.86982
#
# Static dielectric constant tensor:
#      x y z
#    x 1.817060 0.000000 0.015070 
#    y 0.000000 1.787340 0.000000 
#    z 0.015070 0.000000 1.833910 
# 
# From -- ./inp_files/60575.got.cif
#   From: 2010.05.17/outbox.cif.g08.bks.cpg/sg15_31_cif.got.tgz:60575.got - 2010.06.03 18:47:42.
