data_PCOD9286059
_publ_section_title
;
Structure prediction by ZEFSAII (Michael W. Deem and Ramdas Pophale) SiO2 
 PCOD9286059
Probable space group: C 2/C
;
_chemical_formula_sum "Si O2"
_cell_formula_units_Z 40
_cell_length_a 18.004969
_cell_length_b 6.597208
_cell_length_c 20.566962
_cell_angle_alpha 90.000000
_cell_angle_beta 46.689431
_cell_angle_gamma 90.000000
_cell_volume 1777.636619
_symmetry_space_group_name_H-M "C 2/C"
_symmetry_group_IT_number 15
_symmetry_cell_setting 'monoclinic'
loop_
_space_group_symop_operation_xyz
x,y,z
-x,y,1/2-z
-x,-y,-z
x,-y,1/2+z
1/2+x,1/2+y,z
1/2-x,1/2+y,1/2-z
1/2-x,1/2-y,-z
1/2+x,1/2-y,1/2+z
loop_
_atom_site_type_symbol
_atom_site_label
_atom_site_fract_x
_atom_site_fract_y
_atom_site_fract_z
Si Si1 0.068678 0.509244 0.765808
Si Si2 0.174972 0.850235 0.134418
Si Si3 0.523680 0.146710 0.425428
Si Si4 0.356742 0.455123 0.488654
Si Si5 0.728265 0.764226 0.862012
O O1 0.098520 0.286301 0.721683
O O2 0.007984 0.479274 0.868691
O O3 0.173210 0.630461 0.714632
O O4 0.000000 0.605390 0.750000
O O5 0.129618 0.957356 0.097241
O O6 0.230120 0.017137 0.144287
O O7 0.260160 0.690227 0.060013
O O8 0.451821 0.342583 0.464832
O O9 0.641166 0.216236 0.360237
O O10 0.500000 0.000000 0.500000
O O11 0.327453 0.662694 0.541919
#
# Coordination Sequence:
#
# PCOD9286059 Si02
#       5
#     8   8   8   8   8
#     4  11  26  47  66  95 140 185 225 276 344 417
#     4  10  21  43  68  97 134 179 221 280 337 405
#     4  12  25  45  70 102 140 179 225 290 345 399
#     4  10  21  42  70  98 137 173 223 276 338 407
#     4  11  25  41  71 104 133 175 230 282 343 405
#
# _framework density 22.501785000000002
#
# number of rings (size 3 to 8) (size 9 to 14) (size 15 to 20)
#    0.000    1.200    4.000    1.200    2.800    2.400 
#    3.600    0.000    0.000    0.000    0.000    0.000 
#    0.000    0.000    0.000    0.000    0.000    0.000 
#
# Total GULP energy -111897.184693 kJ/mol
# GULP energy per Si atom -5594.859235 kJ/mol
# Density = 2.245057 g / cm^3
# Si number density = 22.501785 Si / 1000 Ang^3
#
#
#
# Elastic Constant Matrix: (Units=GPa)
#
#
# Indices 1 2 3 4 5 6 
#
# 1 94.3137 1.4185 12.6701 0.0000 -12.3021 0.0015
# 2 1.4185 19.2600 7.9053 0.0001 0.2724 0.0062
# 3 12.6701 7.9053 72.4025 -0.0001 9.5413 0.0008
# 4 0.0000 0.0001 -0.0001 26.9521 0.0002 -20.4268
# 5 -12.3021 0.2724 9.5413 0.0002 32.8429 -0.0003
# 6 0.0015 0.0062 0.0008 -20.4268 -0.0003 2.1187
#
#
#
# Elastic Compliance Matrix: (Units=1/GPa)
#
#
# Indices 1 2 3 4 5 6 
#
# 1 0.011640 0.000193 -0.002737 0.000001 0.005154 0.000001
# 2 0.000193 0.054416 -0.006161 0.000019 0.001411 0.000025
# 3 -0.002737 -0.006161 0.015693 -0.000002 -0.005533 -0.000002
# 4 0.000001 0.000019 -0.000002 -0.005883 0.000000 -0.056717
# 5 0.005154 0.001411 -0.005533 0.000000 0.033974 0.000000
# 6 0.000001 0.000025 -0.000002 -0.056717 0.000000 -0.074836
#
#
# Mechanical properties :
#
#
# Convention : Reuss Voigt Hill
#
# Bulk Modulus (GPa) = 15.54290 25.55157 20.54724
# Shear Modulus (GPa) = 67.69556 23.31490 45.50523
#
# Velocity S-wave (km/s) = 5.49089 3.22240 4.50187
# Velocity P-wave (km/s) = 6.86456 5.02246 6.01445
#
# Compressibility (1/GPa) = 0.06433805
#
# Stress axis : x y z
#
# Youngs Moduli (GPa) = 85.91103 18.37704 63.72454
#
# Poissons Ratio (x) = -0.00355 0.17443
# Poissons Ratio (y) = -0.01661 0.39262
# Poissons Ratio (z) = 0.23516 0.11322
#
# Static dielectric constant tensor:
#      x y z
#    x 1.849730 0.000000 0.002100 
#    y 0.000000 1.791210 0.000000 
#    z 0.002100 0.000000 1.832660 
# 
# From -- ./inp_files/278796.got.cif
#   From: 2010.05.17/outbox.cif.g08.bks.cpg/sg15_140_cif.got.tgz:278796.got - 2010.06.03 18:47:42.
