data_PCOD9286387
_publ_section_title
;
Structure prediction by ZEFSAII (Michael W. Deem and Ramdas Pophale) SiO2 
 PCOD9286387
Probable space group: C 2/C
;
_chemical_formula_sum "Si O2"
_cell_formula_units_Z 64
_cell_length_a 8.483524
_cell_length_b 14.311820
_cell_length_c 23.238120
_cell_angle_alpha 90.000000
_cell_angle_beta 94.236086
_cell_angle_gamma 90.000000
_cell_volume 2813.740868
_symmetry_space_group_name_H-M "C 2/C"
_symmetry_group_IT_number 15
_symmetry_cell_setting 'monoclinic'
loop_
_space_group_symop_operation_xyz
x,y,z
-x,y,1/2-z
-x,-y,-z
x,-y,1/2+z
1/2+x,1/2+y,z
1/2-x,1/2+y,1/2-z
1/2-x,1/2-y,-z
1/2+x,1/2-y,1/2+z
loop_
_atom_site_type_symbol
_atom_site_label
_atom_site_fract_x
_atom_site_fract_y
_atom_site_fract_z
Si Si1 0.019238 0.211894 0.629914
Si Si2 0.324868 0.584987 0.245141
Si Si3 0.772046 0.052726 0.836122
Si Si4 0.552143 0.596472 0.080802
Si Si5 0.050418 0.419088 0.111175
Si Si6 0.196644 0.753811 0.668004
Si Si7 0.712833 0.887337 0.612441
Si Si8 0.282944 0.351670 0.026660
O O1 0.123456 0.144149 0.672050
O O2 0.128679 0.288503 0.602412
O O3 0.883298 0.262429 0.662488
O O4 0.916566 0.156256 0.579653
O O5 0.500000 0.541919 0.250000
O O6 0.223857 0.510591 0.279866
O O7 0.337585 0.684706 0.277396
O O8 0.276208 0.605495 0.179345
O O9 0.628508 0.085878 0.872567
O O10 0.881901 0.983296 0.875918
O O11 0.604686 0.692652 0.114005
O O12 0.362462 0.596217 0.075000
O O13 0.642022 0.589526 0.022947
O O14 0.145109 0.354079 0.160308
O O15 0.091006 0.527969 0.108074
O O16 0.120554 0.383992 0.052128
O O17 0.250000 0.250000 0.000000
#
# Coordination Sequence:
#
# PCOD9286387 Si02
#       8
#     8   8   8   8   8   8   8   8
#     4  11  25  43  68 103 137 176 229 284 335 408
#     4  11  24  44  72  97 137 184 222 277 355 401
#     4  11  25  44  68 101 141 175 229 283 333 414
#     4  11  21  44  69  95 139 175 222 285 334 403
#     4  11  25  43  68 101 136 178 227 280 336 405
#     4  10  21  43  67  97 137 174 222 280 335 401
#     4  12  25  44  69 102 139 177 229 283 339 412
#     4  11  24  45  73  96 138 184 226 284 352 397
#
# _framework density 22.745519000000002
#
# number of rings (size 3 to 8) (size 9 to 14) (size 15 to 20)
#    0.000    1.000    5.000    3.750    0.000    6.000 
#    0.000    0.000    0.000    0.000    0.000    0.000 
#    0.000    0.000    0.000    0.000    0.000    0.000 
#
# Total GULP energy -178801.831439 kJ/mol
# GULP energy per Si atom -5587.557232 kJ/mol
# Density = 2.269375 g / cm^3
# Si number density = 22.745519 Si / 1000 Ang^3
#
#
#
# Elastic Constant Matrix: (Units=GPa)
#
#
# Indices 1 2 3 4 5 6 
#
# 1 94.1245 -2.4126 -4.5947 0.0000 -24.1086 0.0000
# 2 -2.4126 60.3314 -2.4769 0.0000 -6.9118 0.0000
# 3 -4.5947 -2.4769 54.7613 0.0000 -23.5249 0.0000
# 4 0.0000 0.0000 0.0000 16.4057 0.0000 -1.2402
# 5 -24.1086 -6.9118 -23.5249 0.0000 25.5886 0.0000
# 6 0.0000 0.0000 0.0000 -1.2402 0.0000 35.8530
#
#
#
# Elastic Compliance Matrix: (Units=1/GPa)
#
#
# Indices 1 2 3 4 5 6 
#
# 1 0.022122 0.006330 0.019553 0.000000 0.040528 0.000000
# 2 0.006330 0.019634 0.010346 0.000000 0.020779 0.000000
# 3 0.019553 0.010346 0.048729 0.000000 0.066016 0.000000
# 4 0.000000 0.000000 0.000000 0.061114 0.000000 0.002114
# 5 0.040528 0.020779 0.066016 0.000000 0.143568 0.000000
# 6 0.000000 0.000000 0.000000 0.002114 0.000000 0.027965
#
#
# Mechanical properties :
#
#
# Convention : Reuss Voigt Hill
#
# Bulk Modulus (GPa) = 6.13713 21.13874 13.63793
# Shear Modulus (GPa) = 16.39408 30.14958 23.27183
#
# Velocity S-wave (km/s) = 2.68761 3.64472 3.20212
# Velocity P-wave (km/s) = 3.51213 5.19862 4.43626
#
# Compressibility (1/GPa) = 0.16294267
#
# Stress axis : x y z
#
# Youngs Moduli (GPa) = 45.20459 50.93324 20.52149
#
# Poissons Ratio (x) = -0.32243 -0.40126
# Poissons Ratio (y) = -0.28617 -0.21231
# Poissons Ratio (z) = -0.88388 -0.52694
#
# Static dielectric constant tensor:
#      x y z
#    x 1.848630 0.000000 -0.010170 
#    y 0.000000 1.870640 0.000000 
#    z -0.010170 0.000000 1.869010 
# 
# From -- ./inp_files/264733.got.cif
#   From: 2010.05.17/outbox.cif.g08.bks.cpg/sg15_133_cif.got.tgz:264733.got - 2010.06.03 18:47:42.
