data_PCOD9286985
_publ_section_title
;
Structure prediction by ZEFSAII (Michael W. Deem and Ramdas Pophale) SiO2 
 PCOD9286985
Probable space group: C 2/C
;
_chemical_formula_sum "Si O2"
_cell_formula_units_Z 40
_cell_length_a 13.641940
_cell_length_b 12.359339
_cell_length_c 13.590398
_cell_angle_alpha 90.000000
_cell_angle_beta 134.613812
_cell_angle_gamma 90.000000
_cell_volume 1631.158521
_symmetry_space_group_name_H-M "C 2/C"
_symmetry_group_IT_number 15
_symmetry_cell_setting 'monoclinic'
loop_
_space_group_symop_operation_xyz
x,y,z
-x,y,1/2-z
-x,-y,-z
x,-y,1/2+z
1/2+x,1/2+y,z
1/2-x,1/2+y,1/2-z
1/2-x,1/2-y,-z
1/2+x,1/2-y,1/2+z
loop_
_atom_site_type_symbol
_atom_site_label
_atom_site_fract_x
_atom_site_fract_y
_atom_site_fract_z
Si Si1 0.161612 0.697216 0.239111
Si Si2 0.082938 0.911079 0.618304
Si Si3 0.548973 0.988336 0.920930
Si Si4 0.346371 0.568223 0.676040
Si Si5 0.117094 0.727139 0.971904
O O1 0.316155 0.661312 0.375476
O O2 0.136947 0.810907 0.273155
O O3 0.153090 0.718413 0.114411
O O4 0.057293 0.601322 0.192300
O O5 0.985739 0.828206 0.606813
O O6 0.180069 0.982062 0.756064
O O7 0.000000 0.000000 0.500000
O O8 0.705512 0.944918 0.016202
O O9 0.500000 0.000000 0.000000
O O10 0.550607 0.113829 0.890885
O O11 0.500000 0.537074 0.750000
O O12 0.250000 0.750000 0.000000
#
# Coordination Sequence:
#
# PCOD9286985 Si02
#       5
#     8   8   8   8   8
#     4  11  24  45  68  96 136 180 224 278 337 409
#     4  12  25  42  70 100 134 175 231 274 338 414
#     4  10  21  45  70  92 137 179 219 270 351 392
#     4  12  25  44  68 100 135 178 225 284 339 404
#     4  11  23  41  67  99 131 174 225 282 338 399
#
# _framework density 24.522448000000001
#
# number of rings (size 3 to 8) (size 9 to 14) (size 15 to 20)
#    0.000    0.800    6.000    3.600    0.000    0.800 
#    3.600    0.000    0.000    0.000    0.000    0.000 
#    0.000    0.000    0.000    0.000    0.000    0.000 
#
# Total GULP energy -111901.953963 kJ/mol
# GULP energy per Si atom -5595.097698 kJ/mol
# Density = 2.446663 g / cm^3
# Si number density = 24.522448 Si / 1000 Ang^3
#
#
#
# Elastic Constant Matrix: (Units=GPa)
#
#
# Indices 1 2 3 4 5 6 
#
# 1 111.8223 45.0604 35.0992 0.0000 26.4609 0.0000
# 2 45.0604 226.5602 43.4144 0.0000 21.5954 0.0000
# 3 35.0992 43.4144 89.8812 0.0000 25.6413 0.0000
# 4 0.0000 0.0000 0.0000 24.3629 0.0000 36.1585
# 5 26.4609 21.5954 25.6413 0.0000 43.9188 0.0000
# 6 0.0000 0.0000 0.0000 36.1585 0.0000 35.3310
#
#
#
# Elastic Compliance Matrix: (Units=1/GPa)
#
#
# Indices 1 2 3 4 5 6 
#
# 1 0.011377 -0.001341 -0.002433 0.000000 -0.004775 0.000000
# 2 -0.001341 0.005078 -0.001736 0.000000 -0.000675 0.000000
# 3 -0.002433 -0.001736 0.014701 0.000000 -0.006264 0.000000
# 4 0.000000 0.000000 0.000000 -0.079098 0.000000 0.080951
# 5 -0.004775 -0.000675 -0.006264 0.000000 0.029635 0.000000
# 6 0.000000 0.000000 0.000000 0.080951 0.000000 -0.054543
#
#
# Mechanical properties :
#
#
# Convention : Reuss Voigt Hill
#
# Bulk Modulus (GPa) = 49.66475 75.04573 62.35524
# Shear Modulus (GPa) = -90.71337 41.03518 -24.83909
#
# Velocity S-wave (km/s) = -6.08870 4.09512 -3.18608
# Velocity P-wave (km/s) = 5.39750 7.28213 3.45662
#
# Compressibility (1/GPa) = 0.02013501
#
# Stress axis : x y z
#
# Youngs Moduli (GPa) = 87.89892 196.94069 68.02109
#
# Poissons Ratio (x) = 0.26419 0.16547
# Poissons Ratio (y) = 0.11791 0.11810
# Poissons Ratio (z) = 0.21383 0.34194
#
# Static dielectric constant tensor:
#      x y z
#    x 1.968480 0.000000 -0.048050 
#    y 0.000000 1.897800 0.000000 
#    z -0.048050 0.000000 1.871550 
# 
# From -- ./inp_files/94655.got.cif
#   From: 2010.05.17/outbox.cif.g08.bks.cpg/sg15_48_cif.got.tgz:94655.got - 2010.06.03 18:47:42.
