data_PCOD9286856
_publ_section_title
;
Structure prediction by ZEFSAII (Michael W. Deem and Ramdas Pophale) SiO2 
 PCOD9286856
Probable space group: C 2/C
;
_chemical_formula_sum "Si O2"
_cell_formula_units_Z 56
_cell_length_a 18.534636
_cell_length_b 9.577405
_cell_length_c 13.837177
_cell_angle_alpha 90.000000
_cell_angle_beta 115.972157
_cell_angle_gamma 90.000000
_cell_volume 2208.220657
_symmetry_space_group_name_H-M "C 2/C"
_symmetry_group_IT_number 15
_symmetry_cell_setting 'monoclinic'
loop_
_space_group_symop_operation_xyz
x,y,z
-x,y,1/2-z
-x,-y,-z
x,-y,1/2+z
1/2+x,1/2+y,z
1/2-x,1/2+y,1/2-z
1/2-x,1/2-y,-z
1/2+x,1/2-y,1/2+z
loop_
_atom_site_type_symbol
_atom_site_label
_atom_site_fract_x
_atom_site_fract_y
_atom_site_fract_z
Si Si1 0.583711 0.162369 0.856468
Si Si2 0.300487 0.664296 0.193531
Si Si3 0.121724 0.646925 0.597113
Si Si4 0.152822 0.093888 0.880208
Si Si5 0.390603 0.161511 0.404732
Si Si6 0.990272 0.873571 0.069580
Si Si7 0.807490 0.593507 0.066788
O O1 0.500000 0.181938 0.750000
O O2 0.652077 0.273786 0.870185
O O3 0.574149 0.169787 0.965618
O O4 0.628726 0.017411 0.858578
O O5 0.328451 0.504204 0.199930
O O6 0.165646 0.258712 0.200857
O O7 0.205223 0.674847 0.141473
O O8 0.091436 0.497458 0.619146
O O9 0.060108 0.750275 0.510427
O O10 0.175953 0.604187 0.538087
O O11 0.174497 0.256588 0.877896
O O12 0.213583 0.053933 0.007035
O O13 0.063123 0.080943 0.870211
O O14 0.428206 0.287184 0.365060
O O15 0.000000 0.000000 0.000000
#
# Coordination Sequence:
#
# PCOD9286856 Si02
#       7
#     8   8   8   8   8   8   8
#     4  11  23  42  73 110 147 196 250 303 370 453
#     4  12  24  42  73 109 142 194 255 306 372 450
#     4  10  23  46  70  99 146 195 251 303 368 459
#     4  10  21  44  71 100 141 189 237 305 375 431
#     4  11  24  47  69 104 156 201 245 309 375 453
#     4  11  24  41  73 104 144 195 240 305 385 444
#     4   9  21  46  74  98 144 193 237 306 375 444
#
# _framework density 25.359783
#
# number of rings (size 3 to 8) (size 9 to 14) (size 15 to 20)
#    0.000    1.429    2.857    2.571    2.000    3.429 
#    5.143    5.000    0.000    0.000    0.000    0.000 
#    0.000    0.000    0.000    0.000    0.000    0.000 
#
# Total GULP energy -156634.908871 kJ/mol
# GULP energy per Si atom -5594.103888 kJ/mol
# Density = 2.530206 g / cm^3
# Si number density = 25.359783 Si / 1000 Ang^3
#
#
#
# Elastic Constant Matrix: (Units=GPa)
#
#
# Indices 1 2 3 4 5 6 
#
# 1 119.6840 41.3416 45.2320 0.0000 32.4210 0.0000
# 2 41.3416 122.5165 15.1340 0.0000 16.3648 0.0000
# 3 45.2320 15.1340 97.4491 0.0000 2.7963 0.0000
# 4 0.0000 0.0000 0.0000 38.4813 0.0000 1.4819
# 5 32.4210 16.3648 2.7963 0.0000 36.8750 0.0000
# 6 0.0000 0.0000 0.0000 1.4819 0.0000 52.0574
#
#
#
# Elastic Compliance Matrix: (Units=1/GPa)
#
#
# Indices 1 2 3 4 5 6 
#
# 1 0.014592 -0.002685 -0.006035 0.000000 -0.011181 0.000000
# 2 -0.002685 0.009323 -0.000151 0.000000 -0.001765 0.000000
# 3 -0.006035 -0.000151 0.012961 0.000000 0.004391 0.000000
# 4 0.000000 0.000000 0.000000 0.026015 0.000000 -0.000741
# 5 -0.011181 -0.001765 0.004391 0.000000 0.037399 0.000000
# 6 0.000000 0.000000 0.000000 -0.000741 0.000000 0.019231
#
#
# Mechanical properties :
#
#
# Convention : Reuss Voigt Hill
#
# Bulk Modulus (GPa) = 52.26575 60.34052 56.30314
# Shear Modulus (GPa) = 34.80897 41.34553 38.07725
#
# Velocity S-wave (km/s) = 3.70889 4.04215 3.87910
# Velocity P-wave (km/s) = 6.24464 6.75505 6.50486
#
# Compressibility (1/GPa) = 0.01913299
#
# Stress axis : x y z
#
# Youngs Moduli (GPa) = 68.52844 107.26597 77.15690
#
# Poissons Ratio (x) = 0.28802 0.46567
# Poissons Ratio (y) = 0.18401 0.01164
# Poissons Ratio (z) = 0.41360 0.01618
#
# Static dielectric constant tensor:
#      x y z
#    x 2.096940 0.000000 0.045520 
#    y 0.000000 2.050650 0.000000 
#    z 0.045520 0.000000 2.044500 
# 
# From -- ./inp_files/279422.got.cif
#   From: 2010.05.17/outbox.cif.g08.bks.cpg/sg15_140_cif.got.tgz:279422.got - 2010.06.03 18:47:42.
