data_PCOD9286082
_publ_section_title
;
Structure prediction by ZEFSAII (Michael W. Deem and Ramdas Pophale) SiO2 
 PCOD9286082
Probable space group: C 2/C
;
_chemical_formula_sum "Si O2"
_cell_formula_units_Z 48
_cell_length_a 8.752613
_cell_length_b 28.015584
_cell_length_c 17.977085
_cell_angle_alpha 90.000000
_cell_angle_beta 150.460926
_cell_angle_gamma 90.000000
_cell_volume 2173.294469
_symmetry_space_group_name_H-M "C 2/C"
_symmetry_group_IT_number 15
_symmetry_cell_setting 'monoclinic'
loop_
_space_group_symop_operation_xyz
x,y,z
-x,y,1/2-z
-x,-y,-z
x,-y,1/2+z
1/2+x,1/2+y,z
1/2-x,1/2+y,1/2-z
1/2-x,1/2-y,-z
1/2+x,1/2-y,1/2+z
loop_
_atom_site_type_symbol
_atom_site_label
_atom_site_fract_x
_atom_site_fract_y
_atom_site_fract_z
Si Si1 0.472700 0.723226 0.422933
Si Si2 0.305591 0.475934 0.096899
Si Si3 0.575443 0.880494 0.923710
Si Si4 0.843515 0.717846 0.363232
Si Si5 0.345269 0.627914 0.929062
Si Si6 0.814410 0.050951 0.342250
O O1 0.750000 0.750000 0.500000
O O2 0.197529 0.724487 0.244368
O O3 0.450647 0.748447 0.495392
O O4 0.598485 0.669527 0.487546
O O5 0.500000 0.462087 0.250000
O O6 0.510210 0.511466 0.132370
O O7 0.198178 0.427828 0.013966
O O8 0.000000 0.500000 0.000000
O O9 0.440446 0.837366 0.913897
O O10 0.318451 0.903576 0.760214
O O11 0.879898 0.860633 0.012187
O O12 0.500000 0.724870 0.250000
O O13 0.000000 0.629608 0.750000
O O14 0.436548 0.575302 0.997469
O O15 0.500000 0.032496 0.250000
#
# Coordination Sequence:
#
# PCOD9286082 Si02
#       6
#     8   8   8   8   8   8
#     4  10  21  42  71 105 140 187 238 296 368 436
#     4  12  27  46  71 103 144 185 250 306 371 438
#     4  11  25  45  68 103 137 195 235 295 370 435
#     4  10  22  42  73 100 143 188 235 294 366 438
#     4  11  24  42  70 101 142 183 247 293 353 447
#     4  10  24  47  74  97 141 194 240 299 375 437
#
# _framework density 22.086283999999999
#
# number of rings (size 3 to 8) (size 9 to 14) (size 15 to 20)
#    0.000    1.333    3.333    1.500    4.667    4.000 
#    3.000    1.667    0.000    0.000    0.000    0.000 
#    0.000    0.000    0.000    0.000    0.000    0.000 
#
# Total GULP energy -133895.130143 kJ/mol
# GULP energy per Si atom -5578.963756 kJ/mol
# Density = 2.203601 g / cm^3
# Si number density = 22.086284 Si / 1000 Ang^3
#
#
#
# Elastic Constant Matrix: (Units=GPa)
#
#
# Indices 1 2 3 4 5 6 
#
# 1 74.3940 57.3397 64.7705 -0.0003 1.1144 0.0000
# 2 57.3397 103.1786 55.3759 0.0006 3.1293 -0.0003
# 3 64.7705 55.3759 150.2361 0.0037 -6.3304 -0.0017
# 4 -0.0003 0.0006 0.0037 125.4096 -0.0010 -19.3967
# 5 1.1144 3.1293 -6.3304 -0.0010 37.3490 -0.0001
# 6 0.0000 -0.0003 -0.0017 -19.3967 -0.0001 19.4578
#
#
#
# Elastic Compliance Matrix: (Units=1/GPa)
#
#
# Indices 1 2 3 4 5 6 
#
# 1 0.030427 -0.012213 -0.008673 0.000000 -0.001355 -0.000001
# 2 -0.012213 0.017103 -0.001091 0.000000 -0.001254 0.000000
# 3 -0.008673 -0.001091 0.010890 0.000000 0.002196 0.000001
# 4 0.000000 0.000000 0.000000 0.009427 0.000000 0.009398
# 5 -0.001355 -0.001254 0.002196 0.000000 0.027292 0.000001
# 6 -0.000001 0.000000 0.000001 0.009398 0.000001 0.060762
#
#
# Mechanical properties :
#
#
# Convention : Reuss Voigt Hill
#
# Bulk Modulus (GPa) = 69.13494 75.86457 72.49975
# Shear Modulus (GPa) = 24.42854 46.46478 35.44666
#
# Velocity S-wave (km/s) = 3.32934 4.59168 4.01049
# Velocity P-wave (km/s) = 6.79334 7.90791 7.37172
#
# Compressibility (1/GPa) = 0.01446447
#
# Stress axis : x y z
#
# Youngs Moduli (GPa) = 32.86563 58.46913 91.82539
#
# Poissons Ratio (x) = 0.71410 0.79642
# Poissons Ratio (y) = 0.40140 0.10022
# Poissons Ratio (z) = 0.28505 0.06381
#
# Static dielectric constant tensor:
#      x y z
#    x 1.854210 0.000000 -0.113280 
#    y 0.000000 1.991090 0.000000 
#    z -0.113280 0.000000 1.730150 
# 
# From -- ./inp_files/194327.got.cif
#   From: 2010.05.17/outbox.cif.g08.bks.cpg/sg15_98_cif.got.tgz:194327.got - 2010.06.03 18:47:42.
