data_PCOD9286573
_publ_section_title
;
Structure prediction by ZEFSAII (Michael W. Deem and Ramdas Pophale) SiO2 
 PCOD9286573
Probable space group: C 2/C
;
_chemical_formula_sum "Si O2"
_cell_formula_units_Z 48
_cell_length_a 31.556562
_cell_length_b 15.607323
_cell_length_c 15.542694
_cell_angle_alpha 90.000000
_cell_angle_beta 18.144781
_cell_angle_gamma 90.000000
_cell_volume 2383.909863
_symmetry_space_group_name_H-M "C 2/C"
_symmetry_group_IT_number 15
_symmetry_cell_setting 'monoclinic'
loop_
_space_group_symop_operation_xyz
x,y,z
-x,y,1/2-z
-x,-y,-z
x,-y,1/2+z
1/2+x,1/2+y,z
1/2-x,1/2+y,1/2-z
1/2-x,1/2-y,-z
1/2+x,1/2-y,1/2+z
loop_
_atom_site_type_symbol
_atom_site_label
_atom_site_fract_x
_atom_site_fract_y
_atom_site_fract_z
Si Si1 0.693099 0.357868 0.285706
Si Si2 0.984433 0.365437 0.678341
Si Si3 0.440239 0.424306 0.669059
Si Si4 0.782183 0.514501 0.768301
Si Si5 0.334408 0.281436 0.755381
Si Si6 0.161321 0.332104 0.922916
O O1 0.550171 0.386428 0.522881
O O2 0.727889 0.422201 0.297335
O O3 0.683200 0.258487 0.332133
O O4 0.823901 0.367579 0.970644
O O5 0.062527 0.455070 0.514764
O O6 0.068822 0.293679 0.465667
O O7 0.000000 0.343956 0.750000
O O8 0.500000 0.500000 0.500000
O O9 0.417450 0.355908 0.638682
O O10 0.309659 0.458921 0.973328
O O11 0.782121 0.416110 0.736399
O O12 0.239946 0.317285 0.861265
O O13 0.250000 0.250000 0.000000
O O14 0.000000 0.344062 0.250000
#
# Coordination Sequence:
#
# PCOD9286573 Si02
#       6
#     8   8   8   8   8   8
#     4  11  23  46  71  98 134 181 235 280 335 425
#     4  10  21  43  72  94 133 182 231 282 338 417
#     4  12  27  43  66 103 143 176 223 292 353 401
#     4  11  23  46  68  98 138 183 235 281 336 422
#     4  12  23  44  68 102 139 180 220 295 356 391
#     4  12  24  42  76 102 130 188 237 275 343 423
#
# _framework density 20.134989999999998
#
# number of rings (size 3 to 8) (size 9 to 14) (size 15 to 20)
#    0.000    0.667    5.000    5.000    2.333    0.667 
#    3.000    1.667    0.000    0.000    0.000    0.000 
#    0.000    0.000    0.000    0.000    0.000    0.000 
#
# Total GULP energy -134030.917272 kJ/mol
# GULP energy per Si atom -5584.621553 kJ/mol
# Density = 2.008916 g / cm^3
# Si number density = 20.134990 Si / 1000 Ang^3
#
#
#
# Elastic Constant Matrix: (Units=GPa)
#
#
# Indices 1 2 3 4 5 6 
#
# 1 38.4381 19.2175 14.5388 -0.0001 5.6264 0.0001
# 2 19.2175 140.4732 17.8181 -0.0002 10.1096 0.0001
# 3 14.5388 17.8181 95.4149 -0.0002 14.1390 0.0002
# 4 -0.0001 -0.0002 -0.0002 27.6988 0.0001 9.6536
# 5 5.6264 10.1096 14.1390 0.0001 34.6276 -0.0001
# 6 0.0001 0.0001 0.0002 9.6536 -0.0001 17.6894
#
#
#
# Elastic Compliance Matrix: (Units=1/GPa)
#
#
# Indices 1 2 3 4 5 6 
#
# 1 0.029385 -0.003408 -0.003492 0.000000 -0.002354 0.000000
# 2 -0.003408 0.007779 -0.000723 0.000000 -0.001422 0.000000
# 3 -0.003492 -0.000723 0.011743 0.000000 -0.004016 0.000000
# 4 0.000000 0.000000 0.000000 0.044582 0.000000 -0.024330
# 5 -0.002354 -0.001422 -0.004016 0.000000 0.031316 0.000000
# 6 0.000000 0.000000 0.000000 -0.024330 0.000000 0.069809
#
#
# Mechanical properties :
#
#
# Convention : Reuss Voigt Hill
#
# Bulk Modulus (GPa) = 29.70763 41.94166 35.82465
# Shear Modulus (GPa) = 22.61629 30.85330 26.73480
#
# Velocity S-wave (km/s) = 3.35510 3.91874 3.64782
# Velocity P-wave (km/s) = 5.45850 6.43046 5.96431
#
# Compressibility (1/GPa) = 0.03366139
#
# Stress axis : x y z
#
# Youngs Moduli (GPa) = 34.03098 128.55112 85.15853
#
# Poissons Ratio (x) = 0.43806 0.29741
# Poissons Ratio (y) = 0.11597 0.06154
# Poissons Ratio (z) = 0.11885 0.09290
#
# Static dielectric constant tensor:
#      x y z
#    x 1.865880 0.000000 -0.039870 
#    y 0.000000 1.645700 0.000000 
#    z -0.039870 0.000000 1.735020 
# 
# From -- ./inp_files/182410.got.cif
#   From: 2010.05.17/outbox.cif.g08.bks.cpg/sg15_92_cif.got.tgz:182410.got - 2010.06.03 18:47:42.
