data_PCOD9286684
_publ_section_title
;
Structure prediction by ZEFSAII (Michael W. Deem and Ramdas Pophale) SiO2 
 PCOD9286684
Probable space group: C 2/C
;
_chemical_formula_sum "Si O2"
_cell_formula_units_Z 60
_cell_length_a 26.334823
_cell_length_b 8.881910
_cell_length_c 14.840930
_cell_angle_alpha 90.000000
_cell_angle_beta 62.144743
_cell_angle_gamma 90.000000
_cell_volume 3069.123718
_symmetry_space_group_name_H-M "C 2/C"
_symmetry_group_IT_number 15
_symmetry_cell_setting 'monoclinic'
loop_
_space_group_symop_operation_xyz
x,y,z
-x,y,1/2-z
-x,-y,-z
x,-y,1/2+z
1/2+x,1/2+y,z
1/2-x,1/2+y,1/2-z
1/2-x,1/2-y,-z
1/2+x,1/2-y,1/2+z
loop_
_atom_site_type_symbol
_atom_site_label
_atom_site_fract_x
_atom_site_fract_y
_atom_site_fract_z
Si Si1 0.622151 0.366769 0.682277
Si Si2 0.103626 0.173775 0.402528
Si Si3 0.186832 0.648102 0.965135
Si Si4 0.372381 0.325569 0.108880
Si Si5 0.194723 0.298188 0.988515
Si Si6 0.000000 0.230145 0.250000
Si Si7 0.011666 0.340952 0.039644
Si Si8 0.320826 0.315063 0.348055
O O1 0.627825 0.318285 0.780783
O O2 0.643512 0.237324 0.599118
O O3 0.554887 0.378182 0.717284
O O4 0.659102 0.517805 0.636679
O O5 0.142608 0.278017 0.432852
O O6 0.038166 0.229783 0.455583
O O7 0.108091 0.997596 0.421922
O O8 0.191910 0.469235 0.960383
O O9 0.167188 0.701529 0.080604
O O10 0.252287 0.699291 0.891319
O O11 0.353988 0.294546 0.226837
O O12 0.317762 0.299100 0.089783
O O13 0.425135 0.218845 0.037625
O O14 0.250000 0.250000 0.000000
O O15 0.994541 0.329861 0.345893
O O16 0.000000 0.500000 0.000000
#
# Coordination Sequence:
#
# PCOD9286684 Si02
#       8
#     8   8   8   8   8   4   8   8
#     4  10  21  44  65  98 126 176 218 263 335 394
#     4  10  24  41  69  96 131 170 218 273 327 392
#     4  11  24  41  64  97 134 169 218 279 319 388
#     4  11  24  44  67  93 134 173 221 269 331 396
#     4  12  24  39  66  95 131 175 221 264 333 393
#     4  10  22  40  74  92 138 174 212 274 326 394
#     4  11  23  44  68 100 133 169 222 269 332 397
#     4  10  24  43  64  96 131 169 221 271 330 386
#
# _framework density 19.549555000000002
#
# number of rings (size 3 to 8) (size 9 to 14) (size 15 to 20)
#    0.000    1.333    2.667    2.000    3.733    3.200 
#    0.000    0.000    0.000    0.000    0.000    0.000 
#    0.000    0.000    0.000    0.000    0.000    0.000 
#
# Total GULP energy -167461.215717 kJ/mol
# GULP energy per Si atom -5582.040524 kJ/mol
# Density = 1.950506 g / cm^3
# Si number density = 19.549555 Si / 1000 Ang^3
#
#
#
# Elastic Constant Matrix: (Units=GPa)
#
#
# Indices 1 2 3 4 5 6 
#
# 1 128.7236 36.3854 39.9856 0.0000 17.3771 0.0000
# 2 36.3854 75.4482 39.4395 0.0000 17.3881 0.0000
# 3 39.9856 39.4395 70.3902 0.0000 7.8061 0.0000
# 4 0.0000 0.0000 0.0000 15.0464 0.0000 0.2027
# 5 17.3771 17.3881 7.8061 0.0000 30.4322 0.0000
# 6 0.0000 0.0000 0.0000 0.2027 0.0000 30.9088
#
#
#
# Elastic Compliance Matrix: (Units=1/GPa)
#
#
# Indices 1 2 3 4 5 6 
#
# 1 0.010111 -0.001759 -0.004353 0.000000 -0.003652 0.000000
# 2 -0.001759 0.021305 -0.009983 0.000000 -0.008608 0.000000
# 3 -0.004353 -0.009983 0.021990 0.000000 0.002549 0.000000
# 4 0.000000 0.000000 0.000000 0.066467 0.000000 -0.000436
# 5 -0.003652 -0.008608 0.002549 0.000000 0.039210 0.000000
# 6 0.000000 0.000000 0.000000 -0.000436 0.000000 0.032356
#
#
# Mechanical properties :
#
#
# Convention : Reuss Voigt Hill
#
# Bulk Modulus (GPa) = 47.13557 56.24254 51.68906
# Shear Modulus (GPa) = 21.67308 25.86091 23.76700
#
# Velocity S-wave (km/s) = 3.33321 3.64103 3.49052
# Velocity P-wave (km/s) = 6.24315 6.81966 6.53776
#
# Compressibility (1/GPa) = 0.02121540
#
# Stress axis : x y z
#
# Youngs Moduli (GPa) = 98.90258 46.93777 45.47478
#
# Poissons Ratio (x) = 0.08256 0.19795
# Poissons Ratio (y) = 0.17396 0.45399
# Poissons Ratio (z) = 0.43053 0.46859
#
# Static dielectric constant tensor:
#      x y z
#    x 1.732450 0.000000 0.002560 
#    y 0.000000 1.687320 0.000000 
#    z 0.002560 0.000000 1.684920 
# 
# From -- ./inp_files/172349.got.cif
#   From: 2010.05.17/outbox.cif.g08.bks.cpg/sg15_87_cif.got.tgz:172349.got - 2010.06.03 18:47:42.
