data_PCOD9286749
_publ_section_title
;
Structure prediction by ZEFSAII (Michael W. Deem and Ramdas Pophale) SiO2 
 PCOD9286749
Probable space group: C 2/C
;
_chemical_formula_sum "Si O2"
_cell_formula_units_Z 32
_cell_length_a 13.269392
_cell_length_b 7.866529
_cell_length_c 11.922465
_cell_angle_alpha 90.000000
_cell_angle_beta 95.419983
_cell_angle_gamma 90.000000
_cell_volume 1238.951140
_symmetry_space_group_name_H-M "C 2/C"
_symmetry_group_IT_number 15
_symmetry_cell_setting 'monoclinic'
loop_
_space_group_symop_operation_xyz
x,y,z
-x,y,1/2-z
-x,-y,-z
x,-y,1/2+z
1/2+x,1/2+y,z
1/2-x,1/2+y,1/2-z
1/2-x,1/2-y,-z
1/2+x,1/2-y,1/2+z
loop_
_atom_site_type_symbol
_atom_site_label
_atom_site_fract_x
_atom_site_fract_y
_atom_site_fract_z
Si Si1 0.667788 0.864792 0.553303
Si Si2 0.047873 0.948989 0.126822
Si Si3 0.394238 0.012809 0.172965
Si Si4 0.217110 0.820501 0.736234
O O1 0.750000 0.750000 0.500000
O O2 0.589993 0.738185 0.605230
O O3 0.608466 0.980497 0.460450
O O4 0.742441 0.938545 0.655522
O O5 0.000000 0.956683 0.250000
O O6 0.139963 0.079846 0.151096
O O7 0.000000 0.000000 0.000000
O O8 0.500000 0.018577 0.250000
O O9 0.339108 0.840574 0.215728
O O10 0.323072 0.178660 0.180221
#
# Coordination Sequence:
#
# PCOD9286749 Si02
#       4
#     8   8   8   8
#     4  10  21  44  67  98 149 188 241 315 367 442
#     4  12  24  42  76 107 141 196 254 301 379 457
#     4  11  24  45  72 100 147 194 244 310 381 439
#     4  11  22  44  68 102 143 187 241 307 367 443
#
# _framework density 25.828298
#
# number of rings (size 3 to 8) (size 9 to 14) (size 15 to 20)
#    0.000    1.000    5.000    5.250    0.000    2.000 
#    0.000    5.000    0.000    0.000    0.000    0.000 
#    0.000    0.000    0.000    0.000    0.000    0.000 
#
# Total GULP energy -89104.669933 kJ/mol
# GULP energy per Si atom -5569.041871 kJ/mol
# Density = 2.576951 g / cm^3
# Si number density = 25.828298 Si / 1000 Ang^3
#
#
#
# Elastic Constant Matrix: (Units=GPa)
#
#
# Indices 1 2 3 4 5 6 
#
# 1 137.9940 35.9183 74.8200 0.0000 23.0071 0.0000
# 2 35.9183 66.6652 35.3148 0.0000 13.2851 0.0000
# 3 74.8200 35.3148 223.8228 0.0000 39.3937 0.0000
# 4 0.0000 0.0000 0.0000 46.3056 0.0000 -9.5643
# 5 23.0071 13.2851 39.3937 0.0000 56.4194 0.0000
# 6 0.0000 0.0000 0.0000 -9.5643 0.0000 46.8207
#
#
#
# Elastic Compliance Matrix: (Units=1/GPa)
#
#
# Indices 1 2 3 4 5 6 
#
# 1 0.009761 -0.003689 -0.002432 0.000000 -0.001414 0.000000
# 2 -0.003689 0.018038 -0.001288 0.000000 -0.001843 0.000000
# 3 -0.002432 -0.001288 0.005993 0.000000 -0.002889 0.000000
# 4 0.000000 0.000000 0.000000 0.022547 0.000000 0.004606
# 5 -0.001414 -0.001843 -0.002889 0.000000 0.020752 0.000000
# 6 0.000000 0.000000 0.000000 0.004606 0.000000 0.022299
#
#
# Mechanical properties :
#
#
# Convention : Reuss Voigt Hill
#
# Bulk Modulus (GPa) = 52.70802 80.06537 66.38669
# Shear Modulus (GPa) = 41.48231 48.73774 45.11002
#
# Velocity S-wave (km/s) = 4.01194 4.34866 4.18369
# Velocity P-wave (km/s) = 6.47397 7.50206 7.00689
#
# Compressibility (1/GPa) = 0.01897245
#
# Stress axis : x y z
#
# Youngs Moduli (GPa) = 102.44492 55.43902 166.87225
#
# Poissons Ratio (x) = 0.20452 0.40586
# Poissons Ratio (y) = 0.37794 0.21499
# Poissons Ratio (z) = 0.24916 0.07142
#
# Static dielectric constant tensor:
#      x y z
#    x 2.473870 0.000000 0.273390 
#    y 0.000000 2.043580 0.000000 
#    z 0.273390 0.000000 2.659760 
# 
# From -- ./inp_files/93514.got.cif
#   From: 2010.05.17/outbox.cif.g08.bks.cpg/sg15_47_cif.got.tgz:93514.got - 2010.06.03 18:47:42.
