data_PCOD9286666
_publ_section_title
;
Structure prediction by ZEFSAII (Michael W. Deem and Ramdas Pophale) SiO2 
 PCOD9286666
Probable space group: C 2/C
;
_chemical_formula_sum "Si O2"
_cell_formula_units_Z 40
_cell_length_a 12.803935
_cell_length_b 5.123138
_cell_length_c 23.007352
_cell_angle_alpha 90.000000
_cell_angle_beta 101.072036
_cell_angle_gamma 90.000000
_cell_volume 1481.106324
_symmetry_space_group_name_H-M "C 2/C"
_symmetry_group_IT_number 15
_symmetry_cell_setting 'monoclinic'
loop_
_space_group_symop_operation_xyz
x,y,z
-x,y,1/2-z
-x,-y,-z
x,-y,1/2+z
1/2+x,1/2+y,z
1/2-x,1/2+y,1/2-z
1/2-x,1/2-y,-z
1/2+x,1/2-y,1/2+z
loop_
_atom_site_type_symbol
_atom_site_label
_atom_site_fract_x
_atom_site_fract_y
_atom_site_fract_z
Si Si1 0.860565 0.181299 0.639925
Si Si2 0.185026 0.593469 0.243281
Si Si3 0.595078 0.710860 0.440243
Si Si4 0.427433 0.061875 0.387654
Si Si5 0.697567 0.495119 0.554038
O O1 0.868837 0.265336 0.707510
O O2 0.745554 0.272599 0.602083
O O3 0.961325 0.306002 0.618994
O O4 0.878675 0.883795 0.622578
O O5 0.241599 0.331478 0.271587
O O6 0.121834 0.498255 0.180201
O O7 0.621873 0.484428 0.489324
O O8 0.688528 0.917102 0.461999
O O9 0.475496 0.819072 0.429329
O O10 0.357400 0.272560 0.414585
#
# Coordination Sequence:
#
# PCOD9286666 Si02
#       5
#     8   8   8   8   8
#     4  11  24  42  67 104 139 192 251 309 381 459
#     4  12  27  48  75 101 145 199 250 316 383 459
#     4  10  23  40  72  99 145 188 246 309 373 465
#     4  11  24  42  67 104 143 190 251 309 382 455
#     4  10  21  44  65 104 142 191 240 307 384 452
#
# _framework density 27.006836
#
# number of rings (size 3 to 8) (size 9 to 14) (size 15 to 20)
#    0.000    1.200    2.000    3.000    5.600    2.400 
#    0.000    0.000    0.000    0.000    0.000    0.000 
#    0.000    0.000    0.000    0.000    0.000    0.000 
#
# Total GULP energy -111784.597632 kJ/mol
# GULP energy per Si atom -5589.229882 kJ/mol
# Density = 2.694537 g / cm^3
# Si number density = 27.006836 Si / 1000 Ang^3
#
#
#
# Elastic Constant Matrix: (Units=GPa)
#
#
# Indices 1 2 3 4 5 6 
#
# 1 107.3736 16.0781 36.3312 0.0000 2.7603 0.0000
# 2 16.0781 81.2405 21.9030 0.0000 9.7455 0.0000
# 3 36.3312 21.9030 150.0515 0.0000 -4.6037 0.0000
# 4 0.0000 0.0000 0.0000 43.7271 0.0000 -7.2980
# 5 2.7603 9.7455 -4.6037 0.0000 44.6524 0.0000
# 6 0.0000 0.0000 0.0000 -7.2980 0.0000 43.9616
#
#
#
# Elastic Compliance Matrix: (Units=1/GPa)
#
#
# Indices 1 2 3 4 5 6 
#
# 1 0.010314 -0.001346 -0.002319 0.000000 -0.000583 0.000000
# 2 -0.001346 0.013402 -0.001723 0.000000 -0.003019 0.000000
# 3 -0.002319 -0.001723 0.007517 0.000000 0.001294 0.000000
# 4 0.000000 0.000000 0.000000 0.023521 0.000000 0.003905
# 5 -0.000583 -0.003019 0.001294 0.000000 0.023224 0.000000
# 6 0.000000 0.000000 0.000000 0.003905 0.000000 0.023395
#
#
# Mechanical properties :
#
#
# Convention : Reuss Voigt Hill
#
# Bulk Modulus (GPa) = 48.88120 54.14335 51.51227
# Shear Modulus (GPa) = 42.02781 44.09178 43.05980
#
# Velocity S-wave (km/s) = 3.94914 4.04495 3.99733
# Velocity P-wave (km/s) = 6.23964 6.47356 6.35768
#
# Compressibility (1/GPa) = 0.02045776
#
# Stress axis : x y z
#
# Youngs Moduli (GPa) = 96.95163 74.61396 133.03130
#
# Poissons Ratio (x) = 0.10045 0.30847
# Poissons Ratio (y) = 0.13052 0.22922
# Poissons Ratio (z) = 0.22481 0.12856
#
# Static dielectric constant tensor:
#      x y z
#    x 2.130780 0.000000 -0.024290 
#    y 0.000000 2.356510 0.000000 
#    z -0.024290 0.000000 2.094320 
# 
# From -- ./inp_files/271969.got.cif
#   From: 2010.05.17/outbox.cif.g08.bks.cpg/sg15_136_cif.got.tgz:271969.got - 2010.06.03 18:47:42.
