data_PCOD9286143
_publ_section_title
;
Structure prediction by ZEFSAII (Michael W. Deem and Ramdas Pophale) SiO2 
 PCOD9286143
Probable space group: C 2/C
;
_chemical_formula_sum "Si O2"
_cell_formula_units_Z 48
_cell_length_a 11.863022
_cell_length_b 15.107297
_cell_length_c 20.815143
_cell_angle_alpha 90.000000
_cell_angle_beta 38.442797
_cell_angle_gamma 90.000000
_cell_volume 2319.345303
_symmetry_space_group_name_H-M "C 2/C"
_symmetry_group_IT_number 15
_symmetry_cell_setting 'monoclinic'
loop_
_space_group_symop_operation_xyz
x,y,z
-x,y,1/2-z
-x,-y,-z
x,-y,1/2+z
1/2+x,1/2+y,z
1/2-x,1/2+y,1/2-z
1/2-x,1/2-y,-z
1/2+x,1/2-y,1/2+z
loop_
_atom_site_type_symbol
_atom_site_label
_atom_site_fract_x
_atom_site_fract_y
_atom_site_fract_z
Si Si1 0.280452 0.133773 0.236177
Si Si2 0.109115 0.838545 0.615027
Si Si3 0.688447 0.320359 0.204110
Si Si4 0.693552 0.058391 0.735655
Si Si5 0.809544 0.364617 0.401452
Si Si6 0.525862 0.895933 0.977147
O O1 0.287855 0.225052 0.272050
O O2 0.440034 0.126485 0.112641
O O3 0.091563 0.129404 0.280768
O O4 0.280599 0.046259 0.279529
O O5 0.110876 0.733963 0.627421
O O6 0.144511 0.863569 0.524575
O O7 0.288451 0.872467 0.569305
O O8 0.500000 0.323173 0.250000
O O9 0.698128 0.395868 0.254852
O O10 0.858631 0.341959 0.081896
O O11 0.738570 0.108288 0.649243
O O12 0.479498 0.074235 0.844549
O O13 0.500000 0.000000 0.000000
#
# Coordination Sequence:
#
# PCOD9286143 Si02
#       6
#     8   8   8   8   8   8
#     4  12  26  43  73 105 142 190 237 294 362 419
#     4  11  21  42  74 103 131 186 244 294 353 423
#     4  12  27  47  69 106 146 188 239 290 361 435
#     4  11  23  44  67 104 140 184 232 295 353 419
#     4  10  21  42  73  97 141 178 241 303 345 416
#     4  12  25  46  72 104 146 188 241 296 357 428
#
# _framework density 20.695495999999999
#
# number of rings (size 3 to 8) (size 9 to 14) (size 15 to 20)
#    0.000    0.667    5.000    2.500    7.000    1.333 
#    0.000    0.000    0.000    0.000    0.000    0.000 
#    0.000    0.000    0.000    0.000    0.000    0.000 
#
# Total GULP energy -134154.080993 kJ/mol
# GULP energy per Si atom -5589.753375 kJ/mol
# Density = 2.064839 g / cm^3
# Si number density = 20.695496 Si / 1000 Ang^3
#
#
#
# Elastic Constant Matrix: (Units=GPa)
#
#
# Indices 1 2 3 4 5 6 
#
# 1 110.5942 25.0383 46.2470 0.0000 -9.2586 0.0000
# 2 25.0383 124.8954 55.2752 -0.0001 -1.0436 0.0000
# 3 46.2470 55.2752 150.7580 -0.0001 17.4051 0.0000
# 4 0.0000 -0.0001 -0.0001 27.8548 -0.0001 1.7073
# 5 -9.2586 -1.0436 17.4051 -0.0001 40.7986 0.0000
# 6 0.0000 0.0000 0.0000 1.7073 0.0000 17.1675
#
#
#
# Elastic Compliance Matrix: (Units=1/GPa)
#
#
# Indices 1 2 3 4 5 6 
#
# 1 0.011032 -0.000565 -0.003644 0.000000 0.004044 0.000000
# 2 -0.000565 0.009718 -0.003580 0.000000 0.001648 0.000000
# 3 -0.003644 -0.003580 0.009645 0.000000 -0.005033 0.000000
# 4 0.000000 0.000000 0.000000 0.036121 0.000000 -0.003592
# 5 0.004044 0.001648 -0.005033 0.000000 0.027618 0.000000
# 6 0.000000 0.000000 0.000000 -0.003592 0.000000 0.058607
#
#
# Mechanical properties :
#
#
# Convention : Reuss Voigt Hill
#
# Bulk Modulus (GPa) = 67.49053 71.04097 69.26575
# Shear Modulus (GPa) = 28.85882 34.47666 31.66774
#
# Velocity S-wave (km/s) = 3.73828 4.08597 3.91599
# Velocity P-wave (km/s) = 7.16345 7.52739 7.34767
#
# Compressibility (1/GPa) = 0.01481689
#
# Stress axis : x y z
#
# Youngs Moduli (GPa) = 90.64269 102.89992 103.68465
#
# Poissons Ratio (x) = 0.05816 0.37782
# Poissons Ratio (y) = 0.05123 0.37119
# Poissons Ratio (z) = 0.33030 0.36838
#
# Static dielectric constant tensor:
#      x y z
#    x 27.376250 -0.000830 -33.531950 
#    y -0.000830 1.764840 0.001090 
#    z -33.531950 0.001090 45.738320 
# 
# From -- ./inp_files/238934.got.cif
#   From: 2010.05.17/outbox.cif.g08.bks.cpg/sg15_120_cif.got.tgz:238934.got - 2010.06.03 18:47:42.
