data_PCOD9286638
_publ_section_title
;
Structure prediction by ZEFSAII (Michael W. Deem and Ramdas Pophale) SiO2 
 PCOD9286638
Probable space group: C 2/C
;
_chemical_formula_sum "Si O2"
_cell_formula_units_Z 52
_cell_length_a 20.497911
_cell_length_b 8.446711
_cell_length_c 14.742867
_cell_angle_alpha 90.000000
_cell_angle_beta 104.332843
_cell_angle_gamma 90.000000
_cell_volume 2473.127361
_symmetry_space_group_name_H-M "C 2/C"
_symmetry_group_IT_number 15
_symmetry_cell_setting 'monoclinic'
loop_
_space_group_symop_operation_xyz
x,y,z
-x,y,1/2-z
-x,-y,-z
x,-y,1/2+z
1/2+x,1/2+y,z
1/2-x,1/2+y,1/2-z
1/2-x,1/2-y,-z
1/2+x,1/2-y,1/2+z
loop_
_atom_site_type_symbol
_atom_site_label
_atom_site_fract_x
_atom_site_fract_y
_atom_site_fract_z
Si Si1 0.640742 0.049206 0.214530
Si Si2 0.148964 0.814935 0.087583
Si Si3 0.559990 0.399772 0.561938
Si Si4 0.232484 0.527292 0.415630
Si Si5 0.000000 0.537639 0.250000
Si Si6 0.331925 0.816959 0.440150
Si Si7 0.468310 0.128149 0.560979
O O1 0.672647 0.199664 0.174786
O O2 0.683326 0.997795 0.315448
O O3 0.564548 0.103245 0.215487
O O4 0.646067 0.908577 0.142592
O O5 0.110426 0.968123 0.116912
O O6 0.211428 0.891222 0.056056
O O7 0.095170 0.716133 0.008034
O O8 0.500000 0.500000 0.500000
O O9 0.604968 0.293583 0.508789
O O10 0.521521 0.266839 0.604595
O O11 0.271613 0.692241 0.407552
O O12 0.190937 0.559636 0.492271
O O13 0.040840 0.453096 0.345589
O O14 0.500000 0.000000 0.500000
#
# Coordination Sequence:
#
# PCOD9286638 Si02
#       7
#     8   8   8   8   4   8   8
#     4  12  24  40  65  95 134 168 225 270 325 402
#     4  10  22  42  65  97 129 177 216 276 335 391
#     4   9  19  37  65  88 128 170 211 274 323 385
#     4  10  24  42  68  94 128 177 220 268 342 390
#     4  12  26  38  66 102 120 180 216 268 334 402
#     4  10  21  44  63  91 130 171 217 272 328 392
#     4  11  21  43  66  93 134 174 223 272 332 397
#
# _framework density 21.026008999999998
#
# number of rings (size 3 to 8) (size 9 to 14) (size 15 to 20)
#    0.000    1.538    3.077    0.923    4.308    0.615 
#    2.769    6.923    0.000    0.000    0.000    0.000 
#    0.000    0.000    0.000    0.000    0.000    0.000 
#
# Total GULP energy -144788.425819 kJ/mol
# GULP energy per Si atom -5568.785608 kJ/mol
# Density = 2.097815 g / cm^3
# Si number density = 21.026009 Si / 1000 Ang^3
#
#
#
# Elastic Constant Matrix: (Units=GPa)
#
#
# Indices 1 2 3 4 5 6 
#
# 1 109.7224 44.8287 40.5130 0.0000 -1.2831 0.0000
# 2 44.8287 92.5187 30.4982 0.0000 -6.6836 0.0000
# 3 40.5130 30.4982 99.4398 0.0000 -2.0217 0.0000
# 4 0.0000 0.0000 0.0000 18.1388 0.0000 -1.7422
# 5 -1.2831 -6.6836 -2.0217 0.0000 27.4271 0.0000
# 6 0.0000 0.0000 0.0000 -1.7422 0.0000 51.3001
#
#
#
# Elastic Compliance Matrix: (Units=1/GPa)
#
#
# Indices 1 2 3 4 5 6 
#
# 1 0.012429 -0.004907 -0.003577 0.000000 -0.000878 0.000000
# 2 -0.004907 0.014159 -0.002281 0.000000 0.003053 0.000000
# 3 -0.003577 -0.002281 0.012217 0.000000 0.000177 0.000000
# 4 0.000000 0.000000 0.000000 0.055311 0.000000 0.001878
# 5 -0.000878 0.003053 0.000177 0.000000 0.037176 0.000000
# 6 0.000000 0.000000 0.000000 0.001878 0.000000 0.019557
#
#
# Mechanical properties :
#
#
# Convention : Reuss Voigt Hill
#
# Bulk Modulus (GPa) = 57.88718 59.26232 58.57475
# Shear Modulus (GPa) = 28.06841 31.76260 29.91550
#
# Velocity S-wave (km/s) = 3.65764 3.89090 3.77608
# Velocity P-wave (km/s) = 6.74009 6.95931 6.85057
#
# Compressibility (1/GPa) = 0.01727498
#
# Stress axis : x y z
#
# Youngs Moduli (GPa) = 80.45727 70.62821 81.85445
#
# Poissons Ratio (x) = 0.34655 0.29277
# Poissons Ratio (y) = 0.39478 0.18674
# Poissons Ratio (z) = 0.28777 0.16113
#
# Static dielectric constant tensor:
#      x y z
#    x 1.847190 0.000000 0.005230 
#    y 0.000000 1.803120 0.000000 
#    z 0.005230 0.000000 1.723700 
# 
# From -- ./inp_files/166345.got.cif
#   From: 2010.05.17/outbox.cif.g08.bks.cpg/sg15_84_cif.got.tgz:166345.got - 2010.06.03 18:47:42.
