data_PCOD9286904
_publ_section_title
;
Structure prediction by ZEFSAII (Michael W. Deem and Ramdas Pophale) SiO2 
 PCOD9286904
Probable space group: C 2/C
;
_chemical_formula_sum "Si O2"
_cell_formula_units_Z 56
_cell_length_a 12.257086
_cell_length_b 12.889640
_cell_length_c 13.447478
_cell_angle_alpha 90.000000
_cell_angle_beta 115.882819
_cell_angle_gamma 90.000000
_cell_volume 1911.442065
_symmetry_space_group_name_H-M "C 2/C"
_symmetry_group_IT_number 15
_symmetry_cell_setting 'monoclinic'
loop_
_space_group_symop_operation_xyz
x,y,z
-x,y,1/2-z
-x,-y,-z
x,-y,1/2+z
1/2+x,1/2+y,z
1/2-x,1/2+y,1/2-z
1/2-x,1/2-y,-z
1/2+x,1/2-y,1/2+z
loop_
_atom_site_type_symbol
_atom_site_label
_atom_site_fract_x
_atom_site_fract_y
_atom_site_fract_z
Si Si1 0.880502 0.671366 0.134502
Si Si2 0.746570 0.616621 0.270879
Si Si3 0.475888 0.378740 0.612530
Si Si4 0.091531 0.646285 0.878483
Si Si5 0.383917 0.078548 0.918328
Si Si6 0.546636 0.393279 0.409852
Si Si7 0.781888 0.839226 0.306652
O O1 0.778502 0.627056 0.166869
O O2 0.000000 0.653022 0.250000
O O3 0.875405 0.612495 0.028329
O O4 0.884578 0.793834 0.107151
O O5 0.601736 0.620202 0.225219
O O6 0.812099 0.519404 0.345591
O O7 0.806827 0.719589 0.340290
O O8 0.408856 0.269110 0.599029
O O9 0.523623 0.378699 0.517598
O O10 0.410012 0.490551 0.595695
O O11 0.219421 0.614544 0.880525
O O12 0.000000 0.628977 0.750000
O O13 0.024720 0.585309 0.939948
O O14 0.316670 0.164347 0.820977
O O15 0.405207 0.389643 0.318642
#
# Coordination Sequence:
#
# PCOD9286904 Si02
#       7
#     8   8   8   8   8   8   8
#     4  12  27  50  76 113 158 201 261 333 389 468
#     4  12  25  49  77 118 154 208 266 318 402 467
#     4  11  23  46  77 112 158 200 262 316 385 462
#     4  10  21  44  75 108 155 200 255 315 377 459
#     4  11  25  50  79 110 158 206 254 326 394 465
#     4  11  24  48  73 117 157 201 257 323 386 463
#     4  11  23  47  76 114 155 207 258 311 385 474
#
# _framework density 29.297250999999999
#
# number of rings (size 3 to 8) (size 9 to 14) (size 15 to 20)
#    0.000    0.857    7.143    0.000    0.000    5.714 
#    7.714    2.857    0.000    0.000    0.000    0.000 
#    0.000    0.000    0.000    0.000    0.000    0.000 
#
# Total GULP energy -157176.794688 kJ/mol
# GULP energy per Si atom -5613.456953 kJ/mol
# Density = 2.923057 g / cm^3
# Si number density = 29.297251 Si / 1000 Ang^3
#
#
#
# Elastic Constant Matrix: (Units=GPa)
#
#
# Indices 1 2 3 4 5 6 
#
# 1 161.9835 64.3057 45.4574 0.0000 -43.8328 0.0000
# 2 64.3057 190.1982 42.0987 0.0000 2.7154 0.0000
# 3 45.4574 42.0987 156.4779 0.0000 -21.4183 0.0000
# 4 0.0000 0.0000 0.0000 39.6303 0.0000 -0.7706
# 5 -43.8328 2.7154 -21.4183 0.0000 42.9703 0.0000
# 6 0.0000 0.0000 0.0000 -0.7706 0.0000 28.9854
#
#
#
# Elastic Compliance Matrix: (Units=1/GPa)
#
#
# Indices 1 2 3 4 5 6 
#
# 1 0.010742 -0.003642 -0.000654 0.000000 0.010862 0.000000
# 2 -0.003642 0.006882 -0.001461 0.000000 -0.004879 0.000000
# 3 -0.000654 -0.001461 0.007400 0.000000 0.003114 0.000000
# 4 0.000000 0.000000 0.000000 0.025246 0.000000 0.000671
# 5 0.010862 -0.004879 0.003114 0.000000 0.036212 0.000000
# 6 0.000000 0.000000 0.000000 0.000671 0.000000 0.034518
#
#
# Mechanical properties :
#
#
# Convention : Reuss Voigt Hill
#
# Bulk Modulus (GPa) = 74.02250 90.26479 82.14365
# Shear Modulus (GPa) = 36.49132 46.10372 41.29752
#
# Velocity S-wave (km/s) = 3.53307 3.97123 3.75854
# Velocity P-wave (km/s) = 6.47799 7.20448 6.85087
#
# Compressibility (1/GPa) = 0.01350941
#
# Stress axis : x y z
#
# Youngs Moduli (GPa) = 93.09105 145.30245 135.13518
#
# Poissons Ratio (x) = 0.52923 0.08838
# Poissons Ratio (y) = 0.33906 0.19747
# Poissons Ratio (z) = 0.06088 0.21233
#
# Static dielectric constant tensor:
#      x y z
#    x 2.270060 0.000000 0.005750 
#    y 0.000000 2.255950 0.000000 
#    z 0.005750 0.000000 2.319600 
# 
# From -- ./inp_files/204104.got.cif
#   From: 2010.05.17/outbox.cif.g08.bks.cpg/sg15_103_cif.got.tgz:204104.got - 2010.06.03 18:47:42.
