data_PCOD9286998
_publ_section_title
;
Structure prediction by ZEFSAII (Michael W. Deem and Ramdas Pophale) SiO2 
 PCOD9286998
Probable space group: C 2/C
;
_chemical_formula_sum "Si O2"
_cell_formula_units_Z 52
_cell_length_a 17.261600
_cell_length_b 6.439126
_cell_length_c 23.347982
_cell_angle_alpha 90.000000
_cell_angle_beta 56.799433
_cell_angle_gamma 90.000000
_cell_volume 2171.489128
_symmetry_space_group_name_H-M "C 2/C"
_symmetry_group_IT_number 15
_symmetry_cell_setting 'monoclinic'
loop_
_space_group_symop_operation_xyz
x,y,z
-x,y,1/2-z
-x,-y,-z
x,-y,1/2+z
1/2+x,1/2+y,z
1/2-x,1/2+y,1/2-z
1/2-x,1/2-y,-z
1/2+x,1/2-y,1/2+z
loop_
_atom_site_type_symbol
_atom_site_label
_atom_site_fract_x
_atom_site_fract_y
_atom_site_fract_z
Si Si1 0.861725 0.912669 0.769300
Si Si2 0.835195 0.613202 0.489174
Si Si3 0.854475 0.436843 0.362992
Si Si4 0.000000 0.761586 0.250000
Si Si5 0.361497 0.568092 0.061225
Si Si6 0.835266 0.377665 0.174976
Si Si7 0.410737 0.120797 0.056549
O O1 0.867037 0.787807 0.827927
O O2 0.857439 0.720126 0.726731
O O3 0.770193 0.049022 0.792147
O O4 0.944952 0.076638 0.731601
O O5 0.750000 0.750000 0.500000
O O6 0.869118 0.462044 0.425451
O O7 0.827190 0.471722 0.549715
O O8 0.891954 0.804127 0.492920
O O9 0.923428 0.609350 0.308539
O O10 0.747767 0.504864 0.396734
O O11 0.366085 0.705953 0.116181
O O12 0.415800 0.358594 0.042252
O O13 0.891606 0.577570 0.130763
O O14 0.500000 0.000000 0.000000
#
# Coordination Sequence:
#
# PCOD9286998 Si02
#       7
#     8   8   8   4   8   8   8
#     4  12  26  45  72 105 145 194 243 303 362 445
#     4   9  23  42  69 100 134 184 233 292 362 426
#     4  11  23  44  67 102 144 184 238 299 368 428
#     4  12  28  44  70 108 142 184 250 302 356 426
#     4  10  21  45  70  99 142 187 240 292 364 439
#     4  11  25  45  74 103 142 200 239 292 377 438
#     4  11  25  43  72 106 141 185 243 301 356 434
#
# _framework density 23.9467
#
# number of rings (size 3 to 8) (size 9 to 14) (size 15 to 20)
#    0.000    1.231    3.077    1.385    0.000   11.077 
#    0.000    0.000    0.000    0.000    0.000    0.000 
#    0.000    0.000    0.000    0.000    0.000    0.000 
#
# Total GULP energy -145094.255141 kJ/mol
# GULP energy per Si atom -5580.548275 kJ/mol
# Density = 2.389220 g / cm^3
# Si number density = 23.946700 Si / 1000 Ang^3
#
#
#
# Elastic Constant Matrix: (Units=GPa)
#
#
# Indices 1 2 3 4 5 6 
#
# 1 94.5103 45.5022 37.8355 0.0006 -15.4779 0.0070
# 2 45.5022 129.3720 26.2370 0.0086 10.3391 0.0058
# 3 37.8355 26.2370 73.5875 0.0002 13.5608 0.0007
# 4 0.0006 0.0086 0.0002 42.4795 -0.0019 -5.5436
# 5 -15.4779 10.3391 13.5608 -0.0019 26.2407 0.0016
# 6 0.0070 0.0058 0.0007 -5.5436 0.0016 49.8572
#
#
#
# Elastic Compliance Matrix: (Units=1/GPa)
#
#
# Indices 1 2 3 4 5 6 
#
# 1 0.023717 -0.007434 -0.013995 0.000002 0.024151 -0.000003
# 2 -0.007434 0.010752 0.001743 -0.000003 -0.009522 0.000000
# 3 -0.013995 0.001743 0.024107 -0.000001 -0.021399 0.000002
# 4 0.000002 -0.000003 -0.000001 0.023887 0.000004 0.002656
# 5 0.024151 -0.009522 -0.021399 0.000004 0.067165 -0.000004
# 6 -0.000003 0.000000 0.000002 0.002656 -0.000004 0.020353
#
#
# Mechanical properties :
#
#
# Convention : Reuss Voigt Hill
#
# Bulk Modulus (GPa) = 52.06738 57.40211 54.73475
# Shear Modulus (GPa) = 23.17475 36.24181 29.70828
#
# Velocity S-wave (km/s) = 3.11427 3.89451 3.52604
# Velocity P-wave (km/s) = 5.89252 6.65175 6.28361
#
# Compressibility (1/GPa) = 0.01920588
#
# Stress axis : x y z
#
# Youngs Moduli (GPa) = 42.16296 93.00926 41.48246
#
# Poissons Ratio (x) = 0.69141 0.58053
# Poissons Ratio (y) = 0.31343 -0.07232
# Poissons Ratio (z) = 0.59005 -0.16216
#
# Static dielectric constant tensor:
#      x y z
#    x 2.012560 0.000000 -0.012120 
#    y 0.000000 1.932730 0.000000 
#    z -0.012120 0.000000 1.931650 
# 
# From -- ./inp_files/278889.got.cif
#   From: 2010.05.17/outbox.cif.g08.bks.cpg/sg15_140_cif.got.tgz:278889.got - 2010.06.03 18:47:42.
