data_PCOD9286098
_publ_section_title
;
Structure prediction by ZEFSAII (Michael W. Deem and Ramdas Pophale) SiO2 
 PCOD9286098
Probable space group: C 2/C
;
_chemical_formula_sum "Si O2"
_cell_formula_units_Z 52
_cell_length_a 16.518286
_cell_length_b 8.525137
_cell_length_c 27.728161
_cell_angle_alpha 90.000000
_cell_angle_beta 30.791320
_cell_angle_gamma 90.000000
_cell_volume 1998.864458
_symmetry_space_group_name_H-M "C 2/C"
_symmetry_group_IT_number 15
_symmetry_cell_setting 'monoclinic'
loop_
_space_group_symop_operation_xyz
x,y,z
-x,y,1/2-z
-x,-y,-z
x,-y,1/2+z
1/2+x,1/2+y,z
1/2-x,1/2+y,1/2-z
1/2-x,1/2-y,-z
1/2+x,1/2-y,1/2+z
loop_
_atom_site_type_symbol
_atom_site_label
_atom_site_fract_x
_atom_site_fract_y
_atom_site_fract_z
Si Si1 0.000260 0.403964 0.671246
Si Si2 0.701259 0.022459 0.973516
Si Si3 0.892571 0.030258 0.617645
Si Si4 0.574565 0.538392 0.793033
Si Si5 0.801949 0.139838 0.072162
Si Si6 0.735214 0.815011 0.875584
Si Si7 0.000000 0.580480 0.750000
O O1 0.098303 0.446938 0.574065
O O2 0.118557 0.412314 0.658714
O O3 0.904469 0.544226 0.743361
O O4 0.931513 0.229916 0.706011
O O5 0.699729 0.186363 0.945989
O O6 0.888356 0.993210 0.886917
O O7 0.636782 0.894972 0.969117
O O8 0.846642 0.998887 0.695964
O O9 0.864306 0.204288 0.609286
O O10 0.086325 0.036909 0.518794
O O11 0.855328 0.894619 0.598442
O O12 0.673057 0.451755 0.701059
O O13 0.861882 0.705598 0.837215
#
# Coordination Sequence:
#
# PCOD9286098 Si02
#       7
#     8   8   8   8   8   8   4
#     4  11  23  45  75  97 131 189 242 273 339 420
#     4  11  22  46  73  99 129 187 237 277 332 422
#     4  11  23  44  67 105 142 174 224 288 348 398
#     4  11  23  45  71 100 137 180 232 282 339 414
#     4  10  21  42  71  98 134 179 231 277 334 413
#     4  12  27  43  68 105 147 172 229 293 349 399
#     4  12  26  44  64 106 140 178 230 292 344 404
#
# _framework density 26.014769999999999
#
# number of rings (size 3 to 8) (size 9 to 14) (size 15 to 20)
#    0.000    0.923    6.154    0.923    4.308    3.692 
#    5.538    0.000    0.000    0.000    0.000    0.000 
#    0.000    0.000    0.000    0.000    0.000    0.000 
#
# Total GULP energy -145268.952799 kJ/mol
# GULP energy per Si atom -5587.267415 kJ/mol
# Density = 2.595556 g / cm^3
# Si number density = 26.014770 Si / 1000 Ang^3
#
#
#
# Elastic Constant Matrix: (Units=GPa)
#
#
# Indices 1 2 3 4 5 6 
#
# 1 113.3258 56.6284 22.4962 -0.0010 46.1912 -0.0048
# 2 56.6284 94.3300 74.8890 -0.0009 46.7398 0.0012
# 3 22.4962 74.8890 127.0873 -0.0002 44.9261 -0.0005
# 4 -0.0010 -0.0009 -0.0002 40.0546 0.0004 -1.5501
# 5 46.1912 46.7398 44.9261 0.0004 37.7188 -0.0015
# 6 -0.0048 0.0012 -0.0005 -1.5501 -0.0015 25.8941
#
#
#
# Elastic Compliance Matrix: (Units=1/GPa)
#
#
# Indices 1 2 3 4 5 6 
#
# 1 0.024750 -0.006216 0.012563 0.000001 -0.037570 0.000003
# 2 -0.006216 0.033416 -0.011476 0.000001 -0.020127 -0.000004
# 3 0.012563 -0.011476 0.022142 0.000001 -0.027537 0.000002
# 4 0.000001 0.000001 0.000001 0.025024 -0.000003 0.001498
# 5 -0.037570 -0.020127 -0.027537 -0.000003 0.130261 0.000001
# 6 0.000003 -0.000004 0.000002 0.001498 0.000001 0.038709
#
#
# Mechanical properties :
#
#
# Convention : Reuss Voigt Hill
#
# Bulk Modulus (GPa) = 14.27549 71.41892 42.84720
# Shear Modulus (GPa) = 16.23855 32.78213 24.51034
#
# Velocity S-wave (km/s) = 2.50112 3.55369 3.07281
# Velocity P-wave (km/s) = 3.72024 6.65966 5.39404
#
# Compressibility (1/GPa) = 0.07005015
#
# Stress axis : x y z
#
# Youngs Moduli (GPa) = 40.40432 29.92538 45.16362
#
# Poissons Ratio (x) = 0.18602 -0.56740
# Poissons Ratio (y) = 0.25116 0.51829
# Poissons Ratio (z) = -0.50761 0.34342
#
# Static dielectric constant tensor:
#      x y z
#    x 2.240590 0.000000 -0.251260 
#    y 0.000000 1.994500 0.000000 
#    z -0.251260 0.000000 2.242790 
# 
# From -- ./inp_files/315345.got.cif
#   From: 2010.05.17/outbox.cif.g08.bks.cpg/sg15_158_cif.got.tgz:315345.got - 2010.06.03 18:47:42.
