data_PCOD9286041
_publ_section_title
;
Structure prediction by ZEFSAII (Michael W. Deem and Ramdas Pophale) SiO2 
 PCOD9286041
Probable space group: C 2/C
;
_chemical_formula_sum "Si O2"
_cell_formula_units_Z 44
_cell_length_a 11.968150
_cell_length_b 12.037167
_cell_length_c 14.063623
_cell_angle_alpha 90.000000
_cell_angle_beta 63.994191
_cell_angle_gamma 90.000000
_cell_volume 1820.904772
_symmetry_space_group_name_H-M "C 2/C"
_symmetry_group_IT_number 15
_symmetry_cell_setting 'monoclinic'
loop_
_space_group_symop_operation_xyz
x,y,z
-x,y,1/2-z
-x,-y,-z
x,-y,1/2+z
1/2+x,1/2+y,z
1/2-x,1/2+y,1/2-z
1/2-x,1/2-y,-z
1/2+x,1/2-y,1/2+z
loop_
_atom_site_type_symbol
_atom_site_label
_atom_site_fract_x
_atom_site_fract_y
_atom_site_fract_z
Si Si1 0.750572 0.234796 0.712766
Si Si2 0.429440 0.547577 0.432366
Si Si3 0.982733 0.817073 0.358402
Si Si4 0.896614 0.663531 0.554460
Si Si5 0.500000 0.719781 0.250000
Si Si6 0.830429 0.589560 0.035336
O O1 0.876522 0.166263 0.656408
O O2 0.623818 0.207728 0.705169
O O3 0.712177 0.853036 0.848699
O O4 0.702801 0.218526 0.837955
O O5 0.500000 0.500000 0.500000
O O6 0.419860 0.436015 0.372819
O O7 0.502513 0.637794 0.341299
O O8 0.289072 0.595734 0.489567
O O9 0.000000 0.761313 0.250000
O O10 0.910246 0.740799 0.457987
O O11 0.858935 0.539199 0.541434
O O12 0.039222 0.648803 0.539699
#
# Coordination Sequence:
#
# PCOD9286041 Si02
#       6
#     8   8   8   8   4   8
#     4  10  22  39  66  93 133 176 222 271 338 391
#     4  11  22  38  63  93 129 177 222 269 336 390
#     4  11  23  39  63 102 131 173 231 278 324 400
#     4  10  21  42  70  93 137 181 216 277 349 386
#     4  10  22  40  58  92 136 170 220 276 324 396
#     4   9  22  42  66  98 136 173 225 285 326 406
#
# _framework density 24.163812
#
# number of rings (size 3 to 8) (size 9 to 14) (size 15 to 20)
#    0.000    1.818    0.909    2.182    2.545    5.818 
#    0.000    5.455   18.000    0.000    0.000    0.000 
#    0.000    0.000    0.000    0.000    0.000    0.000 
#
# Total GULP energy -122834.200400 kJ/mol
# GULP energy per Si atom -5583.372745 kJ/mol
# Density = 2.410881 g / cm^3
# Si number density = 24.163812 Si / 1000 Ang^3
#
#
#
# Elastic Constant Matrix: (Units=GPa)
#
#
# Indices 1 2 3 4 5 6 
#
# 1 136.6752 19.2936 33.5242 0.0000 -18.7562 0.0000
# 2 19.2936 82.8040 50.8803 0.0000 -19.3230 0.0000
# 3 33.5242 50.8803 140.3955 0.0000 -13.1188 0.0000
# 4 0.0000 0.0000 0.0000 20.3147 0.0000 2.5366
# 5 -18.7562 -19.3230 -13.1188 0.0000 48.4013 0.0000
# 6 0.0000 0.0000 0.0000 2.5366 0.0000 36.5528
#
#
#
# Elastic Compliance Matrix: (Units=1/GPa)
#
#
# Indices 1 2 3 4 5 6 
#
# 1 0.008103 -0.000314 -0.001579 0.000000 0.002587 0.000000
# 2 -0.000314 0.016716 -0.005510 0.000000 0.005058 0.000000
# 3 -0.001579 -0.005510 0.009474 0.000000 -0.000244 0.000000
# 4 0.000000 0.000000 0.000000 0.049656 0.000000 -0.003446
# 5 0.002587 0.005058 -0.000244 0.000000 0.023616 0.000000
# 6 0.000000 0.000000 0.000000 -0.003446 0.000000 0.027597
#
#
# Mechanical properties :
#
#
# Convention : Reuss Voigt Hill
#
# Bulk Modulus (GPa) = 51.31899 63.03008 57.17453
# Shear Modulus (GPa) = 31.95594 38.13220 35.04407
#
# Velocity S-wave (km/s) = 3.64052 3.97680 3.81237
# Velocity P-wave (km/s) = 6.24142 6.87224 6.56441
#
# Compressibility (1/GPa) = 0.01948597
#
# Stress axis : x y z
#
# Youngs Moduli (GPa) = 123.40604 59.82199 105.55083
#
# Poissons Ratio (x) = 0.01878 0.16671
# Poissons Ratio (y) = 0.03874 0.58163
# Poissons Ratio (z) = 0.19492 0.32965
#
# Static dielectric constant tensor:
#      x y z
#    x 2.022040 0.000000 0.062580 
#    y 0.000000 1.837100 0.000000 
#    z 0.062580 0.000000 1.992240 
# 
# From -- ./inp_files/142943.got.cif
#   From: 2010.05.17/outbox.cif.g08.bks.cpg/sg15_72_cif.got.tgz:142943.got - 2010.06.03 18:47:42.
