data_PCOD9286160
_publ_section_title
;
Structure prediction by ZEFSAII (Michael W. Deem and Ramdas Pophale) SiO2 
 PCOD9286160
Probable space group: C 2/C
;
_chemical_formula_sum "Si O2"
_cell_formula_units_Z 52
_cell_length_a 19.944217
_cell_length_b 14.261773
_cell_length_c 8.874901
_cell_angle_alpha 90.000000
_cell_angle_beta 60.982423
_cell_angle_gamma 90.000000
_cell_volume 2207.493372
_symmetry_space_group_name_H-M "C 2/C"
_symmetry_group_IT_number 15
_symmetry_cell_setting 'monoclinic'
loop_
_space_group_symop_operation_xyz
x,y,z
-x,y,1/2-z
-x,-y,-z
x,-y,1/2+z
1/2+x,1/2+y,z
1/2-x,1/2+y,1/2-z
1/2-x,1/2-y,-z
1/2+x,1/2-y,1/2+z
loop_
_atom_site_type_symbol
_atom_site_label
_atom_site_fract_x
_atom_site_fract_y
_atom_site_fract_z
Si Si1 0.401311 0.667179 0.111976
Si Si2 0.759150 0.905371 0.319457
Si Si3 0.000000 0.821157 0.750000
Si Si4 0.000000 0.505815 0.250000
Si Si5 0.588835 0.885512 0.390661
Si Si6 0.745057 0.896031 0.696279
Si Si7 0.000000 0.806963 0.250000
Si Si8 0.885323 0.255516 0.623696
O O1 0.442061 0.619469 0.208514
O O2 0.426102 0.775624 0.103980
O O3 0.311855 0.672046 0.180912
O O4 0.445770 0.632755 0.916627
O O5 0.678596 0.890447 0.323892
O O6 0.747177 0.902889 0.513057
O O7 0.823116 0.828491 0.208283
O O8 0.774819 0.009840 0.243906
O O9 0.061462 0.765201 0.578114
O O10 0.059813 0.441282 0.276431
O O11 0.955297 0.567731 0.421011
O O12 0.662588 0.852599 0.830968
O O13 0.939019 0.749785 0.213875
#
# Coordination Sequence:
#
# PCOD9286160 Si02
#       8
#     8   8   4   4   8   8   4   8
#     4  11  22  44  70 105 141 197 244 298 380 440
#     4  12  26  46  75 115 149 199 247 306 379 455
#     4  10  27  42  77 110 142 202 250 321 371 434
#     4  10  24  40  66 110 150 188 242 306 364 464
#     4  11  22  42  68 101 150 191 234 298 373 440
#     4  12  27  47  77 110 150 196 247 313 377 456
#     4  10  21  42  79 102 140 202 252 303 357 458
#     4  11  24  51  77 111 152 200 258 306 380 448
#
# _framework density 23.556128000000001
#
# number of rings (size 3 to 8) (size 9 to 14) (size 15 to 20)
#    0.000    0.923    3.077    3.231    2.154    9.231 
#    0.000    4.615    0.000    0.923    0.000    0.000 
#    0.000    0.000    0.000    0.000    0.000    0.000 
#
# Total GULP energy -145309.524607 kJ/mol
# GULP energy per Si atom -5588.827869 kJ/mol
# Density = 2.350251 g / cm^3
# Si number density = 23.556128 Si / 1000 Ang^3
#
#
#
# Elastic Constant Matrix: (Units=GPa)
#
#
# Indices 1 2 3 4 5 6 
#
# 1 189.4541 24.2640 44.5372 0.0000 11.6416 0.0000
# 2 24.2640 82.3235 17.2235 0.0000 -2.1752 0.0000
# 3 44.5372 17.2235 118.0933 0.0000 8.9208 0.0000
# 4 0.0000 0.0000 0.0000 11.9197 0.0000 -2.1220
# 5 11.6416 -2.1752 8.9208 0.0000 38.4030 0.0000
# 6 0.0000 0.0000 0.0000 -2.1220 0.0000 30.5052
#
#
#
# Elastic Compliance Matrix: (Units=1/GPa)
#
#
# Indices 1 2 3 4 5 6 
#
# 1 0.006005 -0.001400 -0.001951 0.000000 -0.001446 0.000000
# 2 -0.001400 0.012906 -0.001467 0.000000 0.001496 0.000000
# 3 -0.001951 -0.001467 0.009547 0.000000 -0.001709 0.000000
# 4 0.000000 0.000000 0.000000 0.084947 0.000000 0.005909
# 5 -0.001446 0.001496 -0.001709 0.000000 0.026960 0.000000
# 6 0.000000 0.000000 0.000000 0.005909 0.000000 0.033192
#
#
# Mechanical properties :
#
#
# Convention : Reuss Voigt Hill
#
# Bulk Modulus (GPa) = 53.13179 62.43560 57.78370
# Shear Modulus (GPa) = 26.38956 36.42200 31.40578
#
# Velocity S-wave (km/s) = 3.35070 3.93641 3.65531
# Velocity P-wave (km/s) = 6.12976 6.87190 6.51141
#
# Compressibility (1/GPa) = 0.01882112
#
# Stress axis : x y z
#
# Youngs Moduli (GPa) = 166.52162 77.48119 104.74564
#
# Poissons Ratio (x) = 0.10847 0.20439
# Poissons Ratio (y) = 0.23312 0.15371
# Poissons Ratio (z) = 0.32494 0.11370
#
# Static dielectric constant tensor:
#      x y z
#    x 1.943590 0.000000 0.042070 
#    y 0.000000 2.036150 0.000000 
#    z 0.042070 0.000000 1.952600 
# 
# From -- ./inp_files/61458.got.cif
#   From: 2010.05.17/outbox.cif.g08.bks.cpg/sg15_31_cif.got.tgz:61458.got - 2010.06.03 18:47:42.
