data_PCOD9286396
_publ_section_title
;
Structure prediction by ZEFSAII (Michael W. Deem and Ramdas Pophale) SiO2 
 PCOD9286396
Probable space group: C 2/C
;
_chemical_formula_sum "Si O2"
_cell_formula_units_Z 48
_cell_length_a 10.230398
_cell_length_b 11.273376
_cell_length_c 21.605372
_cell_angle_alpha 90.000000
_cell_angle_beta 46.448367
_cell_angle_gamma 90.000000
_cell_volume 1805.920984
_symmetry_space_group_name_H-M "C 2/C"
_symmetry_group_IT_number 15
_symmetry_cell_setting 'monoclinic'
loop_
_space_group_symop_operation_xyz
x,y,z
-x,y,1/2-z
-x,-y,-z
x,-y,1/2+z
1/2+x,1/2+y,z
1/2-x,1/2+y,1/2-z
1/2-x,1/2-y,-z
1/2+x,1/2-y,1/2+z
loop_
_atom_site_type_symbol
_atom_site_label
_atom_site_fract_x
_atom_site_fract_y
_atom_site_fract_z
Si Si1 0.821752 0.576345 0.841060
Si Si2 0.764930 0.823805 0.789166
Si Si3 0.726092 0.521862 0.618611
Si Si4 0.408965 0.365125 0.606335
Si Si5 0.632158 0.243433 0.100661
Si Si6 0.106281 0.634536 0.539373
O O1 0.803352 0.704058 0.814225
O O2 0.633159 0.505177 0.890471
O O3 0.000000 0.520035 0.750000
O O4 0.867593 0.595022 0.898223
O O5 0.818240 0.937413 0.810796
O O6 0.858981 0.829900 0.692435
O O7 0.550357 0.824864 0.851722
O O8 0.594749 0.626494 0.640827
O O9 0.912661 0.585251 0.577650
O O10 0.757710 0.436121 0.549684
O O11 0.252608 0.320739 0.611672
O O12 0.578785 0.277101 0.536694
O O13 0.750000 0.250000 0.000000
#
# Coordination Sequence:
#
# PCOD9286396 Si02
#       6
#     8   8   8   8   8   8
#     4  12  24  42  64  95 142 176 226 292 342 411
#     4  12  25  41  64 103 134 180 235 277 351 422
#     4  10  22  41  70  94 139 170 230 290 340 413
#     4  11  23  41  70  93 135 180 232 284 343 419
#     4  11  23  44  71 101 130 183 236 287 350 414
#     4  10  21  43  67  99 123 183 225 279 350 406
#
# _framework density 26.579236999999999
#
# number of rings (size 3 to 8) (size 9 to 14) (size 15 to 20)
#    0.000    1.000    1.667    7.500    2.333    2.000 
#    0.000    5.833    0.000    0.000    0.000    0.000 
#    0.000    0.000    0.000    0.000    0.000    0.000 
#
# Total GULP energy -134617.027551 kJ/mol
# GULP energy per Si atom -5609.042815 kJ/mol
# Density = 2.651874 g / cm^3
# Si number density = 26.579237 Si / 1000 Ang^3
#
#
#
# Elastic Constant Matrix: (Units=GPa)
#
#
# Indices 1 2 3 4 5 6 
#
# 1 94.2091 31.9576 30.2965 0.0000 33.3007 0.0000
# 2 31.9576 138.5909 13.0578 0.0000 13.3941 0.0000
# 3 30.2965 13.0578 117.1436 0.0000 23.0696 0.0000
# 4 0.0000 0.0000 0.0000 23.2005 0.0000 -3.7853
# 5 33.3007 13.3941 23.0696 0.0000 55.2758 0.0000
# 6 0.0000 0.0000 0.0000 -3.7853 0.0000 36.0561
#
#
#
# Elastic Compliance Matrix: (Units=1/GPa)
#
#
# Indices 1 2 3 4 5 6 
#
# 1 0.014748 -0.002488 -0.002076 0.000000 -0.007415 0.000000
# 2 -0.002488 0.007837 -0.000165 0.000000 -0.000331 0.000000
# 3 -0.002076 -0.000165 0.009629 0.000000 -0.002728 0.000000
# 4 0.000000 0.000000 0.000000 0.043854 0.000000 0.004604
# 5 -0.007415 -0.000331 -0.002728 0.000000 0.023777 0.000000
# 6 0.000000 0.000000 0.000000 0.004604 0.000000 0.028218
#
#
# Mechanical properties :
#
#
# Convention : Reuss Voigt Hill
#
# Bulk Modulus (GPa) = 43.94780 55.61861 49.78320
# Shear Modulus (GPa) = 34.45753 41.21526 37.83640
#
# Velocity S-wave (km/s) = 3.60447 3.94211 3.77707
# Velocity P-wave (km/s) = 5.82181 6.45688 6.14755
#
# Compressibility (1/GPa) = 0.02275427
#
# Stress axis : x y z
#
# Youngs Moduli (GPa) = 67.80763 127.60318 103.85132
#
# Poissons Ratio (x) = 0.31752 0.21564
# Poissons Ratio (y) = 0.16873 0.01711
# Poissons Ratio (z) = 0.14080 0.02103
#
# Static dielectric constant tensor:
#      x y z
#    x 1.975080 0.000000 -0.033440 
#    y 0.000000 2.144720 0.000000 
#    z -0.033440 0.000000 1.987760 
# 
# From -- ./inp_files/237417.got.cif
#   From: 2010.05.17/outbox.cif.g08.bks.cpg/sg15_119_cif.got.tgz:237417.got - 2010.06.03 18:47:42.
