data_PCOD9286409
_publ_section_title
;
Structure prediction by ZEFSAII (Michael W. Deem and Ramdas Pophale) SiO2 
 PCOD9286409
Probable space group: C 2/C
;
_chemical_formula_sum "Si O2"
_cell_formula_units_Z 40
_cell_length_a 13.449366
_cell_length_b 4.984126
_cell_length_c 30.133493
_cell_angle_alpha 90.000000
_cell_angle_beta 80.388923
_cell_angle_gamma 90.000000
_cell_volume 1991.596076
_symmetry_space_group_name_H-M "C 2/C"
_symmetry_group_IT_number 15
_symmetry_cell_setting 'monoclinic'
loop_
_space_group_symop_operation_xyz
x,y,z
-x,y,1/2-z
-x,-y,-z
x,-y,1/2+z
1/2+x,1/2+y,z
1/2-x,1/2+y,1/2-z
1/2-x,1/2-y,-z
1/2+x,1/2-y,1/2+z
loop_
_atom_site_type_symbol
_atom_site_label
_atom_site_fract_x
_atom_site_fract_y
_atom_site_fract_z
Si Si1 0.107610 0.981993 0.658985
Si Si2 0.816721 0.953653 0.445331
Si Si3 0.491362 0.964296 0.697875
Si Si4 0.231667 0.661260 0.780440
Si Si5 0.385903 0.956005 0.493430
O O1 0.149837 0.975085 0.606396
O O2 0.070656 0.693242 0.678298
O O3 0.191372 0.099889 0.685964
O O4 0.015649 0.192228 0.670232
O O5 0.867661 0.158255 0.476440
O O6 0.696743 0.982797 0.462228
O O7 0.854012 0.659271 0.456473
O O8 0.500000 0.910833 0.750000
O O9 0.380641 0.079432 0.697734
O O10 0.237580 0.964241 0.762478
O O11 0.500000 0.000000 0.500000
#
# Coordination Sequence:
#
# PCOD9286409 Si02
#       5
#     8   8   8   8   8
#     4  12  24  40  60  93 127 156 213 258 290 364
#     4  10  23  39  63  96 123 158 200 254 305 361
#     4  12  23  40  63  84 122 170 207 254 303 348
#     4  12  23  39  61  85 116 166 209 248 302 349
#     4  10  21  43  68  89 125 160 195 246 317 376
#
# _framework density 20.084394
#
# number of rings (size 3 to 8) (size 9 to 14) (size 15 to 20)
#    0.000    0.800    4.000    3.600    0.000    3.200 
#    0.000    0.000    0.000    0.000    0.000    0.000 
#    0.000    0.000    0.000    0.000    0.000    0.000 
#
# Total GULP energy -111899.196595 kJ/mol
# GULP energy per Si atom -5594.959830 kJ/mol
# Density = 2.003868 g / cm^3
# Si number density = 20.084394 Si / 1000 Ang^3
#
#
#
# Elastic Constant Matrix: (Units=GPa)
#
#
# Indices 1 2 3 4 5 6 
#
# 1 105.3796 -14.1185 23.9235 0.0001 -23.0060 0.0001
# 2 -14.1185 63.9544 1.6254 0.0002 -8.8712 0.0002
# 3 23.9235 1.6254 108.0033 -0.0001 -18.9660 0.0001
# 4 0.0001 0.0002 -0.0001 19.3183 0.0001 -7.2997
# 5 -23.0060 -8.8712 -18.9660 0.0001 14.8039 0.0000
# 6 0.0001 0.0002 0.0001 -7.2997 0.0000 18.3420
#
#
#
# Elastic Compliance Matrix: (Units=1/GPa)
#
#
# Indices 1 2 3 4 5 6 
#
# 1 0.018154 0.009013 0.002253 0.000000 0.036500 0.000000
# 2 0.009013 0.021865 0.003142 -0.000001 0.031135 0.000000
# 3 0.002253 0.003142 0.012462 0.000000 0.021349 0.000000
# 4 0.000000 -0.000001 0.000000 0.060927 -0.000001 0.024247
# 5 0.036500 0.031135 0.021349 -0.000001 0.170280 -0.000001
# 6 0.000000 0.000000 0.000000 0.024247 -0.000001 0.064170
#
#
# Mechanical properties :
#
#
# Convention : Reuss Voigt Hill
#
# Bulk Modulus (GPa) = 12.30069 33.35533 22.82801
# Shear Modulus (GPa) = 14.44502 28.21996 21.33249
#
# Velocity S-wave (km/s) = 2.68473 3.75249 3.26259
# Velocity P-wave (km/s) = 3.96840 5.95135 5.05800
#
# Compressibility (1/GPa) = 0.08129627
#
# Stress axis : x y z
#
# Youngs Moduli (GPa) = 55.08392 45.73553 80.24612
#
# Poissons Ratio (x) = -0.41223 -0.18076
# Poissons Ratio (y) = -0.49649 -0.25212
# Poissons Ratio (z) = -0.12408 -0.14370
#
# Static dielectric constant tensor:
#      x y z
#    x 1.713300 0.000000 -0.018220 
#    y 0.000000 1.691930 0.000000 
#    z -0.018220 0.000000 1.677470 
# 
# From -- ./inp_files/120759.got.cif
#   From: 2010.05.17/outbox.cif.g08.bks.cpg/sg15_61_cif.got.tgz:120759.got - 2010.06.03 18:47:42.
