data_PCOD9286597
_publ_section_title
;
Structure prediction by ZEFSAII (Michael W. Deem and Ramdas Pophale) SiO2 
 PCOD9286597
Probable space group: C 2/C
;
_chemical_formula_sum "Si O2"
_cell_formula_units_Z 60
_cell_length_a 7.321342
_cell_length_b 22.050510
_cell_length_c 22.446071
_cell_angle_alpha 90.000000
_cell_angle_beta 44.871565
_cell_angle_gamma 90.000000
_cell_volume 2556.577495
_symmetry_space_group_name_H-M "C 2/C"
_symmetry_group_IT_number 15
_symmetry_cell_setting 'monoclinic'
loop_
_space_group_symop_operation_xyz
x,y,z
-x,y,1/2-z
-x,-y,-z
x,-y,1/2+z
1/2+x,1/2+y,z
1/2-x,1/2+y,1/2-z
1/2-x,1/2-y,-z
1/2+x,1/2-y,1/2+z
loop_
_atom_site_type_symbol
_atom_site_label
_atom_site_fract_x
_atom_site_fract_y
_atom_site_fract_z
Si Si1 0.725573 0.588437 0.556847
Si Si2 0.500000 0.041555 0.250000
Si Si3 0.744854 0.347530 0.526657
Si Si4 0.887403 0.277991 0.377448
Si Si5 0.002046 0.402845 0.878175
Si Si6 0.055304 0.739172 0.099642
Si Si7 0.417564 0.666996 0.708033
Si Si8 0.416952 0.462191 0.868259
O O1 0.472235 0.620810 0.641589
O O2 0.744547 0.522548 0.581153
O O3 0.965110 0.632584 0.519808
O O4 0.766235 0.580292 0.477088
O O5 0.534494 0.076879 0.180323
O O6 0.785465 0.014478 0.198847
O O7 0.767665 0.324298 0.453856
O O8 0.626526 0.289436 0.589178
O O9 0.596242 0.408792 0.578899
O O10 0.703010 0.270129 0.363949
O O11 0.148302 0.304412 0.290180
O O12 0.265235 0.430279 0.847583
O O13 0.000056 0.330398 0.877762
O O14 0.107957 0.775762 0.147939
O O15 0.250000 0.750000 0.000000
O O16 0.500000 0.633701 0.750000
#
# Coordination Sequence:
#
# PCOD9286597 Si02
#       8
#     8   4   8   8   8   8   8   8
#     4  11  23  53  77 105 155 210 251 311 390 465
#     4  12  30  46  72 120 144 200 264 332 376 458
#     4  10  21  43  74 109 138 199 248 307 378 461
#     4  11  23  41  72 106 151 181 251 313 381 458
#     4  11  25  50  77 109 153 203 261 314 393 451
#     4  12  25  45  70 103 152 196 243 321 386 462
#     4  12  26  42  69 109 142 194 242 309 381 453
#     4  11  26  50  80 108 154 205 261 320 384 462
#
# _framework density 23.468878
#
# number of rings (size 3 to 8) (size 9 to 14) (size 15 to 20)
#    0.000    0.800    5.333    2.400    6.533    2.667 
#    4.800    0.000    0.000    0.000    0.000    0.000 
#    0.000    0.000    0.000    0.000    0.000    0.000 
#
# Total GULP energy -167292.564955 kJ/mol
# GULP energy per Si atom -5576.418832 kJ/mol
# Density = 2.341546 g / cm^3
# Si number density = 23.468878 Si / 1000 Ang^3
#
#
#
# Elastic Constant Matrix: (Units=GPa)
#
#
# Indices 1 2 3 4 5 6 
#
# 1 71.5458 16.2187 49.4256 0.0000 1.9393 0.0000
# 2 16.2187 111.8019 35.1450 0.0000 -4.5202 0.0000
# 3 49.4256 35.1450 147.7779 0.0000 -0.0394 0.0000
# 4 0.0000 0.0000 0.0000 10.6232 0.0000 -7.6970
# 5 1.9393 -4.5202 -0.0394 0.0000 50.5058 0.0000
# 6 0.0000 0.0000 0.0000 -7.6970 0.0000 17.1243
#
#
#
# Elastic Compliance Matrix: (Units=1/GPa)
#
#
# Indices 1 2 3 4 5 6 
#
# 1 0.018271 -0.000823 -0.005916 0.000000 -0.000780 0.000000
# 2 -0.000823 0.009742 -0.002042 0.000000 0.000902 0.000000
# 3 -0.005916 -0.002042 0.009231 0.000000 0.000052 0.000000
# 4 0.000000 0.000000 0.000000 0.139596 0.000000 0.062746
# 5 -0.000780 0.000902 0.000052 0.000000 0.019910 0.000000
# 6 0.000000 0.000000 0.000000 0.062746 0.000000 0.086600
#
#
# Mechanical properties :
#
#
# Convention : Reuss Voigt Hill
#
# Bulk Modulus (GPa) = 50.80021 59.18935 54.99478
# Shear Modulus (GPa) = 16.26170 31.00640 23.63405
#
# Velocity S-wave (km/s) = 2.63516 3.63873 3.17683
# Velocity P-wave (km/s) = 5.56341 6.55202 6.07785
#
# Compressibility (1/GPa) = 0.01968496
#
# Stress axis : x y z
#
# Youngs Moduli (GPa) = 54.73061 102.64904 108.33090
#
# Poissons Ratio (x) = 0.08443 0.64084
# Poissons Ratio (y) = 0.04502 0.22116
# Poissons Ratio (z) = 0.32376 0.20956
#
# Static dielectric constant tensor:
#      x y z
#    x 2.028920 0.000000 -0.002580 
#    y 0.000000 1.902110 0.000000 
#    z -0.002580 0.000000 1.957900 
# 
# From -- ./inp_files/266213.got.cif
#   From: 2010.05.17/outbox.cif.g08.bks.cpg/sg15_134_cif.got.tgz:266213.got - 2010.06.03 18:47:42.
