data_PCOD9286800
_publ_section_title
;
Structure prediction by ZEFSAII (Michael W. Deem and Ramdas Pophale) SiO2 
 PCOD9286800
Probable space group: C 2/C
;
_chemical_formula_sum "Si O2"
_cell_formula_units_Z 40
_cell_length_a 8.389912
_cell_length_b 24.211671
_cell_length_c 16.279073
_cell_angle_alpha 90.000000
_cell_angle_beta 33.635727
_cell_angle_gamma 90.000000
_cell_volume 1831.688772
_symmetry_space_group_name_H-M "C 2/C"
_symmetry_group_IT_number 15
_symmetry_cell_setting 'monoclinic'
loop_
_space_group_symop_operation_xyz
x,y,z
-x,y,1/2-z
-x,-y,-z
x,-y,1/2+z
1/2+x,1/2+y,z
1/2-x,1/2+y,1/2-z
1/2-x,1/2-y,-z
1/2+x,1/2-y,1/2+z
loop_
_atom_site_type_symbol
_atom_site_label
_atom_site_fract_x
_atom_site_fract_y
_atom_site_fract_z
Si Si1 0.287402 0.591359 0.021946
Si Si2 0.638389 0.387150 0.817079
Si Si3 0.168531 0.772539 0.866777
Si Si4 0.310026 0.491749 0.903999
Si Si5 0.214818 0.812326 0.322662
O O1 0.326261 0.596367 0.102669
O O2 0.956003 0.605451 0.142533
O O3 0.347841 0.529718 0.966848
O O4 0.508273 0.636225 0.891271
O O5 0.559707 0.322854 0.855680
O O6 0.410834 0.429372 0.877194
O O7 0.500000 0.785727 0.750000
O O8 0.188617 0.719232 0.800820
O O9 0.973772 0.774096 0.032685
O O10 0.500000 0.516061 0.750000
O O11 0.000000 0.500000 0.000000
O O12 0.500000 0.829872 0.250000
#
# Coordination Sequence:
#
# PCOD9286800 Si02
#       5
#     8   8   8   8   8
#     4  10  22  44  67  93 131 179 222 268 331 411
#     4  10  21  44  69  93 131 182 220 263 339 410
#     4  11  22  43  71  97 135 182 227 274 338 403
#     4  12  25  42  66 101 135 167 221 284 338 388
#     4  11  24  43  66 103 136 176 230 280 335 400
#
# _framework density 21.837769999999999
#
# number of rings (size 3 to 8) (size 9 to 14) (size 15 to 20)
#    0.000    1.200    6.000    1.800    0.000    4.800 
#    3.600    0.000    0.000    0.000    0.000    0.000 
#    0.000    0.000    0.000    0.000    0.000    0.000 
#
# Total GULP energy -111721.051897 kJ/mol
# GULP energy per Si atom -5586.052595 kJ/mol
# Density = 2.178807 g / cm^3
# Si number density = 21.837770 Si / 1000 Ang^3
#
#
#
# Elastic Constant Matrix: (Units=GPa)
#
#
# Indices 1 2 3 4 5 6 
#
# 1 58.1541 34.7295 10.8766 0.0000 -24.7418 0.0000
# 2 34.7295 91.8372 5.1168 0.0000 -16.2493 0.0000
# 3 10.8766 5.1168 78.9291 0.0001 -26.0685 0.0000
# 4 0.0000 0.0000 0.0001 30.6535 0.0000 3.2224
# 5 -24.7418 -16.2493 -26.0685 0.0000 32.4336 0.0000
# 6 0.0000 0.0000 0.0000 3.2224 0.0000 23.7843
#
#
#
# Elastic Compliance Matrix: (Units=1/GPa)
#
#
# Indices 1 2 3 4 5 6 
#
# 1 0.030778 -0.007861 0.003706 0.000000 0.022519 0.000000
# 2 -0.007861 0.014113 0.000712 0.000000 0.001646 0.000000
# 3 0.003706 0.000712 0.017922 0.000000 0.017588 0.000000
# 4 0.000000 0.000000 0.000000 0.033094 0.000000 -0.004484
# 5 0.022519 0.001646 0.017588 0.000000 0.062972 0.000000
# 6 0.000000 0.000000 0.000000 -0.004484 0.000000 0.042652
#
#
# Mechanical properties :
#
#
# Convention : Reuss Voigt Hill
#
# Bulk Modulus (GPa) = 17.88060 36.70736 27.29398
# Shear Modulus (GPa) = 22.02062 29.25411 25.63737
#
# Velocity S-wave (km/s) = 3.17893 3.66404 3.43007
# Velocity P-wave (km/s) = 4.65616 5.89456 5.31158
#
# Compressibility (1/GPa) = 0.05592653
#
# Stress axis : x y z
#
# Youngs Moduli (GPa) = 32.49078 70.85541 55.79789
#
# Poissons Ratio (x) = 0.55701 -0.20678
# Poissons Ratio (y) = 0.25542 -0.03973
# Poissons Ratio (z) = -0.12041 -0.05046
#
# Static dielectric constant tensor:
#      x y z
#    x 1.794370 0.000000 0.003880 
#    y 0.000000 1.800630 0.000000 
#    z 0.003880 0.000000 1.801920 
# 
# From -- ./inp_files/23485.got.cif
#   From: 2010.05.17/outbox.cif.g08.bks.cpg/sg15_12_cif.got.tgz:23485.got - 2010.06.03 18:47:42.
