data_PCOD9286548
_publ_section_title
;
Structure prediction by ZEFSAII (Michael W. Deem and Ramdas Pophale) SiO2 
 PCOD9286548
Probable space group: C 2/C
;
_chemical_formula_sum "Si O2"
_cell_formula_units_Z 44
_cell_length_a 26.665823
_cell_length_b 9.397149
_cell_length_c 8.591888
_cell_angle_alpha 90.000000
_cell_angle_beta 56.307943
_cell_angle_gamma 90.000000
_cell_volume 1791.345005
_symmetry_space_group_name_H-M "C 2/C"
_symmetry_group_IT_number 15
_symmetry_cell_setting 'monoclinic'
loop_
_space_group_symop_operation_xyz
x,y,z
-x,y,1/2-z
-x,-y,-z
x,-y,1/2+z
1/2+x,1/2+y,z
1/2-x,1/2+y,1/2-z
1/2-x,1/2-y,-z
1/2+x,1/2-y,1/2+z
loop_
_atom_site_type_symbol
_atom_site_label
_atom_site_fract_x
_atom_site_fract_y
_atom_site_fract_z
Si Si1 0.137445 0.945015 0.833854
Si Si2 0.205544 0.237852 0.721320
Si Si3 0.750000 0.750000 0.000000
Si Si4 0.943288 0.893716 0.247508
Si Si5 0.895405 0.609355 0.291749
Si Si6 0.152192 0.371571 0.276915
O O1 0.162556 0.799552 0.712004
O O2 0.181061 0.076559 0.768980
O O3 0.076921 0.999936 0.851966
O O4 0.115735 0.900643 0.041216
O O5 0.250000 0.250000 0.500000
O O6 0.148199 0.332568 0.768969
O O7 0.231092 0.280329 0.843667
O O8 0.780955 0.591506 0.890390
O O9 0.948684 0.726027 0.197010
O O10 0.000000 0.938606 0.250000
O O11 0.899980 0.444957 0.234129
O O12 0.865363 0.612516 0.514188
#
# Coordination Sequence:
#
# PCOD9286548 Si02
#       6
#     8   8   4   8   8   8
#     4  10  23  41  65  99 136 172 229 293 347 412
#     4  11  23  42  65  98 142 184 231 280 341 415
#     4  12  24  36  68  94 132 192 228 260 346 408
#     4  10  21  43  71  97 129 177 230 295 357 414
#     4  10  23  43  62  93 141 174 230 291 334 414
#     4  11  23  40  61  93 134 184 226 280 342 405
#
# _framework density 24.562550000000002
#
# number of rings (size 3 to 8) (size 9 to 14) (size 15 to 20)
#    0.000    1.455    1.818    2.727    2.545    2.909 
#    0.000    4.545    0.000    0.000    0.000    0.000 
#    0.000    0.000    0.000    0.000    0.000    0.000 
#
# Total GULP energy -122481.239155 kJ/mol
# GULP energy per Si atom -5567.329053 kJ/mol
# Density = 2.450664 g / cm^3
# Si number density = 24.562550 Si / 1000 Ang^3
#
#
#
# Elastic Constant Matrix: (Units=GPa)
#
#
# Indices 1 2 3 4 5 6 
#
# 1 101.0734 23.1383 15.0371 0.0000 33.4391 0.0000
# 2 23.1383 109.8614 18.8049 0.0000 11.3443 0.0000
# 3 15.0371 18.8049 117.9905 0.0000 37.5940 0.0000
# 4 0.0000 0.0000 0.0000 17.9534 0.0000 4.6485
# 5 33.4391 11.3443 37.5940 0.0000 36.3474 0.0000
# 6 0.0000 0.0000 0.0000 4.6485 0.0000 16.3403
#
#
#
# Elastic Compliance Matrix: (Units=1/GPa)
#
#
# Indices 1 2 3 4 5 6 
#
# 1 0.015747 -0.002153 0.004084 0.000000 -0.018039 0.000000
# 2 -0.002153 0.009756 -0.001404 0.000000 0.000388 0.000000
# 3 0.004084 -0.001404 0.013776 0.000000 -0.017567 0.000000
# 4 0.000000 0.000000 0.000000 0.060129 0.000000 -0.017106
# 5 -0.018039 0.000388 -0.017567 0.000000 0.062157 0.000000
# 6 0.000000 0.000000 0.000000 -0.017106 0.000000 0.066065
#
#
# Mechanical properties :
#
#
# Convention : Reuss Voigt Hill
#
# Bulk Modulus (GPa) = 24.79377 49.20954 37.00166
# Shear Modulus (GPa) = 20.83164 32.25788 26.54476
#
# Velocity S-wave (km/s) = 2.91538 3.62787 3.29097
# Velocity P-wave (km/s) = 4.63127 6.13404 5.43485
#
# Compressibility (1/GPa) = 0.04033271
#
# Stress axis : x y z
#
# Youngs Moduli (GPa) = 63.50369 102.50016 72.59117
#
# Poissons Ratio (x) = 0.22067 -0.29645
# Poissons Ratio (y) = 0.13671 0.10193
# Poissons Ratio (z) = -0.25934 0.14392
#
# Static dielectric constant tensor:
#      x y z
#    x -0.158080 0.000000 2.512050 
#    y 0.000000 5.281350 0.000000 
#    z 2.512050 0.000000 -1.168690 
# 
# From -- ./inp_files/68488.got.cif
#   From: 2010.05.17/outbox.cif.g08.bks.cpg/sg15_35_cif.got.tgz:68488.got - 2010.06.03 18:47:42.
