data_PCOD9286438
_publ_section_title
;
Structure prediction by ZEFSAII (Michael W. Deem and Ramdas Pophale) SiO2 
 PCOD9286438
Probable space group: C 2/C
;
_chemical_formula_sum "Si O2"
_cell_formula_units_Z 60
_cell_length_a 8.109742
_cell_length_b 18.018089
_cell_length_c 17.690263
_cell_angle_alpha 90.000000
_cell_angle_beta 107.848866
_cell_angle_gamma 90.000000
_cell_volume 2460.520182
_symmetry_space_group_name_H-M "C 2/C"
_symmetry_group_IT_number 15
_symmetry_cell_setting 'monoclinic'
loop_
_space_group_symop_operation_xyz
x,y,z
-x,y,1/2-z
-x,-y,-z
x,-y,1/2+z
1/2+x,1/2+y,z
1/2-x,1/2+y,1/2-z
1/2-x,1/2-y,-z
1/2+x,1/2-y,1/2+z
loop_
_atom_site_type_symbol
_atom_site_label
_atom_site_fract_x
_atom_site_fract_y
_atom_site_fract_z
Si Si1 0.890339 0.270297 0.306849
Si Si2 0.007160 0.614672 0.560919
Si Si3 0.109180 0.924551 0.030908
Si Si4 0.459942 0.144560 0.383862
Si Si5 0.109097 0.508743 0.698721
Si Si6 0.954213 0.028569 0.821216
Si Si7 0.068476 0.867765 0.875142
Si Si8 0.500000 0.747108 0.750000
O O1 0.689547 0.289348 0.271306
O O2 0.000000 0.293170 0.250000
O O3 0.978508 0.308789 0.391536
O O4 0.919979 0.181627 0.317899
O O5 0.816134 0.576564 0.543376
O O6 0.045932 0.630492 0.478562
O O7 0.129509 0.560383 0.627672
O O8 0.074598 0.915849 0.114409
O O9 0.042962 0.864767 0.961947
O O10 0.000000 0.000000 0.000000
O O11 0.473996 0.066417 0.342741
O O12 0.257635 0.160024 0.376676
O O13 0.516664 0.205123 0.330704
O O14 0.277364 0.489672 0.770418
O O15 0.000000 0.547150 0.750000
O O16 0.000000 0.067878 0.750000
O O17 0.067548 0.955790 0.856448
#
# Coordination Sequence:
#
# PCOD9286438 Si02
#       8
#     8   8   8   8   8   8   8   4
#     4  12  26  48  75 100 143 193 238 295 354 434
#     4  11  26  45  66 100 148 191 230 292 371 424
#     4   9  21  39  66  99 137 176 234 288 355 428
#     4  11  23  43  72 101 132 182 241 297 357 424
#     4  12  22  39  66  96 138 180 225 289 357 422
#     4  11  20  37  65 100 138 176 232 295 357 425
#     4  10  21  43  68  99 135 186 239 289 354 429
#     4  12  26  48  76 104 134 186 258 294 344 438
#
# _framework density 24.385089000000001
#
# number of rings (size 3 to 8) (size 9 to 14) (size 15 to 20)
#    0.000    1.067    4.667    2.000    0.000    2.667 
#    3.600    0.000    0.000    0.000    0.000    0.000 
#    0.000    0.000    0.000    0.000    0.000    0.000 
#
# Total GULP energy -167474.206041 kJ/mol
# GULP energy per Si atom -5582.473535 kJ/mol
# Density = 2.432959 g / cm^3
# Si number density = 24.385089 Si / 1000 Ang^3
#
#
#
# Elastic Constant Matrix: (Units=GPa)
#
#
# Indices 1 2 3 4 5 6 
#
# 1 99.1993 34.5688 50.3108 0.0000 -12.3440 0.0000
# 2 34.5688 70.8397 22.2320 0.0000 -0.9360 0.0000
# 3 50.3108 22.2320 170.1021 0.0000 -36.1219 0.0000
# 4 0.0000 0.0000 0.0000 30.5120 0.0000 16.6332
# 5 -12.3440 -0.9360 -36.1219 0.0000 41.8104 0.0000
# 6 0.0000 0.0000 0.0000 16.6332 0.0000 0.1195
#
#
#
# Elastic Compliance Matrix: (Units=1/GPa)
#
#
# Indices 1 2 3 4 5 6 
#
# 1 0.013797 -0.005758 -0.003050 0.000000 0.001309 0.000000
# 2 -0.005758 0.017215 -0.001012 0.000000 -0.002189 0.000000
# 3 -0.003050 -0.001012 0.008226 0.000000 0.006184 0.000000
# 4 0.000000 0.000000 0.000000 -0.000438 0.000000 0.060924
# 5 0.001309 -0.002189 0.006184 0.000000 0.029598 0.000000
# 6 0.000000 0.000000 0.000000 0.060924 0.000000 -0.111759
#
#
# Mechanical properties :
#
#
# Convention : Reuss Voigt Hill
#
# Bulk Modulus (GPa) = 51.02455 61.59606 56.31030
# Shear Modulus (GPa) = -290.90350 30.02369 -130.43990
#
# Velocity S-wave (km/s) = -10.93410 3.51270 -7.32173
# Velocity P-wave (km/s) = 11.76589 6.46271 6.95232
#
# Compressibility (1/GPa) = 0.01959841
#
# Stress axis : x y z
#
# Youngs Moduli (GPa) = 72.47833 58.08918 121.56042
#
# Poissons Ratio (x) = 0.33450 0.37077
# Poissons Ratio (y) = 0.41735 0.12297
# Poissons Ratio (z) = 0.22107 0.05876
#
# Static dielectric constant tensor:
#      x y z
#    x 2.038500 0.000000 -0.019010 
#    y 0.000000 1.914900 0.000000 
#    z -0.019010 0.000000 2.046230 
# 
# From -- ./inp_files/192236.got.cif
#   From: 2010.05.17/outbox.cif.g08.bks.cpg/sg15_97_cif.got.tgz:192236.got - 2010.06.03 18:47:42.
