data_PCOD9286711
_publ_section_title
;
Structure prediction by ZEFSAII (Michael W. Deem and Ramdas Pophale) SiO2 
 PCOD9286711
Probable space group: C 2/C
;
_chemical_formula_sum "Si O2"
_cell_formula_units_Z 64
_cell_length_a 12.888807
_cell_length_b 22.623228
_cell_length_c 10.898608
_cell_angle_alpha 90.000000
_cell_angle_beta 108.895841
_cell_angle_gamma 90.000000
_cell_volume 3006.626208
_symmetry_space_group_name_H-M "C 2/C"
_symmetry_group_IT_number 15
_symmetry_cell_setting 'monoclinic'
loop_
_space_group_symop_operation_xyz
x,y,z
-x,y,1/2-z
-x,-y,-z
x,-y,1/2+z
1/2+x,1/2+y,z
1/2-x,1/2+y,1/2-z
1/2-x,1/2-y,-z
1/2+x,1/2-y,1/2+z
loop_
_atom_site_type_symbol
_atom_site_label
_atom_site_fract_x
_atom_site_fract_y
_atom_site_fract_z
Si Si1 0.889028 0.197180 0.876168
Si Si2 0.436594 0.510249 0.348121
Si Si3 0.418755 0.079672 0.019821
Si Si4 0.952096 0.850986 0.857573
Si Si5 0.908034 0.450477 0.110474
Si Si6 0.776492 0.242722 0.316403
Si Si7 0.915127 0.289579 0.572640
Si Si8 0.258664 0.413459 0.266343
O O1 0.774840 0.234299 0.830353
O O2 0.844249 0.140686 0.780943
O O3 0.979188 0.247517 0.878365
O O4 0.953016 0.163687 0.008836
O O5 0.500000 0.490040 0.250000
O O6 0.500000 0.500000 0.500000
O O7 0.426825 0.580395 0.336247
O O8 0.324823 0.474305 0.301302
O O9 0.535157 0.070655 0.993914
O O10 0.325625 0.084761 0.878696
O O11 0.427389 0.140697 0.097584
O O12 0.388433 0.020665 0.083769
O O13 0.838379 0.818852 0.838969
O O14 0.000000 0.826635 0.750000
O O15 0.807634 0.412887 0.128915
O O16 0.000000 0.445419 0.250000
O O17 0.866720 0.284242 0.415537
O O18 0.674926 0.237449 0.370709
#
# Coordination Sequence:
#
# PCOD9286711 Si02
#       8
#     8   8   8   8   8   8   8   8
#     4  11  22  43  63  94 130 167 218 268 329 402
#     4  11  25  43  66 101 136 176 226 280 347 409
#     4  10  21  44  66  94 130 173 218 285 326 401
#     4  10  24  45  62  93 136 165 223 286 326 408
#     4   9  22  41  65  97 130 164 227 275 330 397
#     4  10  22  41  62  93 124 169 215 263 332 396
#     4  10  22  39  64  94 126 166 218 270 326 398
#     4  11  23  41  68  97 129 181 218 271 345 409
#
# _framework density 21.286318000000001
#
# number of rings (size 3 to 8) (size 9 to 14) (size 15 to 20)
#    0.000    1.750    2.500    0.375    3.500    2.500 
#   11.250    0.000    0.000    0.000    0.000    0.000 
#    0.000    0.000    0.000    0.000    0.000    0.000 
#
# Total GULP energy -178266.224497 kJ/mol
# GULP energy per Si atom -5570.819516 kJ/mol
# Density = 2.123787 g / cm^3
# Si number density = 21.286318 Si / 1000 Ang^3
#
#
#
# Elastic Constant Matrix: (Units=GPa)
#
#
# Indices 1 2 3 4 5 6 
#
# 1 65.3004 22.3233 41.1124 0.0000 25.7137 0.0000
# 2 22.3233 80.8839 15.3474 0.0000 15.8701 0.0000
# 3 41.1124 15.3474 53.6072 0.0000 17.0662 0.0000
# 4 0.0000 0.0000 0.0000 14.2006 0.0000 10.2724
# 5 25.7137 15.8701 17.0662 0.0000 21.6180 0.0000
# 6 0.0000 0.0000 0.0000 10.2724 0.0000 21.5175
#
#
#
# Elastic Compliance Matrix: (Units=1/GPa)
#
#
# Indices 1 2 3 4 5 6 
#
# 1 0.041903 -0.001205 -0.021645 0.000000 -0.031869 0.000000
# 2 -0.001205 0.014520 -0.000395 0.000000 -0.008915 0.000000
# 3 -0.021645 -0.000395 0.036169 0.000000 -0.002517 0.000000
# 4 0.000000 0.000000 0.000000 0.107567 0.000000 -0.051352
# 5 -0.031869 -0.008915 -0.002517 0.000000 0.092697 0.000000
# 6 0.000000 0.000000 0.000000 -0.051352 0.000000 0.070989
#
#
# Mechanical properties :
#
#
# Convention : Reuss Voigt Hill
#
# Bulk Modulus (GPa) = 21.69128 39.70641 30.69885
# Shear Modulus (GPa) = 11.74532 19.53443 15.63988
#
# Velocity S-wave (km/s) = 2.35154 3.03264 2.71355
# Velocity P-wave (km/s) = 4.19349 5.56386 4.92656
#
# Compressibility (1/GPa) = 0.04610147
#
# Stress axis : x y z
#
# Youngs Moduli (GPa) = 23.86483 68.87073 27.64816
#
# Poissons Ratio (x) = 0.08297 0.59845
# Poissons Ratio (y) = 0.02875 0.01092
# Poissons Ratio (z) = 0.51656 0.02721
#
# Static dielectric constant tensor:
#      x y z
#    x 1.864550 0.000000 -0.032790 
#    y 0.000000 1.785790 0.000000 
#    z -0.032790 0.000000 1.812840 
# 
# From -- ./inp_files/91281.got.cif
#   From: 2010.05.17/outbox.cif.g08.bks.cpg/sg15_46_cif.got.tgz:91281.got - 2010.06.03 18:47:42.
