data_PCOD9286855
_publ_section_title
;
Structure prediction by ZEFSAII (Michael W. Deem and Ramdas Pophale) SiO2 
 PCOD9286855
Probable space group: C 2/C
;
_chemical_formula_sum "Si O2"
_cell_formula_units_Z 64
_cell_length_a 14.428437
_cell_length_b 14.194728
_cell_length_c 17.016862
_cell_angle_alpha 90.000000
_cell_angle_beta 54.490596
_cell_angle_gamma 90.000000
_cell_volume 2837.010998
_symmetry_space_group_name_H-M "C 2/C"
_symmetry_group_IT_number 15
_symmetry_cell_setting 'monoclinic'
loop_
_space_group_symop_operation_xyz
x,y,z
-x,y,1/2-z
-x,-y,-z
x,-y,1/2+z
1/2+x,1/2+y,z
1/2-x,1/2+y,1/2-z
1/2-x,1/2-y,-z
1/2+x,1/2-y,1/2+z
loop_
_atom_site_type_symbol
_atom_site_label
_atom_site_fract_x
_atom_site_fract_y
_atom_site_fract_z
Si Si1 0.122045 0.821057 0.153047
Si Si2 0.366622 0.875370 0.076918
Si Si3 0.582077 0.399009 0.647714
Si Si4 0.850913 0.939921 0.507625
Si Si5 0.372835 0.105947 0.300192
Si Si6 0.006552 0.182409 0.457188
Si Si7 0.422231 0.072847 0.105530
Si Si8 0.792627 0.290536 0.564448
O O1 0.231454 0.871963 0.136399
O O2 0.133792 0.849196 0.056686
O O3 0.132541 0.709883 0.160674
O O4 0.000000 0.846167 0.250000
O O5 0.410320 0.771175 0.074350
O O6 0.399298 0.961765 0.117449
O O7 0.443048 0.903734 0.962888
O O8 0.500000 0.447255 0.750000
O O9 0.632703 0.473613 0.560495
O O10 0.510888 0.331407 0.626335
O O11 0.673720 0.336152 0.649051
O O12 0.730048 0.949702 0.609842
O O13 0.941075 0.910465 0.530129
O O14 0.500000 0.065851 0.250000
O O15 0.362714 0.116127 0.210895
O O16 0.879570 0.209641 0.552227
O O17 0.372806 0.119302 0.049149
O O18 0.750000 0.250000 0.500000
#
# Coordination Sequence:
#
# PCOD9286855 Si02
#       8
#     8   8   8   8   8   8   8   8
#     4  11  24  40  64 100 136 182 229 281 354 423
#     4  10  21  44  70  99 138 182 231 285 359 405
#     4  11  25  46  69 102 143 187 234 292 356 426
#     4  12  24  44  68 102 144 183 231 294 352 421
#     4  11  25  40  67 102 141 183 229 288 352 418
#     4  10  23  43  71 100 131 186 236 291 352 413
#     4  10  22  41  71 102 138 181 237 289 346 423
#     4   9  21  42  68  95 133 185 233 282 351 412
#
# _framework density 22.558954
#
# number of rings (size 3 to 8) (size 9 to 14) (size 15 to 20)
#    0.000    1.500    1.250    2.625    8.750    2.000 
#    2.250    3.125    0.000    0.000    0.000    0.000 
#    0.000    0.000    0.000    0.000    0.000    0.000 
#
# Total GULP energy -178210.966963 kJ/mol
# GULP energy per Si atom -5569.092718 kJ/mol
# Density = 2.250761 g / cm^3
# Si number density = 22.558954 Si / 1000 Ang^3
#
#
#
# Elastic Constant Matrix: (Units=GPa)
#
#
# Indices 1 2 3 4 5 6 
#
# 1 116.9717 25.7776 45.1299 0.0000 -35.5849 0.0000
# 2 25.7776 56.2551 13.7129 0.0000 -21.9100 0.0000
# 3 45.1299 13.7129 121.6601 0.0000 -43.3314 0.0000
# 4 0.0000 0.0000 0.0000 25.2956 0.0000 -2.2536
# 5 -35.5849 -21.9100 -43.3314 0.0000 28.4072 0.0000
# 6 0.0000 0.0000 0.0000 -2.2536 0.0000 7.7900
#
#
#
# Elastic Compliance Matrix: (Units=1/GPa)
#
#
# Indices 1 2 3 4 5 6 
#
# 1 0.014257 0.002165 0.003115 0.000000 0.024281 0.000000
# 2 0.002165 0.031225 0.011432 0.000000 0.044232 0.000000
# 3 0.003115 0.011432 0.022565 0.000000 0.047140 0.000000
# 4 0.000000 0.000000 0.000000 0.040578 0.000000 0.011739
# 5 0.024281 0.044232 0.047140 0.000000 0.171639 0.000000
# 6 0.000000 0.000000 0.000000 0.011739 0.000000 0.131765
#
#
# Mechanical properties :
#
#
# Convention : Reuss Voigt Hill
#
# Bulk Modulus (GPa) = 9.85512 51.56972 30.71242
# Shear Modulus (GPa) = 12.12328 26.31632 19.21980
#
# Velocity S-wave (km/s) = 2.32071 3.41920 2.92204
# Velocity P-wave (km/s) = 3.39986 6.20463 5.00282
#
# Compressibility (1/GPa) = 0.10147013
#
# Stress axis : x y z
#
# Youngs Moduli (GPa) = 70.14251 32.02546 44.31637
#
# Poissons Ratio (x) = -0.06932 -0.13807
# Poissons Ratio (y) = -0.15182 -0.50661
# Poissons Ratio (z) = -0.21853 -0.36610
#
# Static dielectric constant tensor:
#      x y z
#    x 1.941520 0.000000 -0.001710 
#    y 0.000000 1.850370 0.000000 
#    z -0.001710 0.000000 1.863220 
# 
# From -- ./inp_files/205686.got.cif
#   From: 2010.05.17/outbox.cif.g08.bks.cpg/sg15_103_cif.got.tgz:205686.got - 2010.06.03 18:47:42.
