data_PCOD9286253
_publ_section_title
;
Structure prediction by ZEFSAII (Michael W. Deem and Ramdas Pophale) SiO2 
 PCOD9286253
Probable space group: C 2/C
;
_chemical_formula_sum "Si O2"
_cell_formula_units_Z 60
_cell_length_a 15.338328
_cell_length_b 16.925538
_cell_length_c 19.461035
_cell_angle_alpha 90.000000
_cell_angle_beta 29.889054
_cell_angle_gamma 90.000000
_cell_volume 2517.657206
_symmetry_space_group_name_H-M "C 2/C"
_symmetry_group_IT_number 15
_symmetry_cell_setting 'monoclinic'
loop_
_space_group_symop_operation_xyz
x,y,z
-x,y,1/2-z
-x,-y,-z
x,-y,1/2+z
1/2+x,1/2+y,z
1/2-x,1/2+y,1/2-z
1/2-x,1/2-y,-z
1/2+x,1/2-y,1/2+z
loop_
_atom_site_type_symbol
_atom_site_label
_atom_site_fract_x
_atom_site_fract_y
_atom_site_fract_z
Si Si1 0.500000 0.699310 0.750000
Si Si2 0.684500 0.547937 0.617119
Si Si3 0.577251 0.819711 0.945866
Si Si4 0.847287 0.688142 0.803180
Si Si5 0.001142 0.082344 0.039163
Si Si6 0.284918 0.980182 0.681258
Si Si7 0.754486 0.283108 0.813063
Si Si8 0.499705 0.036918 0.834559
O O1 0.632766 0.634944 0.624959
O O2 0.379759 0.753549 0.786411
O O3 0.500000 0.504766 0.750000
O O4 0.752447 0.550277 0.649501
O O5 0.817985 0.501533 0.479991
O O6 0.736978 0.766531 0.864700
O O7 0.604366 0.913243 0.933973
O O8 0.614234 0.803275 0.839133
O O9 0.393200 0.784494 0.097179
O O10 0.000000 0.713153 0.750000
O O11 0.968757 0.630068 0.673497
O O12 0.687046 0.624583 0.925039
O O13 0.899664 0.062212 0.177855
O O14 0.872991 0.142726 0.086660
O O15 0.000000 0.000000 0.000000
O O16 0.366559 0.997935 0.700711
O O17 0.500000 0.027256 0.750000
#
# Coordination Sequence:
#
# PCOD9286253 Si02
#       8
#     4   8   8   8   8   8   8   8
#     4  10  24  46  68 102 146 184 240 282 374 426
#     4  10  26  41  69 105 143 190 233 300 361 434
#     4  10  24  44  66 101 136 188 236 290 366 419
#     4  10  23  40  69  97 137 180 238 294 356 416
#     4  10  21  43  65 103 137 189 236 297 353 422
#     4  11  23  43  72  99 142 190 244 293 367 424
#     4  10  23  44  67  98 142 184 230 289 355 429
#     4  11  24  44  71 105 138 185 248 299 360 434
#
# _framework density 23.831679999999999
#
# number of rings (size 3 to 8) (size 9 to 14) (size 15 to 20)
#    0.400    1.333    1.333    1.200    7.467    1.067 
#   13.200    6.000    0.000    0.000    0.000    0.000 
#    0.000    0.000    0.000    0.000    0.000    0.000 
#
# Total GULP energy -167080.343051 kJ/mol
# GULP energy per Si atom -5569.344768 kJ/mol
# Density = 2.377744 g / cm^3
# Si number density = 23.831680 Si / 1000 Ang^3
#
#
#
# Elastic Constant Matrix: (Units=GPa)
#
#
# Indices 1 2 3 4 5 6 
#
# 1 138.0552 55.7074 46.7292 -0.0023 -25.7064 -0.0005
# 2 55.7074 90.4123 -1.9144 -0.0018 -16.4586 0.0038
# 3 46.7292 -1.9144 73.4400 -0.0020 -19.2984 0.0100
# 4 -0.0023 -0.0018 -0.0020 23.3223 0.0021 -8.9412
# 5 -25.7064 -16.4586 -19.2984 0.0021 30.3935 -0.0003
# 6 -0.0005 0.0038 0.0100 -8.9412 -0.0003 22.5145
#
#
#
# Elastic Compliance Matrix: (Units=1/GPa)
#
#
# Indices 1 2 3 4 5 6 
#
# 1 0.013866 -0.008413 -0.008591 0.000002 0.001717 0.000006
# 2 -0.008413 0.017762 0.007770 -0.000002 0.007437 -0.000007
# 3 -0.008591 0.007770 0.022183 -0.000004 0.011027 -0.000013
# 4 0.000002 -0.000002 -0.000004 0.050578 -0.000005 0.020086
# 5 0.001717 0.007437 0.011027 -0.000005 0.045383 -0.000008
# 6 0.000006 -0.000007 -0.000013 0.020086 -0.000008 0.052393
#
#
# Mechanical properties :
#
#
# Convention : Reuss Voigt Hill
#
# Bulk Modulus (GPa) = 28.29293 55.88353 42.08823
# Shear Modulus (GPa) = 21.51355 28.67175 25.09265
#
# Velocity S-wave (km/s) = 3.00780 3.47233 3.24838
# Velocity P-wave (km/s) = 4.89492 6.29097 5.63633
#
# Compressibility (1/GPa) = 0.03534452
#
# Stress axis : x y z
#
# Youngs Moduli (GPa) = 72.12094 56.29933 45.07985
#
# Poissons Ratio (x) = 0.47362 0.38726
# Poissons Ratio (y) = 0.60672 -0.35028
# Poissons Ratio (z) = 0.61956 -0.43745
#
# Static dielectric constant tensor:
#      x y z
#    x 1.995570 0.000000 0.016180 
#    y 0.000000 1.939780 0.000010 
#    z 0.016180 0.000010 2.043940 
# 
# From -- ./inp_files/245438.got.cif
#   From: 2010.05.17/outbox.cif.g08.bks.cpg/sg15_123_cif.got.tgz:245438.got - 2010.06.03 18:47:42.
