data_PCOD9286417
_publ_section_title
;
Structure prediction by ZEFSAII (Michael W. Deem and Ramdas Pophale) SiO2 
 PCOD9286417
Probable space group: C 2/C
;
_chemical_formula_sum "Si O2"
_cell_formula_units_Z 52
_cell_length_a 13.956551
_cell_length_b 15.085815
_cell_length_c 13.944398
_cell_angle_alpha 90.000000
_cell_angle_beta 60.393515
_cell_angle_gamma 90.000000
_cell_volume 2552.617723
_symmetry_space_group_name_H-M "C 2/C"
_symmetry_group_IT_number 15
_symmetry_cell_setting 'monoclinic'
loop_
_space_group_symop_operation_xyz
x,y,z
-x,y,1/2-z
-x,-y,-z
x,-y,1/2+z
1/2+x,1/2+y,z
1/2-x,1/2+y,1/2-z
1/2-x,1/2-y,-z
1/2+x,1/2-y,1/2+z
loop_
_atom_site_type_symbol
_atom_site_label
_atom_site_fract_x
_atom_site_fract_y
_atom_site_fract_z
Si Si1 0.130123 0.717722 0.164350
Si Si2 0.096512 0.472788 0.377101
Si Si3 0.110691 0.927441 0.640045
Si Si4 0.298004 0.159204 0.176587
Si Si5 0.743147 0.394204 0.050363
Si Si6 0.500000 0.866722 0.250000
Si Si7 0.377830 0.256116 0.961618
O O1 0.203651 0.713214 0.224810
O O2 0.157220 0.813645 0.105517
O O3 0.000000 0.708479 0.250000
O O4 0.174872 0.639589 0.073407
O O5 0.151346 0.565029 0.322950
O O6 0.181772 0.411612 0.393257
O O7 0.062827 0.426962 0.295321
O O8 0.000000 0.500000 0.500000
O O9 0.185914 0.869047 0.677013
O O10 0.084565 0.857362 0.568368
O O11 0.000000 0.954833 0.750000
O O12 0.180064 0.011847 0.569030
O O13 0.381071 0.210648 0.063591
O O14 0.566694 0.803201 0.146491
O O15 0.250000 0.250000 0.000000
#
# Coordination Sequence:
#
# PCOD9286417 Si02
#       7
#     8   8   8   8   8   4   8
#     4  11  24  45  69  91 136 181 217 278 340 396
#     4  11  23  39  63  98 133 166 227 273 327 398
#     4  10  21  43  68  93 134 172 219 281 330 400
#     4  10  23  40  63  98 131 168 223 278 331 395
#     4  10  25  44  65  96 133 176 229 274 327 413
#     4  12  24  38  70  96 126 184 210 274 348 374
#     4  10  22  39  61  96 128 165 216 270 330 389
#
# _framework density 20.371245999999999
#
# number of rings (size 3 to 8) (size 9 to 14) (size 15 to 20)
#    0.000    1.538    2.308    1.385    7.538    0.000 
#    5.538    0.769    0.000    0.000    0.000    0.000 
#    0.000    0.000    0.000    0.000    0.000    0.000 
#
# Total GULP energy -145039.766160 kJ/mol
# GULP energy per Si atom -5578.452545 kJ/mol
# Density = 2.032488 g / cm^3
# Si number density = 20.371246 Si / 1000 Ang^3
#
#
#
# Elastic Constant Matrix: (Units=GPa)
#
#
# Indices 1 2 3 4 5 6 
#
# 1 48.1782 47.9570 33.8383 0.0000 -2.9227 0.0000
# 2 47.9570 118.1976 54.0458 0.0000 10.9245 0.0000
# 3 33.8383 54.0458 95.2318 0.0000 6.5928 0.0000
# 4 0.0000 0.0000 0.0000 -9.2327 0.0000 -0.1327
# 5 -2.9227 10.9245 6.5928 0.0000 35.2617 0.0000
# 6 0.0000 0.0000 0.0000 -0.1327 0.0000 30.1160
#
#
#
# Elastic Compliance Matrix: (Units=1/GPa)
#
#
# Indices 1 2 3 4 5 6 
#
# 1 0.039985 -0.013867 -0.006955 0.000000 0.008911 0.000000
# 2 -0.013867 0.016431 -0.004018 0.000000 -0.005489 0.000000
# 3 -0.006955 -0.004018 0.015405 0.000000 -0.002212 0.000000
# 4 0.000000 0.000000 0.000000 -0.108304 0.000000 -0.000477
# 5 0.008911 -0.005489 -0.002212 0.000000 0.031212 0.000000
# 6 0.000000 0.000000 0.000000 -0.000477 0.000000 0.033203
#
#
# Mechanical properties :
#
#
# Convention : Reuss Voigt Hill
#
# Bulk Modulus (GPa) = 45.16234 59.25442 52.20838
# Shear Modulus (GPa) = 58.83004 19.61345 39.22175
#
# Velocity S-wave (km/s) = 5.37974 3.10627 4.39264
# Velocity P-wave (km/s) = 7.79786 6.48195 7.17016
#
# Compressibility (1/GPa) = 0.02214234
#
# Stress axis : x y z
#
# Youngs Moduli (GPa) = 25.00962 60.86060 64.91308
#
# Poissons Ratio (x) = 0.84393 0.45146
# Poissons Ratio (y) = 0.34680 0.26080
# Poissons Ratio (z) = 0.17394 0.24452
#
# Static dielectric constant tensor:
#      x y z
#    x 1.758290 0.000000 0.005030 
#    y 0.000000 1.709320 0.000000 
#    z 0.005030 0.000000 1.731030 
# 
# From -- ./inp_files/153855.got.cif
#   From: 2010.05.17/outbox.cif.g08.bks.cpg/sg15_77_cif.got.tgz:153855.got - 2010.06.03 18:47:42.
