data_PCOD9286509
_publ_section_title
;
Structure prediction by ZEFSAII (Michael W. Deem and Ramdas Pophale) SiO2 
 PCOD9286509
Probable space group: C 2/C
;
_chemical_formula_sum "Si O2"
_cell_formula_units_Z 60
_cell_length_a 18.906395
_cell_length_b 8.875638
_cell_length_c 21.604817
_cell_angle_alpha 90.000000
_cell_angle_beta 138.330254
_cell_angle_gamma 90.000000
_cell_volume 2410.312963
_symmetry_space_group_name_H-M "C 2/C"
_symmetry_group_IT_number 15
_symmetry_cell_setting 'monoclinic'
loop_
_space_group_symop_operation_xyz
x,y,z
-x,y,1/2-z
-x,-y,-z
x,-y,1/2+z
1/2+x,1/2+y,z
1/2-x,1/2+y,1/2-z
1/2-x,1/2-y,-z
1/2+x,1/2-y,1/2+z
loop_
_atom_site_type_symbol
_atom_site_label
_atom_site_fract_x
_atom_site_fract_y
_atom_site_fract_z
Si Si1 0.000000 0.550557 0.250000
Si Si2 0.995363 0.324390 0.499060
Si Si3 0.143192 0.354748 0.423272
Si Si4 0.563057 0.544322 0.380888
Si Si5 0.615662 0.560577 0.550869
Si Si6 0.279315 0.291353 0.834426
Si Si7 0.747366 0.623633 0.943942
Si Si8 0.444745 0.735323 0.830281
O O1 0.101354 0.447777 0.335963
O O2 0.027938 0.656457 0.209451
O O3 0.100432 0.238294 0.544739
O O4 0.984256 0.272952 0.563452
O O5 0.000000 0.500000 0.500000
O O6 0.894559 0.272326 0.392439
O O7 0.250000 0.250000 0.500000
O O8 0.053542 0.223358 0.369498
O O9 0.166908 0.491347 0.486312
O O10 0.627588 0.520994 0.487186
O O11 0.635006 0.464919 0.376192
O O12 0.461767 0.438701 0.323774
O O13 0.500000 0.500000 0.500000
O O14 0.702921 0.469118 0.644692
O O15 0.256143 0.207223 0.884564
O O16 0.175843 0.261785 0.727599
O O17 0.750000 0.750000 0.000000
#
# Coordination Sequence:
#
# PCOD9286509 Si02
#       8
#     4   8   8   8   8   8   8   8
#     4  12  26  42  66 108 146 172 244 296 366 444
#     4  11  26  48  72 100 140 191 243 303 364 433
#     4  10  25  40  67  99 145 189 231 295 361 436
#     4  11  22  41  69  97 143 186 232 291 366 427
#     4  10  21  43  70  94 135 183 241 290 352 415
#     4  11  23  41  71 101 134 183 243 291 360 432
#     4  11  19  39  68  99 137 185 230 280 364 432
#     4  12  25  44  72 102 139 192 234 296 368 439
#
# _framework density 24.893034
#
# number of rings (size 3 to 8) (size 9 to 14) (size 15 to 20)
#    0.000    1.067    4.000    3.200    5.600    3.733 
#    0.000    1.333    0.000    0.000    0.000    0.000 
#    0.000    0.000    0.000    0.000    0.000    0.000 
#
# Total GULP energy -167557.771620 kJ/mol
# GULP energy per Si atom -5585.259054 kJ/mol
# Density = 2.483638 g / cm^3
# Si number density = 24.893034 Si / 1000 Ang^3
#
#
#
# Elastic Constant Matrix: (Units=GPa)
#
#
# Indices 1 2 3 4 5 6 
#
# 1 56.2710 27.4304 12.6811 0.0000 -4.3999 0.0000
# 2 27.4304 199.4761 28.4966 0.0000 12.1329 0.0000
# 3 12.6811 28.4966 90.7623 0.0000 15.2296 0.0000
# 4 0.0000 0.0000 0.0000 40.5083 0.0000 4.7859
# 5 -4.3999 12.1329 15.2296 0.0000 37.0507 0.0000
# 6 0.0000 0.0000 0.0000 4.7859 0.0000 45.2133
#
#
#
# Elastic Compliance Matrix: (Units=1/GPa)
#
#
# Indices 1 2 3 4 5 6 
#
# 1 0.020001 -0.002629 -0.002698 0.000000 0.004345 0.000000
# 2 -0.002629 0.005638 -0.001118 0.000000 -0.001699 0.000000
# 3 -0.002698 -0.001118 0.012608 0.000000 -0.005137 0.000000
# 4 0.000000 0.000000 0.000000 0.024999 0.000000 -0.002646
# 5 0.004345 -0.001699 -0.005137 0.000000 0.030174 0.000000
# 6 0.000000 0.000000 0.000000 -0.002646 0.000000 0.022397
#
#
# Mechanical properties :
#
#
# Convention : Reuss Voigt Hill
#
# Bulk Modulus (GPa) = 39.43822 53.74728 46.59275
# Shear Modulus (GPa) = 36.45435 43.08122 39.76779
#
# Velocity S-wave (km/s) = 3.83095 4.16463 4.00127
# Velocity P-wave (km/s) = 5.95363 6.69056 6.33283
#
# Compressibility (1/GPa) = 0.02535611
#
# Stress axis : x y z
#
# Youngs Moduli (GPa) = 49.99859 177.37808 79.31733
#
# Poissons Ratio (x) = 0.46636 0.21400
# Poissons Ratio (y) = 0.13145 0.08865
# Poissons Ratio (z) = 0.13490 0.19824
#
# Static dielectric constant tensor:
#      x y z
#    x 2.085890 0.000000 0.056280 
#    y 0.000000 1.987760 0.000000 
#    z 0.056280 0.000000 1.972530 
# 
# From -- ./inp_files/279709.got.cif
#   From: 2010.05.17/outbox.cif.g08.bks.cpg/sg15_140_cif.got.tgz:279709.got - 2010.06.03 18:47:42.
