data_PCOD9286981
_publ_section_title
;
Structure prediction by ZEFSAII (Michael W. Deem and Ramdas Pophale) SiO2 
 PCOD9286981
Probable space group: C 2/C
;
_chemical_formula_sum "Si O2"
_cell_formula_units_Z 60
_cell_length_a 21.474806
_cell_length_b 17.288148
_cell_length_c 14.006341
_cell_angle_alpha 90.000000
_cell_angle_beta 148.970765
_cell_angle_gamma 90.000000
_cell_volume 2680.466227
_symmetry_space_group_name_H-M "C 2/C"
_symmetry_group_IT_number 15
_symmetry_cell_setting 'monoclinic'
loop_
_space_group_symop_operation_xyz
x,y,z
-x,y,1/2-z
-x,-y,-z
x,-y,1/2+z
1/2+x,1/2+y,z
1/2-x,1/2+y,1/2-z
1/2-x,1/2-y,-z
1/2+x,1/2-y,1/2+z
loop_
_atom_site_type_symbol
_atom_site_label
_atom_site_fract_x
_atom_site_fract_y
_atom_site_fract_z
Si Si1 0.856285 0.186614 0.143593
Si Si2 0.490131 0.092075 0.409654
Si Si3 0.891352 0.782592 0.475413
Si Si4 0.731865 0.889934 0.147675
Si Si5 0.334939 0.891761 0.888937
Si Si6 0.000000 0.524445 0.750000
Si Si7 0.886760 0.722713 0.153884
Si Si8 0.872013 0.036140 0.299343
O O1 0.862694 0.103958 0.207410
O O2 0.966308 0.232077 0.339145
O O3 0.750000 0.250000 0.000000
O O4 0.875125 0.174657 0.055410
O O5 0.636445 0.089523 0.606172
O O6 0.420335 0.079489 0.416090
O O7 0.442464 0.177571 0.316892
O O8 0.460456 0.030939 0.286009
O O9 0.840052 0.838007 0.327814
O O10 0.826563 0.700467 0.383956
O O11 0.789331 0.961758 0.168690
O O12 0.646152 0.841881 0.966814
O O13 0.200802 0.926134 0.707470
O O14 0.398279 0.921002 0.069950
O O15 0.000000 0.767902 0.250000
O O16 0.750000 0.750000 0.000000
O O17 0.000000 0.000000 0.500000
#
# Coordination Sequence:
#
# PCOD9286981 Si02
#       8
#     8   8   8   8   8   4   8   8
#     4  11  24  46  71 106 156 198 254 322 391 469
#     4  11  23  44  71 105 141 191 252 319 385 465
#     4  11  25  44  70 113 146 199 254 321 397 461
#     4  11  23  45  70  99 151 192 246 321 390 472
#     4  12  26  42  76 110 140 197 264 315 391 474
#     4  12  22  44  68 104 144 184 252 324 380 452
#     4  10  21  45  70 100 142 189 246 317 384 468
#     4  12  25  48  69 102 153 201 246 314 398 472
#
# _framework density 22.384164999999999
#
# number of rings (size 3 to 8) (size 9 to 14) (size 15 to 20)
#    0.000    0.800    6.000    2.000    1.867    0.000 
#    9.600    0.000    0.000    0.000    0.000    0.000 
#    0.000    0.000    0.000    0.000    0.000    0.000 
#
# Total GULP energy -167139.917056 kJ/mol
# GULP energy per Si atom -5571.330569 kJ/mol
# Density = 2.233322 g / cm^3
# Si number density = 22.384165 Si / 1000 Ang^3
#
#
#
# Elastic Constant Matrix: (Units=GPa)
#
#
# Indices 1 2 3 4 5 6 
#
# 1 101.3654 36.9053 33.9478 0.0000 19.0094 0.0000
# 2 36.9053 106.7656 36.9052 0.0000 9.4020 0.0000
# 3 33.9478 36.9052 111.7121 0.0000 25.4647 0.0000
# 4 0.0000 0.0000 0.0000 45.4094 0.0000 -0.1587
# 5 19.0094 9.4020 25.4647 0.0000 41.8904 0.0000
# 6 0.0000 0.0000 0.0000 -0.1587 0.0000 34.2088
#
#
#
# Elastic Compliance Matrix: (Units=1/GPa)
#
#
# Indices 1 2 3 4 5 6 
#
# 1 0.012389 -0.003326 -0.001805 0.000000 -0.003778 0.000000
# 2 -0.003326 0.011470 -0.002944 0.000000 0.000724 0.000000
# 3 -0.001805 -0.002944 0.011766 0.000000 -0.005672 0.000000
# 4 0.000000 0.000000 0.000000 0.022022 0.000000 0.000102
# 5 -0.003778 0.000724 -0.005672 0.000000 0.028872 0.000000
# 6 0.000000 0.000000 0.000000 0.000102 0.000000 0.029233
#
#
# Mechanical properties :
#
#
# Convention : Reuss Voigt Hill
#
# Bulk Modulus (GPa) = 51.34583 59.48442 55.41513
# Shear Modulus (GPa) = 36.12926 38.44072 37.28499
#
# Velocity S-wave (km/s) = 4.02189 4.14855 4.08571
# Velocity P-wave (km/s) = 6.67501 7.04126 6.86058
#
# Compressibility (1/GPa) = 0.01947578
#
# Stress axis : x y z
#
# Youngs Moduli (GPa) = 80.71501 87.18650 84.99426
#
# Poissons Ratio (x) = 0.28998 0.15340
# Poissons Ratio (y) = 0.26845 0.25018
# Poissons Ratio (z) = 0.14568 0.25663
#
# Static dielectric constant tensor:
#      x y z
#    x 2.015510 0.000000 0.073270 
#    y 0.000000 1.891050 0.000000 
#    z 0.073270 0.000000 1.853100 
# 
# From -- ./inp_files/174120.got.cif
#   From: 2010.05.17/outbox.cif.g08.bks.cpg/sg15_88_cif.got.tgz:174120.got - 2010.06.03 18:47:42.
