data_PCOD9286955
_publ_section_title
;
Structure prediction by ZEFSAII (Michael W. Deem and Ramdas Pophale) SiO2 
 PCOD9286955
Probable space group: C 2/C
;
_chemical_formula_sum "Si O2"
_cell_formula_units_Z 56
_cell_length_a 16.900262
_cell_length_b 8.759340
_cell_length_c 24.060590
_cell_angle_alpha 90.000000
_cell_angle_beta 140.123651
_cell_angle_gamma 90.000000
_cell_volume 2283.595392
_symmetry_space_group_name_H-M "C 2/C"
_symmetry_group_IT_number 15
_symmetry_cell_setting 'monoclinic'
loop_
_space_group_symop_operation_xyz
x,y,z
-x,y,1/2-z
-x,-y,-z
x,-y,1/2+z
1/2+x,1/2+y,z
1/2-x,1/2+y,1/2-z
1/2-x,1/2-y,-z
1/2+x,1/2-y,1/2+z
loop_
_atom_site_type_symbol
_atom_site_label
_atom_site_fract_x
_atom_site_fract_y
_atom_site_fract_z
Si Si1 0.868654 0.586788 0.430818
Si Si2 0.118374 0.618670 0.701521
Si Si3 0.319868 0.387363 0.007115
Si Si4 0.290635 0.145235 0.623084
Si Si5 0.536043 0.637432 0.352405
Si Si6 0.050764 0.688635 0.139198
Si Si7 0.675135 0.594188 0.780538
O O1 0.822405 0.730109 0.442040
O O2 0.859527 0.665900 0.364784
O O3 0.770407 0.447153 0.380437
O O4 0.000000 0.500000 0.500000
O O5 0.161475 0.625480 0.788256
O O6 0.018755 0.485087 0.636336
O O7 0.237543 0.588051 0.727517
O O8 0.049425 0.774663 0.648685
O O9 0.360798 0.524806 0.069403
O O10 0.448558 0.304408 0.061708
O O11 0.250000 0.250000 0.000000
O O12 0.248425 0.479420 0.920959
O O13 0.398426 0.230335 0.647109
O O14 0.431776 0.530306 0.268976
O O15 0.104424 0.752055 0.226269
#
# Coordination Sequence:
#
# PCOD9286955 Si02
#       7
#     8   8   8   8   8   8   8
#     4  11  25  41  71 111 144 187 251 309 366 445
#     4  11  21  43  71 103 138 189 246 297 361 447
#     4  11  27  46  67 102 149 192 237 308 385 436
#     4  12  25  45  73 108 143 191 254 305 372 447
#     4  11  24  44  75  98 143 196 241 298 370 445
#     4  10  23  44  67 100 144 192 240 302 369 434
#     4  10  21  45  68 101 147 184 241 297 370 439
#
# _framework density 24.522734
#
# number of rings (size 3 to 8) (size 9 to 14) (size 15 to 20)
#    0.000    1.143    2.857    2.571    6.000    1.714 
#    0.000    0.000    0.000    0.000    0.000    0.000 
#    0.000    0.000    0.000    0.000    0.000    0.000 
#
# Total GULP energy -156068.427361 kJ/mol
# GULP energy per Si atom -5573.872406 kJ/mol
# Density = 2.446692 g / cm^3
# Si number density = 24.522734 Si / 1000 Ang^3
#
#
#
# Elastic Constant Matrix: (Units=GPa)
#
#
# Indices 1 2 3 4 5 6 
#
# 1 80.8653 36.7339 11.8209 0.0000 2.4999 0.0000
# 2 36.7339 137.9752 31.7022 0.0000 4.1177 0.0000
# 3 11.8209 31.7022 91.9603 0.0000 5.4945 0.0000
# 4 0.0000 0.0000 0.0000 39.0831 0.0000 -2.5629
# 5 2.4999 4.1177 5.4945 0.0000 16.4686 0.0000
# 6 0.0000 0.0000 0.0000 -2.5629 0.0000 32.5544
#
#
#
# Elastic Compliance Matrix: (Units=1/GPa)
#
#
# Indices 1 2 3 4 5 6 
#
# 1 0.014113 -0.003609 -0.000506 0.000000 -0.001071 0.000000
# 2 -0.003609 0.008813 -0.002526 0.000000 -0.000813 0.000000
# 3 -0.000506 -0.002526 0.012007 0.000000 -0.003298 0.000000
# 4 0.000000 0.000000 0.000000 0.025719 0.000000 0.002025
# 5 -0.001071 -0.000813 -0.003298 0.000000 0.062188 0.000000
# 6 0.000000 0.000000 0.000000 0.002025 0.000000 0.030877
#
#
# Mechanical properties :
#
#
# Convention : Reuss Voigt Hill
#
# Bulk Modulus (GPa) = 46.18621 52.36829 49.27725
# Shear Modulus (GPa) = 28.70007 32.99083 30.84545
#
# Velocity S-wave (km/s) = 3.42474 3.67183 3.55044
# Velocity P-wave (km/s) = 5.87481 6.27518 6.07829
#
# Compressibility (1/GPa) = 0.02165148
#
# Stress axis : x y z
#
# Youngs Moduli (GPa) = 70.85768 113.46683 83.28454
#
# Poissons Ratio (x) = 0.40952 0.04213
# Poissons Ratio (y) = 0.25573 0.21035
# Poissons Ratio (z) = 0.03585 0.28659
#
# Static dielectric constant tensor:
#      x y z
#    x 1.998470 0.000000 -0.007360 
#    y 0.000000 1.971880 0.000000 
#    z -0.007360 0.000000 2.071720 
# 
# From -- ./inp_files/298581.got.cif
#   From: 2010.05.17/outbox.cif.g08.bks.cpg/sg15_150_cif.got.tgz:298581.got - 2010.06.03 18:47:42.
