data_PCOD9286185
_publ_section_title
;
Structure prediction by ZEFSAII (Michael W. Deem and Ramdas Pophale) SiO2 
 PCOD9286185
Probable space group: C 2/C
;
_chemical_formula_sum "Si O2"
_cell_formula_units_Z 44
_cell_length_a 12.234964
_cell_length_b 9.047780
_cell_length_c 23.602175
_cell_angle_alpha 90.000000
_cell_angle_beta 39.185991
_cell_angle_gamma 90.000000
_cell_volume 1650.835266
_symmetry_space_group_name_H-M "C 2/C"
_symmetry_group_IT_number 15
_symmetry_cell_setting 'monoclinic'
loop_
_space_group_symop_operation_xyz
x,y,z
-x,y,1/2-z
-x,-y,-z
x,-y,1/2+z
1/2+x,1/2+y,z
1/2-x,1/2+y,1/2-z
1/2-x,1/2-y,-z
1/2+x,1/2-y,1/2+z
loop_
_atom_site_type_symbol
_atom_site_label
_atom_site_fract_x
_atom_site_fract_y
_atom_site_fract_z
Si Si1 0.138283 0.214456 0.960836
Si Si2 0.516797 0.216206 0.863517
Si Si3 0.085298 0.870294 0.117013
Si Si4 0.036965 0.414080 0.556113
Si Si5 0.735013 0.440360 0.309830
Si Si6 0.000000 0.324336 0.750000
O O1 0.333070 0.225937 0.905725
O O2 0.154408 0.093906 0.904330
O O3 0.065369 0.357857 0.957423
O O4 0.012693 0.193756 0.065623
O O5 0.663904 0.205024 0.755695
O O6 0.542616 0.050714 0.879253
O O7 0.052667 0.734381 0.087447
O O8 0.915416 0.968913 0.176119
O O9 0.104488 0.786689 0.168257
O O10 0.261062 0.951932 0.033207
O O11 0.871645 0.570787 0.266454
#
# Coordination Sequence:
#
# PCOD9286185 Si02
#       6
#     8   8   8   8   8   4
#     4  10  22  38  67  96 133 180 229 280 341 412
#     4  11  21  41  67  97 137 188 223 287 349 404
#     4  10  24  39  66  97 131 178 231 284 341 414
#     4  10  21  43  62  96 134 175 229 287 343 404
#     4  11  22  44  66  99 134 183 233 275 348 412
#     4  12  22  46  70  92 142 182 220 296 336 400
#
# _framework density 26.653172999999999
#
# number of rings (size 3 to 8) (size 9 to 14) (size 15 to 20)
#    0.000    1.455    3.636    0.545    2.545    1.455 
#    3.273    7.273    0.000    0.000    0.000    0.000 
#    0.000    0.000    0.000    0.000    0.000    0.000 
#
# Total GULP energy -123077.797078 kJ/mol
# GULP energy per Si atom -5594.445322 kJ/mol
# Density = 2.659251 g / cm^3
# Si number density = 26.653173 Si / 1000 Ang^3
#
#
#
# Elastic Constant Matrix: (Units=GPa)
#
#
# Indices 1 2 3 4 5 6 
#
# 1 125.3113 21.3972 33.1559 0.0000 -1.3701 0.0000
# 2 21.3972 65.3961 18.8782 0.0000 11.9060 0.0000
# 3 33.1559 18.8782 126.5157 0.0000 6.8391 0.0000
# 4 0.0000 0.0000 0.0000 34.6439 0.0000 19.1725
# 5 -1.3701 11.9060 6.8391 0.0000 46.6071 0.0000
# 6 0.0000 0.0000 0.0000 19.1725 0.0000 53.9155
#
#
#
# Elastic Compliance Matrix: (Units=1/GPa)
#
#
# Indices 1 2 3 4 5 6 
#
# 1 0.008970 -0.002570 -0.002033 0.000000 0.001219 0.000000
# 2 -0.002570 0.017398 -0.001692 0.000000 -0.004272 0.000000
# 3 -0.002033 -0.001692 0.008739 0.000000 -0.000910 0.000000
# 4 0.000000 0.000000 0.000000 0.035938 0.000000 -0.012780
# 5 0.001219 -0.004272 -0.000910 0.000000 0.022717 0.000000
# 6 0.000000 0.000000 0.000000 -0.012780 0.000000 0.023092
#
#
# Mechanical properties :
#
#
# Convention : Reuss Voigt Hill
#
# Bulk Modulus (GPa) = 44.40981 51.56508 47.98745
# Shear Modulus (GPa) = 36.50998 43.28607 39.89802
#
# Velocity S-wave (km/s) = 3.70512 4.03432 3.87322
# Velocity P-wave (km/s) = 5.91626 6.41012 6.16814
#
# Compressibility (1/GPa) = 0.02251755
#
# Stress axis : x y z
#
# Youngs Moduli (GPa) = 111.47978 57.47660 114.43454
#
# Poissons Ratio (x) = 0.14771 0.23267
# Poissons Ratio (y) = 0.28649 0.19359
# Poissons Ratio (z) = 0.22666 0.09723
#
# Static dielectric constant tensor:
#      x y z
#    x 2.041980 0.000000 0.042260 
#    y 0.000000 2.209780 0.000000 
#    z 0.042260 0.000000 2.109560 
# 
# From -- ./inp_files/268357.got.cif
#   From: 2010.05.17/outbox.cif.g08.bks.cpg/sg15_135_cif.got.tgz:268357.got - 2010.06.03 18:47:42.
