data_PCOD9286809
_publ_section_title
;
Structure prediction by ZEFSAII (Michael W. Deem and Ramdas Pophale) SiO2 
 PCOD9286809
Probable space group: C 2/C
;
_chemical_formula_sum "Si O2"
_cell_formula_units_Z 40
_cell_length_a 13.597056
_cell_length_b 21.011273
_cell_length_c 8.404679
_cell_angle_alpha 90.000000
_cell_angle_beta 42.121187
_cell_angle_gamma 90.000000
_cell_volume 1610.450201
_symmetry_space_group_name_H-M "C 2/C"
_symmetry_group_IT_number 15
_symmetry_cell_setting 'monoclinic'
loop_
_space_group_symop_operation_xyz
x,y,z
-x,y,1/2-z
-x,-y,-z
x,-y,1/2+z
1/2+x,1/2+y,z
1/2-x,1/2+y,1/2-z
1/2-x,1/2-y,-z
1/2+x,1/2-y,1/2+z
loop_
_atom_site_type_symbol
_atom_site_label
_atom_site_fract_x
_atom_site_fract_y
_atom_site_fract_z
Si Si1 0.785049 0.703471 0.102592
Si Si2 0.169535 0.924768 0.833609
Si Si3 0.500087 0.753010 0.915506
Si Si4 0.848876 0.884270 0.272455
Si Si5 0.112103 0.461865 0.475197
O O1 0.743886 0.630044 0.136833
O O2 0.662692 0.727352 0.372661
O O3 0.940736 0.711005 0.001271
O O4 0.750000 0.750000 0.000000
O O5 0.252264 0.987961 0.678142
O O6 0.187938 0.908881 0.002575
O O7 0.993766 0.919886 0.029953
O O8 0.500000 0.789845 0.750000
O O9 0.599633 0.688873 0.784144
O O10 0.706843 0.897964 0.334634
O O11 0.000000 0.500000 0.500000
O O12 0.000000 0.447280 0.750000
#
# Coordination Sequence:
#
# PCOD9286809 Si02
#       5
#     8   8   8   8   8
#     4  11  24  42  66 104 141 172 225 291 347 399
#     4  10  22  44  69  95 137 182 225 273 342 417
#     4  11  22  42  70  97 131 186 235 271 333 421
#     4  10  21  44  69  95 131 181 238 270 331 425
#     4  12  25  42  66 101 136 171 224 291 348 398
#
# _framework density 24.837775000000001
#
# number of rings (size 3 to 8) (size 9 to 14) (size 15 to 20)
#    0.000    1.200    6.000    1.800    0.000    4.800 
#    0.000    2.000    0.000    0.000    0.000    0.000 
#    0.000    0.000    0.000    0.000    0.000    0.000 
#
# Total GULP energy -111590.005171 kJ/mol
# GULP energy per Si atom -5579.500259 kJ/mol
# Density = 2.478124 g / cm^3
# Si number density = 24.837775 Si / 1000 Ang^3
#
#
#
# Elastic Constant Matrix: (Units=GPa)
#
#
# Indices 1 2 3 4 5 6 
#
# 1 92.5696 5.4478 13.7332 0.0000 -37.5938 0.0000
# 2 5.4478 82.4821 37.3893 0.0000 -16.5200 0.0000
# 3 13.7332 37.3893 67.7115 0.0000 -19.9255 0.0000
# 4 0.0000 0.0000 0.0000 45.6266 0.0000 -17.4330
# 5 -37.5938 -16.5200 -19.9255 0.0000 37.3963 0.0000
# 6 0.0000 0.0000 0.0000 -17.4330 0.0000 30.1389
#
#
#
# Elastic Compliance Matrix: (Units=1/GPa)
#
#
# Indices 1 2 3 4 5 6 
#
# 1 0.018857 0.002480 0.000838 0.000000 0.020499 0.000000
# 2 0.002480 0.016754 -0.008115 0.000000 0.005571 0.000000
# 3 0.000838 -0.008115 0.021670 0.000000 0.008804 0.000000
# 4 0.000000 0.000000 0.000000 0.028135 0.000000 0.016274
# 5 0.020499 0.005571 0.008804 0.000000 0.054500 0.000000
# 6 0.000000 0.000000 0.000000 0.016274 0.000000 0.042593
#
#
# Mechanical properties :
#
#
# Convention : Reuss Voigt Hill
#
# Bulk Modulus (GPa) = 20.96942 39.54487 30.25714
# Shear Modulus (GPa) = 24.03848 35.04524 29.54186
#
# Velocity S-wave (km/s) = 3.11435 3.76036 3.45250
# Velocity P-wave (km/s) = 4.62527 5.89996 5.30107
#
# Compressibility (1/GPa) = 0.04768848
#
# Stress axis : x y z
#
# Youngs Moduli (GPa) = 53.02961 59.68560 46.14578
#
# Poissons Ratio (x) = -0.14804 -0.03867
# Poissons Ratio (y) = -0.13153 0.37449
# Poissons Ratio (z) = -0.04444 0.48437
#
# Static dielectric constant tensor:
#      x y z
#    x 1.966730 0.000000 0.075360 
#    y 0.000000 1.940330 0.000000 
#    z 0.075360 0.000000 1.898550 
# 
# From -- ./inp_files/41931.got.cif
#   From: 2010.05.17/outbox.cif.g08.bks.cpg/sg15_21_cif.got.tgz:41931.got - 2010.06.03 18:47:42.
