data_PCOD9286821
_publ_section_title
;
Structure prediction by ZEFSAII (Michael W. Deem and Ramdas Pophale) SiO2 
 PCOD9286821
Probable space group: C 2/C
;
_chemical_formula_sum "Si O2"
_cell_formula_units_Z 56
_cell_length_a 10.095907
_cell_length_b 16.008367
_cell_length_c 12.978847
_cell_angle_alpha 90.000000
_cell_angle_beta 82.506804
_cell_angle_gamma 90.000000
_cell_volume 2079.715072
_symmetry_space_group_name_H-M "C 2/C"
_symmetry_group_IT_number 15
_symmetry_cell_setting 'monoclinic'
loop_
_space_group_symop_operation_xyz
x,y,z
-x,y,1/2-z
-x,-y,-z
x,-y,1/2+z
1/2+x,1/2+y,z
1/2-x,1/2+y,1/2-z
1/2-x,1/2-y,-z
1/2+x,1/2-y,1/2+z
loop_
_atom_site_type_symbol
_atom_site_label
_atom_site_fract_x
_atom_site_fract_y
_atom_site_fract_z
Si Si1 0.122389 0.586951 0.523773
Si Si2 0.898179 0.882587 0.085325
Si Si3 0.262724 0.025325 0.645190
Si Si4 0.788956 0.722420 0.654399
Si Si5 0.522471 0.547958 0.381311
Si Si6 0.500000 0.704206 0.250000
Si Si7 0.500000 0.034148 0.750000
Si Si8 0.544383 0.216727 0.075345
O O1 0.263341 0.630674 0.536054
O O2 0.162034 0.497444 0.471150
O O3 0.044021 0.580656 0.639597
O O4 0.047060 0.638394 0.442905
O O5 0.952962 0.795489 0.117506
O O6 0.013803 0.921639 0.000355
O O7 0.882874 0.968459 0.151171
O O8 0.243935 0.124973 0.658810
O O9 0.364459 0.992337 0.722659
O O10 0.123593 0.977833 0.645682
O O11 0.664144 0.783000 0.645156
O O12 0.884776 0.730879 0.543943
O O13 0.870559 0.737242 0.751952
O O14 0.546545 0.637255 0.329152
#
# Coordination Sequence:
#
# PCOD9286821 Si02
#       8
#     8   8   8   8   8   4   4   8
#     4  11  26  43  76 103 147 194 247 303 372 432
#     4  10  21  44  70 100 139 194 237 295 357 437
#     4  11  24  47  70 105 143 199 237 306 374 438
#     4  11  24  41  74 102 146 186 248 292 366 431
#     4  10  23  42  71 100 142 181 250 290 358 434
#     4  12  25  44  70 117 136 194 246 311 346 438
#     4  12  25  42  66 107 142 186 248 305 364 434
#     4  11  22  43  70 106 140 194 241 291 363 435
#
# _framework density 26.926763999999999
#
# number of rings (size 3 to 8) (size 9 to 14) (size 15 to 20)
#    0.000    1.143    4.286    1.286    2.000    1.143 
#    0.000    0.000    0.000    3.429    0.000    0.000 
#    0.000    0.000    0.000    0.000    0.000    0.000 
#
# Total GULP energy -156337.610621 kJ/mol
# GULP energy per Si atom -5583.486094 kJ/mol
# Density = 2.686548 g / cm^3
# Si number density = 26.926764 Si / 1000 Ang^3
#
#
#
# Elastic Constant Matrix: (Units=GPa)
#
#
# Indices 1 2 3 4 5 6 
#
# 1 133.3543 45.4889 7.5910 0.0000 43.7706 0.0000
# 2 45.4889 125.9516 23.9772 0.0000 5.6814 0.0000
# 3 7.5910 23.9772 67.0207 0.0000 15.1425 0.0000
# 4 0.0000 0.0000 0.0000 37.4823 0.0000 13.9827
# 5 43.7706 5.6814 15.1425 0.0000 45.5759 0.0000
# 6 0.0000 0.0000 0.0000 13.9827 0.0000 40.4297
#
#
#
# Elastic Compliance Matrix: (Units=1/GPa)
#
#
# Indices 1 2 3 4 5 6 
#
# 1 0.013308 -0.004820 0.003210 0.000000 -0.013247 0.000000
# 2 -0.004820 0.010266 -0.004199 0.000000 0.004744 0.000000
# 3 0.003210 -0.004199 0.017988 0.000000 -0.008536 0.000000
# 4 0.000000 0.000000 0.000000 0.030631 0.000000 -0.010594
# 5 -0.013247 0.004744 -0.008536 0.000000 0.036908 0.000000
# 6 0.000000 0.000000 0.000000 -0.010594 0.000000 0.028398
#
#
# Mechanical properties :
#
#
# Convention : Reuss Voigt Hill
#
# Bulk Modulus (GPa) = 33.39511 53.38230 43.38870
# Shear Modulus (GPa) = 31.42723 41.31556 36.37139
#
# Velocity S-wave (km/s) = 3.42005 3.92135 3.67925
# Velocity P-wave (km/s) = 5.29384 6.35379 5.84788
#
# Compressibility (1/GPa) = 0.02994450
#
# Stress axis : x y z
#
# Youngs Moduli (GPa) = 75.14177 97.41262 55.59312
#
# Poissons Ratio (x) = 0.46952 -0.17845
# Poissons Ratio (y) = 0.36218 0.23341
# Poissons Ratio (z) = -0.24120 0.40900
#
# Static dielectric constant tensor:
#      x y z
#    x 2.104750 0.000000 -0.077160 
#    y 0.000000 2.157990 0.000000 
#    z -0.077160 0.000000 2.406780 
# 
# From -- ./inp_files/144290.got.cif
#   From: 2010.05.17/outbox.cif.g08.bks.cpg/sg15_73_cif.got.tgz:144290.got - 2010.06.03 18:47:42.
