data_PCOD9286066
_publ_section_title
;
Structure prediction by ZEFSAII (Michael W. Deem and Ramdas Pophale) SiO2 
 PCOD9286066
Probable space group: C 2/C
;
_chemical_formula_sum "Si O2"
_cell_formula_units_Z 48
_cell_length_a 13.544110
_cell_length_b 29.964924
_cell_length_c 11.389666
_cell_angle_alpha 90.000000
_cell_angle_beta 32.354069
_cell_angle_gamma 90.000000
_cell_volume 2473.716833
_symmetry_space_group_name_H-M "C 2/C"
_symmetry_group_IT_number 15
_symmetry_cell_setting 'monoclinic'
loop_
_space_group_symop_operation_xyz
x,y,z
-x,y,1/2-z
-x,-y,-z
x,-y,1/2+z
1/2+x,1/2+y,z
1/2-x,1/2+y,1/2-z
1/2-x,1/2-y,-z
1/2+x,1/2-y,1/2+z
loop_
_atom_site_type_symbol
_atom_site_label
_atom_site_fract_x
_atom_site_fract_y
_atom_site_fract_z
Si Si1 0.322537 0.300718 0.658488
Si Si2 0.961331 0.632741 0.153190
Si Si3 0.743511 0.201167 0.754654
Si Si4 0.218343 0.074670 0.024052
Si Si5 0.281585 0.318908 0.960050
Si Si6 0.990501 0.548802 0.955099
O O1 0.221664 0.337181 0.680712
O O2 0.294811 0.249417 0.650612
O O3 0.540003 0.309673 0.450715
O O4 0.230258 0.304336 0.880974
O O5 0.000000 0.624063 0.250000
O O6 0.953474 0.587146 0.087898
O O7 0.122628 0.663406 0.936486
O O8 0.696919 0.202771 0.661606
O O9 0.248525 0.128040 0.001814
O O10 0.000000 0.066205 0.250000
O O11 0.329002 0.052738 0.020286
O O12 0.318334 0.058999 0.805099
O O13 0.500000 0.310221 0.750000
O O14 0.000000 0.500000 0.000000
#
# Coordination Sequence:
#
# PCOD9286066 Si02
#       6
#     8   8   8   8   8   8
#     4  11  22  40  62  94 128 168 214 263 322 387
#     4  12  27  43  62  89 131 179 223 266 314 385
#     4  11  22  40  62  94 128 168 214 263 322 387
#     4  10  21  42  71 101 133 165 204 282 347 381
#     4   9  18  34  64  97 127 157 200 257 332 383
#     4  11  25  44  72  99 129 172 224 273 331 397
#
# _framework density 19.404
#
# number of rings (size 3 to 8) (size 9 to 14) (size 15 to 20)
#    0.000    1.333    5.000    0.500    2.333    2.667 
#    0.000    0.000    0.000    0.000    0.000    0.000 
#    0.000    0.000    0.000    0.000    0.000    0.000 
#
# Total GULP energy -134146.498064 kJ/mol
# GULP energy per Si atom -5589.437419 kJ/mol
# Density = 1.935984 g / cm^3
# Si number density = 19.404000 Si / 1000 Ang^3
#
#
#
# Elastic Constant Matrix: (Units=GPa)
#
#
# Indices 1 2 3 4 5 6 
#
# 1 59.4674 8.7031 -6.6083 0.0000 0.9743 0.0000
# 2 8.7031 104.5128 -0.5671 0.0000 2.9829 0.0000
# 3 -6.6083 -0.5671 43.5958 0.0000 -17.8941 0.0000
# 4 0.0000 0.0000 0.0000 10.0998 0.0000 -8.7374
# 5 0.9743 2.9829 -17.8941 0.0000 37.9914 0.0000
# 6 0.0000 0.0000 0.0000 -8.7374 0.0000 16.8165
#
#
#
# Elastic Compliance Matrix: (Units=1/GPa)
#
#
# Indices 1 2 3 4 5 6 
#
# 1 0.017352 -0.001460 0.003069 0.000000 0.001115 0.000000
# 2 -0.001460 0.009714 -0.000487 0.000000 -0.000955 0.000000
# 3 0.003069 -0.000487 0.028984 0.000000 0.013611 0.000000
# 4 0.000000 0.000000 0.000000 0.179853 0.000000 0.093447
# 5 0.001115 -0.000955 0.013611 0.000000 0.032779 0.000000
# 6 0.000000 0.000000 0.000000 0.093447 0.000000 0.108018
#
#
# Mechanical properties :
#
#
# Convention : Reuss Voigt Hill
#
# Bulk Modulus (GPa) = 17.15426 23.40349 20.27887
# Shear Modulus (GPa) = 12.69398 26.71811 19.70605
#
# Velocity S-wave (km/s) = 2.56050 3.71474 3.19025
# Velocity P-wave (km/s) = 4.19539 5.52145 4.90345
#
# Compressibility (1/GPa) = 0.05829457
#
# Stress axis : x y z
#
# Youngs Moduli (GPa) = 57.62889 102.93994 34.50235
#
# Poissons Ratio (x) = 0.15031 -0.10589
# Poissons Ratio (y) = 0.08415 0.01679
# Poissons Ratio (z) = -0.17687 0.05011
#
# Static dielectric constant tensor:
#      x y z
#    x 1.691260 0.000000 0.000570 
#    y 0.000000 1.651160 0.000000 
#    z 0.000570 0.000000 1.683670 
# 
# From -- ./inp_files/101259.got.cif
#   From: 2010.05.17/outbox.cif.g08.bks.cpg/sg15_51_cif.got.tgz:101259.got - 2010.06.03 18:47:42.
