data_PCOD9286886
_publ_section_title
;
Structure prediction by ZEFSAII (Michael W. Deem and Ramdas Pophale) SiO2 
 PCOD9286886
Probable space group: C 2/C
;
_chemical_formula_sum "Si O2"
_cell_formula_units_Z 60
_cell_length_a 15.735241
_cell_length_b 11.796235
_cell_length_c 14.732653
_cell_angle_alpha 90.000000
_cell_angle_beta 68.240402
_cell_angle_gamma 90.000000
_cell_volume 2539.776007
_symmetry_space_group_name_H-M "C 2/C"
_symmetry_group_IT_number 15
_symmetry_cell_setting 'monoclinic'
loop_
_space_group_symop_operation_xyz
x,y,z
-x,y,1/2-z
-x,-y,-z
x,-y,1/2+z
1/2+x,1/2+y,z
1/2-x,1/2+y,1/2-z
1/2-x,1/2-y,-z
1/2+x,1/2-y,1/2+z
loop_
_atom_site_type_symbol
_atom_site_label
_atom_site_fract_x
_atom_site_fract_y
_atom_site_fract_z
Si Si1 0.788049 0.801072 0.077293
Si Si2 0.985342 0.462901 0.858577
Si Si3 0.329606 0.623333 0.294390
Si Si4 0.659880 0.707967 0.406280
Si Si5 0.000000 0.978232 0.250000
Si Si6 0.667955 0.038073 0.838605
Si Si7 0.480644 0.709867 0.602109
Si Si8 0.290796 0.972818 0.888964
O O1 0.706820 0.750165 0.172228
O O2 0.886682 0.776565 0.081610
O O3 0.785339 0.934653 0.062171
O O4 0.750000 0.750000 0.000000
O O5 0.879102 0.486063 0.917128
O O6 0.000000 0.506432 0.750000
O O7 0.060132 0.517863 0.893564
O O8 0.004963 0.329022 0.852289
O O9 0.354870 0.631650 0.178164
O O10 0.415761 0.562507 0.305981
O O11 0.241664 0.546308 0.352439
O O12 0.683343 0.835300 0.366752
O O13 0.569513 0.699235 0.502866
O O14 0.749252 0.651118 0.414918
O O15 0.975417 0.894039 0.175753
O O16 0.682620 0.002397 0.726283
#
# Coordination Sequence:
#
# PCOD9286886 Si02
#       8
#     8   8   8   8   4   8   8   8
#     4  12  28  49  75 104 153 197 244 302 375 447
#     4  10  22  42  72 104 142 193 247 301 365 442
#     4  11  26  47  73 105 146 199 247 299 381 447
#     4  11  26  44  77 109 151 191 254 312 372 442
#     4  12  30  46  78 106 154 196 248 310 390 446
#     4  10  21  44  73 102 143 195 242 304 366 437
#     4  12  27  49  75 111 152 194 248 312 378 450
#     4  10  24  43  70 106 147 190 244 305 364 443
#
# _framework density 23.624130000000001
#
# number of rings (size 3 to 8) (size 9 to 14) (size 15 to 20)
#    0.000    1.067    3.333    1.600    7.467    3.200 
#    0.000    0.000    0.000    0.000    0.000    0.000 
#    0.000    0.000    0.000    0.000    0.000    0.000 
#
# Total GULP energy -167523.138948 kJ/mol
# GULP energy per Si atom -5584.104632 kJ/mol
# Density = 2.357036 g / cm^3
# Si number density = 23.624130 Si / 1000 Ang^3
#
#
#
# Elastic Constant Matrix: (Units=GPa)
#
#
# Indices 1 2 3 4 5 6 
#
# 1 108.4761 20.2496 11.6407 0.0000 0.7103 0.0000
# 2 20.2496 107.1369 -1.3877 0.0000 -8.2112 0.0000
# 3 11.6407 -1.3877 69.6338 0.0000 8.3997 0.0000
# 4 0.0000 0.0000 0.0000 18.0407 0.0000 -8.6149
# 5 0.7103 -8.2112 8.3997 0.0000 14.5661 0.0000
# 6 0.0000 0.0000 0.0000 -8.6149 0.0000 22.9014
#
#
#
# Elastic Compliance Matrix: (Units=1/GPa)
#
#
# Indices 1 2 3 4 5 6 
#
# 1 0.009751 -0.001912 -0.001591 0.000000 -0.000636 0.000000
# 2 -0.001912 0.010147 -0.000193 0.000000 0.005924 0.000000
# 3 -0.001591 -0.000193 0.015720 0.000000 -0.009096 0.000000
# 4 0.000000 0.000000 0.000000 0.067568 0.000000 0.025417
# 5 -0.000636 0.005924 -0.009096 0.000000 0.077269 0.000000
# 6 0.000000 0.000000 0.000000 0.025417 0.000000 0.053227
#
#
# Mechanical properties :
#
#
# Convention : Reuss Voigt Hill
#
# Bulk Modulus (GPa) = 35.42979 38.47242 36.95111
# Shear Modulus (GPa) = 19.96154 28.08459 24.02307
#
# Velocity S-wave (km/s) = 2.90998 3.45165 3.19233
# Velocity P-wave (km/s) = 5.13035 5.67501 5.40954
#
# Compressibility (1/GPa) = 0.02822483
#
# Stress axis : x y z
#
# Youngs Moduli (GPa) = 102.55856 98.55282 63.61194
#
# Poissons Ratio (x) = 0.18846 0.10123
# Poissons Ratio (y) = 0.19612 0.01226
# Poissons Ratio (z) = 0.16321 0.01900
#
# Static dielectric constant tensor:
#      x y z
#    x 1.882130 0.000000 0.035220 
#    y 0.000000 1.873930 0.000000 
#    z 0.035220 0.000000 2.112560 
# 
# From -- ./inp_files/204416.got.cif
#   From: 2010.05.17/outbox.cif.g08.bks.cpg/sg15_103_cif.got.tgz:204416.got - 2010.06.03 18:47:42.
