data_PCOD9286634
_publ_section_title
;
Structure prediction by ZEFSAII (Michael W. Deem and Ramdas Pophale) SiO2 
 PCOD9286634
Probable space group: C 2/C
;
_chemical_formula_sum "Si O2"
_cell_formula_units_Z 52
_cell_length_a 8.342861
_cell_length_b 20.740775
_cell_length_c 20.717872
_cell_angle_alpha 90.000000
_cell_angle_beta 135.166227
_cell_angle_gamma 90.000000
_cell_volume 2527.589220
_symmetry_space_group_name_H-M "C 2/C"
_symmetry_group_IT_number 15
_symmetry_cell_setting 'monoclinic'
loop_
_space_group_symop_operation_xyz
x,y,z
-x,y,1/2-z
-x,-y,-z
x,-y,1/2+z
1/2+x,1/2+y,z
1/2-x,1/2+y,1/2-z
1/2-x,1/2-y,-z
1/2+x,1/2-y,1/2+z
loop_
_atom_site_type_symbol
_atom_site_label
_atom_site_fract_x
_atom_site_fract_y
_atom_site_fract_z
Si Si1 0.976149 0.104760 0.484554
Si Si2 0.752302 0.173547 0.304027
Si Si3 0.717393 0.551368 0.858904
Si Si4 0.408913 0.803904 0.398940
Si Si5 0.831028 0.222335 0.927513
Si Si6 0.701507 0.992361 0.973409
Si Si7 0.000000 0.192223 0.250000
O O1 0.920359 0.145173 0.405271
O O2 0.752505 0.068286 0.443333
O O3 0.049696 0.156429 0.559666
O O4 0.162877 0.052020 0.519240
O O5 0.500000 0.152030 0.250000
O O6 0.762844 0.251202 0.317528
O O7 0.862832 0.155785 0.266984
O O8 0.500000 0.541934 0.750000
O O9 0.794553 0.626872 0.876462
O O10 0.938914 0.510703 0.900917
O O11 0.693777 0.526947 0.926490
O O12 0.644378 0.804603 0.425606
O O13 0.487278 0.770485 0.488144
O O14 0.688869 0.262425 0.836261
#
# Coordination Sequence:
#
# PCOD9286634 Si02
#       7
#     8   8   8   8   8   8   4
#     4  10  21  44  63  85 128 173 210 265 323 389
#     4  10  22  39  62  97 129 164 213 270 333 393
#     4  11  23  41  64  95 127 168 219 273 316 384
#     4   9  18  36  62  87 127 161 199 263 330 376
#     4   9  18  35  62  92 122 162 201 263 330 375
#     4  10  24  42  63  90 127 174 220 259 322 380
#     4  10  22  36  62 104 126 164 214 270 340 388
#
# _framework density 20.572963999999999
#
# number of rings (size 3 to 8) (size 9 to 14) (size 15 to 20)
#    0.000    2.154    1.538    1.385    0.000    6.154 
#    4.154    4.615    0.000    0.000    0.000    0.000 
#    0.000    0.000    0.000    0.000    0.000    0.000 
#
# Total GULP energy -144927.890633 kJ/mol
# GULP energy per Si atom -5574.149640 kJ/mol
# Density = 2.052614 g / cm^3
# Si number density = 20.572964 Si / 1000 Ang^3
#
#
#
# Elastic Constant Matrix: (Units=GPa)
#
#
# Indices 1 2 3 4 5 6 
#
# 1 71.5108 16.8477 30.7991 0.0000 0.2810 0.0000
# 2 16.8477 49.0814 11.5969 0.0000 2.8333 0.0000
# 3 30.7991 11.5969 98.0082 0.0000 6.3637 0.0000
# 4 0.0000 0.0000 0.0000 13.5680 0.0000 4.7645
# 5 0.2810 2.8333 6.3637 0.0000 23.2246 0.0000
# 6 0.0000 0.0000 0.0000 4.7645 0.0000 12.8282
#
#
#
# Elastic Compliance Matrix: (Units=1/GPa)
#
#
# Indices 1 2 3 4 5 6 
#
# 1 0.017257 -0.004852 -0.004962 0.000000 0.001743 0.000000
# 2 -0.004852 0.022408 -0.000970 0.000000 -0.002409 0.000000
# 3 -0.004962 -0.000970 0.012081 0.000000 -0.003132 0.000000
# 4 0.000000 0.000000 0.000000 0.084757 0.000000 -0.031479
# 5 0.001743 -0.002409 -0.003132 0.000000 0.044189 0.000000
# 6 0.000000 0.000000 0.000000 -0.031479 0.000000 0.089645
#
#
# Mechanical properties :
#
#
# Convention : Reuss Voigt Hill
#
# Bulk Modulus (GPa) = 33.13737 37.45420 35.29578
# Shear Modulus (GPa) = 16.55820 20.54792 18.55306
#
# Velocity S-wave (km/s) = 2.84007 3.16378 3.00629
# Velocity P-wave (km/s) = 5.18622 5.62059 5.40777
#
# Compressibility (1/GPa) = 0.03017741
#
# Stress axis : x y z
#
# Youngs Moduli (GPa) = 57.94647 44.62662 82.77629
#
# Poissons Ratio (x) = 0.21652 0.41075
# Poissons Ratio (y) = 0.28115 0.08032
# Poissons Ratio (z) = 0.28754 0.04330
#
# Static dielectric constant tensor:
#      x y z
#    x 1.778780 0.000000 -0.005580 
#    y 0.000000 1.757990 0.000000 
#    z -0.005580 0.000000 1.738670 
# 
# From -- ./inp_files/266173.got.cif
#   From: 2010.05.17/outbox.cif.g08.bks.cpg/sg15_134_cif.got.tgz:266173.got - 2010.06.03 18:47:42.
