data_PCOD9286693
_publ_section_title
;
Structure prediction by ZEFSAII (Michael W. Deem and Ramdas Pophale) SiO2 
 PCOD9286693
Probable space group: C 2/C
;
_chemical_formula_sum "Si O2"
_cell_formula_units_Z 32
_cell_length_a 10.860940
_cell_length_b 10.351815
_cell_length_c 16.276426
_cell_angle_alpha 90.000000
_cell_angle_beta 139.074008
_cell_angle_gamma 90.000000
_cell_volume 1198.780626
_symmetry_space_group_name_H-M "C 2/C"
_symmetry_group_IT_number 15
_symmetry_cell_setting 'monoclinic'
loop_
_space_group_symop_operation_xyz
x,y,z
-x,y,1/2-z
-x,-y,-z
x,-y,1/2+z
1/2+x,1/2+y,z
1/2-x,1/2+y,1/2-z
1/2-x,1/2-y,-z
1/2+x,1/2-y,1/2+z
loop_
_atom_site_type_symbol
_atom_site_label
_atom_site_fract_x
_atom_site_fract_y
_atom_site_fract_z
Si Si1 0.961330 0.203939 0.498330
Si Si2 0.480607 0.651008 0.151772
Si Si3 0.113969 0.472585 0.973945
Si Si4 0.259114 0.009558 0.699417
O O1 0.871748 0.318219 0.504623
O O2 0.815337 0.085561 0.410443
O O3 0.019670 0.234147 0.432389
O O4 0.149046 0.143949 0.633117
O O5 0.500000 0.716084 0.250000
O O6 0.660490 0.559408 0.228130
O O7 0.303713 0.554407 0.063933
O O8 0.976007 0.506417 0.829049
O O9 0.000000 0.500000 0.000000
#
# Coordination Sequence:
#
# PCOD9286693 Si02
#       4
#     8   8   8   8
#     4   9  23  45  64  98 149 168 231 309 326 418
#     4  10  21  44  66 103 137 179 234 279 351 418
#     4  12  23  38  73  96 130 194 231 274 363 412
#     4   9  22  45  61  98 146 172 232 301 341 409
#
# _framework density 26.693791000000001
#
# number of rings (size 3 to 8) (size 9 to 14) (size 15 to 20)
#    1.500    0.500    2.500    0.000    3.500    3.000 
#    0.000    0.000    0.000    0.000    0.000    0.000 
#    0.000    0.000    0.000    0.000    0.000    0.000 
#
# Total GULP energy -89505.817233 kJ/mol
# GULP energy per Si atom -5594.113577 kJ/mol
# Density = 2.663304 g / cm^3
# Si number density = 26.693791 Si / 1000 Ang^3
#
#
#
# Elastic Constant Matrix: (Units=GPa)
#
#
# Indices 1 2 3 4 5 6 
#
# 1 110.9698 47.7759 44.3201 0.0000 -9.4639 0.0000
# 2 47.7759 113.1652 38.7858 0.0000 12.7830 0.0000
# 3 44.3201 38.7858 131.5985 0.0000 -1.8185 0.0000
# 4 0.0000 0.0000 0.0000 12.0110 0.0000 -10.9521
# 5 -9.4639 12.7830 -1.8185 0.0000 58.4324 0.0000
# 6 0.0000 0.0000 0.0000 -10.9521 0.0000 45.9613
#
#
#
# Elastic Compliance Matrix: (Units=1/GPa)
#
#
# Indices 1 2 3 4 5 6 
#
# 1 0.012341 -0.004593 -0.002762 0.000000 0.002918 0.000000
# 2 -0.004593 0.011841 -0.001990 0.000000 -0.003396 0.000000
# 3 -0.002762 -0.001990 0.009119 0.000000 0.000272 0.000000
# 4 0.000000 0.000000 0.000000 0.106369 0.000000 0.025347
# 5 0.002918 -0.003396 0.000272 0.000000 0.018338 0.000000
# 6 0.000000 0.000000 0.000000 0.025347 0.000000 0.027797
#
#
# Mechanical properties :
#
#
# Convention : Reuss Voigt Hill
#
# Bulk Modulus (GPa) = 68.44051 68.61079 68.52565
# Shear Modulus (GPa) = 23.88154 38.27105 31.07629
#
# Velocity S-wave (km/s) = 2.99431 3.79054 3.41571
# Velocity P-wave (km/s) = 6.13590 6.70196 6.42517
#
# Compressibility (1/GPa) = 0.01461123
#
# Stress axis : x y z
#
# Youngs Moduli (GPa) = 81.03162 84.44949 109.65591
#
# Poissons Ratio (x) = 0.38787 0.30289
# Poissons Ratio (y) = 0.37217 0.21823
# Poissons Ratio (z) = 0.22383 0.16806
#
# Static dielectric constant tensor:
#      x y z
#    x 2.151580 0.000000 -0.052210 
#    y 0.000000 2.238620 0.000000 
#    z -0.052210 0.000000 2.028760 
# 
# From -- ./inp_files/196405.got.cif
#   From: 2010.05.17/outbox.cif.g08.bks.cpg/sg15_99_cif.got.tgz:196405.got - 2010.06.03 18:47:42.
