data_PCOD9286765
_publ_section_title
;
Structure prediction by ZEFSAII (Michael W. Deem and Ramdas Pophale) SiO2 
 PCOD9286765
Probable space group: C 2/C
;
_chemical_formula_sum "Si O2"
_cell_formula_units_Z 48
_cell_length_a 28.109119
_cell_length_b 5.818883
_cell_length_c 28.180467
_cell_angle_alpha 90.000000
_cell_angle_beta 150.116053
_cell_angle_gamma 90.000000
_cell_volume 2296.560285
_symmetry_space_group_name_H-M "C 2/C"
_symmetry_group_IT_number 15
_symmetry_cell_setting 'monoclinic'
loop_
_space_group_symop_operation_xyz
x,y,z
-x,y,1/2-z
-x,-y,-z
x,-y,1/2+z
1/2+x,1/2+y,z
1/2-x,1/2+y,1/2-z
1/2-x,1/2-y,-z
1/2+x,1/2-y,1/2+z
loop_
_atom_site_type_symbol
_atom_site_label
_atom_site_fract_x
_atom_site_fract_y
_atom_site_fract_z
Si Si1 0.216685 0.503043 0.991419
Si Si2 0.606596 0.133876 0.720756
Si Si3 0.981792 0.588757 0.036733
Si Si4 0.490329 0.137615 0.189783
Si Si5 0.295848 0.165416 0.418885
Si Si6 0.446878 0.484414 0.068477
O O1 0.240119 0.513465 0.068067
O O2 0.250000 0.250000 0.000000
O O3 0.102133 0.522618 0.886242
O O4 0.250000 0.750000 0.000000
O O5 0.574643 0.972731 0.649340
O O6 0.709798 0.248297 0.811845
O O7 0.529314 0.333567 0.648453
O O8 0.581431 0.997178 0.747611
O O9 0.961977 0.854914 0.031475
O O10 0.884734 0.463774 0.971089
O O11 0.000000 0.500000 0.000000
O O12 0.500000 0.245716 0.250000
O O13 0.458548 0.308071 0.121132
O O14 0.345318 0.394273 0.482141
#
# Coordination Sequence:
#
# PCOD9286765 Si02
#       6
#     8   8   8   8   8   8
#     4  12  25  40  65  98 137 187 237 287 352 415
#     4  10  23  42  65  96 133 178 229 284 355 424
#     4  10  23  46  69  99 134 174 230 297 366 425
#     4  11  23  39  61  94 133 183 234 283 340 420
#     4  11  23  44  66  99 139 181 233 293 351 438
#     4  10  21  44  68  87 142 175 224 294 353 411
#
# _framework density 20.900824
#
# number of rings (size 3 to 8) (size 9 to 14) (size 15 to 20)
#    0.000    1.333    5.000    2.000    2.333    6.000 
#    6.000    0.000    0.000    0.000    0.000    0.000 
#    0.000    0.000    0.000    0.000    0.000    0.000 
#
# Total GULP energy -133822.160976 kJ/mol
# GULP energy per Si atom -5575.923374 kJ/mol
# Density = 2.085325 g / cm^3
# Si number density = 20.900824 Si / 1000 Ang^3
#
#
#
# Elastic Constant Matrix: (Units=GPa)
#
#
# Indices 1 2 3 4 5 6 
#
# 1 96.4713 34.4040 2.5410 0.0004 -23.1767 0.0024
# 2 34.4040 84.7483 3.6603 -0.0043 -0.6559 -0.0014
# 3 2.5410 3.6603 88.6194 0.0022 7.2852 0.0005
# 4 0.0004 -0.0043 0.0022 18.2291 0.0008 5.0384
# 5 -23.1767 -0.6559 7.2852 0.0008 29.9747 0.0003
# 6 0.0024 -0.0014 0.0005 5.0384 0.0003 18.0268
#
#
#
# Elastic Compliance Matrix: (Units=1/GPa)
#
#
# Indices 1 2 3 4 5 6 
#
# 1 0.015508 -0.006150 -0.001189 -0.000002 0.012146 -0.000002
# 2 -0.006150 0.014264 -0.000049 0.000003 -0.004432 0.000001
# 3 -0.001189 -0.000049 0.011628 -0.000001 -0.003747 0.000000
# 4 -0.000002 0.000003 -0.000001 0.059450 -0.000002 -0.016616
# 5 0.012146 -0.004432 -0.003747 -0.000002 0.043566 -0.000002
# 6 -0.000002 0.000001 0.000000 -0.016616 -0.000002 0.060117
#
#
# Mechanical properties :
#
#
# Convention : Reuss Voigt Hill
#
# Bulk Modulus (GPa) = 37.55870 39.00552 38.28211
# Shear Modulus (GPa) = 21.91202 28.52836 25.22019
#
# Velocity S-wave (km/s) = 3.24138 3.69852 3.47747
# Velocity P-wave (km/s) = 5.65842 6.07794 5.87193
#
# Compressibility (1/GPa) = 0.02662499
#
# Stress axis : x y z
#
# Youngs Moduli (GPa) = 64.48129 70.10552 85.99696
#
# Poissons Ratio (x) = 0.43117 0.10226
# Poissons Ratio (y) = 0.39658 0.00417
# Poissons Ratio (z) = 0.07667 0.00340
#
# Static dielectric constant tensor:
#      x y z
#    x 1.816720 0.000000 -0.018000 
#    y 0.000000 1.836190 0.000000 
#    z -0.018000 0.000000 1.760580 
# 
# From -- ./inp_files/319250.got.cif
#   From: 2010.05.17/outbox.cif.g08.bks.cpg/sg15_160_cif.got.tgz:319250.got - 2010.06.03 18:47:42.
