data_PCOD9286388
_publ_section_title
;
Structure prediction by ZEFSAII (Michael W. Deem and Ramdas Pophale) SiO2 
 PCOD9286388
Probable space group: C 2/C
;
_chemical_formula_sum "Si O2"
_cell_formula_units_Z 64
_cell_length_a 18.124178
_cell_length_b 26.844591
_cell_length_c 12.087270
_cell_angle_alpha 90.000000
_cell_angle_beta 29.489122
_cell_angle_gamma 90.000000
_cell_volume 2894.918811
_symmetry_space_group_name_H-M "C 2/C"
_symmetry_group_IT_number 15
_symmetry_cell_setting 'monoclinic'
loop_
_space_group_symop_operation_xyz
x,y,z
-x,y,1/2-z
-x,-y,-z
x,-y,1/2+z
1/2+x,1/2+y,z
1/2-x,1/2+y,1/2-z
1/2-x,1/2-y,-z
1/2+x,1/2-y,1/2+z
loop_
_atom_site_type_symbol
_atom_site_label
_atom_site_fract_x
_atom_site_fract_y
_atom_site_fract_z
Si Si1 0.265681 0.674412 0.334092
Si Si2 0.161064 0.377316 0.595668
Si Si3 0.829431 0.568135 0.077432
Si Si4 0.217997 0.326327 0.147248
Si Si5 0.158380 0.556509 0.690539
Si Si6 0.668196 0.461273 0.986793
Si Si7 0.605914 0.322923 0.362951
Si Si8 0.900750 0.288130 0.649901
O O1 0.157143 0.626971 0.461383
O O2 0.253103 0.691480 0.476978
O O3 0.212273 0.709771 0.306226
O O4 0.435694 0.659081 0.088573
O O5 0.230539 0.424424 0.569544
O O6 0.278450 0.358793 0.350036
O O7 0.139483 0.330907 0.709108
O O8 0.000000 0.388123 0.750000
O O9 0.687094 0.559139 0.338596
O O10 0.818629 0.546002 0.970103
O O11 0.980505 0.550653 0.940959
O O12 0.198713 0.386487 0.164619
O O13 0.342784 0.317063 0.076891
O O14 0.065664 0.301156 0.389161
O O15 0.262696 0.516397 0.611165
O O16 0.500000 0.461378 0.250000
O O17 0.604915 0.268948 0.303878
#
# Coordination Sequence:
#
# PCOD9286388 Si02
#       8
#     8   8   8   8   8   8   8   8
#     4  11  23  41  71  96 138 179 227 288 347 417
#     4  12  27  47  69  96 142 190 239 292 350 428
#     4  10  21  43  67  98 133 185 227 282 346 424
#     4  11  23  45  68 103 142 182 230 289 355 423
#     4  10  23  41  73  98 138 185 234 285 356 420
#     4  12  26  44  72 105 137 182 236 298 354 417
#     4  12  27  42  68 105 142 177 235 298 350 412
#     4  12  24  46  70  99 136 191 234 281 356 429
#
# _framework density 22.107702
#
# number of rings (size 3 to 8) (size 9 to 14) (size 15 to 20)
#    0.000    0.750    3.750    3.000    1.750    6.500 
#    0.000    0.000    0.000    0.000    0.000    0.000 
#    0.000    0.000    0.000    0.000    0.000    0.000 
#
# Total GULP energy -178966.324079 kJ/mol
# GULP energy per Si atom -5592.697627 kJ/mol
# Density = 2.205738 g / cm^3
# Si number density = 22.107702 Si / 1000 Ang^3
#
#
#
# Elastic Constant Matrix: (Units=GPa)
#
#
# Indices 1 2 3 4 5 6 
#
# 1 65.1403 15.0150 26.1084 0.0060 -16.4364 -0.0050
# 2 15.0150 57.5804 11.2965 0.0044 -16.9626 -0.0025
# 3 26.1084 11.2965 124.6814 0.0132 -10.5769 0.0028
# 4 0.0060 0.0044 0.0132 20.7756 -0.0041 -5.9003
# 5 -16.4364 -16.9626 -10.5769 -0.0041 34.1484 -0.0001
# 6 -0.0050 -0.0025 0.0028 -5.9003 -0.0001 10.7142
#
#
#
# Elastic Compliance Matrix: (Units=1/GPa)
#
#
# Indices 1 2 3 4 5 6 
#
# 1 0.018903 -0.002246 -0.003161 0.000001 0.007004 0.000010
# 2 -0.002246 0.020736 -0.000643 0.000000 0.009020 0.000004
# 3 -0.003161 -0.000643 0.008816 -0.000007 0.000890 -0.000008
# 4 0.000001 0.000000 -0.000007 0.057057 0.000005 0.031421
# 5 0.007004 0.009020 0.000890 0.000005 0.037411 0.000009
# 6 0.000010 0.000004 -0.000008 0.031421 0.000009 0.110637
#
#
# Mechanical properties :
#
#
# Convention : Reuss Voigt Hill
#
# Bulk Modulus (GPa) = 27.50610 39.13800 33.32205
# Shear Modulus (GPa) = 17.99989 26.12645 22.06317
#
# Velocity S-wave (km/s) = 2.85650 3.44143 3.16252
# Velocity P-wave (km/s) = 4.83201 5.79077 5.33298
#
# Compressibility (1/GPa) = 0.03635557
#
# Stress axis : x y z
#
# Youngs Moduli (GPa) = 52.90092 48.22506 113.42925
#
# Poissons Ratio (x) = 0.10831 0.35852
# Poissons Ratio (y) = 0.11881 0.07297
# Poissons Ratio (z) = 0.16721 0.03102
#
# Static dielectric constant tensor:
#      x y z
#    x 1.810470 0.000000 0.006970 
#    y 0.000000 1.842090 0.000000 
#    z 0.006970 0.000000 1.778540 
# 
# From -- ./inp_files/108635.got.cif
#   From: 2010.05.17/outbox.cif.g08.bks.cpg/sg15_55_cif.got.tgz:108635.got - 2010.06.03 18:47:42.
