data_PCOD9286188
_publ_section_title
;
Structure prediction by ZEFSAII (Michael W. Deem and Ramdas Pophale) SiO2 
 PCOD9286188
Probable space group: C 2/C
;
_chemical_formula_sum "Si O2"
_cell_formula_units_Z 56
_cell_length_a 17.480665
_cell_length_b 9.925621
_cell_length_c 16.315712
_cell_angle_alpha 90.000000
_cell_angle_beta 70.305666
_cell_angle_gamma 90.000000
_cell_volume 2665.285772
_symmetry_space_group_name_H-M "C 2/C"
_symmetry_group_IT_number 15
_symmetry_cell_setting 'monoclinic'
loop_
_space_group_symop_operation_xyz
x,y,z
-x,y,1/2-z
-x,-y,-z
x,-y,1/2+z
1/2+x,1/2+y,z
1/2-x,1/2+y,1/2-z
1/2-x,1/2-y,-z
1/2+x,1/2-y,1/2+z
loop_
_atom_site_type_symbol
_atom_site_label
_atom_site_fract_x
_atom_site_fract_y
_atom_site_fract_z
Si Si1 0.250000 0.250000 0.500000
Si Si2 0.388462 0.317853 0.579648
Si Si3 0.358939 0.063304 0.695192
Si Si4 0.000000 0.366666 0.250000
Si Si5 0.831969 0.003985 0.873805
Si Si6 0.825088 0.335147 0.594443
Si Si7 0.435704 0.694766 0.426593
Si Si8 0.325408 0.431864 0.194922
O O1 0.335095 0.270736 0.522722
O O2 0.280451 0.371989 0.427545
O O3 0.363015 0.216812 0.662879
O O4 0.485943 0.311892 0.542528
O O5 0.363619 0.467239 0.615865
O O6 0.428472 0.045851 0.736713
O O7 0.270216 0.033791 0.762499
O O8 0.370932 0.965486 0.613686
O O9 0.962873 0.274507 0.335205
O O10 0.767352 0.881326 0.887188
O O11 0.901654 0.948462 0.908165
O O12 0.861640 0.043209 0.772112
O O13 0.866228 0.277051 0.498628
O O14 0.830682 0.219310 0.660764
#
# Coordination Sequence:
#
# PCOD9286188 Si02
#       8
#     4   8   8   4   8   8   8   8
#     4  12  24  42  64 100 130 180 226 272 342 402
#     4  11  24  44  68  94 138 181 222 287 344 403
#     4  10  21  43  63 100 130 176 223 276 345 404
#     4  10  22  40  70  96 134 182 220 288 348 408
#     4  11  24  42  70 102 134 184 230 276 345 415
#     4  11  23  42  67 102 137 179 226 283 339 413
#     4  11  24  45  68 100 137 180 233 282 343 414
#     4  11  22  42  71  94 137 177 227 278 337 414
#
# _framework density 21.010881000000001
#
# number of rings (size 3 to 8) (size 9 to 14) (size 15 to 20)
#    0.000    1.143    2.857    5.571    0.000    5.714 
#    2.571    1.429    0.000    0.000    0.000    0.000 
#    0.000    0.000    0.000    0.000    0.000    0.000 
#
# Total GULP energy -155963.638123 kJ/mol
# GULP energy per Si atom -5570.129933 kJ/mol
# Density = 2.096306 g / cm^3
# Si number density = 21.010881 Si / 1000 Ang^3
#
#
#
# Elastic Constant Matrix: (Units=GPa)
#
#
# Indices 1 2 3 4 5 6 
#
# 1 105.5944 7.0346 14.0274 0.0000 34.6243 0.0000
# 2 7.0346 54.7242 14.1819 0.0000 6.0801 0.0000
# 3 14.0274 14.1819 76.6674 0.0000 5.4918 0.0000
# 4 0.0000 0.0000 0.0000 33.2524 0.0000 7.5944
# 5 34.6243 6.0801 5.4918 0.0000 29.8059 0.0000
# 6 0.0000 0.0000 0.0000 7.5944 0.0000 34.3178
#
#
#
# Elastic Compliance Matrix: (Units=1/GPa)
#
#
# Indices 1 2 3 4 5 6 
#
# 1 0.015489 0.000408 -0.001636 0.000000 -0.017774 0.000000
# 2 0.000408 0.019531 -0.003413 0.000000 -0.003829 0.000000
# 3 -0.001636 -0.003413 0.013972 0.000000 0.000022 0.000000
# 4 0.000000 0.000000 0.000000 0.031674 0.000000 -0.007009
# 5 -0.017774 -0.003829 0.000022 0.000000 0.054975 0.000000
# 6 0.000000 0.000000 0.000000 -0.007009 0.000000 0.030690
#
#
# Mechanical properties :
#
#
# Convention : Reuss Voigt Hill
#
# Bulk Modulus (GPa) = 25.18321 34.16376 29.67348
# Shear Modulus (GPa) = 26.47599 32.92470 29.70035
#
# Velocity S-wave (km/s) = 3.55365 3.96287 3.76383
# Velocity P-wave (km/s) = 5.37120 6.10200 5.74822
#
# Compressibility (1/GPa) = 0.03970900
#
# Stress axis : x y z
#
# Youngs Moduli (GPa) = 64.56403 51.20073 71.56932
#
# Poissons Ratio (x) = -0.02088 0.11709
# Poissons Ratio (y) = -0.02633 0.24428
# Poissons Ratio (z) = 0.10563 0.17476
#
# Static dielectric constant tensor:
#      x y z
#    x 1.775380 0.000000 0.014770 
#    y 0.000000 1.744700 0.000000 
#    z 0.014770 0.000000 1.750720 
# 
# From -- ./inp_files/209566.got.cif
#   From: 2010.05.17/outbox.cif.g08.bks.cpg/sg15_105_cif.got.tgz:209566.got - 2010.06.03 18:47:42.
