data_PCOD9286822
_publ_section_title
;
Structure prediction by ZEFSAII (Michael W. Deem and Ramdas Pophale) SiO2 
 PCOD9286822
Probable space group: C 2/C
;
_chemical_formula_sum "Si O2"
_cell_formula_units_Z 56
_cell_length_a 12.110532
_cell_length_b 26.266262
_cell_length_c 9.037242
_cell_angle_alpha 90.000000
_cell_angle_beta 54.243408
_cell_angle_gamma 90.000000
_cell_volume 2332.864670
_symmetry_space_group_name_H-M "C 2/C"
_symmetry_group_IT_number 15
_symmetry_cell_setting 'monoclinic'
loop_
_space_group_symop_operation_xyz
x,y,z
-x,y,1/2-z
-x,-y,-z
x,-y,1/2+z
1/2+x,1/2+y,z
1/2-x,1/2+y,1/2-z
1/2-x,1/2-y,-z
1/2+x,1/2-y,1/2+z
loop_
_atom_site_type_symbol
_atom_site_label
_atom_site_fract_x
_atom_site_fract_y
_atom_site_fract_z
Si Si1 0.785133 0.854198 0.680862
Si Si2 0.960986 0.558041 0.497862
Si Si3 0.531039 0.836774 0.063015
Si Si4 0.274215 0.951543 0.899731
Si Si5 0.917435 0.958786 0.968744
Si Si6 0.560163 0.642881 0.869142
Si Si7 0.697199 0.198761 0.964633
O O1 0.821871 0.913520 0.617066
O O2 0.699636 0.838951 0.602678
O O3 0.934253 0.829840 0.552493
O O4 0.690032 0.841281 0.892899
O O5 0.974634 0.604864 0.597829
O O6 0.087938 0.565254 0.288635
O O7 0.000000 0.500000 0.500000
O O8 0.812834 0.559281 0.538985
O O9 0.500000 0.816873 0.250000
O O10 0.445701 0.805076 0.007613
O O11 0.224505 0.009658 0.939303
O O12 0.000000 0.952309 0.750000
O O13 0.896502 0.905737 0.068409
O O14 0.000000 0.000000 0.000000
O O15 0.500000 0.629939 0.750000
O O16 0.687021 0.679266 0.738636
O O17 0.750000 0.250000 0.000000
#
# Coordination Sequence:
#
# PCOD9286822 Si02
#       7
#     8   8   8   8   8   8   8
#     4  10  21  44  70 100 142 189 254 307 370 463
#     4  10  23  37  60  93 137 192 246 297 354 439
#     4  11  25  43  71 107 149 188 244 328 391 446
#     4  10  22  39  59  91 138 196 249 289 346 450
#     4  12  26  38  64 100 149 205 246 293 374 452
#     4  10  24  44  69 104 145 188 255 321 370 463
#     4  11  25  47  79 107 136 193 253 315 395 465
#
# _framework density 24.004822000000001
#
# number of rings (size 3 to 8) (size 9 to 14) (size 15 to 20)
#    0.000    1.429    2.857    0.857    8.000    4.571 
#    0.000    0.714    0.000    4.286    0.000    0.000 
#    0.000    0.000    0.000    0.000    0.000    0.000 
#
# Total GULP energy -156163.125075 kJ/mol
# GULP energy per Si atom -5577.254467 kJ/mol
# Density = 2.395019 g / cm^3
# Si number density = 24.004822 Si / 1000 Ang^3
#
#
#
# Elastic Constant Matrix: (Units=GPa)
#
#
# Indices 1 2 3 4 5 6 
#
# 1 52.1755 20.1497 38.1368 0.0000 -12.2987 0.0000
# 2 20.1497 114.7471 32.7983 0.0000 -0.5795 0.0000
# 3 38.1368 32.7983 139.1603 0.0000 -18.9923 0.0000
# 4 0.0000 0.0000 0.0000 25.4652 0.0000 12.8148
# 5 -12.2987 -0.5795 -18.9923 0.0000 32.8205 0.0000
# 6 0.0000 0.0000 0.0000 12.8148 0.0000 23.0730
#
#
#
# Elastic Compliance Matrix: (Units=1/GPa)
#
#
# Indices 1 2 3 4 5 6 
#
# 1 0.025846 -0.002930 -0.005513 0.000000 0.006443 0.000000
# 2 -0.002930 0.009721 -0.001753 0.000000 -0.001941 0.000000
# 3 -0.005513 -0.001753 0.009580 0.000000 0.003447 0.000000
# 4 0.000000 0.000000 0.000000 0.054502 0.000000 -0.030271
# 5 0.006443 -0.001941 0.003447 0.000000 0.034844 0.000000
# 6 0.000000 0.000000 0.000000 -0.030271 0.000000 0.060153
#
#
# Mechanical properties :
#
#
# Convention : Reuss Voigt Hill
#
# Bulk Modulus (GPa) = 40.39635 54.25025 47.32330
# Shear Modulus (GPa) = 22.39233 30.60494 26.49864
#
# Velocity S-wave (km/s) = 3.05753 3.57452 3.32609
# Velocity P-wave (km/s) = 5.41569 6.29961 5.87429
#
# Compressibility (1/GPa) = 0.02475471
#
# Stress axis : x y z
#
# Youngs Moduli (GPa) = 38.69034 102.87439 104.37974
#
# Poissons Ratio (x) = 0.30145 0.57546
# Poissons Ratio (y) = 0.11337 0.18296
# Poissons Ratio (z) = 0.21331 0.18032
#
# Static dielectric constant tensor:
#      x y z
#    x 1.728170 0.000000 -0.094090 
#    y 0.000000 2.658230 0.000000 
#    z -0.094090 0.000000 1.719770 
# 
# From -- ./inp_files/35554.got.cif
#   From: 2010.05.17/outbox.cif.g08.bks.cpg/sg15_18_cif.got.tgz:35554.got - 2010.06.03 18:47:42.
