data_PCOD9286454
_publ_section_title
;
Structure prediction by ZEFSAII (Michael W. Deem and Ramdas Pophale) SiO2 
 PCOD9286454
Probable space group: C 2/C
;
_chemical_formula_sum "Si O2"
_cell_formula_units_Z 48
_cell_length_a 13.225719
_cell_length_b 14.782264
_cell_length_c 10.194935
_cell_angle_alpha 90.000000
_cell_angle_beta 74.451909
_cell_angle_gamma 90.000000
_cell_volume 1920.233168
_symmetry_space_group_name_H-M "C 2/C"
_symmetry_group_IT_number 15
_symmetry_cell_setting 'monoclinic'
loop_
_space_group_symop_operation_xyz
x,y,z
-x,y,1/2-z
-x,-y,-z
x,-y,1/2+z
1/2+x,1/2+y,z
1/2-x,1/2+y,1/2-z
1/2-x,1/2-y,-z
1/2+x,1/2-y,1/2+z
loop_
_atom_site_type_symbol
_atom_site_label
_atom_site_fract_x
_atom_site_fract_y
_atom_site_fract_z
Si Si1 0.453811 0.238025 0.137574
Si Si2 0.885465 0.071349 0.758498
Si Si3 0.169278 0.773558 0.913512
Si Si4 0.087162 0.401521 0.329105
Si Si5 0.387154 0.072516 0.051743
Si Si6 0.770983 0.029910 0.072828
O O1 0.500000 0.185208 0.250000
O O2 0.400069 0.323198 0.224085
O O3 0.549272 0.275275 0.013197
O O4 0.367874 0.176829 0.093458
O O5 0.820130 0.052965 0.912191
O O6 0.000000 0.031870 0.750000
O O7 0.840113 0.033032 0.640354
O O8 0.213287 0.872155 0.860161
O O9 0.250000 0.750000 0.000000
O O10 0.159463 0.685948 0.820903
O O11 0.134756 0.502669 0.321722
O O12 0.000000 0.386224 0.250000
O O13 0.013024 0.412460 0.485059
O O14 0.328069 0.030522 0.946993
#
# Coordination Sequence:
#
# PCOD9286454 Si02
#       6
#     8   8   8   8   8   8
#     4  10  21  43  69  90 141 187 219 281 359 420
#     4  11  25  46  71  97 139 187 236 286 356 422
#     4  11  22  40  66  98 134 177 228 278 347 416
#     4  10  22  41  65  98 144 178 229 290 354 418
#     4  10  23  39  67 103 133 182 229 289 353 417
#     4  12  25  44  71 103 137 181 237 292 344 426
#
# _framework density 24.996963000000001
#
# number of rings (size 3 to 8) (size 9 to 14) (size 15 to 20)
#    0.000    1.333    5.000    1.000    2.333    2.667 
#    3.000    0.000    0.000    0.000    0.000    0.000 
#    0.000    0.000    0.000    0.000    0.000    0.000 
#
# Total GULP energy -133792.210983 kJ/mol
# GULP energy per Si atom -5574.675458 kJ/mol
# Density = 2.494007 g / cm^3
# Si number density = 24.996963 Si / 1000 Ang^3
#
#
#
# Elastic Constant Matrix: (Units=GPa)
#
#
# Indices 1 2 3 4 5 6 
#
# 1 137.7164 61.2646 30.8661 0.0000 24.2329 0.0000
# 2 61.2646 173.2847 36.2492 0.0000 35.7864 0.0000
# 3 30.8661 36.2492 64.4977 0.0000 29.0985 0.0000
# 4 0.0000 0.0000 0.0000 21.8213 0.0000 10.9374
# 5 24.2329 35.7864 29.0985 0.0000 66.3559 0.0000
# 6 0.0000 0.0000 0.0000 10.9374 0.0000 53.4956
#
#
#
# Elastic Compliance Matrix: (Units=1/GPa)
#
#
# Indices 1 2 3 4 5 6 
#
# 1 0.009100 -0.002506 -0.002564 0.000000 -0.000847 0.000000
# 2 -0.002506 0.007548 -0.002019 0.000000 -0.002270 0.000000
# 3 -0.002564 -0.002019 0.021134 0.000000 -0.007242 0.000000
# 4 0.000000 0.000000 0.000000 0.051059 0.000000 -0.010439
# 5 -0.000847 -0.002270 -0.007242 0.000000 0.019780 0.000000
# 6 0.000000 0.000000 0.000000 -0.010439 0.000000 0.020827
#
#
# Mechanical properties :
#
#
# Convention : Reuss Voigt Hill
#
# Bulk Modulus (GPa) = 42.36579 70.25097 56.30838
# Shear Modulus (GPa) = 33.00472 44.80913 38.90692
#
# Velocity S-wave (km/s) = 3.63760 4.23848 3.94949
# Velocity P-wave (km/s) = 5.88456 7.21927 6.58581
#
# Compressibility (1/GPa) = 0.02360395
#
# Stress axis : x y z
#
# Youngs Moduli (GPa) = 109.89172 132.48661 47.31810
#
# Poissons Ratio (x) = 0.33199 0.12133
# Poissons Ratio (y) = 0.27537 0.09552
# Poissons Ratio (z) = 0.28179 0.26744
#
# Static dielectric constant tensor:
#      x y z
#    x 2.105510 0.000000 -0.124850 
#    y 0.000000 2.233930 0.000000 
#    z -0.124850 0.000000 2.072380 
# 
# From -- ./inp_files/96399.got.cif
#   From: 2010.05.17/outbox.cif.g08.bks.cpg/sg15_49_cif.got.tgz:96399.got - 2010.06.03 18:47:42.
