data_PCOD9286072
_publ_section_title
;
Structure prediction by ZEFSAII (Michael W. Deem and Ramdas Pophale) SiO2 
 PCOD9286072
Probable space group: C 2/C
;
_chemical_formula_sum "Si O2"
_cell_formula_units_Z 32
_cell_length_a 13.655511
_cell_length_b 7.664872
_cell_length_c 28.404345
_cell_angle_alpha 90.000000
_cell_angle_beta 156.725195
_cell_angle_gamma 90.000000
_cell_volume 1174.763342
_symmetry_space_group_name_H-M "C 2/C"
_symmetry_group_IT_number 15
_symmetry_cell_setting 'monoclinic'
loop_
_space_group_symop_operation_xyz
x,y,z
-x,y,1/2-z
-x,-y,-z
x,-y,1/2+z
1/2+x,1/2+y,z
1/2-x,1/2+y,1/2-z
1/2-x,1/2-y,-z
1/2+x,1/2-y,1/2+z
loop_
_atom_site_type_symbol
_atom_site_label
_atom_site_fract_x
_atom_site_fract_y
_atom_site_fract_z
Si Si1 0.254586 0.895968 0.269325
Si Si2 0.219500 0.576853 0.128126
Si Si3 0.629718 0.942395 0.350488
Si Si4 0.558513 0.406052 0.928133
O O1 0.347621 0.042998 0.347011
O O2 0.412418 0.891556 0.291010
O O3 0.985036 0.954845 0.132414
O O4 0.190711 0.212792 0.181533
O O5 0.500000 0.495773 0.250000
O O6 0.000000 0.500000 0.000000
O O7 0.500000 0.041786 0.250000
O O8 0.737613 0.769081 0.373260
O O9 0.847658 0.996988 0.482835
O O10 0.750000 0.250000 0.000000
#
# Coordination Sequence:
#
# PCOD9286072 Si02
#       4
#     8   8   8   8
#     4  11  23  42  76 107 149 205 249 319 388 455
#     4  11  22  40  75 109 147 199 254 315 387 455
#     4  10  22  43  71 104 151 196 249 319 384 457
#     4  10  21  42  71 102 150 192 252 316 378 460
#
# _framework density 27.239526999999999
#
# number of rings (size 3 to 8) (size 9 to 14) (size 15 to 20)
#    0.000    1.500    2.500    6.000    3.500    1.000 
#    0.000    6.250   22.000    0.000    0.000    0.000 
#    0.000    0.000    0.000    0.000    0.000    0.000 
#
# Total GULP energy -89304.662049 kJ/mol
# GULP energy per Si atom -5581.541378 kJ/mol
# Density = 2.717753 g / cm^3
# Si number density = 27.239527 Si / 1000 Ang^3
#
#
#
# Elastic Constant Matrix: (Units=GPa)
#
#
# Indices 1 2 3 4 5 6 
#
# 1 153.8018 26.5383 44.7768 -0.0003 -30.6265 0.0007
# 2 26.5383 57.1958 37.3661 0.0009 16.1768 0.0010
# 3 44.7768 37.3661 260.0096 -0.0015 -59.9788 0.0003
# 4 -0.0003 0.0009 -0.0015 7.1453 -0.0010 8.0159
# 5 -30.6265 16.1768 -59.9788 -0.0010 63.4817 -0.0005
# 6 0.0007 0.0010 0.0003 8.0159 -0.0005 40.4324
#
#
#
# Elastic Compliance Matrix: (Units=1/GPa)
#
#
# Indices 1 2 3 4 5 6 
#
# 1 0.008726 -0.006690 0.001053 0.000003 0.006909 -0.000001
# 2 -0.006690 0.030484 -0.007372 -0.000010 -0.017961 0.000001
# 3 0.001053 -0.007372 0.006745 0.000004 0.008759 -0.000001
# 4 0.000003 -0.000010 0.000004 0.179983 0.000011 -0.035682
# 5 0.006909 -0.017961 0.008759 0.000011 0.031938 -0.000001
# 6 -0.000001 0.000001 -0.000001 -0.035682 -0.000001 0.031807
#
#
# Mechanical properties :
#
#
# Convention : Reuss Voigt Hill
#
# Bulk Modulus (GPa) = 50.16311 76.48551 63.32431
# Shear Modulus (GPa) = 15.51121 46.36696 30.93908
#
# Velocity S-wave (km/s) = 2.38888 4.13024 3.37384
# Velocity P-wave (km/s) = 5.10534 7.13337 6.20280
#
# Compressibility (1/GPa) = 0.01993497
#
# Stress axis : x y z
#
# Youngs Moduli (GPa) = 114.60478 32.80384 148.26520
#
# Poissons Ratio (x) = 0.21947 -0.15606
# Poissons Ratio (y) = 0.76675 1.09301
# Poissons Ratio (z) = -0.12063 0.24183
#
# Static dielectric constant tensor:
#      x y z
#    x 2.184780 0.000000 0.082270 
#    y 0.000000 2.210660 0.000000 
#    z 0.082270 0.000000 2.353580 
# 
# From -- ./inp_files/118252.got.cif
#   From: 2010.05.17/outbox.cif.g08.bks.cpg/sg15_60_cif.got.tgz:118252.got - 2010.06.03 18:47:42.
