data_PCOD9286058
_publ_section_title
;
Structure prediction by ZEFSAII (Michael W. Deem and Ramdas Pophale) SiO2 
 PCOD9286058
Probable space group: C 2/C
;
_chemical_formula_sum "Si O2"
_cell_formula_units_Z 48
_cell_length_a 32.637800
_cell_length_b 9.138976
_cell_length_c 15.001043
_cell_angle_alpha 90.000000
_cell_angle_beta 151.750008
_cell_angle_gamma 90.000000
_cell_volume 2117.845659
_symmetry_space_group_name_H-M "C 2/C"
_symmetry_group_IT_number 15
_symmetry_cell_setting 'monoclinic'
loop_
_space_group_symop_operation_xyz
x,y,z
-x,y,1/2-z
-x,-y,-z
x,-y,1/2+z
1/2+x,1/2+y,z
1/2-x,1/2+y,1/2-z
1/2-x,1/2-y,-z
1/2+x,1/2-y,1/2+z
loop_
_atom_site_type_symbol
_atom_site_label
_atom_site_fract_x
_atom_site_fract_y
_atom_site_fract_z
Si Si1 0.603160 0.213600 0.010025
Si Si2 0.087299 0.618902 0.461801
Si Si3 0.272555 0.828073 0.410957
Si Si4 0.671500 0.835733 0.299197
Si Si5 0.439611 0.299778 0.774796
Si Si6 0.812046 0.050542 0.588809
O O1 0.702796 0.239078 0.220659
O O2 0.542663 0.305738 0.962038
O O3 0.589218 0.264174 0.881455
O O4 0.570694 0.047548 0.960914
O O5 0.158746 0.601939 0.522258
O O6 0.127850 0.708953 0.621983
O O7 0.000000 0.680284 0.250000
O O8 0.217189 0.938956 0.364691
O O9 0.321615 0.713729 0.569615
O O10 0.750000 0.750000 0.500000
O O11 0.595265 0.826292 0.225643
O O12 0.723882 0.982983 0.377564
O O13 0.392189 0.446672 0.718567
#
# Coordination Sequence:
#
# PCOD9286058 Si02
#       6
#     8   8   8   8   8   8
#     4  11  23  43  69  99 136 183 233 292 338 421
#     4  12  25  45  69 104 137 181 235 292 343 415
#     4  11  24  41  65  98 140 176 234 283 349 413
#     4  10  21  42  70  98 133 181 227 277 347 415
#     4  10  22  43  66  98 136 181 232 278 358 398
#     4  10  22  41  64  98 134 179 224 289 342 420
#
# _framework density 22.664541
#
# number of rings (size 3 to 8) (size 9 to 14) (size 15 to 20)
#    0.000    1.333    3.333    3.000    0.000    5.333 
#    3.000    0.000    0.000    0.000    0.000    0.000 
#    0.000    0.000    0.000    0.000    0.000    0.000 
#
# Total GULP energy -133880.114443 kJ/mol
# GULP energy per Si atom -5578.338102 kJ/mol
# Density = 2.261296 g / cm^3
# Si number density = 22.664541 Si / 1000 Ang^3
#
#
#
# Elastic Constant Matrix: (Units=GPa)
#
#
# Indices 1 2 3 4 5 6 
#
# 1 150.0819 24.4591 40.3559 0.0000 18.7851 0.0000
# 2 24.4591 57.8027 8.0606 0.0000 7.1610 0.0000
# 3 40.3559 8.0606 107.1751 0.0000 -5.7683 0.0000
# 4 0.0000 0.0000 0.0000 12.3683 0.0000 6.0179
# 5 18.7851 7.1610 -5.7683 0.0000 35.3166 0.0000
# 6 0.0000 0.0000 0.0000 6.0179 0.0000 29.3389
#
#
#
# Elastic Compliance Matrix: (Units=1/GPa)
#
#
# Indices 1 2 3 4 5 6 
#
# 1 0.008532 -0.002592 -0.003262 0.000000 -0.004545 0.000000
# 2 -0.002592 0.018790 -0.000573 0.000000 -0.002525 0.000000
# 3 -0.003262 -0.000573 0.010797 0.000000 0.003615 0.000000
# 4 0.000000 0.000000 0.000000 0.089815 0.000000 -0.018423
# 5 -0.004545 -0.002525 0.003615 0.000000 0.031835 0.000000
# 6 0.000000 0.000000 0.000000 -0.018423 0.000000 0.037863
#
#
# Mechanical properties :
#
#
# Convention : Reuss Voigt Hill
#
# Bulk Modulus (GPa) = 39.58317 51.20118 45.39217
# Shear Modulus (GPa) = 22.84071 31.55035 27.19553
#
# Velocity S-wave (km/s) = 3.17799 3.73508 3.46774
# Velocity P-wave (km/s) = 5.56497 6.42191 6.00874
#
# Compressibility (1/GPa) = 0.02526326
#
# Stress axis : x y z
#
# Youngs Moduli (GPa) = 117.21208 53.22043 92.62246
#
# Poissons Ratio (x) = 0.13795 0.30215
# Poissons Ratio (y) = 0.30383 0.05307
# Poissons Ratio (z) = 0.38236 0.03050
#
# Static dielectric constant tensor:
#      x y z
#    x 1.817970 0.000000 -0.030630 
#    y 0.000000 1.934660 0.000000 
#    z -0.030630 0.000000 1.877170 
# 
# From -- ./inp_files/181799.got.cif
#   From: 2010.05.17/outbox.cif.g08.bks.cpg/sg15_91_cif.got.tgz:181799.got - 2010.06.03 18:47:42.
