data_PCOD9286805
_publ_section_title
;
Structure prediction by ZEFSAII (Michael W. Deem and Ramdas Pophale) SiO2 
 PCOD9286805
Probable space group: C 2/C
;
_chemical_formula_sum "Si O2"
_cell_formula_units_Z 44
_cell_length_a 21.496064
_cell_length_b 6.858504
_cell_length_c 22.791438
_cell_angle_alpha 90.000000
_cell_angle_beta 142.327889
_cell_angle_gamma 90.000000
_cell_volume 2053.534883
_symmetry_space_group_name_H-M "C 2/C"
_symmetry_group_IT_number 15
_symmetry_cell_setting 'monoclinic'
loop_
_space_group_symop_operation_xyz
x,y,z
-x,y,1/2-z
-x,-y,-z
x,-y,1/2+z
1/2+x,1/2+y,z
1/2-x,1/2+y,1/2-z
1/2-x,1/2-y,-z
1/2+x,1/2-y,1/2+z
loop_
_atom_site_type_symbol
_atom_site_label
_atom_site_fract_x
_atom_site_fract_y
_atom_site_fract_z
Si Si1 0.500000 0.462031 0.750000
Si Si2 0.420813 0.124641 0.403929
Si Si3 0.520962 0.636489 0.646228
Si Si4 0.740602 0.899934 0.157170
Si Si5 0.278329 0.700234 0.088678
Si Si6 0.854991 0.978707 0.435012
O O1 0.479160 0.601964 0.679391
O O2 0.600571 0.332382 0.816916
O O3 0.470367 0.153159 0.377599
O O4 0.397635 0.334345 0.416682
O O5 0.500000 0.000000 0.500000
O O6 0.315671 0.012828 0.332407
O O7 0.640305 0.587630 0.740365
O O8 0.448374 0.512879 0.549588
O O9 0.729352 0.009518 0.085353
O O10 0.690024 0.687177 0.117342
O O11 0.250000 0.750000 0.000000
O O12 0.234966 0.871271 0.097043
#
# Coordination Sequence:
#
# PCOD9286805 Si02
#       6
#     4   8   8   8   8   8
#     4  10  22  46  68 104 136 182 234 272 344 412
#     4  11  24  42  70  99 132 182 229 282 348 401
#     4  11  23  43  71  93 140 178 222 285 335 412
#     4  10  25  42  63 103 132 174 232 277 347 405
#     4  10  21  44  69  94 134 180 223 283 335 411
#     4  11  23  45  66  98 136 178 224 289 345 399
#
# _framework density 21.426469000000001
#
# number of rings (size 3 to 8) (size 9 to 14) (size 15 to 20)
#    0.000    1.455    3.636    0.545    2.545    0.727 
#    9.818    0.909    0.000    0.000    0.000    0.000 
#    0.000    0.000    0.000    0.000    0.000    0.000 
#
# Total GULP energy -122715.605900 kJ/mol
# GULP energy per Si atom -5577.982086 kJ/mol
# Density = 2.137770 g / cm^3
# Si number density = 21.426469 Si / 1000 Ang^3
#
#
#
# Elastic Constant Matrix: (Units=GPa)
#
#
# Indices 1 2 3 4 5 6 
#
# 1 93.7566 49.7305 35.0564 0.0001 -0.4480 0.0003
# 2 49.7305 121.0697 42.4707 0.0002 -4.2060 0.0007
# 3 35.0564 42.4707 89.8151 -0.0001 -1.5229 0.0001
# 4 0.0001 0.0002 -0.0001 25.7178 0.0000 -0.7621
# 5 -0.4480 -4.2060 -1.5229 0.0000 36.9536 -0.0001
# 6 0.0003 0.0007 0.0001 -0.7621 -0.0001 25.2916
#
#
#
# Elastic Compliance Matrix: (Units=1/GPa)
#
#
# Indices 1 2 3 4 5 6 
#
# 1 0.014463 -0.004766 -0.003400 0.000000 -0.000507 0.000000
# 2 -0.004766 0.011505 -0.003562 0.000000 0.001105 0.000000
# 3 -0.003400 -0.003562 0.014148 0.000000 0.000136 0.000000
# 4 0.000000 0.000000 0.000000 0.038918 0.000000 0.001173
# 5 -0.000507 0.001105 0.000136 0.000000 0.027186 0.000000
# 6 0.000000 0.000000 0.000000 0.001173 0.000000 0.039574
#
#
# Mechanical properties :
#
#
# Convention : Reuss Voigt Hill
#
# Bulk Modulus (GPa) = 60.02137 62.12853 61.07495
# Shear Modulus (GPa) = 28.60388 29.41821 29.01104
#
# Velocity S-wave (km/s) = 3.65770 3.70940 3.68364
# Velocity P-wave (km/s) = 6.77583 6.88515 6.83071
#
# Compressibility (1/GPa) = 0.01666073
#
# Stress axis : x y z
#
# Youngs Moduli (GPa) = 69.14411 86.91921 70.68352
#
# Poissons Ratio (x) = 0.41421 0.24033
# Poissons Ratio (y) = 0.32951 0.25174
# Poissons Ratio (z) = 0.23510 0.30957
#
# Static dielectric constant tensor:
#      x y z
#    x 1.801640 0.000000 -0.000500 
#    y 0.000000 1.795110 0.000000 
#    z -0.000500 0.000000 1.788100 
# 
# From -- ./inp_files/281251.got.cif
#   From: 2010.05.17/outbox.cif.g08.bks.cpg/sg15_141_cif.got.tgz:281251.got - 2010.06.03 18:47:42.
