data_PCOD9286545
_publ_section_title
;
Structure prediction by ZEFSAII (Michael W. Deem and Ramdas Pophale) SiO2 
 PCOD9286545
Probable space group: C 2/C
;
_chemical_formula_sum "Si O2"
_cell_formula_units_Z 36
_cell_length_a 10.807026
_cell_length_b 14.817098
_cell_length_c 9.319706
_cell_angle_alpha 90.000000
_cell_angle_beta 112.512366
_cell_angle_gamma 90.000000
_cell_volume 1378.631098
_symmetry_space_group_name_H-M "C 2/C"
_symmetry_group_IT_number 15
_symmetry_cell_setting 'monoclinic'
loop_
_space_group_symop_operation_xyz
x,y,z
-x,y,1/2-z
-x,-y,-z
x,-y,1/2+z
1/2+x,1/2+y,z
1/2-x,1/2+y,1/2-z
1/2-x,1/2-y,-z
1/2+x,1/2-y,1/2+z
loop_
_atom_site_type_symbol
_atom_site_label
_atom_site_fract_x
_atom_site_fract_y
_atom_site_fract_z
Si Si1 0.552021 0.743147 0.553576
Si Si2 0.105015 0.090194 0.165328
Si Si3 0.816753 0.657899 0.085683
Si Si4 0.000000 0.647850 0.750000
Si Si5 0.267905 0.406186 0.238846
O O1 0.460941 0.655111 0.480873
O O2 0.468237 0.817522 0.604973
O O3 0.565173 0.789691 0.403857
O O4 0.671546 0.691649 0.688796
O O5 0.258981 0.128284 0.215765
O O6 0.000000 0.099818 0.250000
O O7 0.133367 0.984427 0.166090
O O8 0.750000 0.750000 0.000000
O O9 0.760117 0.585725 0.943677
O O10 0.878108 0.589667 0.755447
#
# Coordination Sequence:
#
# PCOD9286545 Si02
#       5
#     8   8   8   4   8
#     4  10  21  43  71  95 128 180 227 270 326 403
#     4  11  24  39  66  99 132 169 221 274 330 392
#     4   9  23  42  63  97 136 169 220 277 327 393
#     4  10  22  46  62 102 138 172 222 278 328 396
#     4  11  24  40  70  99 134 174 222 276 336 388
#
# _framework density 26.112860000000001
#
# number of rings (size 3 to 8) (size 9 to 14) (size 15 to 20)
#    0.000    1.778    1.111    1.333    9.333    0.000 
#    0.000   11.111    0.000    0.000    0.000    0.000 
#    0.000    0.000    0.000    0.000    0.000    0.000 
#
# Total GULP energy -100249.395523 kJ/mol
# GULP energy per Si atom -5569.410862 kJ/mol
# Density = 2.605343 g / cm^3
# Si number density = 26.112860 Si / 1000 Ang^3
#
#
#
# Elastic Constant Matrix: (Units=GPa)
#
#
# Indices 1 2 3 4 5 6 
#
# 1 210.3397 33.5298 35.3480 0.0000 -36.7665 0.0000
# 2 33.5298 101.4287 18.2488 0.0000 -25.0507 0.0000
# 3 35.3480 18.2488 99.9574 0.0000 -21.2622 0.0000
# 4 0.0000 0.0000 0.0000 9.4063 0.0000 29.4798
# 5 -36.7665 -25.0507 -21.2622 0.0000 33.4601 0.0000
# 6 0.0000 0.0000 0.0000 29.4798 0.0000 -22.4252
#
#
#
# Elastic Compliance Matrix: (Units=1/GPa)
#
#
# Indices 1 2 3 4 5 6 
#
# 1 0.005956 -0.000410 -0.000815 0.000000 0.005721 0.000000
# 2 -0.000410 0.012133 -0.000270 0.000000 0.008462 0.000000
# 3 -0.000815 -0.000270 0.011688 0.000000 0.006330 0.000000
# 4 0.000000 0.000000 0.000000 0.020764 0.000000 0.027296
# 5 0.005721 0.008462 0.006330 0.000000 0.046530 0.000000
# 6 0.000000 0.000000 0.000000 0.027296 0.000000 -0.008710
#
#
# Mechanical properties :
#
#
# Convention : Reuss Voigt Hill
#
# Bulk Modulus (GPa) = 37.32969 65.10878 51.21923
# Shear Modulus (GPa) = 49.86025 25.72819 37.79422
#
# Velocity S-wave (km/s) = 4.37442 3.14230 3.80852
# Velocity P-wave (km/s) = 6.31195 6.17683 6.24475
#
# Compressibility (1/GPa) = 0.02678833
#
# Stress axis : x y z
#
# Youngs Moduli (GPa) = 167.88797 82.41924 85.55707
#
# Poissons Ratio (x) = 0.03376 0.06971
# Poissons Ratio (y) = 0.06876 0.02313
# Poissons Ratio (z) = 0.13678 0.02228
#
# Static dielectric constant tensor:
#      x y z
#    x 2.230170 0.000000 0.165230 
#    y 0.000000 2.015320 0.000000 
#    z 0.165230 0.000000 2.396500 
# 
# From -- ./inp_files/85803.got.cif
#   From: 2010.05.17/outbox.cif.g08.bks.cpg/sg15_43_cif.got.tgz:85803.got - 2010.06.03 18:47:42.
