data_PCOD9286629
_publ_section_title
;
Structure prediction by ZEFSAII (Michael W. Deem and Ramdas Pophale) SiO2 
 PCOD9286629
Probable space group: C 2/C
;
_chemical_formula_sum "Si O2"
_cell_formula_units_Z 56
_cell_length_a 15.841528
_cell_length_b 7.679992
_cell_length_c 28.142340
_cell_angle_alpha 90.000000
_cell_angle_beta 50.344274
_cell_angle_gamma 90.000000
_cell_volume 2636.017976
_symmetry_space_group_name_H-M "C 2/C"
_symmetry_group_IT_number 15
_symmetry_cell_setting 'monoclinic'
loop_
_space_group_symop_operation_xyz
x,y,z
-x,y,1/2-z
-x,-y,-z
x,-y,1/2+z
1/2+x,1/2+y,z
1/2-x,1/2+y,1/2-z
1/2-x,1/2-y,-z
1/2+x,1/2-y,1/2+z
loop_
_atom_site_type_symbol
_atom_site_label
_atom_site_fract_x
_atom_site_fract_y
_atom_site_fract_z
Si Si1 0.666653 0.611934 0.353143
Si Si2 0.497396 0.737306 0.695425
Si Si3 0.935855 0.232369 0.412735
Si Si4 0.452057 0.676776 0.218354
Si Si5 0.739697 0.174927 0.078549
Si Si6 0.225974 0.779999 0.266948
Si Si7 0.220720 0.516080 0.486941
O O1 0.534734 0.623312 0.400623
O O2 0.712650 0.603474 0.389479
O O3 0.718214 0.778574 0.306077
O O4 0.702352 0.451972 0.306493
O O5 0.500000 0.791074 0.750000
O O6 0.485728 0.525688 0.699688
O O7 0.610881 0.790527 0.631523
O O8 0.392346 0.800984 0.703218
O O9 0.889415 0.375248 0.465239
O O10 0.826137 0.131352 0.435979
O O11 0.994026 0.289025 0.343004
O O12 0.500000 0.740906 0.250000
O O13 0.321002 0.686000 0.262952
O O14 0.792482 0.359405 0.044909
O O15 0.752615 0.055343 0.027837
#
# Coordination Sequence:
#
# PCOD9286629 Si02
#       7
#     8   8   8   8   8   8   8
#     4  11  24  40  63  94 132 164 209 265 318 387
#     4  11  20  39  64  91 128 165 198 265 328 378
#     4  10  21  44  62  87 131 168 212 263 311 380
#     4  10  22  38  64  91 125 167 205 252 331 380
#     4  11  23  41  66  95 123 170 218 263 315 366
#     4  11  21  41  59  96 129 162 200 262 324 391
#     4  10  23  42  65  87 124 174 221 259 305 376
#
# _framework density 21.244164999999999
#
# number of rings (size 3 to 8) (size 9 to 14) (size 15 to 20)
#    0.000    1.429    5.714    0.000    2.000    3.429 
#    0.000    0.000    0.000    0.000    0.000    0.000 
#    0.000    0.000    0.000    0.000    0.000    0.000 
#
# Total GULP energy -156168.393896 kJ/mol
# GULP energy per Si atom -5577.442639 kJ/mol
# Density = 2.119581 g / cm^3
# Si number density = 21.244165 Si / 1000 Ang^3
#
#
#
# Elastic Constant Matrix: (Units=GPa)
#
#
# Indices 1 2 3 4 5 6 
#
# 1 124.3208 0.3017 30.8958 0.0005 3.2367 0.0021
# 2 0.3017 32.0925 3.5852 0.0015 -3.5678 0.0034
# 3 30.8958 3.5852 57.6157 -0.0001 -5.0996 0.0012
# 4 0.0005 0.0015 -0.0001 13.1990 -0.0002 -4.5097
# 5 3.2367 -3.5678 -5.0996 -0.0002 36.4578 -0.0001
# 6 0.0021 0.0034 0.0012 -4.5097 -0.0001 14.0424
#
#
#
# Elastic Compliance Matrix: (Units=1/GPa)
#
#
# Indices 1 2 3 4 5 6 
#
# 1 0.009370 0.000321 -0.005179 -0.000001 -0.001525 -0.000001
# 2 0.000321 0.031681 -0.001895 -0.000007 0.002807 -0.000010
# 3 -0.005179 -0.001895 0.020530 0.000000 0.003146 0.000000
# 4 -0.000001 -0.000007 0.000000 0.085101 0.000000 0.027330
# 5 -0.001525 0.002807 0.003146 0.000000 0.028279 -0.000001
# 6 -0.000001 -0.000010 0.000000 0.027330 -0.000001 0.079990
#
#
# Mechanical properties :
#
#
# Convention : Reuss Voigt Hill
#
# Bulk Modulus (GPa) = 20.80139 31.51049 26.15594
# Shear Modulus (GPa) = 17.57578 24.68959 21.13269
#
# Velocity S-wave (km/s) = 2.87944 3.41278 3.15739
# Velocity P-wave (km/s) = 4.56812 5.51309 5.06270
#
# Compressibility (1/GPa) = 0.04807370
#
# Stress axis : x y z
#
# Youngs Moduli (GPa) = 106.72588 31.56501 48.70880
#
# Poissons Ratio (x) = -0.01013 0.25228
# Poissons Ratio (y) = -0.03426 0.09231
# Poissons Ratio (z) = 0.55278 0.05982
#
# Static dielectric constant tensor:
#      x y z
#    x 1.760160 0.000000 -0.007660 
#    y 0.000000 1.881070 0.000000 
#    z -0.007660 0.000000 1.753960 
# 
# From -- ./inp_files/312850.got.cif
#   From: 2010.05.17/outbox.cif.g08.bks.cpg/sg15_157_cif.got.tgz:312850.got - 2010.06.03 18:47:42.
