data_PCOD9286165
_publ_section_title
;
Structure prediction by ZEFSAII (Michael W. Deem and Ramdas Pophale) SiO2 
 PCOD9286165
Probable space group: C 2/C
;
_chemical_formula_sum "Si O2"
_cell_formula_units_Z 40
_cell_length_a 13.935372
_cell_length_b 17.683426
_cell_length_c 8.259500
_cell_angle_alpha 90.000000
_cell_angle_beta 126.117287
_cell_angle_gamma 90.000000
_cell_volume 1644.178919
_symmetry_space_group_name_H-M "C 2/C"
_symmetry_group_IT_number 15
_symmetry_cell_setting 'monoclinic'
loop_
_space_group_symop_operation_xyz
x,y,z
-x,y,1/2-z
-x,-y,-z
x,-y,1/2+z
1/2+x,1/2+y,z
1/2-x,1/2+y,1/2-z
1/2-x,1/2-y,-z
1/2+x,1/2-y,1/2+z
loop_
_atom_site_type_symbol
_atom_site_label
_atom_site_fract_x
_atom_site_fract_y
_atom_site_fract_z
Si Si1 0.335838 0.025182 0.996258
Si Si2 0.214063 0.739652 0.277580
Si Si3 0.930535 0.599443 0.405801
Si Si4 0.637470 0.405003 0.099490
Si Si5 0.094711 0.858225 0.724950
O O1 0.212568 0.040587 0.785519
O O2 0.387150 0.940878 0.025571
O O3 0.347963 0.057488 0.188279
O O4 0.435662 0.076394 0.001128
O O5 0.250000 0.750000 0.500000
O O6 0.097854 0.686964 0.141724
O O7 0.189702 0.822102 0.186525
O O8 0.314441 0.694349 0.277169
O O9 0.649408 0.413262 0.916888
O O10 0.495136 0.401681 0.984484
O O11 0.000000 0.814544 0.750000
#
# Coordination Sequence:
#
# PCOD9286165 Si02
#       5
#     8   8   8   8   8
#     4  10  21  43  60  93 127 171 208 269 321 392
#     4  12  22  39  66  97 128 166 212 278 319 375
#     4  10  24  38  64  94 127 166 217 262 329 383
#     4   9  21  41  64  84 132 161 211 260 318 387
#     4   8  23  40  59  92 122 168 212 247 326 390
#
# _framework density 24.328251999999999
#
# number of rings (size 3 to 8) (size 9 to 14) (size 15 to 20)
#    1.200    0.800    2.000    0.600    5.600    0.800 
#    0.000    1.000    0.000    0.000    0.000    0.000 
#    0.000    0.000    0.000    0.000    0.000    0.000 
#
# Total GULP energy -111690.569082 kJ/mol
# GULP energy per Si atom -5584.528454 kJ/mol
# Density = 2.427288 g / cm^3
# Si number density = 24.328252 Si / 1000 Ang^3
#
#
#
# Elastic Constant Matrix: (Units=GPa)
#
#
# Indices 1 2 3 4 5 6 
#
# 1 50.8056 7.4989 12.7068 0.0000 -6.1298 0.0000
# 2 7.4989 102.8372 28.0413 0.0000 -4.3219 0.0000
# 3 12.7068 28.0413 151.9228 0.0000 12.5249 0.0000
# 4 0.0000 0.0000 0.0000 36.1307 0.0000 -3.4414
# 5 -6.1298 -4.3219 12.5249 0.0000 23.1366 0.0000
# 6 0.0000 0.0000 0.0000 -3.4414 0.0000 28.6558
#
#
#
# Elastic Compliance Matrix: (Units=1/GPa)
#
#
# Indices 1 2 3 4 5 6 
#
# 1 0.021134 -0.000663 -0.002195 0.000000 0.006663 0.000000
# 2 -0.000663 0.010473 -0.002119 0.000000 0.002928 0.000000
# 3 -0.002195 -0.002119 0.007576 0.000000 -0.005078 0.000000
# 4 0.000000 0.000000 0.000000 0.027998 0.000000 0.003362
# 5 0.006663 0.002928 -0.005078 0.000000 0.048283 0.000000
# 6 0.000000 0.000000 0.000000 0.003362 0.000000 0.035301
#
#
# Mechanical properties :
#
#
# Convention : Reuss Voigt Hill
#
# Bulk Modulus (GPa) = 34.21167 44.67330 39.44248
# Shear Modulus (GPa) = 29.33242 34.73919 32.03580
#
# Velocity S-wave (km/s) = 3.47608 3.78290 3.63273
# Velocity P-wave (km/s) = 5.49580 6.12234 5.81751
#
# Compressibility (1/GPa) = 0.02922979
#
# Stress axis : x y z
#
# Youngs Moduli (GPa) = 47.31823 95.48080 132.00177
#
# Poissons Ratio (x) = 0.06326 0.28970
# Poissons Ratio (y) = 0.03135 0.27972
# Poissons Ratio (z) = 0.10385 0.20233
#
# Static dielectric constant tensor:
#      x y z
#    x 1.982580 0.000000 0.023330 
#    y 0.000000 1.964350 0.000000 
#    z 0.023330 0.000000 2.006780 
# 
# From -- ./inp_files/50467.got.cif
#   From: 2010.05.17/outbox.cif.g08.bks.cpg/sg15_26_cif.got.tgz:50467.got - 2010.06.03 18:47:42.
