data_PCOD9286572
_publ_section_title
;
Structure prediction by ZEFSAII (Michael W. Deem and Ramdas Pophale) SiO2 
 PCOD9286572
Probable space group: C 2/C
;
_chemical_formula_sum "Si O2"
_cell_formula_units_Z 56
_cell_length_a 19.900651
_cell_length_b 11.512855
_cell_length_c 16.257819
_cell_angle_alpha 90.000000
_cell_angle_beta 47.306110
_cell_angle_gamma 90.000000
_cell_volume 2737.740035
_symmetry_space_group_name_H-M "C 2/C"
_symmetry_group_IT_number 15
_symmetry_cell_setting 'monoclinic'
loop_
_space_group_symop_operation_xyz
x,y,z
-x,y,1/2-z
-x,-y,-z
x,-y,1/2+z
1/2+x,1/2+y,z
1/2-x,1/2+y,1/2-z
1/2-x,1/2-y,-z
1/2+x,1/2-y,1/2+z
loop_
_atom_site_type_symbol
_atom_site_label
_atom_site_fract_x
_atom_site_fract_y
_atom_site_fract_z
Si Si1 0.605626 0.002114 0.765654
Si Si2 0.605372 0.262257 0.506839
Si Si3 0.790604 0.294755 0.743358
Si Si4 0.270789 0.651106 0.915737
Si Si5 0.895262 0.499894 0.429401
Si Si6 0.609044 0.568824 0.152314
Si Si7 0.609375 0.270797 0.809768
O O1 0.667895 0.919594 0.768811
O O2 0.619339 0.986027 0.656489
O O3 0.498930 0.971097 0.868015
O O4 0.620189 0.136660 0.774554
O O5 0.664163 0.257714 0.375880
O O6 0.616334 0.135212 0.538890
O O7 0.632498 0.357955 0.551422
O O8 0.497476 0.282996 0.578976
O O9 0.811807 0.212679 0.802343
O O10 0.682073 0.300965 0.819222
O O11 0.338066 0.551698 0.892128
O O12 0.250000 0.750000 0.000000
O O13 0.178065 0.583360 0.968471
O O14 0.500000 0.551360 0.250000
O O15 0.632018 0.647326 0.212924
#
# Coordination Sequence:
#
# PCOD9286572 Si02
#       7
#     8   8   8   8   8   8   8
#     4  10  22  42  69  98 129 172 226 276 333 396
#     4  10  23  45  74  99 126 176 229 286 327 387
#     4  12  27  39  64 104 140 173 217 279 343 396
#     4  12  27  44  63  96 139 184 221 270 338 407
#     4  10  21  43  72  93 125 174 232 271 325 398
#     4  10  23  48  71  97 129 179 228 272 334 407
#     4  10  23  43  72 101 134 169 228 279 333 401
#
# _framework density 20.454827000000002
#
# number of rings (size 3 to 8) (size 9 to 14) (size 15 to 20)
#    0.000    1.429    2.857    0.857    8.000    3.429 
#    0.000    1.429    0.000    0.000    0.000    0.000 
#    0.000    0.000    0.000    0.000    0.000    0.000 
#
# Total GULP energy -156624.405394 kJ/mol
# GULP energy per Si atom -5593.728764 kJ/mol
# Density = 2.040827 g / cm^3
# Si number density = 20.454827 Si / 1000 Ang^3
#
#
#
# Elastic Constant Matrix: (Units=GPa)
#
#
# Indices 1 2 3 4 5 6 
#
# 1 73.5738 41.1228 1.5901 0.0000 1.9382 0.0000
# 2 41.1228 110.9540 26.9384 0.0000 -4.4120 0.0000
# 3 1.5901 26.9384 73.0781 0.0000 7.4362 0.0000
# 4 0.0000 0.0000 0.0000 34.2679 0.0000 -1.0708
# 5 1.9382 -4.4120 7.4362 0.0000 14.2798 0.0000
# 6 0.0000 0.0000 0.0000 -1.0708 0.0000 26.4155
#
#
#
# Elastic Compliance Matrix: (Units=1/GPa)
#
#
# Indices 1 2 3 4 5 6 
#
# 1 0.017981 -0.007669 0.003089 0.000000 -0.006419 0.000000
# 2 -0.007669 0.013555 -0.005662 0.000000 0.008178 0.000000
# 3 0.003089 -0.005662 0.016816 0.000000 -0.010925 0.000000
# 4 0.000000 0.000000 0.000000 0.029219 0.000000 0.001184
# 5 -0.006419 0.008178 -0.010925 0.000000 0.079116 0.000000
# 6 0.000000 0.000000 0.000000 0.001184 0.000000 0.037905
#
#
# Mechanical properties :
#
#
# Convention : Reuss Voigt Hill
#
# Bulk Modulus (GPa) = 35.88497 44.10096 39.99296
# Shear Modulus (GPa) = 22.28513 27.52295 24.90404
#
# Velocity S-wave (km/s) = 3.30431 3.67215 3.49307
# Velocity P-wave (km/s) = 5.66917 6.29179 5.98858
#
# Compressibility (1/GPa) = 0.02786682
#
# Stress axis : x y z
#
# Youngs Moduli (GPa) = 55.61478 73.77291 59.46835
#
# Poissons Ratio (x) = 0.56580 -0.18370
# Poissons Ratio (y) = 0.42653 0.33671
# Poissons Ratio (z) = -0.17180 0.41770
#
# Static dielectric constant tensor:
#      x y z
#    x 1.730090 0.000000 -0.016650 
#    y 0.000000 1.692080 0.000000 
#    z -0.016650 0.000000 1.724970 
# 
# From -- ./inp_files/161230.got.cif
#   From: 2010.05.17/outbox.cif.g08.bks.cpg/sg15_81_cif.got.tgz:161230.got - 2010.06.03 18:47:42.
