data_PCOD9286101
_publ_section_title
;
Structure prediction by ZEFSAII (Michael W. Deem and Ramdas Pophale) SiO2 
 PCOD9286101
Probable space group: C 2/C
;
_chemical_formula_sum "Si O2"
_cell_formula_units_Z 48
_cell_length_a 28.747211
_cell_length_b 8.880919
_cell_length_c 14.243431
_cell_angle_alpha 90.000000
_cell_angle_beta 143.318695
_cell_angle_gamma 90.000000
_cell_volume 2172.235604
_symmetry_space_group_name_H-M "C 2/C"
_symmetry_group_IT_number 15
_symmetry_cell_setting 'monoclinic'
loop_
_space_group_symop_operation_xyz
x,y,z
-x,y,1/2-z
-x,-y,-z
x,-y,1/2+z
1/2+x,1/2+y,z
1/2-x,1/2+y,1/2-z
1/2-x,1/2-y,-z
1/2+x,1/2-y,1/2+z
loop_
_atom_site_type_symbol
_atom_site_label
_atom_site_fract_x
_atom_site_fract_y
_atom_site_fract_z
Si Si1 0.661574 0.614795 0.848632
Si Si2 0.811334 0.314854 0.318690
Si Si3 0.346025 0.490122 0.468705
Si Si4 0.960655 0.123389 0.002960
Si Si5 0.432177 0.107133 0.848881
Si Si6 0.681997 0.061447 0.473776
O O1 0.609389 0.674015 0.679149
O O2 0.683075 0.767271 0.938004
O O3 0.629621 0.518916 0.884140
O O4 0.730257 0.516450 0.912573
O O5 0.724777 0.369372 0.149075
O O6 0.816479 0.145691 0.369873
O O7 0.873168 0.339524 0.335637
O O8 0.832510 0.426597 0.439565
O O9 0.419744 0.438292 0.528605
O O10 0.022140 0.252359 0.119241
O O11 0.000000 0.000000 0.000000
O O12 0.381424 0.027540 0.687027
O O13 0.500000 0.000000 0.000000
#
# Coordination Sequence:
#
# PCOD9286101 Si02
#       6
#     8   8   8   8   8   8
#     4  10  21  42  73  96 135 183 233 277 356 427
#     4  11  24  44  72 101 138 187 243 285 360 434
#     4  11  24  44  73 101 137 191 238 291 355 435
#     4  12  25  46  66 103 148 183 228 302 358 417
#     4  12  25  44  70 103 146 181 238 298 354 419
#     4  10  21  42  72 101 130 184 233 284 344 428
#
# _framework density 22.097049999999999
#
# number of rings (size 3 to 8) (size 9 to 14) (size 15 to 20)
#    0.000    1.000    6.667    0.000    2.333    1.333 
#    3.000    4.167    0.000    0.000    0.000    0.000 
#    0.000    0.000    0.000    0.000    0.000    0.000 
#
# Total GULP energy -134084.314380 kJ/mol
# GULP energy per Si atom -5586.846432 kJ/mol
# Density = 2.204676 g / cm^3
# Si number density = 22.097050 Si / 1000 Ang^3
#
#
#
# Elastic Constant Matrix: (Units=GPa)
#
#
# Indices 1 2 3 4 5 6 
#
# 1 153.0699 52.1540 46.5378 0.0000 8.6408 0.0000
# 2 52.1540 79.3980 17.9844 0.0000 13.9444 0.0000
# 3 46.5378 17.9844 72.1377 0.0000 -1.2175 0.0000
# 4 0.0000 0.0000 0.0000 46.2442 0.0000 5.0258
# 5 8.6408 13.9444 -1.2175 0.0000 37.8237 0.0000
# 6 0.0000 0.0000 0.0000 5.0258 0.0000 32.1276
#
#
#
# Elastic Compliance Matrix: (Units=1/GPa)
#
#
# Indices 1 2 3 4 5 6 
#
# 1 0.009900 -0.005267 -0.005082 0.000000 -0.000483 0.000000
# 2 -0.005267 0.017181 -0.000973 0.000000 -0.005162 0.000000
# 3 -0.005082 -0.000973 0.017418 0.000000 0.002080 0.000000
# 4 0.000000 0.000000 0.000000 0.021998 0.000000 -0.003441
# 5 -0.000483 -0.005162 0.002080 0.000000 0.028519 0.000000
# 6 0.000000 0.000000 0.000000 -0.003441 0.000000 0.031664
#
#
# Mechanical properties :
#
#
# Convention : Reuss Voigt Hill
#
# Bulk Modulus (GPa) = 45.75227 59.77313 52.76270
# Shear Modulus (GPa) = 31.92660 35.76774 33.84717
#
# Velocity S-wave (km/s) = 3.80522 4.02763 3.91800
# Velocity P-wave (km/s) = 6.32901 6.98127 6.66312
#
# Compressibility (1/GPa) = 0.02185684
#
# Stress axis : x y z
#
# Youngs Moduli (GPa) = 101.01240 58.20247 57.41077
#
# Poissons Ratio (x) = 0.30655 0.29174
# Poissons Ratio (y) = 0.53202 0.05585
# Poissons Ratio (z) = 0.51331 0.05662
#
# Static dielectric constant tensor:
#      x y z
#    x 1.805660 0.000000 0.047100 
#    y 0.000000 1.848950 0.000000 
#    z 0.047100 0.000000 2.138780 
# 
# From -- ./inp_files/180904.got.cif
#   From: 2010.05.17/outbox.cif.g08.bks.cpg/sg15_91_cif.got.tgz:180904.got - 2010.06.03 18:47:42.
