data_PCOD9286610
_publ_section_title
;
Structure prediction by ZEFSAII (Michael W. Deem and Ramdas Pophale) SiO2 
 PCOD9286610
Probable space group: C 2/C
;
_chemical_formula_sum "Si O2"
_cell_formula_units_Z 28
_cell_length_a 13.828621
_cell_length_b 13.341501
_cell_length_c 5.357099
_cell_angle_alpha 90.000000
_cell_angle_beta 108.408244
_cell_angle_gamma 90.000000
_cell_volume 937.782048
_symmetry_space_group_name_H-M "C 2/C"
_symmetry_group_IT_number 15
_symmetry_cell_setting 'monoclinic'
loop_
_space_group_symop_operation_xyz
x,y,z
-x,y,1/2-z
-x,-y,-z
x,-y,1/2+z
1/2+x,1/2+y,z
1/2-x,1/2+y,1/2-z
1/2-x,1/2-y,-z
1/2+x,1/2-y,1/2+z
loop_
_atom_site_type_symbol
_atom_site_label
_atom_site_fract_x
_atom_site_fract_y
_atom_site_fract_z
Si Si1 0.573642 0.093202 0.619916
Si Si2 0.793790 0.109698 0.949947
Si Si3 0.000000 0.084392 0.250000
Si Si4 0.127678 0.203700 0.994927
O O1 0.500000 0.152086 0.750000
O O2 0.681719 0.062812 0.832526
O O3 0.603963 0.178089 0.447142
O O4 0.500000 0.000000 0.500000
O O5 0.821227 0.161661 0.710791
O O6 0.891290 0.037273 0.086488
O O7 0.801620 0.180605 0.201192
O O8 0.027363 0.150489 0.028858
#
# Coordination Sequence:
#
# PCOD9286610 Si02
#       4
#     8   8   4   8
#     4  12  27  44  66 107 167 210 241 311 419 490
#     4  10  22  43  74 107 141 200 265 328 375 451
#     4   8  20  36  80  96 140 170 282 316 366 414
#     4  10  21  43  75 108 141 193 268 330 374 449
#
# _framework density 29.857682
#
# number of rings (size 3 to 8) (size 9 to 14) (size 15 to 20)
#    1.714    0.000    1.429    2.571    0.000    6.857 
#    0.000    0.000    0.000    1.714    0.000    0.000 
#    0.000    0.000    0.000    0.000    0.000    0.000 
#
# Total GULP energy -78222.026643 kJ/mol
# GULP energy per Si atom -5587.287617 kJ/mol
# Density = 2.978972 g / cm^3
# Si number density = 29.857682 Si / 1000 Ang^3
#
#
#
# Elastic Constant Matrix: (Units=GPa)
#
#
# Indices 1 2 3 4 5 6 
#
# 1 237.6610 72.4143 119.1483 0.0000 44.1611 0.0000
# 2 72.4143 163.8033 74.0472 0.0000 -3.1489 0.0000
# 3 119.1483 74.0472 231.6366 0.0000 14.3668 0.0000
# 4 0.0000 0.0000 0.0000 39.9689 0.0000 -1.5056
# 5 44.1611 -3.1489 14.3668 0.0000 116.5064 0.0000
# 6 0.0000 0.0000 0.0000 -1.5056 0.0000 40.8698
#
#
#
# Elastic Compliance Matrix: (Units=1/GPa)
#
#
# Indices 1 2 3 4 5 6 
#
# 1 0.006452 -0.001700 -0.002641 0.000000 -0.002166 0.000000
# 2 -0.001700 0.007611 -0.001623 0.000000 0.001050 0.000000
# 3 -0.002641 -0.001623 0.006182 0.000000 0.000195 0.000000
# 4 0.000000 0.000000 0.000000 0.025054 0.000000 0.000923
# 5 -0.002166 0.001050 0.000195 0.000000 0.009409 0.000000
# 6 0.000000 0.000000 0.000000 0.000923 0.000000 0.024502
#
#
# Mechanical properties :
#
#
# Convention : Reuss Voigt Hill
#
# Bulk Modulus (GPa) = 120.25145 129.36894 124.81019
# Shear Modulus (GPa) = 53.24166 63.96843 58.60505
#
# Velocity S-wave (km/s) = 4.22735 4.63368 4.43517
# Velocity P-wave (km/s) = 8.01185 8.48826 8.25349
#
# Compressibility (1/GPa) = 0.00831591
#
# Stress axis : x y z
#
# Youngs Moduli (GPa) = 154.98523 131.39601 161.74704
#
# Poissons Ratio (x) = 0.22339 0.42718
# Poissons Ratio (y) = 0.26350 0.26260
# Poissons Ratio (z) = 0.40932 0.21332
#
# Static dielectric constant tensor:
#      x y z
#    x 2.337740 0.000000 0.011390 
#    y 0.000000 2.355360 0.000000 
#    z 0.011390 0.000000 2.575280 
# 
# From -- ./inp_files/36649.got.cif
#   From: 2010.05.17/outbox.cif.g08.bks.cpg/sg15_19_cif.got.tgz:36649.got - 2010.06.03 18:47:42.
