data_PCOD9286215
_publ_section_title
;
Structure prediction by ZEFSAII (Michael W. Deem and Ramdas Pophale) SiO2 
 PCOD9286215
Probable space group: C 2/C
;
_chemical_formula_sum "Si O2"
_cell_formula_units_Z 40
_cell_length_a 5.032297
_cell_length_b 13.541817
_cell_length_c 29.963257
_cell_angle_alpha 90.000000
_cell_angle_beta 80.708560
_cell_angle_gamma 90.000000
_cell_volume 2015.099549
_symmetry_space_group_name_H-M "C 2/C"
_symmetry_group_IT_number 15
_symmetry_cell_setting 'monoclinic'
loop_
_space_group_symop_operation_xyz
x,y,z
-x,y,1/2-z
-x,-y,-z
x,-y,1/2+z
1/2+x,1/2+y,z
1/2-x,1/2+y,1/2-z
1/2-x,1/2-y,-z
1/2+x,1/2-y,1/2+z
loop_
_atom_site_type_symbol
_atom_site_label
_atom_site_fract_x
_atom_site_fract_y
_atom_site_fract_z
Si Si1 0.764342 0.454813 0.445076
Si Si2 0.563342 0.652835 0.800335
Si Si3 0.226803 0.365823 0.491294
Si Si4 0.461013 0.943072 0.158129
Si Si5 0.784267 0.376257 0.717708
O O1 0.470299 0.405797 0.453807
O O2 0.750064 0.565922 0.465088
O O3 0.902406 0.451969 0.393468
O O4 0.948348 0.393299 0.474725
O O5 0.500000 0.630113 0.750000
O O6 0.804281 0.587998 0.813743
O O7 0.658436 0.765732 0.800397
O O8 0.283268 0.635003 0.833449
O O9 0.250000 0.250000 0.500000
O O10 0.323427 0.044461 0.177929
O O11 0.500000 0.380311 0.750000
O O12 0.000000 0.398492 0.750000
#
# Coordination Sequence:
#
# PCOD9286215 Si02
#       5
#     8   8   8   8   8
#     4  10  23  38  61  94 115 148 202 238 289 364
#     4  11  23  40  59  84 121 162 200 239 291 347
#     4  10  21  43  64  83 121 158 186 238 302 356
#     4  12  23  38  61  89 120 151 196 253 291 334
#     4  11  23  39  59  84 116 159 201 235 287 347
#
# _framework density 19.850135999999999
#
# number of rings (size 3 to 8) (size 9 to 14) (size 15 to 20)
#    0.000    1.200    0.000    7.800    0.000    3.200 
#    0.000    0.000    0.000    0.000    0.000    0.000 
#    0.000    0.000    0.000    0.000    0.000    0.000 
#
# Total GULP energy -111859.243554 kJ/mol
# GULP energy per Si atom -5592.962178 kJ/mol
# Density = 1.980496 g / cm^3
# Si number density = 19.850136 Si / 1000 Ang^3
#
#
#
# Elastic Constant Matrix: (Units=GPa)
#
#
# Indices 1 2 3 4 5 6 
#
# 1 98.8380 13.8940 4.3210 0.0000 -16.2141 0.0000
# 2 13.8940 126.9091 46.0104 0.0000 -0.2495 0.0000
# 3 4.3210 46.0104 90.0000 0.0000 -25.8692 0.0000
# 4 0.0000 0.0000 0.0000 9.2915 0.0000 -7.3994
# 5 -16.2141 -0.2495 -25.8692 0.0000 31.9359 0.0000
# 6 0.0000 0.0000 0.0000 -7.3994 0.0000 26.4490
#
#
#
# Elastic Compliance Matrix: (Units=1/GPa)
#
#
# Indices 1 2 3 4 5 6 
#
# 1 0.011697 -0.002377 0.003070 0.000000 0.008407 0.000000
# 2 -0.002377 0.010844 -0.007498 0.000000 -0.007196 0.000000
# 3 0.003070 -0.007498 0.019850 0.000000 0.017579 0.000000
# 4 0.000000 0.000000 0.000000 0.138476 0.000000 0.038740
# 5 0.008407 -0.007196 0.017579 0.000000 0.049764 0.000000
# 6 0.000000 0.000000 0.000000 0.038740 0.000000 0.048646
#
#
# Mechanical properties :
#
#
# Convention : Reuss Voigt Hill
#
# Bulk Modulus (GPa) = 34.74585 49.35533 42.05059
# Shear Modulus (GPa) = 16.52999 30.30340 23.41670
#
# Velocity S-wave (km/s) = 2.88885 3.91142 3.43836
# Velocity P-wave (km/s) = 5.35438 6.73179 6.08220
#
# Compressibility (1/GPa) = 0.02878042
#
# Stress axis : x y z
#
# Youngs Moduli (GPa) = 85.49494 92.21595 50.37857
#
# Poissons Ratio (x) = 0.21920 -0.15466
# Poissons Ratio (y) = 0.20322 0.37774
# Poissons Ratio (z) = -0.26247 0.69143
#
# Static dielectric constant tensor:
#      x y z
#    x 1.681510 0.000000 0.005730 
#    y 0.000000 1.705070 0.000000 
#    z 0.005730 0.000000 1.666570 
# 
# From -- ./inp_files/285172.got.cif
#   From: 2010.05.17/outbox.cif.g08.bks.cpg/sg15_143_cif.got.tgz:285172.got - 2010.06.03 18:47:42.
