data_PCOD9286445
_publ_section_title
;
Structure prediction by ZEFSAII (Michael W. Deem and Ramdas Pophale) SiO2 
 PCOD9286445
Probable space group: C 2/C
;
_chemical_formula_sum "Si O2"
_cell_formula_units_Z 32
_cell_length_a 7.886902
_cell_length_b 27.101294
_cell_length_c 6.919665
_cell_angle_alpha 90.000000
_cell_angle_beta 123.012344
_cell_angle_gamma 90.000000
_cell_volume 1240.258372
_symmetry_space_group_name_H-M "C 2/C"
_symmetry_group_IT_number 15
_symmetry_cell_setting 'monoclinic'
loop_
_space_group_symop_operation_xyz
x,y,z
-x,y,1/2-z
-x,-y,-z
x,-y,1/2+z
1/2+x,1/2+y,z
1/2-x,1/2+y,1/2-z
1/2-x,1/2-y,-z
1/2+x,1/2-y,1/2+z
loop_
_atom_site_type_symbol
_atom_site_label
_atom_site_fract_x
_atom_site_fract_y
_atom_site_fract_z
Si Si1 0.225024 0.457707 0.462867
Si Si2 0.271344 0.828043 0.535666
Si Si3 0.678595 0.248352 0.770734
Si Si4 0.148749 0.933699 0.541858
O O1 0.412786 0.438998 0.451300
O O2 0.242477 0.433362 0.682782
O O3 0.270586 0.516413 0.507969
O O4 0.000000 0.449865 0.250000
O O5 0.500000 0.829746 0.750000
O O6 0.248229 0.794752 0.329173
O O7 0.168961 0.800056 0.651361
O O8 0.197703 0.883319 0.467490
O O9 0.403480 0.239666 0.554982
#
# Coordination Sequence:
#
# PCOD9286445 Si02
#       4
#     8   8   8   8
#     4  10  21  43  69 102 158 203 249 316 377 442
#     4  11  24  45  75 110 149 197 253 312 384 456
#     4  11  24  48  74 106 149 188 245 319 383 459
#     4  10  23  43  69 109 151 199 258 313 370 459
#
# _framework density 25.801078
#
# number of rings (size 3 to 8) (size 9 to 14) (size 15 to 20)
#    0.000    1.500    2.500    1.500    3.500    0.000 
#    9.000    7.500    0.000    0.000    0.000    0.000 
#    0.000    0.000    0.000    0.000    0.000    0.000 
#
# Total GULP energy -89551.452468 kJ/mol
# GULP energy per Si atom -5596.965779 kJ/mol
# Density = 2.574235 g / cm^3
# Si number density = 25.801078 Si / 1000 Ang^3
#
#
#
# Elastic Constant Matrix: (Units=GPa)
#
#
# Indices 1 2 3 4 5 6 
#
# 1 61.0029 5.4584 49.6685 0.0000 11.1654 0.0000
# 2 5.4584 129.4718 44.1989 0.0000 -25.9558 0.0000
# 3 49.6685 44.1989 248.6339 0.0000 -0.3454 0.0000
# 4 0.0000 0.0000 0.0000 24.8927 0.0000 6.7933
# 5 11.1654 -25.9558 -0.3454 0.0000 40.0824 0.0000
# 6 0.0000 0.0000 0.0000 6.7933 0.0000 33.4207
#
#
#
# Elastic Compliance Matrix: (Units=1/GPa)
#
#
# Indices 1 2 3 4 5 6 
#
# 1 0.020926 -0.000775 -0.004051 0.000000 -0.006366 0.000000
# 2 -0.000775 0.009563 -0.001536 0.000000 0.006395 0.000000
# 3 -0.004051 -0.001536 0.005105 0.000000 0.000178 0.000000
# 4 0.000000 0.000000 0.000000 0.042532 0.000000 -0.008645
# 5 -0.006366 0.006395 0.000178 0.000000 0.030865 0.000000
# 6 0.000000 0.000000 0.000000 -0.008645 0.000000 0.031679
#
#
# Mechanical properties :
#
#
# Convention : Reuss Voigt Hill
#
# Bulk Modulus (GPa) = 43.73014 70.86225 57.29620
# Shear Modulus (GPa) = 31.05264 42.33135 36.69200
#
# Velocity S-wave (km/s) = 3.47297 4.05493 3.77518
# Velocity P-wave (km/s) = 5.75046 7.03191 6.42322
#
# Compressibility (1/GPa) = 0.02286752
#
# Stress axis : x y z
#
# Youngs Moduli (GPa) = 47.78794 104.57079 195.90159
#
# Poissons Ratio (x) = 0.08109 0.79364
# Poissons Ratio (y) = 0.03706 0.30094
# Poissons Ratio (z) = 0.19360 0.16064
#
# Static dielectric constant tensor:
#      x y z
#    x 2.260270 0.000000 0.480760 
#    y 0.000000 1.888490 0.000000 
#    z 0.480760 0.000000 2.781950 
# 
# From -- ./inp_files/24748.got.cif
#   From: 2010.05.17/outbox.cif.g08.bks.cpg/sg15_13_cif.got.tgz:24748.got - 2010.06.03 18:47:42.
