data_PCOD9286517
_publ_section_title
;
Structure prediction by ZEFSAII (Michael W. Deem and Ramdas Pophale) SiO2 
 PCOD9286517
Probable space group: C 2/C
;
_chemical_formula_sum "Si O2"
_cell_formula_units_Z 40
_cell_length_a 8.682191
_cell_length_b 14.525001
_cell_length_c 22.968840
_cell_angle_alpha 90.000000
_cell_angle_beta 39.097949
_cell_angle_gamma 90.000000
_cell_volume 1826.718431
_symmetry_space_group_name_H-M "C 2/C"
_symmetry_group_IT_number 15
_symmetry_cell_setting 'monoclinic'
loop_
_space_group_symop_operation_xyz
x,y,z
-x,y,1/2-z
-x,-y,-z
x,-y,1/2+z
1/2+x,1/2+y,z
1/2-x,1/2+y,1/2-z
1/2-x,1/2-y,-z
1/2+x,1/2-y,1/2+z
loop_
_atom_site_type_symbol
_atom_site_label
_atom_site_fract_x
_atom_site_fract_y
_atom_site_fract_z
Si Si1 0.777494 0.517869 0.768007
Si Si2 0.929922 0.369513 0.626331
Si Si3 0.006792 0.195648 0.682743
Si Si4 0.036604 0.392139 0.006171
Si Si5 0.856148 0.004931 0.482949
O O1 0.820075 0.445892 0.702720
O O2 0.693651 0.614999 0.765326
O O3 0.544711 0.491352 0.874974
O O4 0.000000 0.522127 0.750000
O O5 0.824354 0.354904 0.592105
O O6 0.950782 0.274752 0.653433
O O7 0.195228 0.412287 0.533465
O O8 0.279884 0.156373 0.592686
O O9 0.000000 0.234156 0.750000
O O10 0.188396 0.405263 0.021140
O O11 0.000000 0.500000 0.000000
O O12 0.000000 0.000000 0.500000
#
# Coordination Sequence:
#
# PCOD9286517 Si02
#       5
#     8   8   8   8   8
#     4  12  25  43  69  98 144 184 228 293 357 422
#     4  11  24  46  69 102 141 184 239 293 355 414
#     4  12  25  43  70 105 141 186 241 292 355 428
#     4  10  21  43  70  98 133 188 228 287 352 416
#     4  11  23  43  72  98 139 187 229 289 358 421
#
# _framework density 21.897190999999999
#
# number of rings (size 3 to 8) (size 9 to 14) (size 15 to 20)
#    0.000    0.800    6.000    3.600    0.000    0.000 
#    3.600    1.000    0.000    0.000    0.000    0.000 
#    0.000    0.000    0.000    0.000    0.000    0.000 
#
# Total GULP energy -111595.754612 kJ/mol
# GULP energy per Si atom -5579.787731 kJ/mol
# Density = 2.184735 g / cm^3
# Si number density = 21.897191 Si / 1000 Ang^3
#
#
#
# Elastic Constant Matrix: (Units=GPa)
#
#
# Indices 1 2 3 4 5 6 
#
# 1 107.6722 40.4385 25.3684 0.0009 23.2647 -0.0008
# 2 40.4385 97.1717 36.4711 0.0002 2.3967 0.0000
# 3 25.3684 36.4711 124.2058 0.0025 15.3608 -0.0017
# 4 0.0009 0.0002 0.0025 21.2725 -0.0011 12.6647
# 5 23.2647 2.3967 15.3608 -0.0011 38.5707 0.0015
# 6 -0.0008 0.0000 -0.0017 12.6647 0.0015 29.9562
#
#
#
# Elastic Compliance Matrix: (Units=1/GPa)
#
#
# Indices 1 2 3 4 5 6 
#
# 1 0.012831 -0.005075 -0.000223 -0.000002 -0.007335 0.000001
# 2 -0.005075 0.013589 -0.003395 0.000001 0.003569 -0.000001
# 3 -0.000223 -0.003395 0.009520 -0.000002 -0.003446 0.000002
# 4 -0.000002 0.000001 -0.000002 0.062821 0.000005 -0.026559
# 5 -0.007335 0.003569 -0.003446 0.000005 0.031501 -0.000004
# 6 0.000001 -0.000001 0.000002 -0.026559 -0.000004 0.044611
#
#
# Mechanical properties :
#
#
# Convention : Reuss Voigt Hill
#
# Bulk Modulus (GPa) = 53.89892 59.28955 56.59423
# Shear Modulus (GPa) = 25.19601 33.07800 29.13700
#
# Velocity S-wave (km/s) = 3.39580 3.89087 3.65173
# Velocity P-wave (km/s) = 6.32798 6.87897 6.60922
#
# Compressibility (1/GPa) = 0.01855325
#
# Stress axis : x y z
#
# Youngs Moduli (GPa) = 77.93686 73.58756 105.04401
#
# Poissons Ratio (x) = 0.37345 0.02346
# Poissons Ratio (y) = 0.39552 0.35664
# Poissons Ratio (z) = 0.01741 0.24984
#
# Static dielectric constant tensor:
#      x y z
#    x 2.040510 0.000000 0.009070 
#    y 0.000000 1.772910 0.000000 
#    z 0.009070 0.000000 1.820740 
# 
# From -- ./inp_files/264109.got.cif
#   From: 2010.05.17/outbox.cif.g08.bks.cpg/sg15_133_cif.got.tgz:264109.got - 2010.06.03 18:47:42.
