data_PCOD9286219
_publ_section_title
;
Structure prediction by ZEFSAII (Michael W. Deem and Ramdas Pophale) SiO2 
 PCOD9286219
Probable space group: C 2/C
;
_chemical_formula_sum "Si O2"
_cell_formula_units_Z 56
_cell_length_a 10.977969
_cell_length_b 28.172085
_cell_length_c 8.544993
_cell_angle_alpha 90.000000
_cell_angle_beta 110.574214
_cell_angle_gamma 90.000000
_cell_volume 2474.170302
_symmetry_space_group_name_H-M "C 2/C"
_symmetry_group_IT_number 15
_symmetry_cell_setting 'monoclinic'
loop_
_space_group_symop_operation_xyz
x,y,z
-x,y,1/2-z
-x,-y,-z
x,-y,1/2+z
1/2+x,1/2+y,z
1/2-x,1/2+y,1/2-z
1/2-x,1/2-y,-z
1/2+x,1/2-y,1/2+z
loop_
_atom_site_type_symbol
_atom_site_label
_atom_site_fract_x
_atom_site_fract_y
_atom_site_fract_z
Si Si1 0.645804 0.524847 0.866302
Si Si2 0.294600 0.892647 0.315376
Si Si3 0.190593 0.931877 0.726417
Si Si4 0.255692 0.214968 0.301986
Si Si5 0.165425 0.816922 0.079587
Si Si6 0.442585 0.869280 0.898582
Si Si7 0.382509 0.346379 0.991904
O O1 0.500000 0.541025 0.750000
O O2 0.749090 0.552903 0.803680
O O3 0.649946 0.468660 0.840285
O O4 0.682142 0.537974 0.060459
O O5 0.255974 0.862976 0.144873
O O6 0.442576 0.884178 0.432769
O O7 0.201057 0.869510 0.407551
O O8 0.328374 0.908412 0.833176
O O9 0.105881 0.886294 0.639564
O O10 0.157975 0.200284 0.397413
O O11 0.277182 0.270707 0.310028
O O12 0.382214 0.182978 0.400872
O O13 0.201718 0.196032 0.115767
O O14 0.026200 0.829103 0.086694
O O15 0.500000 0.867282 0.750000
#
# Coordination Sequence:
#
# PCOD9286219 Si02
#       7
#     8   8   8   8   8   8   8
#     4  11  22  39  63  96 124 160 210 263 315 377
#     4  11  23  41  66  92 126 166 211 262 307 375
#     4  10  23  40  64  91 125 166 204 263 320 367
#     4  10  24  40  62  91 126 170 202 263 323 366
#     4  11  24  40  62  97 127 156 218 264 314 374
#     4  11  21  45  64  85 131 170 208 253 314 384
#     4  10  21  43  64  87 128 170 202 260 318 370
#
# _framework density 22.633849999999999
#
# number of rings (size 3 to 8) (size 9 to 14) (size 15 to 20)
#    0.000    1.429    4.286    3.000    2.000    7.429 
#    0.000    0.000    0.000    0.000    0.000    0.000 
#    0.000    0.000    0.000    0.000    0.000    0.000 
#
# Total GULP energy -156474.371602 kJ/mol
# GULP energy per Si atom -5588.370414 kJ/mol
# Density = 2.258233 g / cm^3
# Si number density = 22.633850 Si / 1000 Ang^3
#
#
#
# Elastic Constant Matrix: (Units=GPa)
#
#
# Indices 1 2 3 4 5 6 
#
# 1 55.4700 6.7345 19.7456 0.0000 13.5586 0.0000
# 2 6.7345 61.9398 9.3429 0.0000 -3.7805 0.0000
# 3 19.7456 9.3429 47.2386 0.0000 9.2499 0.0000
# 4 0.0000 0.0000 0.0000 25.9026 0.0000 -6.9718
# 5 13.5586 -3.7805 9.2499 0.0000 23.9240 0.0000
# 6 0.0000 0.0000 0.0000 -6.9718 0.0000 22.5078
#
#
#
# Elastic Compliance Matrix: (Units=1/GPa)
#
#
# Indices 1 2 3 4 5 6 
#
# 1 0.023534 -0.002121 -0.007292 0.000000 -0.010853 0.000000
# 2 -0.002121 0.017236 -0.003561 0.000000 0.005303 0.000000
# 3 -0.007292 -0.003561 0.026207 0.000000 -0.006562 0.000000
# 4 0.000000 0.000000 0.000000 0.042117 0.000000 0.013046
# 5 -0.010853 0.005303 -0.006562 0.000000 0.051325 0.000000
# 6 0.000000 0.000000 0.000000 0.013046 0.000000 0.048470
#
#
# Mechanical properties :
#
#
# Convention : Reuss Voigt Hill
#
# Bulk Modulus (GPa) = 24.37351 26.25492 25.31422
# Shear Modulus (GPa) = 20.11961 23.05524 21.58742
#
# Velocity S-wave (km/s) = 2.98471 3.19504 3.09166
# Velocity P-wave (km/s) = 4.76130 5.02355 4.89418
#
# Compressibility (1/GPa) = 0.04102815
#
# Stress axis : x y z
#
# Youngs Moduli (GPa) = 42.49159 58.01789 38.15846
#
# Poissons Ratio (x) = 0.12307 0.27827
# Poissons Ratio (y) = 0.09014 0.13587
# Poissons Ratio (z) = 0.30987 0.20658
#
# Static dielectric constant tensor:
#      x y z
#    x 1.865250 0.000000 -0.053730 
#    y 0.000000 1.834980 0.000000 
#    z -0.053730 0.000000 1.886870 
# 
# From -- ./inp_files/35770.got.cif
#   From: 2010.05.17/outbox.cif.g08.bks.cpg/sg15_18_cif.got.tgz:35770.got - 2010.06.03 18:47:42.
