data_PCOD9286275
_publ_section_title
;
Structure prediction by ZEFSAII (Michael W. Deem and Ramdas Pophale) SiO2 
 PCOD9286275
Probable space group: C 2/C
;
_chemical_formula_sum "Si O2"
_cell_formula_units_Z 56
_cell_length_a 24.754221
_cell_length_b 15.396948
_cell_length_c 13.926762
_cell_angle_alpha 90.000000
_cell_angle_beta 32.502324
_cell_angle_gamma 90.000000
_cell_volume 2852.188566
_symmetry_space_group_name_H-M "C 2/C"
_symmetry_group_IT_number 15
_symmetry_cell_setting 'monoclinic'
loop_
_space_group_symop_operation_xyz
x,y,z
-x,y,1/2-z
-x,-y,-z
x,-y,1/2+z
1/2+x,1/2+y,z
1/2-x,1/2+y,1/2-z
1/2-x,1/2-y,-z
1/2+x,1/2-y,1/2+z
loop_
_atom_site_type_symbol
_atom_site_label
_atom_site_fract_x
_atom_site_fract_y
_atom_site_fract_z
Si Si1 0.291589 0.799593 0.030830
Si Si2 0.000000 0.216877 0.750000
Si Si3 0.000000 0.847105 0.750000
Si Si4 0.491095 0.377819 0.082195
Si Si5 0.966715 0.547390 0.951333
Si Si6 0.126754 0.044839 0.215275
Si Si7 0.337128 0.997461 0.468968
Si Si8 0.105622 0.745511 0.421024
O O1 0.298432 0.903662 0.016322
O O2 0.223211 0.763597 0.221543
O O3 0.250000 0.750000 0.000000
O O4 0.407285 0.774109 0.859740
O O5 0.039383 0.158439 0.604906
O O6 0.924444 0.904506 0.797060
O O7 0.066876 0.788755 0.577908
O O8 0.405120 0.444230 0.245172
O O9 0.446052 0.300462 0.086679
O O10 0.569701 0.424848 0.896681
O O11 0.065375 0.532028 0.737552
O O12 0.873043 0.512830 0.026299
O O13 0.933767 0.646808 0.021799
O O14 0.000000 0.500000 0.000000
O O15 0.243672 0.056347 0.064418
#
# Coordination Sequence:
#
# PCOD9286275 Si02
#       8
#     8   4   4   8   8   8   8   8
#     4  12  24  42  69  97 136 174 228 291 344 406
#     4  12  23  38  65  94 122 172 224 275 342 397
#     4  10  23  42  71  98 140 178 228 291 354 425
#     4  10  22  40  66  95 134 166 227 289 331 420
#     4  11  26  44  67  96 140 186 229 281 346 414
#     4  10  21  43  65  98 132 176 218 282 352 405
#     4  11  24  45  65  99 138 175 228 285 336 421
#     4  11  23  46  65 100 142 182 233 291 348 414
#
# _framework density 19.634046000000001
#
# number of rings (size 3 to 8) (size 9 to 14) (size 15 to 20)
#    0.000    1.143    2.857    3.000    4.000    1.143 
#    0.000    2.143    0.000    0.000    0.000    0.000 
#    0.000    0.000    0.000    0.000    0.000    0.000 
#
# Total GULP energy -156050.751259 kJ/mol
# GULP energy per Si atom -5573.241116 kJ/mol
# Density = 1.958936 g / cm^3
# Si number density = 19.634046 Si / 1000 Ang^3
#
#
#
# Elastic Constant Matrix: (Units=GPa)
#
#
# Indices 1 2 3 4 5 6 
#
# 1 103.5750 23.1146 47.0585 0.0000 -10.1177 0.0000
# 2 23.1146 111.5255 37.4571 0.0000 -1.3895 0.0000
# 3 47.0585 37.4571 107.5121 0.0000 -9.2812 0.0000
# 4 0.0000 0.0000 0.0000 20.0586 0.0000 1.7348
# 5 -10.1177 -1.3895 -9.2812 0.0000 46.0648 0.0000
# 6 0.0000 0.0000 0.0000 1.7348 0.0000 12.7666
#
#
#
# Elastic Compliance Matrix: (Units=1/GPa)
#
#
# Indices 1 2 3 4 5 6 
#
# 1 0.012244 -0.000867 -0.004913 0.000000 0.001673 0.000000
# 2 -0.000867 0.010224 -0.003229 0.000000 -0.000532 0.000000
# 3 -0.004913 -0.003229 0.012696 0.000000 0.001382 0.000000
# 4 0.000000 0.000000 0.000000 0.050447 0.000000 -0.006855
# 5 0.001673 -0.000532 0.001382 0.000000 0.022338 0.000000
# 6 0.000000 0.000000 0.000000 -0.006855 0.000000 0.079261
#
#
# Mechanical properties :
#
#
# Convention : Reuss Voigt Hill
#
# Bulk Modulus (GPa) = 58.31845 59.76368 59.04106
# Shear Modulus (GPa) = 23.70324 30.11015 26.90670
#
# Velocity S-wave (km/s) = 3.47832 3.92033 3.70592
# Velocity P-wave (km/s) = 6.77487 7.14121 6.96045
#
# Compressibility (1/GPa) = 0.01714723
#
# Stress axis : x y z
#
# Youngs Moduli (GPa) = 81.67407 97.80982 78.76687
#
# Poissons Ratio (x) = 0.08478 0.38696
# Poissons Ratio (y) = 0.07079 0.25430
# Poissons Ratio (z) = 0.40124 0.31579
#
# Static dielectric constant tensor:
#      x y z
#    x 1.711610 0.000000 0.005050 
#    y 0.000000 1.716420 0.000000 
#    z 0.005050 0.000000 1.717340 
# 
# From -- ./inp_files/178389.got.cif
#   From: 2010.05.17/outbox.cif.g08.bks.cpg/sg15_90_cif.got.tgz:178389.got - 2010.06.03 18:47:42.
