data_PCOD9286875
_publ_section_title
;
Structure prediction by ZEFSAII (Michael W. Deem and Ramdas Pophale) SiO2 
 PCOD9286875
Probable space group: C 2/C
;
_chemical_formula_sum "Si O2"
_cell_formula_units_Z 44
_cell_length_a 23.560707
_cell_length_b 5.535781
_cell_length_c 12.555320
_cell_angle_alpha 90.000000
_cell_angle_beta 64.673863
_cell_angle_gamma 90.000000
_cell_volume 1480.162470
_symmetry_space_group_name_H-M "C 2/C"
_symmetry_group_IT_number 15
_symmetry_cell_setting 'monoclinic'
loop_
_space_group_symop_operation_xyz
x,y,z
-x,y,1/2-z
-x,-y,-z
x,-y,1/2+z
1/2+x,1/2+y,z
1/2-x,1/2+y,1/2-z
1/2-x,1/2-y,-z
1/2+x,1/2-y,1/2+z
loop_
_atom_site_type_symbol
_atom_site_label
_atom_site_fract_x
_atom_site_fract_y
_atom_site_fract_z
Si Si1 0.385715 0.797844 0.449410
Si Si2 0.351203 0.882352 0.727741
Si Si3 0.500000 0.498007 0.250000
Si Si4 0.875136 0.122992 0.172665
Si Si5 0.721871 0.437105 0.935764
Si Si6 0.530659 0.805664 0.553438
O O1 0.371296 0.828747 0.589408
O O2 0.443569 0.642091 0.352579
O O3 0.318637 0.660665 0.481176
O O4 0.415519 0.068827 0.415335
O O5 0.354264 0.603011 0.759839
O O6 0.282847 0.983142 0.814397
O O7 0.387071 0.129407 0.728572
O O8 0.518951 0.314295 0.328473
O O9 0.824175 0.166581 0.119245
O O10 0.936873 0.114464 0.050026
O O11 0.750000 0.250000 0.000000
O O12 0.500000 0.000000 0.500000
#
# Coordination Sequence:
#
# PCOD9286875 Si02
#       6
#     8   8   4   8   8   8
#     4  10  24  46  72 111 155 205 271 335 409 502
#     4  10  21  44  72 100 146 197 250 321 395 480
#     4  12  22  50  74 112 168 200 276 350 406 518
#     4  10  21  46  66 105 146 189 260 315 387 487
#     4  11  23  44  73 107 150 201 255 331 407 478
#     4  11  25  47  76 111 159 220 266 337 427 493
#
# _framework density 29.726465000000001
#
# number of rings (size 3 to 8) (size 9 to 14) (size 15 to 20)
#    0.000    1.455    3.636    2.727    0.000    5.091 
#    6.545   12.727    0.000    0.000    0.000    0.000 
#    0.000    0.000    0.000    0.000    0.000    0.000 
#
# Total GULP energy -122586.898628 kJ/mol
# GULP energy per Si atom -5572.131756 kJ/mol
# Density = 2.965881 g / cm^3
# Si number density = 29.726465 Si / 1000 Ang^3
#
#
#
# Elastic Constant Matrix: (Units=GPa)
#
#
# Indices 1 2 3 4 5 6 
#
# 1 133.5438 48.5226 76.0901 0.0000 2.1934 0.0000
# 2 48.5226 202.0512 84.2692 0.0000 -3.1345 0.0000
# 3 76.0901 84.2692 179.2426 0.0000 -53.3936 0.0000
# 4 0.0000 0.0000 0.0000 69.6925 0.0000 8.3748
# 5 2.1934 -3.1345 -53.3936 0.0000 66.7460 0.0000
# 6 0.0000 0.0000 0.0000 8.3748 0.0000 70.0240
#
#
#
# Elastic Compliance Matrix: (Units=1/GPa)
#
#
# Indices 1 2 3 4 5 6 
#
# 1 0.011228 -0.000147 -0.006314 0.000000 -0.005427 0.000000
# 2 -0.000147 0.006540 -0.003833 0.000000 -0.002754 0.000000
# 3 -0.006314 -0.003833 0.013219 0.000000 0.010602 0.000000
# 4 0.000000 0.000000 0.000000 0.014558 0.000000 -0.001741
# 5 -0.005427 -0.002754 0.010602 0.000000 0.023513 0.000000
# 6 0.000000 0.000000 0.000000 -0.001741 0.000000 0.014489
#
#
# Mechanical properties :
#
#
# Convention : Reuss Voigt Hill
#
# Bulk Modulus (GPa) = 96.14891 103.62236 99.88563
# Shear Modulus (GPa) = 46.46746 61.68955 54.07850
#
# Velocity S-wave (km/s) = 3.95798 4.56042 4.26984
# Velocity P-wave (km/s) = 7.30084 7.91607 7.61467
#
# Compressibility (1/GPa) = 0.01040053
#
# Stress axis : x y z
#
# Youngs Moduli (GPa) = 89.06109 152.89537 75.64610
#
# Poissons Ratio (x) = 0.02254 0.47760
# Poissons Ratio (y) = 0.01313 0.28993
# Poissons Ratio (z) = 0.56230 0.58600
#
# Static dielectric constant tensor:
#      x y z
#    x 2.542720 0.000000 0.124870 
#    y 0.000000 2.603900 0.000000 
#    z 0.124870 0.000000 2.315050 
# 
# From -- ./inp_files/179633.got.cif
#   From: 2010.05.17/outbox.cif.g08.bks.cpg/sg15_90_cif.got.tgz:179633.got - 2010.06.03 18:47:42.
