data_PCOD9286779
_publ_section_title
;
Structure prediction by ZEFSAII (Michael W. Deem and Ramdas Pophale) SiO2 
 PCOD9286779
Probable space group: C 2/C
;
_chemical_formula_sum "Si O2"
_cell_formula_units_Z 52
_cell_length_a 17.715955
_cell_length_b 5.169996
_cell_length_c 26.586438
_cell_angle_alpha 90.000000
_cell_angle_beta 122.807446
_cell_angle_gamma 90.000000
_cell_volume 2046.683479
_symmetry_space_group_name_H-M "C 2/C"
_symmetry_group_IT_number 15
_symmetry_cell_setting 'monoclinic'
loop_
_space_group_symop_operation_xyz
x,y,z
-x,y,1/2-z
-x,-y,-z
x,-y,1/2+z
1/2+x,1/2+y,z
1/2-x,1/2+y,1/2-z
1/2-x,1/2-y,-z
1/2+x,1/2-y,1/2+z
loop_
_atom_site_type_symbol
_atom_site_label
_atom_site_fract_x
_atom_site_fract_y
_atom_site_fract_z
Si Si1 0.371693 0.883314 0.182618
Si Si2 0.341283 0.216418 0.257656
Si Si3 0.850742 0.391549 0.351635
Si Si4 0.250000 0.750000 0.000000
Si Si5 0.355460 0.234541 0.089302
Si Si6 0.013351 0.913743 0.664148
Si Si7 0.712747 0.105698 0.076737
O O1 0.381801 0.971541 0.243068
O O2 0.447783 0.741040 0.178105
O O3 0.281146 0.725465 0.141187
O O4 0.356442 0.156104 0.148279
O O5 0.344624 0.158574 0.318031
O O6 0.240865 0.254037 0.201234
O O7 0.410133 0.447316 0.274905
O O8 0.848869 0.431898 0.410963
O O9 0.937085 0.247399 0.361092
O O10 0.172570 0.526923 0.948311
O O11 0.318258 0.685582 0.974585
O O12 0.450786 0.366529 0.115445
O O13 0.280578 0.467755 0.058731
#
# Coordination Sequence:
#
# PCOD9286779 Si02
#       7
#     8   8   8   4   8   8   8
#     4  10  23  43  64  95 132 180 231 269 329 410
#     4  12  24  42  64  97 144 188 224 269 337 418
#     4  12  24  41  63  96 139 184 223 271 347 417
#     4  10  22  42  76 100 130 176 240 296 360 406
#     4  10  21  44  68  98 130 175 233 288 342 407
#     4  11  26  41  64  97 142 178 227 282 335 409
#     4  10  22  42  70  99 131 175 230 286 343 416
#
# _framework density 25.406957999999999
#
# number of rings (size 3 to 8) (size 9 to 14) (size 15 to 20)
#    0.000    1.231    3.077    2.308    0.000    3.692 
#    2.769    0.769    0.000   13.846    0.000    0.000 
#    0.000    0.000    0.000    0.000    0.000    0.000 
#
# Total GULP energy -144979.737999 kJ/mol
# GULP energy per Si atom -5576.143769 kJ/mol
# Density = 2.534913 g / cm^3
# Si number density = 25.406958 Si / 1000 Ang^3
#
#
#
# Elastic Constant Matrix: (Units=GPa)
#
#
# Indices 1 2 3 4 5 6 
#
# 1 153.9144 48.6011 45.2254 -0.0001 -26.0013 0.0001
# 2 48.6011 98.5702 11.3835 0.0000 -3.4064 0.0004
# 3 45.2254 11.3835 79.9088 0.0000 -27.9510 0.0001
# 4 -0.0001 0.0000 0.0000 37.4815 0.0000 4.5444
# 5 -26.0013 -3.4064 -27.9510 0.0000 37.1455 -0.0001
# 6 0.0001 0.0004 0.0001 4.5444 -0.0001 48.6249
#
#
#
# Elastic Compliance Matrix: (Units=1/GPa)
#
#
# Indices 1 2 3 4 5 6 
#
# 1 0.009433 -0.004123 -0.003494 0.000000 0.003596 0.000000
# 2 -0.004123 0.012118 -0.000018 0.000000 -0.001789 0.000000
# 3 -0.003494 -0.000018 0.018510 0.000000 0.011481 0.000000
# 4 0.000000 0.000000 0.000000 0.026986 0.000000 -0.002522
# 5 0.003596 -0.001789 0.011481 0.000000 0.037914 0.000000
# 6 0.000000 0.000000 0.000000 -0.002522 0.000000 0.020801
#
#
# Mechanical properties :
#
#
# Convention : Reuss Voigt Hill
#
# Bulk Modulus (GPa) = 40.33710 60.31260 50.32485
# Shear Modulus (GPa) = 33.49042 39.79596 36.64319
#
# Velocity S-wave (km/s) = 3.63459 3.96200 3.80182
# Velocity P-wave (km/s) = 5.79003 6.68730 6.25478
#
# Compressibility (1/GPa) = 0.02479107
#
# Stress axis : x y z
#
# Youngs Moduli (GPa) = 106.00879 82.51891 54.02476
#
# Poissons Ratio (x) = 0.34026 0.18874
# Poissons Ratio (y) = 0.43712 0.00099
# Poissons Ratio (z) = 0.37035 0.00151
#
# Static dielectric constant tensor:
#      x y z
#    x 2.046690 0.000000 -0.053120 
#    y 0.000000 2.387550 0.000000 
#    z -0.053120 0.000000 2.353570 
# 
# From -- ./inp_files/312420.got.cif
#   From: 2010.05.17/outbox.cif.g08.bks.cpg/sg15_157_cif.got.tgz:312420.got - 2010.06.03 18:47:42.
