data_PCOD9286049
_publ_section_title
;
Structure prediction by ZEFSAII (Michael W. Deem and Ramdas Pophale) SiO2 
 PCOD9286049
Probable space group: C 2/C
;
_chemical_formula_sum "Si O2"
_cell_formula_units_Z 36
_cell_length_a 9.134072
_cell_length_b 22.955379
_cell_length_c 7.717060
_cell_angle_alpha 90.000000
_cell_angle_beta 77.215316
_cell_angle_gamma 90.000000
_cell_volume 1577.968291
_symmetry_space_group_name_H-M "C 2/C"
_symmetry_group_IT_number 15
_symmetry_cell_setting 'monoclinic'
loop_
_space_group_symop_operation_xyz
x,y,z
-x,y,1/2-z
-x,-y,-z
x,-y,1/2+z
1/2+x,1/2+y,z
1/2-x,1/2+y,1/2-z
1/2-x,1/2-y,-z
1/2+x,1/2-y,1/2+z
loop_
_atom_site_type_symbol
_atom_site_label
_atom_site_fract_x
_atom_site_fract_y
_atom_site_fract_z
Si Si1 0.147034 0.083801 0.488267
Si Si2 0.971622 0.566716 0.552221
Si Si3 0.500000 0.517724 0.250000
Si Si4 0.452405 0.306037 0.966637
Si Si5 0.596432 0.820076 0.045864
O O1 0.309576 0.087208 0.528379
O O2 0.125144 0.060452 0.298115
O O3 0.051936 0.143397 0.527822
O O4 0.077702 0.028123 0.603594
O O5 0.000000 0.566466 0.750000
O O6 0.000000 0.500000 0.500000
O O7 0.074299 0.618931 0.454328
O O8 0.500000 0.306394 0.750000
O O9 0.464749 0.238982 0.026975
O O10 0.274376 0.316938 0.032515
O O11 0.500000 0.821444 0.250000
#
# Coordination Sequence:
#
# PCOD9286049 Si02
#       5
#     8   8   4   8   8
#     4  11  23  40  68  96 134 180 225 275 338 404
#     4  11  25  41  64  96 135 175 218 279 338 398
#     4  10  24  38  62 100 134 170 228 274 324 404
#     4  10  21  42  70  96 133 175 225 279 331 407
#     4   9  22  42  65  97 135 173 222 280 337 397
#
# _framework density 22.814146999999998
#
# number of rings (size 3 to 8) (size 9 to 14) (size 15 to 20)
#    0.000    1.778    1.111    1.333   12.444    2.667 
#    0.000    0.000    2.444    0.000    0.000    0.000 
#    0.000    0.000    0.000    0.000    0.000    0.000 
#
# Total GULP energy -100305.159882 kJ/mol
# GULP energy per Si atom -5572.508882 kJ/mol
# Density = 2.276222 g / cm^3
# Si number density = 22.814147 Si / 1000 Ang^3
#
#
#
# Elastic Constant Matrix: (Units=GPa)
#
#
# Indices 1 2 3 4 5 6 
#
# 1 146.5376 92.4926 42.2568 0.0000 6.5507 0.0000
# 2 92.4926 261.6859 20.1558 0.0000 15.7003 0.0000
# 3 42.2568 20.1558 50.3660 0.0000 2.5370 0.0000
# 4 0.0000 0.0000 0.0000 33.3956 0.0000 17.7632
# 5 6.5507 15.7003 2.5370 0.0000 37.7005 0.0000
# 6 0.0000 0.0000 0.0000 17.7632 0.0000 65.1172
#
#
#
# Elastic Compliance Matrix: (Units=1/GPa)
#
#
# Indices 1 2 3 4 5 6 
#
# 1 0.011292 -0.003364 -0.008127 0.000000 -0.000014 0.000000
# 2 -0.003364 0.005037 0.000886 0.000000 -0.001573 0.000000
# 3 -0.008127 0.000886 0.026355 0.000000 -0.000731 0.000000
# 4 0.000000 0.000000 0.000000 0.035026 0.000000 -0.009555
# 5 -0.000014 -0.001573 -0.000731 0.000000 0.027231 0.000000
# 6 0.000000 0.000000 0.000000 -0.009555 0.000000 0.017963
#
#
# Mechanical properties :
#
#
# Convention : Reuss Voigt Hill
#
# Bulk Modulus (GPa) = 46.56800 85.37777 65.97289
# Shear Modulus (GPa) = 33.05306 47.48826 40.27066
#
# Velocity S-wave (km/s) = 3.81044 4.56733 4.20594
# Velocity P-wave (km/s) = 6.30995 8.08198 7.25030
#
# Compressibility (1/GPa) = 0.02147397
#
# Stress axis : x y z
#
# Youngs Moduli (GPa) = 88.55981 198.54808 37.94333
#
# Poissons Ratio (x) = 0.66797 0.30835
# Poissons Ratio (y) = 0.29794 -0.03363
# Poissons Ratio (z) = 0.71970 -0.17597
#
# Static dielectric constant tensor:
#      x y z
#    x 1.948790 0.000000 -0.045430 
#    y 0.000000 1.921340 0.000000 
#    z -0.045430 0.000000 2.121130 
# 
# From -- ./inp_files/23113.got.cif
#   From: 2010.05.17/outbox.cif.g08.bks.cpg/sg15_12_cif.got.tgz:23113.got - 2010.06.03 18:47:42.
