data_PCOD9286677
_publ_section_title
;
Structure prediction by ZEFSAII (Michael W. Deem and Ramdas Pophale) SiO2 
 PCOD9286677
Probable space group: C 2/C
;
_chemical_formula_sum "Si O2"
_cell_formula_units_Z 56
_cell_length_a 25.790327
_cell_length_b 5.578276
_cell_length_c 15.134414
_cell_angle_alpha 90.000000
_cell_angle_beta 98.334621
_cell_angle_gamma 90.000000
_cell_volume 2154.324943
_symmetry_space_group_name_H-M "C 2/C"
_symmetry_group_IT_number 15
_symmetry_cell_setting 'monoclinic'
loop_
_space_group_symop_operation_xyz
x,y,z
-x,y,1/2-z
-x,-y,-z
x,-y,1/2+z
1/2+x,1/2+y,z
1/2-x,1/2+y,1/2-z
1/2-x,1/2-y,-z
1/2+x,1/2-y,1/2+z
loop_
_atom_site_type_symbol
_atom_site_label
_atom_site_fract_x
_atom_site_fract_y
_atom_site_fract_z
Si Si1 0.397414 0.835314 0.342734
Si Si2 0.897927 0.967962 0.683860
Si Si3 0.801785 0.316157 0.667899
Si Si4 0.546765 0.817235 0.987177
Si Si5 0.791413 0.512999 0.363836
Si Si6 0.353488 0.853548 0.039004
Si Si7 0.526612 0.756124 0.680188
O O1 0.390250 0.770261 0.240002
O O2 0.434261 0.686149 0.418979
O O3 0.339171 0.826369 0.365137
O O4 0.426109 0.093824 0.352049
O O5 0.884276 0.879343 0.582379
O O6 0.854907 0.167875 0.693105
O O7 0.948130 0.061763 0.749424
O O8 0.783502 0.386858 0.762609
O O9 0.814522 0.529989 0.602822
O O10 0.759632 0.128816 0.619151
O O11 0.518069 0.682383 0.900612
O O12 0.598602 0.957721 0.966505
O O13 0.500000 0.000000 0.000000
O O14 0.817334 0.686388 0.443604
O O15 0.500000 0.926717 0.750000
#
# Coordination Sequence:
#
# PCOD9286677 Si02
#       7
#     8   8   8   8   8   8   8
#     4  10  21  44  65  93 139 189 228 300 353 424
#     4  12  23  41  68  98 143 184 236 296 363 427
#     4  12  25  48  71 107 141 187 240 304 372 435
#     4   9  21  41  68  97 139 188 240 290 359 425
#     4  11  24  47  74 100 144 186 242 303 366 437
#     4  11  25  48  70 105 146 192 244 300 364 437
#     4  11  22  39  62  97 139 185 235 294 351 429
#
# _framework density 25.994222000000001
#
# number of rings (size 3 to 8) (size 9 to 14) (size 15 to 20)
#    0.000    1.143    2.857    3.000    0.000    4.000 
#   10.286    0.000    0.000    0.000    0.000    0.000 
#    0.000    0.000    0.000    0.000    0.000    0.000 
#
# Total GULP energy -156230.773571 kJ/mol
# GULP energy per Si atom -5579.670485 kJ/mol
# Density = 2.593506 g / cm^3
# Si number density = 25.994222 Si / 1000 Ang^3
#
#
#
# Elastic Constant Matrix: (Units=GPa)
#
#
# Indices 1 2 3 4 5 6 
#
# 1 77.1694 1.6248 22.5770 0.0000 17.5912 0.0000
# 2 1.6248 37.9545 11.0165 0.0000 -2.4634 0.0000
# 3 22.5770 11.0165 145.8318 0.0000 9.7370 0.0000
# 4 0.0000 0.0000 0.0000 25.6565 0.0000 16.6175
# 5 17.5912 -2.4634 9.7370 0.0000 36.3209 0.0000
# 6 0.0000 0.0000 0.0000 16.6175 0.0000 38.5580
#
#
#
# Elastic Compliance Matrix: (Units=1/GPa)
#
#
# Indices 1 2 3 4 5 6 
#
# 1 0.015067 -0.000557 -0.001834 0.000000 -0.006843 0.000000
# 2 -0.000557 0.027168 -0.002146 0.000000 0.002688 0.000000
# 3 -0.001834 -0.002146 0.007386 0.000000 -0.001237 0.000000
# 4 0.000000 0.000000 0.000000 0.054069 0.000000 -0.023302
# 5 -0.006843 0.002688 -0.001237 0.000000 0.031361 0.000000
# 6 0.000000 0.000000 0.000000 -0.023302 0.000000 0.035978
#
#
# Mechanical properties :
#
#
# Convention : Reuss Voigt Hill
#
# Bulk Modulus (GPa) = 24.66173 36.82136 30.74154
# Shear Modulus (GPa) = 25.82422 35.15626 30.49024
#
# Velocity S-wave (km/s) = 3.15534 3.68158 3.42857
# Velocity P-wave (km/s) = 4.77314 5.68049 5.24647
#
# Compressibility (1/GPa) = 0.04054866
#
# Stress axis : x y z
#
# Youngs Moduli (GPa) = 66.37172 36.80751 135.39529
#
# Poissons Ratio (x) = 0.02050 0.24825
# Poissons Ratio (y) = 0.03697 0.29050
# Poissons Ratio (z) = 0.12170 0.07897
#
# Static dielectric constant tensor:
#      x y z
#    x 2.251530 0.000000 -0.164090 
#    y 0.000000 2.089200 0.000000 
#    z -0.164090 0.000000 2.187630 
# 
# From -- ./inp_files/221276.got.cif
#   From: 2010.05.17/outbox.cif.g08.bks.cpg/sg15_111_cif.got.tgz:221276.got - 2010.06.03 18:47:42.
