data_PCOD9286056
_publ_section_title
;
Structure prediction by ZEFSAII (Michael W. Deem and Ramdas Pophale) SiO2 
 PCOD9286056
Probable space group: C 2/C
;
_chemical_formula_sum "Si O2"
_cell_formula_units_Z 48
_cell_length_a 16.668693
_cell_length_b 12.950832
_cell_length_c 32.950595
_cell_angle_alpha 90.000000
_cell_angle_beta 162.117832
_cell_angle_gamma 90.000000
_cell_volume 2184.169549
_symmetry_space_group_name_H-M "C 2/C"
_symmetry_group_IT_number 15
_symmetry_cell_setting 'monoclinic'
loop_
_space_group_symop_operation_xyz
x,y,z
-x,y,1/2-z
-x,-y,-z
x,-y,1/2+z
1/2+x,1/2+y,z
1/2-x,1/2+y,1/2-z
1/2-x,1/2-y,-z
1/2+x,1/2-y,1/2+z
loop_
_atom_site_type_symbol
_atom_site_label
_atom_site_fract_x
_atom_site_fract_y
_atom_site_fract_z
Si Si1 0.728410 0.127047 0.892940
Si Si2 0.297485 0.051477 0.052509
Si Si3 0.665534 0.511531 0.731587
Si Si4 0.348969 0.641012 0.135267
Si Si5 0.229882 0.398137 0.135835
Si Si6 0.258261 0.823669 0.607802
O O1 0.500000 0.116438 0.750000
O O2 0.718714 0.240796 0.909237
O O3 0.718353 0.040129 0.922058
O O4 0.994925 0.123664 0.995910
O O5 0.560357 0.029094 0.153968
O O6 0.306374 0.155172 0.083864
O O7 0.039305 0.048645 0.900683
O O8 0.526429 0.417124 0.688316
O O9 0.717123 0.599934 0.790215
O O10 0.500000 0.656617 0.250000
O O11 0.080681 0.577216 0.013512
O O12 0.500000 0.451133 0.250000
O O13 0.232286 0.294815 0.109554
O O14 0.500000 0.866244 0.750000
#
# Coordination Sequence:
#
# PCOD9286056 Si02
#       6
#     8   8   8   8   8   8
#     4  10  21  42  70  97 130 178 232 269 334 417
#     4  12  24  40  69 103 139 172 219 290 348 391
#     4  12  25  42  63 104 141 173 220 286 349 393
#     4  10  23  43  70  95 130 183 228 272 331 415
#     4  10  23  44  68  94 132 180 231 268 326 415
#     4  10  21  43  68  96 130 181 226 271 330 414
#
# _framework density 21.976315
#
# number of rings (size 3 to 8) (size 9 to 14) (size 15 to 20)
#    0.000    1.333    1.667    3.500    2.333    2.000 
#    6.000    3.333    0.000    0.000    0.000    0.000 
#    0.000    0.000    0.000    0.000    0.000    0.000 
#
# Total GULP energy -133963.981548 kJ/mol
# GULP energy per Si atom -5581.832565 kJ/mol
# Density = 2.192630 g / cm^3
# Si number density = 21.976315 Si / 1000 Ang^3
#
#
#
# Elastic Constant Matrix: (Units=GPa)
#
#
# Indices 1 2 3 4 5 6 
#
# 1 109.3196 19.3658 35.6867 0.0411 9.6848 0.0669
# 2 19.3658 67.1613 -19.5652 0.0101 5.5795 0.0153
# 3 35.6867 -19.5652 165.5346 0.0764 11.4022 0.0262
# 4 0.0411 0.0101 0.0764 62.8873 -0.0081 29.3183
# 5 9.6848 5.5795 11.4022 -0.0081 51.9851 0.0265
# 6 0.0669 0.0153 0.0262 29.3183 0.0265 78.4039
#
#
#
# Elastic Compliance Matrix: (Units=1/GPa)
#
#
# Indices 1 2 3 4 5 6 
#
# 1 0.010798 -0.003819 -0.002710 0.000000 -0.001007 -0.000007
# 2 -0.003819 0.016998 0.002954 -0.000005 -0.001761 0.000001
# 3 -0.002710 0.002954 0.007068 -0.000009 -0.001362 0.000003
# 4 0.000000 -0.000005 -0.000009 0.019259 0.000009 -0.007202
# 5 -0.001007 -0.001761 -0.001362 0.000009 0.019912 -0.000008
# 6 -0.000007 0.000001 0.000003 -0.007202 -0.000008 0.015447
#
#
# Mechanical properties :
#
#
# Convention : Reuss Voigt Hill
#
# Bulk Modulus (GPa) = 36.08467 45.88779 40.98623
# Shear Modulus (GPa) = 47.22752 59.09048 53.15900
#
# Velocity S-wave (km/s) = 4.64078 5.19101 4.92359
# Velocity P-wave (km/s) = 6.72095 7.54021 7.14234
#
# Compressibility (1/GPa) = 0.02771260
#
# Stress axis : x y z
#
# Youngs Moduli (GPa) = 92.61011 58.83201 141.47856
#
# Poissons Ratio (x) = 0.22470 0.38339
# Poissons Ratio (y) = 0.35371 -0.41788
# Poissons Ratio (z) = 0.25096 -0.17377
#
# Static dielectric constant tensor:
#      x y z
#    x 1.759080 0.000000 -0.013310 
#    y 0.000000 1.910880 -0.000010 
#    z -0.013310 -0.000010 1.802720 
# 
# From -- ./inp_files/314139.got.cif
#   From: 2010.05.17/outbox.cif.g08.bks.cpg/sg15_158_cif.got.tgz:314139.got - 2010.06.03 18:47:42.
