data_PCOD9286531
_publ_section_title
;
Structure prediction by ZEFSAII (Michael W. Deem and Ramdas Pophale) SiO2 
 PCOD9286531
Probable space group: C 2/C
;
_chemical_formula_sum "Si O2"
_cell_formula_units_Z 40
_cell_length_a 30.211897
_cell_length_b 6.977269
_cell_length_c 14.735988
_cell_angle_alpha 90.000000
_cell_angle_beta 28.860801
_cell_angle_gamma 90.000000
_cell_volume 1499.356865
_symmetry_space_group_name_H-M "C 2/C"
_symmetry_group_IT_number 15
_symmetry_cell_setting 'monoclinic'
loop_
_space_group_symop_operation_xyz
x,y,z
-x,y,1/2-z
-x,-y,-z
x,-y,1/2+z
1/2+x,1/2+y,z
1/2-x,1/2+y,1/2-z
1/2-x,1/2-y,-z
1/2+x,1/2-y,1/2+z
loop_
_atom_site_type_symbol
_atom_site_label
_atom_site_fract_x
_atom_site_fract_y
_atom_site_fract_z
Si Si1 0.289622 0.586309 0.252678
Si Si2 0.188741 0.360645 0.752929
Si Si3 0.983214 0.762601 0.387461
Si Si4 0.140029 0.466404 0.163841
Si Si5 0.503846 0.715209 0.133180
O O1 0.260379 0.575186 0.199937
O O2 0.310579 0.371661 0.249190
O O3 0.198916 0.617532 0.474529
O O4 0.372454 0.738370 0.107153
O O5 0.203371 0.461100 0.631042
O O6 0.083024 0.373065 0.971780
O O7 0.000000 0.731105 0.250000
O O8 0.068287 0.641356 0.275670
O O9 0.995378 0.989263 0.384548
O O10 0.073266 0.288574 0.297839
O O11 0.500000 0.729345 0.250000
#
# Coordination Sequence:
#
# PCOD9286531 Si02
#       5
#     8   8   8   8   8
#     4  11  25  46  74 108 149 190 252 314 375 455
#     4  11  25  45  70 107 146 190 249 307 379 453
#     4  10  24  45  74 108 148 196 248 308 380 447
#     4  12  24  47  77 104 146 201 247 308 381 449
#     4  10  21  43  71 103 145 190 246 304 370 453
#
# _framework density 26.678104000000001
#
# number of rings (size 3 to 8) (size 9 to 14) (size 15 to 20)
#    0.000    1.200    2.000    3.000    2.800    3.200 
#    3.600    5.000    0.000    0.000    0.000    0.000 
#    0.000    0.000    0.000    0.000    0.000    0.000 
#
# Total GULP energy -111668.444639 kJ/mol
# GULP energy per Si atom -5583.422232 kJ/mol
# Density = 2.661738 g / cm^3
# Si number density = 26.678104 Si / 1000 Ang^3
#
#
#
# Elastic Constant Matrix: (Units=GPa)
#
#
# Indices 1 2 3 4 5 6 
#
# 1 154.3876 33.9840 44.1136 -0.0005 -1.6742 0.0007
# 2 33.9840 101.2327 20.7708 -0.0011 -7.3352 0.0014
# 3 44.1136 20.7708 88.9268 -0.0008 -11.9135 0.0009
# 4 -0.0005 -0.0011 -0.0008 29.0496 -0.0002 -38.2862
# 5 -1.6742 -7.3352 -11.9135 -0.0002 22.2209 0.0002
# 6 0.0007 0.0014 0.0009 -38.2862 0.0002 100.9632
#
#
#
# Elastic Compliance Matrix: (Units=1/GPa)
#
#
# Indices 1 2 3 4 5 6 
#
# 1 0.007982 -0.002060 -0.003759 0.000000 -0.002094 0.000000
# 2 -0.002060 0.011016 -0.001169 0.000000 0.002855 0.000000
# 3 -0.003759 -0.001169 0.014322 0.000000 0.007010 0.000000
# 4 0.000000 0.000000 0.000000 0.068818 0.000001 0.026096
# 5 -0.002094 0.002855 0.007010 0.000001 0.049545 0.000000
# 6 0.000000 0.000000 0.000000 0.026096 0.000000 0.019801
#
#
# Mechanical properties :
#
#
# Convention : Reuss Voigt Hill
#
# Bulk Modulus (GPa) = 51.69331 60.25378 55.97354
# Shear Modulus (GPa) = 26.05416 46.82532 36.43974
#
# Velocity S-wave (km/s) = 3.12847 4.19405 3.69982
# Velocity P-wave (km/s) = 5.69811 6.78881 6.26723
#
# Compressibility (1/GPa) = 0.01934486
#
# Stress axis : x y z
#
# Youngs Moduli (GPa) = 125.28158 90.77337 69.82286
#
# Poissons Ratio (x) = 0.18700 0.26246
# Poissons Ratio (y) = 0.25809 0.08161
# Poissons Ratio (z) = 0.47093 0.10609
#
# Static dielectric constant tensor:
#      x y z
#    x 2.145920 0.000000 -0.194230 
#    y 0.000000 2.106940 0.000000 
#    z -0.194230 0.000000 2.781950 
# 
# From -- ./inp_files/180997.got.cif
#   From: 2010.05.17/outbox.cif.g08.bks.cpg/sg15_91_cif.got.tgz:180997.got - 2010.06.03 18:47:42.
