data_PCOD9286174
_publ_section_title
;
Structure prediction by ZEFSAII (Michael W. Deem and Ramdas Pophale) SiO2 
 PCOD9286174
Probable space group: C 2/C
;
_chemical_formula_sum "Si O2"
_cell_formula_units_Z 56
_cell_length_a 16.203870
_cell_length_b 9.332458
_cell_length_c 23.362343
_cell_angle_alpha 90.000000
_cell_angle_beta 53.550956
_cell_angle_gamma 90.000000
_cell_volume 2841.812692
_symmetry_space_group_name_H-M "C 2/C"
_symmetry_group_IT_number 15
_symmetry_cell_setting 'monoclinic'
loop_
_space_group_symop_operation_xyz
x,y,z
-x,y,1/2-z
-x,-y,-z
x,-y,1/2+z
1/2+x,1/2+y,z
1/2-x,1/2+y,1/2-z
1/2-x,1/2-y,-z
1/2+x,1/2-y,1/2+z
loop_
_atom_site_type_symbol
_atom_site_label
_atom_site_fract_x
_atom_site_fract_y
_atom_site_fract_z
Si Si1 0.141315 0.836290 0.246608
Si Si2 0.743706 0.139374 0.290401
Si Si3 0.580390 0.269610 0.140292
Si Si4 0.609756 0.297950 0.680074
Si Si5 0.751281 0.964196 0.440806
Si Si6 0.921822 0.444670 0.399590
Si Si7 0.912247 0.466170 0.081269
O O1 0.209537 0.711064 0.246102
O O2 0.115016 0.796881 0.191833
O O3 0.030058 0.841657 0.322344
O O4 0.198728 0.986075 0.234611
O O5 0.819429 0.240639 0.294941
O O6 0.642189 0.105679 0.369469
O O7 0.671070 0.345175 0.067345
O O8 0.566526 0.103761 0.131005
O O9 0.500000 0.348777 0.750000
O O10 0.673444 0.419213 0.619758
O O11 0.594850 0.166572 0.643958
O O12 0.675533 0.039704 0.517262
O O13 0.677475 0.899049 0.421059
O O14 0.024112 0.398366 0.392723
O O15 0.000000 0.500000 0.000000
#
# Coordination Sequence:
#
# PCOD9286174 Si02
#       7
#     8   8   8   8   8   8   8
#     4  11  24  39  63  88 124 157 203 258 311 365
#     4  11  23  41  60  87 123 160 195 258 312 360
#     4  11  22  39  61  91 123 156 202 254 311 362
#     4  11  24  38  63  90 124 157 207 252 301 357
#     4  10  21  43  62  85 126 167 199 253 313 358
#     4  11  23  37  65  92 119 162 214 248 298 372
#     4   9  19  38  59  83 114 159 202 240 297 361
#
# _framework density 19.705732000000001
#
# number of rings (size 3 to 8) (size 9 to 14) (size 15 to 20)
#    0.000    1.429    4.286    1.714    6.000    0.000 
#    0.000    0.000    0.000    0.857    0.000    0.000 
#    0.000    0.000    0.000    0.000    0.000    0.000 
#
# Total GULP energy -156092.057427 kJ/mol
# GULP energy per Si atom -5574.716337 kJ/mol
# Density = 1.966088 g / cm^3
# Si number density = 19.705732 Si / 1000 Ang^3
#
#
#
# Elastic Constant Matrix: (Units=GPa)
#
#
# Indices 1 2 3 4 5 6 
#
# 1 113.6621 42.2791 50.9690 0.0000 -18.4716 0.0000
# 2 42.2791 77.1898 32.8956 0.0000 -4.2072 0.0000
# 3 50.9690 32.8956 81.9289 0.0000 -18.7320 0.0000
# 4 0.0000 0.0000 0.0000 25.1877 0.0000 2.6391
# 5 -18.4716 -4.2072 -18.7320 0.0000 31.8191 0.0000
# 6 0.0000 0.0000 0.0000 2.6391 0.0000 26.7086
#
#
#
# Elastic Compliance Matrix: (Units=1/GPa)
#
#
# Indices 1 2 3 4 5 6 
#
# 1 0.013849 -0.004930 -0.005716 0.000000 0.004022 0.000000
# 2 -0.004930 0.017483 -0.004713 0.000000 -0.003325 0.000000
# 3 -0.005716 -0.004713 0.019359 0.000000 0.007455 0.000000
# 4 0.000000 0.000000 0.000000 0.040117 0.000000 -0.003964
# 5 0.004022 -0.003325 0.007455 0.000000 0.037712 0.000000
# 6 0.000000 0.000000 0.000000 -0.003964 0.000000 0.037833
#
#
# Mechanical properties :
#
#
# Convention : Reuss Voigt Hill
#
# Bulk Modulus (GPa) = 50.07033 58.34092 54.20562
# Shear Modulus (GPa) = 24.54258 26.51889 25.53074
#
# Velocity S-wave (km/s) = 3.53293 3.67242 3.60335
# Velocity P-wave (km/s) = 6.48894 6.90308 6.69921
#
# Compressibility (1/GPa) = 0.01997191
#
# Stress axis : x y z
#
# Youngs Moduli (GPa) = 72.20764 57.19984 51.65662
#
# Poissons Ratio (x) = 0.28200 0.29529
# Poissons Ratio (y) = 0.35599 0.24344
# Poissons Ratio (z) = 0.41277 0.26956
#
# Static dielectric constant tensor:
#      x y z
#    x 1.739270 0.000000 -0.010800 
#    y 0.000000 1.680450 0.000000 
#    z -0.010800 0.000000 1.743940 
# 
# From -- ./inp_files/273075.got.cif
#   From: 2010.05.17/outbox.cif.g08.bks.cpg/sg15_137_cif.got.tgz:273075.got - 2010.06.03 18:47:42.
