data_PCOD9286992
_publ_section_title
;
Structure prediction by ZEFSAII (Michael W. Deem and Ramdas Pophale) SiO2 
 PCOD9286992
Probable space group: C 2/C
;
_chemical_formula_sum "Si O2"
_cell_formula_units_Z 48
_cell_length_a 10.340552
_cell_length_b 9.156904
_cell_length_c 22.239670
_cell_angle_alpha 90.000000
_cell_angle_beta 92.074183
_cell_angle_gamma 90.000000
_cell_volume 2104.437739
_symmetry_space_group_name_H-M "C 2/C"
_symmetry_group_IT_number 15
_symmetry_cell_setting 'monoclinic'
loop_
_space_group_symop_operation_xyz
x,y,z
-x,y,1/2-z
-x,-y,-z
x,-y,1/2+z
1/2+x,1/2+y,z
1/2-x,1/2+y,1/2-z
1/2-x,1/2-y,-z
1/2+x,1/2-y,1/2+z
loop_
_atom_site_type_symbol
_atom_site_label
_atom_site_fract_x
_atom_site_fract_y
_atom_site_fract_z
Si Si1 0.047247 0.202001 0.370977
Si Si2 0.293190 0.143741 0.052398
Si Si3 0.201612 0.092339 0.478575
Si Si4 0.724762 0.736329 0.183125
Si Si5 0.291709 0.085552 0.302147
Si Si6 0.046982 0.477513 0.591609
O O1 0.079158 0.111210 0.432573
O O2 0.922014 0.174678 0.327354
O O3 0.017324 0.367180 0.393016
O O4 0.173657 0.171822 0.332646
O O5 0.278821 0.209762 0.117750
O O6 0.443653 0.105469 0.049766
O O7 0.250000 0.250000 0.000000
O O8 0.202669 0.003425 0.038832
O O9 0.250000 0.250000 0.500000
O O10 0.315989 0.020210 0.440046
O O11 0.727665 0.909394 0.197592
O O12 0.797692 0.647196 0.235551
O O13 0.418191 0.104248 0.345701
#
# Coordination Sequence:
#
# PCOD9286992 Si02
#       6
#     8   8   8   8   8   8
#     4  10  21  45  70  97 132 181 227 287 345 412
#     4  12  25  43  65 104 145 175 229 289 354 420
#     4  11  23  41  70  99 133 184 234 273 343 426
#     4  11  26  45  70 102 140 181 228 298 356 421
#     4  10  24  48  71  98 134 178 243 286 354 416
#     4  10  23  43  72  95 136 187 229 283 350 420
#
# _framework density 22.808944
#
# number of rings (size 3 to 8) (size 9 to 14) (size 15 to 20)
#    0.000    1.333    1.667    4.000    4.667    1.333 
#   12.000    0.000    0.000    0.000    0.000    0.000 
#    0.000    0.000    0.000    0.000    0.000    0.000 
#
# Total GULP energy -134059.915804 kJ/mol
# GULP energy per Si atom -5585.829825 kJ/mol
# Density = 2.275703 g / cm^3
# Si number density = 22.808944 Si / 1000 Ang^3
#
#
#
# Elastic Constant Matrix: (Units=GPa)
#
#
# Indices 1 2 3 4 5 6 
#
# 1 114.3684 37.0881 40.0420 0.0000 20.9454 0.0000
# 2 37.0881 110.4792 56.3348 0.0000 9.5899 0.0000
# 3 40.0420 56.3348 152.8798 0.0000 27.0007 0.0000
# 4 0.0000 0.0000 0.0000 55.6070 0.0000 7.1950
# 5 20.9454 9.5899 27.0007 0.0000 43.6773 0.0000
# 6 0.0000 0.0000 0.0000 7.1950 0.0000 31.1650
#
#
#
# Elastic Compliance Matrix: (Units=1/GPa)
#
#
# Indices 1 2 3 4 5 6 
#
# 1 0.010717 -0.002683 -0.001139 0.000000 -0.003846 0.000000
# 2 -0.002683 0.011818 -0.003840 0.000000 0.001066 0.000000
# 3 -0.001139 -0.003840 0.008991 0.000000 -0.004169 0.000000
# 4 0.000000 0.000000 0.000000 0.018537 0.000000 -0.004280
# 5 -0.003846 0.001066 -0.004169 0.000000 0.027082 0.000000
# 6 0.000000 0.000000 0.000000 -0.004280 0.000000 0.033075
#
#
# Mechanical properties :
#
#
# Convention : Reuss Voigt Hill
#
# Bulk Modulus (GPa) = 61.72518 71.62857 66.67688
# Shear Modulus (GPa) = 38.18387 42.37403 40.27895
#
# Velocity S-wave (km/s) = 4.09598 4.31487 4.20685
# Velocity P-wave (km/s) = 7.03492 7.50307 7.27276
#
# Compressibility (1/GPa) = 0.01620084
#
# Stress axis : x y z
#
# Youngs Moduli (GPa) = 93.31058 84.61761 111.22542
#
# Poissons Ratio (x) = 0.22703 0.12669
# Poissons Ratio (y) = 0.25036 0.42714
# Poissons Ratio (z) = 0.10628 0.32496
#
# Static dielectric constant tensor:
#      x y z
#    x 1.850820 0.000000 -0.035150 
#    y 0.000000 1.867440 0.000000 
#    z -0.035150 0.000000 1.892130 
# 
# From -- ./inp_files/267818.got.cif
#   From: 2010.05.17/outbox.cif.g08.bks.cpg/sg15_134_cif.got.tgz:267818.got - 2010.06.03 18:47:42.
