data_PCOD9286605
_publ_section_title
;
Structure prediction by ZEFSAII (Michael W. Deem and Ramdas Pophale) SiO2 
 PCOD9286605
Probable space group: C 2/C
;
_chemical_formula_sum "Si O2"
_cell_formula_units_Z 56
_cell_length_a 16.000005
_cell_length_b 16.517901
_cell_length_c 10.417186
_cell_angle_alpha 90.000000
_cell_angle_beta 79.245952
_cell_angle_gamma 90.000000
_cell_volume 2704.769136
_symmetry_space_group_name_H-M "C 2/C"
_symmetry_group_IT_number 15
_symmetry_cell_setting 'monoclinic'
loop_
_space_group_symop_operation_xyz
x,y,z
-x,y,1/2-z
-x,-y,-z
x,-y,1/2+z
1/2+x,1/2+y,z
1/2-x,1/2+y,1/2-z
1/2-x,1/2-y,-z
1/2+x,1/2-y,1/2+z
loop_
_atom_site_type_symbol
_atom_site_label
_atom_site_fract_x
_atom_site_fract_y
_atom_site_fract_z
Si Si1 0.900744 0.848707 0.313953
Si Si2 0.805540 0.143839 0.585681
Si Si3 0.149703 0.695782 0.004884
Si Si4 0.001488 0.423332 0.905311
Si Si5 0.167924 0.325422 0.942607
Si Si6 0.295355 0.334528 0.664840
Si Si7 0.599468 0.477191 0.978176
O O1 0.829052 0.847771 0.226921
O O2 0.888017 0.767877 0.397700
O O3 0.887625 0.930682 0.393703
O O4 0.000000 0.848487 0.250000
O O5 0.843477 0.229726 0.525244
O O6 0.710458 0.138860 0.558826
O O7 0.851568 0.061288 0.535678
O O8 0.232495 0.663165 0.057668
O O9 0.081359 0.626165 0.028034
O O10 0.164635 0.744814 0.868162
O O11 0.084010 0.368859 0.915932
O O12 0.000000 0.438313 0.750000
O O13 0.000000 0.500000 0.000000
O O14 0.239049 0.335921 0.809365
O O15 0.361543 0.409842 0.633114
O O16 0.500000 0.500000 0.000000
#
# Coordination Sequence:
#
# PCOD9286605 Si02
#       7
#     8   8   8   8   8   8   8
#     4  11  20  40  71  94 131 181 225 277 342 423
#     4  11  24  42  66  99 133 178 228 274 354 399
#     4  10  21  43  75 100 126 185 240 275 346 425
#     4  12  26  49  75 104 144 189 241 293 351 423
#     4  11  25  46  71  97 142 183 226 294 349 408
#     4  10  22  42  69 104 130 177 231 285 338 414
#     4  11  25  39  66 103 135 171 226 281 341 411
#
# _framework density 20.704170000000001
#
# number of rings (size 3 to 8) (size 9 to 14) (size 15 to 20)
#    0.000    1.143    4.286    1.286    6.000    0.000 
#    7.714    0.000    0.000    0.000    0.000    0.000 
#    0.000    0.000    0.000    0.000    0.000    0.000 
#
# Total GULP energy -156141.315201 kJ/mol
# GULP energy per Si atom -5576.475543 kJ/mol
# Density = 2.065705 g / cm^3
# Si number density = 20.704170 Si / 1000 Ang^3
#
#
#
# Elastic Constant Matrix: (Units=GPa)
#
#
# Indices 1 2 3 4 5 6 
#
# 1 57.5291 53.9168 28.8158 0.0000 -5.3650 0.0000
# 2 53.9168 145.0857 18.6946 0.0000 -3.4215 0.0000
# 3 28.8158 18.6946 38.6334 0.0000 6.1629 0.0000
# 4 0.0000 0.0000 0.0000 3.6644 0.0000 -15.2415
# 5 -5.3650 -3.4215 6.1629 0.0000 38.6970 0.0000
# 6 0.0000 0.0000 0.0000 -15.2415 0.0000 4.9699
#
#
#
# Elastic Compliance Matrix: (Units=1/GPa)
#
#
# Indices 1 2 3 4 5 6 
#
# 1 0.044355 -0.012582 -0.028523 0.000000 0.009580 0.000000
# 2 -0.012582 0.010979 0.004305 0.000000 -0.001459 0.000000
# 3 -0.028523 0.004305 0.046836 0.000000 -0.011033 0.000000
# 4 0.000000 0.000000 0.000000 -0.023214 0.000000 -0.071192
# 5 0.009580 -0.001459 -0.011033 0.000000 0.028798 0.000000
# 6 0.000000 0.000000 0.000000 -0.071192 0.000000 -0.017116
#
#
# Mechanical properties :
#
#
# Convention : Reuss Voigt Hill
#
# Bulk Modulus (GPa) = 35.00274 49.34476 42.17375
# Shear Modulus (GPa) = 28.77503 18.78765 23.78134
#
# Velocity S-wave (km/s) = 3.73207 3.01563 3.39281
# Velocity P-wave (km/s) = 5.95936 6.00086 5.98015
#
# Compressibility (1/GPa) = 0.02856919
#
# Stress axis : x y z
#
# Youngs Moduli (GPa) = 22.54553 91.08203 21.35108
#
# Poissons Ratio (x) = 1.14599 0.60900
# Poissons Ratio (y) = 0.28367 -0.09191
# Poissons Ratio (z) = 0.64307 -0.39207
#
# Static dielectric constant tensor:
#      x y z
#    x 1.846430 0.000000 -0.011520 
#    y 0.000000 1.723970 0.000000 
#    z -0.011520 0.000000 1.747520 
# 
# From -- ./inp_files/97028.got.cif
#   From: 2010.05.17/outbox.cif.g08.bks.cpg/sg15_49_cif.got.tgz:97028.got - 2010.06.03 18:47:42.
