data_PCOD9286825
_publ_section_title
;
Structure prediction by ZEFSAII (Michael W. Deem and Ramdas Pophale) SiO2 
 PCOD9286825
Probable space group: C 2/C
;
_chemical_formula_sum "Si O2"
_cell_formula_units_Z 40
_cell_length_a 11.715980
_cell_length_b 12.030256
_cell_length_c 26.335694
_cell_angle_alpha 90.000000
_cell_angle_beta 29.493696
_cell_angle_gamma 90.000000
_cell_volume 1827.479921
_symmetry_space_group_name_H-M "C 2/C"
_symmetry_group_IT_number 15
_symmetry_cell_setting 'monoclinic'
loop_
_space_group_symop_operation_xyz
x,y,z
-x,y,1/2-z
-x,-y,-z
x,-y,1/2+z
1/2+x,1/2+y,z
1/2-x,1/2+y,1/2-z
1/2-x,1/2-y,-z
1/2+x,1/2-y,1/2+z
loop_
_atom_site_type_symbol
_atom_site_label
_atom_site_fract_x
_atom_site_fract_y
_atom_site_fract_z
Si Si1 0.731643 0.686138 0.928782
Si Si2 0.488312 0.989851 0.564734
Si Si3 0.801565 0.577346 0.730869
Si Si4 0.022382 0.243399 0.904298
Si Si5 0.954968 0.894961 0.897431
O O1 0.598476 0.686059 0.927498
O O2 0.862051 0.802411 0.893296
O O3 0.940733 0.597346 0.847199
O O4 0.557070 0.662582 0.042920
O O5 0.402789 0.870046 0.615252
O O6 0.500000 0.000000 0.500000
O O7 0.333953 0.074797 0.657311
O O8 0.752294 0.012619 0.478552
O O9 0.648121 0.678970 0.810379
O O10 0.683080 0.463092 0.795096
O O11 0.750000 0.250000 0.000000
#
# Coordination Sequence:
#
# PCOD9286825 Si02
#       5
#     8   8   8   8   8
#     4  10  23  43  72 100 142 191 237 297 360 437
#     4  11  23  45  72  98 138 191 243 295 352 432
#     4  11  24  41  70 104 139 184 238 293 371 426
#     4  12  24  45  69 104 145 187 241 299 356 435
#     4  10  21  44  70 101 139 184 241 296 364 429
#
# _framework density 21.888065000000001
#
# number of rings (size 3 to 8) (size 9 to 14) (size 15 to 20)
#    0.000    1.200    4.000    1.800    0.000    1.600 
#    3.600    0.000    0.000    0.000    0.000    0.000 
#    0.000    0.000    0.000    0.000    0.000    0.000 
#
# Total GULP energy -111681.928432 kJ/mol
# GULP energy per Si atom -5584.096422 kJ/mol
# Density = 2.183825 g / cm^3
# Si number density = 21.888065 Si / 1000 Ang^3
#
#
#
# Elastic Constant Matrix: (Units=GPa)
#
#
# Indices 1 2 3 4 5 6 
#
# 1 125.5768 50.0788 84.9274 0.0002 19.1677 -0.0007
# 2 50.0788 96.1362 58.2187 0.0000 20.5809 0.0006
# 3 84.9274 58.2187 148.4351 -0.0005 20.4935 -0.0034
# 4 0.0002 0.0000 -0.0005 57.8791 -0.0017 1.6322
# 5 19.1677 20.5809 20.4935 -0.0017 30.8163 0.0009
# 6 -0.0007 0.0006 -0.0034 1.6322 0.0009 25.1899
#
#
#
# Elastic Compliance Matrix: (Units=1/GPa)
#
#
# Indices 1 2 3 4 5 6 
#
# 1 0.013824 -0.002744 -0.006495 0.000000 -0.002446 0.000000
# 2 -0.002744 0.015320 -0.003592 0.000000 -0.006136 -0.000001
# 3 -0.006495 -0.003592 0.012082 0.000000 -0.001596 0.000002
# 4 0.000000 0.000000 0.000000 0.017309 0.000001 -0.001122
# 5 -0.002446 -0.006136 -0.001596 0.000001 0.039132 -0.000002
# 6 0.000000 -0.000001 0.000002 -0.001122 -0.000002 0.039771
#
#
# Mechanical properties :
#
#
# Convention : Reuss Voigt Hill
#
# Bulk Modulus (GPa) = 64.24921 84.06645 74.15783
# Shear Modulus (GPa) = 29.71109 34.57194 32.14151
#
# Velocity S-wave (km/s) = 3.68830 3.97859 3.83619
# Velocity P-wave (km/s) = 6.89604 7.71987 7.31955
#
# Compressibility (1/GPa) = 0.01556439
#
# Stress axis : x y z
#
# Youngs Moduli (GPa) = 72.34003 65.27448 82.76538
#
# Poissons Ratio (x) = 0.17910 0.53759
# Poissons Ratio (y) = 0.19848 0.29727
# Poissons Ratio (z) = 0.46987 0.23444
#
# Static dielectric constant tensor:
#      x y z
#    x 1.785410 0.000000 0.023190 
#    y 0.000000 1.883970 0.000000 
#    z 0.023190 0.000000 1.815720 
# 
# From -- ./inp_files/292360.got.cif
#   From: 2010.05.17/outbox.cif.g08.bks.cpg/sg15_147_cif.got.tgz:292360.got - 2010.06.03 18:47:42.
