data_PCOD9286135
_publ_section_title
;
Structure prediction by ZEFSAII (Michael W. Deem and Ramdas Pophale) SiO2 
 PCOD9286135
Probable space group: C 2/C
;
_chemical_formula_sum "Si O2"
_cell_formula_units_Z 44
_cell_length_a 16.925030
_cell_length_b 9.436049
_cell_length_c 14.270664
_cell_angle_alpha 90.000000
_cell_angle_beta 51.890851
_cell_angle_gamma 90.000000
_cell_volume 1793.280823
_symmetry_space_group_name_H-M "C 2/C"
_symmetry_group_IT_number 15
_symmetry_cell_setting 'monoclinic'
loop_
_space_group_symop_operation_xyz
x,y,z
-x,y,1/2-z
-x,-y,-z
x,-y,1/2+z
1/2+x,1/2+y,z
1/2-x,1/2+y,1/2-z
1/2-x,1/2-y,-z
1/2+x,1/2-y,1/2+z
loop_
_atom_site_type_symbol
_atom_site_label
_atom_site_fract_x
_atom_site_fract_y
_atom_site_fract_z
Si Si1 0.327383 0.245275 0.854852
Si Si2 0.500000 0.011769 0.750000
Si Si3 0.105403 0.919234 0.945067
Si Si4 0.115829 0.939127 0.154780
Si Si5 0.494819 0.857629 0.945056
Si Si6 0.305877 0.330991 0.220960
O O1 0.405487 0.116357 0.805364
O O2 0.382056 0.396608 0.816892
O O3 0.271972 0.228558 0.796780
O O4 0.250000 0.250000 0.000000
O O5 0.474284 0.912040 0.856107
O O6 0.138641 0.936539 0.028363
O O7 0.084026 0.752768 0.953556
O O8 0.180229 0.007943 0.826843
O O9 0.000000 0.000000 0.000000
O O10 0.189982 0.852140 0.169255
O O11 0.000000 0.890047 0.250000
O O12 0.597559 0.768970 0.868142
O O13 0.500000 0.000000 0.000000
#
# Coordination Sequence:
#
# PCOD9286135 Si02
#       6
#     8   4   8   8   8   8
#     4  12  27  47  73 111 149 193 255 314 371 450
#     4  12  28  46  70 106 152 194 234 316 388 416
#     4  10  21  42  73 104 140 193 244 296 362 449
#     4  12  22  43  77 103 142 201 249 296 370 455
#     4  11  24  42  72 108 149 186 244 312 373 441
#     4  11  25  45  72 105 147 194 251 301 371 454
#
# _framework density 24.536034999999998
#
# number of rings (size 3 to 8) (size 9 to 14) (size 15 to 20)
#    0.000    0.727    6.364    2.182    7.636    0.000 
#    0.000    0.909    0.000    0.000    0.000    0.000 
#    0.000    0.000    0.000    0.000    0.000    0.000 
#
# Total GULP energy -123090.544982 kJ/mol
# GULP energy per Si atom -5595.024772 kJ/mol
# Density = 2.448019 g / cm^3
# Si number density = 24.536035 Si / 1000 Ang^3
#
#
#
# Elastic Constant Matrix: (Units=GPa)
#
#
# Indices 1 2 3 4 5 6 
#
# 1 157.6650 45.7992 42.7700 0.0000 35.4313 0.0000
# 2 45.7992 180.6693 17.4048 0.0000 21.8094 0.0000
# 3 42.7700 17.4048 83.1873 0.0000 41.6396 0.0000
# 4 0.0000 0.0000 0.0000 38.9481 0.0000 13.9455
# 5 35.4313 21.8094 41.6396 0.0000 41.6271 0.0000
# 6 0.0000 0.0000 0.0000 13.9455 0.0000 50.5640
#
#
#
# Elastic Compliance Matrix: (Units=1/GPa)
#
#
# Indices 1 2 3 4 5 6 
#
# 1 0.008226 -0.001365 -0.001596 0.000000 -0.004690 0.000000
# 2 -0.001365 0.006152 0.000894 0.000000 -0.002955 0.000000
# 3 -0.001596 0.000894 0.024453 0.000000 -0.023570 0.000000
# 4 0.000000 0.000000 0.000000 0.028488 0.000000 -0.007857
# 5 -0.004690 -0.002955 -0.023570 0.000000 0.053139 0.000000
# 6 0.000000 0.000000 0.000000 -0.007857 0.000000 0.021944
#
#
# Mechanical properties :
#
#
# Convention : Reuss Voigt Hill
#
# Bulk Modulus (GPa) = 28.82239 70.38552 49.60395
# Shear Modulus (GPa) = 31.62513 47.26435 39.44474
#
# Velocity S-wave (km/s) = 3.59406 4.39375 4.01387
# Velocity P-wave (km/s) = 5.38474 7.38166 6.46082
#
# Compressibility (1/GPa) = 0.03469525
#
# Stress axis : x y z
#
# Youngs Moduli (GPa) = 121.56444 162.55647 40.89556
#
# Poissons Ratio (x) = 0.22196 0.06528
# Poissons Ratio (y) = 0.16599 -0.03657
# Poissons Ratio (z) = 0.19406 -0.14536
#
# Static dielectric constant tensor:
#      x y z
#    x 1.918210 0.000000 -0.025190 
#    y 0.000000 2.019340 0.000000 
#    z -0.025190 0.000000 2.101330 
# 
# From -- ./inp_files/159651.got.cif
#   From: 2010.05.17/outbox.cif.g08.bks.cpg/sg15_80_cif.got.tgz:159651.got - 2010.06.03 18:47:42.
