data_PCOD9286696
_publ_section_title
;
Structure prediction by ZEFSAII (Michael W. Deem and Ramdas Pophale) SiO2 
 PCOD9286696
Probable space group: C 2/C
;
_chemical_formula_sum "Si O2"
_cell_formula_units_Z 48
_cell_length_a 24.363589
_cell_length_b 17.821608
_cell_length_c 5.676355
_cell_angle_alpha 90.000000
_cell_angle_beta 54.231863
_cell_angle_gamma 90.000000
_cell_volume 1999.801150
_symmetry_space_group_name_H-M "C 2/C"
_symmetry_group_IT_number 15
_symmetry_cell_setting 'monoclinic'
loop_
_space_group_symop_operation_xyz
x,y,z
-x,y,1/2-z
-x,-y,-z
x,-y,1/2+z
1/2+x,1/2+y,z
1/2-x,1/2+y,1/2-z
1/2-x,1/2-y,-z
1/2+x,1/2-y,1/2+z
loop_
_atom_site_type_symbol
_atom_site_label
_atom_site_fract_x
_atom_site_fract_y
_atom_site_fract_z
Si Si1 0.500000 0.453121 0.250000
Si Si2 0.090546 0.817969 0.157296
Si Si3 0.500000 0.230880 0.750000
Si Si4 0.742706 0.344468 0.905585
Si Si5 0.572809 0.835182 0.449014
Si Si6 0.212221 0.354693 0.204835
Si Si7 0.190538 0.995586 0.534281
O O1 0.500000 0.500000 0.500000
O O2 0.561566 0.392354 0.110812
O O3 0.035625 0.785185 0.475624
O O4 0.162062 0.832469 0.099192
O O5 0.097257 0.748498 0.962928
O O6 0.443749 0.175913 0.781938
O O7 0.775402 0.315516 0.580218
O O8 0.744931 0.436208 0.893430
O O9 0.777289 0.318997 0.062079
O O10 0.635424 0.884561 0.374145
O O11 0.500000 0.851585 0.750000
O O12 0.269777 0.417887 0.056753
O O13 0.153321 0.006320 0.876522
#
# Coordination Sequence:
#
# PCOD9286696 Si02
#       7
#     4   8   4   8   8   8   8
#     4  12  27  42  66  96 128 173 226 270 302 374
#     4  11  24  43  63  93 130 171 216 263 320 374
#     4  10  21  44  66  86 128 173 216 268 310 380
#     4  10  23  37  65  92 131 167 207 265 328 381
#     4  10  23  41  68  88 127 172 213 266 317 380
#     4  10  22  39  62  98 123 166 215 260 321 388
#     4   8  16  35  56  83 122 159 194 250 308 369
#
# _framework density 24.002386999999999
#
# number of rings (size 3 to 8) (size 9 to 14) (size 15 to 20)
#    0.000    2.000    2.500    0.500    7.000    5.333 
#    0.000    0.000    0.000    9.000    0.000    0.000 
#    0.000    0.000    0.000    0.000    0.000    0.000 
#
# Total GULP energy -133880.031578 kJ/mol
# GULP energy per Si atom -5578.334649 kJ/mol
# Density = 2.394776 g / cm^3
# Si number density = 24.002387 Si / 1000 Ang^3
#
#
#
# Elastic Constant Matrix: (Units=GPa)
#
#
# Indices 1 2 3 4 5 6 
#
# 1 153.8416 -14.3532 53.5648 0.0000 20.2147 0.0000
# 2 -14.3532 23.9041 3.9026 0.0000 7.5722 0.0000
# 3 53.5648 3.9026 97.4054 0.0000 35.2692 0.0000
# 4 0.0000 0.0000 0.0000 26.6378 0.0000 1.4745
# 5 20.2147 7.5722 35.2692 0.0000 59.4358 0.0000
# 6 0.0000 0.0000 0.0000 1.4745 0.0000 37.6097
#
#
#
# Elastic Compliance Matrix: (Units=1/GPa)
#
#
# Indices 1 2 3 4 5 6 
#
# 1 0.008901 0.006445 -0.004788 0.000000 -0.001007 0.000000
# 2 0.006445 0.048269 -0.003131 0.000000 -0.006484 0.000000
# 3 -0.004788 -0.003131 0.015655 0.000000 -0.007262 0.000000
# 4 0.000000 0.000000 0.000000 0.037622 0.000000 -0.001475
# 5 -0.001007 -0.006484 -0.007262 0.000000 0.022303 0.000000
# 6 0.000000 0.000000 0.000000 -0.001475 0.000000 0.026647
#
#
# Mechanical properties :
#
#
# Convention : Reuss Voigt Hill
#
# Bulk Modulus (GPa) = 14.31077 40.15326 27.23201
# Shear Modulus (GPa) = 26.93441 40.20580 33.57010
#
# Velocity S-wave (km/s) = 3.35349 4.09721 3.74386
# Velocity P-wave (km/s) = 4.57927 6.25684 5.48260
#
# Compressibility (1/GPa) = 0.06987746
#
# Stress axis : x y z
#
# Youngs Moduli (GPa) = 112.34524 20.71719 63.87928
#
# Poissons Ratio (x) = -0.13353 0.30588
# Poissons Ratio (y) = -0.72412 0.19998
# Poissons Ratio (z) = 0.53796 0.06486
#
# Static dielectric constant tensor:
#      x y z
#    x 1.989800 0.000000 0.061040 
#    y 0.000000 1.942930 0.000000 
#    z 0.061040 0.000000 1.980390 
# 
# From -- ./inp_files/13261.got.cif
#   From: 2010.05.17/outbox.cif.g08.bks.cpg/sg15_7_cif.got.tgz:13261.got - 2010.06.03 18:47:42.
