data_PCOD9286558
_publ_section_title
;
Structure prediction by ZEFSAII (Michael W. Deem and Ramdas Pophale) SiO2 
 PCOD9286558
Probable space group: C 2/C
;
_chemical_formula_sum "Si O2"
_cell_formula_units_Z 36
_cell_length_a 7.018670
_cell_length_b 19.056375
_cell_length_c 12.845162
_cell_angle_alpha 90.000000
_cell_angle_beta 116.575568
_cell_angle_gamma 90.000000
_cell_volume 1536.525691
_symmetry_space_group_name_H-M "C 2/C"
_symmetry_group_IT_number 15
_symmetry_cell_setting 'monoclinic'
loop_
_space_group_symop_operation_xyz
x,y,z
-x,y,1/2-z
-x,-y,-z
x,-y,1/2+z
1/2+x,1/2+y,z
1/2-x,1/2+y,1/2-z
1/2-x,1/2-y,-z
1/2+x,1/2-y,1/2+z
loop_
_atom_site_type_symbol
_atom_site_label
_atom_site_fract_x
_atom_site_fract_y
_atom_site_fract_z
Si Si1 0.125380 0.573767 0.027673
Si Si2 0.000000 0.961978 0.750000
Si Si3 0.741969 0.937027 0.327543
Si Si4 0.049271 0.275872 0.017777
Si Si5 0.207386 0.221260 0.728533
O O1 0.294376 0.579575 0.161660
O O2 0.259109 0.574563 0.954040
O O3 0.000000 0.500000 0.000000
O O4 0.968827 0.639786 0.988599
O O5 0.084501 0.011914 0.678427
O O6 0.500000 0.964030 0.250000
O O7 0.759908 0.861792 0.277578
O O8 0.099367 0.253477 0.149468
O O9 0.250000 0.250000 0.000000
O O10 0.849566 0.249110 0.900681
O O11 0.000000 0.233771 0.750000
#
# Coordination Sequence:
#
# PCOD9286558 Si02
#       5
#     8   4   8   8   8
#     4  12  26  47  74 112 151 199 255 310 390 460
#     4  12  26  48  74 110 150 198 258 324 372 456
#     4  12  23  46  76 100 148 201 245 307 385 455
#     4  10  23  44  72 107 145 195 246 311 373 453
#     4  10  21  43  71  99 142 192 244 304 378 445
#
# _framework density 23.429480999999999
#
# number of rings (size 3 to 8) (size 9 to 14) (size 15 to 20)
#    0.000    0.889    5.556    0.667    3.111    2.667 
#   14.000    0.000    0.000    0.000    0.000    0.000 
#    0.000    0.000    0.000    0.000    0.000    0.000 
#
# Total GULP energy -100611.174642 kJ/mol
# GULP energy per Si atom -5589.509702 kJ/mol
# Density = 2.337615 g / cm^3
# Si number density = 23.429481 Si / 1000 Ang^3
#
#
#
# Elastic Constant Matrix: (Units=GPa)
#
#
# Indices 1 2 3 4 5 6 
#
# 1 78.0984 27.4929 29.1442 0.0000 15.0869 0.0000
# 2 27.4929 70.8209 40.3502 0.0000 9.7220 0.0000
# 3 29.1442 40.3502 216.9525 0.0000 2.9912 0.0000
# 4 0.0000 0.0000 0.0000 32.3352 0.0000 0.8353
# 5 15.0869 9.7220 2.9912 0.0000 36.0001 0.0000
# 6 0.0000 0.0000 0.0000 0.8353 0.0000 19.4834
#
#
#
# Elastic Compliance Matrix: (Units=1/GPa)
#
#
# Indices 1 2 3 4 5 6 
#
# 1 0.015955 -0.004796 -0.001178 0.000000 -0.005293 0.000000
# 2 -0.004796 0.017840 -0.002638 0.000000 -0.002589 0.000000
# 3 -0.001178 -0.002638 0.005248 0.000000 0.000770 0.000000
# 4 0.000000 0.000000 0.000000 0.030960 0.000000 -0.001327
# 5 -0.005293 -0.002589 0.000770 0.000000 0.030631 0.000000
# 6 0.000000 0.000000 0.000000 -0.001327 0.000000 0.051383
#
#
# Mechanical properties :
#
#
# Convention : Reuss Voigt Hill
#
# Bulk Modulus (GPa) = 45.83290 62.20517 54.01904
# Shear Modulus (GPa) = 28.32631 35.48936 31.90784
#
# Velocity S-wave (km/s) = 3.48084 3.89618 3.69435
# Velocity P-wave (km/s) = 5.97993 6.84455 6.42680
#
# Compressibility (1/GPa) = 0.02181839
#
# Stress axis : x y z
#
# Youngs Moduli (GPa) = 62.67669 56.05285 190.56201
#
# Poissons Ratio (x) = 0.26881 0.22455
# Poissons Ratio (y) = 0.30058 0.50273
# Poissons Ratio (z) = 0.07386 0.14787
#
# Static dielectric constant tensor:
#      x y z
#    x 1.733900 0.000000 -0.026530 
#    y 0.000000 1.862590 0.000000 
#    z -0.026530 0.000000 1.962010 
# 
# From -- ./inp_files/134657.got.cif
#   From: 2010.05.17/outbox.cif.g08.bks.cpg/sg15_68_cif.got.tgz:134657.got - 2010.06.03 18:47:42.
