data_PCOD9286909
_publ_section_title
;
Structure prediction by ZEFSAII (Michael W. Deem and Ramdas Pophale) SiO2 
 PCOD9286909
Probable space group: C 2/C
;
_chemical_formula_sum "Si O2"
_cell_formula_units_Z 52
_cell_length_a 21.484847
_cell_length_b 11.104160
_cell_length_c 12.712241
_cell_angle_alpha 90.000000
_cell_angle_beta 126.817749
_cell_angle_gamma 90.000000
_cell_volume 2427.874646
_symmetry_space_group_name_H-M "C 2/C"
_symmetry_group_IT_number 15
_symmetry_cell_setting 'monoclinic'
loop_
_space_group_symop_operation_xyz
x,y,z
-x,y,1/2-z
-x,-y,-z
x,-y,1/2+z
1/2+x,1/2+y,z
1/2-x,1/2+y,1/2-z
1/2-x,1/2-y,-z
1/2+x,1/2-y,1/2+z
loop_
_atom_site_type_symbol
_atom_site_label
_atom_site_fract_x
_atom_site_fract_y
_atom_site_fract_z
Si Si1 0.202300 0.129002 0.956293
Si Si2 0.000000 0.237408 0.250000
Si Si3 0.451029 0.888235 0.997719
Si Si4 0.646747 0.275759 0.798879
Si Si5 0.432500 0.648444 0.847467
Si Si6 0.603786 0.582752 0.051962
Si Si7 0.694373 0.088693 0.006872
O O1 0.126000 0.140808 0.807735
O O2 0.261114 0.031750 0.971659
O O3 0.250000 0.250000 0.000000
O O4 0.173724 0.091848 0.042258
O O5 0.008118 0.319526 0.362213
O O6 0.080756 0.166444 0.311078
O O7 0.435150 0.782856 0.897468
O O8 0.369429 0.927117 0.967358
O O9 0.500000 0.000000 0.000000
O O10 0.616115 0.314817 0.653942
O O11 0.734902 0.323417 0.889673
O O12 0.655185 0.144588 0.861594
O O13 0.402510 0.548506 0.901082
O O14 0.520941 0.609807 0.914694
#
# Coordination Sequence:
#
# PCOD9286909 Si02
#       7
#     8   4   8   8   8   8   8
#     4  12  29  44  67 108 153 186 232 304 372 429
#     4  10  22  44  76 106 132 188 248 282 358 432
#     4  11  26  47  74 103 145 191 242 301 363 445
#     4  10  21  44  76 104 135 183 244 298 345 427
#     4  11  26  47  72 105 135 195 242 297 361 431
#     4  11  25  46  74 103 143 188 240 303 358 435
#     4  10  25  45  73 107 138 192 242 295 357 444
#
# _framework density 21.417909000000002
#
# number of rings (size 3 to 8) (size 9 to 14) (size 15 to 20)
#    0.000    1.231    3.077    0.462   10.769    2.462 
#    0.000    0.000    0.000    0.000    0.000    0.000 
#    0.000    0.000    0.000    0.000    0.000    0.000 
#
# Total GULP energy -145176.082919 kJ/mol
# GULP energy per Si atom -5583.695497 kJ/mol
# Density = 2.136916 g / cm^3
# Si number density = 21.417909 Si / 1000 Ang^3
#
#
#
# Elastic Constant Matrix: (Units=GPa)
#
#
# Indices 1 2 3 4 5 6 
#
# 1 132.4529 0.1811 38.4290 0.0000 -12.1059 0.0000
# 2 0.1811 39.1620 44.5368 0.0000 -27.0825 0.0000
# 3 38.4290 44.5368 62.5513 0.0000 25.2513 0.0000
# 4 0.0000 0.0000 0.0000 17.4244 0.0000 15.5608
# 5 -12.1059 -27.0825 25.2513 0.0000 25.2174 0.0000
# 6 0.0000 0.0000 0.0000 15.5608 0.0000 -4.3244
#
#
#
# Elastic Compliance Matrix: (Units=1/GPa)
#
#
# Indices 1 2 3 4 5 6 
#
# 1 0.006542 -0.005636 0.001963 0.000000 -0.004878 0.000000
# 2 -0.005636 -0.002975 0.013366 0.000000 -0.019284 0.000000
# 3 0.001963 0.013366 -0.001528 0.000000 0.016827 0.000000
# 4 0.000000 0.000000 0.000000 0.013621 0.000000 0.049012
# 5 -0.004878 -0.019284 0.016827 0.000000 -0.000246 0.000000
# 6 0.000000 0.000000 0.000000 0.049012 0.000000 -0.054882
#
#
# Mechanical properties :
#
#
# Convention : Reuss Voigt Hill
#
# Bulk Modulus (GPa) = 46.67709 44.49556 45.58632
# Shear Modulus (GPa) = -96.68941 17.73141 -39.47900
#
# Velocity S-wave (km/s) = -6.72623 2.88041 -4.29799
# Velocity P-wave (km/s) = 6.20340 5.64645 1.81656
#
# Compressibility (1/GPa) = 0.02142379
#
# Stress axis : x y z
#
# Youngs Moduli (GPa) = 152.85477 -336.15355 -654.32856
#
# Poissons Ratio (x) = -1.89464 1.28449
# Poissons Ratio (y) = 0.86153 8.74546
# Poissons Ratio (z) = -0.30006 4.49288
#
# Static dielectric constant tensor:
#      x y z
#    x 1.784450 0.000000 0.034430 
#    y 0.000000 1.763800 0.000000 
#    z 0.034430 0.000000 1.805810 
# 
# From -- ./inp_files/111724.got.cif
#   From: 2010.05.17/outbox.cif.g08.bks.cpg/sg15_56_cif.got.tgz:111724.got - 2010.06.03 18:47:42.
