data_PCOD9286726
_publ_section_title
;
Structure prediction by ZEFSAII (Michael W. Deem and Ramdas Pophale) SiO2 
 PCOD9286726
Probable space group: C 2/C
;
_chemical_formula_sum "Si O2"
_cell_formula_units_Z 64
_cell_length_a 19.241493
_cell_length_b 17.327963
_cell_length_c 14.547822
_cell_angle_alpha 90.000000
_cell_angle_beta 37.467023
_cell_angle_gamma 90.000000
_cell_volume 2950.566691
_symmetry_space_group_name_H-M "C 2/C"
_symmetry_group_IT_number 15
_symmetry_cell_setting 'monoclinic'
loop_
_space_group_symop_operation_xyz
x,y,z
-x,y,1/2-z
-x,-y,-z
x,-y,1/2+z
1/2+x,1/2+y,z
1/2-x,1/2+y,1/2-z
1/2-x,1/2-y,-z
1/2+x,1/2-y,1/2+z
loop_
_atom_site_type_symbol
_atom_site_label
_atom_site_fract_x
_atom_site_fract_y
_atom_site_fract_z
Si Si1 0.722438 0.465073 0.481524
Si Si2 0.941049 0.134490 0.476983
Si Si3 0.299294 0.369412 0.444389
Si Si4 0.913696 0.282628 0.760106
Si Si5 0.430345 0.939351 0.136619
Si Si6 0.206636 0.904281 0.701536
Si Si7 0.092339 0.306515 0.949242
Si Si8 0.260709 0.423734 0.291818
O O1 0.635249 0.411817 0.516201
O O2 0.664202 0.549686 0.549696
O O3 0.846835 0.473712 0.302131
O O4 0.739838 0.424746 0.561718
O O5 0.927460 0.225652 0.480650
O O6 0.880751 0.111300 0.635829
O O7 0.072309 0.111624 0.340523
O O8 0.207937 0.325314 0.601970
O O9 0.389044 0.306384 0.314498
O O10 0.234538 0.399765 0.421772
O O11 0.942457 0.295216 0.622195
O O12 0.000000 0.311288 0.750000
O O13 0.339283 0.895237 0.168003
O O14 0.519876 0.874963 0.071951
O O15 0.500000 0.000000 0.000000
O O16 0.277939 0.835787 0.673083
O O17 0.232045 0.984238 0.727674
#
# Coordination Sequence:
#
# PCOD9286726 Si02
#       8
#     8   8   8   8   8   8   8   8
#     4  10  25  46  70 103 135 189 238 290 347 423
#     4  11  25  43  70 100 142 186 233 294 353 421
#     4  10  22  42  68  99 138 172 235 287 351 424
#     4  11  24  42  66 104 139 183 219 294 362 423
#     4  11  22  43  70 103 138 185 230 288 350 426
#     4  11  25  45  69  99 140 184 236 290 349 425
#     4  12  26  44  69 105 139 186 234 291 368 424
#     4  10  21  44  67 104 135 180 236 281 353 425
#
# _framework density 21.690749
#
# number of rings (size 3 to 8) (size 9 to 14) (size 15 to 20)
#    0.000    1.250    2.500    2.250    5.250    5.000 
#    2.250    0.000    0.000    0.000    0.000    0.000 
#    0.000    0.000    0.000    0.000    0.000    0.000 
#
# Total GULP energy -178612.733488 kJ/mol
# GULP energy per Si atom -5581.647921 kJ/mol
# Density = 2.164138 g / cm^3
# Si number density = 21.690749 Si / 1000 Ang^3
#
#
#
# Elastic Constant Matrix: (Units=GPa)
#
#
# Indices 1 2 3 4 5 6 
#
# 1 71.1157 18.0009 27.0127 0.0000 -9.5861 0.0000
# 2 18.0009 106.6355 23.8195 0.0000 -0.5856 0.0000
# 3 27.0127 23.8195 107.1190 0.0000 -8.1506 0.0000
# 4 0.0000 0.0000 0.0000 19.2360 0.0000 7.4849
# 5 -9.5861 -0.5856 -8.1506 0.0000 25.1480 0.0000
# 6 0.0000 0.0000 0.0000 7.4849 0.0000 20.9943
#
#
#
# Elastic Compliance Matrix: (Units=1/GPa)
#
#
# Indices 1 2 3 4 5 6 
#
# 1 0.016534 -0.002020 -0.003326 0.000000 0.005178 0.000000
# 2 -0.002020 0.010121 -0.001827 0.000000 -0.001126 0.000000
# 3 -0.003326 -0.001827 0.010746 0.000000 0.002172 0.000000
# 4 0.000000 0.000000 0.000000 0.060359 0.000000 -0.021519
# 5 0.005178 -0.001126 0.002172 0.000000 0.042416 0.000000
# 6 0.000000 0.000000 0.000000 -0.021519 0.000000 0.055304
#
#
# Mechanical properties :
#
#
# Convention : Reuss Voigt Hill
#
# Bulk Modulus (GPa) = 43.37517 46.94848 45.16182
# Shear Modulus (GPa) = 22.98741 27.47814 25.23277
#
# Velocity S-wave (km/s) = 3.25896 3.56309 3.41441
# Velocity P-wave (km/s) = 5.84821 6.21442 6.03409
#
# Compressibility (1/GPa) = 0.02305466
#
# Stress axis : x y z
#
# Youngs Moduli (GPa) = 60.48049 98.80884 93.05980
#
# Poissons Ratio (x) = 0.19956 0.30956
# Poissons Ratio (y) = 0.12215 0.17001
# Poissons Ratio (z) = 0.20119 0.18051
#
# Static dielectric constant tensor:
#      x y z
#    x 1.799590 0.000000 0.026200 
#    y 0.000000 1.811200 0.000000 
#    z 0.026200 0.000000 1.842580 
# 
# From -- ./inp_files/163261.got.cif
#   From: 2010.05.17/outbox.cif.g08.bks.cpg/sg15_82_cif.got.tgz:163261.got - 2010.06.03 18:47:42.
