data_PCOD9286891
_publ_section_title
;
Structure prediction by ZEFSAII (Michael W. Deem and Ramdas Pophale) SiO2 
 PCOD9286891
Probable space group: C 2/C
;
_chemical_formula_sum "Si O2"
_cell_formula_units_Z 36
_cell_length_a 5.140692
_cell_length_b 24.548438
_cell_length_c 11.502885
_cell_angle_alpha 90.000000
_cell_angle_beta 61.163409
_cell_angle_gamma 90.000000
_cell_volume 1271.615332
_symmetry_space_group_name_H-M "C 2/C"
_symmetry_group_IT_number 15
_symmetry_cell_setting 'monoclinic'
loop_
_space_group_symop_operation_xyz
x,y,z
-x,y,1/2-z
-x,-y,-z
x,-y,1/2+z
1/2+x,1/2+y,z
1/2-x,1/2+y,1/2-z
1/2-x,1/2-y,-z
1/2+x,1/2-y,1/2+z
loop_
_atom_site_type_symbol
_atom_site_label
_atom_site_fract_x
_atom_site_fract_y
_atom_site_fract_z
Si Si1 0.405002 0.868296 0.600120
Si Si2 0.000000 0.059525 0.750000
Si Si3 0.500000 0.000000 0.000000
Si Si4 0.872897 0.868632 0.074162
Si Si5 0.500000 0.952309 0.750000
Si Si6 0.433498 0.746749 0.629518
O O1 0.300060 0.907660 0.724623
O O2 0.766641 0.867549 0.519059
O O3 0.300102 0.806607 0.640414
O O4 0.291395 0.892444 0.502874
O O5 0.179725 0.099473 0.796299
O O6 0.799192 0.023429 0.876198
O O7 0.617499 0.015367 0.113150
O O8 0.772987 0.805507 0.109998
O O9 0.500000 0.737001 0.750000
O O10 0.750000 0.750000 0.500000
#
# Coordination Sequence:
#
# PCOD9286891 Si02
#       6
#     8   4   4   8   4   8
#     4  11  25  49  81 124 171 224 277 353 434 542
#     4  12  28  57  84 128 172 233 300 382 454 528
#     4  12  32  54  84 122 166 228 298 384 438 526
#     4  11  25  49  84 122 171 223 281 349 442 531
#     4  12  28  55  80 122 162 223 288 364 440 508
#     4  10  21  44  73 124 169 218 271 338 426 537
#
# _framework density 28.310445999999999
#
# number of rings (size 3 to 8) (size 9 to 14) (size 15 to 20)
#    0.000    0.889    4.444    0.667    3.111    4.444 
#    0.000    4.444    0.000    0.000    0.000    0.000 
#    0.000    0.000    0.000    0.000    0.000    0.000 
#
# Total GULP energy -100474.352208 kJ/mol
# GULP energy per Si atom -5581.908456 kJ/mol
# Density = 2.824601 g / cm^3
# Si number density = 28.310446 Si / 1000 Ang^3
#
#
#
# Elastic Constant Matrix: (Units=GPa)
#
#
# Indices 1 2 3 4 5 6 
#
# 1 144.5883 20.9455 84.3554 0.0000 16.6624 0.0000
# 2 20.9455 134.1753 63.7970 0.0000 7.5450 0.0000
# 3 84.3554 63.7970 296.6455 0.0000 32.6953 0.0000
# 4 0.0000 0.0000 0.0000 40.4746 0.0000 20.1814
# 5 16.6624 7.5450 32.6953 0.0000 76.6137 0.0000
# 6 0.0000 0.0000 0.0000 20.1814 0.0000 -5.5784
#
#
#
# Elastic Compliance Matrix: (Units=1/GPa)
#
#
# Indices 1 2 3 4 5 6 
#
# 1 0.008348 -0.000191 -0.002240 0.000000 -0.000841 0.000000
# 2 -0.000191 0.008306 -0.001728 0.000000 -0.000039 0.000000
# 3 -0.002240 -0.001728 0.004520 0.000000 -0.001271 0.000000
# 4 0.000000 0.000000 0.000000 0.008812 0.000000 0.031879
# 5 -0.000841 -0.000039 -0.001271 0.000000 0.013782 0.000000
# 6 0.000000 0.000000 0.000000 0.031879 0.000000 -0.063934
#
#
# Mechanical properties :
#
#
# Convention : Reuss Voigt Hill
#
# Bulk Modulus (GPa) = 77.78155 101.51166 89.64660
# Shear Modulus (GPa) = -661.07544 49.38939 -305.84302
#
# Velocity S-wave (km/s) = -15.29759 4.18133 -10.40511
# Velocity P-wave (km/s) = 16.86676 7.69713 10.61230
#
# Compressibility (1/GPa) = 0.01285652
#
# Stress axis : x y z
#
# Youngs Moduli (GPa) = 119.79474 120.38822 221.25081
#
# Poissons Ratio (x) = 0.02296 0.49562
# Poissons Ratio (y) = 0.02285 0.38229
# Poissons Ratio (z) = 0.26835 0.20801
#
# Static dielectric constant tensor:
#      x y z
#    x 3.069670 0.000000 -0.190510 
#    y 0.000000 2.502810 0.000000 
#    z -0.190510 0.000000 2.186030 
# 
# From -- ./inp_files/72544.got.cif
#   From: 2010.05.17/outbox.cif.g08.bks.cpg/sg15_37_cif.got.tgz:72544.got - 2010.06.03 18:47:42.
