data_PCOD9286519
_publ_section_title
;
Structure prediction by ZEFSAII (Michael W. Deem and Ramdas Pophale) SiO2 
 PCOD9286519
Probable space group: C 2/C
;
_chemical_formula_sum "Si O2"
_cell_formula_units_Z 52
_cell_length_a 15.443188
_cell_length_b 14.899956
_cell_length_c 10.882115
_cell_angle_alpha 90.000000
_cell_angle_beta 115.468203
_cell_angle_gamma 90.000000
_cell_volume 2260.676299
_symmetry_space_group_name_H-M "C 2/C"
_symmetry_group_IT_number 15
_symmetry_cell_setting 'monoclinic'
loop_
_space_group_symop_operation_xyz
x,y,z
-x,y,1/2-z
-x,-y,-z
x,-y,1/2+z
1/2+x,1/2+y,z
1/2-x,1/2+y,1/2-z
1/2-x,1/2-y,-z
1/2+x,1/2-y,1/2+z
loop_
_atom_site_type_symbol
_atom_site_label
_atom_site_fract_x
_atom_site_fract_y
_atom_site_fract_z
Si Si1 0.835832 0.190852 0.604435
Si Si2 0.217550 0.646570 0.960045
Si Si3 0.000000 0.676651 0.250000
Si Si4 0.940850 0.407613 0.952940
Si Si5 0.428635 0.222909 0.808300
Si Si6 0.624404 0.409069 0.121970
Si Si7 0.098916 0.104795 0.079325
O O1 0.750000 0.250000 0.500000
O O2 0.926093 0.256260 0.641834
O O3 0.838563 0.155730 0.746242
O O4 0.850600 0.107771 0.522145
O O5 0.138616 0.653184 0.803256
O O6 0.308804 0.599695 0.956209
O O7 0.250000 0.750000 0.000000
O O8 0.161595 0.601035 0.040292
O O9 0.059999 0.617803 0.190648
O O10 0.000000 0.500000 0.000000
O O11 0.005737 0.331358 0.057509
O O12 0.500000 0.263273 0.750000
O O13 0.371860 0.305260 0.831891
O O14 0.622416 0.512863 0.161656
O O15 0.515181 0.388343 0.016125
#
# Coordination Sequence:
#
# PCOD9286519 Si02
#       7
#     8   8   4   8   8   8   8
#     4  12  24  45  73 105 145 197 246 303 382 444
#     4  11  24  45  70 102 142 187 243 299 366 453
#     4  12  24  48  74 102 152 186 248 310 374 454
#     4  11  26  46  75 104 144 193 244 308 375 449
#     4  10  21  43  70  98 138 187 234 291 377 439
#     4  11  24  42  70 105 146 183 244 306 364 446
#     4  11  23  44  69 104 143 190 236 306 372 440
#
# _framework density 23.001967
#
# number of rings (size 3 to 8) (size 9 to 14) (size 15 to 20)
#    0.000    0.923    3.077    3.692    3.231    4.923 
#    2.769    0.000    0.000    0.000    0.000    0.000 
#    0.000    0.000    0.000    0.000    0.000    0.000 
#
# Total GULP energy -145345.020587 kJ/mol
# GULP energy per Si atom -5590.193100 kJ/mol
# Density = 2.294961 g / cm^3
# Si number density = 23.001967 Si / 1000 Ang^3
#
#
#
# Elastic Constant Matrix: (Units=GPa)
#
#
# Indices 1 2 3 4 5 6 
#
# 1 144.2417 41.6967 36.9493 0.0000 -20.8611 0.0000
# 2 41.6967 113.8482 21.1725 0.0000 -18.2667 0.0000
# 3 36.9493 21.1725 62.2506 0.0000 -12.7110 0.0000
# 4 0.0000 0.0000 0.0000 28.5110 0.0000 -1.0957
# 5 -20.8611 -18.2667 -12.7110 0.0000 46.2041 0.0000
# 6 0.0000 0.0000 0.0000 -1.0957 0.0000 26.2647
#
#
#
# Elastic Compliance Matrix: (Units=1/GPa)
#
#
# Indices 1 2 3 4 5 6 
#
# 1 0.008913 -0.002169 -0.004139 0.000000 0.002028 0.000000
# 2 -0.002169 0.010314 -0.001682 0.000000 0.002635 0.000000
# 3 -0.004139 -0.001682 0.019681 0.000000 0.002881 0.000000
# 4 0.000000 0.000000 0.000000 0.035130 0.000000 0.001466
# 5 0.002028 0.002635 0.002881 0.000000 0.024393 0.000000
# 6 0.000000 0.000000 0.000000 0.001466 0.000000 0.038135
#
#
# Mechanical properties :
#
#
# Convention : Reuss Voigt Hill
#
# Bulk Modulus (GPa) = 43.61513 57.77525 50.69519
# Shear Modulus (GPa) = 31.21295 34.89743 33.05519
#
# Velocity S-wave (km/s) = 3.68770 3.89929 3.79497
# Velocity P-wave (km/s) = 6.09384 6.74126 6.42571
#
# Compressibility (1/GPa) = 0.02292782
#
# Stress axis : x y z
#
# Youngs Moduli (GPa) = 112.19029 96.95715 50.81060
#
# Poissons Ratio (x) = 0.21034 0.21029
# Poissons Ratio (y) = 0.24339 0.08547
# Poissons Ratio (z) = 0.46431 0.16309
#
# Static dielectric constant tensor:
#      x y z
#    x 1.901890 0.000000 -0.054700 
#    y 0.000000 1.883780 0.000000 
#    z -0.054700 0.000000 1.916600 
# 
# From -- ./inp_files/97098.got.cif
#   From: 2010.05.17/outbox.cif.g08.bks.cpg/sg15_49_cif.got.tgz:97098.got - 2010.06.03 18:47:42.
