data_PCOD9286989
_publ_section_title
;
Structure prediction by ZEFSAII (Michael W. Deem and Ramdas Pophale) SiO2 
 PCOD9286989
Probable space group: C 2/C
;
_chemical_formula_sum "Si O2"
_cell_formula_units_Z 60
_cell_length_a 20.594134
_cell_length_b 26.464056
_cell_length_c 14.734301
_cell_angle_alpha 90.000000
_cell_angle_beta 21.287010
_cell_angle_gamma 90.000000
_cell_volume 2915.304647
_symmetry_space_group_name_H-M "C 2/C"
_symmetry_group_IT_number 15
_symmetry_cell_setting 'monoclinic'
loop_
_space_group_symop_operation_xyz
x,y,z
-x,y,1/2-z
-x,-y,-z
x,-y,1/2+z
1/2+x,1/2+y,z
1/2-x,1/2+y,1/2-z
1/2-x,1/2-y,-z
1/2+x,1/2-y,1/2+z
loop_
_atom_site_type_symbol
_atom_site_label
_atom_site_fract_x
_atom_site_fract_y
_atom_site_fract_z
Si Si1 0.401451 0.585058 0.216937
Si Si2 0.678051 0.922329 0.349670
Si Si3 0.361782 0.115924 0.792039
Si Si4 0.500000 0.866865 0.750000
Si Si5 0.344453 0.695560 0.872025
Si Si6 0.999142 0.273187 0.356441
Si Si7 0.885965 0.807545 0.645714
Si Si8 0.395727 0.978394 0.471974
O O1 0.319257 0.596430 0.423563
O O2 0.359033 0.635848 0.216046
O O3 0.299217 0.537516 0.307675
O O4 0.609511 0.576155 0.937029
O O5 0.625222 0.888929 0.332428
O O6 0.607174 0.896932 0.533106
O O7 0.609308 0.980058 0.443283
O O8 0.396185 0.173553 0.775190
O O9 0.506652 0.074649 0.635805
O O10 0.665560 0.839296 0.589614
O O11 0.500000 0.687808 0.750000
O O12 0.460162 0.692942 0.629272
O O13 0.250000 0.750000 0.000000
O O14 0.069967 0.229003 0.327476
O O15 0.000000 0.257230 0.250000
O O16 0.800426 0.286545 0.648987
O O17 0.500000 0.000766 0.250000
#
# Coordination Sequence:
#
# PCOD9286989 Si02
#       8
#     8   8   8   4   8   8   8   8
#     4  11  23  44  68  99 138 177 225 287 358 424
#     4  12  25  43  70  98 138 177 238 296 352 429
#     4  11  24  42  70  99 137 178 228 286 358 436
#     4  12  28  46  68 110 136 192 244 304 358 422
#     4  12  27  48  73 100 145 194 245 296 357 428
#     4  12  25  43  66 101 138 180 221 284 354 426
#     4  12  26  43  68 102 136 183 232 285 350 430
#     4  10  21  45  70  96 135 181 230 288 368 427
#
# _framework density 20.581039000000001
#
# number of rings (size 3 to 8) (size 9 to 14) (size 15 to 20)
#    0.000    0.533    5.333    2.800    5.600    0.000 
#    0.000    0.000    0.000    0.000    0.000    0.000 
#    0.000    0.000    0.000    0.000    0.000    0.000 
#
# Total GULP energy -167382.184642 kJ/mol
# GULP energy per Si atom -5579.406155 kJ/mol
# Density = 2.053420 g / cm^3
# Si number density = 20.581039 Si / 1000 Ang^3
#
#
#
# Elastic Constant Matrix: (Units=GPa)
#
#
# Indices 1 2 3 4 5 6 
#
# 1 101.8307 36.2490 35.5791 -0.5028 7.2785 0.0802
# 2 36.2490 77.3224 27.5759 -0.5745 4.8462 0.1020
# 3 35.5791 27.5759 112.7350 -0.4718 3.3423 0.0826
# 4 -0.5028 -0.5745 -0.4718 -293.8732 0.5013 59.5722
# 5 7.2785 4.8462 3.3423 0.5013 40.0883 -0.0800
# 6 0.0802 0.1020 0.0826 59.5722 -0.0800 15.2417
#
#
#
# Elastic Compliance Matrix: (Units=1/GPa)
#
#
# Indices 1 2 3 4 5 6 
#
# 1 0.012609 -0.004837 -0.002753 -0.000009 -0.001475 0.000007
# 2 -0.004837 0.016106 -0.002387 -0.000020 -0.000869 0.000004
# 3 -0.002753 -0.002387 0.010325 -0.000007 -0.000072 0.000002
# 4 -0.000009 -0.000020 -0.000007 -0.001898 0.000043 0.007421
# 5 -0.001475 -0.000869 -0.000072 0.000043 0.025323 -0.000022
# 6 0.000007 0.000004 0.000002 0.007421 -0.000022 0.036606
#
#
# Mechanical properties :
#
#
# Convention : Reuss Voigt Hill
#
# Bulk Modulus (GPa) = 52.39350 54.52179 53.45764
# Shear Modulus (GPa) = 39.87613 -34.87635 2.49989
#
# Velocity S-wave (km/s) = 4.40650 -4.12100 1.10331
# Velocity P-wave (km/s) = 7.16953 1.97617 5.25868
#
# Compressibility (1/GPa) = 0.01908634
#
# Stress axis : x y z
#
# Youngs Moduli (GPa) = 79.30688 62.08734 96.85077
#
# Poissons Ratio (x) = 0.30033 0.26659
# Poissons Ratio (y) = 0.38363 0.23122
# Poissons Ratio (z) = 0.21830 0.14823
#
# Static dielectric constant tensor:
#      x y z
#    x 1.873150 -0.000170 -0.051370 
#    y -0.000170 1.709110 0.000080 
#    z -0.051370 0.000080 1.747560 
# 
# From -- ./inp_files/170027.got.cif
#   From: 2010.05.17/outbox.cif.g08.bks.cpg/sg15_86_cif.got.tgz:170027.got - 2010.06.03 18:47:42.
