data_PCOD9286738
_publ_section_title
;
Structure prediction by ZEFSAII (Michael W. Deem and Ramdas Pophale) SiO2 
 PCOD9286738
Probable space group: C 2/C
;
_chemical_formula_sum "Si O2"
_cell_formula_units_Z 56
_cell_length_a 19.409082
_cell_length_b 12.063044
_cell_length_c 11.945928
_cell_angle_alpha 90.000000
_cell_angle_beta 81.196349
_cell_angle_gamma 90.000000
_cell_volume 2763.979623
_symmetry_space_group_name_H-M "C 2/C"
_symmetry_group_IT_number 15
_symmetry_cell_setting 'monoclinic'
loop_
_space_group_symop_operation_xyz
x,y,z
-x,y,1/2-z
-x,-y,-z
x,-y,1/2+z
1/2+x,1/2+y,z
1/2-x,1/2+y,1/2-z
1/2-x,1/2-y,-z
1/2+x,1/2-y,1/2+z
loop_
_atom_site_type_symbol
_atom_site_label
_atom_site_fract_x
_atom_site_fract_y
_atom_site_fract_z
Si Si1 0.000000 0.220048 0.250000
Si Si2 0.756636 0.701001 0.812850
Si Si3 0.942653 0.273927 0.951114
Si Si4 0.465975 0.610502 0.467267
Si Si5 0.599427 0.883049 0.302425
Si Si6 0.699317 0.329110 0.088543
Si Si7 0.500000 0.070430 0.250000
Si Si8 0.196040 0.091051 0.052896
O O1 0.987083 0.144111 0.149654
O O2 0.064287 0.301731 0.218404
O O3 0.820300 0.629621 0.744977
O O4 0.706269 0.706964 0.717299
O O5 0.780064 0.822315 0.855254
O O6 0.728559 0.635279 0.928080
O O7 0.879348 0.193241 0.933867
O O8 0.957714 0.359298 0.849959
O O9 0.919389 0.336112 0.070610
O O10 0.015190 0.208049 0.951759
O O11 0.500000 0.500000 0.500000
O O12 0.387176 0.599722 0.446675
O O13 0.558230 0.996173 0.297446
O O14 0.714230 0.461552 0.071421
O O15 0.750000 0.250000 0.000000
#
# Coordination Sequence:
#
# PCOD9286738 Si02
#       8
#     4   8   8   8   8   8   4   8
#     4   9  20  37  66  88 128 171 224 257 338 406
#     4  11  26  46  74 102 142 187 236 291 350 426
#     4  11  25  44  67 103 132 179 235 281 349 418
#     4  11  22  42  69  95 128 171 224 288 335 397
#     4  10  21  44  67  93 135 184 219 277 349 410
#     4  12  27  46  71 101 142 190 234 282 357 428
#     4  11  26  41  68 102 138 175 228 293 338 410
#     4  11  27  48  71 106 140 184 242 295 350 412
#
# _framework density 20.260641
#
# number of rings (size 3 to 8) (size 9 to 14) (size 15 to 20)
#    0.000    1.143    4.286    0.429    6.000    1.714 
#    2.571    0.000    0.000    0.000    0.000    0.000 
#    0.000    0.000    0.000    0.000    0.000    0.000 
#
# Total GULP energy -156135.335191 kJ/mol
# GULP energy per Si atom -5576.261971 kJ/mol
# Density = 2.021453 g / cm^3
# Si number density = 20.260641 Si / 1000 Ang^3
#
#
#
# Elastic Constant Matrix: (Units=GPa)
#
#
# Indices 1 2 3 4 5 6 
#
# 1 44.7356 34.1012 15.6803 0.0000 10.0956 0.0000
# 2 34.1012 139.3126 61.8582 0.0000 6.1680 0.0000
# 3 15.6803 61.8582 106.3778 0.0000 12.6292 0.0000
# 4 0.0000 0.0000 0.0000 27.3445 0.0000 8.4237
# 5 10.0956 6.1680 12.6292 0.0000 36.4278 0.0000
# 6 0.0000 0.0000 0.0000 8.4237 0.0000 32.9984
#
#
#
# Elastic Compliance Matrix: (Units=1/GPa)
#
#
# Indices 1 2 3 4 5 6 
#
# 1 0.029149 -0.007128 0.000692 0.000000 -0.007112 0.000000
# 2 -0.007128 0.011423 -0.005837 0.000000 0.002065 0.000000
# 3 0.000692 -0.005837 0.013139 0.000000 -0.003759 0.000000
# 4 0.000000 0.000000 0.000000 0.039692 0.000000 -0.010132
# 5 -0.007112 0.002065 -0.003759 0.000000 0.030376 0.000000
# 6 0.000000 0.000000 0.000000 -0.010132 0.000000 0.032891
#
#
# Mechanical properties :
#
#
# Convention : Reuss Voigt Hill
#
# Bulk Modulus (GPa) = 34.28605 57.07840 45.68223
# Shear Modulus (GPa) = 26.18666 31.27323 28.72994
#
# Velocity S-wave (km/s) = 3.59902 3.93306 3.76974
# Velocity P-wave (km/s) = 5.85063 6.98989 6.44548
#
# Compressibility (1/GPa) = 0.02916638
#
# Stress axis : x y z
#
# Youngs Moduli (GPa) = 34.30631 87.54099 76.11025
#
# Poissons Ratio (x) = 0.62397 -0.05270
# Poissons Ratio (y) = 0.24453 0.44426
# Poissons Ratio (z) = -0.02375 0.51098
#
# Static dielectric constant tensor:
#      x y z
#    x 1.800650 0.000000 0.074500 
#    y 0.000000 1.710640 0.000000 
#    z 0.074500 0.000000 1.770130 
# 
# From -- ./inp_files/111098.got.cif
#   From: 2010.05.17/outbox.cif.g08.bks.cpg/sg15_56_cif.got.tgz:111098.got - 2010.06.03 18:47:42.
