data_PCOD9286367
_publ_section_title
;
Structure prediction by ZEFSAII (Michael W. Deem and Ramdas Pophale) SiO2 
 PCOD9286367
Probable space group: C 2/C
;
_chemical_formula_sum "Si O2"
_cell_formula_units_Z 48
_cell_length_a 16.093623
_cell_length_b 8.935492
_cell_length_c 30.314870
_cell_angle_alpha 90.000000
_cell_angle_beta 29.166833
_cell_angle_gamma 90.000000
_cell_volume 2124.578470
_symmetry_space_group_name_H-M "C 2/C"
_symmetry_group_IT_number 15
_symmetry_cell_setting 'monoclinic'
loop_
_space_group_symop_operation_xyz
x,y,z
-x,y,1/2-z
-x,-y,-z
x,-y,1/2+z
1/2+x,1/2+y,z
1/2-x,1/2+y,1/2-z
1/2-x,1/2-y,-z
1/2+x,1/2-y,1/2+z
loop_
_atom_site_type_symbol
_atom_site_label
_atom_site_fract_x
_atom_site_fract_y
_atom_site_fract_z
Si Si1 0.700088 0.962103 0.412515
Si Si2 0.396063 0.474349 0.003772
Si Si3 0.435819 0.664473 0.650636
Si Si4 0.693153 0.030534 0.319574
Si Si5 0.642662 0.837698 0.013475
Si Si6 0.389754 0.174124 0.345913
O O1 0.757788 0.066542 0.426235
O O2 0.500000 0.000000 0.500000
O O3 0.772571 0.994821 0.330686
O O4 0.738471 0.792804 0.406937
O O5 0.444204 0.580057 0.939920
O O6 0.437026 0.302843 0.974541
O O7 0.500000 0.500000 0.000000
O O8 0.198093 0.514962 0.104050
O O9 0.312686 0.538683 0.727264
O O10 0.517430 0.754966 0.654318
O O11 0.334552 0.793748 0.671965
O O12 0.508979 0.947275 0.401099
O O13 0.750000 0.750000 0.000000
O O14 0.500000 0.169051 0.250000
#
# Coordination Sequence:
#
# PCOD9286367 Si02
#       6
#     8   8   8   8   8   8
#     4  10  21  43  67  93 133 180 223 269 338 407
#     4  12  25  43  70 102 136 180 223 286 344 403
#     4  12  25  43  69  99 139 181 234 280 346 406
#     4  11  23  42  65  98 134 185 229 286 336 412
#     4  11  22  41  67  99 137 176 229 279 344 403
#     4  12  25  45  70 102 138 182 232 280 342 414
#
# _framework density 22.592718000000001
#
# number of rings (size 3 to 8) (size 9 to 14) (size 15 to 20)
#    0.000    0.667    1.667    8.500    2.333    0.000 
#    0.000    0.833    0.000    0.000    0.000    0.000 
#    0.000    0.000    0.000    0.000    0.000    0.000 
#
# Total GULP energy -134185.418795 kJ/mol
# GULP energy per Si atom -5591.059116 kJ/mol
# Density = 2.254130 g / cm^3
# Si number density = 22.592718 Si / 1000 Ang^3
#
#
#
# Elastic Constant Matrix: (Units=GPa)
#
#
# Indices 1 2 3 4 5 6 
#
# 1 73.4044 -16.9498 8.3959 0.0001 22.0137 0.0001
# 2 -16.9498 75.3575 25.8948 0.0001 8.6542 0.0004
# 3 8.3959 25.8948 104.6157 0.0000 26.1778 0.0000
# 4 0.0001 0.0001 0.0000 25.0075 0.0000 4.3753
# 5 22.0137 8.6542 26.1778 0.0000 28.3920 0.0000
# 6 0.0001 0.0004 0.0000 4.3753 0.0000 45.7599
#
#
#
# Elastic Compliance Matrix: (Units=1/GPa)
#
#
# Indices 1 2 3 4 5 6 
#
# 1 0.020767 0.006348 0.001658 0.000000 -0.019565 0.000000
# 2 0.006348 0.016490 -0.002732 0.000000 -0.007429 0.000000
# 3 0.001658 -0.002732 0.013279 0.000000 -0.012696 0.000000
# 4 0.000000 0.000000 0.000000 0.040668 0.000000 -0.003888
# 5 -0.019565 -0.007429 -0.012696 0.000000 0.064361 0.000000
# 6 0.000000 0.000000 0.000000 -0.003888 0.000000 0.022225
#
#
# Mechanical properties :
#
#
# Convention : Reuss Voigt Hill
#
# Bulk Modulus (GPa) = 16.37102 32.00659 24.18881
# Shear Modulus (GPa) = 26.65195 35.56766 31.10981
#
# Velocity S-wave (km/s) = 3.43836 3.97205 3.71480
# Velocity P-wave (km/s) = 4.79843 5.93580 5.39716
#
# Compressibility (1/GPa) = 0.06108353
#
# Stress axis : x y z
#
# Youngs Moduli (GPa) = 48.15359 60.64283 75.30768
#
# Poissons Ratio (x) = -0.38498 -0.12484
# Poissons Ratio (y) = -0.30569 0.20575
# Poissons Ratio (z) = -0.07983 0.16568
#
# Static dielectric constant tensor:
#      x y z
#    x 1.947300 0.000000 0.004000 
#    y 0.000000 1.788510 0.000000 
#    z 0.004000 0.000000 1.891500 
# 
# From -- ./inp_files/224537.got.cif
#   From: 2010.05.17/outbox.cif.g08.bks.cpg/sg15_113_cif.got.tgz:224537.got - 2010.06.03 18:47:42.
