data_PCOD9286966
_publ_section_title
;
Structure prediction by ZEFSAII (Michael W. Deem and Ramdas Pophale) SiO2 
 PCOD9286966
Probable space group: C 2/C
;
_chemical_formula_sum "Si O2"
_cell_formula_units_Z 28
_cell_length_a 10.519096
_cell_length_b 10.242510
_cell_length_c 19.464628
_cell_angle_alpha 90.000000
_cell_angle_beta 30.477803
_cell_angle_gamma 90.000000
_cell_volume 1063.687459
_symmetry_space_group_name_H-M "C 2/C"
_symmetry_group_IT_number 15
_symmetry_cell_setting 'monoclinic'
loop_
_space_group_symop_operation_xyz
x,y,z
-x,y,1/2-z
-x,-y,-z
x,-y,1/2+z
1/2+x,1/2+y,z
1/2-x,1/2+y,1/2-z
1/2-x,1/2-y,-z
1/2+x,1/2-y,1/2+z
loop_
_atom_site_type_symbol
_atom_site_label
_atom_site_fract_x
_atom_site_fract_y
_atom_site_fract_z
Si Si1 0.768533 0.638121 0.389817
Si Si2 0.477584 0.592633 0.858470
Si Si3 0.500000 0.622477 0.250000
Si Si4 0.452281 0.768571 0.140199
O O1 0.619671 0.687993 0.393899
O O2 0.000000 0.558092 0.250000
O O3 0.865195 0.209771 0.255146
O O4 0.885432 0.767995 0.372157
O O5 0.361939 0.481181 0.863982
O O6 0.781532 0.600919 0.713486
O O7 0.386864 0.572715 0.977899
O O8 0.750000 0.750000 0.000000
#
# Coordination Sequence:
#
# PCOD9286966 Si02
#       4
#     8   8   4   8
#     4   9  19  42  67  89 140 178 215 295 330 382
#     4  10  21  45  68  98 137 178 232 278 338 414
#     4  12  24  42  76  98 128 196 224 264 370 398
#     4  11  23  41  64 108 142 169 228 295 330 407
#
# _framework density 26.323523999999999
#
# number of rings (size 3 to 8) (size 9 to 14) (size 15 to 20)
#    0.000    1.714    4.286    1.714    0.000    2.286 
#   15.429    0.000    0.000    0.000    0.000    0.000 
#    0.000    0.000    0.000    0.000    0.000    0.000 
#
# Total GULP energy -78155.643478 kJ/mol
# GULP energy per Si atom -5582.545963 kJ/mol
# Density = 2.626361 g / cm^3
# Si number density = 26.323524 Si / 1000 Ang^3
#
#
#
# Elastic Constant Matrix: (Units=GPa)
#
#
# Indices 1 2 3 4 5 6 
#
# 1 231.7143 11.1942 86.4723 -0.0001 34.9613 0.0002
# 2 11.1942 60.1933 10.3931 -0.0006 6.9290 -0.0001
# 3 86.4723 10.3931 162.4076 -0.0088 6.4732 -0.0006
# 4 -0.0001 -0.0006 -0.0088 7.4285 -0.0006 5.4478
# 5 34.9613 6.9290 6.4732 -0.0006 58.4181 0.0004
# 6 0.0002 -0.0001 -0.0006 5.4478 0.0004 43.5386
#
#
#
# Elastic Compliance Matrix: (Units=1/GPa)
#
#
# Indices 1 2 3 4 5 6 
#
# 1 0.005934 -0.000215 -0.003019 -0.000004 -0.003191 0.000000
# 2 -0.000215 0.017015 -0.000903 0.000000 -0.001789 0.000000
# 3 -0.003019 -0.000903 0.007780 0.000010 0.001051 -0.000001
# 4 -0.000004 0.000000 0.000010 0.148217 0.000003 -0.018546
# 5 -0.003191 -0.001789 0.001051 0.000003 0.019124 -0.000001
# 6 0.000000 0.000000 -0.000001 -0.018546 -0.000001 0.025289
#
#
# Mechanical properties :
#
#
# Convention : Reuss Voigt Hill
#
# Bulk Modulus (GPa) = 44.53098 74.49270 59.51184
# Shear Modulus (GPa) = 20.91023 44.96075 32.93549
#
# Velocity S-wave (km/s) = 2.82149 4.13729 3.54104
# Velocity P-wave (km/s) = 5.25052 7.15424 6.27500
#
# Compressibility (1/GPa) = 0.02245627
#
# Stress axis : x y z
#
# Youngs Moduli (GPa) = 168.51923 58.77149 128.52761
#
# Poissons Ratio (x) = 0.01264 0.38797
# Poissons Ratio (y) = 0.03623 0.11607
# Poissons Ratio (z) = 0.50869 0.05307
#
# Static dielectric constant tensor:
#      x y z
#    x 2.042780 0.000000 0.007410 
#    y 0.000000 2.132880 0.000000 
#    z 0.007410 0.000000 2.200280 
# 
# From -- ./inp_files/290968.got.cif
#   From: 2010.05.17/outbox.cif.g08.bks.cpg/sg15_146_cif.got.tgz:290968.got - 2010.06.03 18:47:42.
