data_PCOD9286398
_publ_section_title
;
Structure prediction by ZEFSAII (Michael W. Deem and Ramdas Pophale) SiO2 
 PCOD9286398
Probable space group: C 2/C
;
_chemical_formula_sum "Si O2"
_cell_formula_units_Z 52
_cell_length_a 22.276164
_cell_length_b 8.233152
_cell_length_c 18.530679
_cell_angle_alpha 90.000000
_cell_angle_beta 38.193766
_cell_angle_gamma 90.000000
_cell_volume 2101.421616
_symmetry_space_group_name_H-M "C 2/C"
_symmetry_group_IT_number 15
_symmetry_cell_setting 'monoclinic'
loop_
_space_group_symop_operation_xyz
x,y,z
-x,y,1/2-z
-x,-y,-z
x,-y,1/2+z
1/2+x,1/2+y,z
1/2-x,1/2+y,1/2-z
1/2-x,1/2-y,-z
1/2+x,1/2-y,1/2+z
loop_
_atom_site_type_symbol
_atom_site_label
_atom_site_fract_x
_atom_site_fract_y
_atom_site_fract_z
Si Si1 0.628616 0.367810 0.223810
Si Si2 0.177329 0.976725 0.024586
Si Si3 0.500000 0.880570 0.250000
Si Si4 0.102165 0.686148 0.902489
Si Si5 0.054889 0.660951 0.108920
Si Si6 0.997789 0.833864 0.630001
Si Si7 0.269625 0.909433 0.795460
O O1 0.685222 0.456489 0.103967
O O2 0.549612 0.235870 0.270642
O O3 0.561387 0.501954 0.323126
O O4 0.686418 0.267675 0.228082
O O5 0.132989 0.798673 0.049865
O O6 0.259053 0.986261 0.886244
O O7 0.099147 0.110029 0.070521
O O8 0.551845 0.771065 0.260119
O O9 0.569082 0.994672 0.137494
O O10 0.015078 0.735290 0.930848
O O11 0.168911 0.849212 0.853265
O O12 0.167000 0.538436 0.809028
O O13 0.058643 0.634737 0.020090
#
# Coordination Sequence:
#
# PCOD9286398 Si02
#       7
#     8   8   4   8   8   8   8
#     4  11  20  43  67  98 128 180 221 286 330 409
#     4  10  21  43  68 100 127 186 224 285 331 409
#     4  12  20  38  66 100 120 166 222 304 314 394
#     4  11  26  44  62 106 133 190 215 287 335 420
#     4  10  22  39  70  93 133 167 236 274 341 390
#     4  11  23  41  69  97 135 169 238 273 345 387
#     4  11  25  42  68  93 150 175 228 264 359 411
#
# _framework density 24.745152000000001
#
# number of rings (size 3 to 8) (size 9 to 14) (size 15 to 20)
#    0.000    1.231    3.077    3.231    0.000   10.462 
#    0.000    0.769    0.000    0.000    0.000    0.000 
#    0.000    0.000    0.000    0.000    0.000    0.000 
#
# Total GULP energy -145151.932304 kJ/mol
# GULP energy per Si atom -5582.766627 kJ/mol
# Density = 2.468883 g / cm^3
# Si number density = 24.745152 Si / 1000 Ang^3
#
#
#
# Elastic Constant Matrix: (Units=GPa)
#
#
# Indices 1 2 3 4 5 6 
#
# 1 40.4720 18.7927 3.9547 -0.0004 6.8023 0.0001
# 2 18.7927 103.3423 29.5047 -0.0016 7.5770 0.0010
# 3 3.9547 29.5047 102.1556 -0.0006 29.5178 0.0006
# 4 -0.0004 -0.0016 -0.0006 11.5204 0.0009 3.7991
# 5 6.8023 7.5770 29.5178 0.0009 31.7166 -0.0008
# 6 0.0001 0.0010 0.0006 3.7991 -0.0008 47.6431
#
#
#
# Elastic Compliance Matrix: (Units=1/GPa)
#
#
# Indices 1 2 3 4 5 6 
#
# 1 0.028118 -0.005305 0.002489 0.000001 -0.007080 0.000000
# 2 -0.005305 0.011551 -0.003642 0.000001 0.001767 0.000000
# 3 0.002489 -0.003642 0.014564 0.000002 -0.013218 0.000000
# 4 0.000001 0.000001 0.000002 0.089147 -0.000005 -0.007109
# 5 -0.007080 0.001767 -0.013218 -0.000005 0.044927 0.000001
# 6 0.000000 0.000000 0.000000 -0.007109 0.000001 0.021556
#
#
# Mechanical properties :
#
#
# Convention : Reuss Voigt Hill
#
# Bulk Modulus (GPa) = 24.20170 38.94157 31.57163
# Shear Modulus (GPa) = 21.13707 31.09054 26.11381
#
# Velocity S-wave (km/s) = 2.92582 3.54846 3.25208
# Velocity P-wave (km/s) = 4.60603 5.70613 5.18534
#
# Compressibility (1/GPa) = 0.04131941
#
# Stress axis : x y z
#
# Youngs Moduli (GPa) = 35.56383 86.56963 68.66375
#
# Poissons Ratio (x) = 0.45925 -0.17094
# Poissons Ratio (y) = 0.18866 0.25004
# Poissons Ratio (z) = -0.08853 0.31525
#
# Static dielectric constant tensor:
#      x y z
#    x 2.067730 0.000000 -0.017720 
#    y 0.000000 1.970470 0.000000 
#    z -0.017720 0.000000 2.012640 
# 
# From -- ./inp_files/214251.got.cif
#   From: 2010.05.17/outbox.cif.g08.bks.cpg/sg15_108_cif.got.tgz:214251.got - 2010.06.03 18:47:42.
