data_PCOD9286764
_publ_section_title
;
Structure prediction by ZEFSAII (Michael W. Deem and Ramdas Pophale) SiO2 
 PCOD9286764
Probable space group: C 2/C
;
_chemical_formula_sum "Si O2"
_cell_formula_units_Z 48
_cell_length_a 24.408806
_cell_length_b 4.974175
_cell_length_c 29.517170
_cell_angle_alpha 90.000000
_cell_angle_beta 145.587517
_cell_angle_gamma 90.000000
_cell_volume 2025.366174
_symmetry_space_group_name_H-M "C 2/C"
_symmetry_group_IT_number 15
_symmetry_cell_setting 'monoclinic'
loop_
_space_group_symop_operation_xyz
x,y,z
-x,y,1/2-z
-x,-y,-z
x,-y,1/2+z
1/2+x,1/2+y,z
1/2-x,1/2+y,1/2-z
1/2-x,1/2-y,-z
1/2+x,1/2-y,1/2+z
loop_
_atom_site_type_symbol
_atom_site_label
_atom_site_fract_x
_atom_site_fract_y
_atom_site_fract_z
Si Si1 0.563171 0.113618 0.675313
Si Si2 0.069619 0.122128 0.903286
Si Si3 0.437494 0.205440 0.926830
Si Si4 0.124835 0.027532 0.035421
Si Si5 0.114720 0.305734 0.838410
Si Si6 0.304488 0.307257 0.654101
O O1 0.473048 0.320379 0.622879
O O2 0.594220 0.102982 0.643867
O O3 0.645622 0.216173 0.765162
O O4 0.521990 0.822080 0.659106
O O5 0.127804 0.193863 0.897936
O O6 0.129104 0.172411 0.990022
O O7 0.355716 0.311273 0.905173
O O8 0.512786 0.440416 0.964157
O O9 0.500000 0.000000 0.000000
O O10 0.192352 0.768553 0.079536
O O11 0.149324 0.607521 0.852387
O O12 0.000000 0.289786 0.750000
O O13 0.169444 0.107601 0.841441
#
# Coordination Sequence:
#
# PCOD9286764 Si02
#       6
#     8   8   8   8   8   8
#     4  11  21  40  66  94 121 173 210 259 310 390
#     4  11  22  40  67  90 128 173 213 243 327 383
#     4  10  21  44  68  83 129 172 208 251 336 383
#     4  10  25  42  63  99 126 165 214 274 310 380
#     4  12  23  41  67  93 131 175 207 259 324 384
#     4  12  25  41  65 100 131 158 222 271 307 372
#
# _framework density 23.699418999999999
#
# number of rings (size 3 to 8) (size 9 to 14) (size 15 to 20)
#    0.000    1.000    5.000    1.500    2.333    1.333 
#    3.000    0.000    0.000    0.000    0.000    0.000 
#    0.000    0.000    0.000    0.000    0.000    0.000 
#
# Total GULP energy -134260.320623 kJ/mol
# GULP energy per Si atom -5594.180026 kJ/mol
# Density = 2.364548 g / cm^3
# Si number density = 23.699419 Si / 1000 Ang^3
#
#
#
# Elastic Constant Matrix: (Units=GPa)
#
#
# Indices 1 2 3 4 5 6 
#
# 1 119.2768 2.8896 31.0899 0.0016 -33.5326 0.0223
# 2 2.8896 64.3284 -6.2321 0.0008 1.1377 -0.0955
# 3 31.0899 -6.2321 58.8306 -0.0012 -12.1243 0.0146
# 4 0.0016 0.0008 -0.0012 27.9918 -0.0022 0.6041
# 5 -33.5326 1.1377 -12.1243 -0.0022 44.7582 -0.0347
# 6 0.0223 -0.0955 0.0146 0.6041 -0.0347 35.7449
#
#
#
# Elastic Compliance Matrix: (Units=1/GPa)
#
#
# Indices 1 2 3 4 5 6 
#
# 1 0.011785 -0.001127 -0.004789 0.000000 0.007561 -0.000001
# 2 -0.001127 0.015814 0.002133 -0.000001 -0.000669 0.000041
# 3 -0.004789 0.002133 0.020128 0.000001 0.001810 0.000002
# 4 0.000000 -0.000001 0.000001 0.035738 0.000001 -0.000604
# 5 0.007561 -0.000669 0.001810 0.000001 0.028514 0.000020
# 6 -0.000001 0.000041 0.000002 -0.000604 0.000020 0.027986
#
#
# Mechanical properties :
#
#
# Convention : Reuss Voigt Hill
#
# Bulk Modulus (GPa) = 24.89979 33.10339 29.00159
# Shear Modulus (GPa) = 31.07157 36.01152 33.54155
#
# Velocity S-wave (km/s) = 3.62480 3.90232 3.76612
# Velocity P-wave (km/s) = 5.29605 5.85683 5.58349
#
# Compressibility (1/GPa) = 0.04016098
#
# Stress axis : x y z
#
# Youngs Moduli (GPa) = 84.85349 63.23347 49.68225
#
# Poissons Ratio (x) = 0.07127 0.23794
# Poissons Ratio (y) = 0.09564 -0.10598
# Poissons Ratio (z) = 0.40638 -0.13488
#
# Static dielectric constant tensor:
#      x y z
#    x 1.950840 -0.000070 -0.035160 
#    y -0.000070 1.898490 -0.000010 
#    z -0.035160 -0.000010 1.896430 
# 
# From -- ./inp_files/317115.got.cif
#   From: 2010.05.17/outbox.cif.g08.bks.cpg/sg15_159_cif.got.tgz:317115.got - 2010.06.03 18:47:42.
