data_PCOD9286248
_publ_section_title
;
Structure prediction by ZEFSAII (Michael W. Deem and Ramdas Pophale) SiO2 
 PCOD9286248
Probable space group: C 2/C
;
_chemical_formula_sum "Si O2"
_cell_formula_units_Z 40
_cell_length_a 13.964791
_cell_length_b 15.385237
_cell_length_c 10.094349
_cell_angle_alpha 90.000000
_cell_angle_beta 109.979594
_cell_angle_gamma 90.000000
_cell_volume 2038.257407
_symmetry_space_group_name_H-M "C 2/C"
_symmetry_group_IT_number 15
_symmetry_cell_setting 'monoclinic'
loop_
_space_group_symop_operation_xyz
x,y,z
-x,y,1/2-z
-x,-y,-z
x,-y,1/2+z
1/2+x,1/2+y,z
1/2-x,1/2+y,1/2-z
1/2-x,1/2-y,-z
1/2+x,1/2-y,1/2+z
loop_
_atom_site_type_symbol
_atom_site_label
_atom_site_fract_x
_atom_site_fract_y
_atom_site_fract_z
Si Si1 0.844084 0.344463 0.916863
Si Si2 0.259136 0.034782 0.881622
Si Si3 0.065319 0.956161 0.913500
Si Si4 0.032426 0.424641 0.914050
Si Si5 0.727745 0.661322 0.623370
O O1 0.794913 0.437410 0.855285
O O2 0.789882 0.259005 0.835847
O O3 0.961718 0.345555 0.929362
O O4 0.820928 0.340268 0.063201
O O5 0.245880 0.093817 0.747789
O O6 0.154793 0.021907 0.910832
O O7 0.346779 0.077987 0.013108
O O8 0.000000 0.937833 0.750000
O O9 0.127165 0.872391 0.997153
O O10 0.000000 0.000000 0.000000
O O11 0.000000 0.445515 0.750000
O O12 0.000000 0.500000 0.000000
#
# Coordination Sequence:
#
# PCOD9286248 Si02
#       5
#     8   8   8   8   8
#     4   9  22  40  65  96 136 162 222 260 326 395
#     4  10  22  39  71  92 129 170 214 267 329 380
#     4  11  22  40  65  92 126 174 222 267 321 385
#     4  10  23  39  64  97 130 167 212 266 326 393
#     4  10  21  43  64  98 129 175 216 269 318 400
#
# _framework density 19.624607999999998
#
# number of rings (size 3 to 8) (size 9 to 14) (size 15 to 20)
#    0.000    2.000    2.000    0.000   16.800    0.000 
#   14.400    1.000    0.000    0.000    0.000    0.000 
#    0.000    0.000    0.000    0.000    0.000    0.000 
#
# Total GULP energy -111528.614783 kJ/mol
# GULP energy per Si atom -5576.430739 kJ/mol
# Density = 1.957994 g / cm^3
# Si number density = 19.624608 Si / 1000 Ang^3
#
#
#
# Elastic Constant Matrix: (Units=GPa)
#
#
# Indices 1 2 3 4 5 6 
#
# 1 108.6588 26.6316 54.6228 0.0000 5.5532 0.0000
# 2 26.6316 114.1869 46.4814 0.0000 -3.4626 0.0000
# 3 54.6228 46.4814 125.1204 0.0000 19.7468 0.0000
# 4 0.0000 0.0000 0.0000 25.6634 0.0000 -5.9848
# 5 5.5532 -3.4626 19.7468 0.0000 24.7955 0.0000
# 6 0.0000 0.0000 0.0000 -5.9848 0.0000 22.3295
#
#
#
# Elastic Compliance Matrix: (Units=1/GPa)
#
#
# Indices 1 2 3 4 5 6 
#
# 1 0.011887 -0.000625 -0.005174 0.000000 0.001371 0.000000
# 2 -0.000625 0.010957 -0.004645 0.000000 0.005369 0.000000
# 3 -0.005174 -0.004645 0.013606 0.000000 -0.010326 0.000000
# 4 0.000000 0.000000 0.000000 0.041564 0.000000 0.011140
# 5 0.001371 0.005369 -0.010326 0.000000 0.048996 0.000000
# 6 0.000000 0.000000 0.000000 0.011140 0.000000 0.047770
#
#
# Mechanical properties :
#
#
# Convention : Reuss Voigt Hill
#
# Bulk Modulus (GPa) = 64.25461 67.04864 65.65162
# Shear Modulus (GPa) = 24.89365 29.23969 27.06667
#
# Velocity S-wave (km/s) = 3.56545 3.86417 3.71782
# Velocity P-wave (km/s) = 7.05428 7.35859 7.20804
#
# Compressibility (1/GPa) = 0.01556309
#
# Stress axis : x y z
#
# Youngs Moduli (GPa) = 84.12561 91.26627 73.49616
#
# Poissons Ratio (x) = 0.05702 0.38024
# Poissons Ratio (y) = 0.05256 0.34139
# Poissons Ratio (z) = 0.43523 0.42394
#
# Static dielectric constant tensor:
#      x y z
#    x 1.761550 0.000000 0.022340 
#    y 0.000000 1.701710 0.000000 
#    z 0.022340 0.000000 1.702600 
# 
# From -- ./inp_files/38052.got.cif
#   From: 2010.05.17/outbox.cif.g08.bks.cpg/sg15_20_cif.got.tgz:38052.got - 2010.06.03 18:47:42.
