data_PCOD9286639
_publ_section_title
;
Structure prediction by ZEFSAII (Michael W. Deem and Ramdas Pophale) SiO2 
 PCOD9286639
Probable space group: C 2/C
;
_chemical_formula_sum "Si O2"
_cell_formula_units_Z 44
_cell_length_a 20.665990
_cell_length_b 11.638788
_cell_length_c 17.960284
_cell_angle_alpha 90.000000
_cell_angle_beta 24.658323
_cell_angle_gamma 90.000000
_cell_volume 1802.303127
_symmetry_space_group_name_H-M "C 2/C"
_symmetry_group_IT_number 15
_symmetry_cell_setting 'monoclinic'
loop_
_space_group_symop_operation_xyz
x,y,z
-x,y,1/2-z
-x,-y,-z
x,-y,1/2+z
1/2+x,1/2+y,z
1/2-x,1/2+y,1/2-z
1/2-x,1/2-y,-z
1/2+x,1/2-y,1/2+z
loop_
_atom_site_type_symbol
_atom_site_label
_atom_site_fract_x
_atom_site_fract_y
_atom_site_fract_z
Si Si1 0.738952 0.082517 0.068723
Si Si2 0.444086 0.905998 0.145724
Si Si3 0.254642 0.509484 0.887932
Si Si4 0.000000 0.240287 0.750000
Si Si5 0.544764 0.340595 0.901655
Si Si6 0.210008 0.687372 0.822574
O O1 0.604716 0.175896 0.190818
O O2 0.680742 0.994956 0.191726
O O3 0.895875 0.155507 0.909147
O O4 0.755962 0.010229 0.974533
O O5 0.418902 0.769607 0.189375
O O6 0.421414 0.891601 0.080166
O O7 0.607936 0.939751 0.009347
O O8 0.403896 0.454199 0.693248
O O9 0.234416 0.639023 0.878572
O O10 0.651113 0.313855 0.863499
O O11 0.368890 0.333547 0.111936
#
# Coordination Sequence:
#
# PCOD9286639 Si02
#       6
#     8   8   8   4   8   8
#     4  11  24  43  68  91 131 167 216 264 319 382
#     4  10  21  44  63  92 130 166 207 268 315 377
#     4  12  22  42  66  95 127 172 214 264 321 376
#     4  10  24  46  56  98 126 164 216 256 322 384
#     4  10  22  42  62  95 128 166 218 258 323 374
#     4  10  23  40  64  94 130 163 215 264 315 383
#
# _framework density 24.413205999999999
#
# number of rings (size 3 to 8) (size 9 to 14) (size 15 to 20)
#    1.091    0.364    3.636    1.091    2.545    2.182 
#    6.545    0.000    0.000    0.000    0.000    0.000 
#    0.000    0.000    0.000    0.000    0.000    0.000 
#
# Total GULP energy -122928.851420 kJ/mol
# GULP energy per Si atom -5587.675065 kJ/mol
# Density = 2.435764 g / cm^3
# Si number density = 24.413206 Si / 1000 Ang^3
#
#
#
# Elastic Constant Matrix: (Units=GPa)
#
#
# Indices 1 2 3 4 5 6 
#
# 1 38.4622 16.9504 -2.4187 -0.0003 11.5567 0.0003
# 2 16.9504 81.2375 8.0790 -0.0002 1.2496 0.0001
# 3 -2.4187 8.0790 73.4480 -0.0001 -18.8104 0.0002
# 4 -0.0003 -0.0002 -0.0001 51.4217 0.0004 4.9723
# 5 11.5567 1.2496 -18.8104 0.0004 32.7302 -0.0004
# 6 0.0003 0.0001 0.0002 4.9723 -0.0004 37.7342
#
#
#
# Elastic Compliance Matrix: (Units=1/GPa)
#
#
# Indices 1 2 3 4 5 6 
#
# 1 0.032332 -0.006436 -0.001276 0.000000 -0.011904 0.000000
# 2 -0.006436 0.013788 -0.001503 0.000000 0.000883 0.000000
# 3 -0.001276 -0.001503 0.016262 0.000000 0.009854 0.000000
# 4 0.000000 0.000000 0.000000 0.019698 0.000000 -0.002596
# 5 -0.011904 0.000883 0.009854 0.000000 0.040385 0.000001
# 6 0.000000 0.000000 0.000000 -0.002596 0.000001 0.026843
#
#
# Mechanical properties :
#
#
# Convention : Reuss Voigt Hill
#
# Bulk Modulus (GPa) = 22.75142 26.48545 24.61844
# Shear Modulus (GPa) = 27.41380 35.74637 31.58008
#
# Velocity S-wave (km/s) = 3.35462 3.83067 3.60052
# Velocity P-wave (km/s) = 4.93398 5.51704 5.23364
#
# Compressibility (1/GPa) = 0.04395329
#
# Stress axis : x y z
#
# Youngs Moduli (GPa) = 30.92863 72.52485 61.49327
#
# Poissons Ratio (x) = 0.46679 0.07846
# Poissons Ratio (y) = 0.19906 0.09240
# Poissons Ratio (z) = 0.03946 0.10897
#
# Static dielectric constant tensor:
#      x y z
#    x 1.979000 0.000000 -0.011670 
#    y 0.000000 1.988940 0.000000 
#    z -0.011670 0.000000 1.943390 
# 
# From -- ./inp_files/284536.got.cif
#   From: 2010.05.17/outbox.cif.g08.bks.cpg/sg15_143_cif.got.tgz:284536.got - 2010.06.03 18:47:42.
