data_PCOD9286274
_publ_section_title
;
Structure prediction by ZEFSAII (Michael W. Deem and Ramdas Pophale) SiO2 
 PCOD9286274
Probable space group: C 2/C
;
_chemical_formula_sum "Si O2"
_cell_formula_units_Z 48
_cell_length_a 11.972343
_cell_length_b 21.892736
_cell_length_c 8.859594
_cell_angle_alpha 90.000000
_cell_angle_beta 67.974378
_cell_angle_gamma 90.000000
_cell_volume 2152.684355
_symmetry_space_group_name_H-M "C 2/C"
_symmetry_group_IT_number 15
_symmetry_cell_setting 'monoclinic'
loop_
_space_group_symop_operation_xyz
x,y,z
-x,y,1/2-z
-x,-y,-z
x,-y,1/2+z
1/2+x,1/2+y,z
1/2-x,1/2+y,1/2-z
1/2-x,1/2-y,-z
1/2+x,1/2-y,1/2+z
loop_
_atom_site_type_symbol
_atom_site_label
_atom_site_fract_x
_atom_site_fract_y
_atom_site_fract_z
Si Si1 0.777460 0.353580 0.316274
Si Si2 0.361017 0.919535 0.780272
Si Si3 0.764399 0.822242 0.490273
Si Si4 0.997899 0.167696 0.489626
Si Si5 0.000000 0.060425 0.250000
Si Si6 0.259778 0.972375 0.526964
Si Si7 0.000000 0.272104 0.250000
O O1 0.796972 0.350309 0.127141
O O2 0.643490 0.326921 0.406640
O O3 0.772102 0.420371 0.392069
O O4 0.883757 0.314281 0.337437
O O5 0.500000 0.913051 0.750000
O O6 0.337904 0.948699 0.628463
O O7 0.295009 0.854724 0.834721
O O8 0.302125 0.965433 0.931248
O O9 0.750000 0.750000 0.500000
O O10 0.906557 0.835572 0.425139
O O11 0.017520 0.106352 0.381533
O O12 0.030017 0.226574 0.372050
O O13 0.121747 0.023851 0.155010
#
# Coordination Sequence:
#
# PCOD9286274 Si02
#       7
#     8   8   8   8   4   8   4
#     4  11  25  40  71 101 137 185 231 290 355 416
#     4  12  28  47  73 103 143 186 234 293 352 418
#     4  12  25  46  67 104 141 185 238 287 344 421
#     4  10  21  43  65  97 144 183 231 289 344 416
#     4   9  20  44  72 102 130 181 230 286 358 407
#     4  11  25  48  74 101 141 182 235 292 353 423
#     4  11  22  38  68 102 138 181 238 280 358 413
#
# _framework density 22.297742
#
# number of rings (size 3 to 8) (size 9 to 14) (size 15 to 20)
#    0.000    1.000    3.333    2.500    3.500    3.333 
#    3.000    0.000    0.000    0.000    0.000    0.000 
#    0.000    0.000    0.000    0.000    0.000    0.000 
#
# Total GULP energy -134297.031000 kJ/mol
# GULP energy per Si atom -5595.709625 kJ/mol
# Density = 2.224699 g / cm^3
# Si number density = 22.297742 Si / 1000 Ang^3
#
#
#
# Elastic Constant Matrix: (Units=GPa)
#
#
# Indices 1 2 3 4 5 6 
#
# 1 136.1603 30.6493 13.6153 0.0000 -11.4774 0.0000
# 2 30.6493 94.5963 19.9127 0.0000 -9.4949 0.0000
# 3 13.6153 19.9127 48.9200 0.0000 6.8850 0.0000
# 4 0.0000 0.0000 0.0000 11.2814 0.0000 3.2410
# 5 -11.4774 -9.4949 6.8850 0.0000 46.7656 0.0000
# 6 0.0000 0.0000 0.0000 3.2410 0.0000 12.7369
#
#
#
# Elastic Compliance Matrix: (Units=1/GPa)
#
#
# Indices 1 2 3 4 5 6 
#
# 1 0.008137 -0.002104 -0.001664 0.000000 0.001815 0.000000
# 2 -0.002104 0.012565 -0.004917 0.000000 0.002759 0.000000
# 3 -0.001664 -0.004917 0.023593 0.000000 -0.004880 0.000000
# 4 0.000000 0.000000 0.000000 0.095633 0.000000 -0.024334
# 5 0.001815 0.002759 -0.004880 0.000000 0.023107 0.000000
# 6 0.000000 0.000000 0.000000 -0.024334 0.000000 0.084704
#
#
# Mechanical properties :
#
#
# Convention : Reuss Voigt Hill
#
# Bulk Modulus (GPa) = 37.13993 45.33681 41.23837
# Shear Modulus (GPa) = 18.24261 28.52340 23.38301
#
# Velocity S-wave (km/s) = 2.86341 3.58048 3.24183
# Velocity P-wave (km/s) = 5.25592 6.12125 5.70502
#
# Compressibility (1/GPa) = 0.02692520
#
# Stress axis : x y z
#
# Youngs Moduli (GPa) = 122.89163 79.58665 42.38561
#
# Poissons Ratio (x) = 0.16746 0.07052
# Poissons Ratio (y) = 0.25858 0.20842
# Poissons Ratio (z) = 0.20445 0.39134
#
# Static dielectric constant tensor:
#      x y z
#    x 1.801450 0.000000 0.002830 
#    y 0.000000 1.782900 0.000000 
#    z 0.002830 0.000000 1.852440 
# 
# From -- ./inp_files/32587.got.cif
#   From: 2010.05.17/outbox.cif.g08.bks.cpg/sg15_17_cif.got.tgz:32587.got - 2010.06.03 18:47:42.
