data_PCOD9286942
_publ_section_title
;
Structure prediction by ZEFSAII (Michael W. Deem and Ramdas Pophale) SiO2 
 PCOD9286942
Probable space group: C 2/C
;
_chemical_formula_sum "Si O2"
_cell_formula_units_Z 52
_cell_length_a 12.369596
_cell_length_b 29.000913
_cell_length_c 8.647724
_cell_angle_alpha 90.000000
_cell_angle_beta 125.724696
_cell_angle_gamma 90.000000
_cell_volume 2518.460447
_symmetry_space_group_name_H-M "C 2/C"
_symmetry_group_IT_number 15
_symmetry_cell_setting 'monoclinic'
loop_
_space_group_symop_operation_xyz
x,y,z
-x,y,1/2-z
-x,-y,-z
x,-y,1/2+z
1/2+x,1/2+y,z
1/2-x,1/2+y,1/2-z
1/2-x,1/2-y,-z
1/2+x,1/2-y,1/2+z
loop_
_atom_site_type_symbol
_atom_site_label
_atom_site_fract_x
_atom_site_fract_y
_atom_site_fract_z
Si Si1 0.200727 0.704409 0.665615
Si Si2 0.568359 0.660432 0.467754
Si Si3 0.500000 0.512573 0.750000
Si Si4 0.312439 0.688266 0.417262
Si Si5 0.543941 0.143486 0.107267
Si Si6 0.648281 0.556578 0.587657
Si Si7 0.540731 0.951482 0.106421
O O1 0.269893 0.688500 0.561515
O O2 0.177877 0.758664 0.628247
O O3 0.062535 0.676770 0.565975
O O4 0.305545 0.691657 0.884820
O O5 0.500000 0.673565 0.250000
O O6 0.453630 0.665529 0.501000
O O7 0.615384 0.607688 0.503375
O O8 0.560182 0.542769 0.662455
O O9 0.388970 0.479543 0.578831
O O10 0.193374 0.662833 0.226525
O O11 0.500000 0.144353 0.250000
O O12 0.529017 0.091828 0.033900
O O13 0.800633 0.554275 0.766727
O O14 0.500000 0.951010 0.250000
O O15 0.500000 0.000000 0.000000
#
# Coordination Sequence:
#
# PCOD9286942 Si02
#       7
#     8   8   4   8   8   8   8
#     4  10  21  45  66  97 131 170 227 273 325 395
#     4  12  25  39  65  97 139 171 218 270 331 403
#     4  10  24  42  70  90 132 168 218 280 324 402
#     4  10  23  40  71  96 127 176 221 273 329 391
#     4  10  22  39  65  97 130 167 219 273 327 393
#     4  11  24  44  64  99 128 173 220 272 337 398
#     4  12  26  43  68  92 132 174 221 278 332 401
#
# _framework density 20.647535000000001
#
# number of rings (size 3 to 8) (size 9 to 14) (size 15 to 20)
#    0.000    1.231    2.308    2.769    4.308    5.538 
#    0.000    1.538    0.000    0.000    0.000    0.000 
#    0.000    0.000    0.000    0.000    0.000    0.000 
#
# Total GULP energy -145481.294820 kJ/mol
# GULP energy per Si atom -5595.434416 kJ/mol
# Density = 2.060054 g / cm^3
# Si number density = 20.647535 Si / 1000 Ang^3
#
#
#
# Elastic Constant Matrix: (Units=GPa)
#
#
# Indices 1 2 3 4 5 6 
#
# 1 28.6891 2.6128 -0.4510 0.0000 19.0727 0.0000
# 2 2.6128 72.3207 31.2102 0.0000 20.2409 0.0000
# 3 -0.4510 31.2102 105.7846 0.0000 22.1264 0.0000
# 4 0.0000 0.0000 0.0000 20.1983 0.0000 1.3365
# 5 19.0727 20.2409 22.1264 0.0000 31.8539 0.0000
# 6 0.0000 0.0000 0.0000 1.3365 0.0000 11.7748
#
#
#
# Elastic Compliance Matrix: (Units=1/GPa)
#
#
# Indices 1 2 3 4 5 6 
#
# 1 0.069713 0.008568 0.008937 0.000000 -0.053394 0.000000
# 2 0.008568 0.018845 -0.002276 0.000000 -0.015524 0.000000
# 3 0.008937 -0.002276 0.012846 0.000000 -0.012828 0.000000
# 4 0.000000 0.000000 0.000000 0.049884 0.000000 -0.005662
# 5 -0.053394 -0.015524 -0.012828 0.000000 0.082138 0.000000
# 6 0.000000 0.000000 0.000000 -0.005662 0.000000 0.085570
#
#
# Mechanical properties :
#
#
# Convention : Reuss Voigt Hill
#
# Bulk Modulus (GPa) = 7.58366 30.39315 18.98840
# Shear Modulus (GPa) = 15.03798 24.32690 19.68244
#
# Velocity S-wave (km/s) = 2.70167 3.43621 3.09084
# Velocity P-wave (km/s) = 3.66236 5.52226 4.68552
#
# Compressibility (1/GPa) = 0.13186252
#
# Stress axis : x y z
#
# Youngs Moduli (GPa) = 14.34447 53.06501 77.84488
#
# Poissons Ratio (x) = -0.45467 -0.69573
# Poissons Ratio (y) = -0.12291 0.17720
# Poissons Ratio (z) = -0.12820 0.12080
#
# Static dielectric constant tensor:
#      x y z
#    x 1.723030 0.000000 -0.014480 
#    y 0.000000 1.668980 0.000000 
#    z -0.014480 0.000000 1.729100 
# 
# From -- ./inp_files/34417.got.cif
#   From: 2010.05.17/outbox.cif.g08.bks.cpg/sg15_18_cif.got.tgz:34417.got - 2010.06.03 18:47:42.
