data_PCOD9286530
_publ_section_title
;
Structure prediction by ZEFSAII (Michael W. Deem and Ramdas Pophale) SiO2 
 PCOD9286530
Probable space group: C 2/C
;
_chemical_formula_sum "Si O2"
_cell_formula_units_Z 40
_cell_length_a 14.757172
_cell_length_b 10.325590
_cell_length_c 12.883605
_cell_angle_alpha 90.000000
_cell_angle_beta 59.210496
_cell_angle_gamma 90.000000
_cell_volume 1686.458743
_symmetry_space_group_name_H-M "C 2/C"
_symmetry_group_IT_number 15
_symmetry_cell_setting 'monoclinic'
loop_
_space_group_symop_operation_xyz
x,y,z
-x,y,1/2-z
-x,-y,-z
x,-y,1/2+z
1/2+x,1/2+y,z
1/2-x,1/2+y,1/2-z
1/2-x,1/2-y,-z
1/2+x,1/2-y,1/2+z
loop_
_atom_site_type_symbol
_atom_site_label
_atom_site_fract_x
_atom_site_fract_y
_atom_site_fract_z
Si Si1 0.071096 0.189439 0.897382
Si Si2 0.101173 0.912095 0.848111
Si Si3 0.173775 0.357600 0.998025
Si Si4 0.500000 0.231007 0.750000
Si Si5 0.229422 0.614933 0.069002
Si Si6 0.500000 0.832210 0.750000
O O1 0.993540 0.250922 0.859745
O O2 0.117305 0.063466 0.812924
O O3 0.144622 0.301710 0.901532
O O4 0.009870 0.124443 0.029872
O O5 0.087467 0.821503 0.755909
O O6 0.187709 0.889244 0.885673
O O7 0.228134 0.495491 0.988095
O O8 0.063237 0.351638 0.127424
O O9 0.250000 0.250000 0.000000
O O10 0.113686 0.603522 0.188194
O O11 0.250000 0.750000 0.000000
#
# Coordination Sequence:
#
# PCOD9286530 Si02
#       6
#     8   8   8   4   8   4
#     4  10  22  43  70 100 139 178 230 282 338 414
#     4  10  21  43  71 103 138 179 228 281 344 412
#     4  11  24  46  69  99 137 185 226 278 341 415
#     4  10  24  42  70 106 139 179 230 288 341 415
#     4  12  26  46  68 100 141 181 232 291 347 401
#     4  12  26  44  66 108 135 177 228 292 343 405
#
# _framework density 23.718337999999999
#
# number of rings (size 3 to 8) (size 9 to 14) (size 15 to 20)
#    0.000    1.200    4.000    1.200    2.800    2.400 
#    3.600    0.000    0.000    0.000    0.000    0.000 
#    0.000    0.000    0.000    0.000    0.000    0.000 
#
# Total GULP energy -111578.144808 kJ/mol
# GULP energy per Si atom -5578.907240 kJ/mol
# Density = 2.366435 g / cm^3
# Si number density = 23.718338 Si / 1000 Ang^3
#
#
#
# Elastic Constant Matrix: (Units=GPa)
#
#
# Indices 1 2 3 4 5 6 
#
# 1 144.3049 52.2233 -1.5306 0.0000 24.5359 0.0000
# 2 52.2233 149.3818 15.1983 0.0000 16.5886 0.0000
# 3 -1.5306 15.1983 46.5781 0.0000 -4.0498 0.0000
# 4 0.0000 0.0000 0.0000 12.4437 0.0000 -0.4693
# 5 24.5359 16.5886 -4.0498 0.0000 46.7000 0.0000
# 6 0.0000 0.0000 0.0000 -0.4693 0.0000 16.0305
#
#
#
# Elastic Compliance Matrix: (Units=1/GPa)
#
#
# Indices 1 2 3 4 5 6 
#
# 1 0.008491 -0.002673 0.000852 0.000000 -0.003437 0.000000
# 2 -0.002673 0.008114 -0.002886 0.000000 -0.001728 0.000000
# 3 0.000852 -0.002886 0.022660 0.000000 0.002542 0.000000
# 4 0.000000 0.000000 0.000000 0.080451 0.000000 0.002355
# 5 -0.003437 -0.001728 0.002542 0.000000 0.024054 0.000000
# 6 0.000000 0.000000 0.000000 0.002355 0.000000 0.062450
#
#
# Mechanical properties :
#
#
# Convention : Reuss Voigt Hill
#
# Bulk Modulus (GPa) = 33.49891 52.44967 42.97429
# Shear Modulus (GPa) = 22.16473 33.32641 27.74557
#
# Velocity S-wave (km/s) = 3.06027 3.75252 3.42394
# Velocity P-wave (km/s) = 5.16152 6.39818 5.81283
#
# Compressibility (1/GPa) = 0.02985172
#
# Stress axis : x y z
#
# Youngs Moduli (GPa) = 117.77529 123.23849 44.13061
#
# Poissons Ratio (x) = 0.32946 -0.03762
# Poissons Ratio (y) = 0.31485 0.12735
# Poissons Ratio (z) = -0.10040 0.35564
#
# Static dielectric constant tensor:
#      x y z
#    x 1.838570 0.000000 -0.036480 
#    y 0.000000 1.962560 0.000000 
#    z -0.036480 0.000000 2.045110 
# 
# From -- ./inp_files/150629.got.cif
#   From: 2010.05.17/outbox.cif.g08.bks.cpg/sg15_76_cif.got.tgz:150629.got - 2010.06.03 18:47:42.
