data_PCOD9286900
_publ_section_title
;
Structure prediction by ZEFSAII (Michael W. Deem and Ramdas Pophale) SiO2 
 PCOD9286900
Probable space group: C 2/C
;
_chemical_formula_sum "Si O2"
_cell_formula_units_Z 32
_cell_length_a 7.178719
_cell_length_b 27.827492
_cell_length_c 7.563264
_cell_angle_alpha 90.000000
_cell_angle_beta 72.227470
_cell_angle_gamma 90.000000
_cell_volume 1438.775551
_symmetry_space_group_name_H-M "C 2/C"
_symmetry_group_IT_number 15
_symmetry_cell_setting 'monoclinic'
loop_
_space_group_symop_operation_xyz
x,y,z
-x,y,1/2-z
-x,-y,-z
x,-y,1/2+z
1/2+x,1/2+y,z
1/2-x,1/2+y,1/2-z
1/2-x,1/2-y,-z
1/2+x,1/2-y,1/2+z
loop_
_atom_site_type_symbol
_atom_site_label
_atom_site_fract_x
_atom_site_fract_y
_atom_site_fract_z
Si Si1 0.000000 0.720606 0.250000
Si Si2 0.000000 0.973770 0.250000
Si Si3 0.412637 0.599778 0.473590
Si Si4 0.438697 0.298466 0.569127
Si Si5 0.626708 0.041005 0.376092
O O1 0.204002 0.692745 0.158485
O O2 0.998320 0.755970 0.420258
O O3 0.990461 0.938210 0.420828
O O4 0.817761 0.009145 0.273439
O O5 0.500000 0.600732 0.250000
O O6 0.450578 0.653499 0.526596
O O7 0.194232 0.581167 0.496442
O O8 0.500000 0.285887 0.750000
O O9 0.500000 0.060797 0.250000
O O10 0.500000 0.000000 0.500000
#
# Coordination Sequence:
#
# PCOD9286900 Si02
#       5
#     4   4   8   8   8
#     4  10  21  44  74  98 130 180 208 274 355 406
#     4  12  23  44  64  92 142 174 220 292 327 390
#     4  11  23  42  64  99 136 171 224 280 324 394
#     4  10  22  42  69 101 136 168 221 274 336 405
#     4  12  23  41  66  91 129 187 228 266 337 393
#
# _framework density 22.241133999999999
#
# number of rings (size 3 to 8) (size 9 to 14) (size 15 to 20)
#    0.000    1.000    3.750    3.750    0.000    0.000 
#   18.000    0.000   16.500    0.000    0.000    0.000 
#    0.000    0.000    0.000    0.000    0.000    0.000 
#
# Total GULP energy -89306.784533 kJ/mol
# GULP energy per Si atom -5581.674033 kJ/mol
# Density = 2.219051 g / cm^3
# Si number density = 22.241134 Si / 1000 Ang^3
#
#
#
# Elastic Constant Matrix: (Units=GPa)
#
#
# Indices 1 2 3 4 5 6 
#
# 1 118.2863 41.9147 24.8194 0.0000 14.7772 0.0000
# 2 41.9147 80.1623 16.7111 0.0000 15.4791 0.0000
# 3 24.8194 16.7111 79.3219 0.0000 20.4023 0.0000
# 4 0.0000 0.0000 0.0000 14.3695 0.0000 -1.6880
# 5 14.7772 15.4791 20.4023 0.0000 40.4017 0.0000
# 6 0.0000 0.0000 0.0000 -1.6880 0.0000 33.4004
#
#
#
# Elastic Compliance Matrix: (Units=1/GPa)
#
#
# Indices 1 2 3 4 5 6 
#
# 1 0.010789 -0.005022 -0.002066 0.000000 -0.000979 0.000000
# 2 -0.005022 0.016020 -0.000802 0.000000 -0.003896 0.000000
# 3 -0.002066 -0.000802 0.015112 0.000000 -0.006568 0.000000
# 4 0.000000 0.000000 0.000000 0.070008 0.000000 0.003538
# 5 -0.000979 -0.003896 -0.006568 0.000000 0.029919 0.000000
# 6 0.000000 0.000000 0.000000 0.003538 0.000000 0.030119
#
#
# Mechanical properties :
#
#
# Convention : Reuss Voigt Hill
#
# Bulk Modulus (GPa) = 38.25277 49.40678 43.82977
# Shear Modulus (GPa) = 25.45059 30.58933 28.01996
#
# Velocity S-wave (km/s) = 3.38642 3.71259 3.55325
# Velocity P-wave (km/s) = 5.70324 6.37496 6.04843
#
# Compressibility (1/GPa) = 0.02614190
#
# Stress axis : x y z
#
# Youngs Moduli (GPa) = 92.68408 62.42256 66.17409
#
# Poissons Ratio (x) = 0.31347 0.13673
# Poissons Ratio (y) = 0.46543 0.05304
# Poissons Ratio (z) = 0.19150 0.05004
#
# Static dielectric constant tensor:
#      x y z
#    x 1.933940 0.000000 -0.022490 
#    y 0.000000 1.854510 0.000000 
#    z -0.022490 0.000000 1.839490 
# 
# From -- ./inp_files/20257.got.cif
#   From: 2010.05.17/outbox.cif.g08.bks.cpg/sg15_11_cif.got.tgz:20257.got - 2010.06.03 18:47:42.
