data_PCOD9286849
_publ_section_title
;
Structure prediction by ZEFSAII (Michael W. Deem and Ramdas Pophale) SiO2 
 PCOD9286849
Probable space group: C 2/C
;
_chemical_formula_sum "Si O2"
_cell_formula_units_Z 44
_cell_length_a 8.062643
_cell_length_b 11.837200
_cell_length_c 27.506933
_cell_angle_alpha 90.000000
_cell_angle_beta 51.922346
_cell_angle_gamma 90.000000
_cell_volume 2066.522873
_symmetry_space_group_name_H-M "C 2/C"
_symmetry_group_IT_number 15
_symmetry_cell_setting 'monoclinic'
loop_
_space_group_symop_operation_xyz
x,y,z
-x,y,1/2-z
-x,-y,-z
x,-y,1/2+z
1/2+x,1/2+y,z
1/2-x,1/2+y,1/2-z
1/2-x,1/2-y,-z
1/2+x,1/2-y,1/2+z
loop_
_atom_site_type_symbol
_atom_site_label
_atom_site_fract_x
_atom_site_fract_y
_atom_site_fract_z
Si Si1 0.033827 0.221620 0.923918
Si Si2 0.288977 0.637632 0.835049
Si Si3 0.000000 0.064598 0.250000
Si Si4 0.952616 0.654010 0.176569
Si Si5 0.454606 0.902584 0.314719
Si Si6 0.599691 0.878338 0.473144
O O1 0.007630 0.319033 0.887523
O O2 0.243230 0.157020 0.870741
O O3 0.831536 0.140085 0.955217
O O4 0.036482 0.281648 0.975568
O O5 0.420494 0.520861 0.806604
O O6 0.446276 0.741288 0.813803
O O7 0.138593 0.636768 0.909008
O O8 0.146539 0.640940 0.813069
O O9 0.202532 0.136117 0.228540
O O10 0.056799 0.536882 0.173635
O O11 0.500000 0.884344 0.250000
O O12 0.500000 0.000000 0.500000
#
# Coordination Sequence:
#
# PCOD9286849 Si02
#       6
#     8   8   4   8   8   8
#     4  10  24  43  68 100 136 175 228 287 336 407
#     4  10  24  43  66 100 138 178 231 278 337 413
#     4  10  22  38  64  98 134 174 228 270 336 414
#     4  10  24  43  67  96 135 178 218 280 342 402
#     4  11  26  43  66 101 138 182 232 284 344 401
#     4  10  21  44  70  96 136 181 227 282 341 403
#
# _framework density 21.291805
#
# number of rings (size 3 to 8) (size 9 to 14) (size 15 to 20)
#    0.000    1.818    0.000    2.182   12.727    2.182 
#    3.273   12.727    0.000    0.000    0.000    0.000 
#    0.000    0.000    0.000    0.000    0.000    0.000 
#
# Total GULP energy -123066.276917 kJ/mol
# GULP energy per Si atom -5593.921678 kJ/mol
# Density = 2.124334 g / cm^3
# Si number density = 21.291805 Si / 1000 Ang^3
#
#
#
# Elastic Constant Matrix: (Units=GPa)
#
#
# Indices 1 2 3 4 5 6 
#
# 1 96.8692 80.0278 74.3653 0.0000 -0.8876 0.0000
# 2 80.0278 154.3392 82.2072 0.0000 -8.2458 0.0000
# 3 74.3653 82.2072 171.6911 -0.0002 0.2777 0.0001
# 4 0.0000 0.0000 -0.0002 11.5840 0.0001 1.1188
# 5 -0.8876 -8.2458 0.2777 0.0001 42.6479 0.0000
# 6 0.0000 0.0000 0.0001 1.1188 0.0000 43.7770
#
#
#
# Elastic Compliance Matrix: (Units=1/GPa)
#
#
# Indices 1 2 3 4 5 6 
#
# 1 0.021106 -0.008236 -0.005197 0.000000 -0.001119 0.000000
# 2 -0.008236 0.012037 -0.002200 0.000000 0.002170 0.000000
# 3 -0.005197 -0.002200 0.009130 0.000000 -0.000593 0.000000
# 4 0.000000 0.000000 0.000000 0.086539 0.000000 -0.002212
# 5 -0.001119 0.002170 -0.000593 0.000000 0.023848 0.000000
# 6 0.000000 0.000000 0.000000 -0.002212 0.000000 0.022900
#
#
# Mechanical properties :
#
#
# Convention : Reuss Voigt Hill
#
# Bulk Modulus (GPa) = 90.83933 99.56667 95.20300
# Shear Modulus (GPa) = 23.75356 32.02173 27.88764
#
# Velocity S-wave (km/s) = 3.34371 3.88228 3.62302
# Velocity P-wave (km/s) = 7.59367 8.18294 7.89381
#
# Compressibility (1/GPa) = 0.01100845
#
# Stress axis : x y z
#
# Youngs Moduli (GPa) = 47.37897 83.07435 109.53457
#
# Poissons Ratio (x) = 0.68419 0.56921
# Poissons Ratio (y) = 0.39021 0.24096
# Poissons Ratio (z) = 0.24621 0.18275
#
# Static dielectric constant tensor:
#      x y z
#    x 1.762680 0.000000 0.004610 
#    y 0.000000 1.770640 0.000000 
#    z 0.004610 0.000000 1.785120 
# 
# From -- ./inp_files/287865.got.cif
#   From: 2010.05.17/outbox.cif.g08.bks.cpg/sg15_144_cif.got.tgz:287865.got - 2010.06.03 18:47:42.
