data_PCOD9286303
_publ_section_title
;
Structure prediction by ZEFSAII (Michael W. Deem and Ramdas Pophale) SiO2 
 PCOD9286303
Probable space group: C 2/C
;
_chemical_formula_sum "Si O2"
_cell_formula_units_Z 64
_cell_length_a 14.405042
_cell_length_b 15.056996
_cell_length_c 16.410233
_cell_angle_alpha 90.000000
_cell_angle_beta 52.434031
_cell_angle_gamma 90.000000
_cell_volume 2821.305509
_symmetry_space_group_name_H-M "C 2/C"
_symmetry_group_IT_number 15
_symmetry_cell_setting 'monoclinic'
loop_
_space_group_symop_operation_xyz
x,y,z
-x,y,1/2-z
-x,-y,-z
x,-y,1/2+z
1/2+x,1/2+y,z
1/2-x,1/2+y,1/2-z
1/2-x,1/2-y,-z
1/2+x,1/2-y,1/2+z
loop_
_atom_site_type_symbol
_atom_site_label
_atom_site_fract_x
_atom_site_fract_y
_atom_site_fract_z
Si Si1 0.761309 0.331097 0.848313
Si Si2 0.918925 0.623254 0.120096
Si Si3 0.469519 0.402240 0.483245
Si Si4 0.622272 0.689528 0.148799
Si Si5 0.237961 0.517357 0.405474
Si Si6 0.136995 0.775653 0.451695
Si Si7 0.126558 0.842567 0.140968
Si Si8 0.402756 0.978509 0.865310
O O1 0.831168 0.324001 0.726619
O O2 0.800772 0.248646 0.884102
O O3 0.813065 0.421634 0.859647
O O4 0.624167 0.350269 0.909263
O O5 0.853795 0.538955 0.116476
O O6 0.938463 0.689791 0.035050
O O7 0.027374 0.591877 0.115084
O O8 0.500000 0.500000 0.500000
O O9 0.593430 0.353114 0.417146
O O10 0.407471 0.382031 0.429923
O O11 0.500000 0.716256 0.250000
O O12 0.659196 0.589766 0.153364
O O13 0.727831 0.750097 0.124005
O O14 0.616046 0.696224 0.055182
O O15 0.292207 0.420659 0.367714
O O16 0.171767 0.532562 0.528141
O O17 0.000000 0.829361 0.250000
O O18 0.500000 0.017482 0.750000
#
# Coordination Sequence:
#
# PCOD9286303 Si02
#       8
#     8   8   8   8   8   8   8   8
#     4  11  24  44  70  97 141 193 230 298 369 418
#     4  10  23  43  67  99 137 184 236 292 352 420
#     4  12  26  42  71 104 144 179 238 303 351 429
#     4  10  23  46  68  94 139 186 224 294 361 418
#     4  11  23  40  70 103 140 181 241 293 356 424
#     4  10  23  41  69  96 132 177 237 274 354 436
#     4  12  25  43  70 104 144 190 244 295 358 439
#     4  10  21  43  66  92 139 186 231 291 357 415
#
# _framework density 22.684533999999999
#
# number of rings (size 3 to 8) (size 9 to 14) (size 15 to 20)
#    0.000    1.250    1.250    4.500    7.000    0.000 
#    0.000    5.625    0.000    0.000    0.000    0.000 
#    0.000    0.000    0.000    0.000    0.000    0.000 
#
# Total GULP energy -178727.526683 kJ/mol
# GULP energy per Si atom -5585.235209 kJ/mol
# Density = 2.263290 g / cm^3
# Si number density = 22.684534 Si / 1000 Ang^3
#
#
#
# Elastic Constant Matrix: (Units=GPa)
#
#
# Indices 1 2 3 4 5 6 
#
# 1 77.7491 22.1883 13.2170 0.0000 -3.4876 0.0000
# 2 22.1883 78.0168 10.4365 0.0000 -7.2539 0.0000
# 3 13.2170 10.4365 50.9105 0.0000 -12.1938 0.0000
# 4 0.0000 0.0000 0.0000 -6.3248 0.0000 21.9609
# 5 -3.4876 -7.2539 -12.1938 0.0000 18.2229 0.0000
# 6 0.0000 0.0000 0.0000 21.9609 0.0000 32.4464
#
#
#
# Elastic Compliance Matrix: (Units=1/GPa)
#
#
# Indices 1 2 3 4 5 6 
#
# 1 0.014438 -0.003761 -0.003184 0.000000 -0.000865 0.000000
# 2 -0.003761 0.014420 -0.000926 0.000000 0.004401 0.000000
# 3 -0.003184 -0.000926 0.024323 0.000000 0.015298 0.000000
# 4 0.000000 0.000000 0.000000 -0.047195 0.000000 0.031943
# 5 -0.000865 0.004401 0.015298 0.000000 0.066699 0.000000
# 6 0.000000 0.000000 0.000000 0.031943 0.000000 0.009200
#
#
# Mechanical properties :
#
#
# Convention : Reuss Voigt Hill
#
# Bulk Modulus (GPa) = 26.70978 33.15113 29.93045
# Shear Modulus (GPa) = 45.41108 19.59121 32.50114
#
# Velocity S-wave (km/s) = 4.47906 2.94196 3.78927
# Velocity P-wave (km/s) = 6.20881 5.11721 5.68925
#
# Compressibility (1/GPa) = 0.03743947
#
# Stress axis : x y z
#
# Youngs Moduli (GPa) = 69.26355 69.34669 41.11378
#
# Poissons Ratio (x) = 0.26078 0.13092
# Poissons Ratio (y) = 0.26047 0.03806
# Poissons Ratio (z) = 0.22056 0.06420
#
# Static dielectric constant tensor:
#      x y z
#    x 1.789080 0.000000 0.028200 
#    y 0.000000 1.858450 0.000000 
#    z 0.028200 0.000000 1.923310 
# 
# From -- ./inp_files/205719.got.cif
#   From: 2010.05.17/outbox.cif.g08.bks.cpg/sg15_103_cif.got.tgz:205719.got - 2010.06.03 18:47:42.
