data_PCOD9286127
_publ_section_title
;
Structure prediction by ZEFSAII (Michael W. Deem and Ramdas Pophale) SiO2 
 PCOD9286127
Probable space group: C 2/C
;
_chemical_formula_sum "Si O2"
_cell_formula_units_Z 48
_cell_length_a 5.175986
_cell_length_b 24.210958
_cell_length_c 15.937290
_cell_angle_alpha 90.000000
_cell_angle_beta 101.313142
_cell_angle_gamma 90.000000
_cell_volume 1958.384696
_symmetry_space_group_name_H-M "C 2/C"
_symmetry_group_IT_number 15
_symmetry_cell_setting 'monoclinic'
loop_
_space_group_symop_operation_xyz
x,y,z
-x,y,1/2-z
-x,-y,-z
x,-y,1/2+z
1/2+x,1/2+y,z
1/2-x,1/2+y,1/2-z
1/2-x,1/2-y,-z
1/2+x,1/2-y,1/2+z
loop_
_atom_site_type_symbol
_atom_site_label
_atom_site_fract_x
_atom_site_fract_y
_atom_site_fract_z
Si Si1 0.670967 0.506769 0.846990
Si Si2 0.114796 0.902805 0.611477
Si Si3 0.461423 0.715231 0.347368
Si Si4 0.000000 0.447556 0.750000
Si Si5 0.222942 0.820665 0.109963
Si Si6 0.807405 0.382392 0.449526
Si Si7 0.000000 0.222038 0.750000
O O1 0.500000 0.511944 0.750000
O O2 0.562061 0.457745 0.899473
O O3 0.695902 0.564126 0.894667
O O4 0.946189 0.485910 0.826091
O O5 0.981446 0.843319 0.607701
O O6 0.263550 0.908571 0.709619
O O7 0.319673 0.898812 0.547901
O O8 0.500000 0.710237 0.250000
O O9 0.651846 0.760809 0.399439
O O10 0.162282 0.739700 0.325904
O O11 0.428381 0.862602 0.080010
O O12 0.924956 0.836690 0.067795
O O13 0.197236 0.817069 0.210395
#
# Coordination Sequence:
#
# PCOD9286127 Si02
#       7
#     8   8   8   4   8   8   4
#     4  10  25  44  70 103 136 189 240 292 351 425
#     4  11  25  46  70 106 140 189 237 297 355 422
#     4  10  21  42  72  99 141 186 245 292 344 420
#     4  10  23  44  72 104 134 186 251 282 358 422
#     4  11  26  45  69 108 137 195 229 293 355 422
#     4  12  28  45  73 106 151 182 233 297 361 422
#     4  10  21  44  70 104 142 186 247 284 348 426
#
# _framework density 24.509993999999999
#
# number of rings (size 3 to 8) (size 9 to 14) (size 15 to 20)
#    0.000    1.333    1.667    2.500    8.167    3.333 
#    0.000    0.000    0.000    0.000    0.000    0.000 
#    0.000    0.000    0.000    0.000    0.000    0.000 
#
# Total GULP energy -134016.320875 kJ/mol
# GULP energy per Si atom -5584.013370 kJ/mol
# Density = 2.445421 g / cm^3
# Si number density = 24.509994 Si / 1000 Ang^3
#
#
#
# Elastic Constant Matrix: (Units=GPa)
#
#
# Indices 1 2 3 4 5 6 
#
# 1 82.9808 -7.9272 4.9399 0.0000 -12.6412 0.0000
# 2 -7.9272 81.3044 33.9076 0.0000 -11.1794 0.0000
# 3 4.9399 33.9076 66.7346 0.0000 -17.5172 0.0000
# 4 0.0000 0.0000 0.0000 -3.2779 0.0000 -6.5268
# 5 -12.6412 -11.1794 -17.5172 0.0000 38.2786 0.0000
# 6 0.0000 0.0000 0.0000 -6.5268 0.0000 26.9718
#
#
#
# Elastic Compliance Matrix: (Units=1/GPa)
#
#
# Indices 1 2 3 4 5 6 
#
# 1 0.013016 0.002282 -0.000931 0.000000 0.004538 0.000000
# 2 0.002282 0.016044 -0.007834 0.000000 0.001854 0.000000
# 3 -0.000931 -0.007834 0.020858 0.000000 0.006950 0.000000
# 4 0.000000 0.000000 0.000000 -0.205877 0.000000 -0.049819
# 5 0.004538 0.001854 0.006950 0.000000 0.031345 0.000000
# 6 0.000000 0.000000 0.000000 -0.049819 0.000000 0.025020
#
#
# Mechanical properties :
#
#
# Convention : Reuss Voigt Hill
#
# Bulk Modulus (GPa) = 27.06345 32.54004 29.80174
# Shear Modulus (GPa) = -67.28644 25.73449 -20.77598
#
# Velocity S-wave (km/s) = -5.24521 3.24382 -2.91461
# Velocity P-wave (km/s) = 5.06135 5.22828 0.92673
#
# Compressibility (1/GPa) = 0.03695021
#
# Stress axis : x y z
#
# Youngs Moduli (GPa) = 76.82990 62.32850 47.94232
#
# Poissons Ratio (x) = -0.14220 0.04465
# Poissons Ratio (y) = -0.17529 0.37559
# Poissons Ratio (z) = 0.07156 0.48829
#
# Static dielectric constant tensor:
#      x y z
#    x 2.070870 0.000000 -0.001570 
#    y 0.000000 1.939990 0.000000 
#    z -0.001570 0.000000 1.983160 
# 
# From -- ./inp_files/185356.got.cif
#   From: 2010.05.17/outbox.cif.g08.bks.cpg/sg15_93_cif.got.tgz:185356.got - 2010.06.03 18:47:42.
