data_PCOD9286563
_publ_section_title
;
Structure prediction by ZEFSAII (Michael W. Deem and Ramdas Pophale) SiO2 
 PCOD9286563
Probable space group: C 2/C
;
_chemical_formula_sum "Si O2"
_cell_formula_units_Z 64
_cell_length_a 11.218652
_cell_length_b 11.595426
_cell_length_c 24.545549
_cell_angle_alpha 90.000000
_cell_angle_beta 69.519317
_cell_angle_gamma 90.000000
_cell_volume 2991.179511
_symmetry_space_group_name_H-M "C 2/C"
_symmetry_group_IT_number 15
_symmetry_cell_setting 'monoclinic'
loop_
_space_group_symop_operation_xyz
x,y,z
-x,y,1/2-z
-x,-y,-z
x,-y,1/2+z
1/2+x,1/2+y,z
1/2-x,1/2+y,1/2-z
1/2-x,1/2-y,-z
1/2+x,1/2-y,1/2+z
loop_
_atom_site_type_symbol
_atom_site_label
_atom_site_fract_x
_atom_site_fract_y
_atom_site_fract_z
Si Si1 0.543913 0.479834 0.930571
Si Si2 0.205227 0.585863 0.054304
Si Si3 0.739707 0.361657 0.170354
Si Si4 0.035426 0.574616 0.636750
Si Si5 0.871872 0.621054 0.291860
Si Si6 0.829901 0.061260 0.260790
Si Si7 0.122985 0.157308 0.576091
Si Si8 0.064506 0.159216 0.152330
O O1 0.687225 0.438049 0.916570
O O2 0.517147 0.604646 0.908636
O O3 0.462276 0.395151 0.903862
O O4 0.500000 0.500000 0.000000
O O5 0.108530 0.478885 0.072573
O O6 0.129212 0.704842 0.075572
O O7 0.285540 0.610356 0.986775
O O8 0.720551 0.225193 0.176033
O O9 0.656909 0.426092 0.229146
O O10 0.682168 0.391633 0.121301
O O11 0.884749 0.405470 0.151933
O O12 0.078433 0.480512 0.675672
O O13 0.079429 0.703726 0.644179
O O14 0.797777 0.569025 0.252916
O O15 0.000000 0.679336 0.250000
O O16 0.939721 0.118529 0.206745
O O17 0.828241 0.117893 0.321425
#
# Coordination Sequence:
#
# PCOD9286563 Si02
#       8
#     8   8   8   8   8   8   8   8
#     4  10  21  44  73 100 139 186 228 289 349 411
#     4  10  22  43  70 103 136 186 222 292 359 402
#     4  12  24  45  68  99 142 180 238 289 339 425
#     4  12  25  44  71  99 141 184 235 286 356 422
#     4  12  26  43  66 100 137 184 235 285 350 416
#     4  11  25  42  67  97 141 190 227 291 350 412
#     4  10  21  43  72 101 139 175 238 286 344 421
#     4  11  24  43  66 101 141 186 233 290 358 413
#
# _framework density 21.396242000000001
#
# number of rings (size 3 to 8) (size 9 to 14) (size 15 to 20)
#    0.000    1.000    5.000    1.500    5.250    0.500 
#    4.500    2.500    0.000    0.000    0.000    0.000 
#    0.000    0.000    0.000    0.000    0.000    0.000 
#
# Total GULP energy -178178.803410 kJ/mol
# GULP energy per Si atom -5568.087607 kJ/mol
# Density = 2.134754 g / cm^3
# Si number density = 21.396242 Si / 1000 Ang^3
#
#
#
# Elastic Constant Matrix: (Units=GPa)
#
#
# Indices 1 2 3 4 5 6 
#
# 1 91.2626 41.7489 32.4412 0.0000 22.3942 0.0000
# 2 41.7489 151.6445 49.3173 0.0000 -0.6927 0.0000
# 3 32.4412 49.3173 80.6085 0.0000 21.0290 0.0000
# 4 0.0000 0.0000 0.0000 28.6421 0.0000 -2.0132
# 5 22.3942 -0.6927 21.0290 0.0000 35.5232 0.0000
# 6 0.0000 0.0000 0.0000 -2.0132 0.0000 35.1765
#
#
#
# Elastic Compliance Matrix: (Units=1/GPa)
#
#
# Indices 1 2 3 4 5 6 
#
# 1 0.015419 -0.003768 -0.001591 0.000000 -0.008852 0.000000
# 2 -0.003768 0.009590 -0.005936 0.000000 0.006076 0.000000
# 3 -0.001591 -0.005936 0.019450 0.000000 -0.010627 0.000000
# 4 0.000000 0.000000 0.000000 0.035055 0.000000 0.002006
# 5 -0.008852 0.006076 -0.010627 0.000000 0.040140 0.000000
# 6 0.000000 0.000000 0.000000 0.002006 0.000000 0.028543
#
#
# Mechanical properties :
#
#
# Convention : Reuss Voigt Hill
#
# Bulk Modulus (GPa) = 45.72675 63.39226 54.55950
# Shear Modulus (GPa) = 28.07797 33.20223 30.64010
#
# Velocity S-wave (km/s) = 3.62648 3.94354 3.78833
# Velocity P-wave (km/s) = 6.24123 7.10122 6.68507
#
# Compressibility (1/GPa) = 0.02186904
#
# Stress axis : x y z
#
# Youngs Moduli (GPa) = 64.85659 104.27557 51.41414
#
# Poissons Ratio (x) = 0.39291 0.08179
# Poissons Ratio (y) = 0.24438 0.30520
# Poissons Ratio (z) = 0.10317 0.61898
#
# Static dielectric constant tensor:
#      x y z
#    x 1.821880 0.000000 -0.011260 
#    y 0.000000 1.795630 0.000000 
#    z -0.011260 0.000000 1.939630 
# 
# From -- ./inp_files/268829.got.cif
#   From: 2010.05.17/outbox.cif.g08.bks.cpg/sg15_135_cif.got.tgz:268829.got - 2010.06.03 18:47:42.
