data_PCOD9286259
_publ_section_title
;
Structure prediction by ZEFSAII (Michael W. Deem and Ramdas Pophale) SiO2 
 PCOD9286259
Probable space group: C 2/C
;
_chemical_formula_sum "Si O2"
_cell_formula_units_Z 48
_cell_length_a 12.809472
_cell_length_b 10.141124
_cell_length_c 15.746867
_cell_angle_alpha 90.000000
_cell_angle_beta 107.084379
_cell_angle_gamma 90.000000
_cell_volume 1955.292534
_symmetry_space_group_name_H-M "C 2/C"
_symmetry_group_IT_number 15
_symmetry_cell_setting 'monoclinic'
loop_
_space_group_symop_operation_xyz
x,y,z
-x,y,1/2-z
-x,-y,-z
x,-y,1/2+z
1/2+x,1/2+y,z
1/2-x,1/2+y,1/2-z
1/2-x,1/2-y,-z
1/2+x,1/2-y,1/2+z
loop_
_atom_site_type_symbol
_atom_site_label
_atom_site_fract_x
_atom_site_fract_y
_atom_site_fract_z
Si Si1 0.931894 0.339167 0.346131
Si Si2 0.397087 0.782961 0.979018
Si Si3 0.751914 0.456995 0.418631
Si Si4 0.440121 0.856455 0.816322
Si Si5 0.370653 0.497044 0.949537
Si Si6 0.817972 0.886222 0.750838
O O1 0.830811 0.355559 0.388871
O O2 0.962105 0.487148 0.327939
O O3 0.887554 0.246753 0.261560
O O4 0.031474 0.276359 0.420264
O O5 0.330338 0.918401 0.959970
O O6 0.472901 0.793194 0.913209
O O7 0.331264 0.649067 0.950495
O O8 0.691415 0.418922 0.490420
O O9 0.671487 0.515833 0.326486
O O10 0.500000 0.798714 0.750000
O O11 0.309651 0.846691 0.776400
O O12 0.347925 0.450696 0.848568
O O13 0.500000 0.500000 0.000000
#
# Coordination Sequence:
#
# PCOD9286259 Si02
#       6
#     8   8   8   8   8   8
#     4  10  21  43  65  92 126 164 217 261 314 385
#     4  10  22  43  63  94 126 164 219 257 321 379
#     4  10  25  41  69  90 131 169 214 266 315 370
#     4  10  24  39  67  94 123 166 215 268 314 373
#     4  12  25  43  63  96 129 174 209 263 322 387
#     4  10  24  42  64  95 132 164 215 260 324 377
#
# _framework density 24.548756000000001
#
# number of rings (size 3 to 8) (size 9 to 14) (size 15 to 20)
#    0.000    2.000    1.667    2.500   14.000    4.000 
#    0.000    0.000    0.000    0.000    0.000    0.000 
#    0.000    0.000    0.000    0.000    0.000    0.000 
#
# Total GULP energy -134286.823701 kJ/mol
# GULP energy per Si atom -5595.284321 kJ/mol
# Density = 2.449288 g / cm^3
# Si number density = 24.548756 Si / 1000 Ang^3
#
#
#
# Elastic Constant Matrix: (Units=GPa)
#
#
# Indices 1 2 3 4 5 6 
#
# 1 36.6002 -8.9238 17.9557 0.0000 -19.1893 0.0000
# 2 -8.9238 62.3378 5.5607 0.0000 11.2271 0.0000
# 3 17.9557 5.5607 126.4853 0.0000 1.7997 0.0000
# 4 0.0000 0.0000 0.0000 22.2901 0.0000 12.7915
# 5 -19.1893 11.2271 1.7997 0.0000 46.8330 0.0000
# 6 0.0000 0.0000 0.0000 12.7915 0.0000 9.2418
#
#
#
# Elastic Compliance Matrix: (Units=1/GPa)
#
#
# Indices 1 2 3 4 5 6 
#
# 1 0.039156 0.003348 -0.005926 0.000000 0.015469 0.000000
# 2 0.003348 0.017110 -0.001189 0.000000 -0.002684 0.000000
# 3 -0.005926 -0.001189 0.008835 0.000000 -0.002482 0.000000
# 4 0.000000 0.000000 0.000000 0.218086 0.000000 -0.301853
# 5 0.015469 -0.002684 -0.002482 0.000000 0.028430 0.000000
# 6 0.000000 0.000000 0.000000 -0.301853 0.000000 0.526000
#
#
# Mechanical properties :
#
#
# Convention : Reuss Voigt Hill
#
# Bulk Modulus (GPa) = 17.37111 28.28983 22.83047
# Shear Modulus (GPa) = 5.78476 29.72835 17.75655
#
# Velocity S-wave (km/s) = 1.53673 3.48371 2.69237
# Velocity P-wave (km/s) = 3.20004 5.26598 4.35723
#
# Compressibility (1/GPa) = 0.05756686
#
# Stress axis : x y z
#
# Youngs Moduli (GPa) = 25.53890 58.44384 113.18762
#
# Poissons Ratio (x) = -0.19566 0.67073
# Poissons Ratio (y) = -0.08550 0.13461
# Poissons Ratio (z) = 0.15134 0.06951
#
# Static dielectric constant tensor:
#      x y z
#    x 1.990960 0.000000 -0.044720 
#    y 0.000000 1.984560 0.000000 
#    z -0.044720 0.000000 1.930040 
# 
# From -- ./inp_files/152200.got.cif
#   From: 2010.05.17/outbox.cif.g08.bks.cpg/sg15_77_cif.got.tgz:152200.got - 2010.06.03 18:47:42.
