data_PCOD9286205
_publ_section_title
;
Structure prediction by ZEFSAII (Michael W. Deem and Ramdas Pophale) SiO2 
 PCOD9286205
Probable space group: C 2/C
;
_chemical_formula_sum "Si O2"
_cell_formula_units_Z 52
_cell_length_a 27.880661
_cell_length_b 15.146280
_cell_length_c 16.255608
_cell_angle_alpha 90.000000
_cell_angle_beta 160.027202
_cell_angle_gamma 90.000000
_cell_volume 2344.752648
_symmetry_space_group_name_H-M "C 2/C"
_symmetry_group_IT_number 15
_symmetry_cell_setting 'monoclinic'
loop_
_space_group_symop_operation_xyz
x,y,z
-x,y,1/2-z
-x,-y,-z
x,-y,1/2+z
1/2+x,1/2+y,z
1/2-x,1/2+y,1/2-z
1/2-x,1/2-y,-z
1/2+x,1/2-y,1/2+z
loop_
_atom_site_type_symbol
_atom_site_label
_atom_site_fract_x
_atom_site_fract_y
_atom_site_fract_z
Si Si1 0.832265 0.728845 0.375271
Si Si2 0.223089 0.063143 0.707920
Si Si3 0.832966 0.430245 0.998979
Si Si4 0.223857 0.830935 0.520502
Si Si5 0.500000 0.557765 0.750000
Si Si6 0.495336 0.083202 0.050009
Si Si7 0.631173 0.820665 0.299084
O O1 0.812270 0.833460 0.352959
O O2 0.787561 0.657538 0.372702
O O3 0.766094 0.700036 0.181129
O O4 0.997524 0.713714 0.633114
O O5 0.386055 0.060630 0.943611
O O6 0.120481 0.005202 0.484239
O O7 0.235049 0.011109 0.813187
O O8 0.819727 0.407549 0.073437
O O9 0.000000 0.443568 0.250000
O O10 0.250000 0.750000 0.500000
O O11 0.076944 0.881101 0.303990
O O12 0.343843 0.894409 0.677717
O O13 0.421095 0.160321 0.876760
O O14 0.500000 0.000000 0.000000
O O15 0.750000 0.750000 0.500000
#
# Coordination Sequence:
#
# PCOD9286205 Si02
#       7
#     8   8   8   8   4   8   8
#     4  10  23  42  63  98 131 178 228 277 356 405
#     4  12  25  41  71 100 136 183 229 289 352 410
#     4  10  21  43  63  93 131 171 231 279 333 421
#     4  11  26  46  69 100 143 188 230 290 353 427
#     4  12  26  46  68 102 144 176 234 298 348 414
#     4  11  22  43  63  95 135 178 227 275 351 416
#     4  10  22  38  65  92 128 172 225 285 333 411
#
# _framework density 22.17718
#
# number of rings (size 3 to 8) (size 9 to 14) (size 15 to 20)
#    0.000    1.231    3.077    2.769    7.538    4.923 
#    0.000    1.538    0.000    0.000    0.000    0.000 
#    0.000    0.000    0.000    0.000    0.000    0.000 
#
# Total GULP energy -145010.772738 kJ/mol
# GULP energy per Si atom -5577.337413 kJ/mol
# Density = 2.212670 g / cm^3
# Si number density = 22.177180 Si / 1000 Ang^3
#
#
#
# Elastic Constant Matrix: (Units=GPa)
#
#
# Indices 1 2 3 4 5 6 
#
# 1 56.1573 17.4437 30.2347 0.0000 -0.9032 0.0000
# 2 17.4437 131.0937 47.2144 0.0000 1.7659 0.0000
# 3 30.2347 47.2144 63.1374 0.0000 12.3981 0.0000
# 4 0.0000 0.0000 0.0000 40.3540 0.0000 -2.3550
# 5 -0.9032 1.7659 12.3981 0.0000 30.5325 0.0000
# 6 0.0000 0.0000 0.0000 -2.3550 0.0000 30.8059
#
#
#
# Elastic Compliance Matrix: (Units=1/GPa)
#
#
# Indices 1 2 3 4 5 6 
#
# 1 0.025322 0.001888 -0.014847 0.000000 0.006669 0.000000
# 2 0.001888 0.010804 -0.009640 0.000000 0.003346 0.000000
# 3 -0.014847 -0.009640 0.032745 0.000000 -0.013178 0.000000
# 4 0.000000 0.000000 0.000000 0.024892 0.000000 0.001903
# 5 0.006669 0.003346 -0.013178 0.000000 0.038107 0.000000
# 6 0.000000 0.000000 0.000000 0.001903 0.000000 0.032607
#
#
# Mechanical properties :
#
#
# Convention : Reuss Voigt Hill
#
# Bulk Modulus (GPa) = 42.24434 48.90823 45.57628
# Shear Modulus (GPa) = 22.98157 30.70486 26.84322
#
# Velocity S-wave (km/s) = 3.22261 3.72496 3.48285
# Velocity P-wave (km/s) = 5.73906 6.37195 6.06377
#
# Compressibility (1/GPa) = 0.02367181
#
# Stress axis : x y z
#
# Youngs Moduli (GPa) = 39.49207 92.55956 30.53873
#
# Poissons Ratio (x) = -0.17477 0.45342
# Poissons Ratio (y) = -0.07457 0.29440
# Poissons Ratio (z) = 0.58635 0.89230
#
# Static dielectric constant tensor:
#      x y z
#    x 2.147110 0.000000 -0.208980 
#    y 0.000000 1.900510 0.000000 
#    z -0.208980 0.000000 1.891050 
# 
# From -- ./inp_files/225537.got.cif
#   From: 2010.05.17/outbox.cif.g08.bks.cpg/sg15_113_cif.got.tgz:225537.got - 2010.06.03 18:47:42.
