data_PCOD9286206
_publ_section_title
;
Structure prediction by ZEFSAII (Michael W. Deem and Ramdas Pophale) SiO2 
 PCOD9286206
Probable space group: C 2/C
;
_chemical_formula_sum "Si O2"
_cell_formula_units_Z 48
_cell_length_a 10.652419
_cell_length_b 21.380961
_cell_length_c 9.613201
_cell_angle_alpha 90.000000
_cell_angle_beta 83.976028
_cell_angle_gamma 90.000000
_cell_volume 2177.402401
_symmetry_space_group_name_H-M "C 2/C"
_symmetry_group_IT_number 15
_symmetry_cell_setting 'monoclinic'
loop_
_space_group_symop_operation_xyz
x,y,z
-x,y,1/2-z
-x,-y,-z
x,-y,1/2+z
1/2+x,1/2+y,z
1/2-x,1/2+y,1/2-z
1/2-x,1/2-y,-z
1/2+x,1/2-y,1/2+z
loop_
_atom_site_type_symbol
_atom_site_label
_atom_site_fract_x
_atom_site_fract_y
_atom_site_fract_z
Si Si1 0.018986 0.323012 0.085940
Si Si2 0.167322 0.453124 0.023349
Si Si3 0.872074 0.916761 0.202961
Si Si4 0.634535 0.065808 0.213215
Si Si5 0.987055 0.214856 0.597301
Si Si6 0.757704 0.855880 0.480790
O O1 0.096295 0.387379 0.060313
O O2 0.000000 0.310329 0.250000
O O3 0.880037 0.329410 0.035968
O O4 0.075915 0.263609 0.999273
O O5 0.299192 0.452210 0.091360
O O6 0.099732 0.510669 0.108308
O O7 0.179951 0.458525 0.856901
O O8 0.786867 0.901680 0.347237
O O9 0.000000 0.945697 0.250000
O O10 0.910345 0.849216 0.133240
O O11 0.500000 0.100063 0.250000
O O12 0.739323 0.107541 0.126590
O O13 0.125568 0.191822 0.530893
O O14 0.000000 0.243538 0.750000
#
# Coordination Sequence:
#
# PCOD9286206 Si02
#       6
#     8   8   8   8   8   8
#     4  12  23  37  64  98 131 170 218 266 331 389
#     4  12  25  41  66  98 132 173 220 269 333 395
#     4   9  21  46  66  91 134 175 219 271 324 387
#     4  12  25  41  66  99 135 167 215 277 331 394
#     4   9  23  43  65  91 133 175 217 267 321 388
#     4  10  21  43  63  94 133 171 213 272 326 384
#
# _framework density 22.044616999999999
#
# number of rings (size 3 to 8) (size 9 to 14) (size 15 to 20)
#    0.000    1.667    3.333    2.500    2.333    2.000 
#    0.000   10.000    0.000    0.000    0.000    0.000 
#    0.000    0.000    0.000    0.000    0.000    0.000 
#
# Total GULP energy -134113.864192 kJ/mol
# GULP energy per Si atom -5588.077675 kJ/mol
# Density = 2.199444 g / cm^3
# Si number density = 22.044617 Si / 1000 Ang^3
#
#
#
# Elastic Constant Matrix: (Units=GPa)
#
#
# Indices 1 2 3 4 5 6 
#
# 1 68.4289 27.8214 30.8842 0.0000 -14.9805 0.0000
# 2 27.8214 68.0155 44.1857 0.0000 -7.5870 0.0000
# 3 30.8842 44.1857 172.4628 0.0000 -4.8611 0.0000
# 4 0.0000 0.0000 0.0000 36.1562 0.0000 7.5244
# 5 -14.9805 -7.5870 -4.8611 0.0000 22.5321 0.0000
# 6 0.0000 0.0000 0.0000 7.5244 0.0000 12.7889
#
#
#
# Elastic Compliance Matrix: (Units=1/GPa)
#
#
# Indices 1 2 3 4 5 6 
#
# 1 0.020245 -0.005868 -0.001809 0.000000 0.011094 0.000000
# 2 -0.005868 0.019916 -0.003997 0.000000 0.001942 0.000000
# 3 -0.001809 -0.003997 0.007118 0.000000 -0.001013 0.000000
# 4 0.000000 0.000000 0.000000 0.031517 0.000000 -0.018543
# 5 0.011094 0.001942 -0.001013 0.000000 0.052192 0.000000
# 6 0.000000 0.000000 0.000000 -0.018543 0.000000 0.089102
#
#
# Mechanical properties :
#
#
# Convention : Reuss Voigt Hill
#
# Bulk Modulus (GPa) = 41.78873 57.18776 49.48824
# Shear Modulus (GPa) = 19.88740 28.02983 23.95861
#
# Velocity S-wave (km/s) = 3.00683 3.56968 3.30028
# Velocity P-wave (km/s) = 5.57246 6.55655 6.08443
#
# Compressibility (1/GPa) = 0.02392990
#
# Stress axis : x y z
#
# Youngs Moduli (GPa) = 49.39559 50.21050 140.49209
#
# Poissons Ratio (x) = 0.29464 0.25418
# Poissons Ratio (y) = 0.28986 0.56155
# Poissons Ratio (z) = 0.08937 0.20069
#
# Static dielectric constant tensor:
#      x y z
#    x 1.839010 0.000000 -0.024720 
#    y 0.000000 1.847520 0.000000 
#    z -0.024720 0.000000 1.828870 
# 
# From -- ./inp_files/32048.got.cif
#   From: 2010.05.17/outbox.cif.g08.bks.cpg/sg15_17_cif.got.tgz:32048.got - 2010.06.03 18:47:42.
