data_PCOD9286069
_publ_section_title
;
Structure prediction by ZEFSAII (Michael W. Deem and Ramdas Pophale) SiO2 
 PCOD9286069
Probable space group: C 2/C
;
_chemical_formula_sum "Si O2"
_cell_formula_units_Z 44
_cell_length_a 8.117479
_cell_length_b 30.873715
_cell_length_c 9.573526
_cell_angle_alpha 90.000000
_cell_angle_beta 53.766651
_cell_angle_gamma 90.000000
_cell_volume 1935.303316
_symmetry_space_group_name_H-M "C 2/C"
_symmetry_group_IT_number 15
_symmetry_cell_setting 'monoclinic'
loop_
_space_group_symop_operation_xyz
x,y,z
-x,y,1/2-z
-x,-y,-z
x,-y,1/2+z
1/2+x,1/2+y,z
1/2-x,1/2+y,1/2-z
1/2-x,1/2-y,-z
1/2+x,1/2-y,1/2+z
loop_
_atom_site_type_symbol
_atom_site_label
_atom_site_fract_x
_atom_site_fract_y
_atom_site_fract_z
Si Si1 0.908526 0.965963 0.942040
Si Si2 0.528554 0.793941 0.401693
Si Si3 0.585833 0.111094 0.973869
Si Si4 0.321620 0.386655 0.634154
Si Si5 0.000000 0.443177 0.250000
Si Si6 0.721698 0.791219 0.716338
O O1 0.000000 0.978497 0.750000
O O2 0.987045 0.916723 0.927960
O O3 0.668840 0.969409 0.082537
O O4 0.000000 0.000000 0.000000
O O5 0.500000 0.795474 0.250000
O O6 0.618460 0.839194 0.411753
O O7 0.321597 0.789960 0.595627
O O8 0.665603 0.752981 0.375531
O O9 0.360106 0.106514 0.159494
O O10 0.737572 0.100060 0.023870
O O11 0.601432 0.084597 0.823391
O O12 0.348289 0.334689 0.619594
O O13 0.500000 0.795078 0.750000
#
# Coordination Sequence:
#
# PCOD9286069 Si02
#       6
#     8   8   8   8   4   8
#     4  12  30  51  77 112 143 182 232 297 365 433
#     4  11  22  38  58  97 143 182 243 288 341 403
#     4  10  21  42  71 101 142 196 236 291 348 426
#     4  10  22  46  70  96 146 188 237 293 363 422
#     4  12  26  48  78 108 146 182 242 286 358 436
#     4  11  22  39  63  95 138 193 237 288 350 408
#
# _framework density 22.735455999999999
#
# number of rings (size 3 to 8) (size 9 to 14) (size 15 to 20)
#    0.000    1.091    6.364    1.091    2.545    4.364 
#    0.000    0.000    0.000    0.000    0.000    0.000 
#    0.000    0.000    0.000    0.000    0.000    0.000 
#
# Total GULP energy -123022.609816 kJ/mol
# GULP energy per Si atom -5591.936810 kJ/mol
# Density = 2.268371 g / cm^3
# Si number density = 22.735456 Si / 1000 Ang^3
#
#
#
# Elastic Constant Matrix: (Units=GPa)
#
#
# Indices 1 2 3 4 5 6 
#
# 1 46.1117 16.9791 44.0954 0.0000 12.2736 0.0000
# 2 16.9791 53.3658 33.2415 0.0000 -2.4028 0.0000
# 3 44.0954 33.2415 154.0090 0.0000 25.4736 0.0000
# 4 0.0000 0.0000 0.0000-2965.5088 0.0000 1309.8024
# 5 12.2736 -2.4028 25.4736 0.0000 39.0512 0.0000
# 6 0.0000 0.0000 0.0000 1309.8024 0.0000 -535.9051
#
#
#
# Elastic Compliance Matrix: (Units=1/GPa)
#
#
# Indices 1 2 3 4 5 6 
#
# 1 0.032142 -0.006219 -0.006867 0.000000 -0.006005 0.000000
# 2 -0.006219 0.023726 -0.004378 0.000000 0.006270 0.000000
# 3 -0.006867 -0.004378 0.010191 0.000000 -0.004759 0.000000
# 4 0.000000 0.000000 0.000000 0.004241 0.000000 0.010366
# 5 -0.006005 0.006270 -0.004759 0.000000 0.030985 0.000000
# 6 0.000000 0.000000 0.000000 0.010366 0.000000 0.023470
#
#
# Mechanical properties :
#
#
# Convention : Reuss Voigt Hill
#
# Bulk Modulus (GPa) = 32.12163 49.12427 40.62295
# Shear Modulus (GPa) = 29.40122 -681.86116 -326.22997
#
# Velocity S-wave (km/s) = 3.59999 -17.33672 -11.99171
# Velocity P-wave (km/s) = 5.60705 19.47038 13.18439
#
# Compressibility (1/GPa) = 0.03113167
#
# Stress axis : x y z
#
# Youngs Moduli (GPa) = 31.11225 42.14713 98.12298
#
# Poissons Ratio (x) = 0.26212 0.67382
# Poissons Ratio (y) = 0.19349 0.42954
# Poissons Ratio (z) = 0.21365 0.18450
#
# Static dielectric constant tensor:
#      x y z
#    x 1.955730 0.000000 -0.010640 
#    y 0.000000 1.861280 0.000000 
#    z -0.010640 0.000000 1.855410 
# 
# From -- ./inp_files/25988.got.cif
#   From: 2010.05.17/outbox.cif.g08.bks.cpg/sg15_13_cif.got.tgz:25988.got - 2010.06.03 18:47:42.
