data_PCOD9286838
_publ_section_title
;
Structure prediction by ZEFSAII (Michael W. Deem and Ramdas Pophale) SiO2 
 PCOD9286838
Probable space group: C 2/C
;
_chemical_formula_sum "Si O2"
_cell_formula_units_Z 56
_cell_length_a 24.510853
_cell_length_b 14.048462
_cell_length_c 9.452302
_cell_angle_alpha 90.000000
_cell_angle_beta 118.246613
_cell_angle_gamma 90.000000
_cell_volume 2867.217460
_symmetry_space_group_name_H-M "C 2/C"
_symmetry_group_IT_number 15
_symmetry_cell_setting 'monoclinic'
loop_
_space_group_symop_operation_xyz
x,y,z
-x,y,1/2-z
-x,-y,-z
x,-y,1/2+z
1/2+x,1/2+y,z
1/2-x,1/2+y,1/2-z
1/2-x,1/2-y,-z
1/2+x,1/2-y,1/2+z
loop_
_atom_site_type_symbol
_atom_site_label
_atom_site_fract_x
_atom_site_fract_y
_atom_site_fract_z
Si Si1 0.485053 0.797120 0.945219
Si Si2 0.000000 0.132242 0.750000
Si Si3 0.000000 0.624830 0.750000
Si Si4 0.133301 0.101851 0.981769
Si Si5 0.287384 0.074836 0.675517
Si Si6 0.099078 0.537279 0.290960
Si Si7 0.794844 0.989824 0.675736
Si Si8 0.370690 0.186416 0.943221
O O1 0.474291 0.701711 0.843238
O O2 0.447021 0.884621 0.832377
O O3 0.473774 0.806863 0.096411
O O4 0.558637 0.811065 0.020720
O O5 0.939777 0.078513 0.620467
O O6 0.944440 0.552568 0.724962
O O7 0.169065 0.054619 0.894383
O O8 0.159336 0.068772 0.165840
O O9 0.141215 0.216010 0.989292
O O10 0.250314 0.071136 0.482436
O O11 0.322332 0.171890 0.757990
O O12 0.343608 0.998698 0.731445
O O13 0.243843 0.048733 0.754587
O O14 0.130137 0.593847 0.458305
#
# Coordination Sequence:
#
# PCOD9286838 Si02
#       8
#     8   4   4   8   8   8   8   8
#     4  11  20  34  54  95 132 156 201 244 295 367
#     4  10  21  44  70  89 112 154 200 259 320 372
#     4  12  21  28  54  91 138 170 186 239 304 356
#     4  10  23  45  69  87 116 150 203 267 319 358
#     4  11  22  37  60  90 130 169 207 233 288 367
#     4  12  19  33  58  91 131 177 194 231 294 372
#     4  10  24  44  60  88 120 160 213 262 290 353
#     4  11  20  37  63  92 124 166 204 243 299 364
#
# _framework density 19.531130999999998
#
# number of rings (size 3 to 8) (size 9 to 14) (size 15 to 20)
#    0.000    1.143    7.143    1.286    0.000    1.714 
#    0.000    5.714    0.000    0.000    0.000    0.000 
#    0.000    0.000    0.000    0.000    0.000    0.000 
#
# Total GULP energy -156082.811309 kJ/mol
# GULP energy per Si atom -5574.386118 kJ/mol
# Density = 1.948668 g / cm^3
# Si number density = 19.531131 Si / 1000 Ang^3
#
#
#
# Elastic Constant Matrix: (Units=GPa)
#
#
# Indices 1 2 3 4 5 6 
#
# 1 76.8554 22.4685 46.4041 0.0000 14.5697 0.0000
# 2 22.4685 26.0317 25.5994 0.0000 11.2249 0.0000
# 3 46.4041 25.5994 154.9275 0.0000 12.3358 0.0000
# 4 0.0000 0.0000 0.0000 27.5770 0.0000 5.3312
# 5 14.5697 11.2249 12.3358 0.0000 29.6341 0.0000
# 6 0.0000 0.0000 0.0000 5.3312 0.0000 11.6212
#
#
#
# Elastic Compliance Matrix: (Units=1/GPa)
#
#
# Indices 1 2 3 4 5 6 
#
# 1 0.019216 -0.011530 -0.003564 0.000000 -0.003597 0.000000
# 2 -0.011530 0.059951 -0.005270 0.000000 -0.014846 0.000000
# 3 -0.003564 -0.005270 0.008372 0.000000 0.000264 0.000000
# 4 0.000000 0.000000 0.000000 0.039791 0.000000 -0.018254
# 5 -0.003597 -0.014846 0.000264 0.000000 0.041027 0.000000
# 6 0.000000 0.000000 0.000000 -0.018254 0.000000 0.094424
#
#
# Mechanical properties :
#
#
# Convention : Reuss Voigt Hill
#
# Bulk Modulus (GPa) = 21.36307 49.63988 35.50147
# Shear Modulus (GPa) = 15.66848 24.65597 20.16223
#
# Velocity S-wave (km/s) = 2.83544 3.55687 3.21645
# Velocity P-wave (km/s) = 4.65632 6.50687 5.65777
#
# Compressibility (1/GPa) = 0.04680976
#
# Stress axis : x y z
#
# Youngs Moduli (GPa) = 52.04012 16.68039 119.44551
#
# Poissons Ratio (x) = 0.19232 0.42571
# Poissons Ratio (y) = 0.60002 0.62953
# Poissons Ratio (z) = 0.18547 0.08791
#
# Static dielectric constant tensor:
#      x y z
#    x 1.717040 0.000000 0.010070 
#    y 0.000000 1.678610 0.000000 
#    z 0.010070 0.000000 1.773300 
# 
# From -- ./inp_files/62033.got.cif
#   From: 2010.05.17/outbox.cif.g08.bks.cpg/sg15_32_cif.got.tgz:62033.got - 2010.06.03 18:47:42.
