data_PCOD9286731
_publ_section_title
;
Structure prediction by ZEFSAII (Michael W. Deem and Ramdas Pophale) SiO2 
 PCOD9286731
Probable space group: C 2/C
;
_chemical_formula_sum "Si O2"
_cell_formula_units_Z 40
_cell_length_a 7.787946
_cell_length_b 25.991058
_cell_length_c 15.868338
_cell_angle_alpha 90.000000
_cell_angle_beta 34.301046
_cell_angle_gamma 90.000000
_cell_volume 1810.105763
_symmetry_space_group_name_H-M "C 2/C"
_symmetry_group_IT_number 15
_symmetry_cell_setting 'monoclinic'
loop_
_space_group_symop_operation_xyz
x,y,z
-x,y,1/2-z
-x,-y,-z
x,-y,1/2+z
1/2+x,1/2+y,z
1/2-x,1/2+y,1/2-z
1/2-x,1/2-y,-z
1/2+x,1/2-y,1/2+z
loop_
_atom_site_type_symbol
_atom_site_label
_atom_site_fract_x
_atom_site_fract_y
_atom_site_fract_z
Si Si1 0.249448 0.556768 0.223020
Si Si2 0.500000 0.525254 0.750000
Si Si3 0.797552 0.611345 0.517166
Si Si4 0.724278 0.393472 0.412101
Si Si5 0.000000 0.193132 0.750000
Si Si6 0.982036 0.280835 0.350494
O O1 0.319909 0.509587 0.256010
O O2 0.000000 0.546850 0.250000
O O3 0.105660 0.601180 0.341070
O O4 0.559541 0.574452 0.051513
O O5 0.720160 0.561725 0.605841
O O6 0.534499 0.617255 0.552928
O O7 0.748732 0.658367 0.600295
O O8 0.866890 0.340149 0.388388
O O9 0.000000 0.420402 0.250000
O O10 0.812539 0.223425 0.757481
O O11 0.750000 0.250000 0.500000
O O12 0.000000 0.259422 0.250000
#
# Coordination Sequence:
#
# PCOD9286731 Si02
#       6
#     8   4   8   8   4   8
#     4  10  24  40  60  98 130 174 230 275 333 393
#     4  11  24  38  64  96 132 174 230 280 328 391
#     4  10  22  42  66  93 132 177 222 272 333 404
#     4  10  21  44  67  90 134 174 214 278 342 393
#     4  11  22  44  72  96 134 180 220 268 354 405
#     4  11  25  46  69 104 135 175 226 283 346 414
#
# _framework density 22.098155999999999
#
# number of rings (size 3 to 8) (size 9 to 14) (size 15 to 20)
#    0.000    1.600    4.000    0.600    2.800    8.000 
#    5.400    0.000    0.000    0.000    0.000    0.000 
#    0.000    0.000    0.000    0.000    0.000    0.000 
#
# Total GULP energy -111842.645462 kJ/mol
# GULP energy per Si atom -5592.132273 kJ/mol
# Density = 2.204786 g / cm^3
# Si number density = 22.098156 Si / 1000 Ang^3
#
#
#
# Elastic Constant Matrix: (Units=GPa)
#
#
# Indices 1 2 3 4 5 6 
#
# 1 131.7788 29.0617 46.9854 0.0000 24.6180 0.0000
# 2 29.0617 27.0287 29.8999 0.0000 3.5858 0.0000
# 3 46.9854 29.8999 162.9327 0.0000 12.4237 0.0000
# 4 0.0000 0.0000 0.0000 1.5288 0.0000 -6.0144
# 5 24.6180 3.5858 12.4237 0.0000 27.9185 0.0000
# 6 0.0000 0.0000 0.0000 -6.0144 0.0000 -122.8273
#
#
#
# Elastic Compliance Matrix: (Units=1/GPa)
#
#
# Indices 1 2 3 4 5 6 
#
# 1 0.011868 -0.010731 -0.000787 0.000000 -0.008736 0.000000
# 2 -0.010731 0.056261 -0.007660 0.000000 0.005645 0.000000
# 3 -0.000787 -0.007660 0.007911 0.000000 -0.001842 0.000000
# 4 0.000000 0.000000 0.000000 0.548469 0.000000 -0.026857
# 5 -0.008736 0.005645 -0.001842 0.000000 0.043617 0.000000
# 6 0.000000 0.000000 0.000000 -0.026857 0.000000 -0.006826
#
#
# Mechanical properties :
#
#
# Convention : Reuss Voigt Hill
#
# Bulk Modulus (GPa) = 26.53722 59.29270 42.91496
# Shear Modulus (GPa) = 7.02035 -4.28979 1.36528
#
# Velocity S-wave (km/s) = 1.78432 -1.39480 0.78687
# Velocity P-wave (km/s) = 4.03484 4.92908 4.50421
#
# Compressibility (1/GPa) = 0.03768293
#
# Stress axis : x y z
#
# Youngs Moduli (GPa) = 84.26344 17.77437 126.41098
#
# Poissons Ratio (x) = 0.19073 0.09948
# Poissons Ratio (y) = 0.90420 0.96837
# Poissons Ratio (z) = 0.06631 0.13616
#
# Static dielectric constant tensor:
#      x y z
#    x 1.839300 0.000000 -0.007180 
#    y 0.000000 1.801740 0.000000 
#    z -0.007180 0.000000 1.809280 
# 
# From -- ./inp_files/193660.got.cif
#   From: 2010.05.17/outbox.cif.g08.bks.cpg/sg15_97_cif.got.tgz:193660.got - 2010.06.03 18:47:42.
