data_PCOD9286338
_publ_section_title
;
Structure prediction by ZEFSAII (Michael W. Deem and Ramdas Pophale) SiO2 
 PCOD9286338
Probable space group: C 2/C
;
_chemical_formula_sum "Si O2"
_cell_formula_units_Z 48
_cell_length_a 28.851052
_cell_length_b 16.320616
_cell_length_c 14.183103
_cell_angle_alpha 90.000000
_cell_angle_beta 160.796032
_cell_angle_gamma 90.000000
_cell_volume 2196.724767
_symmetry_space_group_name_H-M "C 2/C"
_symmetry_group_IT_number 15
_symmetry_cell_setting 'monoclinic'
loop_
_space_group_symop_operation_xyz
x,y,z
-x,y,1/2-z
-x,-y,-z
x,-y,1/2+z
1/2+x,1/2+y,z
1/2-x,1/2+y,1/2-z
1/2-x,1/2-y,-z
1/2+x,1/2-y,1/2+z
loop_
_atom_site_type_symbol
_atom_site_label
_atom_site_fract_x
_atom_site_fract_y
_atom_site_fract_z
Si Si1 0.000000 0.876167 0.250000
Si Si2 0.834570 0.992715 0.701527
Si Si3 0.221306 0.980629 0.189594
Si Si4 0.600409 0.956303 0.617123
Si Si5 0.545188 0.782912 0.191033
Si Si6 0.000000 0.844781 0.750000
Si Si7 0.147628 0.190532 0.208402
O O1 0.035682 0.825243 0.411332
O O2 0.132728 0.936904 0.497159
O O3 0.815130 0.894474 0.665901
O O4 0.783725 0.022902 0.706764
O O5 0.747586 0.041279 0.456691
O O6 0.000000 0.000000 0.000000
O O7 0.367014 0.991863 0.414749
O O8 0.130169 0.904658 0.977038
O O9 0.536505 0.868460 0.467574
O O10 0.500000 0.000000 0.500000
O O11 0.465316 0.712247 0.094329
O O12 0.698831 0.786421 0.536525
O O13 0.585090 0.754079 0.162689
#
# Coordination Sequence:
#
# PCOD9286338 Si02
#       7
#     4   8   8   8   8   4   8
#     4   9  20  42  72  95 128 184 240 285 336 426
#     4  11  22  44  74  97 133 183 239 287 343 426
#     4  10  23  43  71 100 129 184 237 287 344 424
#     4  12  25  43  67 101 141 184 233 283 353 423
#     4  11  25  40  68 101 144 185 225 298 363 412
#     4  11  24  44  70 101 136 180 238 287 362 418
#     4  10  21  43  66  99 141 182 231 293 357 412
#
# _framework density 21.850712000000001
#
# number of rings (size 3 to 8) (size 9 to 14) (size 15 to 20)
#    0.000    1.333    1.667    5.000    7.000    0.667 
#    3.000    4.167    0.000    0.000    0.000    0.000 
#    0.000    0.000    0.000    0.000    0.000    0.000 
#
# Total GULP energy -134093.330582 kJ/mol
# GULP energy per Si atom -5587.222108 kJ/mol
# Density = 2.180098 g / cm^3
# Si number density = 21.850712 Si / 1000 Ang^3
#
#
#
# Elastic Constant Matrix: (Units=GPa)
#
#
# Indices 1 2 3 4 5 6 
#
# 1 133.4123 34.6029 31.4048 0.0000 8.9376 0.0000
# 2 34.6029 101.9006 14.2879 0.0000 8.2092 0.0000
# 3 31.4048 14.2879 64.7091 0.0000 -7.0058 0.0000
# 4 0.0000 0.0000 0.0000 30.5944 0.0000 -4.4534
# 5 8.9376 8.2092 -7.0058 0.0000 42.7153 0.0000
# 6 0.0000 0.0000 0.0000 -4.4534 0.0000 26.4251
#
#
#
# Elastic Compliance Matrix: (Units=1/GPa)
#
#
# Indices 1 2 3 4 5 6 
#
# 1 0.009245 -0.002376 -0.004197 0.000000 -0.002166 0.000000
# 2 -0.002376 0.010976 -0.001471 0.000000 -0.001853 0.000000
# 3 -0.004197 -0.001471 0.018265 0.000000 0.004156 0.000000
# 4 0.000000 0.000000 0.000000 0.033508 0.000000 0.005647
# 5 -0.002166 -0.001853 0.004156 0.000000 0.024902 0.000000
# 6 0.000000 0.000000 0.000000 0.005647 0.000000 0.038795
#
#
# Mechanical properties :
#
#
# Convention : Reuss Voigt Hill
#
# Bulk Modulus (GPa) = 44.64586 51.17923 47.91255
# Shear Modulus (GPa) = 31.39835 34.59539 32.99687
#
# Velocity S-wave (km/s) = 3.79482 3.98334 3.89022
# Velocity P-wave (km/s) = 6.29901 6.68050 6.49255
#
# Compressibility (1/GPa) = 0.02239849
#
# Stress axis : x y z
#
# Youngs Moduli (GPa) = 108.16791 91.10779 54.74879
#
# Poissons Ratio (x) = 0.21651 0.22976
# Poissons Ratio (y) = 0.25705 0.08053
# Poissons Ratio (z) = 0.45393 0.13401
#
# Static dielectric constant tensor:
#      x y z
#    x 1.896380 0.000000 0.054140 
#    y 0.000000 1.801220 0.000000 
#    z 0.054140 0.000000 1.969160 
# 
# From -- ./inp_files/182549.got.cif
#   From: 2010.05.17/outbox.cif.g08.bks.cpg/sg15_92_cif.got.tgz:182549.got - 2010.06.03 18:47:42.
