data_PCOD9286045
_publ_section_title
;
Structure prediction by ZEFSAII (Michael W. Deem and Ramdas Pophale) SiO2 
 PCOD9286045
Probable space group: C 2/C
;
_chemical_formula_sum "Si O2"
_cell_formula_units_Z 56
_cell_length_a 31.104249
_cell_length_b 14.639428
_cell_length_c 13.525591
_cell_angle_alpha 90.000000
_cell_angle_beta 25.694314
_cell_angle_gamma 90.000000
_cell_volume 2670.293279
_symmetry_space_group_name_H-M "C 2/C"
_symmetry_group_IT_number 15
_symmetry_cell_setting 'monoclinic'
loop_
_space_group_symop_operation_xyz
x,y,z
-x,y,1/2-z
-x,-y,-z
x,-y,1/2+z
1/2+x,1/2+y,z
1/2-x,1/2+y,1/2-z
1/2-x,1/2-y,-z
1/2+x,1/2-y,1/2+z
loop_
_atom_site_type_symbol
_atom_site_label
_atom_site_fract_x
_atom_site_fract_y
_atom_site_fract_z
Si Si1 0.500000 0.757637 0.750000
Si Si2 0.699978 0.074927 0.376189
Si Si3 0.890877 0.107303 0.096868
Si Si4 0.302663 0.786313 0.791453
Si Si5 0.860984 0.143662 0.377411
Si Si6 0.975155 0.309820 0.192198
Si Si7 0.500000 0.546565 0.250000
Si Si8 0.704717 0.858482 0.349292
O O1 0.538066 0.690319 0.583977
O O2 0.594569 0.817775 0.584785
O O3 0.782927 0.120290 0.273099
O O4 0.721592 0.121697 0.223338
O O5 0.590560 0.102876 0.641624
O O6 0.707652 0.966075 0.365654
O O7 0.879178 0.094943 0.237042
O O8 0.934878 0.017741 0.955063
O O9 0.417374 0.807338 0.579623
O O10 0.276828 0.704409 0.767775
O O11 0.250000 0.750000 0.000000
O O12 0.903392 0.245097 0.280371
O O13 0.925919 0.098138 0.329764
O O14 0.748902 0.147724 0.647159
O O15 0.000000 0.270506 0.250000
#
# Coordination Sequence:
#
# PCOD9286045 Si02
#       8
#     4   8   8   8   8   8   4   8
#     4  11  26  46  63 106 142 186 227 302 361 418
#     4  11  24  47  69 107 141 182 240 299 348 438
#     4  11  25  42  72 102 143 181 236 296 368 417
#     4  11  25  47  73 101 141 197 241 296 361 436
#     4  12  22  43  75 100 133 191 234 291 360 430
#     4  10  21  42  70  95 135 182 234 279 347 423
#     4  11  22  44  67 110 140 176 241 304 347 428
#     4  12  25  46  71 102 147 182 241 301 355 431
#
# _framework density 20.971478999999999
#
# number of rings (size 3 to 8) (size 9 to 14) (size 15 to 20)
#    0.000    0.857    6.429    0.429    5.000    3.429 
#    0.000    0.714    0.000    0.000    0.000    0.000 
#    0.000    0.000    0.000    0.000    0.000    0.000 
#
# Total GULP energy -156149.739398 kJ/mol
# GULP energy per Si atom -5576.776407 kJ/mol
# Density = 2.092375 g / cm^3
# Si number density = 20.971479 Si / 1000 Ang^3
#
#
#
# Elastic Constant Matrix: (Units=GPa)
#
#
# Indices 1 2 3 4 5 6 
#
# 1 61.7810 28.3501 51.5627 0.0000 -0.7235 0.0000
# 2 28.3501 103.1245 32.4673 0.0000 -3.9544 0.0000
# 3 51.5627 32.4673 135.1728 0.0000 -8.4300 0.0000
# 4 0.0000 0.0000 0.0000 19.6168 0.0000 -14.2554
# 5 -0.7235 -3.9544 -8.4300 0.0000 40.6794 0.0000
# 6 0.0000 0.0000 0.0000 -14.2554 0.0000 13.7485
#
#
#
# Elastic Compliance Matrix: (Units=1/GPa)
#
#
# Indices 1 2 3 4 5 6 
#
# 1 0.025484 -0.004304 -0.008799 0.000000 -0.001789 0.000000
# 2 -0.004304 0.011228 -0.001005 0.000000 0.000807 0.000000
# 3 -0.008799 -0.001005 0.011123 0.000000 0.002051 0.000000
# 4 0.000000 0.000000 0.000000 0.206789 0.000000 0.214413
# 5 -0.001789 0.000807 0.002051 0.000000 0.025054 0.000000
# 6 0.000000 0.000000 0.000000 0.214413 0.000000 0.295053
#
#
# Mechanical properties :
#
#
# Convention : Reuss Voigt Hill
#
# Bulk Modulus (GPa) = 50.96890 58.31541 54.64216
# Shear Modulus (GPa) = 8.20363 27.32214 17.76289
#
# Velocity S-wave (km/s) = 1.97997 3.61338 2.91349
# Velocity P-wave (km/s) = 5.43909 6.72875 6.11800
#
# Compressibility (1/GPa) = 0.01961981
#
# Stress axis : x y z
#
# Youngs Moduli (GPa) = 39.24059 89.06700 89.90005
#
# Poissons Ratio (x) = 0.38336 0.79100
# Poissons Ratio (y) = 0.16890 0.09031
# Poissons Ratio (z) = 0.34527 0.08947
#
# Static dielectric constant tensor:
#      x y z
#    x 1.751400 0.000000 -0.021890 
#    y 0.000000 1.772070 0.000000 
#    z -0.021890 0.000000 1.821440 
# 
# From -- ./inp_files/127019.got.cif
#   From: 2010.05.17/outbox.cif.g08.bks.cpg/sg15_64_cif.got.tgz:127019.got - 2010.06.03 18:47:42.
