data_PCOD9286209
_publ_section_title
;
Structure prediction by ZEFSAII (Michael W. Deem and Ramdas Pophale) SiO2 
 PCOD9286209
Probable space group: C 2/C
;
_chemical_formula_sum "Si O2"
_cell_formula_units_Z 52
_cell_length_a 7.922162
_cell_length_b 32.756800
_cell_length_c 10.469155
_cell_angle_alpha 90.000000
_cell_angle_beta 62.099318
_cell_angle_gamma 90.000000
_cell_volume 2400.994628
_symmetry_space_group_name_H-M "C 2/C"
_symmetry_group_IT_number 15
_symmetry_cell_setting 'monoclinic'
loop_
_space_group_symop_operation_xyz
x,y,z
-x,y,1/2-z
-x,-y,-z
x,-y,1/2+z
1/2+x,1/2+y,z
1/2-x,1/2+y,1/2-z
1/2-x,1/2-y,-z
1/2+x,1/2-y,1/2+z
loop_
_atom_site_type_symbol
_atom_site_label
_atom_site_fract_x
_atom_site_fract_y
_atom_site_fract_z
Si Si1 0.182156 0.716810 0.418650
Si Si2 0.811841 0.372155 0.644128
Si Si3 0.726855 0.536719 0.145646
Si Si4 0.155553 0.720043 0.805551
Si Si5 0.786577 0.980430 0.569869
Si Si6 0.500000 0.663046 0.750000
Si Si7 0.240959 0.885099 0.959401
O O1 0.250000 0.750000 0.500000
O O2 0.240480 0.669647 0.409105
O O3 0.267178 0.735290 0.259191
O O4 0.955306 0.718526 0.521139
O O5 0.756594 0.415616 0.604824
O O6 0.721442 0.372275 0.818126
O O7 0.041220 0.374230 0.579938
O O8 0.500000 0.531644 0.250000
O O9 0.803931 0.523412 0.257221
O O10 0.804010 0.509232 0.004643
O O11 0.335074 0.690684 0.746350
O O12 0.000000 0.707935 0.750000
O O13 0.789852 0.933742 0.522099
O O14 0.000000 0.000000 0.500000
O O15 0.597033 0.636557 0.605418
#
# Coordination Sequence:
#
# PCOD9286209 Si02
#       7
#     8   8   8   8   8   4   8
#     4  10  22  43  65  90 137 170 216 287 336 402
#     4  10  21  43  63  95 129 172 230 270 343 418
#     4   9  19  36  63  93 128 172 225 274 340 415
#     4  10  24  44  63  97 130 170 222 277 334 412
#     4   9  19  38  59  94 130 172 224 274 343 404
#     4  12  24  42  68  96 132 176 224 274 356 388
#     4  10  23  39  67  93 132 174 221 284 330 419
#
# _framework density 21.657689999999999
#
# number of rings (size 3 to 8) (size 9 to 14) (size 15 to 20)
#    0.000    2.154    1.538    0.000    5.385    4.308 
#   13.846    0.000    0.000    0.000    0.000    0.000 
#    0.000    0.000    0.000    0.000    0.000    0.000 
#
# Total GULP energy -145094.399788 kJ/mol
# GULP energy per Si atom -5580.553838 kJ/mol
# Density = 2.160840 g / cm^3
# Si number density = 21.657690 Si / 1000 Ang^3
#
#
#
# Elastic Constant Matrix: (Units=GPa)
#
#
# Indices 1 2 3 4 5 6 
#
# 1 76.3447 43.0160 30.2234 0.0000 -4.5484 0.0000
# 2 43.0160 194.1378 79.9494 0.0000 10.6208 0.0000
# 3 30.2234 79.9494 88.3273 0.0000 -18.2470 0.0000
# 4 0.0000 0.0000 0.0000 35.1404 0.0000 -3.8717
# 5 -4.5484 10.6208 -18.2470 0.0000 23.0228 0.0000
# 6 0.0000 0.0000 0.0000 -3.8717 0.0000 15.1616
#
#
#
# Elastic Compliance Matrix: (Units=1/GPa)
#
#
# Indices 1 2 3 4 5 6 
#
# 1 0.015687 -0.002492 -0.002672 0.000000 0.002132 0.000000
# 2 -0.002492 0.012369 -0.013899 0.000000 -0.017214 0.000000
# 3 -0.002672 -0.013899 0.031128 0.000000 0.030555 0.000000
# 4 0.000000 0.000000 0.000000 0.029281 0.000000 0.007477
# 5 0.002132 -0.017214 0.030555 0.000000 0.076014 0.000000
# 6 0.000000 0.000000 0.000000 0.007477 0.000000 0.067866
#
#
# Mechanical properties :
#
#
# Convention : Reuss Voigt Hill
#
# Bulk Modulus (GPa) = 47.48555 73.90973 60.69764
# Shear Modulus (GPa) = 18.01860 28.37303 23.19581
#
# Velocity S-wave (km/s) = 2.88752 3.62341 3.27619
# Velocity P-wave (km/s) = 5.75240 7.19068 6.51138
#
# Compressibility (1/GPa) = 0.02105904
#
# Stress axis : x y z
#
# Youngs Moduli (GPa) = 63.74544 80.84867 32.12491
#
# Poissons Ratio (x) = 0.20150 0.08582
# Poissons Ratio (y) = 0.15888 0.44650
# Poissons Ratio (z) = 0.17030 1.12371
#
# Static dielectric constant tensor:
#      x y z
#    x 0.378530 0.000000 -0.513790 
#    y 0.000000 1.761020 0.000000 
#    z -0.513790 0.000000 1.637310 
# 
# From -- ./inp_files/81188.got.cif
#   From: 2010.05.17/outbox.cif.g08.bks.cpg/sg15_41_cif.got.tgz:81188.got - 2010.06.03 18:47:42.
