data_PCOD9286496
_publ_section_title
;
Structure prediction by ZEFSAII (Michael W. Deem and Ramdas Pophale) SiO2 
 PCOD9286496
Probable space group: C 2/C
;
_chemical_formula_sum "Si O2"
_cell_formula_units_Z 40
_cell_length_a 7.561961
_cell_length_b 12.039513
_cell_length_c 17.308287
_cell_angle_alpha 90.000000
_cell_angle_beta 86.005974
_cell_angle_gamma 90.000000
_cell_volume 1571.959653
_symmetry_space_group_name_H-M "C 2/C"
_symmetry_group_IT_number 15
_symmetry_cell_setting 'monoclinic'
loop_
_space_group_symop_operation_xyz
x,y,z
-x,y,1/2-z
-x,-y,-z
x,-y,1/2+z
1/2+x,1/2+y,z
1/2-x,1/2+y,1/2-z
1/2-x,1/2-y,-z
1/2+x,1/2-y,1/2+z
loop_
_atom_site_type_symbol
_atom_site_label
_atom_site_fract_x
_atom_site_fract_y
_atom_site_fract_z
Si Si1 0.009260 0.328504 0.867570
Si Si2 0.598403 0.180341 0.963297
Si Si3 0.109209 0.244020 0.168140
Si Si4 0.759709 0.985811 0.181471
Si Si5 0.135093 0.923465 0.148057
O O1 0.019909 0.349070 0.959585
O O2 0.544027 0.507237 0.862503
O O3 0.874062 0.415727 0.834153
O O4 0.212027 0.326290 0.834117
O O5 0.567020 0.294615 0.150950
O O6 0.750000 0.250000 0.000000
O O7 0.701198 0.081545 0.915933
O O8 0.991723 0.237627 0.095337
O O9 0.168654 0.372272 0.157520
O O10 0.500000 0.727798 0.250000
O O11 0.796790 0.959458 0.270230
#
# Coordination Sequence:
#
# PCOD9286496 Si02
#       5
#     8   8   8   8   8
#     4  10  23  42  76 112 152 202 257 309 399 457
#     4  10  21  43  72 107 149 205 247 319 391 452
#     4  11  22  44  73 105 153 199 255 324 371 461
#     4  10  21  43  70 112 151 200 256 315 384 465
#     4   9  20  43  73 108 162 190 252 325 376 459
#
# _framework density 25.445947
#
# number of rings (size 3 to 8) (size 9 to 14) (size 15 to 20)
#    0.000    2.000    2.000    0.600    0.000    1.600 
#    7.200   12.000    4.400    2.400    0.000    0.000 
#    0.000    0.000    0.000    0.000    0.000    0.000 
#
# Total GULP energy -112032.409886 kJ/mol
# GULP energy per Si atom -5601.620494 kJ/mol
# Density = 2.538803 g / cm^3
# Si number density = 25.445947 Si / 1000 Ang^3
#
#
#
# Elastic Constant Matrix: (Units=GPa)
#
#
# Indices 1 2 3 4 5 6 
#
# 1 139.5705 54.5516 51.1166 0.0000 8.4198 0.0000
# 2 54.5516 131.3830 40.1380 0.0000 12.4133 0.0000
# 3 51.1166 40.1380 143.4558 0.0000 -1.6190 0.0000
# 4 0.0000 0.0000 0.0000 11.7709 0.0000 4.4161
# 5 8.4198 12.4133 -1.6190 0.0000 47.5487 0.0000
# 6 0.0000 0.0000 0.0000 4.4161 0.0000 49.7251
#
#
#
# Elastic Compliance Matrix: (Units=1/GPa)
#
#
# Indices 1 2 3 4 5 6 
#
# 1 0.009311 -0.003018 -0.002484 0.000000 -0.000946 0.000000
# 2 -0.003018 0.009549 -0.001619 0.000000 -0.002014 0.000000
# 3 -0.002484 -0.001619 0.008322 0.000000 0.001146 0.000000
# 4 0.000000 0.000000 0.000000 0.087883 0.000000 -0.007805
# 5 -0.000946 -0.002014 0.001146 0.000000 0.021763 0.000000
# 6 0.000000 0.000000 0.000000 -0.007805 0.000000 0.020804
#
#
# Mechanical properties :
#
#
# Convention : Reuss Voigt Hill
#
# Bulk Modulus (GPa) = 77.27938 78.44685 77.86311
# Shear Modulus (GPa) = 28.37868 39.71583 34.04725
#
# Velocity S-wave (km/s) = 3.34316 3.95497 3.66187
# Velocity P-wave (km/s) = 6.73337 7.19385 6.96742
#
# Compressibility (1/GPa) = 0.01294006
#
# Stress axis : x y z
#
# Youngs Moduli (GPa) = 107.39753 104.71939 120.16486
#
# Poissons Ratio (x) = 0.31603 0.29850
# Poissons Ratio (y) = 0.32411 0.19457
# Poissons Ratio (z) = 0.26678 0.16956
#
# Static dielectric constant tensor:
#      x y z
#    x 2.051780 0.000000 -0.039470 
#    y 0.000000 2.053840 0.000000 
#    z -0.039470 0.000000 2.146450 
# 
# From -- ./inp_files/229838.got.cif
#   From: 2010.05.17/outbox.cif.g08.bks.cpg/sg15_115_cif.got.tgz:229838.got - 2010.06.03 18:47:42.
