data_PCOD9286737
_publ_section_title
;
Structure prediction by ZEFSAII (Michael W. Deem and Ramdas Pophale) SiO2 
 PCOD9286737
Probable space group: C 2/C
;
_chemical_formula_sum "Si O2"
_cell_formula_units_Z 40
_cell_length_a 26.520355
_cell_length_b 8.242571
_cell_length_c 13.148526
_cell_angle_alpha 90.000000
_cell_angle_beta 144.783801
_cell_angle_gamma 90.000000
_cell_volume 1657.453787
_symmetry_space_group_name_H-M "C 2/C"
_symmetry_group_IT_number 15
_symmetry_cell_setting 'monoclinic'
loop_
_space_group_symop_operation_xyz
x,y,z
-x,y,1/2-z
-x,-y,-z
x,-y,1/2+z
1/2+x,1/2+y,z
1/2-x,1/2+y,1/2-z
1/2-x,1/2-y,-z
1/2+x,1/2-y,1/2+z
loop_
_atom_site_type_symbol
_atom_site_label
_atom_site_fract_x
_atom_site_fract_y
_atom_site_fract_z
Si Si1 0.082670 0.379260 0.631923
Si Si2 0.744892 0.515122 0.206529
Si Si3 0.588931 0.672481 0.832226
Si Si4 0.797426 0.691508 0.476708
Si Si5 0.032988 0.166763 0.191678
O O1 0.164905 0.450283 0.705745
O O2 0.107731 0.315776 0.784658
O O3 0.000000 0.500000 0.500000
O O4 0.043101 0.225308 0.505825
O O5 0.761667 0.541037 0.353929
O O6 0.713207 0.337095 0.122455
O O7 0.668013 0.632919 0.038957
O O8 0.500000 0.706197 0.750000
O O9 0.576401 0.507745 0.743348
O O10 0.750000 0.750000 0.500000
O O11 0.896583 0.690524 0.677680
O O12 0.000000 0.139763 0.250000
#
# Coordination Sequence:
#
# PCOD9286737 Si02
#       5
#     8   8   8   8   8
#     4  12  25  42  69 104 141 178 232 302 360 407
#     4  11  26  46  70 101 143 187 234 294 353 423
#     4  10  25  44  68  98 133 190 239 279 347 436
#     4  11  25  45  71 104 139 184 238 289 352 422
#     4  10  21  44  67  93 132 180 227 278 346 425
#
# _framework density 24.133403999999999
#
# number of rings (size 3 to 8) (size 9 to 14) (size 15 to 20)
#    0.000    1.200    2.000    2.400    5.600    7.200 
#    0.000    0.000    0.000    0.000    0.000    0.000 
#    0.000    0.000    0.000    0.000    0.000    0.000 
#
# Total GULP energy -111867.499733 kJ/mol
# GULP energy per Si atom -5593.374987 kJ/mol
# Density = 2.407847 g / cm^3
# Si number density = 24.133404 Si / 1000 Ang^3
#
#
#
# Elastic Constant Matrix: (Units=GPa)
#
#
# Indices 1 2 3 4 5 6 
#
# 1 78.5705 6.6122 29.6738 0.0000 -0.0250 0.0000
# 2 6.6122 57.6395 14.1020 0.0000 -14.9581 0.0000
# 3 29.6738 14.1020 123.7463 0.0000 3.8467 0.0000
# 4 0.0000 0.0000 0.0000 46.1478 0.0000 -7.0292
# 5 -0.0250 -14.9581 3.8467 0.0000 43.8215 0.0000
# 6 0.0000 0.0000 0.0000 -7.0292 0.0000 5.8173
#
#
#
# Elastic Compliance Matrix: (Units=1/GPa)
#
#
# Indices 1 2 3 4 5 6 
#
# 1 0.014031 -0.000803 -0.003274 0.000000 0.000021 0.000000
# 2 -0.000803 0.019806 -0.002281 0.000000 0.006960 0.000000
# 3 -0.003274 -0.002281 0.009175 0.000000 -0.001586 0.000000
# 4 0.000000 0.000000 0.000000 0.026557 0.000000 0.032090
# 5 0.000021 0.006960 -0.001586 0.000000 0.025335 0.000000
# 6 0.000000 0.000000 0.000000 0.032090 0.000000 0.210675
#
#
# Mechanical properties :
#
#
# Convention : Reuss Voigt Hill
#
# Bulk Modulus (GPa) = 33.00672 40.08134 36.54403
# Shear Modulus (GPa) = 15.22559 33.12854 24.17706
#
# Velocity S-wave (km/s) = 2.51448 3.70905 3.16857
# Velocity P-wave (km/s) = 4.70496 5.91498 5.34433
#
# Compressibility (1/GPa) = 0.03029686
#
# Stress axis : x y z
#
# Youngs Moduli (GPa) = 71.26848 50.49075 108.98818
#
# Poissons Ratio (x) = 0.04055 0.35681
# Poissons Ratio (y) = 0.05724 0.24858
# Poissons Ratio (z) = 0.23332 0.11516
#
# Static dielectric constant tensor:
#      x y z
#    x 1.761430 0.000000 -0.039240 
#    y 0.000000 2.306340 0.000000 
#    z -0.039240 0.000000 1.873560 
# 
# From -- ./inp_files/102860.got.cif
#   From: 2010.05.17/outbox.cif.g08.bks.cpg/sg15_52_cif.got.tgz:102860.got - 2010.06.03 18:47:42.
