data_PCOD9286198
_publ_section_title
;
Structure prediction by ZEFSAII (Michael W. Deem and Ramdas Pophale) SiO2 
 PCOD9286198
Probable space group: C 2/C
;
_chemical_formula_sum "Si O2"
_cell_formula_units_Z 64
_cell_length_a 14.379546
_cell_length_b 23.176799
_cell_length_c 8.017361
_cell_angle_alpha 90.000000
_cell_angle_beta 104.599501
_cell_angle_gamma 90.000000
_cell_volume 2585.686749
_symmetry_space_group_name_H-M "C 2/C"
_symmetry_group_IT_number 15
_symmetry_cell_setting 'monoclinic'
loop_
_space_group_symop_operation_xyz
x,y,z
-x,y,1/2-z
-x,-y,-z
x,-y,1/2+z
1/2+x,1/2+y,z
1/2-x,1/2+y,1/2-z
1/2-x,1/2-y,-z
1/2+x,1/2-y,1/2+z
loop_
_atom_site_type_symbol
_atom_site_label
_atom_site_fract_x
_atom_site_fract_y
_atom_site_fract_z
Si Si1 0.139934 0.418641 0.394433
Si Si2 0.819294 0.846201 0.504987
Si Si3 0.260208 0.092734 0.941986
Si Si4 0.474577 0.749784 0.044078
Si Si5 0.983448 0.066692 0.943960
Si Si6 0.520465 0.872606 0.945119
Si Si7 0.216175 0.510856 0.234690
Si Si8 0.364868 0.656234 0.404748
O O1 0.213160 0.364769 0.389662
O O2 0.128030 0.471273 0.258997
O O3 0.198522 0.451925 0.565414
O O4 0.043765 0.400271 0.440128
O O5 0.875299 0.786648 0.481632
O O6 0.892741 0.897318 0.480128
O O7 0.812062 0.839681 0.703232
O O8 0.220458 0.044196 0.795449
O O9 0.368336 0.115508 0.968773
O O10 0.197853 0.147840 0.958343
O O11 0.259181 0.054801 0.110681
O O12 0.500000 0.764351 0.250000
O O13 0.560887 0.707321 0.036508
O O14 0.485408 0.806660 0.940395
O O15 0.000000 0.073993 0.750000
O O16 0.070295 0.099455 0.074631
O O17 0.000000 0.000000 0.000000
O O18 0.500000 0.895239 0.750000
#
# Coordination Sequence:
#
# PCOD9286198 Si02
#       8
#     8   8   8   8   8   8   8   8
#     4  11  24  41  66  96 130 169 209 259 318 382
#     4  10  21  43  63  91 126 166 205 265 321 374
#     4  11  24  41  66  96 130 169 209 259 318 382
#     4   9  23  43  66  88 125 164 219 269 318 366
#     4  11  24  34  58  89 125 164 211 254 313 383
#     4  12  25  44  64  95 125 169 218 268 310 372
#     4  10  24  41  64  95 132 166 208 259 316 385
#     4  10  21  43  63  91 126 166 205 265 321 374
#
# _framework density 24.751643999999999
#
# number of rings (size 3 to 8) (size 9 to 14) (size 15 to 20)
#    0.000    1.500    2.500    1.875    7.000    6.000 
#    0.000    0.000    0.000    0.000    0.000    0.000 
#    0.000    0.000    0.000    0.000    0.000    0.000 
#
# Total GULP energy -178560.784168 kJ/mol
# GULP energy per Si atom -5580.024505 kJ/mol
# Density = 2.469531 g / cm^3
# Si number density = 24.751644 Si / 1000 Ang^3
#
#
#
# Elastic Constant Matrix: (Units=GPa)
#
#
# Indices 1 2 3 4 5 6 
#
# 1 120.3296 -1.5397 13.0512 0.0000 -24.3777 0.0000
# 2 -1.5397 56.6059 17.1695 0.0000 -11.0686 0.0000
# 3 13.0512 17.1695 56.9727 0.0000 -5.6661 0.0000
# 4 0.0000 0.0000 0.0000 62.7751 0.0000 3.6969
# 5 -24.3777 -11.0686 -5.6661 0.0000 37.8236 0.0000
# 6 0.0000 0.0000 0.0000 3.6969 0.0000 14.0430
#
#
#
# Elastic Compliance Matrix: (Units=1/GPa)
#
#
# Indices 1 2 3 4 5 6 
#
# 1 0.009955 0.002286 -0.002299 0.000000 0.006741 0.000000
# 2 0.002286 0.020900 -0.006159 0.000000 0.006667 0.000000
# 3 -0.002299 -0.006159 0.019905 0.000000 -0.000302 0.000000
# 4 0.000000 0.000000 0.000000 0.016181 0.000000 -0.004260
# 5 0.006741 0.006667 -0.000302 0.000000 0.032689 0.000000
# 6 0.000000 0.000000 0.000000 -0.004260 0.000000 0.072331
#
#
# Mechanical properties :
#
#
# Convention : Reuss Voigt Hill
#
# Bulk Modulus (GPa) = 26.03109 32.36336 29.19723
# Shear Modulus (GPa) = 25.36665 36.61016 30.98841
#
# Velocity S-wave (km/s) = 3.20480 3.85008 3.54216
# Velocity P-wave (km/s) = 4.92281 5.73304 5.34330
#
# Compressibility (1/GPa) = 0.03841560
#
# Stress axis : x y z
#
# Youngs Moduli (GPa) = 100.45526 47.84692 50.23865
#
# Poissons Ratio (x) = -0.10938 0.11550
# Poissons Ratio (y) = -0.22965 0.30943
# Poissons Ratio (z) = 0.23095 0.29470
#
# Static dielectric constant tensor:
#      x y z
#    x 1.403760 0.000000 0.018880 
#    y 0.000000 1.974150 0.000000 
#    z 0.018880 0.000000 2.096390 
# 
# From -- ./inp_files/42647.got.cif
#   From: 2010.05.17/outbox.cif.g08.bks.cpg/sg15_22_cif.got.tgz:42647.got - 2010.06.03 18:47:42.
