data_PCOD9286641
_publ_section_title
;
Structure prediction by ZEFSAII (Michael W. Deem and Ramdas Pophale) SiO2 
 PCOD9286641
Probable space group: C 2/C
;
_chemical_formula_sum "Si O2"
_cell_formula_units_Z 60
_cell_length_a 12.028468
_cell_length_b 19.829067
_cell_length_c 21.102328
_cell_angle_alpha 90.000000
_cell_angle_beta 144.160306
_cell_angle_gamma 90.000000
_cell_volume 2947.028118
_symmetry_space_group_name_H-M "C 2/C"
_symmetry_group_IT_number 15
_symmetry_cell_setting 'monoclinic'
loop_
_space_group_symop_operation_xyz
x,y,z
-x,y,1/2-z
-x,-y,-z
x,-y,1/2+z
1/2+x,1/2+y,z
1/2-x,1/2+y,1/2-z
1/2-x,1/2-y,-z
1/2+x,1/2-y,1/2+z
loop_
_atom_site_type_symbol
_atom_site_label
_atom_site_fract_x
_atom_site_fract_y
_atom_site_fract_z
Si Si1 0.401303 0.258683 0.399030
Si Si2 0.057537 0.890986 0.005581
Si Si3 0.500000 0.293636 0.750000
Si Si4 0.177823 0.048768 0.935607
Si Si5 0.402462 0.670610 0.770588
Si Si6 0.553716 0.125829 0.531015
Si Si7 0.219226 0.522047 0.369881
Si Si8 0.152935 0.898293 0.911259
O O1 0.475586 0.325192 0.468588
O O2 0.396904 0.273615 0.322424
O O3 0.519548 0.192782 0.472838
O O4 0.188965 0.248738 0.327778
O O5 0.184396 0.948935 0.097781
O O6 0.166393 0.877703 0.990641
O O7 0.854471 0.924980 0.896608
O O8 0.516088 0.344419 0.816242
O O9 0.349693 0.069478 0.968445
O O10 0.025855 0.107978 0.854432
O O11 0.091542 0.976047 0.878312
O O12 0.249368 0.039955 0.040990
O O13 0.500000 0.693709 0.750000
O O14 0.197063 0.644486 0.653999
O O15 0.353124 0.106182 0.467938
O O16 0.000000 0.523514 0.250000
#
# Coordination Sequence:
#
# PCOD9286641 Si02
#       8
#     8   8   4   8   8   8   8   8
#     4  11  24  43  63  95 134 164 222 263 321 403
#     4  10  23  42  64  93 138 168 216 274 309 398
#     4  10  26  38  66  96 128 174 212 262 334 382
#     4  10  21  44  63  95 130 162 221 273 319 387
#     4  10  23  42  67  92 125 174 209 266 327 380
#     4  10  24  41  64  94 127 174 213 260 335 389
#     4  10  22  42  65 100 127 172 223 264 332 370
#     4  10  23  42  63  96 131 165 219 272 315 392
#
# _framework density 20.359494000000002
#
# number of rings (size 3 to 8) (size 9 to 14) (size 15 to 20)
#    0.000    1.867    1.333    0.400    7.467    6.400 
#    0.000    0.000    0.000    0.000    0.000    0.000 
#    0.000    0.000    0.000    0.000    0.000    0.000 
#
# Total GULP energy -167547.547775 kJ/mol
# GULP energy per Si atom -5584.918259 kJ/mol
# Density = 2.031316 g / cm^3
# Si number density = 20.359494 Si / 1000 Ang^3
#
#
#
# Elastic Constant Matrix: (Units=GPa)
#
#
# Indices 1 2 3 4 5 6 
#
# 1 49.8256 21.6561 0.4547 -0.0001 -15.7880 -0.0002
# 2 21.6561 61.6205 11.9094 -0.0001 -11.4507 0.0001
# 3 0.4547 11.9094 64.7044 -0.0010 6.0355 -0.0003
# 4 -0.0001 -0.0001 -0.0010 8.8039 -0.0003 -5.4392
# 5 -15.7880 -11.4507 6.0355 -0.0003 36.8921 0.0000
# 6 -0.0002 0.0001 -0.0003 -5.4392 0.0000 22.9523
#
#
#
# Elastic Compliance Matrix: (Units=1/GPa)
#
#
# Indices 1 2 3 4 5 6 
#
# 1 0.026165 -0.007647 0.000407 0.000001 0.008757 0.000000
# 2 -0.007647 0.020388 -0.004046 0.000000 0.003718 0.000000
# 3 0.000407 -0.004046 0.016550 0.000002 -0.003789 0.000001
# 4 0.000001 0.000000 0.000002 0.133068 0.000001 0.031534
# 5 0.008757 0.003718 -0.003789 0.000001 0.032628 0.000000
# 6 0.000000 0.000000 0.000001 0.031534 0.000000 0.051041
#
#
# Mechanical properties :
#
#
# Convention : Reuss Voigt Hill
#
# Bulk Modulus (GPa) = 24.67192 27.13234 25.90213
# Shear Modulus (GPa) = 15.82668 23.20502 19.51585
#
# Velocity S-wave (km/s) = 2.79114 3.37970 3.09943
# Velocity P-wave (km/s) = 4.74676 5.34653 5.05555
#
# Compressibility (1/GPa) = 0.04053192
#
# Stress axis : x y z
#
# Youngs Moduli (GPa) = 38.21944 49.04728 60.42243
#
# Poissons Ratio (x) = 0.37505 -0.02457
# Poissons Ratio (y) = 0.29225 0.24445
# Poissons Ratio (z) = -0.01554 0.19843
#
# Static dielectric constant tensor:
#      x y z
#    x 1.734840 0.000000 -0.016980 
#    y 0.000000 1.710200 0.000000 
#    z -0.016980 0.000000 1.731310 
# 
# From -- ./inp_files/239997.got.cif
#   From: 2010.05.17/outbox.cif.g08.bks.cpg/sg15_120_cif.got.tgz:239997.got - 2010.06.03 18:47:42.
