data_PCOD9286379
_publ_section_title
;
Structure prediction by ZEFSAII (Michael W. Deem and Ramdas Pophale) SiO2 
 PCOD9286379
Probable space group: C 2/C
;
_chemical_formula_sum "Si O2"
_cell_formula_units_Z 32
_cell_length_a 18.048575
_cell_length_b 9.760702
_cell_length_c 10.105658
_cell_angle_alpha 90.000000
_cell_angle_beta 60.472095
_cell_angle_gamma 90.000000
_cell_volume 1549.050608
_symmetry_space_group_name_H-M "C 2/C"
_symmetry_group_IT_number 15
_symmetry_cell_setting 'monoclinic'
loop_
_space_group_symop_operation_xyz
x,y,z
-x,y,1/2-z
-x,-y,-z
x,-y,1/2+z
1/2+x,1/2+y,z
1/2-x,1/2+y,1/2-z
1/2-x,1/2-y,-z
1/2+x,1/2-y,1/2+z
loop_
_atom_site_type_symbol
_atom_site_label
_atom_site_fract_x
_atom_site_fract_y
_atom_site_fract_z
Si Si1 0.474200 0.374839 0.428089
Si Si2 0.484776 0.853845 0.401571
Si Si3 0.281351 0.713895 0.117095
Si Si4 0.849861 0.502106 0.651305
O O1 0.500000 0.383192 0.250000
O O2 0.500000 0.500000 0.500000
O O3 0.512730 0.243096 0.471828
O O4 0.372711 0.358374 0.526222
O O5 0.500000 0.775693 0.250000
O O6 0.434216 0.955172 0.159116
O O7 0.396887 0.937967 0.481468
O O8 0.212297 0.613607 0.240698
O O9 0.298034 0.858140 0.175505
O O10 0.250000 0.750000 0.000000
#
# Coordination Sequence:
#
# PCOD9286379 Si02
#       4
#     8   8   8   8
#     4  11  25  43  68  97 136 179 224 283 345 411
#     4  10  21  43  67  95 131 181 227 271 345 412
#     4  11  24  42  66  99 134 178 225 281 339 398
#     4  10  23  40  67  97 135 176 223 281 333 406
#
# _framework density 20.657813999999998
#
# number of rings (size 3 to 8) (size 9 to 14) (size 15 to 20)
#    0.000    1.500    0.000    3.750    7.000    7.000 
#    0.000    3.750    0.000    0.000    0.000    0.000 
#    0.000    0.000    0.000    0.000    0.000    0.000 
#
# Total GULP energy -89268.675443 kJ/mol
# GULP energy per Si atom -5579.292215 kJ/mol
# Density = 2.061080 g / cm^3
# Si number density = 20.657814 Si / 1000 Ang^3
#
#
#
# Elastic Constant Matrix: (Units=GPa)
#
#
# Indices 1 2 3 4 5 6 
#
# 1 93.8573 80.6222 53.3004 0.0000 -19.7902 0.0000
# 2 80.6222 156.5654 93.1248 0.0000 -19.4816 0.0000
# 3 53.3004 93.1248 172.6888 0.0000 1.1561 0.0000
# 4 0.0000 0.0000 0.0000 29.7568 0.0000 -9.7523
# 5 -19.7902 -19.4816 1.1561 0.0000 31.3215 0.0000
# 6 0.0000 0.0000 0.0000 -9.7523 0.0000 45.5425
#
#
#
# Elastic Compliance Matrix: (Units=1/GPa)
#
#
# Indices 1 2 3 4 5 6 
#
# 1 0.020742 -0.008645 -0.001792 0.000000 0.007795 0.000000
# 2 -0.008645 0.014305 -0.005070 0.000000 0.003623 0.000000
# 3 -0.001792 -0.005070 0.009109 0.000000 -0.004622 0.000000
# 4 0.000000 0.000000 0.000000 0.036142 0.000000 0.007739
# 5 0.007795 0.003623 -0.004622 0.000000 0.039276 0.000000
# 6 0.000000 0.000000 0.000000 0.007739 0.000000 0.023615
#
#
# Mechanical properties :
#
#
# Convention : Reuss Voigt Hill
#
# Bulk Modulus (GPa) = 76.09660 97.46738 86.78199
# Shear Modulus (GPa) = 27.99801 34.39508 31.19655
#
# Velocity S-wave (km/s) = 3.68547 4.08486 3.89029
# Velocity P-wave (km/s) = 7.41801 8.33861 7.89174
#
# Compressibility (1/GPa) = 0.01314119
#
# Stress axis : x y z
#
# Youngs Moduli (GPa) = 48.21241 69.90403 109.77965
#
# Poissons Ratio (x) = 0.60431 0.19675
# Poissons Ratio (y) = 0.41679 0.55662
# Poissons Ratio (z) = 0.08641 0.35444
#
# Static dielectric constant tensor:
#      x y z
#    x 1.738010 0.000000 0.030330 
#    y 0.000000 1.773200 0.000000 
#    z 0.030330 0.000000 1.769580 
# 
# From -- ./inp_files/36755.got.cif
#   From: 2010.05.17/outbox.cif.g08.bks.cpg/sg15_19_cif.got.tgz:36755.got - 2010.06.03 18:47:42.
