data_PCOD9286763
_publ_section_title
;
Structure prediction by ZEFSAII (Michael W. Deem and Ramdas Pophale) SiO2 
 PCOD9286763
Probable space group: C 2/C
;
_chemical_formula_sum "Si O2"
_cell_formula_units_Z 60
_cell_length_a 17.488776
_cell_length_b 14.866387
_cell_length_c 12.991765
_cell_angle_alpha 90.000000
_cell_angle_beta 48.357149
_cell_angle_gamma 90.000000
_cell_volume 2524.229075
_symmetry_space_group_name_H-M "C 2/C"
_symmetry_group_IT_number 15
_symmetry_cell_setting 'monoclinic'
loop_
_space_group_symop_operation_xyz
x,y,z
-x,y,1/2-z
-x,-y,-z
x,-y,1/2+z
1/2+x,1/2+y,z
1/2-x,1/2+y,1/2-z
1/2-x,1/2-y,-z
1/2+x,1/2-y,1/2+z
loop_
_atom_site_type_symbol
_atom_site_label
_atom_site_fract_x
_atom_site_fract_y
_atom_site_fract_z
Si Si1 0.669621 0.457264 0.165575
Si Si2 0.712805 0.137406 0.204042
Si Si3 0.612965 0.359036 0.647787
Si Si4 0.391533 0.073743 0.398850
Si Si5 0.500000 0.330971 0.250000
Si Si6 0.992478 0.700454 0.060498
Si Si7 0.784746 0.931156 0.148909
Si Si8 0.156059 0.263698 0.277572
O O1 0.611874 0.551287 0.218522
O O2 0.602849 0.391772 0.153079
O O3 0.668554 0.416121 0.280229
O O4 0.787380 0.477785 0.025424
O O5 0.659213 0.141810 0.139555
O O6 0.614670 0.152714 0.364151
O O7 0.787797 0.214970 0.175795
O O8 0.758246 0.036995 0.168117
O O9 0.500000 0.320695 0.750000
O O10 0.648242 0.395065 0.505554
O O11 0.681156 0.290281 0.651827
O O12 0.500000 0.038445 0.250000
O O13 0.430863 0.125076 0.463529
O O14 0.490077 0.272016 0.155807
O O15 0.039025 0.741504 0.916861
O O16 0.686716 0.866533 0.233400
#
# Coordination Sequence:
#
# PCOD9286763 Si02
#       8
#     8   8   8   8   4   8   8   8
#     4  12  24  45  74 108 142 194 247 316 377 444
#     4  11  23  45  74 108 151 190 252 309 371 449
#     4  12  29  50  71 107 152 200 253 304 375 466
#     4  10  21  44  68 108 146 185 245 317 378 434
#     4  12  24  38  74 116 142 182 240 322 390 438
#     4  11  24  41  72 115 145 187 244 318 383 436
#     4  12  27  48  76 105 150 201 251 312 374 450
#     4  12  27  47  73 106 152 201 246 306 375 459
#
# _framework density 23.769632000000001
#
# number of rings (size 3 to 8) (size 9 to 14) (size 15 to 20)
#    0.000    0.533    6.667    2.000    3.733    2.133 
#    0.000    2.000    0.000    0.000    0.000    0.000 
#    0.000    0.000    0.000    0.000    0.000    0.000 
#
# Total GULP energy -167427.493865 kJ/mol
# GULP energy per Si atom -5580.916462 kJ/mol
# Density = 2.371553 g / cm^3
# Si number density = 23.769632 Si / 1000 Ang^3
#
#
#
# Elastic Constant Matrix: (Units=GPa)
#
#
# Indices 1 2 3 4 5 6 
#
# 1 58.2626 -6.9198 34.1912 0.0000 -1.0332 0.0000
# 2 -6.9198 45.8175 11.4957 0.0000 1.6368 0.0000
# 3 34.1912 11.4957 117.1543 0.0000 10.6965 0.0000
# 4 0.0000 0.0000 0.0000 19.4610 0.0000 -22.3955
# 5 -1.0332 1.6368 10.6965 0.0000 31.1562 0.0000
# 6 0.0000 0.0000 0.0000 -22.3955 0.0000 -55.6873
#
#
#
# Elastic Compliance Matrix: (Units=1/GPa)
#
#
# Indices 1 2 3 4 5 6 
#
# 1 0.022033 0.005027 -0.007192 0.000000 0.002936 0.000000
# 2 0.005027 0.023529 -0.003797 0.000000 0.000234 0.000000
# 3 -0.007192 -0.003797 0.011367 0.000000 -0.003942 0.000000
# 4 0.000000 0.000000 0.000000 0.035128 0.000000 -0.014127
# 5 0.002936 0.000234 -0.003942 0.000000 0.033535 0.000000
# 6 0.000000 0.000000 0.000000 -0.014127 0.000000 -0.012276
#
#
# Mechanical properties :
#
#
# Convention : Reuss Voigt Hill
#
# Bulk Modulus (GPa) = 22.21923 33.19649 27.70786
# Shear Modulus (GPa) = 35.65280 11.15047 23.40164
#
# Velocity S-wave (km/s) = 3.87710 2.16823 3.14111
# Velocity P-wave (km/s) = 5.42315 4.50162 4.98373
#
# Compressibility (1/GPa) = 0.04500606
#
# Stress axis : x y z
#
# Youngs Moduli (GPa) = 45.38605 42.50005 87.97318
#
# Poissons Ratio (x) = -0.21366 0.63267
# Poissons Ratio (y) = -0.22817 0.33407
# Poissons Ratio (z) = 0.32640 0.16139
#
# Static dielectric constant tensor:
#      x y z
#    x 1.912530 0.000000 -0.028070 
#    y 0.000000 1.890890 0.000000 
#    z -0.028070 0.000000 1.990510 
# 
# From -- ./inp_files/162936.got.cif
#   From: 2010.05.17/outbox.cif.g08.bks.cpg/sg15_82_cif.got.tgz:162936.got - 2010.06.03 18:47:42.
