data_PCOD9286494
_publ_section_title
;
Structure prediction by ZEFSAII (Michael W. Deem and Ramdas Pophale) SiO2 
 PCOD9286494
Probable space group: C 2/C
;
_chemical_formula_sum "Si O2"
_cell_formula_units_Z 64
_cell_length_a 16.863510
_cell_length_b 13.674747
_cell_length_c 14.523911
_cell_angle_alpha 90.000000
_cell_angle_beta 127.708893
_cell_angle_gamma 90.000000
_cell_volume 2649.707545
_symmetry_space_group_name_H-M "C 2/C"
_symmetry_group_IT_number 15
_symmetry_cell_setting 'monoclinic'
loop_
_space_group_symop_operation_xyz
x,y,z
-x,y,1/2-z
-x,-y,-z
x,-y,1/2+z
1/2+x,1/2+y,z
1/2-x,1/2+y,1/2-z
1/2-x,1/2-y,-z
1/2+x,1/2-y,1/2+z
loop_
_atom_site_type_symbol
_atom_site_label
_atom_site_fract_x
_atom_site_fract_y
_atom_site_fract_z
Si Si1 0.883561 0.603635 0.671189
Si Si2 0.451874 0.239098 0.308538
Si Si3 0.006460 0.384621 0.512724
Si Si4 0.806702 0.616866 0.801681
Si Si5 0.920294 0.175299 0.257992
Si Si6 0.033581 0.887722 0.506273
Si Si7 0.292594 0.077695 0.408944
Si Si8 0.256840 0.293478 0.900524
O O1 0.800092 0.582990 0.691928
O O2 0.897789 0.721231 0.690678
O O3 0.830732 0.570780 0.539841
O O4 0.000000 0.564257 0.750000
O O5 0.500000 0.278932 0.250000
O O6 0.522730 0.161063 0.411338
O O7 0.455637 0.329770 0.383866
O O8 0.355918 0.175297 0.206939
O O9 0.120000 0.356538 0.575017
O O10 0.000000 0.500000 0.500000
O O11 0.925278 0.355627 0.381515
O O12 0.790078 0.525586 0.855858
O O13 0.764632 0.708520 0.827127
O O14 0.963216 0.162574 0.391183
O O15 0.813396 0.124703 0.180651
O O16 0.000000 0.121821 0.250000
O O17 0.146430 0.864272 0.544662
O O18 0.000000 0.000000 0.500000
O O19 0.250000 0.250000 0.000000
#
# Coordination Sequence:
#
# PCOD9286494 Si02
#       8
#     8   8   8   8   8   8   8   8
#     4  11  22  44  75 104 154 205 252 325 407 475
#     4  12  25  49  83 112 160 222 275 344 422 499
#     4  10  21  43  70 106 150 190 257 331 406 482
#     4  11  23  46  68 108 155 194 260 332 394 485
#     4  11  26  48  73 106 156 205 268 323 396 485
#     4  12  28  51  80 116 164 220 281 350 419 509
#     4  11  25  44  72 111 150 202 263 325 398 486
#     4  12  25  50  78 111 163 211 274 335 417 495
#
# _framework density 24.153607000000001
#
# number of rings (size 3 to 8) (size 9 to 14) (size 15 to 20)
#    0.000    0.750    5.000    1.125    3.500    2.500 
#   15.750    0.000    0.000    0.000    0.000    0.000 
#    0.000    0.000    0.000    0.000    0.000    0.000 
#
# Total GULP energy -178331.832707 kJ/mol
# GULP energy per Si atom -5572.869772 kJ/mol
# Density = 2.409863 g / cm^3
# Si number density = 24.153607 Si / 1000 Ang^3
#
#
#
# Elastic Constant Matrix: (Units=GPa)
#
#
# Indices 1 2 3 4 5 6 
#
# 1 102.5496 20.3398 25.1277 0.0000 -21.4856 0.0000
# 2 20.3398 105.6408 1.1494 0.0000 -12.6746 0.0000
# 3 25.1277 1.1494 78.9947 0.0000 -29.7177 0.0000
# 4 0.0000 0.0000 0.0000 -29.7015 0.0000 4.1721
# 5 -21.4856 -12.6746 -29.7177 0.0000 58.3513 0.0000
# 6 0.0000 0.0000 0.0000 4.1721 0.0000 31.0256
#
#
#
# Elastic Compliance Matrix: (Units=1/GPa)
#
#
# Indices 1 2 3 4 5 6 
#
# 1 0.011272 -0.001854 -0.002658 0.000000 0.002394 0.000000
# 2 -0.001854 0.010066 0.001248 0.000000 0.002139 0.000000
# 3 -0.002658 0.001248 0.016353 0.000000 0.007621 0.000000
# 4 0.000000 0.000000 0.000000 -0.033044 0.000000 0.004444
# 5 0.002394 0.002139 0.007621 0.000000 0.022365 0.000000
# 6 0.000000 0.000000 0.000000 0.004444 0.000000 0.031634
#
#
# Mechanical properties :
#
#
# Convention : Reuss Voigt Hill
#
# Bulk Modulus (GPa) = 32.08847 42.26874 37.17861
# Shear Modulus (GPa) = 66.17069 27.97296 47.07182
#
# Velocity S-wave (km/s) = 5.23978 3.40682 4.41937
# Velocity P-wave (km/s) = 7.06548 5.74571 6.43950
#
# Compressibility (1/GPa) = 0.03116384
#
# Stress axis : x y z
#
# Youngs Moduli (GPa) = 88.71542 99.34302 61.14928
#
# Poissons Ratio (x) = 0.18419 0.16253
# Poissons Ratio (y) = 0.16449 -0.07633
# Poissons Ratio (z) = 0.23580 -0.12400
#
# Static dielectric constant tensor:
#      x y z
#    x 2.077090 0.000000 0.023740 
#    y 0.000000 1.894210 0.000000 
#    z 0.023740 0.000000 1.955500 
# 
# From -- ./inp_files/162571.got.cif
#   From: 2010.05.17/outbox.cif.g08.bks.cpg/sg15_82_cif.got.tgz:162571.got - 2010.06.03 18:47:42.
