data_PCOD9286828
_publ_section_title
;
Structure prediction by ZEFSAII (Michael W. Deem and Ramdas Pophale) SiO2 
 PCOD9286828
Probable space group: C 2/C
;
_chemical_formula_sum "Si O2"
_cell_formula_units_Z 32
_cell_length_a 7.854846
_cell_length_b 13.027876
_cell_length_c 12.969661
_cell_angle_alpha 90.000000
_cell_angle_beta 56.596855
_cell_angle_gamma 90.000000
_cell_volume 1107.979018
_symmetry_space_group_name_H-M "C 2/C"
_symmetry_group_IT_number 15
_symmetry_cell_setting 'monoclinic'
loop_
_space_group_symop_operation_xyz
x,y,z
-x,y,1/2-z
-x,-y,-z
x,-y,1/2+z
1/2+x,1/2+y,z
1/2-x,1/2+y,1/2-z
1/2-x,1/2-y,-z
1/2+x,1/2-y,1/2+z
loop_
_atom_site_type_symbol
_atom_site_label
_atom_site_fract_x
_atom_site_fract_y
_atom_site_fract_z
Si Si1 0.420381 0.827624 0.522711
Si Si2 0.788746 0.476229 0.947627
Si Si3 0.275913 0.266273 0.275522
Si Si4 0.384129 0.488752 0.194929
O O1 0.547486 0.906235 0.551926
O O2 0.923753 0.750825 0.586484
O O3 0.280185 0.772505 0.655900
O O4 0.318399 0.904653 0.472846
O O5 0.569097 0.446009 0.065617
O O6 0.768455 0.458470 0.832444
O O7 0.500000 0.245036 0.250000
O O8 0.268556 0.390803 0.276071
O O9 0.500000 0.543636 0.250000
#
# Coordination Sequence:
#
# PCOD9286828 Si02
#       4
#     8   8   8   8
#     4  11  24  46  72 109 141 192 239 295 361 424
#     4  10  23  44  72 103 142 186 244 293 351 431
#     4  11  23  44  68 105 150 188 235 292 362 433
#     4  10  21  44  70 101 144 185 234 298 355 422
#
# _framework density 28.881412999999998
#
# number of rings (size 3 to 8) (size 9 to 14) (size 15 to 20)
#    0.000    1.500    5.000    0.750    0.000    4.000 
#    4.500    0.000    5.500    0.000    0.000    0.000 
#    0.000    0.000    0.000    0.000    0.000    0.000 
#
# Total GULP energy -89650.349941 kJ/mol
# GULP energy per Si atom -5603.146871 kJ/mol
# Density = 2.881568 g / cm^3
# Si number density = 28.881413 Si / 1000 Ang^3
#
#
#
# Elastic Constant Matrix: (Units=GPa)
#
#
# Indices 1 2 3 4 5 6 
#
# 1 104.3603 49.5505 83.2262 0.0000 25.2379 0.0000
# 2 49.5505 104.5602 67.5564 0.0000 3.4445 0.0000
# 3 83.2262 67.5564 225.4622 0.0000 6.1264 0.0000
# 4 0.0000 0.0000 0.0000 47.8979 0.0000 2.0459
# 5 25.2379 3.4445 6.1264 0.0000 73.6014 0.0000
# 6 0.0000 0.0000 0.0000 2.0459 0.0000 49.7153
#
#
#
# Elastic Compliance Matrix: (Units=1/GPa)
#
#
# Indices 1 2 3 4 5 6 
#
# 1 0.016792 -0.004803 -0.004619 0.000000 -0.005149 0.000000
# 2 -0.004803 0.013239 -0.002227 0.000000 0.001213 0.000000
# 3 -0.004619 -0.002227 0.006777 0.000000 0.001124 0.000000
# 4 0.000000 0.000000 0.000000 0.020914 0.000000 -0.000861
# 5 -0.005149 0.001213 0.001124 0.000000 0.015202 0.000000
# 6 0.000000 0.000000 0.000000 -0.000861 0.000000 0.020150
#
#
# Mechanical properties :
#
#
# Convention : Reuss Voigt Hill
#
# Bulk Modulus (GPa) = 74.02441 92.78321 83.40381
# Shear Modulus (GPa) = 41.36477 49.84624 45.60551
#
# Velocity S-wave (km/s) = 3.78858 4.15889 3.97805
# Velocity P-wave (km/s) = 6.69507 7.43352 7.07394
#
# Compressibility (1/GPa) = 0.01350906
#
# Stress axis : x y z
#
# Youngs Moduli (GPa) = 59.55291 75.53506 147.55513
#
# Poissons Ratio (x) = 0.36283 0.68160
# Poissons Ratio (y) = 0.28606 0.32856
# Poissons Ratio (z) = 0.27509 0.16819
#
# Static dielectric constant tensor:
#      x y z
#    x 2.200540 0.000000 0.013250 
#    y 0.000000 2.323180 0.000000 
#    z 0.013250 0.000000 2.304460 
# 
# From -- ./inp_files/131985.got.cif
#   From: 2010.05.17/outbox.cif.g08.bks.cpg/sg15_66_cif.got.tgz:131985.got - 2010.06.03 18:47:42.
