data_PCOD9286846
_publ_section_title
;
Structure prediction by ZEFSAII (Michael W. Deem and Ramdas Pophale) SiO2 
 PCOD9286846
Probable space group: C 2/C
;
_chemical_formula_sum "Si O2"
_cell_formula_units_Z 40
_cell_length_a 9.269352
_cell_length_b 10.207124
_cell_length_c 16.743401
_cell_angle_alpha 90.000000
_cell_angle_beta 90.192991
_cell_angle_gamma 90.000000
_cell_volume 1584.141533
_symmetry_space_group_name_H-M "C 2/C"
_symmetry_group_IT_number 15
_symmetry_cell_setting 'monoclinic'
loop_
_space_group_symop_operation_xyz
x,y,z
-x,y,1/2-z
-x,-y,-z
x,-y,1/2+z
1/2+x,1/2+y,z
1/2-x,1/2+y,1/2-z
1/2-x,1/2-y,-z
1/2+x,1/2-y,1/2+z
loop_
_atom_site_type_symbol
_atom_site_label
_atom_site_fract_x
_atom_site_fract_y
_atom_site_fract_z
Si Si1 0.911442 0.211414 0.019560
Si Si2 0.326185 0.316737 0.243708
Si Si3 0.651242 0.879207 0.982729
Si Si4 0.855430 0.538403 0.198419
Si Si5 0.383146 0.463978 0.087471
O O1 0.991795 0.129825 0.947682
O O2 0.750000 0.250000 0.000000
O O3 0.004691 0.343779 0.027357
O O4 0.936751 0.113056 0.094489
O O5 0.500000 0.315484 0.250000
O O6 0.243525 0.409649 0.304846
O O7 0.281276 0.165359 0.240698
O O8 0.307080 0.394749 0.160848
O O9 0.756827 0.982873 0.022183
O O10 0.750000 0.750000 0.000000
O O11 0.619072 0.907635 0.890707
O O12 0.000000 0.510693 0.250000
#
# Coordination Sequence:
#
# PCOD9286846 Si02
#       5
#     8   8   8   8   8
#     4  10  22  38  69 100 129 172 228 278 346 396
#     4  11  26  44  72  97 144 186 228 286 353 410
#     4  10  21  44  70  95 138 176 227 289 334 403
#     4  11  26  47  69 101 143 183 229 288 349 413
#     4  10  23  42  66 100 134 174 232 284 336 410
#
# _framework density 25.250268999999999
#
# number of rings (size 3 to 8) (size 9 to 14) (size 15 to 20)
#    0.000    1.600    4.000    0.000   11.200    1.600 
#    0.000    0.000    0.000    0.000    0.000    0.000 
#    0.000    0.000    0.000    0.000    0.000    0.000 
#
# Total GULP energy -111762.395304 kJ/mol
# GULP energy per Si atom -5588.119765 kJ/mol
# Density = 2.519280 g / cm^3
# Si number density = 25.250269 Si / 1000 Ang^3
#
#
#
# Elastic Constant Matrix: (Units=GPa)
#
#
# Indices 1 2 3 4 5 6 
#
# 1 131.1103 19.4251 15.4292 0.0000 2.2225 0.0000
# 2 19.4251 127.2343 -8.3140 0.0000 -11.7093 0.0000
# 3 15.4292 -8.3140 46.5227 0.0000 16.0642 0.0000
# 4 0.0000 0.0000 0.0000 25.0551 0.0000 -8.2660
# 5 2.2225 -11.7093 16.0642 0.0000 36.1366 0.0000
# 6 0.0000 0.0000 0.0000 -8.2660 0.0000 37.0106
#
#
#
# Elastic Compliance Matrix: (Units=1/GPa)
#
#
# Indices 1 2 3 4 5 6 
#
# 1 0.008197 -0.001416 -0.003118 0.000000 0.000423 0.000000
# 2 -0.001416 0.008362 0.001179 0.000000 0.002272 0.000000
# 3 -0.003118 0.001179 0.026629 0.000000 -0.011264 0.000000
# 4 0.000000 0.000000 0.000000 0.043087 0.000000 0.009623
# 5 0.000423 0.002272 -0.011264 0.000000 0.033390 0.000000
# 6 0.000000 0.000000 0.000000 0.009623 0.000000 0.029169
#
#
# Mechanical properties :
#
#
# Convention : Reuss Voigt Hill
#
# Bulk Modulus (GPa) = 27.41309 39.77198 33.59254
# Shear Modulus (GPa) = 29.81490 38.19560 34.00525
#
# Velocity S-wave (km/s) = 3.43997 3.89354 3.67376
# Velocity P-wave (km/s) = 5.16314 5.99985 5.59715
#
# Compressibility (1/GPa) = 0.03647892
#
# Stress axis : x y z
#
# Youngs Moduli (GPa) = 122.00048 119.58987 37.55312
#
# Poissons Ratio (x) = 0.16936 0.11707
# Poissons Ratio (y) = 0.17278 -0.04429
# Poissons Ratio (z) = 0.38034 -0.14104
#
# Static dielectric constant tensor:
#      x y z
#    x 2.024900 0.000000 -0.002810 
#    y 0.000000 2.090190 0.000000 
#    z -0.002810 0.000000 2.045780 
# 
# From -- ./inp_files/187783.got.cif
#   From: 2010.05.17/outbox.cif.g08.bks.cpg/sg15_94_cif.got.tgz:187783.got - 2010.06.03 18:47:42.
