data_PCOD9286436
_publ_section_title
;
Structure prediction by ZEFSAII (Michael W. Deem and Ramdas Pophale) SiO2 
 PCOD9286436
Probable space group: C 2/C
;
_chemical_formula_sum "Si O2"
_cell_formula_units_Z 60
_cell_length_a 6.874596
_cell_length_b 12.682713
_cell_length_c 25.464741
_cell_angle_alpha 90.000000
_cell_angle_beta 91.279280
_cell_angle_gamma 90.000000
_cell_volume 2219.679889
_symmetry_space_group_name_H-M "C 2/C"
_symmetry_group_IT_number 15
_symmetry_cell_setting 'monoclinic'
loop_
_space_group_symop_operation_xyz
x,y,z
-x,y,1/2-z
-x,-y,-z
x,-y,1/2+z
1/2+x,1/2+y,z
1/2-x,1/2+y,1/2-z
1/2-x,1/2-y,-z
1/2+x,1/2-y,1/2+z
loop_
_atom_site_type_symbol
_atom_site_label
_atom_site_fract_x
_atom_site_fract_y
_atom_site_fract_z
Si Si1 0.339126 0.902642 0.487430
Si Si2 0.500000 0.044308 0.250000
Si Si3 0.137665 0.615083 0.890404
Si Si4 0.103552 0.380234 0.849673
Si Si5 0.415714 0.321276 0.096169
Si Si6 0.872914 0.964690 0.199263
Si Si7 0.858798 0.833029 0.641575
Si Si8 0.730971 0.136954 0.027320
O O1 0.479924 0.893325 0.436210
O O2 0.161017 0.838584 0.463431
O O3 0.492933 0.873049 0.533478
O O4 0.249757 0.018917 0.496298
O O5 0.369344 0.117767 0.212297
O O6 0.652416 0.975645 0.218325
O O7 0.151801 0.497848 0.868219
O O8 0.352222 0.657270 0.907604
O O9 0.084379 0.711496 0.851105
O O10 0.187855 0.284694 0.882788
O O11 0.873054 0.351710 0.851851
O O12 0.371939 0.399903 0.144920
O O13 0.948483 0.079856 0.180040
O O14 0.000000 0.926842 0.250000
O O15 0.868130 0.860806 0.579374
O O16 0.750000 0.250000 0.000000
#
# Coordination Sequence:
#
# PCOD9286436 Si02
#       8
#     8   4   8   8   8   8   8   8
#     4  11  23  41  70  98 130 179 224 273 339 400
#     4  10  22  44  64  94 132 170 220 274 326 402
#     4  11  22  42  68  93 138 182 217 278 337 398
#     4  10  22  42  66  93 136 180 218 277 346 398
#     4  11  25  42  69 100 135 173 224 280 332 410
#     4  11  23  43  71 100 131 171 225 274 338 401
#     4  10  21  43  68  98 135 177 223 280 336 404
#     4  11  21  40  71  97 133 177 224 283 337 398
#
# _framework density 27.030926999999998
#
# number of rings (size 3 to 8) (size 9 to 14) (size 15 to 20)
#    0.000    1.333    4.000    1.600    0.933    3.200 
#    3.600    5.333    0.000    0.000    0.000    0.000 
#    0.000    0.000    0.000    0.000    0.000    0.000 
#
# Total GULP energy -167400.109541 kJ/mol
# GULP energy per Si atom -5580.003651 kJ/mol
# Density = 2.696940 g / cm^3
# Si number density = 27.030927 Si / 1000 Ang^3
#
#
#
# Elastic Constant Matrix: (Units=GPa)
#
#
# Indices 1 2 3 4 5 6 
#
# 1 100.4131 23.3974 10.4860 0.0000 7.0103 0.0000
# 2 23.3974 185.9592 32.4760 0.0000 -0.9850 0.0000
# 3 10.4860 32.4760 87.8716 0.0000 2.4488 0.0000
# 4 0.0000 0.0000 0.0000 44.7522 0.0000 -4.3945
# 5 7.0103 -0.9850 2.4488 0.0000 47.6807 0.0000
# 6 0.0000 0.0000 0.0000 -4.3945 0.0000 41.6592
#
#
#
# Elastic Compliance Matrix: (Units=1/GPa)
#
#
# Indices 1 2 3 4 5 6 
#
# 1 0.010421 -0.001186 -0.000763 0.000000 -0.001517 0.000000
# 2 -0.001186 0.005886 -0.002045 0.000000 0.000401 0.000000
# 3 -0.000763 -0.002045 0.012243 0.000000 -0.000559 0.000000
# 4 0.000000 0.000000 0.000000 0.022579 0.000000 0.002382
# 5 -0.001517 0.000401 -0.000559 0.000000 0.021233 0.000000
# 6 0.000000 0.000000 0.000000 0.002382 0.000000 0.024256
#
#
# Mechanical properties :
#
#
# Convention : Reuss Voigt Hill
#
# Bulk Modulus (GPa) = 48.63425 56.32918 52.48172
# Shear Modulus (GPa) = 44.85960 47.34405 46.10183
#
# Velocity S-wave (km/s) = 4.07820 4.18961 4.13428
# Velocity P-wave (km/s) = 6.34088 6.65490 6.49979
#
# Compressibility (1/GPa) = 0.02056164
#
# Stress axis : x y z
#
# Youngs Moduli (GPa) = 95.96184 169.89443 81.68150
#
# Poissons Ratio (x) = 0.20148 0.06232
# Poissons Ratio (y) = 0.11380 0.16704
# Poissons Ratio (z) = 0.07321 0.34744
#
# Static dielectric constant tensor:
#      x y z
#    x 2.261810 0.000000 0.060640 
#    y 0.000000 2.197620 0.000000 
#    z 0.060640 0.000000 2.281980 
# 
# From -- ./inp_files/307193.got.cif
#   From: 2010.05.17/outbox.cif.g08.bks.cpg/sg15_154_cif.got.tgz:307193.got - 2010.06.03 18:47:42.
