data_PCOD9286618
_publ_section_title
;
Structure prediction by ZEFSAII (Michael W. Deem and Ramdas Pophale) SiO2 
 PCOD9286618
Probable space group: C 2/C
;
_chemical_formula_sum "Si O2"
_cell_formula_units_Z 32
_cell_length_a 12.445409
_cell_length_b 8.327723
_cell_length_c 11.719324
_cell_angle_alpha 90.000000
_cell_angle_beta 112.437711
_cell_angle_gamma 90.000000
_cell_volume 1122.660956
_symmetry_space_group_name_H-M "C 2/C"
_symmetry_group_IT_number 15
_symmetry_cell_setting 'monoclinic'
loop_
_space_group_symop_operation_xyz
x,y,z
-x,y,1/2-z
-x,-y,-z
x,-y,1/2+z
1/2+x,1/2+y,z
1/2-x,1/2+y,1/2-z
1/2-x,1/2-y,-z
1/2+x,1/2-y,1/2+z
loop_
_atom_site_type_symbol
_atom_site_label
_atom_site_fract_x
_atom_site_fract_y
_atom_site_fract_z
Si Si1 0.462876 0.279849 0.864815
Si Si2 0.000000 0.664720 0.250000
Si Si3 0.750000 0.750000 0.500000
Si Si4 0.174088 0.402958 0.009940
Si Si5 0.860177 0.129292 0.870072
O O1 0.500000 0.277667 0.750000
O O2 0.398788 0.447426 0.872061
O O3 0.586301 0.291391 0.988290
O O4 0.390921 0.144426 0.900546
O O5 0.073768 0.575365 0.374756
O O6 0.088519 0.776318 0.214547
O O7 0.733100 0.830304 0.359198
O O8 0.247506 0.561742 0.052836
O O9 0.250000 0.250000 0.000000
#
# Coordination Sequence:
#
# PCOD9286618 Si02
#       5
#     8   4   4   8   8
#     4  10  21  43  76 111 153 209 263 328 402 476
#     4  10  24  48  78 114 158 216 266 330 412 480
#     4  12  26  48  72 116 154 206 272 324 400 482
#     4  11  25  50  80 116 163 209 269 336 403 487
#     4  10  22  43  72 109 155 203 265 330 401 473
#
# _framework density 28.503706000000001
#
# number of rings (size 3 to 8) (size 9 to 14) (size 15 to 20)
#    0.000    1.500    3.750    0.000    0.000    6.000 
#   13.500    1.250    0.000    0.000    0.000    1.750 
#    0.000    0.000    0.000    0.000    0.000    0.000 
#
# Total GULP energy -89525.534174 kJ/mol
# GULP energy per Si atom -5595.345886 kJ/mol
# Density = 2.843883 g / cm^3
# Si number density = 28.503706 Si / 1000 Ang^3
#
#
#
# Elastic Constant Matrix: (Units=GPa)
#
#
# Indices 1 2 3 4 5 6 
#
# 1 190.7447 94.1170 66.0892 0.0000 -59.1804 0.0000
# 2 94.1170 196.4687 31.9657 0.0000 -22.7074 0.0000
# 3 66.0892 31.9657 212.1861 0.0000 -48.9160 0.0000
# 4 0.0000 0.0000 0.0000 10.8681 0.0000 -26.4427
# 5 -59.1804 -22.7074 -48.9160 0.0000 68.0817 0.0000
# 6 0.0000 0.0000 0.0000 -26.4427 0.0000 89.2490
#
#
#
# Elastic Compliance Matrix: (Units=1/GPa)
#
#
# Indices 1 2 3 4 5 6 
#
# 1 0.009234 -0.003560 -0.000915 0.000000 0.006182 0.000000
# 2 -0.003560 0.006706 -0.000119 0.000000 -0.000944 0.000000
# 3 -0.000915 -0.000119 0.005781 0.000000 0.003319 0.000000
# 4 0.000000 0.000000 0.000000 0.329637 0.000000 0.097665
# 5 0.006182 -0.000944 0.003319 0.000000 0.022132 0.000000
# 6 0.000000 0.000000 0.000000 0.097665 0.000000 0.040141
#
#
# Mechanical properties :
#
#
# Convention : Reuss Voigt Hill
#
# Bulk Modulus (GPa) = 79.78748 109.30481 94.54615
# Shear Modulus (GPa) = 11.70972 60.78826 36.24899
#
# Velocity S-wave (km/s) = 2.02905 4.62307 3.57000
# Velocity P-wave (km/s) = 5.79156 8.18094 7.08766
#
# Compressibility (1/GPa) = 0.01253330
#
# Stress axis : x y z
#
# Youngs Moduli (GPa) = 108.29093 149.12728 172.98977
#
# Poissons Ratio (x) = 0.53094 0.15822
# Poissons Ratio (y) = 0.38555 0.02056
# Poissons Ratio (z) = 0.09904 0.01772
#
# Static dielectric constant tensor:
#      x y z
#    x 6.031520 0.000000 0.351890 
#    y 0.000000 2.178630 0.000000 
#    z 0.351890 0.000000 2.516480 
# 
# From -- ./inp_files/84206.got.cif
#   From: 2010.05.17/outbox.cif.g08.bks.cpg/sg15_43_cif.got.tgz:84206.got - 2010.06.03 18:47:42.
