data_PCOD9286172
_publ_section_title
;
Structure prediction by ZEFSAII (Michael W. Deem and Ramdas Pophale) SiO2 
 PCOD9286172
Probable space group: C 2/C
;
_chemical_formula_sum "Si O2"
_cell_formula_units_Z 44
_cell_length_a 22.304040
_cell_length_b 11.433388
_cell_length_c 8.082934
_cell_angle_alpha 90.000000
_cell_angle_beta 87.986403
_cell_angle_gamma 90.000000
_cell_volume 2059.962229
_symmetry_space_group_name_H-M "C 2/C"
_symmetry_group_IT_number 15
_symmetry_cell_setting 'monoclinic'
loop_
_space_group_symop_operation_xyz
x,y,z
-x,y,1/2-z
-x,-y,-z
x,-y,1/2+z
1/2+x,1/2+y,z
1/2-x,1/2+y,1/2-z
1/2-x,1/2-y,-z
1/2+x,1/2-y,1/2+z
loop_
_atom_site_type_symbol
_atom_site_label
_atom_site_fract_x
_atom_site_fract_y
_atom_site_fract_z
Si Si1 0.616027 0.166903 0.926892
Si Si2 0.472009 0.380590 0.071444
Si Si3 0.268732 0.132491 0.768863
Si Si4 0.500000 0.779011 0.250000
Si Si5 0.326381 0.069793 0.085222
Si Si6 0.866215 0.206849 0.752439
O O1 0.677245 0.201549 0.825727
O O2 0.559407 0.156376 0.811340
O O3 0.633071 0.036590 0.990433
O O4 0.607293 0.262944 0.069741
O O5 0.500000 0.348974 0.250000
O O6 0.402453 0.383470 0.135168
O O7 0.500000 0.500000 0.000000
O O8 0.479802 0.294182 0.914694
O O9 0.203144 0.171862 0.726642
O O10 0.282501 0.998616 0.713816
O O11 0.284162 0.132864 0.958696
O O12 0.367287 0.167776 0.161617
#
# Coordination Sequence:
#
# PCOD9286172 Si02
#       6
#     8   8   8   4   8   8
#     4  10  22  43  70 105 145 186 246 297 361 444
#     4  12  27  48  70 102 145 188 251 293 359 448
#     4  10  22  40  69 102 146 182 242 304 366 439
#     4  12  24  48  74 102 148 196 234 310 364 420
#     4  10  21  43  62 106 144 177 244 298 357 450
#     4  12  23  44  71 101 145 196 236 312 373 417
#
# _framework density 21.359615000000002
#
# number of rings (size 3 to 8) (size 9 to 14) (size 15 to 20)
#    1.091    0.000    4.545    2.182    0.000    1.455 
#    4.909    2.727    0.000    0.000    0.000    0.000 
#    0.000    0.000    0.000    0.000    0.000    0.000 
#
# Total GULP energy -122522.760877 kJ/mol
# GULP energy per Si atom -5569.216403 kJ/mol
# Density = 2.131100 g / cm^3
# Si number density = 21.359615 Si / 1000 Ang^3
#
#
#
# Elastic Constant Matrix: (Units=GPa)
#
#
# Indices 1 2 3 4 5 6 
#
# 1 144.1028 33.8617 37.7695 0.0000 3.0200 0.0000
# 2 33.8617 54.3922 20.0600 0.0000 -1.3132 0.0000
# 3 37.7695 20.0600 120.5054 0.0000 16.5802 0.0000
# 4 0.0000 0.0000 0.0000 30.9530 0.0000 -11.8604
# 5 3.0200 -1.3132 16.5802 0.0000 28.6667 0.0000
# 6 0.0000 0.0000 0.0000 -11.8604 0.0000 25.9064
#
#
#
# Elastic Compliance Matrix: (Units=1/GPa)
#
#
# Indices 1 2 3 4 5 6 
#
# 1 0.008520 -0.004602 -0.001903 0.000000 -0.000008 0.000000
# 2 -0.004602 0.022318 -0.002694 0.000000 0.003066 0.000000
# 3 -0.001903 -0.002694 0.010140 0.000000 -0.005788 0.000000
# 4 0.000000 0.000000 0.000000 0.039180 0.000000 0.017937
# 5 -0.000008 0.003066 -0.005788 0.000000 0.038372 0.000000
# 6 0.000000 0.000000 0.000000 0.017937 0.000000 0.046813
#
#
# Mechanical properties :
#
#
# Convention : Reuss Voigt Hill
#
# Bulk Modulus (GPa) = 44.29174 55.82031 50.05603
# Shear Modulus (GPa) = 26.14126 32.25917 29.20022
#
# Velocity S-wave (km/s) = 3.50217 3.89046 3.70141
# Velocity P-wave (km/s) = 6.09384 6.80964 6.46166
#
# Compressibility (1/GPa) = 0.02257757
#
# Stress axis : x y z
#
# Youngs Moduli (GPa) = 117.37150 44.80707 98.62194
#
# Poissons Ratio (x) = 0.20622 0.18770
# Poissons Ratio (y) = 0.54019 0.26573
# Poissons Ratio (z) = 0.22338 0.12073
#
# Static dielectric constant tensor:
#      x y z
#    x 1.802680 0.000000 -0.023220 
#    y 0.000000 1.787120 0.000000 
#    z -0.023220 0.000000 1.784760 
# 
# From -- ./inp_files/54517.got.cif
#   From: 2010.05.17/outbox.cif.g08.bks.cpg/sg15_28_cif.got.tgz:54517.got - 2010.06.03 18:47:42.
