data_PCOD9286033
_publ_section_title
;
Structure prediction by ZEFSAII (Michael W. Deem and Ramdas Pophale) SiO2 
 PCOD9286033
Probable space group: C 2/C
;
_chemical_formula_sum "Si O2"
_cell_formula_units_Z 36
_cell_length_a 15.159894
_cell_length_b 14.974132
_cell_length_c 5.573285
_cell_angle_alpha 90.000000
_cell_angle_beta 92.692865
_cell_angle_gamma 90.000000
_cell_volume 1263.773464
_symmetry_space_group_name_H-M "C 2/C"
_symmetry_group_IT_number 15
_symmetry_cell_setting 'monoclinic'
loop_
_space_group_symop_operation_xyz
x,y,z
-x,y,1/2-z
-x,-y,-z
x,-y,1/2+z
1/2+x,1/2+y,z
1/2-x,1/2+y,1/2-z
1/2-x,1/2-y,-z
1/2+x,1/2-y,1/2+z
loop_
_atom_site_type_symbol
_atom_site_label
_atom_site_fract_x
_atom_site_fract_y
_atom_site_fract_z
Si Si1 0.309528 0.549226 0.652500
Si Si2 0.500000 0.625464 0.750000
Si Si3 0.059080 0.588473 0.052631
Si Si4 0.278390 0.847144 0.705600
Si Si5 0.611634 0.263223 0.938420
O O1 0.296569 0.512612 0.916481
O O2 0.412802 0.572946 0.665488
O O3 0.242578 0.628538 0.569471
O O4 0.471027 0.681355 0.980452
O O5 0.155605 0.574367 0.184315
O O6 0.082411 0.663176 0.855312
O O7 0.000000 0.635483 0.250000
O O8 0.000000 0.500000 0.000000
O O9 0.336504 0.764851 0.808353
O O10 0.181282 0.821754 0.798469
#
# Coordination Sequence:
#
# PCOD9286033 Si02
#       5
#     8   4   8   8   8
#     4  12  28  49  80 115 161 205 271 337 417 486
#     4  12  24  48  78 108 154 210 276 332 402 492
#     4  10  21  42  70 111 158 205 270 337 411 489
#     4   9  22  43  74 111 160 208 266 330 417 490
#     4   9  20  45  72 112 155 212 268 329 409 494
#
# _framework density 28.486117
#
# number of rings (size 3 to 8) (size 9 to 14) (size 15 to 20)
#    1.333    0.444    1.111    2.000    3.111    3.556 
#    4.000    0.000    0.000    0.000    0.000    0.000 
#    0.000    0.000    0.000    0.000    0.000    0.000 
#
# Total GULP energy -100385.050539 kJ/mol
# GULP energy per Si atom -5576.947252 kJ/mol
# Density = 2.842128 g / cm^3
# Si number density = 28.486117 Si / 1000 Ang^3
#
#
#
# Elastic Constant Matrix: (Units=GPa)
#
#
# Indices 1 2 3 4 5 6 
#
# 1 220.1266 63.7314 64.7074 0.0000 -21.8645 0.0000
# 2 63.7314 107.3567 73.2547 0.0000 5.0493 0.0000
# 3 64.7074 73.2547 121.3236 0.0000 11.1353 0.0000
# 4 0.0000 0.0000 0.0000 50.5391 0.0000 18.7074
# 5 -21.8645 5.0493 11.1353 0.0000 67.7910 0.0000
# 6 0.0000 0.0000 0.0000 18.7074 0.0000 56.0773
#
#
#
# Elastic Compliance Matrix: (Units=1/GPa)
#
#
# Indices 1 2 3 4 5 6 
#
# 1 0.006063 -0.002303 -0.002069 0.000000 0.002467 0.000000
# 2 -0.002303 0.016727 -0.008822 0.000000 -0.000540 0.000000
# 3 -0.002069 -0.008822 0.014898 0.000000 -0.002458 0.000000
# 4 0.000000 0.000000 0.000000 0.022574 0.000000 -0.007531
# 5 0.002467 -0.000540 -0.002458 0.000000 0.015991 0.000000
# 6 0.000000 0.000000 0.000000 -0.007531 0.000000 0.020345
#
#
# Mechanical properties :
#
#
# Convention : Reuss Voigt Hill
#
# Bulk Modulus (GPa) = 88.49999 94.68821 91.59410
# Shear Modulus (GPa) = 39.44682 51.35572 45.40127
#
# Velocity S-wave (km/s) = 3.72529 4.25058 3.99658
# Velocity P-wave (km/s) = 7.04549 7.57643 7.31578
#
# Compressibility (1/GPa) = 0.01129944
#
# Stress axis : x y z
#
# Youngs Moduli (GPa) = 164.93396 59.78411 67.12231
#
# Poissons Ratio (x) = 0.13770 0.13891
# Poissons Ratio (y) = 0.37988 0.59213
# Poissons Ratio (z) = 0.34132 0.52739
#
# Static dielectric constant tensor:
#      x y z
#    x 2.137980 0.000000 0.053460 
#    y 0.000000 2.558570 0.000000 
#    z 0.053460 0.000000 2.234600 
# 
# From -- ./inp_files/9731.got.cif
#   From: 2010.05.17/outbox.cif.g08.bks.cpg/sg15_5_cif.got.tgz:9731.got - 2010.06.03 18:47:42.
