data_PCOD9286168
_publ_section_title
;
Structure prediction by ZEFSAII (Michael W. Deem and Ramdas Pophale) SiO2 
 PCOD9286168
Probable space group: C 2/C
;
_chemical_formula_sum "Si O2"
_cell_formula_units_Z 44
_cell_length_a 10.435482
_cell_length_b 27.175793
_cell_length_c 9.123631
_cell_angle_alpha 90.000000
_cell_angle_beta 112.352989
_cell_angle_gamma 90.000000
_cell_volume 2392.972412
_symmetry_space_group_name_H-M "C 2/C"
_symmetry_group_IT_number 15
_symmetry_cell_setting 'monoclinic'
loop_
_space_group_symop_operation_xyz
x,y,z
-x,y,1/2-z
-x,-y,-z
x,-y,1/2+z
1/2+x,1/2+y,z
1/2-x,1/2+y,1/2-z
1/2-x,1/2-y,-z
1/2+x,1/2-y,1/2+z
loop_
_atom_site_type_symbol
_atom_site_label
_atom_site_fract_x
_atom_site_fract_y
_atom_site_fract_z
Si Si1 0.551460 0.859677 0.626398
Si Si2 0.000000 0.135170 0.250000
Si Si3 0.778621 0.937067 0.801198
Si Si4 0.258564 0.308437 0.499056
Si Si5 0.334372 0.461259 0.165937
Si Si6 0.862527 0.383173 0.282108
O O1 0.500000 0.834184 0.750000
O O2 0.634465 0.909030 0.707773
O O3 0.657688 0.827322 0.582570
O O4 0.422674 0.870096 0.466323
O O5 0.899498 0.100522 0.302799
O O6 0.907859 0.169426 0.104613
O O7 0.793895 0.984504 0.704124
O O8 0.794045 0.951894 0.978401
O O9 0.250000 0.250000 0.500000
O O10 0.201097 0.336211 0.329647
O O11 0.500000 0.455451 0.250000
O O12 0.253555 0.424065 0.239516
O O13 0.000000 0.399780 0.250000
#
# Coordination Sequence:
#
# PCOD9286168 Si02
#       6
#     8   4   8   8   8   8
#     4  10  21  43  61  90 130 162 210 269 319 378
#     4  10  22  42  62  92 132 162 216 268 326 382
#     4  11  24  38  62  92 130 174 212 268 314 388
#     4  10  23  41  70  93 121 167 216 266 331 389
#     4  12  24  38  64  92 134 172 224 257 325 377
#     4  10  23  41  65  91 131 167 216 264 324 384
#
# _framework density 18.387174000000002
#
# number of rings (size 3 to 8) (size 9 to 14) (size 15 to 20)
#    0.000    1.455    2.727    1.636   11.455    1.455 
#    0.000    3.636    0.000    0.000    0.000    0.000 
#    0.000    0.000    0.000    0.000    0.000    0.000 
#
# Total GULP energy -122794.810125 kJ/mol
# GULP energy per Si atom -5581.582278 kJ/mol
# Density = 1.834532 g / cm^3
# Si number density = 18.387174 Si / 1000 Ang^3
#
#
#
# Elastic Constant Matrix: (Units=GPa)
#
#
# Indices 1 2 3 4 5 6 
#
# 1 64.0286 49.6348 37.0639 0.0000 11.7196 0.0000
# 2 49.6348 150.0940 65.2852 0.0000 7.5050 0.0000
# 3 37.0639 65.2852 143.1248 0.0000 3.4289 0.0000
# 4 0.0000 0.0000 0.0000 17.8912 0.0000 1.5988
# 5 11.7196 7.5050 3.4289 0.0000 29.2661 0.0000
# 6 0.0000 0.0000 0.0000 1.5988 0.0000 10.6036
#
#
#
# Elastic Compliance Matrix: (Units=1/GPa)
#
#
# Indices 1 2 3 4 5 6 
#
# 1 0.023481 -0.006018 -0.003156 0.000000 -0.007490 0.000000
# 2 -0.006018 0.009938 -0.002980 0.000000 0.000210 0.000000
# 3 -0.003156 -0.002980 0.009141 0.000000 0.000957 0.000000
# 4 0.000000 0.000000 0.000000 0.056657 0.000000 -0.008543
# 5 -0.007490 0.000210 0.000957 0.000000 0.037003 0.000000
# 6 0.000000 0.000000 0.000000 -0.008543 0.000000 0.095596
#
#
# Mechanical properties :
#
#
# Convention : Reuss Voigt Hill
#
# Bulk Modulus (GPa) = 54.78863 73.46836 64.12850
# Shear Modulus (GPa) = 19.06896 25.23641 22.15268
#
# Velocity S-wave (km/s) = 3.22387 3.70875 3.47477
# Velocity P-wave (km/s) = 6.61208 7.64086 7.14501
#
# Compressibility (1/GPa) = 0.01825196
#
# Stress axis : x y z
#
# Youngs Moduli (GPa) = 42.58790 100.62334 109.40187
#
# Poissons Ratio (x) = 0.60550 0.34531
# Poissons Ratio (y) = 0.25627 0.32601
# Poissons Ratio (z) = 0.13442 0.29985
#
# Static dielectric constant tensor:
#      x y z
#    x 1.643560 0.000000 0.005970 
#    y 0.000000 1.611220 0.000000 
#    z 0.005970 0.000000 1.645030 
# 
# From -- ./inp_files/30699.got.cif
#   From: 2010.05.17/outbox.cif.g08.bks.cpg/sg15_16_cif.got.tgz:30699.got - 2010.06.03 18:47:42.
