data_PCOD9286635
_publ_section_title
;
Structure prediction by ZEFSAII (Michael W. Deem and Ramdas Pophale) SiO2 
 PCOD9286635
Probable space group: C 2/C
;
_chemical_formula_sum "Si O2"
_cell_formula_units_Z 64
_cell_length_a 29.296646
_cell_length_b 14.507411
_cell_length_c 9.034606
_cell_angle_alpha 90.000000
_cell_angle_beta 115.983611
_cell_angle_gamma 90.000000
_cell_volume 3451.737734
_symmetry_space_group_name_H-M "C 2/C"
_symmetry_group_IT_number 15
_symmetry_cell_setting 'monoclinic'
loop_
_space_group_symop_operation_xyz
x,y,z
-x,y,1/2-z
-x,-y,-z
x,-y,1/2+z
1/2+x,1/2+y,z
1/2-x,1/2+y,1/2-z
1/2-x,1/2-y,-z
1/2+x,1/2-y,1/2+z
loop_
_atom_site_type_symbol
_atom_site_label
_atom_site_fract_x
_atom_site_fract_y
_atom_site_fract_z
Si Si1 0.118768 0.954300 0.373736
Si Si2 0.688293 0.559938 0.706030
Si Si3 0.029342 0.924316 0.638766
Si Si4 0.225533 0.582875 0.203185
Si Si5 0.367805 0.866450 0.421591
Si Si6 0.550382 0.708189 0.916502
Si Si7 0.758006 0.721879 0.683574
Si Si8 0.659547 0.992908 0.364416
O O1 0.158204 0.913760 0.311064
O O2 0.081981 0.875137 0.384069
O O3 0.149579 0.008056 0.542676
O O4 0.083916 0.031451 0.247551
O O5 0.730983 0.483589 0.798030
O O6 0.716897 0.644950 0.670393
O O7 0.033430 0.832285 0.550159
O O8 0.000000 0.911702 0.750000
O O9 0.000000 0.000000 0.500000
O O10 0.246941 0.684275 0.257043
O O11 0.202121 0.537165 0.316669
O O12 0.183092 0.579468 0.014722
O O13 0.411775 0.792749 0.506695
O O14 0.313897 0.817352 0.302755
O O15 0.361461 0.925834 0.562329
O O16 0.376782 0.938104 0.299377
O O17 0.500000 0.728557 0.750000
O O18 0.750000 0.750000 0.500000
#
# Coordination Sequence:
#
# PCOD9286635 Si02
#       8
#     8   8   8   8   8   8   8   8
#     4  12  23  38  61  99 137 179 213 258 327 406
#     4  12  24  36  61  97 140 178 224 255 318 397
#     4  12  21  43  67  94 137 180 209 266 339 398
#     4  11  21  39  58  87 138 179 213 264 307 377
#     4  11  25  44  69  94 126 180 224 281 339 386
#     4  12  26  46  68  99 133 166 231 286 335 403
#     4  12  23  37  61  97 137 175 227 267 316 397
#     4  10  21  44  63  86 128 176 220 267 335 373
#
# _framework density 18.541385999999999
#
# number of rings (size 3 to 8) (size 9 to 14) (size 15 to 20)
#    0.000    0.500    7.500    2.250    3.500    0.500 
#    0.000    3.125    0.000    0.000    0.000    0.000 
#    0.000    0.000    0.000    0.000    0.000    0.000 
#
# Total GULP energy -178813.062242 kJ/mol
# GULP energy per Si atom -5587.908195 kJ/mol
# Density = 1.849919 g / cm^3
# Si number density = 18.541386 Si / 1000 Ang^3
#
#
#
# Elastic Constant Matrix: (Units=GPa)
#
#
# Indices 1 2 3 4 5 6 
#
# 1 101.0649 49.0860 56.1545 0.0000 -9.2905 0.0000
# 2 49.0860 109.6012 46.7919 0.0000 2.4154 0.0000
# 3 56.1545 46.7919 107.1552 0.0000 -6.2241 0.0000
# 4 0.0000 0.0000 0.0000 22.2830 0.0000 1.7809
# 5 -9.2905 2.4154 -6.2241 0.0000 28.2180 0.0000
# 6 0.0000 0.0000 0.0000 1.7809 0.0000 44.1999
#
#
#
# Elastic Compliance Matrix: (Units=1/GPa)
#
#
# Indices 1 2 3 4 5 6 
#
# 1 0.015908 -0.004630 -0.006065 0.000000 0.004296 0.000000
# 2 -0.004630 0.012682 -0.003306 0.000000 -0.003339 0.000000
# 3 -0.006065 -0.003306 0.014035 0.000000 0.001382 0.000000
# 4 0.000000 0.000000 0.000000 0.045022 0.000000 -0.001814
# 5 0.004296 -0.003339 0.001382 0.000000 0.037443 0.000000
# 6 0.000000 0.000000 0.000000 -0.001814 0.000000 0.022698
#
#
# Mechanical properties :
#
#
# Convention : Reuss Voigt Hill
#
# Bulk Modulus (GPa) = 68.38429 69.09845 68.74137
# Shear Modulus (GPa) = 27.67548 29.99277 28.83413
#
# Velocity S-wave (km/s) = 3.86765 4.02632 3.94778
# Velocity P-wave (km/s) = 7.54367 7.67874 7.61151
#
# Compressibility (1/GPa) = 0.01462324
#
# Stress axis : x y z
#
# Youngs Moduli (GPa) = 62.85999 78.84924 71.25228
#
# Poissons Ratio (x) = 0.36506 0.43218
# Poissons Ratio (y) = 0.29103 0.23554
# Poissons Ratio (z) = 0.38127 0.26066
#
# Static dielectric constant tensor:
#      x y z
#    x 1.657710 0.000000 0.001450 
#    y 0.000000 1.630910 0.000000 
#    z 0.001450 0.000000 1.688450 
# 
# From -- ./inp_files/66180.got.cif
#   From: 2010.05.17/outbox.cif.g08.bks.cpg/sg15_34_cif.got.tgz:66180.got - 2010.06.03 18:47:42.
