data_PCOD9286218
_publ_section_title
;
Structure prediction by ZEFSAII (Michael W. Deem and Ramdas Pophale) SiO2 
 PCOD9286218
Probable space group: C 2/C
;
_chemical_formula_sum "Si O2"
_cell_formula_units_Z 56
_cell_length_a 13.033877
_cell_length_b 25.341317
_cell_length_c 8.300074
_cell_angle_alpha 90.000000
_cell_angle_beta 98.349416
_cell_angle_gamma 90.000000
_cell_volume 2712.420844
_symmetry_space_group_name_H-M "C 2/C"
_symmetry_group_IT_number 15
_symmetry_cell_setting 'monoclinic'
loop_
_space_group_symop_operation_xyz
x,y,z
-x,y,1/2-z
-x,-y,-z
x,-y,1/2+z
1/2+x,1/2+y,z
1/2-x,1/2+y,1/2-z
1/2-x,1/2-y,-z
1/2+x,1/2-y,1/2+z
loop_
_atom_site_type_symbol
_atom_site_label
_atom_site_fract_x
_atom_site_fract_y
_atom_site_fract_z
Si Si1 0.598836 0.291141 0.650828
Si Si2 0.902911 0.595259 0.129794
Si Si3 0.676753 0.577492 0.459257
Si Si4 0.461515 0.607770 0.558234
Si Si5 0.206312 0.031463 0.105618
Si Si6 0.298868 0.828349 0.868173
Si Si7 0.010796 0.686161 0.563791
O O1 0.500000 0.294767 0.750000
O O2 0.593088 0.340396 0.527792
O O3 0.704047 0.294603 0.777691
O O4 0.586298 0.235847 0.555642
O O5 0.817106 0.552405 0.069211
O O6 0.845542 0.636970 0.233498
O O7 0.000000 0.571770 0.250000
O O8 0.948853 0.631878 0.001431
O O9 0.560858 0.596109 0.469335
O O10 0.687951 0.552226 0.283361
O O11 0.702267 0.531145 0.589206
O O12 0.750652 0.628471 0.479543
O O13 0.500000 0.614545 0.750000
O O14 0.383297 0.558809 0.520979
O O15 0.397811 0.799851 0.966037
O O16 0.000000 0.678918 0.750000
#
# Coordination Sequence:
#
# PCOD9286218 Si02
#       7
#     8   8   8   8   8   8   8
#     4  11  21  43  64  89 126 168 201 251 320 369
#     4   9  20  42  63  86 127 164 206 251 306 365
#     4  11  22  40  64  89 131 163 205 250 312 368
#     4  12  23  38  60  96 127 158 211 256 302 381
#     4  11  22  40  63  92 122 171 202 252 315 360
#     4  10  21  43  64  85 128 170 197 257 313 361
#     4  10  24  39  64  95 121 161 212 261 302 365
#
# _framework density 20.645762999999999
#
# number of rings (size 3 to 8) (size 9 to 14) (size 15 to 20)
#    0.000    1.429    4.286    1.714    0.000    6.857 
#    2.571    7.143    0.000    0.000    0.000    0.000 
#    0.000    0.000    0.000    0.000    0.000    0.000 
#
# Total GULP energy -156448.959924 kJ/mol
# GULP energy per Si atom -5587.462854 kJ/mol
# Density = 2.059877 g / cm^3
# Si number density = 20.645763 Si / 1000 Ang^3
#
#
#
# Elastic Constant Matrix: (Units=GPa)
#
#
# Indices 1 2 3 4 5 6 
#
# 1 81.7625 3.4235 18.0872 0.0000 3.8090 0.0000
# 2 3.4235 57.3125 4.5795 0.0000 -8.0899 0.0000
# 3 18.0872 4.5795 52.4562 0.0000 0.8387 0.0000
# 4 0.0000 0.0000 0.0000 -12.6391 0.0000 10.2799
# 5 3.8090 -8.0899 0.8387 0.0000 7.9309 0.0000
# 6 0.0000 0.0000 0.0000 10.2799 0.0000 6.4357
#
#
#
# Elastic Compliance Matrix: (Units=1/GPa)
#
#
# Indices 1 2 3 4 5 6 
#
# 1 0.013634 -0.001539 -0.004445 0.000000 -0.007648 0.000000
# 2 -0.001539 0.020794 -0.001638 0.000000 0.022123 0.000000
# 3 -0.004445 -0.001638 0.020767 0.000000 -0.001733 0.000000
# 4 0.000000 0.000000 0.000000 -0.034412 0.000000 0.054968
# 5 -0.007648 0.022123 -0.001733 0.000000 0.152511 0.000000
# 6 0.000000 0.000000 0.000000 0.054968 0.000000 0.067583
#
#
# Mechanical properties :
#
#
# Convention : Reuss Voigt Hill
#
# Bulk Modulus (GPa) = 25.03051 27.07907 26.05479
# Shear Modulus (GPa) = 18.55717 11.37491 14.96604
#
# Velocity S-wave (km/s) = 3.00131 2.34979 2.69531
# Velocity P-wave (km/s) = 4.91535 4.52842 4.72584
#
# Compressibility (1/GPa) = 0.03995125
#
# Stress axis : x y z
#
# Youngs Moduli (GPa) = 73.34336 48.09124 48.15379
#
# Poissons Ratio (x) = 0.07400 0.21403
# Poissons Ratio (y) = 0.11286 0.07890
# Poissons Ratio (z) = 0.32598 0.07880
#
# Static dielectric constant tensor:
#      x y z
#    x 1.745150 0.000000 -0.003270 
#    y 0.000000 1.762380 0.000000 
#    z -0.003270 0.000000 1.744450 
# 
# From -- ./inp_files/34351.got.cif
#   From: 2010.05.17/outbox.cif.g08.bks.cpg/sg15_18_cif.got.tgz:34351.got - 2010.06.03 18:47:42.
