data_PCOD9286411
_publ_section_title
;
Structure prediction by ZEFSAII (Michael W. Deem and Ramdas Pophale) SiO2 
 PCOD9286411
Probable space group: C 2/C
;
_chemical_formula_sum "Si O2"
_cell_formula_units_Z 44
_cell_length_a 21.419241
_cell_length_b 8.441533
_cell_length_c 13.082920
_cell_angle_alpha 90.000000
_cell_angle_beta 58.243747
_cell_angle_gamma 90.000000
_cell_volume 2011.405366
_symmetry_space_group_name_H-M "C 2/C"
_symmetry_group_IT_number 15
_symmetry_cell_setting 'monoclinic'
loop_
_space_group_symop_operation_xyz
x,y,z
-x,y,1/2-z
-x,-y,-z
x,-y,1/2+z
1/2+x,1/2+y,z
1/2-x,1/2+y,1/2-z
1/2-x,1/2-y,-z
1/2+x,1/2-y,1/2+z
loop_
_atom_site_type_symbol
_atom_site_label
_atom_site_fract_x
_atom_site_fract_y
_atom_site_fract_z
Si Si1 0.573680 0.466118 0.997030
Si Si2 0.712246 0.360606 0.392946
Si Si3 0.000000 0.199141 0.750000
Si Si4 0.849466 0.348033 0.129678
Si Si5 0.798415 0.535258 0.986467
Si Si6 0.565117 0.013487 0.767209
O O1 0.626899 0.616594 0.946379
O O2 0.622197 0.330409 0.900557
O O3 0.500000 0.500000 0.000000
O O4 0.548066 0.404375 0.130612
O O5 0.771207 0.376869 0.252280
O O6 0.731433 0.488693 0.465958
O O7 0.722737 0.184488 0.426738
O O8 0.050660 0.324471 0.770117
O O9 0.915061 0.439778 0.133615
O O10 0.833343 0.404935 0.028977
O O11 0.863225 0.575762 0.852555
O O12 0.500000 0.079895 0.750000
#
# Coordination Sequence:
#
# PCOD9286411 Si02
#       6
#     8   8   4   8   8   8
#     4  12  28  44  69 109 143 177 225 299 355 405
#     4  10  25  42  66 104 133 181 228 292 339 407
#     4  10  24  44  62 102 138 176 226 274 364 384
#     4  11  22  44  71  98 131 189 233 274 349 414
#     4  10  21  43  68  91 132 175 236 269 334 416
#     4   9  21  38  68  94 124 178 228 278 327 418
#
# _framework density 21.875250000000001
#
# number of rings (size 3 to 8) (size 9 to 14) (size 15 to 20)
#    0.545    1.091    1.818    1.091    5.091    8.000 
#    0.000    0.000    0.000    0.000    0.000    0.000 
#    0.000    0.000    0.000    0.000    0.000    0.000 
#
# Total GULP energy -122562.191154 kJ/mol
# GULP energy per Si atom -5571.008689 kJ/mol
# Density = 2.182546 g / cm^3
# Si number density = 21.875250 Si / 1000 Ang^3
#
#
#
# Elastic Constant Matrix: (Units=GPa)
#
#
# Indices 1 2 3 4 5 6 
#
# 1 99.2300 -12.6338 11.9159 0.0000 -9.6396 0.0000
# 2 -12.6338 21.8767 5.7401 0.0000 1.1458 0.0000
# 3 11.9159 5.7401 57.5744 0.0000 -8.7050 0.0000
# 4 0.0000 0.0000 0.0000 29.0812 0.0000 -9.8936
# 5 -9.6396 1.1458 -8.7050 0.0000 20.8422 0.0000
# 6 0.0000 0.0000 0.0000 -9.8936 0.0000 27.4068
#
#
#
# Elastic Compliance Matrix: (Units=1/GPa)
#
#
# Indices 1 2 3 4 5 6 
#
# 1 0.011684 0.007207 -0.002540 0.000000 0.003947 0.000000
# 2 0.007207 0.051846 -0.007032 0.000000 -0.002454 0.000000
# 3 -0.002540 -0.007032 0.019722 0.000000 0.007449 0.000000
# 4 0.000000 0.000000 0.000000 0.039201 0.000000 0.014151
# 5 0.003947 -0.002454 0.007449 0.000000 0.053051 0.000000
# 6 0.000000 0.000000 0.000000 0.014151 0.000000 0.041596
#
#
# Mechanical properties :
#
#
# Convention : Reuss Voigt Hill
#
# Bulk Modulus (GPa) = 12.73520 20.96951 16.85235
# Shear Modulus (GPa) = 20.16113 27.04332 23.60222
#
# Velocity S-wave (km/s) = 3.03915 3.51985 3.28830
# Velocity P-wave (km/s) = 4.26024 5.11135 4.70508
#
# Compressibility (1/GPa) = 0.07852250
#
# Stress axis : x y z
#
# Youngs Moduli (GPa) = 85.59031 19.28782 50.70543
#
# Poissons Ratio (x) = -0.13901 0.12879
# Poissons Ratio (y) = -0.61685 0.35654
# Poissons Ratio (z) = 0.21739 0.13562
#
# Static dielectric constant tensor:
#      x y z
#    x 1.866160 0.000000 0.074340 
#    y 0.000000 1.804000 0.000000 
#    z 0.074340 0.000000 1.815300 
# 
# From -- ./inp_files/109975.got.cif
#   From: 2010.05.17/outbox.cif.g08.bks.cpg/sg15_55_cif.got.tgz:109975.got - 2010.06.03 18:47:42.
