data_PCOD9286699
_publ_section_title
;
Structure prediction by ZEFSAII (Michael W. Deem and Ramdas Pophale) SiO2 
 PCOD9286699
Probable space group: C 2/C
;
_chemical_formula_sum "Si O2"
_cell_formula_units_Z 44
_cell_length_a 27.644843
_cell_length_b 13.579456
_cell_length_c 16.009519
_cell_angle_alpha 90.000000
_cell_angle_beta 22.674367
_cell_angle_gamma 90.000000
_cell_volume 2316.816267
_symmetry_space_group_name_H-M "C 2/C"
_symmetry_group_IT_number 15
_symmetry_cell_setting 'monoclinic'
loop_
_space_group_symop_operation_xyz
x,y,z
-x,y,1/2-z
-x,-y,-z
x,-y,1/2+z
1/2+x,1/2+y,z
1/2-x,1/2+y,1/2-z
1/2-x,1/2-y,-z
1/2+x,1/2-y,1/2+z
loop_
_atom_site_type_symbol
_atom_site_label
_atom_site_fract_x
_atom_site_fract_y
_atom_site_fract_z
Si Si1 0.159779 0.266646 0.864458
Si Si2 0.075933 0.322294 0.542911
Si Si3 0.894798 0.971646 0.352333
Si Si4 0.377280 0.702922 0.758904
Si Si5 0.500000 0.341358 0.750000
Si Si6 0.118424 0.516989 0.373504
O O1 0.309133 0.252717 0.628549
O O2 0.123792 0.205881 0.838738
O O3 0.110742 0.377146 0.930197
O O4 0.102327 0.221916 0.039527
O O5 0.121838 0.426912 0.433500
O O6 0.000000 0.335040 0.750000
O O7 0.984967 0.274497 0.620144
O O8 0.000000 0.928936 0.250000
O O9 0.939482 0.084677 0.278127
O O10 0.895511 0.904349 0.269862
O O11 0.752727 0.975491 0.612696
O O12 0.250000 0.750000 0.000000
O O13 0.000000 0.500000 0.500000
#
# Coordination Sequence:
#
# PCOD9286699 Si02
#       6
#     8   8   8   8   4   8
#     4  12  25  43  67  96 137 174 220 270 336 399
#     4  12  23  40  67 101 128 174 223 273 330 385
#     4  10  21  44  66  89 133 178 213 269 326 396
#     4  12  21  38  68  99 124 169 226 273 318 390
#     4  10  26  46  62  90 138 180 212 262 336 404
#     4  12  23  42  65 100 134 170 217 280 331 382
#
# _framework density 18.991579000000002
#
# number of rings (size 3 to 8) (size 9 to 14) (size 15 to 20)
#    0.545    0.000    7.273    1.636    1.273    0.727 
#    0.000    3.636    0.000    0.000    0.000    0.000 
#    0.000    0.000    0.000    0.000    0.000    0.000 
#
# Total GULP energy -122766.028420 kJ/mol
# GULP energy per Si atom -5580.274019 kJ/mol
# Density = 1.894835 g / cm^3
# Si number density = 18.991579 Si / 1000 Ang^3
#
#
#
# Elastic Constant Matrix: (Units=GPa)
#
#
# Indices 1 2 3 4 5 6 
#
# 1 62.7054 16.2976 30.8876 0.0000 -15.8216 0.0000
# 2 16.2976 114.1019 36.8164 0.0000 -3.6784 0.0000
# 3 30.8876 36.8164 91.7015 0.0000 -7.6692 0.0000
# 4 0.0000 0.0000 0.0000 21.3043 0.0000 0.6011
# 5 -15.8216 -3.6784 -7.6692 0.0000 35.4480 0.0000
# 6 0.0000 0.0000 0.0000 0.6011 0.0000 28.8814
#
#
#
# Elastic Compliance Matrix: (Units=1/GPa)
#
#
# Indices 1 2 3 4 5 6 
#
# 1 0.021217 -0.000784 -0.006158 0.000000 0.008056 0.000000
# 2 -0.000784 0.010098 -0.003801 0.000000 -0.000124 0.000000
# 3 -0.006158 -0.003801 0.014505 0.000000 -0.000005 0.000000
# 4 0.000000 0.000000 0.000000 0.046967 0.000000 -0.000978
# 5 0.008056 -0.000124 -0.000005 0.000000 0.031792 0.000000
# 6 0.000000 0.000000 0.000000 -0.000978 0.000000 0.034645
#
#
# Mechanical properties :
#
#
# Convention : Reuss Voigt Hill
#
# Bulk Modulus (GPa) = 41.09276 48.50131 44.79704
# Shear Modulus (GPa) = 26.48011 29.42723 27.95367
#
# Velocity S-wave (km/s) = 3.73809 3.94062 3.84069
# Velocity P-wave (km/s) = 6.34945 6.80430 6.58080
#
# Compressibility (1/GPa) = 0.02433518
#
# Stress axis : x y z
#
# Youngs Moduli (GPa) = 47.13099 99.02572 68.94332
#
# Poissons Ratio (x) = 0.07762 0.42456
# Poissons Ratio (y) = 0.03694 0.26203
# Poissons Ratio (z) = 0.29024 0.37636
#
# Static dielectric constant tensor:
#      x y z
#    x 1.653580 0.000000 -0.027420 
#    y 0.000000 1.674730 0.000000 
#    z -0.027420 0.000000 1.658300 
# 
# From -- ./inp_files/225121.got.cif
#   From: 2010.05.17/outbox.cif.g08.bks.cpg/sg15_113_cif.got.tgz:225121.got - 2010.06.03 18:47:42.
