data_PCOD9286582
_publ_section_title
;
Structure prediction by ZEFSAII (Michael W. Deem and Ramdas Pophale) SiO2 
 PCOD9286582
Probable space group: C 2/C
;
_chemical_formula_sum "Si O2"
_cell_formula_units_Z 52
_cell_length_a 28.304526
_cell_length_b 17.539012
_cell_length_c 5.444336
_cell_angle_alpha 90.000000
_cell_angle_beta 129.085304
_cell_angle_gamma 90.000000
_cell_volume 2097.896835
_symmetry_space_group_name_H-M "C 2/C"
_symmetry_group_IT_number 15
_symmetry_cell_setting 'monoclinic'
loop_
_space_group_symop_operation_xyz
x,y,z
-x,y,1/2-z
-x,-y,-z
x,-y,1/2+z
1/2+x,1/2+y,z
1/2-x,1/2+y,1/2-z
1/2-x,1/2-y,-z
1/2+x,1/2-y,1/2+z
loop_
_atom_site_type_symbol
_atom_site_label
_atom_site_fract_x
_atom_site_fract_y
_atom_site_fract_z
Si Si1 0.898039 0.474642 0.545822
Si Si2 0.567005 0.829386 0.086837
Si Si3 0.926535 0.959582 0.011372
Si Si4 0.600950 0.701110 0.900475
Si Si5 0.761481 0.466762 0.219151
Si Si6 0.500000 0.229082 0.750000
Si Si7 0.278666 0.783436 0.345071
O O1 0.928566 0.515713 0.411671
O O2 0.893452 0.389883 0.424239
O O3 0.829880 0.500444 0.393689
O O4 0.500000 0.838645 0.750000
O O5 0.594030 0.747000 0.130553
O O6 0.551559 0.828160 0.318526
O O7 0.892686 0.885540 0.005172
O O8 0.000000 0.946668 0.250000
O O9 0.913191 0.021632 0.182376
O O10 0.536799 0.716604 0.553940
O O11 0.654116 0.745733 0.936535
O O12 0.733067 0.510172 0.361467
O O13 0.769659 0.376018 0.300428
O O14 0.250000 0.750000 0.500000
O O15 0.250000 0.750000 0.000000
#
# Coordination Sequence:
#
# PCOD9286582 Si02
#       7
#     8   8   8   8   8   4   8
#     4  10  22  36  60  90 129 178 224 271 334 390
#     4  10  22  38  59  96 131 181 224 276 341 398
#     4  10  23  41  68 104 143 183 231 291 373 455
#     4  11  25  45  70 101 143 182 243 293 359 443
#     4  10  21  43  72  99 133 188 240 290 353 428
#     4  10  24  38  72  98 134 186 238 284 366 414
#     4  12  28  48  75 111 143 191 248 310 368 433
#
# _framework density 24.786729999999999
#
# number of rings (size 3 to 8) (size 9 to 14) (size 15 to 20)
#    0.000    1.538    1.538    2.308   11.846    1.846 
#    0.000    4.615    0.000    0.000    0.000    0.000 
#    0.000    0.000    0.000    0.000    0.000    0.000 
#
# Total GULP energy -144943.400954 kJ/mol
# GULP energy per Si atom -5574.746191 kJ/mol
# Density = 2.473031 g / cm^3
# Si number density = 24.786730 Si / 1000 Ang^3
#
#
#
# Elastic Constant Matrix: (Units=GPa)
#
#
# Indices 1 2 3 4 5 6 
#
# 1 124.8718 48.3709 67.2855 0.0000 -37.4408 0.0000
# 2 48.3709 138.5370 31.2685 0.0000 -27.5297 0.0000
# 3 67.2855 31.2685 80.6581 0.0000 -26.0855 0.0000
# 4 0.0000 0.0000 0.0000 7.1209 0.0000 8.8278
# 5 -37.4408 -27.5297 -26.0855 0.0000 54.3908 0.0000
# 6 0.0000 0.0000 0.0000 8.8278 0.0000 18.4979
#
#
#
# Elastic Compliance Matrix: (Units=1/GPa)
#
#
# Indices 1 2 3 4 5 6 
#
# 1 0.016350 -0.002230 -0.011244 0.000000 0.004733 0.000000
# 2 -0.002230 0.008651 -0.000679 0.000000 0.002518 0.000000
# 3 -0.011244 -0.000679 0.022993 0.000000 0.002944 0.000000
# 4 0.000000 0.000000 0.000000 0.343873 0.000000 -0.164107
# 5 0.004733 0.002518 0.002944 0.000000 0.024330 0.000000
# 6 0.000000 0.000000 0.000000 -0.164107 0.000000 0.132377
#
#
# Mechanical properties :
#
#
# Convention : Reuss Voigt Hill
#
# Bulk Modulus (GPa) = 50.79335 70.87963 60.83649
# Shear Modulus (GPa) = 8.56983 29.14472 18.85728
#
# Velocity S-wave (km/s) = 1.86143 3.43274 2.76122
# Velocity P-wave (km/s) = 5.01563 6.66104 5.89602
#
# Compressibility (1/GPa) = 0.01968762
#
# Stress axis : x y z
#
# Youngs Moduli (GPa) = 61.16218 115.60023 43.49173
#
# Poissons Ratio (x) = 0.25782 0.48901
# Poissons Ratio (y) = 0.13641 0.02952
# Poissons Ratio (z) = 0.68770 0.07847
#
# Static dielectric constant tensor:
#      x y z
#    x 2.003540 0.000000 0.034140 
#    y 0.000000 2.004910 0.000000 
#    z 0.034140 0.000000 1.901860 
# 
# From -- ./inp_files/17232.got.cif
#   From: 2010.05.17/outbox.cif.g08.bks.cpg/sg15_9_cif.got.tgz:17232.got - 2010.06.03 18:47:42.
