data_PCOD9286565
_publ_section_title
;
Structure prediction by ZEFSAII (Michael W. Deem and Ramdas Pophale) SiO2 
 PCOD9286565
Probable space group: C 2/C
;
_chemical_formula_sum "Si O2"
_cell_formula_units_Z 48
_cell_length_a 21.605175
_cell_length_b 10.824871
_cell_length_c 17.094465
_cell_angle_alpha 90.000000
_cell_angle_beta 149.152587
_cell_angle_gamma 90.000000
_cell_volume 2049.956551
_symmetry_space_group_name_H-M "C 2/C"
_symmetry_group_IT_number 15
_symmetry_cell_setting 'monoclinic'
loop_
_space_group_symop_operation_xyz
x,y,z
-x,y,1/2-z
-x,-y,-z
x,-y,1/2+z
1/2+x,1/2+y,z
1/2-x,1/2+y,1/2-z
1/2-x,1/2-y,-z
1/2+x,1/2-y,1/2+z
loop_
_atom_site_type_symbol
_atom_site_label
_atom_site_fract_x
_atom_site_fract_y
_atom_site_fract_z
Si Si1 0.702725 0.332512 0.595934
Si Si2 0.111886 0.083844 0.153576
Si Si3 0.450925 0.987610 0.859001
Si Si4 0.212726 0.371071 0.413563
Si Si5 0.305798 0.062869 0.962344
Si Si6 0.947867 0.062269 0.108243
O O1 0.662430 0.322350 0.643808
O O2 0.830341 0.403981 0.731609
O O3 0.777695 0.708055 0.931103
O O4 0.591669 0.418556 0.445365
O O5 0.221319 0.000210 0.304352
O O6 0.044110 0.126146 0.157312
O O7 0.000000 0.000000 0.000000
O O8 0.407992 0.110246 0.766600
O O9 0.557438 0.939023 0.919697
O O10 0.500000 0.000000 0.000000
O O11 0.250000 0.250000 0.500000
O O12 0.213429 0.484434 0.478582
O O13 0.317809 0.376599 0.462527
O O14 0.000000 0.075874 0.250000
#
# Coordination Sequence:
#
# PCOD9286565 Si02
#       6
#     8   8   8   8   8   8
#     4  10  25  44  72 107 151 197 249 326 379 465
#     4  10  22  45  65 106 146 197 258 305 387 461
#     4  11  25  49  72 111 152 200 257 318 394 459
#     4  11  27  50  73 108 149 199 255 321 392 473
#     4  12  25  46  74 109 150 201 256 319 397 459
#     4  10  21  43  72 102 139 194 255 309 383 460
#
# _framework density 23.415130999999999
#
# number of rings (size 3 to 8) (size 9 to 14) (size 15 to 20)
#    0.000    1.333    3.333    0.500    4.667    6.667 
#    3.000    0.000    0.000    0.000    0.000    0.000 
#    0.000    0.000    0.000    0.000    0.000    0.000 
#
# Total GULP energy -133851.566045 kJ/mol
# GULP energy per Si atom -5577.148585 kJ/mol
# Density = 2.336184 g / cm^3
# Si number density = 23.415131 Si / 1000 Ang^3
#
#
#
# Elastic Constant Matrix: (Units=GPa)
#
#
# Indices 1 2 3 4 5 6 
#
# 1 138.1315 37.2443 22.3078 0.0000 10.0422 0.0000
# 2 37.2443 129.2132 30.1697 0.0000 -8.9325 0.0000
# 3 22.3078 30.1697 111.0758 0.0000 -4.3448 0.0000
# 4 0.0000 0.0000 0.0000 17.9782 0.0000 -4.0321
# 5 10.0422 -8.9325 -4.3448 0.0000 48.8581 0.0000
# 6 0.0000 0.0000 0.0000 -4.0321 0.0000 14.0727
#
#
#
# Elastic Compliance Matrix: (Units=1/GPa)
#
#
# Indices 1 2 3 4 5 6 
#
# 1 0.008186 -0.002250 -0.001119 0.000000 -0.002193 0.000000
# 2 -0.002250 0.008967 -0.001908 0.000000 0.001932 0.000000
# 3 -0.001119 -0.001908 0.009775 0.000000 0.000750 0.000000
# 4 0.000000 0.000000 0.000000 0.059443 0.000000 0.017032
# 5 -0.002193 0.001932 0.000750 0.000000 0.021338 0.000000
# 6 0.000000 0.000000 0.000000 0.017032 0.000000 0.075940
#
#
# Mechanical properties :
#
#
# Convention : Reuss Voigt Hill
#
# Bulk Modulus (GPa) = 61.07026 61.98489 61.52758
# Shear Modulus (GPa) = 25.04249 35.42837 30.23543
#
# Velocity S-wave (km/s) = 3.27387 3.89402 3.59733
# Velocity P-wave (km/s) = 6.35839 6.83721 6.60214
#
# Compressibility (1/GPa) = 0.01637458
#
# Stress axis : x y z
#
# Youngs Moduli (GPa) = 122.15546 111.52295 102.30025
#
# Poissons Ratio (x) = 0.25093 0.11445
# Poissons Ratio (y) = 0.27485 0.19519
# Poissons Ratio (z) = 0.13666 0.21279
#
# Static dielectric constant tensor:
#      x y z
#    x 1.925690 0.000000 -0.006130 
#    y 0.000000 2.030370 0.000000 
#    z -0.006130 0.000000 1.899610 
# 
# From -- ./inp_files/219457.got.cif
#   From: 2010.05.17/outbox.cif.g08.bks.cpg/sg15_110_cif.got.tgz:219457.got - 2010.06.03 18:47:42.
