data_PCOD9286817
_publ_section_title
;
Structure prediction by ZEFSAII (Michael W. Deem and Ramdas Pophale) SiO2 
 PCOD9286817
Probable space group: C 2/C
;
_chemical_formula_sum "Si O2"
_cell_formula_units_Z 32
_cell_length_a 9.586771
_cell_length_b 11.454012
_cell_length_c 14.083789
_cell_angle_alpha 90.000000
_cell_angle_beta 115.714437
_cell_angle_gamma 90.000000
_cell_volume 1393.345212
_symmetry_space_group_name_H-M "C 2/C"
_symmetry_group_IT_number 15
_symmetry_cell_setting 'monoclinic'
loop_
_space_group_symop_operation_xyz
x,y,z
-x,y,1/2-z
-x,-y,-z
x,-y,1/2+z
1/2+x,1/2+y,z
1/2-x,1/2+y,1/2-z
1/2-x,1/2-y,-z
1/2+x,1/2-y,1/2+z
loop_
_atom_site_type_symbol
_atom_site_label
_atom_site_fract_x
_atom_site_fract_y
_atom_site_fract_z
Si Si1 0.383936 0.235208 0.800313
Si Si2 0.947448 0.253293 0.843848
Si Si3 0.476091 0.002367 0.629267
Si Si4 0.137662 0.908121 0.534084
O O1 0.500000 0.270203 0.750000
O O2 0.221975 0.196300 0.704871
O O3 0.348080 0.339726 0.861949
O O4 0.458686 0.127664 0.880926
O O5 0.000000 0.255920 0.750000
O O6 0.932521 0.386733 0.875032
O O7 0.078498 0.185066 0.939507
O O8 0.500000 0.009649 0.750000
O O9 0.297724 0.972227 0.556909
O O10 0.000000 0.000000 0.500000
#
# Coordination Sequence:
#
# PCOD9286817 Si02
#       4
#     8   8   8   8
#     4  11  25  45  71 103 142 183 227 288 352 407
#     4  11  24  45  72  99 137 184 236 285 348 410
#     4  10  21  44  69  99 140 178 228 289 334 413
#     4  12  25  44  69 102 141 182 234 287 344 417
#
# _framework density 22.96631
#
# number of rings (size 3 to 8) (size 9 to 14) (size 15 to 20)
#    0.000    1.000    5.000    3.750    0.000    6.000 
#    0.000    0.000    0.000    0.000    0.000    0.000 
#    0.000    0.000    0.000    0.000    0.000    0.000 
#
# Total GULP energy -89502.201660 kJ/mol
# GULP energy per Si atom -5593.887604 kJ/mol
# Density = 2.291404 g / cm^3
# Si number density = 22.966310 Si / 1000 Ang^3
#
#
#
# Elastic Constant Matrix: (Units=GPa)
#
#
# Indices 1 2 3 4 5 6 
#
# 1 125.8097 27.5742 31.5403 0.0000 38.4747 0.0000
# 2 27.5742 97.4904 -1.6026 0.0000 19.0408 0.0000
# 3 31.5403 -1.6026 84.4484 0.0000 16.7023 0.0000
# 4 0.0000 0.0000 0.0000 23.9639 0.0000 9.6194
# 5 38.4747 19.0408 16.7023 0.0000 45.2544 0.0000
# 6 0.0000 0.0000 0.0000 9.6194 0.0000 35.2906
#
#
#
# Elastic Compliance Matrix: (Units=1/GPa)
#
#
# Indices 1 2 3 4 5 6 
#
# 1 0.011460 -0.001721 -0.002728 0.000000 -0.008012 0.000000
# 2 -0.001721 0.011554 0.001655 0.000000 -0.004009 0.000000
# 3 -0.002728 0.001655 0.013561 0.000000 -0.003382 0.000000
# 4 0.000000 0.000000 0.000000 0.046856 0.000000 -0.012772
# 5 -0.008012 -0.004009 -0.003382 0.000000 0.031844 0.000000
# 6 0.000000 0.000000 0.000000 -0.012772 0.000000 0.031817
#
#
# Mechanical properties :
#
#
# Convention : Reuss Voigt Hill
#
# Bulk Modulus (GPa) = 32.27247 46.97472 39.62359
# Shear Modulus (GPa) = 30.67288 37.58423 34.12855
#
# Velocity S-wave (km/s) = 3.65850 4.04975 3.85908
# Velocity P-wave (km/s) = 5.65055 6.50887 6.09484
#
# Compressibility (1/GPa) = 0.03098616
#
# Stress axis : x y z
#
# Youngs Moduli (GPa) = 87.26065 86.54655 73.74215
#
# Poissons Ratio (x) = 0.14898 0.20118
# Poissons Ratio (y) = 0.15021 -0.12205
# Poissons Ratio (z) = 0.23806 -0.14324
#
# Static dielectric constant tensor:
#      x y z
#    x 1.864240 0.000000 -0.005830 
#    y 0.000000 1.919560 0.000000 
#    z -0.005830 0.000000 1.891790 
# 
# From -- ./inp_files/131770.got.cif
#   From: 2010.05.17/outbox.cif.g08.bks.cpg/sg15_66_cif.got.tgz:131770.got - 2010.06.03 18:47:42.
