data_PCOD9286155
_publ_section_title
;
Structure prediction by ZEFSAII (Michael W. Deem and Ramdas Pophale) SiO2 
 PCOD9286155
Probable space group: C 2/C
;
_chemical_formula_sum "Si O2"
_cell_formula_units_Z 60
_cell_length_a 14.416355
_cell_length_b 11.655620
_cell_length_c 13.611106
_cell_angle_alpha 90.000000
_cell_angle_beta 72.415777
_cell_angle_gamma 90.000000
_cell_volume 2180.228254
_symmetry_space_group_name_H-M "C 2/C"
_symmetry_group_IT_number 15
_symmetry_cell_setting 'monoclinic'
loop_
_space_group_symop_operation_xyz
x,y,z
-x,y,1/2-z
-x,-y,-z
x,-y,1/2+z
1/2+x,1/2+y,z
1/2-x,1/2+y,1/2-z
1/2-x,1/2-y,-z
1/2+x,1/2-y,1/2+z
loop_
_atom_site_type_symbol
_atom_site_label
_atom_site_fract_x
_atom_site_fract_y
_atom_site_fract_z
Si Si1 0.401564 0.991440 0.100344
Si Si2 0.415713 0.743526 0.139000
Si Si3 0.855959 0.091030 0.630233
Si Si4 0.684025 0.999363 0.565421
Si Si5 0.623968 0.736741 0.071582
Si Si6 0.766461 0.688298 0.194535
Si Si7 0.635537 0.240730 0.068767
Si Si8 0.500000 0.603556 0.750000
O O1 0.359367 0.105006 0.165561
O O2 0.313510 0.969951 0.051190
O O3 0.500000 0.000000 0.000000
O O4 0.409319 0.880303 0.165700
O O5 0.415969 0.745686 0.020435
O O6 0.250000 0.750000 0.000000
O O7 0.519227 0.703977 0.144423
O O8 0.783961 0.009128 0.592492
O O9 0.882628 0.181469 0.534276
O O10 0.793172 0.181301 0.712794
O O11 0.938967 0.048412 0.677723
O O12 0.635600 0.125734 0.580517
O O13 0.625197 0.887349 0.618190
O O14 0.713758 0.687025 0.104186
O O15 0.673949 0.670983 0.293334
O O16 0.580252 0.324645 0.161191
#
# Coordination Sequence:
#
# PCOD9286155 Si02
#       8
#     8   8   8   8   8   8   8   4
#     4  11  20  39  73 112 151 201 263 322 393 477
#     4  11  23  40  69 109 156 194 257 324 392 481
#     4  11  21  43  69 107 145 200 260 316 395 471
#     4  10  21  42  75 107 147 195 254 334 382 470
#     4  11  19  42  70 112 147 196 254 318 402 473
#     4  11  22  39  68 112 162 195 245 333 407 466
#     4  11  26  49  69 109 152 201 265 327 396 469
#     4  12  26  46  80 102 152 218 254 330 406 466
#
# _framework density 27.520056
#
# number of rings (size 3 to 8) (size 9 to 14) (size 15 to 20)
#    0.000    1.067    5.333    2.000    1.867    0.000 
#   14.400    2.000    0.000    0.000    0.000    0.000 
#    0.000    0.000    0.000    0.000    0.000    0.000 
#
# Total GULP energy -167403.721518 kJ/mol
# GULP energy per Si atom -5580.124051 kJ/mol
# Density = 2.745742 g / cm^3
# Si number density = 27.520056 Si / 1000 Ang^3
#
#
#
# Elastic Constant Matrix: (Units=GPa)
#
#
# Indices 1 2 3 4 5 6 
#
# 1 175.3061 41.5028 46.1076 0.0000 0.2930 0.0000
# 2 41.5028 76.3749 14.6442 0.0000 -14.1006 0.0000
# 3 46.1076 14.6442 122.6081 0.0000 8.2771 0.0000
# 4 0.0000 0.0000 0.0000 3.3062 0.0000 -4.8472
# 5 0.2930 -14.1006 8.2771 0.0000 67.8745 0.0000
# 6 0.0000 0.0000 0.0000 -4.8472 0.0000 27.5635
#
#
#
# Elastic Compliance Matrix: (Units=1/GPa)
#
#
# Indices 1 2 3 4 5 6 
#
# 1 0.007128 -0.003538 -0.002224 0.000000 -0.000495 0.000000
# 2 -0.003538 0.015793 -0.000785 0.000000 0.003392 0.000000
# 3 -0.002224 -0.000785 0.009172 0.000000 -0.001272 0.000000
# 4 0.000000 0.000000 0.000000 0.407533 0.000000 0.071667
# 5 -0.000495 0.003392 -0.001272 0.000000 0.015595 0.000000
# 6 0.000000 0.000000 0.000000 0.071667 0.000000 0.048883
#
#
# Mechanical properties :
#
#
# Convention : Reuss Voigt Hill
#
# Bulk Modulus (GPa) = 52.63703 64.31092 58.47397
# Shear Modulus (GPa) = 9.55054 37.88446 23.71750
#
# Velocity S-wave (km/s) = 1.86492 3.71430 2.93887
# Velocity P-wave (km/s) = 4.87909 6.46639 5.72799
#
# Compressibility (1/GPa) = 0.01899803
#
# Stress axis : x y z
#
# Youngs Moduli (GPa) = 140.29517 63.32078 109.02515
#
# Poissons Ratio (x) = 0.22404 0.24253
# Poissons Ratio (y) = 0.49638 0.08555
# Poissons Ratio (z) = 0.31209 0.04969
#
# Static dielectric constant tensor:
#      x y z
#    x 2.179100 0.000000 -0.076420 
#    y 0.000000 2.271940 0.000000 
#    z -0.076420 0.000000 2.403850 
# 
# From -- ./inp_files/197874.got.cif
#   From: 2010.05.17/outbox.cif.g08.bks.cpg/sg15_99_cif.got.tgz:197874.got - 2010.06.03 18:47:42.
