data_PCOD9286863
_publ_section_title
;
Structure prediction by ZEFSAII (Michael W. Deem and Ramdas Pophale) SiO2 
 PCOD9286863
Probable space group: C 2/C
;
_chemical_formula_sum "Si O2"
_cell_formula_units_Z 48
_cell_length_a 24.643852
_cell_length_b 8.786807
_cell_length_c 14.440046
_cell_angle_alpha 90.000000
_cell_angle_beta 47.407706
_cell_angle_gamma 90.000000
_cell_volume 2301.956217
_symmetry_space_group_name_H-M "C 2/C"
_symmetry_group_IT_number 15
_symmetry_cell_setting 'monoclinic'
loop_
_space_group_symop_operation_xyz
x,y,z
-x,y,1/2-z
-x,-y,-z
x,-y,1/2+z
1/2+x,1/2+y,z
1/2-x,1/2+y,1/2-z
1/2-x,1/2-y,-z
1/2+x,1/2-y,1/2+z
loop_
_atom_site_type_symbol
_atom_site_label
_atom_site_fract_x
_atom_site_fract_y
_atom_site_fract_z
Si Si1 0.408423 0.390328 0.632171
Si Si2 0.212473 0.313712 0.136376
Si Si3 0.962744 0.663498 0.963480
Si Si4 0.586415 0.942360 0.784274
Si Si5 0.363487 0.424625 0.007355
Si Si6 0.074972 0.112073 0.721293
O O1 0.334536 0.313454 0.756580
O O2 0.472586 0.265051 0.564194
O O3 0.392822 0.460910 0.551102
O O4 0.431268 0.525606 0.674446
O O5 0.153454 0.446024 0.183895
O O6 0.279748 0.375435 0.120135
O O7 0.250000 0.250000 0.000000
O O8 0.008299 0.529813 0.860478
O O9 0.914865 0.597964 0.103880
O O10 0.915142 0.774304 0.953210
O O11 0.592686 0.786705 0.720680
O O12 0.368344 0.514268 0.905314
O O13 0.000000 0.101971 0.750000
#
# Coordination Sequence:
#
# PCOD9286863 Si02
#       6
#     8   8   8   8   8   8
#     4  11  23  45  67  96 139 174 229 277 332 412
#     4  11  26  46  64  97 139 184 218 275 346 400
#     4  10  21  44  71  94 134 179 223 280 333 394
#     4  10  24  43  67 100 133 172 230 283 326 399
#     4  12  24  40  73  98 135 183 216 274 346 400
#     4  12  23  41  71 103 127 175 230 279 334 395
#
# _framework density 20.851828999999999
#
# number of rings (size 3 to 8) (size 9 to 14) (size 15 to 20)
#    0.000    1.000    5.000    1.500    2.333    2.000 
#    3.000    0.000    0.000    0.000    0.000    0.000 
#    0.000    0.000    0.000    0.000    0.000    0.000 
#
# Total GULP energy -134244.575745 kJ/mol
# GULP energy per Si atom -5593.523989 kJ/mol
# Density = 2.080437 g / cm^3
# Si number density = 20.851829 Si / 1000 Ang^3
#
#
#
# Elastic Constant Matrix: (Units=GPa)
#
#
# Indices 1 2 3 4 5 6 
#
# 1 31.4218 5.3767 21.3793 -0.0001 -11.6675 0.0000
# 2 5.3767 116.0388 47.1613 0.0005 -8.7649 -0.0002
# 3 21.3793 47.1613 104.9710 0.0002 -8.8023 -0.0001
# 4 -0.0001 0.0005 0.0002 42.6878 -0.0001 -0.6675
# 5 -11.6675 -8.7649 -8.8023 -0.0001 36.8510 0.0000
# 6 0.0000 -0.0002 -0.0001 -0.6675 0.0000 28.7351
#
#
#
# Elastic Compliance Matrix: (Units=1/GPa)
#
#
# Indices 1 2 3 4 5 6 
#
# 1 0.041595 0.002448 -0.008590 0.000000 0.011700 0.000000
# 2 0.002448 0.010759 -0.005156 0.000000 0.002102 0.000000
# 3 -0.008590 -0.005156 0.013533 0.000000 -0.000714 0.000000
# 4 0.000000 0.000000 0.000000 0.023434 0.000000 0.000544
# 5 0.011700 0.002102 -0.000714 0.000000 0.031170 0.000000
# 6 0.000000 0.000000 0.000000 0.000544 0.000000 0.034813
#
#
# Mechanical properties :
#
#
# Convention : Reuss Voigt Hill
#
# Bulk Modulus (GPa) = 23.10011 44.47401 33.78706
# Shear Modulus (GPa) = 25.99677 33.55574 29.77625
#
# Velocity S-wave (km/s) = 3.53475 4.01589 3.78298
# Velocity P-wave (km/s) = 5.26892 6.54814 5.94305
#
# Compressibility (1/GPa) = 0.04328984
#
# Stress axis : x y z
#
# Youngs Moduli (GPa) = 24.04107 92.94809 73.89551
#
# Poissons Ratio (x) = -0.22752 0.63479
# Poissons Ratio (y) = -0.05885 0.38100
# Poissons Ratio (z) = 0.20652 0.47923
#
# Static dielectric constant tensor:
#      x y z
#    x 1.756360 0.000000 0.042140 
#    y 0.000000 1.750710 0.000000 
#    z 0.042140 0.000000 1.829440 
# 
# From -- ./inp_files/176893.got.cif
#   From: 2010.05.17/outbox.cif.g08.bks.cpg/sg15_89_cif.got.tgz:176893.got - 2010.06.03 18:47:42.
