data_PCOD9286744
_publ_section_title
;
Structure prediction by ZEFSAII (Michael W. Deem and Ramdas Pophale) SiO2 
 PCOD9286744
Probable space group: C 2/C
;
_chemical_formula_sum "Si O2"
_cell_formula_units_Z 52
_cell_length_a 9.034787
_cell_length_b 21.199745
_cell_length_c 17.144860
_cell_angle_alpha 90.000000
_cell_angle_beta 130.847840
_cell_angle_gamma 90.000000
_cell_volume 2484.061084
_symmetry_space_group_name_H-M "C 2/C"
_symmetry_group_IT_number 15
_symmetry_cell_setting 'monoclinic'
loop_
_space_group_symop_operation_xyz
x,y,z
-x,y,1/2-z
-x,-y,-z
x,-y,1/2+z
1/2+x,1/2+y,z
1/2-x,1/2+y,1/2-z
1/2-x,1/2-y,-z
1/2+x,1/2-y,1/2+z
loop_
_atom_site_type_symbol
_atom_site_label
_atom_site_fract_x
_atom_site_fract_y
_atom_site_fract_z
Si Si1 0.187496 0.881285 0.474242
Si Si2 0.585704 0.717151 0.701483
Si Si3 0.573361 0.520220 0.436643
Si Si4 0.390330 0.833970 0.903915
Si Si5 0.608810 0.344016 0.993209
Si Si6 0.483499 0.214060 0.609703
Si Si7 0.500000 0.417952 0.750000
O O1 0.415883 0.868904 0.558659
O O2 0.071431 0.836574 0.373799
O O3 0.071748 0.861054 0.512970
O O4 0.169528 0.954433 0.446749
O O5 0.500000 0.748316 0.750000
O O6 0.607143 0.769937 0.644002
O O7 0.804280 0.692906 0.791577
O O8 0.500000 0.500000 0.500000
O O9 0.678157 0.586994 0.488888
O O10 0.464469 0.541456 0.317817
O O11 0.193079 0.874168 0.826132
O O12 0.435151 0.814679 0.008331
O O13 0.801152 0.311581 0.096739
O O14 0.529950 0.290120 0.906290
#
# Coordination Sequence:
#
# PCOD9286744 Si02
#       7
#     8   8   8   8   8   8   4
#     4  11  24  44  68  95 144 182 236 292 362 422
#     4  12  24  39  67 106 138 181 239 300 372 422
#     4  10  24  46  70  98 144 188 236 297 345 434
#     4  12  25  44  70 104 136 184 236 298 356 435
#     4  10  21  44  67  96 138 180 225 300 353 413
#     4  11  22  40  73  98 137 177 233 300 360 413
#     4  12  26  46  76 104 140 194 248 286 372 436
#
# _framework density 20.933461999999999
#
# number of rings (size 3 to 8) (size 9 to 14) (size 15 to 20)
#    0.000    0.923    4.615    2.308    3.231    2.462 
#    2.769    0.000    3.385    0.000    0.000    0.000 
#    0.000    0.000    0.000    0.000    0.000    0.000 
#
# Total GULP energy -144756.385691 kJ/mol
# GULP energy per Si atom -5567.553296 kJ/mol
# Density = 2.088582 g / cm^3
# Si number density = 20.933462 Si / 1000 Ang^3
#
#
#
# Elastic Constant Matrix: (Units=GPa)
#
#
# Indices 1 2 3 4 5 6 
#
# 1 109.4279 56.7119 56.6204 0.0000 16.5068 0.0000
# 2 56.7119 154.8572 52.6070 0.0000 5.6024 0.0000
# 3 56.6204 52.6070 111.2506 0.0000 12.4644 0.0000
# 4 0.0000 0.0000 0.0000 24.5859 0.0000 -1.4352
# 5 16.5068 5.6024 12.4644 0.0000 49.0477 0.0000
# 6 0.0000 0.0000 0.0000 -1.4352 0.0000 12.0128
#
#
#
# Elastic Compliance Matrix: (Units=1/GPa)
#
#
# Indices 1 2 3 4 5 6 
#
# 1 0.013982 -0.003227 -0.005254 0.000000 -0.003002 0.000000
# 2 -0.003227 0.008438 -0.002431 0.000000 0.000740 0.000000
# 3 -0.005254 -0.002431 0.012952 0.000000 -0.001246 0.000000
# 4 0.000000 0.000000 0.000000 0.040959 0.000000 0.004894
# 5 -0.003002 0.000740 -0.001246 0.000000 0.021631 0.000000
# 6 0.000000 0.000000 0.000000 0.004894 0.000000 0.083829
#
#
# Mechanical properties :
#
#
# Convention : Reuss Voigt Hill
#
# Bulk Modulus (GPa) = 73.80736 78.60161 76.20449
# Shear Modulus (GPa) = 24.02336 31.10238 27.56287
#
# Velocity S-wave (km/s) = 3.39131 3.85875 3.63256
# Velocity P-wave (km/s) = 7.11823 7.58176 7.35365
#
# Compressibility (1/GPa) = 0.01354878
#
# Stress axis : x y z
#
# Youngs Moduli (GPa) = 71.51943 118.50589 77.21075
#
# Poissons Ratio (x) = 0.38244 0.40565
# Poissons Ratio (y) = 0.23081 0.18768
# Poissons Ratio (z) = 0.37575 0.28805
#
# Static dielectric constant tensor:
#      x y z
#    x 1.873280 0.000000 -0.080240 
#    y 0.000000 1.741750 0.000000 
#    z -0.080240 0.000000 1.820270 
# 
# From -- ./inp_files/192592.got.cif
#   From: 2010.05.17/outbox.cif.g08.bks.cpg/sg15_97_cif.got.tgz:192592.got - 2010.06.03 18:47:42.
