data_PCOD9286594
_publ_section_title
;
Structure prediction by ZEFSAII (Michael W. Deem and Ramdas Pophale) SiO2 
 PCOD9286594
Probable space group: C 2/C
;
_chemical_formula_sum "Si O2"
_cell_formula_units_Z 44
_cell_length_a 7.559324
_cell_length_b 23.110984
_cell_length_c 10.873798
_cell_angle_alpha 90.000000
_cell_angle_beta 67.162334
_cell_angle_gamma 90.000000
_cell_volume 1750.769567
_symmetry_space_group_name_H-M "C 2/C"
_symmetry_group_IT_number 15
_symmetry_cell_setting 'monoclinic'
loop_
_space_group_symop_operation_xyz
x,y,z
-x,y,1/2-z
-x,-y,-z
x,-y,1/2+z
1/2+x,1/2+y,z
1/2-x,1/2+y,1/2-z
1/2-x,1/2-y,-z
1/2+x,1/2-y,1/2+z
loop_
_atom_site_type_symbol
_atom_site_label
_atom_site_fract_x
_atom_site_fract_y
_atom_site_fract_z
Si Si1 0.310085 0.426879 0.233081
Si Si2 0.582683 0.756075 0.864130
Si Si3 0.102286 0.532577 0.356177
Si Si4 0.475333 0.367410 0.501099
Si Si5 0.071650 0.633378 0.986426
Si Si6 0.500000 0.691976 0.250000
O O1 0.500000 0.404401 0.250000
O O2 0.283524 0.492833 0.279228
O O3 0.367864 0.415713 0.077598
O O4 0.132353 0.390399 0.336330
O O5 0.500000 0.768032 0.750000
O O6 0.537935 0.690752 0.912011
O O7 0.473887 0.799426 0.987441
O O8 0.807662 0.769626 0.810856
O O9 0.000000 0.529694 0.250000
O O10 0.000000 0.500000 0.500000
O O11 0.100403 0.598103 0.403326
O O12 0.259093 0.382220 0.518243
O O13 0.477984 0.348798 0.639215
#
# Coordination Sequence:
#
# PCOD9286594 Si02
#       6
#     8   8   8   8   8   4
#     4   9  21  43  70 101 136 187 237 291 355 425
#     4  12  24  44  71  99 145 189 232 290 355 425
#     4  10  22  42  67 101 133 178 239 289 351 423
#     4  11  24  44  69 102 144 186 239 289 356 430
#     4  10  21  43  73  96 137 190 234 284 361 422
#     4  12  28  42  64 112 144 186 242 288 348 432
#
# _framework density 25.131806999999998
#
# number of rings (size 3 to 8) (size 9 to 14) (size 15 to 20)
#    0.000    1.455    1.818    3.273    2.545    2.909 
#    3.273    8.182    0.000    0.000    0.000    0.000 
#    0.000    0.000    0.000    0.000    0.000    0.000 
#
# Total GULP energy -123111.618596 kJ/mol
# GULP energy per Si atom -5595.982663 kJ/mol
# Density = 2.507461 g / cm^3
# Si number density = 25.131807 Si / 1000 Ang^3
#
#
#
# Elastic Constant Matrix: (Units=GPa)
#
#
# Indices 1 2 3 4 5 6 
#
# 1 92.5519 4.4616 41.8093 0.0000 -4.4967 0.0000
# 2 4.4616 78.4605 27.4807 0.0000 -22.8565 0.0000
# 3 41.8093 27.4807 91.4238 0.0000 -7.1139 0.0000
# 4 0.0000 0.0000 0.0000 28.0584 0.0000 -14.4117
# 5 -4.4967 -22.8565 -7.1139 0.0000 39.4500 0.0000
# 6 0.0000 0.0000 0.0000 -14.4117 0.0000 21.6116
#
#
#
# Elastic Compliance Matrix: (Units=1/GPa)
#
#
# Indices 1 2 3 4 5 6 
#
# 1 0.013871 0.002056 -0.006842 0.000000 0.001538 0.000000
# 2 0.002056 0.017207 -0.005394 0.000000 0.009231 0.000000
# 3 -0.006842 -0.005394 0.015603 0.000000 -0.001091 0.000000
# 4 0.000000 0.000000 0.000000 0.054206 0.000000 0.036148
# 5 0.001538 0.009231 -0.001091 0.000000 0.030675 0.000000
# 6 0.000000 0.000000 0.000000 0.036148 0.000000 0.070376
#
#
# Mechanical properties :
#
#
# Convention : Reuss Voigt Hill
#
# Bulk Modulus (GPa) = 37.99218 45.54882 41.77050
# Shear Modulus (GPa) = 21.63824 30.40297 26.02060
#
# Velocity S-wave (km/s) = 2.93745 3.48191 3.22120
# Velocity P-wave (km/s) = 5.16283 5.85903 5.52191
#
# Compressibility (1/GPa) = 0.02632121
#
# Stress axis : x y z
#
# Youngs Moduli (GPa) = 72.09281 58.11717 64.08925
#
# Poissons Ratio (x) = -0.11947 0.43847
# Poissons Ratio (y) = -0.14820 0.34569
# Poissons Ratio (z) = 0.49323 0.31348
#
# Static dielectric constant tensor:
#      x y z
#    x 1.975280 0.000000 0.018280 
#    y 0.000000 1.951190 0.000000 
#    z 0.018280 0.000000 2.057590 
# 
# From -- ./inp_files/79685.got.cif
#   From: 2010.05.17/outbox.cif.g08.bks.cpg/sg15_40_cif.got.tgz:79685.got - 2010.06.03 18:47:42.
