data_PCOD9286603
_publ_section_title
;
Structure prediction by ZEFSAII (Michael W. Deem and Ramdas Pophale) SiO2 
 PCOD9286603
Probable space group: C 2/C
;
_chemical_formula_sum "Si O2"
_cell_formula_units_Z 60
_cell_length_a 13.292524
_cell_length_b 23.534843
_cell_length_c 8.951523
_cell_angle_alpha 90.000000
_cell_angle_beta 106.177031
_cell_angle_gamma 90.000000
_cell_volume 2689.492312
_symmetry_space_group_name_H-M "C 2/C"
_symmetry_group_IT_number 15
_symmetry_cell_setting 'monoclinic'
loop_
_space_group_symop_operation_xyz
x,y,z
-x,y,1/2-z
-x,-y,-z
x,-y,1/2+z
1/2+x,1/2+y,z
1/2-x,1/2+y,1/2-z
1/2-x,1/2-y,-z
1/2+x,1/2-y,1/2+z
loop_
_atom_site_type_symbol
_atom_site_label
_atom_site_fract_x
_atom_site_fract_y
_atom_site_fract_z
Si Si1 0.407242 0.390382 0.330931
Si Si2 0.739311 0.324079 0.595584
Si Si3 0.204640 0.000998 0.821826
Si Si4 0.558750 0.114622 0.434053
Si Si5 0.062826 0.095819 0.151591
Si Si6 0.500000 0.900267 0.250000
Si Si7 0.121886 0.770245 0.272606
Si Si8 0.847144 0.502069 0.136639
O O1 0.500000 0.384140 0.250000
O O2 0.322372 0.434781 0.236449
O O3 0.472783 0.414899 0.494592
O O4 0.367839 0.325485 0.329656
O O5 0.829903 0.354348 0.537470
O O6 0.662497 0.369699 0.635909
O O7 0.802645 0.282535 0.733609
O O8 0.665280 0.289801 0.451965
O O9 0.108793 0.961441 0.740001
O O10 0.309845 0.977808 0.784065
O O11 0.236290 0.998640 0.006325
O O12 0.500000 0.128462 0.250000
O O13 0.517133 0.126506 0.587511
O O14 0.581925 0.047207 0.421616
O O15 0.000000 0.130837 0.250000
O O16 0.402415 0.942297 0.180479
O O17 0.000000 0.755560 0.250000
#
# Coordination Sequence:
#
# PCOD9286603 Si02
#       8
#     8   8   8   8   8   4   8   8
#     4  11  21  41  66  93 133 178 234 287 352 426
#     4  11  23  43  71  97 131 181 237 291 363 434
#     4  12  23  37  64  98 134 191 231 284 360 434
#     4  12  24  44  68  99 140 189 245 304 358 430
#     4  12  24  41  63 103 147 176 226 296 364 429
#     4  12  26  40  62  98 142 192 236 306 362 420
#     4  10  21  43  74  96 123 178 242 293 352 428
#     4  12  22  39  59  88 141 184 241 283 352 427
#
# _framework density 22.309042999999999
#
# number of rings (size 3 to 8) (size 9 to 14) (size 15 to 20)
#    0.000    0.533    6.000    4.800    0.000    0.000 
#    0.000    0.667    5.867    0.000    0.000    0.000 
#    0.000    0.000    0.000    0.000    0.000    0.000 
#
# Total GULP energy -167337.588106 kJ/mol
# GULP energy per Si atom -5577.919604 kJ/mol
# Density = 2.225827 g / cm^3
# Si number density = 22.309043 Si / 1000 Ang^3
#
#
#
# Elastic Constant Matrix: (Units=GPa)
#
#
# Indices 1 2 3 4 5 6 
#
# 1 106.7692 25.8900 40.1321 0.0000 3.5381 0.0000
# 2 25.8900 76.5361 27.4070 0.0000 16.2183 0.0000
# 3 40.1321 27.4070 109.2208 0.0000 16.7701 0.0000
# 4 0.0000 0.0000 0.0000 7.8217 0.0000 12.6765
# 5 3.5381 16.2183 16.7701 0.0000 54.4688 0.0000
# 6 0.0000 0.0000 0.0000 12.6765 0.0000 22.8752
#
#
#
# Elastic Compliance Matrix: (Units=1/GPa)
#
#
# Indices 1 2 3 4 5 6 
#
# 1 0.011382 -0.002796 -0.003668 0.000000 0.001223 0.000000
# 2 -0.002796 0.015639 -0.002320 0.000000 -0.003761 0.000000
# 3 -0.003668 -0.002320 0.011486 0.000000 -0.002607 0.000000
# 4 0.000000 0.000000 0.000000 1.254851 0.000000 -0.695387
# 5 0.001223 -0.003761 -0.002607 0.000000 0.020202 0.000000
# 6 0.000000 0.000000 0.000000 -0.695387 0.000000 0.429071
#
#
# Mechanical properties :
#
#
# Convention : Reuss Voigt Hill
#
# Bulk Modulus (GPa) = 47.75599 53.26491 50.51045
# Shear Modulus (GPa) = 2.82937 30.30626 16.56782
#
# Velocity S-wave (km/s) = 1.12739 3.68975 2.72812
# Velocity P-wave (km/s) = 4.81121 6.48692 5.71086
#
# Compressibility (1/GPa) = 0.02093978
#
# Stress axis : x y z
#
# Youngs Moduli (GPa) = 87.85557 63.94264 87.06145
#
# Poissons Ratio (x) = 0.17877 0.31938
# Poissons Ratio (y) = 0.24562 0.20195
# Poissons Ratio (z) = 0.32230 0.14832
#
# Static dielectric constant tensor:
#      x y z
#    x 1.864580 0.000000 0.063590 
#    y 0.000000 1.881360 0.000000 
#    z 0.063590 0.000000 2.191640 
# 
# From -- ./inp_files/42712.got.cif
#   From: 2010.05.17/outbox.cif.g08.bks.cpg/sg15_22_cif.got.tgz:42712.got - 2010.06.03 18:47:42.
