data_PCOD9286692
_publ_section_title
;
Structure prediction by ZEFSAII (Michael W. Deem and Ramdas Pophale) SiO2 
 PCOD9286692
Probable space group: C 2/C
;
_chemical_formula_sum "Si O2"
_cell_formula_units_Z 60
_cell_length_a 10.558704
_cell_length_b 31.277490
_cell_length_c 11.030237
_cell_angle_alpha 90.000000
_cell_angle_beta 43.550892
_cell_angle_gamma 90.000000
_cell_volume 2509.838032
_symmetry_space_group_name_H-M "C 2/C"
_symmetry_group_IT_number 15
_symmetry_cell_setting 'monoclinic'
loop_
_space_group_symop_operation_xyz
x,y,z
-x,y,1/2-z
-x,-y,-z
x,-y,1/2+z
1/2+x,1/2+y,z
1/2-x,1/2+y,1/2-z
1/2-x,1/2-y,-z
1/2+x,1/2-y,1/2+z
loop_
_atom_site_type_symbol
_atom_site_label
_atom_site_fract_x
_atom_site_fract_y
_atom_site_fract_z
Si Si1 0.500000 0.302573 0.750000
Si Si2 0.932051 0.802825 0.432460
Si Si3 0.575781 0.842177 0.334170
Si Si4 0.248657 0.523431 0.715440
Si Si5 0.194370 0.471143 0.990524
Si Si6 0.775999 0.880928 0.868538
Si Si7 0.215744 0.745148 0.789856
Si Si8 0.964596 0.890130 0.045138
O O1 0.346918 0.338404 0.887673
O O2 0.615880 0.272739 0.756953
O O3 0.097324 0.777206 0.386902
O O4 0.924194 0.853866 0.453757
O O5 0.000000 0.795506 0.250000
O O6 0.764283 0.777243 0.609635
O O7 0.500000 0.835381 0.250000
O O8 0.434846 0.870482 0.509561
O O9 0.599202 0.798014 0.389617
O O10 0.766515 0.866661 0.186243
O O11 0.268182 0.492221 0.816380
O O12 0.255795 0.505602 0.572012
O O13 0.396769 0.561924 0.625490
O O14 0.027476 0.534424 0.869793
O O15 0.273039 0.423506 0.949469
O O16 0.097799 0.889867 0.835085
#
# Coordination Sequence:
#
# PCOD9286692 Si02
#       8
#     4   8   8   8   8   8   8   8
#     4  12  22  38  64 104 140 162 230 286 344 404
#     4  11  25  46  64  90 135 189 235 279 336 407
#     4  11  22  37  63  98 137 177 220 279 353 400
#     4  10  21  44  66 103 133 180 229 285 351 431
#     4  10  22  40  72  96 140 179 226 283 357 423
#     4  12  23  38  65  99 141 176 215 284 354 419
#     4  11  24  39  65  95 130 182 225 284 338 402
#     4  11  24  42  66  97 136 177 229 286 341 409
#
# _framework density 23.905925
#
# number of rings (size 3 to 8) (size 9 to 14) (size 15 to 20)
#    0.000    1.067    3.333    3.600    1.867    1.600 
#    2.400    0.000    0.000    0.000    0.000    0.000 
#    0.000    0.000    0.000    0.000    0.000    0.000 
#
# Total GULP energy -167082.905702 kJ/mol
# GULP energy per Si atom -5569.430190 kJ/mol
# Density = 2.385151 g / cm^3
# Si number density = 23.905925 Si / 1000 Ang^3
#
#
#
# Elastic Constant Matrix: (Units=GPa)
#
#
# Indices 1 2 3 4 5 6 
#
# 1 21.1624 28.6653 22.3374 0.0000 3.7626 0.0000
# 2 28.6653 104.2978 37.0438 0.0000 -0.0302 0.0000
# 3 22.3374 37.0438 95.5382 0.0000 -19.7453 0.0000
# 4 0.0000 0.0000 0.0000 42.6942 0.0000 -3.2085
# 5 3.7626 -0.0302 -19.7453 0.0000 30.1460 0.0000
# 6 0.0000 0.0000 0.0000 -3.2085 0.0000 27.4006
#
#
#
# Elastic Compliance Matrix: (Units=1/GPa)
#
#
# Indices 1 2 3 4 5 6 
#
# 1 0.102741 -0.020562 -0.021632 0.000000 -0.027012 0.000000
# 2 -0.020562 0.015517 -0.000781 0.000000 0.002070 0.000000
# 3 -0.021632 -0.000781 0.018951 0.000000 0.015112 0.000000
# 4 0.000000 0.000000 0.000000 0.023630 0.000000 0.002767
# 5 -0.027012 0.002070 0.015112 0.000000 0.046443 0.000000
# 6 0.000000 0.000000 0.000000 0.002767 0.000000 0.036819
#
#
# Mechanical properties :
#
#
# Convention : Reuss Voigt Hill
#
# Bulk Modulus (GPa) = 19.50869 44.12128 31.81498
# Shear Modulus (GPa) = 14.40345 28.91163 21.65754
#
# Velocity S-wave (km/s) = 2.45726 3.48140 3.01316
# Velocity P-wave (km/s) = 4.02854 5.88698 5.04409
#
# Compressibility (1/GPa) = 0.05125921
#
# Stress axis : x y z
#
# Youngs Moduli (GPa) = 9.73318 64.44399 52.76854
#
# Poissons Ratio (x) = 1.32512 1.14147
# Poissons Ratio (y) = 0.20014 0.04122
# Poissons Ratio (z) = 0.21054 0.05034
#
# Static dielectric constant tensor:
#      x y z
#    x 2.086600 0.000000 -0.027120 
#    y 0.000000 1.943070 0.000000 
#    z -0.027120 0.000000 2.002450 
# 
# From -- ./inp_files/92060.got.cif
#   From: 2010.05.17/outbox.cif.g08.bks.cpg/sg15_47_cif.got.tgz:92060.got - 2010.06.03 18:47:42.
