data_PCOD9286031
_publ_section_title
;
Structure prediction by ZEFSAII (Michael W. Deem and Ramdas Pophale) SiO2 
 PCOD9286031
Probable space group: C 2/C
;
_chemical_formula_sum "Si O2"
_cell_formula_units_Z 24
_cell_length_a 7.026570
_cell_length_b 16.668487
_cell_length_c 11.117434
_cell_angle_alpha 90.000000
_cell_angle_beta 40.284269
_cell_angle_gamma 90.000000
_cell_volume 841.911856
_symmetry_space_group_name_H-M "C 2/C"
_symmetry_group_IT_number 15
_symmetry_cell_setting 'monoclinic'
loop_
_space_group_symop_operation_xyz
x,y,z
-x,y,1/2-z
-x,-y,-z
x,-y,1/2+z
1/2+x,1/2+y,z
1/2-x,1/2+y,1/2-z
1/2-x,1/2-y,-z
1/2+x,1/2-y,1/2+z
loop_
_atom_site_type_symbol
_atom_site_label
_atom_site_fract_x
_atom_site_fract_y
_atom_site_fract_z
Si Si1 0.870917 0.650205 0.683053
Si Si2 0.848117 0.186345 0.081620
Si Si3 0.893820 0.958536 0.925614
O O1 0.930949 0.721031 0.561126
O O2 0.000000 0.678898 0.750000
O O3 0.522753 0.652772 0.881095
O O4 0.951199 0.566762 0.916891
O O5 0.500000 0.178022 0.250000
O O6 0.955919 0.128792 0.135827
O O7 0.000000 0.996489 0.750000
O O8 0.000000 0.000000 0.000000
#
# Coordination Sequence:
#
# PCOD9286031 Si02
#       3
#     8   8   8
#     4  10  21  42  70 106 149 199 251 315 379 448
#     4  11  22  41  73 116 151 196 256 318 381 457
#     4  11  25  49  75 106 152 205 256 317 387 459
#
# _framework density 28.506546
#
# number of rings (size 3 to 8) (size 9 to 14) (size 15 to 20)
#    0.000    1.333    0.000    8.000    0.000    4.000 
#    0.000   43.333    0.000    0.000    0.000    0.000 
#    0.000    0.000    0.000    0.000    0.000    0.000 
#
# Total GULP energy -67120.185109 kJ/mol
# GULP energy per Si atom -5593.348759 kJ/mol
# Density = 2.844166 g / cm^3
# Si number density = 28.506546 Si / 1000 Ang^3
#
#
#
# Elastic Constant Matrix: (Units=GPa)
#
#
# Indices 1 2 3 4 5 6 
#
# 1 152.6856 72.5174 94.2866 -0.0002 -20.6439 0.0000
# 2 72.5174 119.4182 84.0219 0.0000 9.8932 0.0000
# 3 94.2866 84.0219 233.7468 -0.0002 -1.5356 0.0001
# 4 -0.0002 0.0000 -0.0002 51.9813 0.0002 17.7362
# 5 -20.6439 9.8932 -1.5356 0.0002 60.3183 0.0000
# 6 0.0000 0.0000 0.0001 17.7362 0.0000 59.6738
#
#
#
# Elastic Compliance Matrix: (Units=1/GPa)
#
#
# Indices 1 2 3 4 5 6 
#
# 1 0.011398 -0.005489 -0.002593 0.000000 0.004735 0.000000
# 2 -0.005489 0.014084 -0.002876 0.000000 -0.004262 0.000000
# 3 -0.002593 -0.002876 0.006357 0.000000 -0.000254 0.000000
# 4 0.000000 0.000000 0.000000 0.021409 0.000000 -0.006363
# 5 0.004735 -0.004262 -0.000254 0.000000 0.018892 0.000000
# 6 0.000000 0.000000 0.000000 -0.006363 0.000000 0.018649
#
#
# Mechanical properties :
#
#
# Convention : Reuss Voigt Hill
#
# Bulk Modulus (GPa) = 100.79910 111.94470 106.37190
# Shear Modulus (GPa) = 43.09821 51.39634 47.24727
#
# Velocity S-wave (km/s) = 3.89250 4.25074 4.07556
# Velocity P-wave (km/s) = 7.45914 7.96535 7.71640
#
# Compressibility (1/GPa) = 0.00992072
#
# Stress axis : x y z
#
# Youngs Moduli (GPa) = 87.73277 71.00135 157.31747
#
# Poissons Ratio (x) = 0.38974 0.40800
# Poissons Ratio (y) = 0.48158 0.45252
# Poissons Ratio (z) = 0.22753 0.20423
#
# Static dielectric constant tensor:
#      x y z
#    x 2.282500 0.000000 -0.068010 
#    y 0.000000 2.271570 0.000000 
#    z -0.068010 0.000000 2.337250 
# 
# From -- ./inp_files/75928.got.cif
#   From: 2010.05.17/outbox.cif.g08.bks.cpg/sg15_38_cif.got.tgz:75928.got - 2010.06.03 18:47:42.
