data_PCOD9286777
_publ_section_title
;
Structure prediction by ZEFSAII (Michael W. Deem and Ramdas Pophale) SiO2 
 PCOD9286777
Probable space group: C 2/C
;
_chemical_formula_sum "Si O2"
_cell_formula_units_Z 60
_cell_length_a 24.130860
_cell_length_b 12.657118
_cell_length_c 17.740240
_cell_angle_alpha 90.000000
_cell_angle_beta 150.290368
_cell_angle_gamma 90.000000
_cell_volume 2685.360058
_symmetry_space_group_name_H-M "C 2/C"
_symmetry_group_IT_number 15
_symmetry_cell_setting 'monoclinic'
loop_
_space_group_symop_operation_xyz
x,y,z
-x,y,1/2-z
-x,-y,-z
x,-y,1/2+z
1/2+x,1/2+y,z
1/2-x,1/2+y,1/2-z
1/2-x,1/2-y,-z
1/2+x,1/2-y,1/2+z
loop_
_atom_site_type_symbol
_atom_site_label
_atom_site_fract_x
_atom_site_fract_y
_atom_site_fract_z
Si Si1 0.811514 0.089263 0.721920
Si Si2 0.461472 0.300377 0.059384
Si Si3 0.763931 0.245866 0.790423
Si Si4 0.423922 0.908828 0.588771
Si Si5 0.326731 0.583733 0.126046
Si Si6 0.045974 0.583464 0.993697
Si Si7 0.166867 0.687905 0.828353
Si Si8 0.000000 0.068634 0.750000
O O1 0.780297 0.131850 0.768143
O O2 0.703471 0.129537 0.545985
O O3 0.929922 0.144212 0.846504
O O4 0.821401 0.969378 0.702808
O O5 0.483144 0.179450 0.107609
O O6 0.445380 0.360549 0.119835
O O7 0.352957 0.294923 0.878137
O O8 0.860112 0.328275 0.879401
O O9 0.758100 0.222656 0.872803
O O10 0.500000 0.926352 0.750000
O O11 0.410158 0.013507 0.523801
O O12 0.372674 0.702330 0.182298
O O13 0.405050 0.504627 0.173290
O O14 0.213130 0.605542 0.944722
O O15 0.000000 0.500000 0.000000
O O16 0.935306 0.642103 0.837207
#
# Coordination Sequence:
#
# PCOD9286777 Si02
#       8
#     8   8   8   8   8   8   8   4
#     4  10  21  44  68  97 134 175 230 284 342 403
#     4  10  22  44  66 102 135 176 233 287 339 410
#     4  11  24  43  71 100 140 181 230 289 344 413
#     4  11  22  40  67  99 133 176 223 279 344 405
#     4  10  24  45  68 100 132 182 233 282 342 414
#     4  12  26  43  66  99 140 181 223 278 349 415
#     4  11  25  45  68 100 140 178 231 282 346 416
#     4  10  22  44  70  92 136 180 236 280 346 400
#
# _framework density 22.343373
#
# number of rings (size 3 to 8) (size 9 to 14) (size 15 to 20)
#    0.000    1.333    0.667    4.800    3.733    1.600 
#    2.400    4.000    0.000    0.000    0.000    0.000 
#    0.000    0.000    0.000    0.000    0.000    0.000 
#
# Total GULP energy -167458.639164 kJ/mol
# GULP energy per Si atom -5581.954639 kJ/mol
# Density = 2.229252 g / cm^3
# Si number density = 22.343373 Si / 1000 Ang^3
#
#
#
# Elastic Constant Matrix: (Units=GPa)
#
#
# Indices 1 2 3 4 5 6 
#
# 1 55.2995 28.2127 18.2315 0.0000 -2.8800 0.0000
# 2 28.2127 79.9031 45.9150 0.0000 -2.9786 0.0000
# 3 18.2315 45.9150 100.6155 0.0000 -3.0547 0.0000
# 4 0.0000 0.0000 0.0000 39.9308 0.0000 -9.2921
# 5 -2.8800 -2.9786 -3.0547 0.0000 30.7924 0.0000
# 6 0.0000 0.0000 0.0000 -9.2921 0.0000 40.7544
#
#
#
# Elastic Compliance Matrix: (Units=1/GPa)
#
#
# Indices 1 2 3 4 5 6 
#
# 1 0.022134 -0.007435 -0.000579 0.000000 0.001294 0.000000
# 2 -0.007435 0.019484 -0.007531 0.000000 0.000442 0.000000
# 3 -0.000579 -0.007531 0.013497 0.000000 0.000556 0.000000
# 4 0.000000 0.000000 0.000000 0.026446 0.000000 0.006030
# 5 0.001294 0.000442 0.000556 0.000000 0.032695 0.000000
# 6 0.000000 0.000000 0.000000 0.006030 0.000000 0.025912
#
#
# Mechanical properties :
#
#
# Convention : Reuss Voigt Hill
#
# Bulk Modulus (GPa) = 41.61904 46.72628 44.17266
# Shear Modulus (GPa) = 27.89140 31.85944 29.87542
#
# Velocity S-wave (km/s) = 3.53697 3.78021 3.66061
# Velocity P-wave (km/s) = 5.94539 6.32546 6.13837
#
# Compressibility (1/GPa) = 0.02402747
#
# Stress axis : x y z
#
# Youngs Moduli (GPa) = 45.17835 51.32361 74.08917
#
# Poissons Ratio (x) = 0.38157 0.04288
# Poissons Ratio (y) = 0.33588 0.55796
# Poissons Ratio (z) = 0.02615 0.38651
#
# Static dielectric constant tensor:
#      x y z
#    x 1.704040 0.000000 0.049040 
#    y 0.000000 1.829580 0.000000 
#    z 0.049040 0.000000 1.793670 
# 
# From -- ./inp_files/222561.got.cif
#   From: 2010.05.17/outbox.cif.g08.bks.cpg/sg15_112_cif.got.tgz:222561.got - 2010.06.03 18:47:42.
