data_PCOD9286153
_publ_section_title
;
Structure prediction by ZEFSAII (Michael W. Deem and Ramdas Pophale) SiO2 
 PCOD9286153
Probable space group: C 2/C
;
_chemical_formula_sum "Si O2"
_cell_formula_units_Z 48
_cell_length_a 10.399120
_cell_length_b 13.498524
_cell_length_c 16.571776
_cell_angle_alpha 90.000000
_cell_angle_beta 120.806411
_cell_angle_gamma 90.000000
_cell_volume 1998.001653
_symmetry_space_group_name_H-M "C 2/C"
_symmetry_group_IT_number 15
_symmetry_cell_setting 'monoclinic'
loop_
_space_group_symop_operation_xyz
x,y,z
-x,y,1/2-z
-x,-y,-z
x,-y,1/2+z
1/2+x,1/2+y,z
1/2-x,1/2+y,1/2-z
1/2-x,1/2-y,-z
1/2+x,1/2-y,1/2+z
loop_
_atom_site_type_symbol
_atom_site_label
_atom_site_fract_x
_atom_site_fract_y
_atom_site_fract_z
Si Si1 0.259354 0.107678 0.893136
Si Si2 0.500000 0.728514 0.250000
Si Si3 0.295424 0.606704 0.072882
Si Si4 0.894656 0.914837 0.433193
Si Si5 0.484619 0.197523 0.421287
Si Si6 0.136841 0.422160 0.241938
Si Si7 0.000000 0.254931 0.750000
O O1 0.366752 0.070430 0.854544
O O2 0.140676 0.184385 0.817809
O O3 0.183669 0.008757 0.901454
O O4 0.360977 0.155643 0.994500
O O5 0.434179 0.665083 0.156275
O O6 0.625977 0.804041 0.258214
O O7 0.148629 0.647908 0.070304
O O8 0.289190 0.617975 0.974603
O O9 0.978984 0.815911 0.433342
O O10 0.793168 0.956286 0.328564
O O11 0.000000 0.000000 0.500000
O O12 0.466754 0.182875 0.319914
O O13 0.000000 0.464186 0.250000
#
# Coordination Sequence:
#
# PCOD9286153 Si02
#       7
#     8   4   8   8   8   8   4
#     4  12  25  46  72 104 153 191 245 302 370 437
#     4  10  21  42  75 102 136 194 239 304 355 432
#     4  12  25  43  73 111 141 193 247 302 369 435
#     4  12  25  44  74 107 142 188 252 300 365 435
#     4  12  25  49  72 105 151 197 241 304 367 442
#     4  10  22  46  72 102 142 188 241 300 363 426
#     4  12  25  48  69 108 146 202 245 298 371 430
#
# _framework density 24.024004999999999
#
# number of rings (size 3 to 8) (size 9 to 14) (size 15 to 20)
#    0.500    0.000    3.333    5.000    2.333    0.000 
#    4.500    0.000    0.000    0.000    0.000    0.000 
#    0.000    0.000    0.000    0.000    0.000    0.000 
#
# Total GULP energy -134493.917745 kJ/mol
# GULP energy per Si atom -5603.913239 kJ/mol
# Density = 2.396933 g / cm^3
# Si number density = 24.024005 Si / 1000 Ang^3
#
#
#
# Elastic Constant Matrix: (Units=GPa)
#
#
# Indices 1 2 3 4 5 6 
#
# 1 81.7951 17.8762 32.9522 0.0000 -14.8660 0.0000
# 2 17.8762 70.7634 32.7613 0.0000 5.6604 0.0000
# 3 32.9522 32.7613 134.7260 0.0000 -7.3461 0.0000
# 4 0.0000 0.0000 0.0000 33.7475 0.0000 7.6692
# 5 -14.8660 5.6604 -7.3461 0.0000 61.1405 0.0000
# 6 0.0000 0.0000 0.0000 7.6692 0.0000 21.9113
#
#
#
# Elastic Compliance Matrix: (Units=1/GPa)
#
#
# Indices 1 2 3 4 5 6 
#
# 1 0.014535 -0.002693 -0.002712 0.000000 0.003458 0.000000
# 2 -0.002693 0.016658 -0.003535 0.000000 -0.002622 0.000000
# 3 -0.002712 -0.003535 0.008986 0.000000 0.000748 0.000000
# 4 0.000000 0.000000 0.000000 0.032192 0.000000 -0.011268
# 5 0.003458 -0.002622 0.000748 0.000000 0.017529 0.000000
# 6 0.000000 0.000000 0.000000 -0.011268 0.000000 0.049582
#
#
# Mechanical properties :
#
#
# Convention : Reuss Voigt Hill
#
# Bulk Modulus (GPa) = 44.84321 50.49599 47.66960
# Shear Modulus (GPa) = 30.34054 36.93952 33.64003
#
# Velocity S-wave (km/s) = 3.55762 3.92549 3.74607
# Velocity P-wave (km/s) = 5.96507 6.45062 6.21259
#
# Compressibility (1/GPa) = 0.02229992
#
# Stress axis : x y z
#
# Youngs Moduli (GPa) = 68.79906 60.03036 111.28289
#
# Poissons Ratio (x) = 0.16166 0.30177
# Poissons Ratio (y) = 0.18527 0.39339
# Poissons Ratio (z) = 0.18656 0.21221
#
# Static dielectric constant tensor:
#      x y z
#    x 1.967370 0.000000 -0.043450 
#    y 0.000000 1.893820 0.000000 
#    z -0.043450 0.000000 1.872070 
# 
# From -- ./inp_files/144425.got.cif
#   From: 2010.05.17/outbox.cif.g08.bks.cpg/sg15_73_cif.got.tgz:144425.got - 2010.06.03 18:47:42.
