data_PCOD9286291
_publ_section_title
;
Structure prediction by ZEFSAII (Michael W. Deem and Ramdas Pophale) SiO2 
 PCOD9286291
Probable space group: C 2/C
;
_chemical_formula_sum "Si O2"
_cell_formula_units_Z 36
_cell_length_a 7.692528
_cell_length_b 22.262925
_cell_length_c 17.376194
_cell_angle_alpha 90.000000
_cell_angle_beta 32.704065
_cell_angle_gamma 90.000000
_cell_volume 1607.833048
_symmetry_space_group_name_H-M "C 2/C"
_symmetry_group_IT_number 15
_symmetry_cell_setting 'monoclinic'
loop_
_space_group_symop_operation_xyz
x,y,z
-x,y,1/2-z
-x,-y,-z
x,-y,1/2+z
1/2+x,1/2+y,z
1/2-x,1/2+y,1/2-z
1/2-x,1/2-y,-z
1/2+x,1/2-y,1/2+z
loop_
_atom_site_type_symbol
_atom_site_label
_atom_site_fract_x
_atom_site_fract_y
_atom_site_fract_z
Si Si1 0.151166 0.027805 0.368171
Si Si2 0.013952 0.083926 0.654058
Si Si3 0.228291 0.585134 0.406058
Si Si4 0.500000 0.297039 0.750000
Si Si5 0.016596 0.222362 0.839406
O O1 0.500000 0.058114 0.250000
O O2 0.877556 0.069956 0.432670
O O3 0.000000 0.000000 0.500000
O O4 0.206629 0.968296 0.295884
O O5 0.385293 0.064094 0.504378
O O6 0.958407 0.151791 0.647986
O O7 0.000000 0.087815 0.750000
O O8 0.500000 0.557673 0.250000
O O9 0.247529 0.656536 0.383219
O O10 0.664976 0.257453 0.753203
O O11 0.000000 0.227474 0.750000
O O12 0.750000 0.250000 0.000000
#
# Coordination Sequence:
#
# PCOD9286291 Si02
#       5
#     8   8   8   4   8
#     4  12  25  39  64 100 128 170 224 280 333 405
#     4  11  23  43  65  93 135 174 215 280 345 396
#     4  10  21  43  66  87 129 180 214 262 345 404
#     4  10  24  42  72  98 132 184 230 280 338 418
#     4  11  24  45  69 102 138 180 233 284 346 413
#
# _framework density 22.390385999999999
#
# number of rings (size 3 to 8) (size 9 to 14) (size 15 to 20)
#    0.667    0.444    2.222    4.000    1.556    3.556 
#    0.000    0.000    0.000    0.000    0.000    0.000 
#    0.000    0.000    0.000    0.000    0.000    0.000 
#
# Total GULP energy -100299.321143 kJ/mol
# GULP energy per Si atom -5572.184508 kJ/mol
# Density = 2.233942 g / cm^3
# Si number density = 22.390386 Si / 1000 Ang^3
#
#
#
# Elastic Constant Matrix: (Units=GPa)
#
#
# Indices 1 2 3 4 5 6 
#
# 1 106.6403 33.4175 0.2288 0.0005 1.1774 -0.0003
# 2 33.4175 105.4488 -16.7362 0.0009 6.8628 -0.0004
# 3 0.2288 -16.7362 59.0006 -0.0041 2.0913 0.0018
# 4 0.0005 0.0009 -0.0041 26.3932 0.0003 2.0041
# 5 1.1774 6.8628 2.0913 0.0003 39.6762 -0.0002
# 6 -0.0003 -0.0004 0.0018 2.0041 -0.0002 47.7731
#
#
#
# Elastic Compliance Matrix: (Units=1/GPa)
#
#
# Indices 1 2 3 4 5 6 
#
# 1 0.010475 -0.003509 -0.001048 0.000000 0.000351 0.000000
# 2 -0.003509 0.011246 0.003275 0.000000 -0.002014 0.000000
# 3 -0.001048 0.003275 0.017935 0.000003 -0.001481 -0.000001
# 4 0.000000 0.000000 0.000003 0.038010 0.000000 -0.001595
# 5 0.000351 -0.002014 -0.001481 0.000000 0.025620 0.000000
# 6 0.000000 0.000000 -0.000001 -0.001595 0.000000 0.020999
#
#
# Mechanical properties :
#
#
# Convention : Reuss Voigt Hill
#
# Bulk Modulus (GPa) = 26.96044 33.87887 30.41966
# Shear Modulus (GPa) = 35.91613 39.71379 37.81496
#
# Velocity S-wave (km/s) = 4.00945 4.21610 4.11407
# Velocity P-wave (km/s) = 5.78805 6.23414 6.01523
#
# Compressibility (1/GPa) = 0.03709138
#
# Stress axis : x y z
#
# Youngs Moduli (GPa) = 95.46281 88.91931 55.75828
#
# Poissons Ratio (x) = 0.31201 0.05846
# Poissons Ratio (y) = 0.33498 -0.18261
# Poissons Ratio (z) = 0.10009 -0.29122
#
# Static dielectric constant tensor:
#      x y z
#    x 1.871970 0.000000 0.075300 
#    y 0.000000 1.840760 0.000000 
#    z 0.075300 0.000000 1.890520 
# 
# From -- ./inp_files/129670.got.cif
#   From: 2010.05.17/outbox.cif.g08.bks.cpg/sg15_65_cif.got.tgz:129670.got - 2010.06.03 18:47:42.
