data_PCOD9286735
_publ_section_title
;
Structure prediction by ZEFSAII (Michael W. Deem and Ramdas Pophale) SiO2 
 PCOD9286735
Probable space group: C 2/C
;
_chemical_formula_sum "Si O2"
_cell_formula_units_Z 44
_cell_length_a 22.745757
_cell_length_b 13.577376
_cell_length_c 17.744821
_cell_angle_alpha 90.000000
_cell_angle_beta 158.219493
_cell_angle_gamma 90.000000
_cell_volume 2033.398762
_symmetry_space_group_name_H-M "C 2/C"
_symmetry_group_IT_number 15
_symmetry_cell_setting 'monoclinic'
loop_
_space_group_symop_operation_xyz
x,y,z
-x,y,1/2-z
-x,-y,-z
x,-y,1/2+z
1/2+x,1/2+y,z
1/2-x,1/2+y,1/2-z
1/2-x,1/2-y,-z
1/2+x,1/2-y,1/2+z
loop_
_atom_site_type_symbol
_atom_site_label
_atom_site_fract_x
_atom_site_fract_y
_atom_site_fract_z
Si Si1 0.000000 0.035441 0.250000
Si Si2 0.355991 0.696077 0.978571
Si Si3 0.281300 0.663744 0.377393
Si Si4 0.202310 0.460423 0.914759
Si Si5 0.000000 0.369781 0.250000
Si Si6 0.500000 0.790170 0.750000
Si Si7 0.962751 0.778092 0.953042
O O1 0.115869 0.109102 0.430391
O O2 0.118253 0.971370 0.340651
O O3 0.401096 0.797257 0.076944
O O4 0.477072 0.678044 0.054067
O O5 0.178671 0.703345 0.736918
O O6 0.229346 0.565494 0.359028
O O7 0.396159 0.725441 0.569388
O O8 0.377904 0.653470 0.414270
O O9 0.119454 0.724455 0.170586
O O10 0.104366 0.555756 0.823800
O O11 0.117019 0.363985 0.845442
#
# Coordination Sequence:
#
# PCOD9286735 Si02
#       7
#     4   8   8   8   4   4   8
#     4  11  23  39  69  96 126 162 223 269 303 371
#     4  10  21  44  67  93 123 177 214 256 321 380
#     4  11  22  41  63  94 126 175 207 258 319 389
#     4  11  23  37  64  98 124 156 217 272 308 357
#     4  10  22  42  70  92 128 166 222 268 306 374
#     4  11  23  41  65  86 130 172 221 251 307 385
#     4  10  22  38  68  89 129 173 210 249 324 398
#
# _framework density 21.638649000000001
#
# number of rings (size 3 to 8) (size 9 to 14) (size 15 to 20)
#    0.000    1.455    1.818    3.273    2.545    2.909 
#    0.000    9.091    4.000    0.000    0.000    0.000 
#    0.000    0.000    0.000    0.000    0.000    0.000 
#
# Total GULP energy -122803.904745 kJ/mol
# GULP energy per Si atom -5581.995670 kJ/mol
# Density = 2.158940 g / cm^3
# Si number density = 21.638649 Si / 1000 Ang^3
#
#
#
# Elastic Constant Matrix: (Units=GPa)
#
#
# Indices 1 2 3 4 5 6 
#
# 1 138.8882 48.3214 43.1022 0.0000 21.9029 0.0000
# 2 48.3214 100.4391 39.3194 0.0000 5.1119 0.0000
# 3 43.1022 39.3194 126.7858 0.0001 15.6088 0.0000
# 4 0.0000 0.0000 0.0001 15.9559 0.0000 5.5763
# 5 21.9029 5.1119 15.6088 0.0000 40.5567 0.0000
# 6 0.0000 0.0000 0.0000 5.5763 0.0000 21.8103
#
#
#
# Elastic Compliance Matrix: (Units=1/GPa)
#
#
# Indices 1 2 3 4 5 6 
#
# 1 0.009676 -0.003820 -0.001596 0.000000 -0.004130 0.000000
# 2 -0.003820 0.012840 -0.002874 0.000000 0.001551 0.000000
# 3 -0.001596 -0.002874 0.009627 0.000000 -0.002481 0.000000
# 4 0.000000 0.000000 0.000000 0.068822 0.000000 -0.017596
# 5 -0.004130 0.001551 -0.002481 0.000000 0.027646 0.000000
# 6 0.000000 0.000000 0.000000 -0.017596 0.000000 0.050349
#
#
# Mechanical properties :
#
#
# Convention : Reuss Voigt Hill
#
# Bulk Modulus (GPa) = 64.26064 69.73324 66.99694
# Shear Modulus (GPa) = 24.90925 31.35591 28.13258
#
# Velocity S-wave (km/s) = 3.39654 3.81079 3.60961
# Velocity P-wave (km/s) = 6.71890 7.18743 6.95711
#
# Compressibility (1/GPa) = 0.01556162
#
# Stress axis : x y z
#
# Youngs Moduli (GPa) = 103.35203 77.87935 103.87639
#
# Poissons Ratio (x) = 0.29749 0.16582
# Poissons Ratio (y) = 0.39479 0.29859
# Poissons Ratio (z) = 0.16498 0.22386
#
# Static dielectric constant tensor:
#      x y z
#    x 1.835610 0.000000 0.008280 
#    y 0.000000 1.770460 0.000000 
#    z 0.008280 0.000000 1.843250 
# 
# From -- ./inp_files/47046.got.cif
#   From: 2010.05.17/outbox.cif.g08.bks.cpg/sg15_24_cif.got.tgz:47046.got - 2010.06.03 18:47:42.
