data_PCOD9286264
_publ_section_title
;
Structure prediction by ZEFSAII (Michael W. Deem and Ramdas Pophale) SiO2 
 PCOD9286264
Probable space group: C 2/C
;
_chemical_formula_sum "Si O2"
_cell_formula_units_Z 60
_cell_length_a 19.901262
_cell_length_b 13.259311
_cell_length_c 25.289894
_cell_angle_alpha 90.000000
_cell_angle_beta 26.950529
_cell_angle_gamma 90.000000
_cell_volume 3024.535004
_symmetry_space_group_name_H-M "C 2/C"
_symmetry_group_IT_number 15
_symmetry_cell_setting 'monoclinic'
loop_
_space_group_symop_operation_xyz
x,y,z
-x,y,1/2-z
-x,-y,-z
x,-y,1/2+z
1/2+x,1/2+y,z
1/2-x,1/2+y,1/2-z
1/2-x,1/2-y,-z
1/2+x,1/2-y,1/2+z
loop_
_atom_site_type_symbol
_atom_site_label
_atom_site_fract_x
_atom_site_fract_y
_atom_site_fract_z
Si Si1 0.024391 0.392707 0.510296
Si Si2 0.207858 0.769046 0.315069
Si Si3 0.871832 0.907966 0.645603
Si Si4 0.834045 0.912972 0.245738
Si Si5 0.593721 0.867838 0.580002
Si Si6 0.280372 0.448195 0.116856
Si Si7 0.076164 0.153944 0.643456
Si Si8 0.000000 0.485926 0.750000
O O1 0.192856 0.368185 0.375268
O O2 0.015619 0.396510 0.580185
O O3 0.000000 0.500000 0.500000
O O4 0.908220 0.306338 0.575759
O O5 0.322595 0.701327 0.200970
O O6 0.123314 0.837041 0.331202
O O7 0.270142 0.853299 0.311213
O O8 0.050219 0.922287 0.519353
O O9 0.805074 0.982947 0.736650
O O10 0.805386 0.951463 0.636611
O O11 0.967507 0.924469 0.192362
O O12 0.766709 0.892851 0.453811
O O13 0.590372 0.748535 0.594147
O O14 0.533601 0.922140 0.673903
O O15 0.155759 0.461244 0.158892
O O16 0.000000 0.192550 0.750000
#
# Coordination Sequence:
#
# PCOD9286264 Si02
#       8
#     8   8   8   8   8   8   8   4
#     4  12  23  39  64  95 123 164 214 270 318 367
#     4  11  22  40  64  94 126 161 215 269 316 379
#     4  10  21  43  65  94 125 166 219 266 327 371
#     4  11  22  36  63  92 128 164 203 264 324 389
#     4  11  24  38  62  92 129 169 204 266 319 389
#     4  10  24  41  68  94 125 173 214 269 317 393
#     4  11  21  38  58  94 132 164 202 252 337 393
#     4  12  24  44  64  92 132 174 226 254 324 396
#
# _framework density 19.837759999999999
#
# number of rings (size 3 to 8) (size 9 to 14) (size 15 to 20)
#    0.000    1.067    4.667    2.400    1.867    0.000 
#    0.000    0.667    4.400    0.000    0.000    0.000 
#    0.000    0.000    0.000    0.000    0.000    0.000 
#
# Total GULP energy -167319.188544 kJ/mol
# GULP energy per Si atom -5577.306285 kJ/mol
# Density = 1.979261 g / cm^3
# Si number density = 19.837760 Si / 1000 Ang^3
#
#
#
# Elastic Constant Matrix: (Units=GPa)
#
#
# Indices 1 2 3 4 5 6 
#
# 1 107.0682 20.9212 8.3018 0.0010 -5.5466 0.0008
# 2 20.9212 62.5390 5.1532 0.0049 5.3763 0.0003
# 3 8.3018 5.1532 71.9983 0.0031 -2.5072 0.0002
# 4 0.0010 0.0049 0.0031 33.9070 0.0004 4.0187
# 5 -5.5466 5.3763 -2.5072 0.0004 34.2305 0.0007
# 6 0.0008 0.0003 0.0002 4.0187 0.0007 1.8069
#
#
#
# Elastic Compliance Matrix: (Units=1/GPa)
#
#
# Indices 1 2 3 4 5 6 
#
# 1 0.010206 -0.003529 -0.000850 0.000001 0.002146 -0.000007
# 2 -0.003529 0.017542 -0.000967 -0.000003 -0.003398 0.000007
# 3 -0.000850 -0.000967 0.014093 -0.000001 0.001046 0.000002
# 4 0.000001 -0.000003 -0.000001 0.040050 0.000002 -0.089074
# 5 0.002146 -0.003398 0.001046 0.000002 0.030172 -0.000015
# 6 -0.000007 0.000007 0.000002 -0.089074 -0.000015 0.751541
#
#
# Mechanical properties :
#
#
# Convention : Reuss Voigt Hill
#
# Bulk Modulus (GPa) = 32.10194 34.48422 33.29308
# Shear Modulus (GPa) = 5.65177 27.80417 16.72797
#
# Velocity S-wave (km/s) = 1.68973 3.74783 2.90701
# Velocity P-wave (km/s) = 4.47485 6.01242 5.29969
#
# Compressibility (1/GPa) = 0.03115076
#
# Stress axis : x y z
#
# Youngs Moduli (GPa) = 97.97762 57.00510 70.95809
#
# Poissons Ratio (x) = 0.20116 0.06028
# Poissons Ratio (y) = 0.34575 0.06862
# Poissons Ratio (z) = 0.08324 0.05512
#
# Static dielectric constant tensor:
#      x y z
#    x 1.711300 0.000000 -0.021310 
#    y 0.000000 1.726880 0.000000 
#    z -0.021310 0.000000 1.771150 
# 
# From -- ./inp_files/280072.got.cif
#   From: 2010.05.17/outbox.cif.g08.bks.cpg/sg15_141_cif.got.tgz:280072.got - 2010.06.03 18:47:42.
