data_PCOD9286309
_publ_section_title
;
Structure prediction by ZEFSAII (Michael W. Deem and Ramdas Pophale) SiO2 
 PCOD9286309
Probable space group: C 2/C
;
_chemical_formula_sum "Si O2"
_cell_formula_units_Z 40
_cell_length_a 20.112880
_cell_length_b 9.390832
_cell_length_c 17.738321
_cell_angle_alpha 90.000000
_cell_angle_beta 145.725197
_cell_angle_gamma 90.000000
_cell_volume 1886.795042
_symmetry_space_group_name_H-M "C 2/C"
_symmetry_group_IT_number 15
_symmetry_cell_setting 'monoclinic'
loop_
_space_group_symop_operation_xyz
x,y,z
-x,y,1/2-z
-x,-y,-z
x,-y,1/2+z
1/2+x,1/2+y,z
1/2-x,1/2+y,1/2-z
1/2-x,1/2-y,-z
1/2+x,1/2-y,1/2+z
loop_
_atom_site_type_symbol
_atom_site_label
_atom_site_fract_x
_atom_site_fract_y
_atom_site_fract_z
Si Si1 0.099452 0.423473 0.043142
Si Si2 0.036686 0.428978 0.204340
Si Si3 0.975542 0.807320 0.932139
Si Si4 0.865756 0.712971 0.159683
Si Si5 0.144175 0.098543 0.698741
O O1 0.090868 0.256735 0.056000
O O2 0.227392 0.468734 0.187733
O O3 0.000000 0.500000 0.000000
O O4 0.068011 0.473675 0.930301
O O5 0.054184 0.301827 0.162222
O O6 0.135968 0.547162 0.314716
O O7 0.000000 0.367456 0.250000
O O8 0.942377 0.964656 0.876839
O O9 0.107968 0.814390 0.089798
O O10 0.858942 0.806755 0.229366
O O11 0.000000 0.735180 0.250000
O O12 0.750000 0.750000 0.000000
#
# Coordination Sequence:
#
# PCOD9286309 Si02
#       5
#     8   8   8   8   8
#     4  10  22  41  66  94 133 175 218 270 345 407
#     4  10  21  43  66  94 131 179 218 269 350 412
#     4  10  24  40  65 100 128 169 225 282 331 402
#     4  11  24  44  67  99 139 184 227 278 347 415
#     4  11  23  42  68  99 133 170 231 286 332 399
#
# _framework density 21.199971999999999
#
# number of rings (size 3 to 8) (size 9 to 14) (size 15 to 20)
#    0.000    1.600    2.000    2.400    5.600    0.800 
#    7.200    4.000    0.000    0.000    0.000    0.000 
#    0.000    0.000    0.000    0.000    0.000    0.000 
#
# Total GULP energy -111399.414424 kJ/mol
# GULP energy per Si atom -5569.970721 kJ/mol
# Density = 2.115172 g / cm^3
# Si number density = 21.199972 Si / 1000 Ang^3
#
#
#
# Elastic Constant Matrix: (Units=GPa)
#
#
# Indices 1 2 3 4 5 6 
#
# 1 73.9685 22.4013 48.5442 0.0000 -5.2288 0.0000
# 2 22.4013 103.5609 38.6129 0.0000 -16.0651 0.0000
# 3 48.5442 38.6129 164.5985 0.0000 -5.3899 0.0000
# 4 0.0000 0.0000 0.0000 30.1559 0.0000 -10.1039
# 5 -5.2288 -16.0651 -5.3899 0.0000 32.7774 0.0000
# 6 0.0000 0.0000 0.0000 -10.1039 0.0000 26.3374
#
#
#
# Elastic Compliance Matrix: (Units=1/GPa)
#
#
# Indices 1 2 3 4 5 6 
#
# 1 0.017168 -0.001831 -0.004598 0.000000 0.001085 0.000000
# 2 -0.001831 0.011587 -0.002013 0.000000 0.005056 0.000000
# 3 -0.004598 -0.002013 0.007890 0.000000 -0.000423 0.000000
# 4 0.000000 0.000000 0.000000 0.038052 0.000000 0.014598
# 5 0.001085 0.005056 -0.000423 0.000000 0.033091 0.000000
# 6 0.000000 0.000000 0.000000 0.014598 0.000000 0.043569
#
#
# Mechanical properties :
#
#
# Convention : Reuss Voigt Hill
#
# Bulk Modulus (GPa) = 50.60353 62.36052 56.48203
# Shear Modulus (GPa) = 28.59963 33.35877 30.97920
#
# Velocity S-wave (km/s) = 3.67691 3.97108 3.82682
# Velocity P-wave (km/s) = 6.47670 7.10670 6.79900
#
# Compressibility (1/GPa) = 0.01976147
#
# Stress axis : x y z
#
# Youngs Moduli (GPa) = 58.24705 86.30419 126.74506
#
# Poissons Ratio (x) = 0.15801 0.58281
# Poissons Ratio (y) = 0.10664 0.25509
# Poissons Ratio (z) = 0.26784 0.17370
#
# Static dielectric constant tensor:
#      x y z
#    x 1.838960 0.000000 0.028830 
#    y 0.000000 1.828480 0.000000 
#    z 0.028830 0.000000 1.844490 
# 
# From -- ./inp_files/218822.got.cif
#   From: 2010.05.17/outbox.cif.g08.bks.cpg/sg15_110_cif.got.tgz:218822.got - 2010.06.03 18:47:42.
