data_PCOD9286310
_publ_section_title
;
Structure prediction by ZEFSAII (Michael W. Deem and Ramdas Pophale) SiO2 
 PCOD9286310
Probable space group: C 2/C
;
_chemical_formula_sum "Si O2"
_cell_formula_units_Z 56
_cell_length_a 17.149724
_cell_length_b 6.061813
_cell_length_c 24.331206
_cell_angle_alpha 90.000000
_cell_angle_beta 60.781827
_cell_angle_gamma 90.000000
_cell_volume 2207.607033
_symmetry_space_group_name_H-M "C 2/C"
_symmetry_group_IT_number 15
_symmetry_cell_setting 'monoclinic'
loop_
_space_group_symop_operation_xyz
x,y,z
-x,y,1/2-z
-x,-y,-z
x,-y,1/2+z
1/2+x,1/2+y,z
1/2-x,1/2+y,1/2-z
1/2-x,1/2-y,-z
1/2+x,1/2-y,1/2+z
loop_
_atom_site_type_symbol
_atom_site_label
_atom_site_fract_x
_atom_site_fract_y
_atom_site_fract_z
Si Si1 0.144375 0.770499 0.848736
Si Si2 0.006847 0.867261 0.093359
Si Si3 0.109783 0.422671 0.946404
Si Si4 0.067846 0.216830 0.688986
Si Si5 0.356902 0.253483 0.955403
Si Si6 0.690735 0.333028 0.641774
Si Si7 0.832811 0.513438 0.762290
O O1 0.123858 0.662580 0.915061
O O2 0.144060 0.557700 0.808437
O O3 0.239903 0.886107 0.805242
O O4 0.067388 0.948074 0.864830
O O5 0.963534 0.723550 0.059779
O O6 0.028841 0.739808 0.142338
O O7 0.094761 0.012971 0.048681
O O8 0.204808 0.303640 0.903687
O O9 0.101189 0.413258 0.015215
O O10 0.093916 0.397986 0.724930
O O11 0.000000 0.070907 0.750000
O O12 0.158755 0.082237 0.646865
O O13 0.364578 0.210507 0.887414
O O14 0.250000 0.250000 0.000000
O O15 0.674198 0.253945 0.708463
#
# Coordination Sequence:
#
# PCOD9286310 Si02
#       7
#     8   8   8   8   8   8   8
#     4  12  26  40  72 102 134 179 228 280 334 406
#     4  11  24  43  69 100 134 176 228 282 337 400
#     4  11  21  44  68  99 133 176 228 277 336 397
#     4  11  24  40  62  95 132 176 217 276 337 406
#     4   9  22  42  71  98 137 181 220 283 341 399
#     4  10  21  43  66  94 136 174 223 274 339 398
#     4  12  25  42  68  98 133 178 221 273 343 403
#
# _framework density 25.366833
#
# number of rings (size 3 to 8) (size 9 to 14) (size 15 to 20)
#    0.000    1.143    2.857    3.000    2.000    5.714 
#    0.000    3.571    0.000    0.000    0.000    0.000 
#    0.000    0.000    0.000    0.000    0.000    0.000 
#
# Total GULP energy -156501.411783 kJ/mol
# GULP energy per Si atom -5589.336135 kJ/mol
# Density = 2.530910 g / cm^3
# Si number density = 25.366833 Si / 1000 Ang^3
#
#
#
# Elastic Constant Matrix: (Units=GPa)
#
#
# Indices 1 2 3 4 5 6 
#
# 1 173.8443 50.0241 33.4885 -0.0001 1.7588 0.0005
# 2 50.0241 39.5039 -6.4886 -0.0010 0.8549 0.0021
# 3 33.4885 -6.4886 66.0656 0.0009 16.4179 0.0009
# 4 -0.0001 -0.0010 0.0009 33.3736 0.0002 -3.6123
# 5 1.7588 0.8549 16.4179 0.0002 46.7290 -0.0003
# 6 0.0005 0.0021 0.0009 -3.6123 -0.0003 45.3080
#
#
#
# Elastic Compliance Matrix: (Units=1/GPa)
#
#
# Indices 1 2 3 4 5 6 
#
# 1 0.012283 -0.017032 -0.008614 0.000000 0.002876 0.000001
# 2 -0.017032 0.049439 0.014851 0.000001 -0.005481 -0.000002
# 3 -0.008614 0.014851 0.022952 0.000000 -0.008012 -0.000001
# 4 0.000000 0.000001 0.000000 0.030225 0.000000 0.002410
# 5 0.002876 -0.005481 -0.008012 0.000000 0.024207 0.000001
# 6 0.000001 -0.000002 -0.000001 0.002410 0.000001 0.022263
#
#
# Mechanical properties :
#
#
# Convention : Reuss Voigt Hill
#
# Bulk Modulus (GPa) = 15.85136 48.16242 32.00689
# Shear Modulus (GPa) = 24.51139 38.57478 31.54309
#
# Velocity S-wave (km/s) = 3.11187 3.90382 3.53012
# Velocity P-wave (km/s) = 4.37882 6.27274 5.40932
#
# Compressibility (1/GPa) = 0.06308608
#
# Stress axis : x y z
#
# Youngs Moduli (GPa) = 81.41088 20.22693 43.56857
#
# Poissons Ratio (x) = 0.34450 0.37529
# Poissons Ratio (y) = 1.38656 -0.64704
# Poissons Ratio (z) = 0.70126 -0.30039
#
# Static dielectric constant tensor:
#      x y z
#    x 2.033560 0.000000 -0.067330 
#    y 0.000000 2.012530 0.000000 
#    z -0.067330 0.000000 2.028510 
# 
# From -- ./inp_files/297735.got.cif
#   From: 2010.05.17/outbox.cif.g08.bks.cpg/sg15_149_cif.got.tgz:297735.got - 2010.06.03 18:47:42.
