data_PCOD9286393
_publ_section_title
;
Structure prediction by ZEFSAII (Michael W. Deem and Ramdas Pophale) SiO2 
 PCOD9286393
Probable space group: C 2/C
;
_chemical_formula_sum "Si O2"
_cell_formula_units_Z 52
_cell_length_a 8.565732
_cell_length_b 19.414934
_cell_length_c 15.756561
_cell_angle_alpha 90.000000
_cell_angle_beta 50.345669
_cell_angle_gamma 90.000000
_cell_volume 2017.441385
_symmetry_space_group_name_H-M "C 2/C"
_symmetry_group_IT_number 15
_symmetry_cell_setting 'monoclinic'
loop_
_space_group_symop_operation_xyz
x,y,z
-x,y,1/2-z
-x,-y,-z
x,-y,1/2+z
1/2+x,1/2+y,z
1/2-x,1/2+y,1/2-z
1/2-x,1/2-y,-z
1/2+x,1/2-y,1/2+z
loop_
_atom_site_type_symbol
_atom_site_label
_atom_site_fract_x
_atom_site_fract_y
_atom_site_fract_z
Si Si1 0.049650 0.004194 0.327922
Si Si2 0.811285 0.365653 0.763858
Si Si3 0.099719 0.340136 0.962669
Si Si4 0.780685 0.859091 0.292309
Si Si5 0.500000 0.868260 0.250000
Si Si6 0.386260 0.709025 0.025425
Si Si7 0.646944 0.585835 0.986362
O O1 0.163338 0.070591 0.322906
O O2 0.000000 0.026056 0.250000
O O3 0.882981 0.009346 0.460778
O O4 0.160446 0.933104 0.269374
O O5 0.864346 0.355052 0.648084
O O6 0.000000 0.390883 0.750000
O O7 0.260469 0.299786 0.656311
O O8 0.279320 0.368919 0.957738
O O9 0.880555 0.367110 0.074616
O O10 0.073872 0.258681 0.977098
O O11 0.645058 0.825862 0.264170
O O12 0.000000 0.832792 0.250000
O O13 0.647302 0.913884 0.140603
O O14 0.250000 0.750000 0.000000
O O15 0.488072 0.632785 0.984694
#
# Coordination Sequence:
#
# PCOD9286393 Si02
#       7
#     8   8   8   8   4   8   8
#     4  10  21  43  67  98 136 183 241 291 358 420
#     4  11  23  40  67 102 135 186 231 293 350 431
#     4  11  23  44  67 103 141 186 239 286 361 432
#     4  10  25  43  68 102 140 192 231 306 356 420
#     4  10  24  44  64 106 140 186 246 288 360 436
#     4  11  24  40  68 103 141 182 233 296 356 426
#     4  10  23  44  69  99 143 187 237 292 355 431
#
# _framework density 25.775220999999998
#
# number of rings (size 3 to 8) (size 9 to 14) (size 15 to 20)
#    0.000    1.538    3.077    0.462    3.231    4.308 
#    2.769    0.000    0.000    0.000    0.000    0.000 
#    0.000    0.000    0.000    0.000    0.000    0.000 
#
# Total GULP energy -144841.097131 kJ/mol
# GULP energy per Si atom -5570.811428 kJ/mol
# Density = 2.571656 g / cm^3
# Si number density = 25.775221 Si / 1000 Ang^3
#
#
#
# Elastic Constant Matrix: (Units=GPa)
#
#
# Indices 1 2 3 4 5 6 
#
# 1 127.3940 33.0992 27.6035 0.0000 27.2531 0.0000
# 2 33.0992 107.1204 37.4662 0.0000 7.5687 0.0000
# 3 27.6035 37.4662 138.9703 0.0000 29.0084 0.0000
# 4 0.0000 0.0000 0.0000 49.9840 0.0000 15.1293
# 5 27.2531 7.5687 29.0084 0.0000 47.4629 0.0000
# 6 0.0000 0.0000 0.0000 15.1293 0.0000 27.1804
#
#
#
# Elastic Compliance Matrix: (Units=1/GPa)
#
#
# Indices 1 2 3 4 5 6 
#
# 1 0.009624 -0.002558 -0.000176 0.000000 -0.005011 0.000000
# 2 -0.002558 0.010987 -0.002745 0.000000 0.001395 0.000000
# 3 -0.000176 -0.002745 0.009008 0.000000 -0.004966 0.000000
# 4 0.000000 0.000000 0.000000 0.024060 0.000000 -0.013392
# 5 -0.005011 0.001395 -0.004966 0.000000 0.026759 0.000000
# 6 0.000000 0.000000 0.000000 -0.013392 0.000000 0.044246
#
#
# Mechanical properties :
#
#
# Convention : Reuss Voigt Hill
#
# Bulk Modulus (GPa) = 53.58934 63.31361 58.45147
# Shear Modulus (GPa) = 35.24518 43.27985 39.26252
#
# Velocity S-wave (km/s) = 3.70186 4.10216 3.90714
# Velocity P-wave (km/s) = 6.25362 6.85959 6.56361
#
# Compressibility (1/GPa) = 0.01866043
#
# Stress axis : x y z
#
# Youngs Moduli (GPa) = 103.90233 91.01362 111.01845
#
# Poissons Ratio (x) = 0.23283 0.01954
# Poissons Ratio (y) = 0.26581 0.30476
# Poissons Ratio (z) = 0.01829 0.24985
#
# Static dielectric constant tensor:
#      x y z
#    x 2.053630 0.000000 0.074170 
#    y 0.000000 2.039750 0.000000 
#    z 0.074170 0.000000 1.391650 
# 
# From -- ./inp_files/192456.got.cif
#   From: 2010.05.17/outbox.cif.g08.bks.cpg/sg15_97_cif.got.tgz:192456.got - 2010.06.03 18:47:42.
