data_PCOD9286161
_publ_section_title
;
Structure prediction by ZEFSAII (Michael W. Deem and Ramdas Pophale) SiO2 
 PCOD9286161
Probable space group: C 2/C
;
_chemical_formula_sum "Si O2"
_cell_formula_units_Z 36
_cell_length_a 17.599875
_cell_length_b 21.808721
_cell_length_c 9.249379
_cell_angle_alpha 90.000000
_cell_angle_beta 154.337069
_cell_angle_gamma 90.000000
_cell_volume 1537.504837
_symmetry_space_group_name_H-M "C 2/C"
_symmetry_group_IT_number 15
_symmetry_cell_setting 'monoclinic'
loop_
_space_group_symop_operation_xyz
x,y,z
-x,y,1/2-z
-x,-y,-z
x,-y,1/2+z
1/2+x,1/2+y,z
1/2-x,1/2+y,1/2-z
1/2-x,1/2-y,-z
1/2+x,1/2-y,1/2+z
loop_
_atom_site_type_symbol
_atom_site_label
_atom_site_fract_x
_atom_site_fract_y
_atom_site_fract_z
Si Si1 0.000000 0.980338 0.750000
Si Si2 0.855740 0.883657 0.288145
Si Si3 0.854551 0.448210 0.780975
Si Si4 0.000000 0.347436 0.250000
Si Si5 0.500000 0.676529 0.750000
Si Si6 0.175801 0.249515 0.708576
O O1 0.960254 0.936029 0.547627
O O2 0.825728 0.018069 0.485910
O O3 0.945922 0.863396 0.293524
O O4 0.844293 0.821633 0.361390
O O5 0.673990 0.911216 0.917870
O O6 0.892458 0.398681 0.972142
O O7 0.000000 0.500000 0.000000
O O8 0.009899 0.293544 0.393636
O O9 0.339880 0.717350 0.414305
O O10 0.250000 0.250000 0.000000
#
# Coordination Sequence:
#
# PCOD9286161 Si02
#       6
#     4   8   8   4   4   8
#     4  12  28  48  74 110 157 199 258 322 378 454
#     4  11  24  49  70 109 152 190 263 319 385 462
#     4  12  27  44  76 109 154 209 254 309 386 468
#     4  12  23  44  73 103 149 186 258 308 392 444
#     4  10  21  42  79  99 148 197 240 318 398 452
#     4  10  22  43  70 106 141 187 246 322 377 450
#
# _framework density 23.414562
#
# number of rings (size 3 to 8) (size 9 to 14) (size 15 to 20)
#    0.000    0.889    4.444    3.333    3.111    1.778 
#    0.000    5.556    0.000    0.000    0.000    0.000 
#    0.000    0.000    0.000    0.000    0.000    0.000 
#
# Total GULP energy -100228.148518 kJ/mol
# GULP energy per Si atom -5568.230473 kJ/mol
# Density = 2.336127 g / cm^3
# Si number density = 23.414562 Si / 1000 Ang^3
#
#
#
# Elastic Constant Matrix: (Units=GPa)
#
#
# Indices 1 2 3 4 5 6 
#
# 1 57.0616 49.3693 36.1160 0.0000 7.2316 0.0000
# 2 49.3693 231.2217 95.5479 0.0000 2.8481 0.0000
# 3 36.1160 95.5479 135.2651 0.0000 -22.3286 0.0000
# 4 0.0000 0.0000 0.0000 77.5931 0.0000 -15.6522
# 5 7.2316 2.8481 -22.3286 0.0000 39.9477 0.0000
# 6 0.0000 0.0000 0.0000 -15.6522 0.0000 26.1787
#
#
#
# Elastic Compliance Matrix: (Units=1/GPa)
#
#
# Indices 1 2 3 4 5 6 
#
# 1 0.024555 -0.002721 -0.005878 0.000000 -0.007537 0.000000
# 2 -0.002721 0.006788 -0.004480 0.000000 -0.002496 0.000000
# 3 -0.005878 -0.004480 0.013611 0.000000 0.008992 0.000000
# 4 0.000000 0.000000 0.000000 0.014655 0.000000 0.008762
# 5 -0.007537 -0.002496 0.008992 0.000000 0.031601 0.000000
# 6 0.000000 0.000000 0.000000 0.008762 0.000000 0.043438
#
#
# Mechanical properties :
#
#
# Convention : Reuss Voigt Hill
#
# Bulk Modulus (GPa) = 53.20523 87.29053 70.24788
# Shear Modulus (GPa) = 29.92715 44.91158 37.41936
#
# Velocity S-wave (km/s) = 3.57899 4.38437 4.00199
# Velocity P-wave (km/s) = 6.31279 7.93673 7.17088
#
# Compressibility (1/GPa) = 0.01879514
#
# Stress axis : x y z
#
# Youngs Moduli (GPa) = 40.72537 147.31985 73.46740
#
# Poissons Ratio (x) = 0.40084 0.43186
# Poissons Ratio (y) = 0.11081 0.32916
# Poissons Ratio (z) = 0.23940 0.66004
#
# Static dielectric constant tensor:
#      x y z
#    x 1.928950 0.000000 0.030470 
#    y 0.000000 2.004930 0.000000 
#    z 0.030470 0.000000 1.994480 
# 
# From -- ./inp_files/50560.got.cif
#   From: 2010.05.17/outbox.cif.g08.bks.cpg/sg15_26_cif.got.tgz:50560.got - 2010.06.03 18:47:42.
