data_PCOD9286277
_publ_section_title
;
Structure prediction by ZEFSAII (Michael W. Deem and Ramdas Pophale) SiO2 
 PCOD9286277
Probable space group: C 2/C
;
_chemical_formula_sum "Si O2"
_cell_formula_units_Z 52
_cell_length_a 20.229182
_cell_length_b 8.236650
_cell_length_c 14.656237
_cell_angle_alpha 90.000000
_cell_angle_beta 63.731430
_cell_angle_gamma 90.000000
_cell_volume 2189.842070
_symmetry_space_group_name_H-M "C 2/C"
_symmetry_group_IT_number 15
_symmetry_cell_setting 'monoclinic'
loop_
_space_group_symop_operation_xyz
x,y,z
-x,y,1/2-z
-x,-y,-z
x,-y,1/2+z
1/2+x,1/2+y,z
1/2-x,1/2+y,1/2-z
1/2-x,1/2-y,-z
1/2+x,1/2-y,1/2+z
loop_
_atom_site_type_symbol
_atom_site_label
_atom_site_fract_x
_atom_site_fract_y
_atom_site_fract_z
Si Si1 0.298555 0.014744 0.971853
Si Si2 0.070520 0.192393 0.381002
Si Si3 0.000000 0.169515 0.250000
Si Si4 0.361169 0.635077 0.446373
Si Si5 0.789327 0.392153 0.177562
Si Si6 0.839711 0.663511 0.279140
Si Si7 0.944026 0.182408 0.587781
O O1 0.331164 0.191572 0.928575
O O2 0.337088 0.879491 0.886434
O O3 0.210250 0.020358 0.008110
O O4 0.309911 0.981878 0.071417
O O5 0.033512 0.270656 0.314087
O O6 0.153550 0.246314 0.341151
O O7 0.023603 0.229332 0.499822
O O8 0.058146 0.000631 0.373162
O O9 0.071373 0.082445 0.160400
O O10 0.392930 0.667481 0.528120
O O11 0.798904 0.513747 0.254886
O O12 0.708544 0.321397 0.214218
O O13 0.915292 0.693945 0.180439
#
# Coordination Sequence:
#
# PCOD9286277 Si02
#       7
#     8   8   4   8   8   8   8
#     4  11  24  41  65  98 141 172 228 287 339 405
#     4  10  23  44  68  98 134 174 222 277 342 410
#     4  10  22  38  72  96 128 186 224 268 338 414
#     4  10  21  43  65  98 133 180 224 278 345 411
#     4  12  25  42  67  98 134 178 222 287 337 407
#     4  12  25  41  67  99 130 180 226 282 342 400
#     4  10  22  45  67  94 133 175 224 280 341 409
#
# _framework density 23.746003999999999
#
# number of rings (size 3 to 8) (size 9 to 14) (size 15 to 20)
#    0.000    1.231    1.538    4.154    6.462    0.615 
#    8.308    0.000    0.000    0.000    0.000    0.000 
#    0.000    0.000    0.000    0.000    0.000    0.000 
#
# Total GULP energy -145454.834183 kJ/mol
# GULP energy per Si atom -5594.416699 kJ/mol
# Density = 2.369196 g / cm^3
# Si number density = 23.746004 Si / 1000 Ang^3
#
#
#
# Elastic Constant Matrix: (Units=GPa)
#
#
# Indices 1 2 3 4 5 6 
#
# 1 52.7418 -8.6768 21.3705 0.0000 -13.3850 0.0000
# 2 -8.6768 39.8617 15.7022 0.0000 -7.0757 0.0000
# 3 21.3705 15.7022 117.8377 0.0000 -13.9640 0.0000
# 4 0.0000 0.0000 0.0000 32.9071 0.0000 -4.7945
# 5 -13.3850 -7.0757 -13.9640 0.0000 27.8220 0.0000
# 6 0.0000 0.0000 0.0000 -4.7945 0.0000 23.2002
#
#
#
# Elastic Compliance Matrix: (Units=1/GPa)
#
#
# Indices 1 2 3 4 5 6 
#
# 1 0.025468 0.009491 -0.004408 0.000000 0.012454 0.000000
# 2 0.009491 0.030762 -0.004627 0.000000 0.010067 0.000000
# 3 -0.004408 -0.004627 0.010113 0.000000 0.001778 0.000000
# 4 0.000000 0.000000 0.000000 0.031332 0.000000 0.006475
# 5 0.012454 0.010067 0.001778 0.000000 0.045387 0.000000
# 6 0.000000 0.000000 0.000000 0.006475 0.000000 0.044441
#
#
# Mechanical properties :
#
#
# Convention : Reuss Voigt Hill
#
# Bulk Modulus (GPa) = 14.86887 29.69258 22.28072
# Shear Modulus (GPa) = 23.92221 28.92221 26.42221
#
# Velocity S-wave (km/s) = 3.17743 3.49375 3.33934
# Velocity P-wave (km/s) = 4.44260 5.36716 4.92661
#
# Compressibility (1/GPa) = 0.06725462
#
# Stress axis : x y z
#
# Youngs Moduli (GPa) = 39.26468 32.50733 98.88304
#
# Poissons Ratio (x) = -0.30851 0.43584
# Poissons Ratio (y) = -0.37265 0.45757
# Poissons Ratio (z) = 0.17306 0.15042
#
# Static dielectric constant tensor:
#      x y z
#    x 1.903690 0.000000 -0.004890 
#    y 0.000000 1.908930 0.000000 
#    z -0.004890 0.000000 1.901790 
# 
# From -- ./inp_files/176476.got.cif
#   From: 2010.05.17/outbox.cif.g08.bks.cpg/sg15_89_cif.got.tgz:176476.got - 2010.06.03 18:47:42.
