data_PCOD9286130
_publ_section_title
;
Structure prediction by ZEFSAII (Michael W. Deem and Ramdas Pophale) SiO2 
 PCOD9286130
Probable space group: C 2/C
;
_chemical_formula_sum "Si O2"
_cell_formula_units_Z 44
_cell_length_a 8.068393
_cell_length_b 30.334782
_cell_length_c 9.412846
_cell_angle_alpha 90.000000
_cell_angle_beta 57.613925
_cell_angle_gamma 90.000000
_cell_volume 1945.481005
_symmetry_space_group_name_H-M "C 2/C"
_symmetry_group_IT_number 15
_symmetry_cell_setting 'monoclinic'
loop_
_space_group_symop_operation_xyz
x,y,z
-x,y,1/2-z
-x,-y,-z
x,-y,1/2+z
1/2+x,1/2+y,z
1/2-x,1/2+y,1/2-z
1/2-x,1/2-y,-z
1/2+x,1/2-y,1/2+z
loop_
_atom_site_type_symbol
_atom_site_label
_atom_site_fract_x
_atom_site_fract_y
_atom_site_fract_z
Si Si1 0.916921 0.960898 0.130206
Si Si2 0.494032 0.792437 0.423540
Si Si3 0.480916 0.109205 0.028321
Si Si4 0.324792 0.384873 0.586674
Si Si5 0.000000 0.447955 0.250000
Si Si6 0.726076 0.787191 0.701865
O O1 0.687048 0.971337 0.227934
O O2 0.000000 0.962083 0.250000
O O3 0.981778 0.913329 0.033791
O O4 0.000000 0.000000 0.000000
O O5 0.500000 0.791493 0.250000
O O6 0.538101 0.842168 0.448716
O O7 0.300353 0.785197 0.612568
O O8 0.653120 0.755862 0.395568
O O9 0.288616 0.106560 0.214189
O O10 0.669030 0.098328 0.039281
O O11 0.437024 0.081239 0.911416
O O12 0.334036 0.331228 0.591884
O O13 0.500000 0.789315 0.750000
#
# Coordination Sequence:
#
# PCOD9286130 Si02
#       6
#     8   8   8   8   4   8
#     4  12  30  52  78 116 143 187 235 297 376 441
#     4  11  22  39  58  99 147 186 249 298 348 410
#     4  10  21  42  73 100 145 200 242 298 352 431
#     4  10  22  47  69  98 147 190 245 295 368 434
#     4  12  26  48  78 112 148 188 244 294 356 442
#     4  11  22  40  63  96 137 198 239 293 359 418
#
# _framework density 22.616512
#
# number of rings (size 3 to 8) (size 9 to 14) (size 15 to 20)
#    0.000    1.091    6.364    1.091    2.545    3.636 
#    6.545    0.000    0.000    0.000    0.000    0.000 
#    0.000    0.000    0.000    0.000    0.000    0.000 
#
# Total GULP energy -122729.009998 kJ/mol
# GULP energy per Si atom -5578.591364 kJ/mol
# Density = 2.256504 g / cm^3
# Si number density = 22.616512 Si / 1000 Ang^3
#
#
#
# Elastic Constant Matrix: (Units=GPa)
#
#
# Indices 1 2 3 4 5 6 
#
# 1 93.9111 29.5332 51.7610 0.0000 0.0888 0.0000
# 2 29.5332 56.5922 35.8069 0.0000 -2.9680 0.0000
# 3 51.7610 35.8069 100.6026 0.0000 31.2553 0.0000
# 4 0.0000 0.0000 0.0000 -46.9669 0.0000 199.6265
# 5 0.0888 -2.9680 31.2553 0.0000 33.1481 0.0000
# 6 0.0000 0.0000 0.0000 199.6265 0.0000 -464.2060
#
#
#
# Elastic Compliance Matrix: (Units=1/GPa)
#
#
# Indices 1 2 3 4 5 6 
#
# 1 0.017761 -0.000750 -0.012496 0.000000 0.011668 0.000000
# 2 -0.000750 0.028301 -0.014815 0.000000 0.016505 0.000000
# 3 -0.012496 -0.014815 0.031177 0.000000 -0.030690 0.000000
# 4 0.000000 0.000000 0.000000 0.025720 0.000000 0.011061
# 5 0.011668 0.016505 -0.030690 0.000000 0.060551 0.000000
# 6 0.000000 0.000000 0.000000 0.011061 0.000000 0.002602
#
#
# Mechanical properties :
#
#
# Convention : Reuss Voigt Hill
#
# Bulk Modulus (GPa) = 47.35546 53.92311 50.63929
# Shear Modulus (GPa) = 21.80811 -86.67131 -32.43160
#
# Velocity S-wave (km/s) = 3.10862 -6.19720 -3.79090
# Velocity P-wave (km/s) = 5.81967 5.22618 1.81047
#
# Compressibility (1/GPa) = 0.02111689
#
# Stress axis : x y z
#
# Youngs Moduli (GPa) = 56.30428 35.33459 32.07505
#
# Poissons Ratio (x) = 0.02651 0.40081
# Poissons Ratio (y) = 0.04225 0.47518
# Poissons Ratio (z) = 0.70357 0.52347
#
# Static dielectric constant tensor:
#      x y z
#    x 1.897420 0.000000 0.015910 
#    y 0.000000 1.837190 0.000000 
#    z 0.015910 0.000000 1.772530 
# 
# From -- ./inp_files/25989.got.cif
#   From: 2010.05.17/outbox.cif.g08.bks.cpg/sg15_13_cif.got.tgz:25989.got - 2010.06.03 18:47:42.
