data_PCOD9286655
_publ_section_title
;
Structure prediction by ZEFSAII (Michael W. Deem and Ramdas Pophale) SiO2 
 PCOD9286655
Probable space group: C 2/C
;
_chemical_formula_sum "Si O2"
_cell_formula_units_Z 48
_cell_length_a 19.915282
_cell_length_b 8.030153
_cell_length_c 25.046731
_cell_angle_alpha 90.000000
_cell_angle_beta 146.063341
_cell_angle_gamma 90.000000
_cell_volume 2236.198396
_symmetry_space_group_name_H-M "C 2/C"
_symmetry_group_IT_number 15
_symmetry_cell_setting 'monoclinic'
loop_
_space_group_symop_operation_xyz
x,y,z
-x,y,1/2-z
-x,-y,-z
x,-y,1/2+z
1/2+x,1/2+y,z
1/2-x,1/2+y,1/2-z
1/2-x,1/2-y,-z
1/2+x,1/2-y,1/2+z
loop_
_atom_site_type_symbol
_atom_site_label
_atom_site_fract_x
_atom_site_fract_y
_atom_site_fract_z
Si Si1 0.500000 0.921275 0.250000
Si Si2 0.412006 0.466351 0.992191
Si Si3 0.680626 0.341820 0.907239
Si Si4 0.500000 0.412715 0.250000
Si Si5 0.098844 0.660664 0.010824
Si Si6 0.852186 0.651005 0.218796
Si Si7 0.934609 0.347433 0.887203
O O1 0.386059 0.808061 0.165893
O O2 0.463276 0.027597 0.277275
O O3 0.414769 0.650389 0.020341
O O4 0.275940 0.417406 0.886077
O O5 0.500000 0.500000 0.000000
O O6 0.468304 0.302000 0.056568
O O7 0.575108 0.477264 0.842311
O O8 0.783375 0.416104 0.937661
O O9 0.750000 0.250000 0.000000
O O10 0.400636 0.308306 0.217197
O O11 0.115847 0.674309 0.086054
O O12 0.992328 0.532423 0.927617
O O13 0.846962 0.669923 0.279048
#
# Coordination Sequence:
#
# PCOD9286655 Si02
#       7
#     4   8   8   4   8   8   8
#     4  10  22  38  62  92 130 158 226 268 314 414
#     4  10  22  44  64  98 136 171 225 278 330 407
#     4  11  22  41  63  94 129 178 220 276 337 392
#     4  10  26  40  66 104 130 182 230 276 336 418
#     4  10  21  44  64  95 137 167 228 276 322 414
#     4  11  22  44  66  96 137 174 220 280 342 400
#     4  10  23  42  67 100 131 179 217 277 344 396
#
# _framework density 21.465002999999999
#
# number of rings (size 3 to 8) (size 9 to 14) (size 15 to 20)
#    0.000    1.667    1.667    2.000    2.333    0.000 
#   24.000    4.167    0.000    0.000    0.000    0.000 
#    0.000    0.000    0.000    0.000    0.000    0.000 
#
# Total GULP energy -133671.463945 kJ/mol
# GULP energy per Si atom -5569.644331 kJ/mol
# Density = 2.141615 g / cm^3
# Si number density = 21.465003 Si / 1000 Ang^3
#
#
#
# Elastic Constant Matrix: (Units=GPa)
#
#
# Indices 1 2 3 4 5 6 
#
# 1 70.3439 9.4056 13.4496 0.0000 4.7188 0.0000
# 2 9.4056 108.6515 26.4249 0.0000 -4.5836 0.0000
# 3 13.4496 26.4249 55.2296 0.0000 -2.7896 0.0000
# 4 0.0000 0.0000 0.0000 17.3400 0.0000 15.7974
# 5 4.7188 -4.5836 -2.7896 0.0000 35.6518 0.0000
# 6 0.0000 0.0000 0.0000 15.7974 0.0000 23.9941
#
#
#
# Elastic Compliance Matrix: (Units=1/GPa)
#
#
# Indices 1 2 3 4 5 6 
#
# 1 0.015123 -0.000547 -0.003540 0.000000 -0.002349 0.000000
# 2 -0.000547 0.010468 -0.004823 0.000000 0.001041 0.000000
# 3 -0.003540 -0.004823 0.021352 0.000000 0.001519 0.000000
# 4 0.000000 0.000000 0.000000 0.144110 0.000000 -0.094880
# 5 -0.002349 0.001041 0.001519 0.000000 0.028613 0.000000
# 6 0.000000 0.000000 0.000000 -0.094880 0.000000 0.104145
#
#
# Mechanical properties :
#
#
# Convention : Reuss Voigt Hill
#
# Bulk Modulus (GPa) = 34.33534 36.97611 35.65572
# Shear Modulus (GPa) = 14.23130 27.72684 20.97907
#
# Velocity S-wave (km/s) = 2.57767 3.59795 3.12967
# Velocity P-wave (km/s) = 4.98898 5.87571 5.45041
#
# Compressibility (1/GPa) = 0.02912451
#
# Stress axis : x y z
#
# Youngs Moduli (GPa) = 66.12262 95.52991 46.83333
#
# Poissons Ratio (x) = 0.05229 0.16577
# Poissons Ratio (y) = 0.03620 0.22586
# Poissons Ratio (z) = 0.23405 0.46070
#
# Static dielectric constant tensor:
#      x y z
#    x 1.813430 0.000000 0.009670 
#    y 0.000000 1.591270 0.000000 
#    z 0.009670 0.000000 1.760590 
# 
# From -- ./inp_files/300578.got.cif
#   From: 2010.05.17/outbox.cif.g08.bks.cpg/sg15_151_cif.got.tgz:300578.got - 2010.06.03 18:47:42.
