data_PCOD9286196
_publ_section_title
;
Structure prediction by ZEFSAII (Michael W. Deem and Ramdas Pophale) SiO2 
 PCOD9286196
Probable space group: C 2/C
;
_chemical_formula_sum "Si O2"
_cell_formula_units_Z 44
_cell_length_a 15.467095
_cell_length_b 14.077415
_cell_length_c 11.773821
_cell_angle_alpha 90.000000
_cell_angle_beta 61.394774
_cell_angle_gamma 90.000000
_cell_volume 2250.679165
_symmetry_space_group_name_H-M "C 2/C"
_symmetry_group_IT_number 15
_symmetry_cell_setting 'monoclinic'
loop_
_space_group_symop_operation_xyz
x,y,z
-x,y,1/2-z
-x,-y,-z
x,-y,1/2+z
1/2+x,1/2+y,z
1/2-x,1/2+y,1/2-z
1/2-x,1/2-y,-z
1/2+x,1/2-y,1/2+z
loop_
_atom_site_type_symbol
_atom_site_label
_atom_site_fract_x
_atom_site_fract_y
_atom_site_fract_z
Si Si1 0.465172 0.622168 0.401356
Si Si2 0.000000 0.445857 0.250000
Si Si3 0.142108 0.600009 0.240339
Si Si4 0.517725 0.173560 0.512838
Si Si5 0.368393 0.253694 0.424721
Si Si6 0.365318 0.442503 0.538444
O O1 0.500000 0.634730 0.250000
O O2 0.442201 0.723505 0.473221
O O3 0.378124 0.546539 0.477419
O O4 0.557593 0.575951 0.409424
O O5 0.907931 0.517116 0.301433
O O6 0.993032 0.382288 0.142660
O O7 0.108934 0.700168 0.205681
O O8 0.257984 0.582587 0.155545
O O9 0.094919 0.609199 0.394089
O O10 0.423032 0.197073 0.492368
O O11 0.250000 0.250000 0.500000
O O12 0.392948 0.363841 0.425780
#
# Coordination Sequence:
#
# PCOD9286196 Si02
#       6
#     8   4   8   8   8   8
#     4  10  21  43  63  89 129 166 211 268 327 387
#     4  12  24  40  62  90 134 172 210 276 324 392
#     4  11  22  40  63  96 124 171 219 263 326 389
#     4  11  22  41  63  91 131 171 214 267 330 381
#     4   9  19  39  65  91 125 164 217 262 311 392
#     4   9  22  40  64  95 121 165 215 264 325 388
#
# _framework density 19.549655999999999
#
# number of rings (size 3 to 8) (size 9 to 14) (size 15 to 20)
#    0.000    1.818    2.727    0.545    0.000    5.818 
#   13.091    1.818    0.000    0.000    0.000    0.000 
#    0.000    0.000    0.000    0.000    0.000    0.000 
#
# Total GULP energy -122634.507798 kJ/mol
# GULP energy per Si atom -5574.295809 kJ/mol
# Density = 1.950516 g / cm^3
# Si number density = 19.549656 Si / 1000 Ang^3
#
#
#
# Elastic Constant Matrix: (Units=GPa)
#
#
# Indices 1 2 3 4 5 6 
#
# 1 67.5627 26.2679 30.1021 0.0000 -12.5202 0.0000
# 2 26.2679 78.9360 7.8918 0.0000 1.2110 0.0000
# 3 30.1021 7.8918 57.4538 0.0000 3.4170 0.0000
# 4 0.0000 0.0000 0.0000 33.4990 0.0000 0.0284
# 5 -12.5202 1.2110 3.4170 0.0000 28.0243 0.0000
# 6 0.0000 0.0000 0.0000 0.0284 0.0000 16.1658
#
#
#
# Elastic Compliance Matrix: (Units=1/GPa)
#
#
# Indices 1 2 3 4 5 6 
#
# 1 0.026373 -0.007629 -0.013589 0.000000 0.013769 0.000000
# 2 -0.007629 0.015055 0.002186 0.000000 -0.004326 0.000000
# 3 -0.013589 0.002186 0.024771 0.000000 -0.009186 0.000000
# 4 0.000000 0.000000 0.000000 0.029852 0.000000 -0.000052
# 5 0.013769 -0.004326 -0.009186 0.000000 0.043142 0.000000
# 6 0.000000 0.000000 0.000000 -0.000052 0.000000 0.061859
#
#
# Mechanical properties :
#
#
# Convention : Reuss Voigt Hill
#
# Bulk Modulus (GPa) = 35.54126 36.94177 36.24152
# Shear Modulus (GPa) = 20.12128 24.85055 22.48592
#
# Velocity S-wave (km/s) = 3.21166 3.56919 3.39513
# Velocity P-wave (km/s) = 5.65442 5.99357 5.82646
#
# Compressibility (1/GPa) = 0.02813631
#
# Stress axis : x y z
#
# Youngs Moduli (GPa) = 37.91739 66.42321 40.36988
#
# Poissons Ratio (x) = 0.50674 0.54858
# Poissons Ratio (y) = 0.28927 -0.08827
# Poissons Ratio (z) = 0.51525 -0.14523
#
# Static dielectric constant tensor:
#      x y z
#    x 1.698010 0.000000 -0.006260 
#    y 0.000000 1.711160 0.000000 
#    z -0.006260 0.000000 1.692420 
# 
# From -- ./inp_files/104070.got.cif
#   From: 2010.05.17/outbox.cif.g08.bks.cpg/sg15_53_cif.got.tgz:104070.got - 2010.06.03 18:47:42.
