data_PCOD9286283
_publ_section_title
;
Structure prediction by ZEFSAII (Michael W. Deem and Ramdas Pophale) SiO2 
 PCOD9286283
Probable space group: C 2/C
;
_chemical_formula_sum "Si O2"
_cell_formula_units_Z 52
_cell_length_a 28.169439
_cell_length_b 5.242602
_cell_length_c 18.326281
_cell_angle_alpha 90.000000
_cell_angle_beta 72.574717
_cell_angle_gamma 90.000000
_cell_volume 2582.242899
_symmetry_space_group_name_H-M "C 2/C"
_symmetry_group_IT_number 15
_symmetry_cell_setting 'monoclinic'
loop_
_space_group_symop_operation_xyz
x,y,z
-x,y,1/2-z
-x,-y,-z
x,-y,1/2+z
1/2+x,1/2+y,z
1/2-x,1/2+y,1/2-z
1/2-x,1/2-y,-z
1/2+x,1/2-y,1/2+z
loop_
_atom_site_type_symbol
_atom_site_label
_atom_site_fract_x
_atom_site_fract_y
_atom_site_fract_z
Si Si1 0.406722 0.029313 0.789695
Si Si2 0.535904 0.250655 0.361599
Si Si3 0.191256 0.299875 0.234078
Si Si4 0.000000 0.108532 0.250000
Si Si5 0.195185 0.197644 0.829575
Si Si6 0.928418 0.411265 0.933781
Si Si7 0.898677 0.091302 0.532227
O O1 0.424054 0.895514 0.706807
O O2 0.353432 0.152613 0.800986
O O3 0.408991 0.857017 0.860654
O O4 0.451141 0.225448 0.784544
O O5 0.511333 0.447376 0.316588
O O6 0.488629 0.085285 0.408073
O O7 0.563643 0.371653 0.417076
O O8 0.186345 0.022899 0.273179
O O9 0.246704 0.320939 0.175944
O O10 0.187678 0.523769 0.296942
O O11 0.156376 0.137427 0.910859
O O12 0.909735 0.684312 0.969898
O O13 0.908480 0.185500 0.994188
#
# Coordination Sequence:
#
# PCOD9286283 Si02
#       7
#     8   8   8   4   8   8   8
#     4  12  24  41  67  96 129 174 222 272 317 380
#     4  12  24  42  65  93 128 180 222 261 313 390
#     4  10  22  40  72  96 123 163 228 273 321 367
#     4  12  22  40  68  94 134 158 232 268 308 372
#     4  10  21  43  66 100 124 164 221 279 314 387
#     4  12  26  42  59 100 137 172 208 267 326 395
#     4  12  26  42  66  92 138 171 213 261 338 383
#
# _framework density 20.137533000000001
#
# number of rings (size 3 to 8) (size 9 to 14) (size 15 to 20)
#    0.000    0.615    4.615    3.692    2.154    0.000 
#    0.000    1.538    0.000    0.000    0.000    0.000 
#    0.000    0.000    0.000    0.000    0.000    0.000 
#
# Total GULP energy -145418.474379 kJ/mol
# GULP energy per Si atom -5593.018245 kJ/mol
# Density = 2.009170 g / cm^3
# Si number density = 20.137533 Si / 1000 Ang^3
#
#
#
# Elastic Constant Matrix: (Units=GPa)
#
#
# Indices 1 2 3 4 5 6 
#
# 1 100.4358 -2.7261 27.1082 0.0000 -35.5099 0.0000
# 2 -2.7261 42.7998 -10.2107 0.0000 16.6966 0.0000
# 3 27.1082 -10.2107 66.9989 0.0000 -5.5264 0.0000
# 4 0.0000 0.0000 0.0000 20.9840 0.0000 -15.4480
# 5 -35.5099 16.6966 -5.5264 0.0000 -25.8876 0.0000
# 6 0.0000 0.0000 0.0000 -15.4480 0.0000 1.7024
#
#
#
# Elastic Compliance Matrix: (Units=1/GPa)
#
#
# Indices 1 2 3 4 5 6 
#
# 1 0.008021 0.002941 -0.003487 0.000000 -0.008362 0.000000
# 2 0.002941 0.020769 0.002700 0.000000 0.008785 0.000000
# 3 -0.003487 0.002700 0.016987 0.000000 0.002898 0.000000
# 4 0.000000 0.000000 0.000000 -0.008389 0.000000 -0.076129
# 5 -0.008362 0.008785 0.002898 0.000000 -0.022112 0.000000
# 6 0.000000 0.000000 0.000000 -0.076129 0.000000 -0.103411
#
#
# Mechanical properties :
#
#
# Convention : Reuss Voigt Hill
#
# Bulk Modulus (GPa) = 19.96605 26.50859 23.23732
# Shear Modulus (GPa) = -66.00840 12.43063 -26.78889
#
# Velocity S-wave (km/s) = -5.73149 2.48722 -3.65128
# Velocity P-wave (km/s) = 5.81924 4.63041 2.49227
#
# Compressibility (1/GPa) = 0.05008501
#
# Stress axis : x y z
#
# Youngs Moduli (GPa) = 124.66817 48.14873 58.86862
#
# Poissons Ratio (x) = -0.14160 0.20527
# Poissons Ratio (y) = -0.36664 -0.15894
# Poissons Ratio (z) = 0.43471 -0.13000
#
# Static dielectric constant tensor:
#      x y z
#    x 1.714730 0.000000 -0.022940 
#    y 0.000000 1.741950 0.000000 
#    z -0.022940 0.000000 1.746030 
# 
# From -- ./inp_files/180149.got.cif
#   From: 2010.05.17/outbox.cif.g08.bks.cpg/sg15_91_cif.got.tgz:180149.got - 2010.06.03 18:47:42.
