data_PCOD9286880
_publ_section_title
;
Structure prediction by ZEFSAII (Michael W. Deem and Ramdas Pophale) SiO2 
 PCOD9286880
Probable space group: C 2/C
;
_chemical_formula_sum "Si O2"
_cell_formula_units_Z 64
_cell_length_a 9.529656
_cell_length_b 15.768372
_cell_length_c 29.439271
_cell_angle_alpha 90.000000
_cell_angle_beta 42.252457
_cell_angle_gamma 90.000000
_cell_volume 2974.526896
_symmetry_space_group_name_H-M "C 2/C"
_symmetry_group_IT_number 15
_symmetry_cell_setting 'monoclinic'
loop_
_space_group_symop_operation_xyz
x,y,z
-x,y,1/2-z
-x,-y,-z
x,-y,1/2+z
1/2+x,1/2+y,z
1/2-x,1/2+y,1/2-z
1/2-x,1/2-y,-z
1/2+x,1/2-y,1/2+z
loop_
_atom_site_type_symbol
_atom_site_label
_atom_site_fract_x
_atom_site_fract_y
_atom_site_fract_z
Si Si1 0.438055 0.040701 0.216403
Si Si2 0.881720 0.115187 0.486004
Si Si3 0.607875 0.696289 0.157582
Si Si4 0.144394 0.046924 0.905217
Si Si5 0.825528 0.285301 0.701493
Si Si6 0.626928 0.642914 0.602971
Si Si7 0.430706 0.799018 0.500655
Si Si8 0.017499 0.000523 0.691889
O O1 0.500000 0.079333 0.250000
O O2 0.409794 0.119050 0.188743
O O3 0.216694 0.994216 0.271656
O O4 0.616342 0.973451 0.162616
O O5 0.860973 0.082223 0.542372
O O6 0.667668 0.131711 0.510016
O O7 0.975782 0.209943 0.464864
O O8 0.025324 0.043631 0.429033
O O9 0.367832 0.727910 0.217211
O O10 0.720727 0.721906 0.177063
O O11 0.592306 0.594347 0.163859
O O12 0.750997 0.719362 0.080810
O O13 0.022730 0.110120 0.901245
O O14 0.010571 0.218398 0.657423
O O15 0.654866 0.567812 0.632565
O O16 0.852431 0.669937 0.530568
O O17 0.000000 0.013005 0.750000
#
# Coordination Sequence:
#
# PCOD9286880 Si02
#       8
#     8   8   8   8   8   8   8   8
#     4  11  22  41  69  94 131 173 216 279 330 395
#     4  10  25  45  64  96 131 177 219 273 331 397
#     4  10  21  44  72  92 127 183 222 271 330 404
#     4  11  24  43  68  94 133 175 225 270 332 395
#     4  10  23  42  68  98 130 171 226 270 335 397
#     4  12  26  42  66 105 133 173 225 279 332 402
#     4  11  25  44  68  96 137 173 224 278 337 394
#     4  11  23  43  64 100 134 174 222 277 336 398
#
# _framework density 21.516024999999999
#
# number of rings (size 3 to 8) (size 9 to 14) (size 15 to 20)
#    0.000    1.250    3.750    2.250    3.500    9.500 
#    2.250    0.000    0.000    0.000    0.000    0.000 
#    0.000    0.000    0.000    0.000    0.000    0.000 
#
# Total GULP energy -178817.645688 kJ/mol
# GULP energy per Si atom -5588.051428 kJ/mol
# Density = 2.146705 g / cm^3
# Si number density = 21.516025 Si / 1000 Ang^3
#
#
#
# Elastic Constant Matrix: (Units=GPa)
#
#
# Indices 1 2 3 4 5 6 
#
# 1 76.3869 14.3834 28.7928 -0.0007 -10.4341 0.0006
# 2 14.3834 27.9526 33.9725 -0.0003 -18.0938 -0.0017
# 3 28.7928 33.9725 87.5204 -0.0020 -15.9835 0.0004
# 4 -0.0007 -0.0003 -0.0020 22.2347 0.0013 -1.6000
# 5 -10.4341 -18.0938 -15.9835 0.0013 31.3527 0.0007
# 6 0.0006 -0.0017 0.0004 -1.6000 0.0007 18.6551
#
#
#
# Elastic Compliance Matrix: (Units=1/GPa)
#
#
# Indices 1 2 3 4 5 6 
#
# 1 0.015183 -0.001616 -0.003986 0.000000 0.002088 -0.000001
# 2 -0.001616 0.102276 -0.031412 -0.000004 0.042472 0.000008
# 3 -0.003986 -0.031412 0.023572 0.000002 -0.007438 -0.000003
# 4 0.000000 -0.000004 0.000002 0.045254 -0.000003 0.003881
# 5 0.002088 0.042472 -0.007438 -0.000003 0.053309 0.000002
# 6 -0.000001 0.000008 -0.000003 0.003881 0.000002 0.053938
#
#
# Mechanical properties :
#
#
# Convention : Reuss Voigt Hill
#
# Bulk Modulus (GPa) = 14.92489 38.46191 26.69340
# Shear Modulus (GPa) = 12.82394 22.09590 17.45992
#
# Velocity S-wave (km/s) = 2.44400 3.20808 2.85175
# Velocity P-wave (km/s) = 3.86211 5.62469 4.82457
#
# Compressibility (1/GPa) = 0.06700216
#
# Stress axis : x y z
#
# Youngs Moduli (GPa) = 65.86134 9.77747 42.42306
#
# Poissons Ratio (x) = 0.01581 0.16911
# Poissons Ratio (y) = 0.10646 1.33259
# Poissons Ratio (z) = 0.26254 0.30713
#
# Static dielectric constant tensor:
#      x y z
#    x 1.797050 0.000000 0.007090 
#    y 0.000000 1.781670 0.000000 
#    z 0.007090 0.000000 1.786050 
# 
# From -- ./inp_files/308747.got.cif
#   From: 2010.05.17/outbox.cif.g08.bks.cpg/sg15_155_cif.got.tgz:308747.got - 2010.06.03 18:47:42.
