data_PCOD9286592
_publ_section_title
;
Structure prediction by ZEFSAII (Michael W. Deem and Ramdas Pophale) SiO2 
 PCOD9286592
Probable space group: C 2/C
;
_chemical_formula_sum "Si O2"
_cell_formula_units_Z 32
_cell_length_a 25.577775
_cell_length_b 4.636701
_cell_length_c 19.410250
_cell_angle_alpha 90.000000
_cell_angle_beta 27.929824
_cell_angle_gamma 90.000000
_cell_volume 1078.227461
_symmetry_space_group_name_H-M "C 2/C"
_symmetry_group_IT_number 15
_symmetry_cell_setting 'monoclinic'
loop_
_space_group_symop_operation_xyz
x,y,z
-x,y,1/2-z
-x,-y,-z
x,-y,1/2+z
1/2+x,1/2+y,z
1/2-x,1/2+y,1/2-z
1/2-x,1/2-y,-z
1/2+x,1/2-y,1/2+z
loop_
_atom_site_type_symbol
_atom_site_label
_atom_site_fract_x
_atom_site_fract_y
_atom_site_fract_z
Si Si1 0.778720 0.326367 0.762230
Si Si2 0.350681 0.548068 0.858471
Si Si3 0.912447 0.952704 0.926779
Si Si4 0.947114 0.779935 0.618003
O O1 0.725804 0.504977 0.760108
O O2 0.891292 0.492913 0.652615
O O3 0.691199 0.372757 0.924405
O O4 0.373502 0.334585 0.897540
O O5 0.478971 0.664419 0.705265
O O6 0.350749 0.410144 0.782506
O O7 0.250000 0.750000 0.000000
O O8 0.954966 0.742087 0.938122
O O9 0.000000 0.000000 0.500000
#
# Coordination Sequence:
#
# PCOD9286592 Si02
#       4
#     8   8   8   8
#     4  12  26  45  79 114 161 208 265 331 399 471
#     4   9  20  42  75 107 157 202 259 320 394 475
#     4   9  22  43  69 111 157 202 267 315 403 466
#     4  10  21  43  73 111 154 207 266 324 397 469
#
# _framework density 29.678341
#
# number of rings (size 3 to 8) (size 9 to 14) (size 15 to 20)
#    1.500    0.500    2.500    0.000    3.500    2.000 
#    0.000    2.500    0.000    0.000    0.000    0.000 
#    0.000    0.000    0.000    0.000    0.000    0.000 
#
# Total GULP energy -89321.530155 kJ/mol
# GULP energy per Si atom -5582.595635 kJ/mol
# Density = 2.961079 g / cm^3
# Si number density = 29.678341 Si / 1000 Ang^3
#
#
#
# Elastic Constant Matrix: (Units=GPa)
#
#
# Indices 1 2 3 4 5 6 
#
# 1 222.7592 49.2793 33.7612 0.0355 47.2193 0.0244
# 2 49.2793 120.2209 48.1866 0.0250 1.7806 0.0131
# 3 33.7612 48.1866 193.7928 0.0574 -9.9460 -0.0118
# 4 0.0355 0.0250 0.0574 48.5722 -0.0373 -8.6107
# 5 47.2193 1.7806 -9.9460 -0.0373 77.4888 0.0105
# 6 0.0244 0.0131 -0.0118 -8.6107 0.0105 40.8226
#
#
#
# Elastic Compliance Matrix: (Units=1/GPa)
#
#
# Indices 1 2 3 4 5 6 
#
# 1 0.005805 -0.002052 -0.000685 -0.000006 -0.003578 -0.000003
# 2 -0.002052 0.009984 -0.002086 -0.000001 0.000753 -0.000003
# 3 -0.000685 -0.002086 0.005861 -0.000004 0.001217 0.000002
# 4 -0.000006 -0.000001 -0.000004 0.021388 0.000013 0.004511
# 5 -0.003578 0.000753 0.001217 0.000013 0.015225 0.000001
# 6 -0.000003 -0.000003 0.000002 0.004511 0.000001 0.025448
#
#
# Mechanical properties :
#
#
# Convention : Reuss Voigt Hill
#
# Bulk Modulus (GPa) = 83.30747 88.80302 86.05524
# Shear Modulus (GPa) = 51.35650 60.41313 55.88481
#
# Velocity S-wave (km/s) = 4.16437 4.51665 4.34408
# Velocity P-wave (km/s) = 7.15916 7.56221 7.36344
#
# Compressibility (1/GPa) = 0.01200373
#
# Stress axis : x y z
#
# Youngs Moduli (GPa) = 172.25151 100.15666 170.62757
#
# Poissons Ratio (x) = 0.20554 0.11684
# Poissons Ratio (y) = 0.35350 0.35600
# Poissons Ratio (z) = 0.11795 0.20897
#
# Static dielectric constant tensor:
#      x y z
#    x 2.388360 -0.000110 -0.050770 
#    y -0.000110 2.359520 0.000030 
#    z -0.050770 0.000030 2.428420 
# 
# From -- ./inp_files/258243.got.cif
#   From: 2010.05.17/outbox.cif.g08.bks.cpg/sg15_130_cif.got.tgz:258243.got - 2010.06.03 18:47:42.
