data_PCOD9286340
_publ_section_title
;
Structure prediction by ZEFSAII (Michael W. Deem and Ramdas Pophale) SiO2 
 PCOD9286340
Probable space group: C 2/C
;
_chemical_formula_sum "Si O2"
_cell_formula_units_Z 40
_cell_length_a 7.642974
_cell_length_b 14.275070
_cell_length_c 29.564605
_cell_angle_alpha 90.000000
_cell_angle_beta 151.355242
_cell_angle_gamma 90.000000
_cell_volume 1546.288119
_symmetry_space_group_name_H-M "C 2/C"
_symmetry_group_IT_number 15
_symmetry_cell_setting 'monoclinic'
loop_
_space_group_symop_operation_xyz
x,y,z
-x,y,1/2-z
-x,-y,-z
x,-y,1/2+z
1/2+x,1/2+y,z
1/2-x,1/2+y,1/2-z
1/2-x,1/2-y,-z
1/2+x,1/2-y,1/2+z
loop_
_atom_site_type_symbol
_atom_site_label
_atom_site_fract_x
_atom_site_fract_y
_atom_site_fract_z
Si Si1 0.403372 0.380428 0.449689
Si Si2 0.590998 0.513148 0.135965
Si Si3 0.757636 0.180691 0.386763
Si Si4 0.912097 0.722360 0.782600
Si Si5 0.231680 0.606028 0.627187
O O1 0.448787 0.445617 0.416764
O O2 0.716623 0.359581 0.556915
O O3 0.250445 0.284570 0.392368
O O4 0.079663 0.420101 0.408327
O O5 0.540230 0.615644 0.103269
O O6 0.308670 0.474434 0.108648
O O7 0.000000 0.506752 0.250000
O O8 0.339494 0.186426 0.274236
O O9 0.877654 0.289375 0.415415
O O10 0.637663 0.638328 0.735270
O O11 0.000000 0.706483 0.750000
#
# Coordination Sequence:
#
# PCOD9286340 Si02
#       5
#     8   8   8   8   8
#     4  12  21  45  71  96 143 184 226 292 359 413
#     4  12  24  44  66 100 144 180 233 300 343 419
#     4  10  26  41  69 107 132 183 242 284 349 436
#     4  10  21  43  67 100 133 185 232 283 358 414
#     4  10  23  44  68  97 134 185 227 285 359 406
#
# _framework density 25.868400000000001
#
# number of rings (size 3 to 8) (size 9 to 14) (size 15 to 20)
#    1.200    0.000    4.000    1.800    2.800    4.000 
#    3.600    2.000    0.000    0.000    0.000    0.000 
#    0.000    0.000    0.000    0.000    0.000    0.000 
#
# Total GULP energy -111738.883046 kJ/mol
# GULP energy per Si atom -5586.944152 kJ/mol
# Density = 2.580952 g / cm^3
# Si number density = 25.868400 Si / 1000 Ang^3
#
#
#
# Elastic Constant Matrix: (Units=GPa)
#
#
# Indices 1 2 3 4 5 6 
#
# 1 121.2436 20.3997 5.0673 -0.0002 -19.0587 -0.0004
# 2 20.3997 105.0374 52.7023 -0.0015 -13.3334 0.0008
# 3 5.0673 52.7023 107.5138 0.0050 -29.8710 -0.0017
# 4 -0.0002 -0.0015 0.0050 19.0335 0.0023 2.1238
# 5 -19.0587 -13.3334 -29.8710 0.0023 36.1977 -0.0002
# 6 -0.0004 0.0008 -0.0017 2.1238 -0.0002 41.3874
#
#
#
# Elastic Compliance Matrix: (Units=1/GPa)
#
#
# Indices 1 2 3 4 5 6 
#
# 1 0.009488 -0.002247 0.002351 -0.000001 0.006108 0.000000
# 2 -0.002247 0.013168 -0.006915 0.000003 -0.002040 -0.000001
# 3 0.002351 -0.006915 0.015851 -0.000006 0.011771 0.000001
# 4 -0.000001 0.000003 -0.000006 0.052841 -0.000008 -0.002712
# 5 0.006108 -0.002040 0.011771 -0.000008 0.039804 0.000001
# 6 0.000000 -0.000001 0.000001 -0.002712 0.000001 0.024301
#
#
# Mechanical properties :
#
#
# Convention : Reuss Voigt Hill
#
# Bulk Modulus (GPa) = 40.18676 54.45926 47.32301
# Shear Modulus (GPa) = 28.18962 36.36541 32.27752
#
# Velocity S-wave (km/s) = 3.30469 3.75345 3.53619
# Velocity P-wave (km/s) = 5.48909 6.31527 5.91662
#
# Compressibility (1/GPa) = 0.02488382
#
# Stress axis : x y z
#
# Youngs Moduli (GPa) = 105.39817 75.94300 63.08912
#
# Poissons Ratio (x) = 0.17065 -0.14835
# Poissons Ratio (y) = 0.23684 0.43629
# Poissons Ratio (z) = -0.24783 0.52518
#
# Static dielectric constant tensor:
#      x y z
#    x 2.024010 0.000000 0.075330 
#    y 0.000000 2.063850 0.000000 
#    z 0.075330 0.000000 2.159510 
# 
# From -- ./inp_files/308578.got.cif
#   From: 2010.05.17/outbox.cif.g08.bks.cpg/sg15_155_cif.got.tgz:308578.got - 2010.06.03 18:47:42.
