data_PCOD9286715
_publ_section_title
;
Structure prediction by ZEFSAII (Michael W. Deem and Ramdas Pophale) SiO2 
 PCOD9286715
Probable space group: C 2/C
;
_chemical_formula_sum "Si O2"
_cell_formula_units_Z 56
_cell_length_a 11.361497
_cell_length_b 14.804830
_cell_length_c 14.409746
_cell_angle_alpha 90.000000
_cell_angle_beta 90.121501
_cell_angle_gamma 90.000000
_cell_volume 2423.786332
_symmetry_space_group_name_H-M "C 2/C"
_symmetry_group_IT_number 15
_symmetry_cell_setting 'monoclinic'
loop_
_space_group_symop_operation_xyz
x,y,z
-x,y,1/2-z
-x,-y,-z
x,-y,1/2+z
1/2+x,1/2+y,z
1/2-x,1/2+y,1/2-z
1/2-x,1/2-y,-z
1/2+x,1/2-y,1/2+z
loop_
_atom_site_type_symbol
_atom_site_label
_atom_site_fract_x
_atom_site_fract_y
_atom_site_fract_z
Si Si1 0.730955 0.169203 0.675250
Si Si2 0.619473 0.959547 0.044151
Si Si3 0.280501 0.667702 0.431016
Si Si4 0.197659 0.835575 0.118689
Si Si5 0.468126 0.580427 0.647169
Si Si6 0.970660 0.867379 0.646044
Si Si7 0.785770 0.352222 0.922751
O O1 0.621733 0.122148 0.620666
O O2 0.742139 0.277489 0.665265
O O3 0.743433 0.143096 0.782783
O O4 0.845500 0.126368 0.623964
O O5 0.675769 0.046111 0.096651
O O6 0.699713 0.916699 0.960665
O O7 0.500000 0.000000 0.000000
O O8 0.250000 0.750000 0.500000
O O9 0.418168 0.646392 0.420900
O O10 0.145642 0.733386 0.117776
O O11 0.087298 0.899083 0.093336
O O12 0.287086 0.845702 0.034203
O O13 0.500000 0.615921 0.750000
O O14 0.451630 0.474490 0.652580
O O15 0.000000 0.833202 0.750000
O O16 0.847108 0.831797 0.610008
#
# Coordination Sequence:
#
# PCOD9286715 Si02
#       7
#     8   8   8   8   8   8   8
#     4  10  21  44  66  96 140 178 233 284 348 421
#     4  11  25  44  67 100 143 187 230 287 355 428
#     4  10  24  40  68  99 138 183 234 288 358 414
#     4  10  23  38  65  98 136 175 224 286 352 407
#     4   9  19  36  65  95 125 170 225 288 335 400
#     4  11  22  41  71 101 131 176 237 293 346 414
#     4  11  24  41  67  99 137 176 234 285 348 420
#
# _framework density 23.104347000000001
#
# number of rings (size 3 to 8) (size 9 to 14) (size 15 to 20)
#    0.000    1.714    1.429    1.714    6.000    4.571 
#    2.571    2.143    0.000    0.000    0.000    0.000 
#    0.000    0.000    0.000    0.000    0.000    0.000 
#
# Total GULP energy -156154.591146 kJ/mol
# GULP energy per Si atom -5576.949684 kJ/mol
# Density = 2.305176 g / cm^3
# Si number density = 23.104347 Si / 1000 Ang^3
#
#
#
# Elastic Constant Matrix: (Units=GPa)
#
#
# Indices 1 2 3 4 5 6 
#
# 1 90.5298 4.7707 23.3742 0.0000 17.6672 0.0000
# 2 4.7707 62.2573 -6.5676 0.0000 7.8117 0.0000
# 3 23.3742 -6.5676 93.4158 0.0000 13.1581 0.0000
# 4 0.0000 0.0000 0.0000 33.0332 0.0000 0.5830
# 5 17.6672 7.8117 13.1581 0.0000 29.5389 0.0000
# 6 0.0000 0.0000 0.0000 0.5830 0.0000 39.7331
#
#
#
# Elastic Compliance Matrix: (Units=1/GPa)
#
#
# Indices 1 2 3 4 5 6 
#
# 1 0.012960 -0.000412 -0.002342 0.000000 -0.006599 0.000000
# 2 -0.000412 0.016951 0.002018 0.000000 -0.005135 0.000000
# 3 -0.002342 0.002018 0.012068 0.000000 -0.004508 0.000000
# 4 0.000000 0.000000 0.000000 0.030280 0.000000 -0.000444
# 5 -0.006599 -0.005135 -0.004508 0.000000 0.041167 0.000000
# 6 0.000000 0.000000 0.000000 -0.000444 0.000000 0.025174
#
#
# Mechanical properties :
#
#
# Convention : Reuss Voigt Hill
#
# Bulk Modulus (GPa) = 24.68721 32.15084 28.41903
# Shear Modulus (GPa) = 32.55709 35.43607 33.99658
#
# Velocity S-wave (km/s) = 3.75791 3.92055 3.84009
# Velocity P-wave (km/s) = 5.43484 5.86856 5.65586
#
# Compressibility (1/GPa) = 0.04050681
#
# Stress axis : x y z
#
# Youngs Moduli (GPa) = 77.15783 58.99284 82.86484
#
# Poissons Ratio (x) = 0.02432 0.19410
# Poissons Ratio (y) = 0.03181 -0.16724
# Poissons Ratio (z) = 0.18073 -0.11906
#
# Static dielectric constant tensor:
#      x y z
#    x 1.916080 0.000000 0.003800 
#    y 0.000000 1.897160 0.000000 
#    z 0.003800 0.000000 1.985420 
# 
# From -- ./inp_files/144234.got.cif
#   From: 2010.05.17/outbox.cif.g08.bks.cpg/sg15_73_cif.got.tgz:144234.got - 2010.06.03 18:47:42.
