data_PCOD9286115
_publ_section_title
;
Structure prediction by ZEFSAII (Michael W. Deem and Ramdas Pophale) SiO2 
 PCOD9286115
Probable space group: C 2/C
;
_chemical_formula_sum "Si O2"
_cell_formula_units_Z 36
_cell_length_a 5.269580
_cell_length_b 18.508365
_cell_length_c 18.305353
_cell_angle_alpha 90.000000
_cell_angle_beta 133.738145
_cell_angle_gamma 90.000000
_cell_volume 1289.924350
_symmetry_space_group_name_H-M "C 2/C"
_symmetry_group_IT_number 15
_symmetry_cell_setting 'monoclinic'
loop_
_space_group_symop_operation_xyz
x,y,z
-x,y,1/2-z
-x,-y,-z
x,-y,1/2+z
1/2+x,1/2+y,z
1/2-x,1/2+y,1/2-z
1/2-x,1/2-y,-z
1/2+x,1/2-y,1/2+z
loop_
_atom_site_type_symbol
_atom_site_label
_atom_site_fract_x
_atom_site_fract_y
_atom_site_fract_z
Si Si1 0.500000 0.977550 0.750000
Si Si2 0.125332 0.880445 0.160858
Si Si3 0.229684 0.252327 0.130726
Si Si4 0.696431 0.575231 0.042935
Si Si5 0.266667 0.831156 0.870784
O O1 0.662079 0.926883 0.845062
O O2 0.802882 0.038663 0.793907
O O3 0.500000 0.840753 0.250000
O O4 0.802164 0.836715 0.130206
O O5 0.070550 0.881645 0.063137
O O6 0.500000 0.237508 0.250000
O O7 0.396983 0.210070 0.095977
O O8 0.881251 0.214560 0.091533
O O9 0.067904 0.591401 0.075815
O O10 0.500000 0.500000 0.000000
O O11 0.000000 0.838836 0.750000
#
# Coordination Sequence:
#
# PCOD9286115 Si02
#       5
#     4   8   8   8   8
#     4   8  20  38  76 108 164 206 266 324 392 488
#     4   9  19  39  72 112 160 207 264 335 397 474
#     4  10  21  42  72 110 149 203 259 325 395 460
#     4  10  21  43  74 115 160 209 268 319 406 473
#     4  10  23  41  75 107 154 202 259 325 390 469
#
# _framework density 27.908615999999999
#
# number of rings (size 3 to 8) (size 9 to 14) (size 15 to 20)
#    0.667    1.778    0.000    2.000    4.667    1.778 
#    0.000    4.444    0.000    4.000    0.000    0.000 
#    0.000    0.000    0.000    0.000    0.000    0.000 
#
# Total GULP energy -100383.993349 kJ/mol
# GULP energy per Si atom -5576.888519 kJ/mol
# Density = 2.784509 g / cm^3
# Si number density = 27.908616 Si / 1000 Ang^3
#
#
#
# Elastic Constant Matrix: (Units=GPa)
#
#
# Indices 1 2 3 4 5 6 
#
# 1 186.3346 78.7312 49.3280 0.0000 13.5823 0.0000
# 2 78.7312 129.9528 56.2441 0.0000 12.4103 0.0000
# 3 49.3280 56.2441 232.9648 0.0000 -11.0552 0.0000
# 4 0.0000 0.0000 0.0000 24.2990 0.0000 1.9779
# 5 13.5823 12.4103 -11.0552 0.0000 25.7967 0.0000
# 6 0.0000 0.0000 0.0000 1.9779 0.0000 57.7922
#
#
#
# Elastic Compliance Matrix: (Units=1/GPa)
#
#
# Indices 1 2 3 4 5 6 
#
# 1 0.007393 -0.003947 -0.000722 0.000000 -0.002303 0.000000
# 2 -0.003947 0.011420 -0.002127 0.000000 -0.004327 0.000000
# 3 -0.000722 -0.002127 0.005130 0.000000 0.003602 0.000000
# 4 0.000000 0.000000 0.000000 0.041269 0.000000 -0.001412
# 5 -0.002303 -0.004327 0.003602 0.000000 0.043603 0.000000
# 6 0.000000 0.000000 0.000000 -0.001412 0.000000 0.017352
#
#
# Mechanical properties :
#
#
# Convention : Reuss Voigt Hill
#
# Bulk Modulus (GPa) = 96.59869 101.98432 99.29150
# Shear Modulus (GPa) = 34.91428 45.90750 40.41089
#
# Velocity S-wave (km/s) = 3.54082 4.06016 3.80935
# Velocity P-wave (km/s) = 7.16967 7.65516 7.41639
#
# Compressibility (1/GPa) = 0.01035211
#
# Stress axis : x y z
#
# Youngs Moduli (GPa) = 135.25729 87.56590 194.94263
#
# Poissons Ratio (x) = 0.34561 0.14073
# Poissons Ratio (y) = 0.53383 0.41459
# Poissons Ratio (z) = 0.09764 0.18623
#
# Static dielectric constant tensor:
#      x y z
#    x 2.277030 0.000000 0.014420 
#    y 0.000000 2.435060 0.000000 
#    z 0.014420 0.000000 2.197760 
# 
# From -- ./inp_files/227437.got.cif
#   From: 2010.05.17/outbox.cif.g08.bks.cpg/sg15_114_cif.got.tgz:227437.got - 2010.06.03 18:47:42.
