data_PCOD9286460
_publ_section_title
;
Structure prediction by ZEFSAII (Michael W. Deem and Ramdas Pophale) SiO2 
 PCOD9286460
Probable space group: C 2/C
;
_chemical_formula_sum "Si O2"
_cell_formula_units_Z 56
_cell_length_a 26.479515
_cell_length_b 8.901663
_cell_length_c 12.588052
_cell_angle_alpha 90.000000
_cell_angle_beta 114.434180
_cell_angle_gamma 90.000000
_cell_volume 2701.404574
_symmetry_space_group_name_H-M "C 2/C"
_symmetry_group_IT_number 15
_symmetry_cell_setting 'monoclinic'
loop_
_space_group_symop_operation_xyz
x,y,z
-x,y,1/2-z
-x,-y,-z
x,-y,1/2+z
1/2+x,1/2+y,z
1/2-x,1/2+y,1/2-z
1/2-x,1/2-y,-z
1/2+x,1/2-y,1/2+z
loop_
_atom_site_type_symbol
_atom_site_label
_atom_site_fract_x
_atom_site_fract_y
_atom_site_fract_z
Si Si1 0.610759 0.921361 0.768966
Si Si2 0.202449 0.339846 0.015978
Si Si3 0.353378 0.380282 0.860693
Si Si4 0.138354 0.230345 0.597471
Si Si5 0.440978 0.167447 0.893864
Si Si6 0.251497 0.657849 0.114861
Si Si7 0.947806 0.441754 0.093430
O O1 0.610206 0.787271 0.683256
O O2 0.610339 0.072534 0.700015
O O3 0.561857 0.964273 0.807740
O O4 0.661484 0.895624 0.889226
O O5 0.170155 0.232161 0.069337
O O6 0.230128 0.487853 0.086505
O O7 0.250000 0.250000 0.000000
O O8 0.359529 0.550804 0.906567
O O9 0.415615 0.328946 0.887260
O O10 0.310866 0.356873 0.724910
O O11 0.203468 0.271767 0.647338
O O12 0.103971 0.329076 0.479631
O O13 0.497016 0.157327 0.874811
O O14 0.452154 0.073982 0.010125
O O15 0.250000 0.750000 0.000000
#
# Coordination Sequence:
#
# PCOD9286460 Si02
#       7
#     8   8   8   8   8   8   8
#     4  11  20  43  66  93 127 176 227 267 329 406
#     4  12  23  40  65  96 135 180 220 271 337 406
#     4  12  24  41  62 101 141 172 219 286 347 408
#     4  11  25  41  66 100 137 173 223 283 345 410
#     4  10  22  40  69  95 126 168 230 277 330 402
#     4  12  24  42  64  96 133 184 226 270 335 414
#     4  10  21  43  69  94 122 178 227 276 330 402
#
# _framework density 20.729956999999999
#
# number of rings (size 3 to 8) (size 9 to 14) (size 15 to 20)
#    0.000    0.857    2.857    5.571    0.000    0.571 
#    0.000    0.000    0.000    0.000    0.000    0.000 
#    0.000    0.000    0.000    0.000    0.000    0.000 
#
# Total GULP energy -156097.953015 kJ/mol
# GULP energy per Si atom -5574.926893 kJ/mol
# Density = 2.068277 g / cm^3
# Si number density = 20.729957 Si / 1000 Ang^3
#
#
#
# Elastic Constant Matrix: (Units=GPa)
#
#
# Indices 1 2 3 4 5 6 
#
# 1 117.6721 43.3978 17.6673 0.0000 -0.6473 0.0000
# 2 43.3978 103.2719 4.3961 0.0000 -2.3670 0.0000
# 3 17.6673 4.3961 53.1974 0.0000 -5.5371 0.0000
# 4 0.0000 0.0000 0.0000 5.9441 0.0000 -0.6679
# 5 -0.6473 -2.3670 -5.5371 0.0000 37.6681 0.0000
# 6 0.0000 0.0000 0.0000 -0.6679 0.0000 49.2654
#
#
#
# Elastic Compliance Matrix: (Units=1/GPa)
#
#
# Indices 1 2 3 4 5 6 
#
# 1 0.010570 -0.004318 -0.003212 0.000000 -0.000562 0.000000
# 2 -0.004318 0.011491 0.000560 0.000000 0.000730 0.000000
# 3 -0.003212 0.000560 0.020124 0.000000 0.002938 0.000000
# 4 0.000000 0.000000 0.000000 0.168491 0.000000 0.002284
# 5 -0.000562 0.000730 0.002938 0.000000 0.027016 0.000000
# 6 0.000000 0.000000 0.000000 0.002284 0.000000 0.020329
#
#
# Mechanical properties :
#
#
# Convention : Reuss Voigt Hill
#
# Bulk Modulus (GPa) = 35.40360 45.00707 40.20533
# Shear Modulus (GPa) = 17.76993 32.48753 25.12873
#
# Velocity S-wave (km/s) = 2.93099 3.96305 3.48544
# Velocity P-wave (km/s) = 5.34508 6.53447 5.96947
#
# Compressibility (1/GPa) = 0.02824572
#
# Stress axis : x y z
#
# Youngs Moduli (GPa) = 94.60926 87.02806 49.69155
#
# Poissons Ratio (x) = 0.37578 0.15961
# Poissons Ratio (y) = 0.40851 -0.02785
# Poissons Ratio (z) = 0.30388 -0.04878
#
# Static dielectric constant tensor:
#      x y z
#    x 1.773780 0.000000 -0.008600 
#    y 0.000000 1.774590 0.000000 
#    z -0.008600 0.000000 1.860330 
# 
# From -- ./inp_files/176676.got.cif
#   From: 2010.05.17/outbox.cif.g08.bks.cpg/sg15_89_cif.got.tgz:176676.got - 2010.06.03 18:47:42.
