data_PCOD9286862
_publ_section_title
;
Structure prediction by ZEFSAII (Michael W. Deem and Ramdas Pophale) SiO2 
 PCOD9286862
Probable space group: C 2/C
;
_chemical_formula_sum "Si O2"
_cell_formula_units_Z 44
_cell_length_a 13.061028
_cell_length_b 19.371379
_cell_length_c 10.302371
_cell_angle_alpha 90.000000
_cell_angle_beta 41.908978
_cell_angle_gamma 90.000000
_cell_volume 1741.079105
_symmetry_space_group_name_H-M "C 2/C"
_symmetry_group_IT_number 15
_symmetry_cell_setting 'monoclinic'
loop_
_space_group_symop_operation_xyz
x,y,z
-x,y,1/2-z
-x,-y,-z
x,-y,1/2+z
1/2+x,1/2+y,z
1/2-x,1/2+y,1/2-z
1/2-x,1/2-y,-z
1/2+x,1/2-y,1/2+z
loop_
_atom_site_type_symbol
_atom_site_label
_atom_site_fract_x
_atom_site_fract_y
_atom_site_fract_z
Si Si1 0.322193 0.341957 0.334844
Si Si2 0.746903 0.396178 0.827983
Si Si3 0.337245 0.645898 0.373707
Si Si4 0.153850 0.959486 0.400173
Si Si5 0.000000 0.716623 0.750000
Si Si6 0.009451 0.286158 0.552453
O O1 0.308533 0.403925 0.244706
O O2 0.162050 0.301392 0.486984
O O3 0.657360 0.376466 0.043550
O O4 0.433911 0.284089 0.172836
O O5 0.658939 0.375982 0.778745
O O6 0.773660 0.477981 0.800813
O O7 0.898138 0.350683 0.679746
O O8 0.500000 0.689956 0.250000
O O9 0.352501 0.582311 0.458617
O O10 0.175732 0.682738 0.550743
O O11 0.000000 0.000000 0.500000
O O12 0.954959 0.720080 0.632508
#
# Coordination Sequence:
#
# PCOD9286862 Si02
#       6
#     8   8   8   8   4   8
#     4  12  29  52  83 118 162 209 268 332 400 476
#     4  12  27  45  79 116 163 203 265 331 400 473
#     4  10  21  44  71 113 146 198 260 315 383 460
#     4  12  25  50  79 115 159 208 268 322 392 477
#     4  10  22  46  76 104 154 196 268 308 394 462
#     4  12  28  51  81 118 162 212 266 334 404 475
#
# _framework density 25.271682999999999
#
# number of rings (size 3 to 8) (size 9 to 14) (size 15 to 20)
#    0.545    0.000    3.636    3.273    5.091    3.636 
#    0.000    1.818    0.000    0.000    0.000    0.000 
#    0.000    0.000    0.000    0.000    0.000    0.000 
#
# Total GULP energy -123235.635393 kJ/mol
# GULP energy per Si atom -5601.619791 kJ/mol
# Density = 2.521416 g / cm^3
# Si number density = 25.271683 Si / 1000 Ang^3
#
#
#
# Elastic Constant Matrix: (Units=GPa)
#
#
# Indices 1 2 3 4 5 6 
#
# 1 204.5714 67.9990 71.1294 0.0000 39.8800 0.0000
# 2 67.9990 204.9589 84.9195 0.0000 8.1088 0.0000
# 3 71.1294 84.9195 115.2052 -0.0001 25.9339 0.0001
# 4 0.0000 0.0000 -0.0001 47.9147 0.0000 10.5026
# 5 39.8800 8.1088 25.9339 0.0000 66.4854 0.0000
# 6 0.0000 0.0000 0.0001 10.5026 0.0000 50.8436
#
#
#
# Elastic Compliance Matrix: (Units=1/GPa)
#
#
# Indices 1 2 3 4 5 6 
#
# 1 0.006737 -0.000955 -0.002819 0.000000 -0.002825 0.000000
# 2 -0.000955 0.007260 -0.005143 0.000000 0.001694 0.000000
# 3 -0.002819 -0.005143 0.015008 0.000000 -0.003536 0.000000
# 4 0.000000 0.000000 0.000000 0.021860 0.000000 -0.004516
# 5 -0.002825 0.001694 -0.003536 0.000000 0.017908 0.000000
# 6 0.000000 0.000000 0.000000 -0.004516 0.000000 0.020601
#
#
# Mechanical properties :
#
#
# Convention : Reuss Voigt Hill
#
# Bulk Modulus (GPa) = 89.53049 108.09236 98.81143
# Shear Modulus (GPa) = 45.07318 53.09457 49.08388
#
# Velocity S-wave (km/s) = 4.22779 4.58859 4.41188
# Velocity P-wave (km/s) = 7.70301 8.42250 8.07077
#
# Compressibility (1/GPa) = 0.01116938
#
# Stress axis : x y z
#
# Youngs Moduli (GPa) = 148.44023 137.74744 66.63271
#
# Poissons Ratio (x) = 0.13156 0.18787
# Poissons Ratio (y) = 0.14178 0.34267
# Poissons Ratio (z) = 0.41852 0.70840
#
# Static dielectric constant tensor:
#      x y z
#    x 2.006620 0.000000 -0.063810 
#    y 0.000000 2.014190 0.000000 
#    z -0.063810 0.000000 2.018780 
# 
# From -- ./inp_files/156120.got.cif
#   From: 2010.05.17/outbox.cif.g08.bks.cpg/sg15_79_cif.got.tgz:156120.got - 2010.06.03 18:47:42.
