data_PCOD9286975
_publ_section_title
;
Structure prediction by ZEFSAII (Michael W. Deem and Ramdas Pophale) SiO2 
 PCOD9286975
Probable space group: C 2/C
;
_chemical_formula_sum "Si O2"
_cell_formula_units_Z 36
_cell_length_a 7.261138
_cell_length_b 14.026326
_cell_length_c 16.775248
_cell_angle_alpha 90.000000
_cell_angle_beta 71.430687
_cell_angle_gamma 90.000000
_cell_volume 1619.563603
_symmetry_space_group_name_H-M "C 2/C"
_symmetry_group_IT_number 15
_symmetry_cell_setting 'monoclinic'
loop_
_space_group_symop_operation_xyz
x,y,z
-x,y,1/2-z
-x,-y,-z
x,-y,1/2+z
1/2+x,1/2+y,z
1/2-x,1/2+y,1/2-z
1/2-x,1/2-y,-z
1/2+x,1/2-y,1/2+z
loop_
_atom_site_type_symbol
_atom_site_label
_atom_site_fract_x
_atom_site_fract_y
_atom_site_fract_z
Si Si1 0.448354 0.879662 0.424338
Si Si2 0.638056 0.591821 0.298731
Si Si3 0.616291 0.304528 0.955368
Si Si4 0.000000 0.536152 0.750000
Si Si5 0.672683 0.523747 0.557707
O O1 0.452373 0.769934 0.451010
O O2 0.423514 0.901008 0.334288
O O3 0.299079 0.942718 0.495780
O O4 0.664285 0.917956 0.415938
O O5 0.500000 0.637063 0.250000
O O6 0.708007 0.663472 0.358423
O O7 0.488566 0.519756 0.362724
O O8 0.824900 0.532685 0.245097
O O9 0.750000 0.250000 0.000000
O O10 0.578208 0.402476 0.007973
#
# Coordination Sequence:
#
# PCOD9286975 Si02
#       5
#     8   8   8   4   8
#     4  10  22  41  70  99 134 179 236 288 353 427
#     4  12  25  44  69 101 137 184 232 292 366 420
#     4  10  23  42  69 102 135 185 240 287 351 436
#     4  12  24  44  66  96 142 180 226 304 362 424
#     4  10  21  45  69  95 134 186 231 284 358 427
#
# _framework density 22.228211999999999
#
# number of rings (size 3 to 8) (size 9 to 14) (size 15 to 20)
#    0.000    1.333    4.444    0.667    1.556    0.889 
#    0.000    4.444    0.000    0.000    0.000    0.000 
#    0.000    0.000    0.000    0.000    0.000    0.000 
#
# Total GULP energy -100474.175123 kJ/mol
# GULP energy per Si atom -5581.898618 kJ/mol
# Density = 2.217762 g / cm^3
# Si number density = 22.228212 Si / 1000 Ang^3
#
#
#
# Elastic Constant Matrix: (Units=GPa)
#
#
# Indices 1 2 3 4 5 6 
#
# 1 90.5907 4.4108 15.1706 0.0000 3.2502 0.0000
# 2 4.4108 107.0403 19.1219 0.0000 -0.7318 0.0000
# 3 15.1706 19.1219 67.0169 0.0000 13.3577 0.0000
# 4 0.0000 0.0000 0.0000 31.9838 0.0000 27.3670
# 5 3.2502 -0.7318 13.3577 0.0000 46.9304 0.0000
# 6 0.0000 0.0000 0.0000 27.3670 0.0000 21.6955
#
#
#
# Elastic Compliance Matrix: (Units=1/GPa)
#
#
# Indices 1 2 3 4 5 6 
#
# 1 0.011474 -0.000012 -0.002582 0.000000 -0.000060 0.000000
# 2 -0.000012 0.009889 -0.003021 0.000000 0.001015 0.000000
# 3 -0.002582 -0.003021 0.017325 0.000000 -0.004799 0.000000
# 4 0.000000 0.000000 0.000000 -0.394127 0.000000 0.497156
# 5 -0.000060 0.001015 -0.004799 0.000000 0.022694 0.000000
# 6 0.000000 0.000000 0.000000 0.497156 0.000000 -0.581025
#
#
# Mechanical properties :
#
#
# Convention : Reuss Voigt Hill
#
# Bulk Modulus (GPa) = 36.42002 38.00609 37.21306
# Shear Modulus (GPa) = -5.59668 35.18492 14.79412
#
# Velocity S-wave (km/s) = -1.58849 3.98288 2.58264
# Velocity P-wave (km/s) = 3.61328 6.18759 5.06666
#
# Compressibility (1/GPa) = 0.02745742
#
# Stress axis : x y z
#
# Youngs Moduli (GPa) = 87.15530 101.11787 57.72079
#
# Poissons Ratio (x) = 0.00121 0.14903
# Poissons Ratio (y) = 0.00104 0.17440
# Poissons Ratio (z) = 0.22503 0.30551
#
# Static dielectric constant tensor:
#      x y z
#    x 1.754080 0.000000 0.076120 
#    y 0.000000 1.858770 0.000000 
#    z 0.076120 0.000000 1.811920 
# 
# From -- ./inp_files/187728.got.cif
#   From: 2010.05.17/outbox.cif.g08.bks.cpg/sg15_94_cif.got.tgz:187728.got - 2010.06.03 18:47:42.
