data_PCOD9286235
_publ_section_title
;
Structure prediction by ZEFSAII (Michael W. Deem and Ramdas Pophale) SiO2 
 PCOD9286235
Probable space group: C 2/C
;
_chemical_formula_sum "Si O2"
_cell_formula_units_Z 52
_cell_length_a 26.202375
_cell_length_b 8.238006
_cell_length_c 10.182176
_cell_angle_alpha 90.000000
_cell_angle_beta 112.157950
_cell_angle_gamma 90.000000
_cell_volume 2035.558482
_symmetry_space_group_name_H-M "C 2/C"
_symmetry_group_IT_number 15
_symmetry_cell_setting 'monoclinic'
loop_
_space_group_symop_operation_xyz
x,y,z
-x,y,1/2-z
-x,-y,-z
x,-y,1/2+z
1/2+x,1/2+y,z
1/2-x,1/2+y,1/2-z
1/2-x,1/2-y,-z
1/2+x,1/2-y,1/2+z
loop_
_atom_site_type_symbol
_atom_site_label
_atom_site_fract_x
_atom_site_fract_y
_atom_site_fract_z
Si Si1 0.681860 0.190709 0.806871
Si Si2 0.925246 0.326011 0.930402
Si Si3 0.231371 0.004465 0.745565
Si Si4 0.835488 0.201286 0.656414
Si Si5 0.632608 0.393600 0.962239
Si Si6 0.600432 0.831269 0.001485
Si Si7 0.000000 0.279366 0.750000
O O1 0.716650 0.035198 0.796412
O O2 0.724509 0.333087 0.808457
O O3 0.661982 0.232399 0.932429
O O4 0.625485 0.202163 0.667943
O O5 0.924082 0.169165 0.026454
O O6 0.924671 0.488872 0.014656
O O7 0.034569 0.654771 0.155979
O O8 0.867401 0.292218 0.802874
O O9 0.223344 0.140050 0.851694
O O10 0.176165 0.025671 0.604269
O O11 0.847061 0.312214 0.542269
O O12 0.866783 0.028497 0.652547
O O13 0.552646 0.720591 0.889956
#
# Coordination Sequence:
#
# PCOD9286235 Si02
#       7
#     8   8   8   8   8   8   4
#     4  11  24  38  65  97 138 177 224 264 327 388
#     4  10  23  41  72  93 128 169 221 273 335 391
#     4  10  22  40  61  98 138 182 217 269 314 392
#     4   9  21  42  64  93 136 173 217 271 317 386
#     4  10  21  43  64  94 140 178 214 269 327 394
#     4  11  23  43  68  95 129 174 221 278 331 386
#     4  10  24  48  68 100 128 162 226 290 328 392
#
# _framework density 25.545814
#
# number of rings (size 3 to 8) (size 9 to 14) (size 15 to 20)
#    0.000    1.846    1.538    0.923    8.615    0.615 
#    0.000    3.077    0.000    0.923    0.000    0.000 
#    0.000    0.000    0.000    0.000    0.000    0.000 
#
# Total GULP energy -144778.672250 kJ/mol
# GULP energy per Si atom -5568.410471 kJ/mol
# Density = 2.548767 g / cm^3
# Si number density = 25.545814 Si / 1000 Ang^3
#
#
#
# Elastic Constant Matrix: (Units=GPa)
#
#
# Indices 1 2 3 4 5 6 
#
# 1 118.9261 44.5149 6.6319 0.0000 -17.5813 0.0000
# 2 44.5149 67.9462 -1.4083 0.0000 -9.7407 0.0000
# 3 6.6319 -1.4083 70.8781 0.0000 4.7904 0.0000
# 4 0.0000 0.0000 0.0000 25.2187 0.0000 -8.5986
# 5 -17.5813 -9.7407 4.7904 0.0000 53.7737 0.0000
# 6 0.0000 0.0000 0.0000 -8.5986 0.0000 20.8577
#
#
#
# Elastic Compliance Matrix: (Units=1/GPa)
#
#
# Indices 1 2 3 4 5 6 
#
# 1 0.011583 -0.007245 -0.001403 0.000000 0.002600 0.000000
# 2 -0.007245 0.019643 0.000994 0.000000 0.001101 0.000000
# 3 -0.001403 0.000994 0.014365 0.000000 -0.001559 0.000000
# 4 0.000000 0.000000 0.000000 0.046138 0.000000 0.019020
# 5 0.002600 0.001101 -0.001559 0.000000 0.019785 0.000000
# 6 0.000000 0.000000 0.000000 0.019020 0.000000 0.055785
#
#
# Mechanical properties :
#
#
# Convention : Reuss Voigt Hill
#
# Bulk Modulus (GPa) = 33.02368 39.69194 36.35781
# Shear Modulus (GPa) = 25.94684 33.83750 29.89217
#
# Velocity S-wave (km/s) = 3.19046 3.64343 3.42444
# Velocity P-wave (km/s) = 5.15047 5.76808 5.46800
#
# Compressibility (1/GPa) = 0.03028130
#
# Stress axis : x y z
#
# Youngs Moduli (GPa) = 86.33314 50.90998 69.61302
#
# Poissons Ratio (x) = 0.36884 0.09770
# Poissons Ratio (y) = 0.62549 -0.06918
# Poissons Ratio (z) = 0.12117 -0.05059
#
# Static dielectric constant tensor:
#      x y z
#    x 2.047880 0.000000 -0.073280 
#    y 0.000000 2.123310 0.000000 
#    z -0.073280 0.000000 2.126650 
# 
# From -- ./inp_files/125662.got.cif
#   From: 2010.05.17/outbox.cif.g08.bks.cpg/sg15_63_cif.got.tgz:125662.got - 2010.06.03 18:47:42.
