data_PCOD9286560
_publ_section_title
;
Structure prediction by ZEFSAII (Michael W. Deem and Ramdas Pophale) SiO2 
 PCOD9286560
Probable space group: C 2/C
;
_chemical_formula_sum "Si O2"
_cell_formula_units_Z 60
_cell_length_a 8.710557
_cell_length_b 30.962662
_cell_length_c 11.958345
_cell_angle_alpha 90.000000
_cell_angle_beta 113.543387
_cell_angle_gamma 90.000000
_cell_volume 2956.718236
_symmetry_space_group_name_H-M "C 2/C"
_symmetry_group_IT_number 15
_symmetry_cell_setting 'monoclinic'
loop_
_space_group_symop_operation_xyz
x,y,z
-x,y,1/2-z
-x,-y,-z
x,-y,1/2+z
1/2+x,1/2+y,z
1/2-x,1/2+y,1/2-z
1/2-x,1/2-y,-z
1/2+x,1/2-y,1/2+z
loop_
_atom_site_type_symbol
_atom_site_label
_atom_site_fract_x
_atom_site_fract_y
_atom_site_fract_z
Si Si1 0.844356 0.121303 0.523585
Si Si2 0.386983 0.221955 0.605148
Si Si3 0.796693 0.154845 0.797941
Si Si4 0.000000 0.587439 0.750000
Si Si5 0.046734 0.040926 0.090339
Si Si6 0.703169 0.204386 0.546456
Si Si7 0.415069 0.058311 0.954997
Si Si8 0.231144 0.467525 0.639436
O O1 0.884230 0.084406 0.445239
O O2 0.747676 0.166268 0.471192
O O3 0.717976 0.096071 0.568533
O O4 0.023827 0.134303 0.625931
O O5 0.500000 0.236448 0.750000
O O6 0.250000 0.250000 0.500000
O O7 0.270012 0.185147 0.622600
O O8 0.518661 0.208016 0.547040
O O9 0.657748 0.117421 0.768427
O O10 0.795744 0.185199 0.686066
O O11 0.985390 0.560036 0.633317
O O12 0.187868 0.024860 0.217176
O O13 0.878080 0.052871 0.108365
O O14 0.000000 0.000000 0.000000
O O15 0.750000 0.250000 0.500000
O O16 0.316507 0.013511 0.927948
O O17 0.560026 0.059281 0.089781
#
# Coordination Sequence:
#
# PCOD9286560 Si02
#       8
#     8   8   8   4   8   8   8   8
#     4  12  24  40  73 102 139 188 248 295 363 430
#     4  10  21  43  72 100 138 180 229 297 372 429
#     4  11  22  41  69 100 138 180 234 306 347 429
#     4  12  22  38  68  98 138 184 242 282 362 410
#     4  11  24  43  70 100 139 190 238 294 359 427
#     4  11  23  41  69 105 140 181 240 307 363 424
#     4  11  24  40  68 105 138 190 232 296 356 426
#     4  10  25  44  64  99 151 181 235 293 360 428
#
# _framework density 20.292770000000001
#
# number of rings (size 3 to 8) (size 9 to 14) (size 15 to 20)
#    0.000    1.067    4.667    2.000    3.733    1.600 
#    0.000    0.000   55.733    0.000    0.000    0.000 
#    0.000    0.000    0.000    0.000    0.000    0.000 
#
# Total GULP energy -167014.736439 kJ/mol
# GULP energy per Si atom -5567.157881 kJ/mol
# Density = 2.024658 g / cm^3
# Si number density = 20.292770 Si / 1000 Ang^3
#
#
#
# Elastic Constant Matrix: (Units=GPa)
#
#
# Indices 1 2 3 4 5 6 
#
# 1 139.4625 55.2649 61.4038 0.0000 15.3363 0.0000
# 2 55.2649 96.7866 22.5952 0.0000 -8.8622 0.0000
# 3 61.4038 22.5952 77.2395 0.0000 10.6027 0.0000
# 4 0.0000 0.0000 0.0000 25.5953 0.0000 -0.4434
# 5 15.3363 -8.8622 10.6027 0.0000 38.9552 0.0000
# 6 0.0000 0.0000 0.0000 -0.4434 0.0000 52.3846
#
#
#
# Elastic Compliance Matrix: (Units=1/GPa)
#
#
# Indices 1 2 3 4 5 6 
#
# 1 0.014025 -0.006416 -0.008637 0.000000 -0.004630 0.000000
# 2 -0.006416 0.014514 0.000056 0.000000 0.005812 0.000000
# 3 -0.008637 0.000056 0.020078 0.000000 -0.002052 0.000000
# 4 0.000000 0.000000 0.000000 0.039075 0.000000 0.000331
# 5 -0.004630 0.005812 -0.002052 0.000000 0.029374 0.000000
# 6 0.000000 0.000000 0.000000 0.000331 0.000000 0.019092
#
#
# Mechanical properties :
#
#
# Convention : Reuss Voigt Hill
#
# Bulk Modulus (GPa) = 53.69173 65.77961 59.73567
# Shear Modulus (GPa) = 29.00921 35.00202 32.00561
#
# Velocity S-wave (km/s) = 3.78502 4.15764 3.97570
# Velocity P-wave (km/s) = 6.75410 7.45209 7.11166
#
# Compressibility (1/GPa) = 0.01862484
#
# Stress axis : x y z
#
# Youngs Moduli (GPa) = 71.30333 68.89739 49.80583
#
# Poissons Ratio (x) = 0.44202 0.43017
# Poissons Ratio (y) = 0.45746 -0.00281
# Poissons Ratio (z) = 0.61584 -0.00389
#
# Static dielectric constant tensor:
#      x y z
#    x 1.729160 0.000000 -0.108670 
#    y 0.000000 1.654060 0.000000 
#    z -0.108670 0.000000 1.030850 
# 
# From -- ./inp_files/82652.got.cif
#   From: 2010.05.17/outbox.cif.g08.bks.cpg/sg15_42_cif.got.tgz:82652.got - 2010.06.03 18:47:42.
