data_PCOD9286400
_publ_section_title
;
Structure prediction by ZEFSAII (Michael W. Deem and Ramdas Pophale) SiO2 
 PCOD9286400
Probable space group: C 2/C
;
_chemical_formula_sum "Si O2"
_cell_formula_units_Z 40
_cell_length_a 26.770402
_cell_length_b 14.680993
_cell_length_c 14.897258
_cell_angle_alpha 90.000000
_cell_angle_beta 17.041367
_cell_angle_gamma 90.000000
_cell_volume 1715.837987
_symmetry_space_group_name_H-M "C 2/C"
_symmetry_group_IT_number 15
_symmetry_cell_setting 'monoclinic'
loop_
_space_group_symop_operation_xyz
x,y,z
-x,y,1/2-z
-x,-y,-z
x,-y,1/2+z
1/2+x,1/2+y,z
1/2-x,1/2+y,1/2-z
1/2-x,1/2-y,-z
1/2+x,1/2-y,1/2+z
loop_
_atom_site_type_symbol
_atom_site_label
_atom_site_fract_x
_atom_site_fract_y
_atom_site_fract_z
Si Si1 0.333838 0.651272 0.170467
Si Si2 0.165718 0.551393 0.627822
Si Si3 0.688512 0.170246 0.888595
Si Si4 0.790639 0.510476 0.259022
Si Si5 0.115955 0.094182 0.796241
O O1 0.233517 0.616969 0.432590
O O2 0.272754 0.749765 0.247442
O O3 0.314796 0.581972 0.119514
O O4 0.530675 0.649178 0.862902
O O5 0.262060 0.541804 0.558340
O O6 0.199039 0.448751 0.536000
O O7 0.965209 0.563118 0.984136
O O8 0.848387 0.159476 0.681921
O O9 0.676152 0.071655 0.865436
O O10 0.500000 0.193878 0.250000
O O11 0.000000 0.000000 0.000000
#
# Coordination Sequence:
#
# PCOD9286400 Si02
#       5
#     8   8   8   8   8
#     4  11  25  42  69 106 144 175 236 301 338 419
#     4  10  22  42  71  96 138 188 236 276 354 417
#     4  12  24  43  72 101 140 190 232 281 361 417
#     4  11  22  44  72  96 139 197 223 289 353 414
#     4  10  21  43  68 100 136 177 232 286 337 419
#
# _framework density 23.312224000000001
#
# number of rings (size 3 to 8) (size 9 to 14) (size 15 to 20)
#    0.000    1.200    6.000    0.600    2.800    4.800 
#    0.000    6.000    0.000    0.000    0.000    0.000 
#    0.000    0.000    0.000    0.000    0.000    0.000 
#
# Total GULP energy -111400.359885 kJ/mol
# GULP energy per Si atom -5570.017994 kJ/mol
# Density = 2.325916 g / cm^3
# Si number density = 23.312224 Si / 1000 Ang^3
#
#
#
# Elastic Constant Matrix: (Units=GPa)
#
#
# Indices 1 2 3 4 5 6 
#
# 1 111.3361 -3.2801 18.4804 0.0008 -20.3666 -0.0002
# 2 -3.2801 41.4228 -0.9898 0.0018 -19.1658 -0.0004
# 3 18.4804 -0.9898 49.1175 0.0017 0.5347 -0.0001
# 4 0.0008 0.0018 0.0017 10.2790 -0.0006 -0.4086
# 5 -20.3666 -19.1658 0.5347 -0.0006 40.7186 0.0001
# 6 -0.0002 -0.0004 -0.0001 -0.4086 0.0001 60.0130
#
#
#
# Elastic Compliance Matrix: (Units=1/GPa)
#
#
# Indices 1 2 3 4 5 6 
#
# 1 0.011223 0.004360 -0.004219 0.000000 0.007721 0.000000
# 2 0.004360 0.032567 -0.001175 -0.000005 0.017525 0.000000
# 3 -0.004219 -0.001175 0.021955 -0.000003 -0.002952 0.000000
# 4 0.000000 -0.000005 -0.000003 0.097312 -0.000001 0.000663
# 5 0.007721 0.017525 -0.002952 -0.000001 0.036709 0.000000
# 6 0.000000 0.000000 0.000000 0.000663 0.000000 0.016668
#
#
# Mechanical properties :
#
#
# Convention : Reuss Voigt Hill
#
# Bulk Modulus (GPa) = 15.70391 25.58861 20.64626
# Shear Modulus (GPa) = 20.85706 34.71316 27.78511
#
# Velocity S-wave (km/s) = 2.99437 3.86301 3.45609
# Velocity P-wave (km/s) = 4.32504 5.55855 4.98013
#
# Compressibility (1/GPa) = 0.06367841
#
# Stress axis : x y z
#
# Youngs Moduli (GPa) = 89.10273 30.70568 45.54749
#
# Poissons Ratio (x) = -0.13389 0.19216
# Poissons Ratio (y) = -0.38853 0.05352
# Poissons Ratio (z) = 0.37591 0.03608
#
# Static dielectric constant tensor:
#      x y z
#    x 2.016690 0.000000 0.058620 
#    y 0.000000 1.834390 0.000000 
#    z 0.058620 0.000000 2.032590 
# 
# From -- ./inp_files/178291.got.cif
#   From: 2010.05.17/outbox.cif.g08.bks.cpg/sg15_90_cif.got.tgz:178291.got - 2010.06.03 18:47:42.
