data_PCOD9286064
_publ_section_title
;
Structure prediction by ZEFSAII (Michael W. Deem and Ramdas Pophale) SiO2 
 PCOD9286064
Probable space group: C 2/C
;
_chemical_formula_sum "Si O2"
_cell_formula_units_Z 32
_cell_length_a 8.915492
_cell_length_b 15.960170
_cell_length_c 10.192124
_cell_angle_alpha 90.000000
_cell_angle_beta 63.680049
_cell_angle_gamma 90.000000
_cell_volume 1299.919544
_symmetry_space_group_name_H-M "C 2/C"
_symmetry_group_IT_number 15
_symmetry_cell_setting 'monoclinic'
loop_
_space_group_symop_operation_xyz
x,y,z
-x,y,1/2-z
-x,-y,-z
x,-y,1/2+z
1/2+x,1/2+y,z
1/2-x,1/2+y,1/2-z
1/2-x,1/2-y,-z
1/2+x,1/2-y,1/2+z
loop_
_atom_site_type_symbol
_atom_site_label
_atom_site_fract_x
_atom_site_fract_y
_atom_site_fract_z
Si Si1 0.020286 0.280805 0.441066
Si Si2 0.000000 0.423579 0.250000
Si Si3 0.322790 0.460538 0.617887
Si Si4 0.500000 0.357177 0.750000
Si Si5 0.865230 0.828392 0.383782
O O1 0.964770 0.365618 0.392154
O O2 0.028609 0.245300 0.585558
O O3 0.221831 0.291038 0.348344
O O4 0.942697 0.205364 0.386974
O O5 0.167378 0.478402 0.197323
O O6 0.500000 0.500000 0.500000
O O7 0.359274 0.413921 0.740360
O O8 0.285501 0.389179 0.523125
O O9 0.000000 0.879807 0.250000
#
# Coordination Sequence:
#
# PCOD9286064 Si02
#       5
#     8   4   8   4   8
#     4   9  21  43  68  99 129 184 232 284 335 408
#     4  11  24  44  72 105 138 176 240 287 342 412
#     4  11  25  42  70 102 141 184 221 296 350 408
#     4   9  22  46  64  95 138 178 232 277 352 404
#     4  10  21  42  70  99 137 179 231 282 349 416
#
# _framework density 24.616906
#
# number of rings (size 3 to 8) (size 9 to 14) (size 15 to 20)
#    0.000    2.000    0.000    1.500    5.250    3.000 
#   20.250    7.500    0.000    0.000    0.000    0.000 
#    0.000    0.000    0.000    0.000    0.000    0.000 
#
# Total GULP energy -89263.156102 kJ/mol
# GULP energy per Si atom -5578.947256 kJ/mol
# Density = 2.456088 g / cm^3
# Si number density = 24.616906 Si / 1000 Ang^3
#
#
#
# Elastic Constant Matrix: (Units=GPa)
#
#
# Indices 1 2 3 4 5 6 
#
# 1 124.8928 84.8986 46.6287 0.0000 6.0059 0.0000
# 2 84.8986 151.1752 35.5438 0.0000 -3.1637 0.0000
# 3 46.6287 35.5438 41.1715 0.0000 -10.1882 0.0000
# 4 0.0000 0.0000 0.0000 15.9386 0.0000 16.1622
# 5 6.0059 -3.1637 -10.1882 0.0000 31.3019 0.0000
# 6 0.0000 0.0000 0.0000 16.1622 0.0000 62.6792
#
#
#
# Elastic Compliance Matrix: (Units=1/GPa)
#
#
# Indices 1 2 3 4 5 6 
#
# 1 0.021203 -0.007319 -0.020539 0.000000 -0.011493 0.000000
# 2 -0.007319 0.010902 -0.000547 0.000000 0.002328 0.000000
# 3 -0.020539 -0.000547 0.053275 0.000000 0.021225 0.000000
# 4 0.000000 0.000000 0.000000 0.084954 0.000000 -0.021906
# 5 -0.011493 0.002328 0.021225 0.000000 0.041296 0.000000
# 6 0.000000 0.000000 0.000000 -0.021906 0.000000 0.021603
#
#
# Mechanical properties :
#
#
# Convention : Reuss Voigt Hill
#
# Bulk Modulus (GPa) = 35.00146 72.37576 53.68861
# Shear Modulus (GPa) = 16.69082 31.99515 24.34299
#
# Velocity S-wave (km/s) = 2.60671 3.60908 3.14805
# Velocity P-wave (km/s) = 4.82797 6.84338 5.92204
#
# Compressibility (1/GPa) = 0.02857024
#
# Stress axis : x y z
#
# Youngs Moduli (GPa) = 47.16351 91.72313 18.77068
#
# Poissons Ratio (x) = 0.67130 0.38553
# Poissons Ratio (y) = 0.34518 0.01027
# Poissons Ratio (z) = 0.96868 0.05018
#
# Static dielectric constant tensor:
#      x y z
#    x 1.934980 0.000000 0.018430 
#    y 0.000000 2.011790 0.000000 
#    z 0.018430 0.000000 1.959630 
# 
# From -- ./inp_files/76269.got.cif
#   From: 2010.05.17/outbox.cif.g08.bks.cpg/sg15_39_cif.got.tgz:76269.got - 2010.06.03 18:47:42.
