data_PCOD9286047
_publ_section_title
;
Structure prediction by ZEFSAII (Michael W. Deem and Ramdas Pophale) SiO2 
 PCOD9286047
Probable space group: C 2/C
;
_chemical_formula_sum "Si O2"
_cell_formula_units_Z 48
_cell_length_a 26.908827
_cell_length_b 8.066005
_cell_length_c 14.821589
_cell_angle_alpha 90.000000
_cell_angle_beta 138.890871
_cell_angle_gamma 90.000000
_cell_volume 2115.147580
_symmetry_space_group_name_H-M "C 2/C"
_symmetry_group_IT_number 15
_symmetry_cell_setting 'monoclinic'
loop_
_space_group_symop_operation_xyz
x,y,z
-x,y,1/2-z
-x,-y,-z
x,-y,1/2+z
1/2+x,1/2+y,z
1/2-x,1/2+y,1/2-z
1/2-x,1/2-y,-z
1/2+x,1/2-y,1/2+z
loop_
_atom_site_type_symbol
_atom_site_label
_atom_site_fract_x
_atom_site_fract_y
_atom_site_fract_z
Si Si1 0.593479 0.340648 0.145173
Si Si2 0.672440 0.317436 0.940827
Si Si3 0.289357 0.814220 0.812702
Si Si4 0.863306 0.668431 0.923661
Si Si5 0.443217 0.274828 0.864600
Si Si6 0.081212 0.150832 0.828667
O O1 0.674025 0.277956 0.222825
O O2 0.582060 0.537967 0.140776
O O3 0.573600 0.275473 0.217963
O O4 0.533412 0.280822 0.987744
O O5 0.603371 0.236765 0.789185
O O6 0.647146 0.511773 0.908589
O O7 0.750000 0.250000 0.000000
O O8 0.682570 0.272498 0.058144
O O9 0.199671 0.807216 0.683092
O O10 0.318122 0.999321 0.859947
O O11 0.919259 0.663196 0.915801
O O12 0.899235 0.716503 0.067938
O O13 0.000000 0.075422 0.750000
#
# Coordination Sequence:
#
# PCOD9286047 Si02
#       6
#     8   8   8   8   8   8
#     4  10  23  43  71  99 132 179 232 277 351 410
#     4  11  24  42  69 102 137 180 230 281 338 411
#     4  12  27  43  68 101 135 185 227 292 344 411
#     4  12  25  45  69  96 141 176 235 284 346 412
#     4  10  21  42  70  96 132 177 224 284 337 420
#     4  11  24  46  75 103 138 185 228 281 347 420
#
# _framework density 22.693452000000001
#
# number of rings (size 3 to 8) (size 9 to 14) (size 15 to 20)
#    0.000    1.000    3.333    3.000    7.000    2.667 
#    3.000    0.000    0.000    0.000    0.000    0.000 
#    0.000    0.000    0.000    0.000    0.000    0.000 
#
# Total GULP energy -134063.104398 kJ/mol
# GULP energy per Si atom -5585.962683 kJ/mol
# Density = 2.264180 g / cm^3
# Si number density = 22.693452 Si / 1000 Ang^3
#
#
#
# Elastic Constant Matrix: (Units=GPa)
#
#
# Indices 1 2 3 4 5 6 
#
# 1 94.3704 -12.3565 10.2163 0.0000 -4.6237 0.0000
# 2 -12.3565 35.2888 -15.7241 0.0000 4.3245 0.0000
# 3 10.2163 -15.7241 83.7453 0.0000 -20.2169 0.0000
# 4 0.0000 0.0000 0.0000 17.1620 0.0000 4.8616
# 5 -4.6237 4.3245 -20.2169 0.0000 42.2044 0.0000
# 6 0.0000 0.0000 0.0000 4.8616 0.0000 21.3971
#
#
#
# Elastic Compliance Matrix: (Units=1/GPa)
#
#
# Indices 1 2 3 4 5 6 
#
# 1 0.011155 0.003591 -0.000543 0.000000 0.000594 0.000000
# 2 0.003591 0.032088 0.005527 0.000000 -0.000247 0.000000
# 3 -0.000543 0.005527 0.014580 0.000000 0.006358 0.000000
# 4 0.000000 0.000000 0.000000 0.062277 0.000000 -0.014150
# 5 0.000594 -0.000247 0.006358 0.000000 0.026830 0.000000
# 6 0.000000 0.000000 0.000000 -0.014150 0.000000 0.049950
#
#
# Mechanical properties :
#
#
# Convention : Reuss Voigt Hill
#
# Bulk Modulus (GPa) = 13.33815 19.74176 16.53996
# Shear Modulus (GPa) = 24.42349 31.57061 27.99705
#
# Velocity S-wave (km/s) = 3.28416 3.73389 3.51623
# Velocity P-wave (km/s) = 4.50236 5.22566 4.87744
#
# Compressibility (1/GPa) = 0.07497292
#
# Stress axis : x y z
#
# Youngs Moduli (GPa) = 89.64880 31.16421 68.58718
#
# Poissons Ratio (x) = -0.11191 0.03725
# Poissons Ratio (y) = -0.32193 -0.37910
# Poissons Ratio (z) = 0.04869 -0.17225
#
# Static dielectric constant tensor:
#      x y z
#    x 1.812270 0.000000 0.004620 
#    y 0.000000 1.883690 0.000000 
#    z 0.004620 0.000000 1.847870 
# 
# From -- ./inp_files/176972.got.cif
#   From: 2010.05.17/outbox.cif.g08.bks.cpg/sg15_89_cif.got.tgz:176972.got - 2010.06.03 18:47:42.
