data_PCOD9286919
_publ_section_title
;
Structure prediction by ZEFSAII (Michael W. Deem and Ramdas Pophale) SiO2 
 PCOD9286919
Probable space group: C 2/C
;
_chemical_formula_sum "Si O2"
_cell_formula_units_Z 40
_cell_length_a 17.851349
_cell_length_b 21.824864
_cell_length_c 9.053726
_cell_angle_alpha 90.000000
_cell_angle_beta 28.732912
_cell_angle_gamma 90.000000
_cell_volume 1695.698724
_symmetry_space_group_name_H-M "C 2/C"
_symmetry_group_IT_number 15
_symmetry_cell_setting 'monoclinic'
loop_
_space_group_symop_operation_xyz
x,y,z
-x,y,1/2-z
-x,-y,-z
x,-y,1/2+z
1/2+x,1/2+y,z
1/2-x,1/2+y,1/2-z
1/2-x,1/2-y,-z
1/2+x,1/2-y,1/2+z
loop_
_atom_site_type_symbol
_atom_site_label
_atom_site_fract_x
_atom_site_fract_y
_atom_site_fract_z
Si Si1 0.822791 0.969676 0.497598
Si Si2 0.178792 0.436943 0.436161
Si Si3 0.000000 0.681753 0.250000
Si Si4 0.735212 0.346578 0.771692
Si Si5 0.000000 0.740764 0.750000
Si Si6 0.439760 0.293866 0.156436
O O1 0.784315 0.956050 0.393471
O O2 0.729689 0.916365 0.748324
O O3 0.000000 0.965850 0.250000
O O4 0.757679 0.035609 0.655496
O O5 0.145771 0.364396 0.493694
O O6 0.000000 0.461817 0.750000
O O7 0.998256 0.728071 0.117014
O O8 0.858525 0.306837 0.468624
O O9 0.573112 0.342650 0.965146
O O10 0.699593 0.312993 0.992098
O O11 0.061847 0.783612 0.512982
#
# Coordination Sequence:
#
# PCOD9286919 Si02
#       6
#     8   8   4   8   4   8
#     4  12  23  45  67  97 137 175 221 271 345 385
#     4  10  24  41  69  96 128 174 224 275 319 396
#     4   8  20  41  68  90 134 173 220 266 340 380
#     4  10  23  41  65  91 140 172 214 277 335 394
#     4  12  22  33  70  96 126 173 230 264 328 400
#     4  10  21  45  62  95 136 172 211 278 336 401
#
# _framework density 23.589096000000001
#
# number of rings (size 3 to 8) (size 9 to 14) (size 15 to 20)
#    0.600    1.200    2.000    3.600    1.400    3.200 
#    0.000    2.000    8.800    0.000    0.000    0.000 
#    0.000    0.000    0.000    0.000    0.000    0.000 
#
# Total GULP energy -111627.198608 kJ/mol
# GULP energy per Si atom -5581.359930 kJ/mol
# Density = 2.353541 g / cm^3
# Si number density = 23.589096 Si / 1000 Ang^3
#
#
#
# Elastic Constant Matrix: (Units=GPa)
#
#
# Indices 1 2 3 4 5 6 
#
# 1 69.8654 2.9217 3.2318 0.0026 -11.2915 -0.0039
# 2 2.9217 77.8623 11.1992 0.0075 13.5678 -0.0082
# 3 3.2318 11.1992 62.5430 -0.0014 -16.0872 -0.0075
# 4 0.0026 0.0075 -0.0014 27.7080 -0.0007 2.9488
# 5 -11.2915 13.5678 -16.0872 -0.0007 24.7784 0.0041
# 6 -0.0039 -0.0082 -0.0075 2.9488 0.0041 14.8895
#
#
#
# Elastic Compliance Matrix: (Units=1/GPa)
#
#
# Indices 1 2 3 4 5 6 
#
# 1 0.015980 -0.002719 0.002302 -0.000001 0.010265 0.000001
# 2 -0.002719 0.016399 -0.006512 -0.000006 -0.014447 0.000010
# 3 0.002302 -0.006512 0.021876 0.000003 0.018818 0.000002
# 4 -0.000001 -0.000006 0.000003 0.036868 0.000007 -0.007302
# 5 0.010265 -0.014447 0.018818 0.000007 0.065164 -0.000015
# 6 0.000001 0.000010 0.000002 -0.007302 -0.000015 0.068607
#
#
# Mechanical properties :
#
#
# Convention : Reuss Voigt Hill
#
# Bulk Modulus (GPa) = 24.75511 27.21958 25.98735
# Shear Modulus (GPa) = 19.82405 26.33636 23.08020
#
# Velocity S-wave (km/s) = 2.90209 3.34498 3.13137
# Velocity P-wave (km/s) = 4.66333 5.14612 4.91066
#
# Compressibility (1/GPa) = 0.04039569
#
# Stress axis : x y z
#
# Youngs Moduli (GPa) = 62.57991 60.97823 45.71137
#
# Poissons Ratio (x) = 0.16583 -0.10521
# Poissons Ratio (y) = 0.17018 0.29767
# Poissons Ratio (z) = -0.14404 0.39709
#
# Static dielectric constant tensor:
#      x y z
#    x 1.967680 0.000000 -0.049670 
#    y 0.000000 1.883390 0.000000 
#    z -0.049670 0.000000 1.911620 
# 
# From -- ./inp_files/51676.got.cif
#   From: 2010.05.17/outbox.cif.g08.bks.cpg/sg15_26_cif.got.tgz:51676.got - 2010.06.03 18:47:42.
