data_PCOD9286546
_publ_section_title
;
Structure prediction by ZEFSAII (Michael W. Deem and Ramdas Pophale) SiO2 
 PCOD9286546
Probable space group: C 2/C
;
_chemical_formula_sum "Si O2"
_cell_formula_units_Z 40
_cell_length_a 9.582330
_cell_length_b 21.606418
_cell_length_c 7.938945
_cell_angle_alpha 90.000000
_cell_angle_beta 94.014731
_cell_angle_gamma 90.000000
_cell_volume 1639.644353
_symmetry_space_group_name_H-M "C 2/C"
_symmetry_group_IT_number 15
_symmetry_cell_setting 'monoclinic'
loop_
_space_group_symop_operation_xyz
x,y,z
-x,y,1/2-z
-x,-y,-z
x,-y,1/2+z
1/2+x,1/2+y,z
1/2-x,1/2+y,1/2-z
1/2-x,1/2-y,-z
1/2+x,1/2-y,1/2+z
loop_
_atom_site_type_symbol
_atom_site_label
_atom_site_fract_x
_atom_site_fract_y
_atom_site_fract_z
Si Si1 0.000647 0.675432 0.548592
Si Si2 0.258950 0.089089 0.903779
Si Si3 0.911250 0.807251 0.994399
Si Si4 0.199897 0.149194 0.377298
Si Si5 0.838890 0.018916 0.278092
O O1 0.845473 0.671076 0.464732
O O2 0.000000 0.685741 0.750000
O O3 0.089490 0.613091 0.528452
O O4 0.077167 0.734607 0.474344
O O5 0.253948 0.042338 0.749082
O O6 0.169759 0.151755 0.876288
O O7 0.182943 0.049386 0.042029
O O8 0.834694 0.820993 0.808705
O O9 0.067824 0.832403 0.979494
O O10 0.202068 0.075588 0.347610
O O11 0.000000 0.003842 0.250000
#
# Coordination Sequence:
#
# PCOD9286546 Si02
#       5
#     8   8   8   8   8
#     4  12  26  42  68 107 144 178 226 285 353 411
#     4  11  26  44  70 103 136 183 236 281 348 409
#     4  10  21  45  71  98 133 186 225 286 340 413
#     4  10  21  43  71  95 141 178 222 280 355 393
#     4  11  23  46  73  97 140 182 236 289 343 411
#
# _framework density 24.395534999999999
#
# number of rings (size 3 to 8) (size 9 to 14) (size 15 to 20)
#    0.000    1.200    6.000    1.800    2.800    4.000 
#    0.000    0.000    0.000    0.000    0.000    0.000 
#    0.000    0.000    0.000    0.000    0.000    0.000 
#
# Total GULP energy -112065.191540 kJ/mol
# GULP energy per Si atom -5603.259577 kJ/mol
# Density = 2.434001 g / cm^3
# Si number density = 24.395535 Si / 1000 Ang^3
#
#
#
# Elastic Constant Matrix: (Units=GPa)
#
#
# Indices 1 2 3 4 5 6 
#
# 1 141.5343 51.3184 41.3508 0.0000 40.1715 0.0000
# 2 51.3184 130.7167 28.6072 0.0000 32.7766 0.0000
# 3 41.3508 28.6072 78.4128 0.0000 27.2869 0.0000
# 4 0.0000 0.0000 0.0000 -1.5338 0.0000 6.7200
# 5 40.1715 32.7766 27.2869 0.0000 43.2434 0.0000
# 6 0.0000 0.0000 0.0000 6.7200 0.0000 28.6214
#
#
#
# Elastic Compliance Matrix: (Units=1/GPa)
#
#
# Indices 1 2 3 4 5 6 
#
# 1 0.010345 -0.001855 -0.002465 0.000000 -0.006649 0.000000
# 2 -0.001855 0.009870 -0.000793 0.000000 -0.005258 0.000000
# 3 -0.002465 -0.000793 0.017089 0.000000 -0.007892 0.000000
# 4 0.000000 0.000000 0.000000 -0.321375 0.000000 0.075455
# 5 -0.006649 -0.005258 -0.007892 0.000000 0.038267 0.000000
# 6 0.000000 0.000000 0.000000 0.075455 0.000000 0.017223
#
#
# Mechanical properties :
#
#
# Convention : Reuss Voigt Hill
#
# Bulk Modulus (GPa) = 36.93023 65.91297 51.42160
# Shear Modulus (GPa) = -23.88582 29.35867 2.73643
#
# Velocity S-wave (km/s) = -3.13246 3.47283 1.06025
# Velocity P-wave (km/s) = 1.44495 6.56947 4.75635
#
# Compressibility (1/GPa) = 0.02707808
#
# Stress axis : x y z
#
# Youngs Moduli (GPa) = 96.66163 101.31477 58.51830
#
# Poissons Ratio (x) = 0.18792 0.14425
# Poissons Ratio (y) = 0.17929 0.04642
# Poissons Ratio (z) = 0.23828 0.08036
#
# Static dielectric constant tensor:
#      x y z
#    x 1.916860 0.000000 -0.023750 
#    y 0.000000 1.950700 0.000000 
#    z -0.023750 0.000000 2.005120 
# 
# From -- ./inp_files/23778.got.cif
#   From: 2010.05.17/outbox.cif.g08.bks.cpg/sg15_12_cif.got.tgz:23778.got - 2010.06.03 18:47:42.
