data_PCOD9286772
_publ_section_title
;
Structure prediction by ZEFSAII (Michael W. Deem and Ramdas Pophale) SiO2 
 PCOD9286772
Probable space group: C 2/C
;
_chemical_formula_sum "Si O2"
_cell_formula_units_Z 60
_cell_length_a 24.587700
_cell_length_b 8.484222
_cell_length_c 29.882189
_cell_angle_alpha 90.000000
_cell_angle_beta 155.870934
_cell_angle_gamma 90.000000
_cell_volume 2548.275065
_symmetry_space_group_name_H-M "C 2/C"
_symmetry_group_IT_number 15
_symmetry_cell_setting 'monoclinic'
loop_
_space_group_symop_operation_xyz
x,y,z
-x,y,1/2-z
-x,-y,-z
x,-y,1/2+z
1/2+x,1/2+y,z
1/2-x,1/2+y,1/2-z
1/2-x,1/2-y,-z
1/2+x,1/2-y,1/2+z
loop_
_atom_site_type_symbol
_atom_site_label
_atom_site_fract_x
_atom_site_fract_y
_atom_site_fract_z
Si Si1 0.700590 0.529482 0.218961
Si Si2 0.500000 0.127706 0.250000
Si Si3 0.908647 0.082487 0.502285
Si Si4 0.901433 0.350924 0.319193
Si Si5 0.820112 0.357200 0.158944
Si Si6 0.930827 0.728541 0.107972
Si Si7 0.802624 0.555340 0.462041
Si Si8 0.229503 0.834587 0.327851
O O1 0.560221 0.446749 0.103883
O O2 0.809936 0.499069 0.263697
O O3 0.664908 0.707396 0.204053
O O4 0.750574 0.445701 0.301585
O O5 0.398628 0.004585 0.196951
O O6 0.423944 0.235665 0.156552
O O7 0.889641 0.143601 0.539624
O O8 0.848711 0.215367 0.425719
O O9 0.822297 0.926165 0.433496
O O10 0.893857 0.311724 0.260555
O O11 0.052796 0.384326 0.446262
O O12 0.789955 0.210661 0.103093
O O13 0.853568 0.565951 0.038477
O O14 0.090760 0.740616 0.221456
O O15 0.728700 0.448102 0.370264
#
# Coordination Sequence:
#
# PCOD9286772 Si02
#       8
#     8   4   8   8   8   8   8   8
#     4  11  26  40  68 100 138 183 226 285 347 413
#     4  12  24  44  74 100 138 178 228 292 346 402
#     4  10  22  43  69  95 137 180 225 280 350 410
#     4  12  26  43  64 105 141 178 234 287 341 416
#     4  12  25  46  68  99 142 183 228 293 342 405
#     4  10  23  43  69 101 132 174 230 286 333 410
#     4  11  23  45  71  95 140 186 221 286 345 409
#     4  10  21  44  68  95 134 180 228 277 341 411
#
# _framework density 23.545339999999999
#
# number of rings (size 3 to 8) (size 9 to 14) (size 15 to 20)
#    0.000    1.067    5.333    0.000    7.467    3.200 
#    0.000    0.667    0.000    0.000    0.000    0.000 
#    0.000    0.000    0.000    0.000    0.000    0.000 
#
# Total GULP energy -167617.047532 kJ/mol
# GULP energy per Si atom -5587.234918 kJ/mol
# Density = 2.349175 g / cm^3
# Si number density = 23.545340 Si / 1000 Ang^3
#
#
#
# Elastic Constant Matrix: (Units=GPa)
#
#
# Indices 1 2 3 4 5 6 
#
# 1 46.0982 4.3743 14.4481 0.0000 -2.7696 -0.0001
# 2 4.3743 65.6319 24.3430 -0.0002 -3.6807 -0.0010
# 3 14.4481 24.3430 92.0664 -0.0017 -6.3756 0.0008
# 4 0.0000 -0.0002 -0.0017 32.8060 -0.0004 1.9553
# 5 -2.7696 -3.6807 -6.3756 -0.0004 31.4320 -0.0003
# 6 -0.0001 -0.0010 0.0008 1.9553 -0.0003 21.6291
#
#
#
# Elastic Compliance Matrix: (Units=1/GPa)
#
#
# Indices 1 2 3 4 5 6 
#
# 1 0.022869 -0.000170 -0.003454 0.000000 0.001295 0.000000
# 2 -0.000170 0.016931 -0.004375 0.000000 0.001080 0.000001
# 3 -0.003454 -0.004375 0.012682 0.000001 0.001756 -0.000001
# 4 0.000000 0.000000 0.000001 0.030647 0.000000 -0.002771
# 5 0.001295 0.001080 0.001756 0.000000 0.032411 0.000000
# 6 0.000000 0.000001 -0.000001 -0.002771 0.000000 0.046484
#
#
# Mechanical properties :
#
#
# Convention : Reuss Voigt Hill
#
# Bulk Modulus (GPa) = 27.40992 32.23635 29.82314
# Shear Modulus (GPa) = 26.28997 27.88217 27.08607
#
# Velocity S-wave (km/s) = 3.34513 3.44494 3.39540
# Velocity P-wave (km/s) = 5.15621 5.43548 5.29768
#
# Compressibility (1/GPa) = 0.03648314
#
# Stress axis : x y z
#
# Youngs Moduli (GPa) = 43.72657 59.06262 78.85058
#
# Poissons Ratio (x) = 0.01007 0.27237
# Poissons Ratio (y) = 0.00745 0.34499
# Poissons Ratio (z) = 0.15104 0.25841
#
# Static dielectric constant tensor:
#      x y z
#    x 1.915740 0.000000 -0.045800 
#    y 0.000000 1.925890 0.000000 
#    z -0.045800 0.000000 1.891800 
# 
# From -- ./inp_files/302046.got.cif
#   From: 2010.05.17/outbox.cif.g08.bks.cpg/sg15_152_cif.got.tgz:302046.got - 2010.06.03 18:47:42.
