data_PCOD9286588
_publ_section_title
;
Structure prediction by ZEFSAII (Michael W. Deem and Ramdas Pophale) SiO2 
 PCOD9286588
Probable space group: C 2/C
;
_chemical_formula_sum "Si O2"
_cell_formula_units_Z 40
_cell_length_a 8.316446
_cell_length_b 14.008995
_cell_length_c 15.907253
_cell_angle_alpha 90.000000
_cell_angle_beta 106.862872
_cell_angle_gamma 90.000000
_cell_volume 1773.587736
_symmetry_space_group_name_H-M "C 2/C"
_symmetry_group_IT_number 15
_symmetry_cell_setting 'monoclinic'
loop_
_space_group_symop_operation_xyz
x,y,z
-x,y,1/2-z
-x,-y,-z
x,-y,1/2+z
1/2+x,1/2+y,z
1/2-x,1/2+y,1/2-z
1/2-x,1/2-y,-z
1/2+x,1/2-y,1/2+z
loop_
_atom_site_type_symbol
_atom_site_label
_atom_site_fract_x
_atom_site_fract_y
_atom_site_fract_z
Si Si1 0.517290 0.073986 0.905873
Si Si2 0.420543 0.423092 0.871552
Si Si3 0.219916 0.050188 0.966765
Si Si4 0.318263 0.743205 0.105312
Si Si5 0.372351 0.885310 0.797310
O O1 0.349904 0.110196 0.929588
O O2 0.606098 0.152991 0.862275
O O3 0.462016 0.977145 0.851688
O O4 0.662556 0.041325 0.993011
O O5 0.551350 0.511564 0.897031
O O6 0.528914 0.330051 0.870833
O O7 0.285266 0.427855 0.777721
O O8 0.335407 0.411959 0.950590
O O9 0.183442 0.696030 0.146456
O O10 0.250000 0.750000 0.000000
O O11 0.500000 0.841616 0.750000
#
# Coordination Sequence:
#
# PCOD9286588 Si02
#       5
#     8   8   8   8   8
#     4  11  22  45  76 101 140 195 245 294 385 461
#     4  11  23  43  73 105 149 187 247 313 375 447
#     4  10  21  43  73 105 138 197 238 301 383 456
#     4  12  25  45  77 108 144 194 257 309 372 467
#     4  12  26  47  72 105 159 195 245 327 387 426
#
# _framework density 22.553153999999999
#
# number of rings (size 3 to 8) (size 9 to 14) (size 15 to 20)
#    0.000    0.800    6.000    1.800    0.000    2.400 
#    0.000    0.000    4.400    0.000    0.000    0.000 
#    0.000    0.000    0.000    0.000    0.000    0.000 
#
# Total GULP energy -111792.985279 kJ/mol
# GULP energy per Si atom -5589.649264 kJ/mol
# Density = 2.250182 g / cm^3
# Si number density = 22.553154 Si / 1000 Ang^3
#
#
#
# Elastic Constant Matrix: (Units=GPa)
#
#
# Indices 1 2 3 4 5 6 
#
# 1 145.7023 46.7201 55.4468 0.0000 -27.4261 0.0000
# 2 46.7201 95.5074 37.3963 0.0000 -22.9161 0.0000
# 3 55.4468 37.3963 108.7380 0.0000 2.5876 0.0000
# 4 0.0000 0.0000 0.0000 26.7787 0.0000 -4.6418
# 5 -27.4261 -22.9161 2.5876 0.0000 57.3337 0.0000
# 6 0.0000 0.0000 0.0000 -4.6418 0.0000 35.6753
#
#
#
# Elastic Compliance Matrix: (Units=1/GPa)
#
#
# Indices 1 2 3 4 5 6 
#
# 1 0.010039 -0.002167 -0.004472 0.000000 0.004138 0.000000
# 2 -0.002167 0.014213 -0.003898 0.000000 0.004820 0.000000
# 3 -0.004472 -0.003898 0.012919 0.000000 -0.004280 0.000000
# 4 0.000000 0.000000 0.000000 0.038205 0.000000 0.004971
# 5 0.004138 0.004820 -0.004280 0.000000 0.021541 0.000000
# 6 0.000000 0.000000 0.000000 0.004971 0.000000 0.028677
#
#
# Mechanical properties :
#
#
# Convention : Reuss Voigt Hill
#
# Bulk Modulus (GPa) = 62.12169 69.89712 66.00941
# Shear Modulus (GPa) = 32.88728 37.98316 35.43522
#
# Velocity S-wave (km/s) = 3.82280 4.10831 3.96812
# Velocity P-wave (km/s) = 6.86217 7.31872 7.09412
#
# Compressibility (1/GPa) = 0.01609744
#
# Stress axis : x y z
#
# Youngs Moduli (GPa) = 99.61224 70.35709 77.40377
#
# Poissons Ratio (x) = 0.15245 0.34617
# Poissons Ratio (y) = 0.21584 0.30171
# Poissons Ratio (z) = 0.44549 0.27425
#
# Static dielectric constant tensor:
#      x y z
#    x 1.908430 0.000000 -0.067040 
#    y 0.000000 1.850920 0.000000 
#    z -0.067040 0.000000 2.013050 
# 
# From -- ./inp_files/133299.got.cif
#   From: 2010.05.17/outbox.cif.g08.bks.cpg/sg15_67_cif.got.tgz:133299.got - 2010.06.03 18:47:42.
