data_PCOD9286357
_publ_section_title
;
Structure prediction by ZEFSAII (Michael W. Deem and Ramdas Pophale) SiO2 
 PCOD9286357
Probable space group: C 2/C
;
_chemical_formula_sum "Si O2"
_cell_formula_units_Z 60
_cell_length_a 8.824172
_cell_length_b 21.700364
_cell_length_c 23.074022
_cell_angle_alpha 90.000000
_cell_angle_beta 138.355132
_cell_angle_gamma 90.000000
_cell_volume 2936.073045
_symmetry_space_group_name_H-M "C 2/C"
_symmetry_group_IT_number 15
_symmetry_cell_setting 'monoclinic'
loop_
_space_group_symop_operation_xyz
x,y,z
-x,y,1/2-z
-x,-y,-z
x,-y,1/2+z
1/2+x,1/2+y,z
1/2-x,1/2+y,1/2-z
1/2-x,1/2-y,-z
1/2+x,1/2-y,1/2+z
loop_
_atom_site_type_symbol
_atom_site_label
_atom_site_fract_x
_atom_site_fract_y
_atom_site_fract_z
Si Si1 0.711791 0.647800 0.770754
Si Si2 0.231405 0.318486 0.599710
Si Si3 0.285265 0.716954 0.294096
Si Si4 0.336043 0.118394 0.538501
Si Si5 0.050241 0.203452 0.026360
Si Si6 0.012249 0.631910 0.362657
Si Si7 0.000000 0.581223 0.750000
Si Si8 0.228534 0.497581 0.414799
O O1 0.500000 0.622766 0.750000
O O2 0.661203 0.719300 0.742605
O O3 0.924284 0.647248 0.875419
O O4 0.824104 0.617072 0.744298
O O5 0.480434 0.288590 0.674517
O O6 0.230925 0.364129 0.544952
O O7 0.058102 0.263062 0.534277
O O8 0.159295 0.357973 0.633739
O O9 0.365652 0.716573 0.383786
O O10 0.123821 0.660520 0.230471
O O11 0.146106 0.151477 0.524297
O O12 0.352316 0.046438 0.556066
O O13 0.269459 0.174083 0.059602
O O14 0.107825 0.563702 0.380795
O O15 0.153449 0.538876 0.835706
O O16 0.500000 0.500000 0.500000
#
# Coordination Sequence:
#
# PCOD9286357 Si02
#       8
#     8   8   8   8   8   8   4   8
#     4  11  22  43  69 104 139 180 230 292 369 422
#     4  11  23  41  65 104 138 175 227 293 364 426
#     4  11  23  41  64 101 146 177 217 303 361 425
#     4  10  21  43  67  91 134 180 227 284 350 416
#     4  11  20  42  68  94 139 179 223 287 359 427
#     4  12  26  37  67 104 132 183 245 279 354 430
#     4  10  28  44  76 102 138 192 248 298 352 438
#     4  11  25  48  68  96 136 191 242 291 349 425
#
# _framework density 20.435458000000001
#
# number of rings (size 3 to 8) (size 9 to 14) (size 15 to 20)
#    0.000    1.067    4.000    2.800    3.733    1.600 
#    0.000    6.667    0.000    0.000    0.000    0.000 
#    0.000    0.000    0.000    0.000    0.000    0.000 
#
# Total GULP energy -167413.365407 kJ/mol
# GULP energy per Si atom -5580.445514 kJ/mol
# Density = 2.038895 g / cm^3
# Si number density = 20.435458 Si / 1000 Ang^3
#
#
#
# Elastic Constant Matrix: (Units=GPa)
#
#
# Indices 1 2 3 4 5 6 
#
# 1 120.8781 34.0953 24.9467 0.0001 0.7054 0.0003
# 2 34.0953 139.1332 39.7784 0.0001 -3.3781 0.0001
# 3 24.9467 39.7784 71.4393 -0.0004 5.6222 0.0003
# 4 0.0001 0.0001 -0.0004 31.0816 -0.0001 7.1910
# 5 0.7054 -3.3781 5.6222 -0.0001 31.5913 0.0002
# 6 0.0003 0.0001 0.0003 7.1910 0.0002 17.8267
#
#
#
# Elastic Compliance Matrix: (Units=1/GPa)
#
#
# Indices 1 2 3 4 5 6 
#
# 1 0.009202 -0.001587 -0.002333 0.000000 0.000040 0.000000
# 2 -0.001587 0.008922 -0.004556 0.000000 0.001800 0.000000
# 3 -0.002333 -0.004556 0.017630 0.000000 -0.003573 0.000000
# 4 0.000000 0.000000 0.000000 0.035485 0.000000 -0.014314
# 5 0.000040 0.001800 -0.003573 0.000000 0.032482 0.000000
# 6 0.000000 0.000000 0.000000 -0.014314 0.000000 0.061870
#
#
# Mechanical properties :
#
#
# Convention : Reuss Voigt Hill
#
# Bulk Modulus (GPa) = 53.18112 58.78793 55.98453
# Shear Modulus (GPa) = 26.48170 31.60859 29.04515
#
# Velocity S-wave (km/s) = 3.60373 3.93714 3.77412
# Velocity P-wave (km/s) = 6.58758 7.03550 6.81522
#
# Compressibility (1/GPa) = 0.01880366
#
# Stress axis : x y z
#
# Youngs Moduli (GPa) = 108.67650 112.07704 56.72059
#
# Poissons Ratio (x) = 0.17787 0.13231
# Poissons Ratio (y) = 0.17247 0.25840
# Poissons Ratio (z) = 0.25351 0.51058
#
# Static dielectric constant tensor:
#      x y z
#    x 1.792440 0.000000 0.004650 
#    y 0.000000 1.756110 0.000000 
#    z 0.004650 0.000000 1.721800 
# 
# From -- ./inp_files/266251.got.cif
#   From: 2010.05.17/outbox.cif.g08.bks.cpg/sg15_134_cif.got.tgz:266251.got - 2010.06.03 18:47:42.
