data_PCOD9286267
_publ_section_title
;
Structure prediction by ZEFSAII (Michael W. Deem and Ramdas Pophale) SiO2 
 PCOD9286267
Probable space group: C 2/C
;
_chemical_formula_sum "Si O2"
_cell_formula_units_Z 48
_cell_length_a 22.330285
_cell_length_b 6.268380
_cell_length_c 15.058598
_cell_angle_alpha 90.000000
_cell_angle_beta 88.755393
_cell_angle_gamma 90.000000
_cell_volume 2107.325630
_symmetry_space_group_name_H-M "C 2/C"
_symmetry_group_IT_number 15
_symmetry_cell_setting 'monoclinic'
loop_
_space_group_symop_operation_xyz
x,y,z
-x,y,1/2-z
-x,-y,-z
x,-y,1/2+z
1/2+x,1/2+y,z
1/2-x,1/2+y,1/2-z
1/2-x,1/2-y,-z
1/2+x,1/2-y,1/2+z
loop_
_atom_site_type_symbol
_atom_site_label
_atom_site_fract_x
_atom_site_fract_y
_atom_site_fract_z
Si Si1 0.558868 0.567232 0.048972
Si Si2 0.228109 0.091832 0.130950
Si Si3 0.324206 0.673362 0.020171
Si Si4 0.628148 0.947674 0.092236
Si Si5 0.178376 0.919855 0.314888
Si Si6 0.933344 0.218074 0.778860
O O1 0.615826 0.467197 0.997906
O O2 0.571728 0.816958 0.056759
O O3 0.558922 0.465211 0.147122
O O4 0.500000 0.500000 0.000000
O O5 0.177699 0.276632 0.120998
O O6 0.209988 0.963063 0.219539
O O7 0.289939 0.216967 0.140707
O O8 0.222688 0.936210 0.046504
O O9 0.189872 0.876518 0.877571
O O10 0.343645 0.901282 0.983127
O O11 0.604867 0.095125 0.172965
O O12 0.108831 0.873573 0.297300
O O13 0.000000 0.287160 0.750000
#
# Coordination Sequence:
#
# PCOD9286267 Si02
#       6
#     8   8   8   8   8   8
#     4  10  21  43  65  94 144 183 226 293 342 413
#     4  11  24  46  67  99 142 173 231 300 347 426
#     4  10  23  43  66 101 134 182 233 284 356 423
#     4  10  21  46  65  97 143 176 234 290 340 422
#     4  12  23  45  70  98 137 184 227 293 359 416
#     4  11  23  42  66 100 137 177 232 284 349 426
#
# _framework density 22.777685000000002
#
# number of rings (size 3 to 8) (size 9 to 14) (size 15 to 20)
#    0.000    1.333    5.000    2.500    0.000    4.000 
#   18.000    0.000    0.000    0.000    0.000    0.000 
#    0.000    0.000    0.000    0.000    0.000    0.000 
#
# Total GULP energy -134389.190308 kJ/mol
# GULP energy per Si atom -5599.549596 kJ/mol
# Density = 2.272584 g / cm^3
# Si number density = 22.777685 Si / 1000 Ang^3
#
#
#
# Elastic Constant Matrix: (Units=GPa)
#
#
# Indices 1 2 3 4 5 6 
#
# 1 93.6816 22.1691 49.2490 0.0000 19.2486 0.0000
# 2 22.1691 116.0921 55.1156 0.0000 9.2708 0.0000
# 3 49.2490 55.1156 135.5360 0.0000 20.7289 0.0000
# 4 0.0000 0.0000 0.0000 37.4545 0.0000 9.9297
# 5 19.2486 9.2708 20.7289 0.0000 51.5769 0.0000
# 6 0.0000 0.0000 0.0000 9.9297 0.0000 26.4964
#
#
#
# Elastic Compliance Matrix: (Units=1/GPa)
#
#
# Indices 1 2 3 4 5 6 
#
# 1 0.013715 -0.000284 -0.004361 0.000000 -0.003315 0.000000
# 2 -0.000284 0.010682 -0.004223 0.000000 -0.000117 0.000000
# 3 -0.004361 -0.004223 0.010991 0.000000 -0.002030 0.000000
# 4 0.000000 0.000000 0.000000 0.029644 0.000000 -0.011109
# 5 -0.003315 -0.000117 -0.002030 0.000000 0.021463 0.000000
# 6 0.000000 0.000000 0.000000 -0.011109 0.000000 0.041904
#
#
# Mechanical properties :
#
#
# Convention : Reuss Voigt Hill
#
# Bulk Modulus (GPa) = 56.65006 66.48634 61.56820
# Shear Modulus (GPa) = 32.89042 37.69062 35.29052
#
# Velocity S-wave (km/s) = 3.80409 4.07223 3.94044
# Velocity P-wave (km/s) = 6.64979 7.16683 6.91314
#
# Compressibility (1/GPa) = 0.01765223
#
# Stress axis : x y z
#
# Youngs Moduli (GPa) = 72.91023 93.61325 90.98644
#
# Poissons Ratio (x) = 0.02657 0.39682
# Poissons Ratio (y) = 0.02070 0.38423
# Poissons Ratio (z) = 0.31799 0.39532
#
# Static dielectric constant tensor:
#      x y z
#    x 1.867170 0.000000 -0.004970 
#    y 0.000000 1.845350 0.000000 
#    z -0.004970 0.000000 1.845850 
# 
# From -- ./inp_files/278520.got.cif
#   From: 2010.05.17/outbox.cif.g08.bks.cpg/sg15_140_cif.got.tgz:278520.got - 2010.06.03 18:47:42.
