data_PCOD9286569
_publ_section_title
;
Structure prediction by ZEFSAII (Michael W. Deem and Ramdas Pophale) SiO2 
 PCOD9286569
Probable space group: C 2/C
;
_chemical_formula_sum "Si O2"
_cell_formula_units_Z 52
_cell_length_a 17.453249
_cell_length_b 8.861851
_cell_length_c 14.909327
_cell_angle_alpha 90.000000
_cell_angle_beta 63.596008
_cell_angle_gamma 90.000000
_cell_volume 2065.437334
_symmetry_space_group_name_H-M "C 2/C"
_symmetry_group_IT_number 15
_symmetry_cell_setting 'monoclinic'
loop_
_space_group_symop_operation_xyz
x,y,z
-x,y,1/2-z
-x,-y,-z
x,-y,1/2+z
1/2+x,1/2+y,z
1/2-x,1/2+y,1/2-z
1/2-x,1/2-y,-z
1/2+x,1/2-y,1/2+z
loop_
_atom_site_type_symbol
_atom_site_label
_atom_site_fract_x
_atom_site_fract_y
_atom_site_fract_z
Si Si1 0.821112 0.162693 0.165370
Si Si2 0.250000 0.250000 0.000000
Si Si3 0.863014 0.311859 0.791914
Si Si4 0.157016 0.066524 0.552133
Si Si5 0.573479 0.056156 0.838245
Si Si6 0.925784 0.703268 0.010136
Si Si7 0.464079 0.433759 0.135739
O O1 0.719367 0.164212 0.229242
O O2 0.852996 0.326912 0.174939
O O3 0.884942 0.049145 0.182885
O O4 0.832893 0.117093 0.055792
O O5 0.332144 0.239882 0.024173
O O6 0.221198 0.070013 0.039444
O O7 0.833815 0.219734 0.894034
O O8 0.904687 0.477639 0.768004
O O9 0.933506 0.203750 0.713191
O O10 0.057936 0.014484 0.615701
O O11 0.572787 0.927771 0.915643
O O12 0.485662 0.146467 0.898078
O O13 0.966543 0.850191 0.037226
#
# Coordination Sequence:
#
# PCOD9286569 Si02
#       7
#     8   4   8   8   8   8   8
#     4  12  22  44  77 108 142 206 260 304 380 465
#     4  12  24  42  74 110 148 190 268 316 368 450
#     4  11  26  44  70 113 154 191 249 329 377 440
#     4  12  25  46  73 109 151 206 257 318 385 458
#     4  10  22  43  74 102 147 192 253 303 383 453
#     4  10  21  43  72 108 140 200 247 307 369 458
#     4  11  23  48  76 103 153 208 256 300 391 462
#
# _framework density 25.176268
#
# number of rings (size 3 to 8) (size 9 to 14) (size 15 to 20)
#    0.000    0.923    3.077    4.154    0.000    1.231 
#    5.538    0.000    0.000    0.000    0.000    0.000 
#    0.000    0.000    0.000    0.000    0.000    0.000 
#
# Total GULP energy -144959.460210 kJ/mol
# GULP energy per Si atom -5575.363854 kJ/mol
# Density = 2.511897 g / cm^3
# Si number density = 25.176268 Si / 1000 Ang^3
#
#
#
# Elastic Constant Matrix: (Units=GPa)
#
#
# Indices 1 2 3 4 5 6 
#
# 1 130.2299 44.0021 15.1065 0.0000 -14.2237 0.0000
# 2 44.0021 147.9354 28.8683 0.0000 2.1087 0.0000
# 3 15.1065 28.8683 66.2232 0.0000 -9.8934 0.0000
# 4 0.0000 0.0000 0.0000 30.1462 0.0000 -12.6509
# 5 -14.2237 2.1087 -9.8934 0.0000 21.0056 0.0000
# 6 0.0000 0.0000 0.0000 -12.6509 0.0000 51.2408
#
#
#
# Elastic Compliance Matrix: (Units=1/GPa)
#
#
# Indices 1 2 3 4 5 6 
#
# 1 0.009379 -0.002911 0.000131 0.000000 0.006705 0.000000
# 2 -0.002911 0.008409 -0.003681 0.000000 -0.004549 0.000000
# 3 0.000131 -0.003681 0.018011 0.000000 0.008941 0.000000
# 4 0.000000 0.000000 0.000000 0.037006 0.000000 0.009136
# 5 0.006705 -0.004549 0.008941 0.000000 0.056815 0.000000
# 6 0.000000 0.000000 0.000000 0.009136 0.000000 0.021771
#
#
# Mechanical properties :
#
#
# Convention : Reuss Voigt Hill
#
# Bulk Modulus (GPa) = 43.71177 57.81580 50.76378
# Shear Modulus (GPa) = 29.08014 37.57264 33.32639
#
# Velocity S-wave (km/s) = 3.40231 3.86733 3.64225
# Velocity P-wave (km/s) = 5.73012 6.55407 6.15590
#
# Compressibility (1/GPa) = 0.02287714
#
# Stress axis : x y z
#
# Youngs Moduli (GPa) = 106.61643 118.92378 55.52150
#
# Poissons Ratio (x) = 0.34619 -0.00728
# Poissons Ratio (y) = 0.31036 0.20438
# Poissons Ratio (z) = -0.01398 0.43778
#
# Static dielectric constant tensor:
#      x y z
#    x 1.930720 0.000000 0.010320 
#    y 0.000000 1.948440 0.000000 
#    z 0.010320 0.000000 2.122440 
# 
# From -- ./inp_files/209480.got.cif
#   From: 2010.05.17/outbox.cif.g08.bks.cpg/sg15_105_cif.got.tgz:209480.got - 2010.06.03 18:47:42.
