data_PCOD9286183
_publ_section_title
;
Structure prediction by ZEFSAII (Michael W. Deem and Ramdas Pophale) SiO2 
 PCOD9286183
Probable space group: C 2/C
;
_chemical_formula_sum "Si O2"
_cell_formula_units_Z 40
_cell_length_a 23.962379
_cell_length_b 5.436590
_cell_length_c 12.649910
_cell_angle_alpha 90.000000
_cell_angle_beta 88.552237
_cell_angle_gamma 90.000000
_cell_volume 1647.423629
_symmetry_space_group_name_H-M "C 2/C"
_symmetry_group_IT_number 15
_symmetry_cell_setting 'monoclinic'
loop_
_space_group_symop_operation_xyz
x,y,z
-x,y,1/2-z
-x,-y,-z
x,-y,1/2+z
1/2+x,1/2+y,z
1/2-x,1/2+y,1/2-z
1/2-x,1/2-y,-z
1/2+x,1/2-y,1/2+z
loop_
_atom_site_type_symbol
_atom_site_label
_atom_site_fract_x
_atom_site_fract_y
_atom_site_fract_z
Si Si1 0.365382 0.623865 0.259973
Si Si2 0.266510 0.452500 0.911500
Si Si3 0.158472 0.692236 0.949123
Si Si4 0.566921 0.089770 0.584438
Si Si5 0.963266 0.093221 0.853543
O O1 0.304018 0.633858 0.312673
O O2 0.368413 0.624521 0.134304
O O3 0.399811 0.400814 0.310709
O O4 0.400264 0.850525 0.307543
O O5 0.206260 0.551078 0.881456
O O6 0.250000 0.250000 0.000000
O O7 0.305555 0.656146 0.967152
O O8 0.113326 0.508011 0.000486
O O9 0.525049 0.863991 0.603770
O O10 0.539690 0.358417 0.568437
O O11 0.000000 0.032192 0.750000
#
# Coordination Sequence:
#
# PCOD9286183 Si02
#       5
#     8   8   8   8   8
#     4  10  24  39  63  94 130 173 215 262 324 381
#     4  11  22  39  58  91 132 170 217 262 313 383
#     4  11  23  39  63  91 132 175 213 266 322 385
#     4  10  21  43  62  94 128 162 216 267 314 383
#     4  10  21  43  69  90 129 168 212 274 327 373
#
# _framework density 24.280335999999998
#
# number of rings (size 3 to 8) (size 9 to 14) (size 15 to 20)
#    1.200    0.400    4.000    0.600    2.800    1.600 
#    0.000    2.000    0.000    0.000    0.000    0.000 
#    0.000    0.000    0.000    0.000    0.000    0.000 
#
# Total GULP energy -111554.297022 kJ/mol
# GULP energy per Si atom -5577.714851 kJ/mol
# Density = 2.422507 g / cm^3
# Si number density = 24.280336 Si / 1000 Ang^3
#
#
#
# Elastic Constant Matrix: (Units=GPa)
#
#
# Indices 1 2 3 4 5 6 
#
# 1 59.3244 17.0717 28.1418 0.0000 -32.2952 0.0000
# 2 17.0717 135.6279 15.6179 0.0000 -15.2265 0.0000
# 3 28.1418 15.6179 59.8694 0.0000 -18.4253 0.0000
# 4 0.0000 0.0000 0.0000 24.2993 0.0000 -10.5795
# 5 -32.2952 -15.2265 -18.4253 0.0000 40.3067 0.0000
# 6 0.0000 0.0000 0.0000 -10.5795 0.0000 34.8130
#
#
#
# Elastic Compliance Matrix: (Units=1/GPa)
#
#
# Indices 1 2 3 4 5 6 
#
# 1 0.033427 -0.000682 -0.008578 0.000000 0.022604 0.000000
# 2 -0.000682 0.007801 -0.001135 0.000000 0.001881 0.000000
# 3 -0.008578 -0.001135 0.021859 0.000000 0.002691 0.000000
# 4 0.000000 0.000000 0.000000 0.047429 0.000000 0.014413
# 5 0.022604 0.001881 0.002691 0.000000 0.044862 0.000000
# 6 0.000000 0.000000 0.000000 0.014413 0.000000 0.033105
#
#
# Mechanical properties :
#
#
# Convention : Reuss Voigt Hill
#
# Bulk Modulus (GPa) = 23.64254 41.83161 32.73708
# Shear Modulus (GPa) = 22.38410 32.81649 27.60030
#
# Velocity S-wave (km/s) = 3.03958 3.68035 3.37521
# Velocity P-wave (km/s) = 4.69864 5.94357 5.35739
#
# Compressibility (1/GPa) = 0.04229664
#
# Stress axis : x y z
#
# Youngs Moduli (GPa) = 29.91572 128.18988 45.74696
#
# Poissons Ratio (x) = 0.08743 0.39242
# Poissons Ratio (y) = 0.02040 0.05194
# Poissons Ratio (z) = 0.25662 0.14554
#
# Static dielectric constant tensor:
#      x y z
#    x 1.973530 0.000000 0.051350 
#    y 0.000000 2.025290 0.000000 
#    z 0.051350 0.000000 1.990290 
# 
# From -- ./inp_files/124759.got.cif
#   From: 2010.05.17/outbox.cif.g08.bks.cpg/sg15_63_cif.got.tgz:124759.got - 2010.06.03 18:47:42.
