data_PCOD9286694
_publ_section_title
;
Structure prediction by ZEFSAII (Michael W. Deem and Ramdas Pophale) SiO2 
 PCOD9286694
Probable space group: C 2/C
;
_chemical_formula_sum "Si O2"
_cell_formula_units_Z 60
_cell_length_a 23.985582
_cell_length_b 7.484233
_cell_length_c 20.484656
_cell_angle_alpha 90.000000
_cell_angle_beta 38.375945
_cell_angle_gamma 90.000000
_cell_volume 2282.921752
_symmetry_space_group_name_H-M "C 2/C"
_symmetry_group_IT_number 15
_symmetry_cell_setting 'monoclinic'
loop_
_space_group_symop_operation_xyz
x,y,z
-x,y,1/2-z
-x,-y,-z
x,-y,1/2+z
1/2+x,1/2+y,z
1/2-x,1/2+y,1/2-z
1/2-x,1/2-y,-z
1/2+x,1/2-y,1/2+z
loop_
_atom_site_type_symbol
_atom_site_label
_atom_site_fract_x
_atom_site_fract_y
_atom_site_fract_z
Si Si1 0.053349 0.496278 0.141828
Si Si2 0.244734 0.085586 0.078546
Si Si3 0.284875 0.925029 0.780341
Si Si4 0.026558 0.373357 0.915703
Si Si5 0.785676 0.979373 0.030858
Si Si6 0.019466 0.995221 0.095843
Si Si7 0.344667 0.337357 0.711067
Si Si8 0.500000 0.339406 0.250000
O O1 0.000000 0.397284 0.250000
O O2 0.989300 0.523970 0.138505
O O3 0.070628 0.691858 0.157938
O O4 0.148335 0.434890 0.027640
O O5 0.202919 0.982261 0.055591
O O6 0.207984 0.052298 0.184081
O O7 0.226998 0.297812 0.084692
O O8 0.317433 0.130144 0.742872
O O9 0.369300 0.818591 0.674840
O O10 0.197137 0.897778 0.818419
O O11 0.264154 0.886344 0.875005
O O12 0.975450 0.187968 0.950000
O O13 0.000000 0.500000 0.000000
O O14 0.880803 0.941323 0.978322
O O15 0.978714 0.950789 0.205205
O O16 0.949928 0.126478 0.124863
#
# Coordination Sequence:
#
# PCOD9286694 Si02
#       8
#     8   8   8   8   8   8   8   4
#     4   9  19  38  65  92 131 174 218 272 332 403
#     4  10  21  44  66 106 129 179 223 280 341 415
#     4  11  25  46  65 101 132 185 224 285 341 411
#     4  11  24  42  67  97 136 177 233 272 344 412
#     4  10  24  41  71  99 141 169 231 279 347 405
#     4  11  23  45  67 103 136 179 225 289 340 415
#     4  11  25  43  71  93 140 176 231 284 345 409
#     4   8  20  40  60 102 128 170 222 266 340 406
#
# _framework density 26.282108999999998
#
# number of rings (size 3 to 8) (size 9 to 14) (size 15 to 20)
#    0.400    1.333    0.000    3.200    3.733    1.600 
#    6.000    3.333    0.000    0.000    0.000    0.000 
#    0.000    0.000    0.000    0.000    0.000    0.000 
#
# Total GULP energy -167822.354474 kJ/mol
# GULP energy per Si atom -5594.078482 kJ/mol
# Density = 2.622229 g / cm^3
# Si number density = 26.282109 Si / 1000 Ang^3
#
#
#
# Elastic Constant Matrix: (Units=GPa)
#
#
# Indices 1 2 3 4 5 6 
#
# 1 142.4479 33.1339 45.1436 0.0109 11.6342 0.0011
# 2 33.1339 74.4550 6.0938 0.0257 6.6223 -0.0250
# 3 45.1436 6.0938 115.1929 0.0169 13.6787 -0.0105
# 4 0.0109 0.0257 0.0169 28.4108 -0.0029 -3.5424
# 5 11.6342 6.6223 13.6787 -0.0029 57.1851 -0.0004
# 6 0.0011 -0.0250 -0.0105 -3.5424 -0.0004 39.3996
#
#
#
# Elastic Compliance Matrix: (Units=1/GPa)
#
#
# Indices 1 2 3 4 5 6 
#
# 1 0.008949 -0.003662 -0.003240 0.000001 -0.000622 -0.000003
# 2 -0.003662 0.015103 0.000778 -0.000012 -0.001190 0.000009
# 3 -0.003240 0.000778 0.010130 -0.000005 -0.001854 0.000003
# 4 0.000001 -0.000012 -0.000005 0.035597 0.000004 0.003200
# 5 -0.000622 -0.001190 -0.001854 0.000004 0.018195 -0.000001
# 6 -0.000003 0.000009 0.000003 0.003200 -0.000001 0.025669
#
#
# Mechanical properties :
#
#
# Convention : Reuss Voigt Hill
#
# Bulk Modulus (GPa) = 45.59266 55.64872 50.62069
# Shear Modulus (GPa) = 37.53688 41.51407 39.52548
#
# Velocity S-wave (km/s) = 3.78329 3.97868 3.88221
# Velocity P-wave (km/s) = 6.03900 6.50585 6.27676
#
# Compressibility (1/GPa) = 0.02193335
#
# Stress axis : x y z
#
# Youngs Moduli (GPa) = 111.73893 66.21243 98.71935
#
# Poissons Ratio (x) = 0.24248 0.31982
# Poissons Ratio (y) = 0.40921 -0.07676
# Poissons Ratio (z) = 0.36200 -0.05148
#
# Static dielectric constant tensor:
#      x y z
#    x 2.021670 -0.000010 0.002580 
#    y -0.000010 2.108040 0.000010 
#    z 0.002580 0.000010 2.104690 
# 
# From -- ./inp_files/255161.got.cif
#   From: 2010.05.17/outbox.cif.g08.bks.cpg/sg15_128_cif.got.tgz:255161.got - 2010.06.03 18:47:42.
