data_PCOD9286483
_publ_section_title
;
Structure prediction by ZEFSAII (Michael W. Deem and Ramdas Pophale) SiO2 
 PCOD9286483
Probable space group: C 2/C
;
_chemical_formula_sum "Si O2"
_cell_formula_units_Z 36
_cell_length_a 16.233711
_cell_length_b 9.550687
_cell_length_c 20.032211
_cell_angle_alpha 90.000000
_cell_angle_beta 150.698562
_cell_angle_gamma 90.000000
_cell_volume 1520.019375
_symmetry_space_group_name_H-M "C 2/C"
_symmetry_group_IT_number 15
_symmetry_cell_setting 'monoclinic'
loop_
_space_group_symop_operation_xyz
x,y,z
-x,y,1/2-z
-x,-y,-z
x,-y,1/2+z
1/2+x,1/2+y,z
1/2-x,1/2+y,1/2-z
1/2-x,1/2-y,-z
1/2+x,1/2-y,1/2+z
loop_
_atom_site_type_symbol
_atom_site_label
_atom_site_fract_x
_atom_site_fract_y
_atom_site_fract_z
Si Si1 0.500000 0.058572 0.750000
Si Si2 0.100315 0.197255 0.094945
Si Si3 0.898323 0.086034 0.827687
Si Si4 0.215437 0.086576 0.975683
Si Si5 0.875849 0.663900 0.541340
O O1 0.334429 0.969678 0.619635
O O2 0.528389 0.141942 0.701767
O O3 0.248546 0.310832 0.201875
O O4 0.942712 0.259021 0.025052
O O5 0.156812 0.056108 0.173879
O O6 0.025539 0.160933 0.970055
O O7 0.021771 0.054552 0.852861
O O8 0.250000 0.250000 0.000000
O O9 0.292303 0.988548 0.971475
O O10 0.750000 0.750000 0.500000
#
# Coordination Sequence:
#
# PCOD9286483 Si02
#       5
#     4   8   8   8   8
#     4   8  22  38  72  86 140 166 232 286 338 402
#     4  11  26  45  72 101 145 180 233 291 359 416
#     4  11  27  45  70 103 141 185 230 295 356 422
#     4  10  23  43  70  98 136 182 232 286 348 411
#     4  10  21  43  69  99 131 184 231 284 340 420
#
# _framework density 23.683909
#
# number of rings (size 3 to 8) (size 9 to 14) (size 15 to 20)
#    1.333    0.444    2.222    0.000   15.556    0.889 
#    0.000    1.111    0.000    0.000    0.000    0.000 
#    0.000    0.000    0.000    0.000    0.000    0.000 
#
# Total GULP energy -100525.388558 kJ/mol
# GULP energy per Si atom -5584.743809 kJ/mol
# Density = 2.363000 g / cm^3
# Si number density = 23.683909 Si / 1000 Ang^3
#
#
#
# Elastic Constant Matrix: (Units=GPa)
#
#
# Indices 1 2 3 4 5 6 
#
# 1 62.4660 9.7940 18.4789 0.0001 10.3704 0.0000
# 2 9.7940 119.1784 34.5083 -0.0001 9.0045 0.0000
# 3 18.4789 34.5083 78.1545 -0.0003 18.3373 0.0000
# 4 0.0001 -0.0001 -0.0003 47.3580 0.0000 10.8618
# 5 10.3704 9.0045 18.3373 0.0000 32.6213 0.0000
# 6 0.0000 0.0000 0.0000 10.8618 0.0000 37.9663
#
#
#
# Elastic Compliance Matrix: (Units=1/GPa)
#
#
# Indices 1 2 3 4 5 6 
#
# 1 0.017608 -0.000244 -0.003177 0.000000 -0.003745 0.000000
# 2 -0.000244 0.009627 -0.004133 0.000000 -0.000257 0.000000
# 3 -0.003177 -0.004133 0.017125 0.000000 -0.007476 0.000000
# 4 0.000000 0.000000 0.000000 0.022599 0.000000 -0.006465
# 5 -0.003745 -0.000257 -0.007476 0.000000 0.036118 0.000000
# 6 0.000000 0.000000 0.000000 -0.006465 0.000000 0.028189
#
#
# Mechanical properties :
#
#
# Convention : Reuss Voigt Hill
#
# Bulk Modulus (GPa) = 34.18494 42.81793 38.50143
# Shear Modulus (GPa) = 32.02565 36.72363 34.37464
#
# Velocity S-wave (km/s) = 3.68123 3.94200 3.81385
# Velocity P-wave (km/s) = 5.70384 6.23196 5.97374
#
# Compressibility (1/GPa) = 0.02925265
#
# Stress axis : x y z
#
# Youngs Moduli (GPa) = 56.79090 103.87592 58.39377
#
# Poissons Ratio (x) = 0.02537 0.18551
# Poissons Ratio (y) = 0.01387 0.24132
# Poissons Ratio (z) = 0.18042 0.42929
#
# Static dielectric constant tensor:
#      x y z
#    x 2.065250 0.000000 -0.077860 
#    y 0.000000 1.894230 0.000000 
#    z -0.077860 0.000000 1.968160 
# 
# From -- ./inp_files/247909.got.cif
#   From: 2010.05.17/outbox.cif.g08.bks.cpg/sg15_124_cif.got.tgz:247909.got - 2010.06.03 18:47:42.
