data_PCOD9286404
_publ_section_title
;
Structure prediction by ZEFSAII (Michael W. Deem and Ramdas Pophale) SiO2 
 PCOD9286404
Probable space group: C 2/C
;
_chemical_formula_sum "Si O2"
_cell_formula_units_Z 60
_cell_length_a 24.223987
_cell_length_b 8.701005
_cell_length_c 13.529712
_cell_angle_alpha 90.000000
_cell_angle_beta 130.254480
_cell_angle_gamma 90.000000
_cell_volume 2176.364751
_symmetry_space_group_name_H-M "C 2/C"
_symmetry_group_IT_number 15
_symmetry_cell_setting 'monoclinic'
loop_
_space_group_symop_operation_xyz
x,y,z
-x,y,1/2-z
-x,-y,-z
x,-y,1/2+z
1/2+x,1/2+y,z
1/2-x,1/2+y,1/2-z
1/2-x,1/2-y,-z
1/2+x,1/2-y,1/2+z
loop_
_atom_site_type_symbol
_atom_site_label
_atom_site_fract_x
_atom_site_fract_y
_atom_site_fract_z
Si Si1 0.342107 0.662270 0.343729
Si Si2 0.904191 0.806251 0.236395
Si Si3 0.999038 0.790548 0.534268
Si Si4 0.500000 0.448169 0.750000
Si Si5 0.298898 0.536891 0.083458
Si Si6 0.926345 0.529860 0.770972
Si Si7 0.695483 0.996318 0.709006
Si Si8 0.344967 0.182681 0.519815
O O1 0.434222 0.321740 0.382997
O O2 0.429458 0.658772 0.447418
O O3 0.279512 0.551493 0.314383
O O4 0.315639 0.831631 0.345061
O O5 0.935410 0.642057 0.242815
O O6 0.934849 0.937918 0.200742
O O7 0.821194 0.860119 0.127803
O O8 0.987628 0.870331 0.627838
O O9 0.167040 0.867504 0.784598
O O10 0.018662 0.616995 0.592293
O O11 0.215228 0.567958 0.004679
O O12 0.321283 0.645193 0.017553
O O13 0.853229 0.505285 0.750382
O O14 0.914648 0.639708 0.663775
O O15 0.657891 0.868600 0.595831
#
# Coordination Sequence:
#
# PCOD9286404 Si02
#       8
#     8   8   8   4   8   8   8   8
#     4  10  21  44  68 103 144 173 247 289 362 449
#     4  12  27  45  70 109 141 187 255 301 348 445
#     4  11  25  51  72  98 149 192 239 305 365 438
#     4  12  26  44  72 102 132 200 244 282 370 410
#     4  10  21  44  69  95 145 181 239 298 350 437
#     4  11  25  47  70 108 148 180 243 305 371 442
#     4  10  23  40  73 105 135 194 229 295 392 429
#     4  10  21  43  68 101 144 189 230 296 369 436
#
# _framework density 27.568908
#
# number of rings (size 3 to 8) (size 9 to 14) (size 15 to 20)
#    0.000    1.333    4.000    0.800    3.733    5.333 
#    2.400    2.667    0.000    0.000    0.000    0.000 
#    0.000    0.000    0.000    0.000    0.000    0.000 
#
# Total GULP energy -167625.178390 kJ/mol
# GULP energy per Si atom -5587.505946 kJ/mol
# Density = 2.750616 g / cm^3
# Si number density = 27.568908 Si / 1000 Ang^3
#
#
#
# Elastic Constant Matrix: (Units=GPa)
#
#
# Indices 1 2 3 4 5 6 
#
# 1 149.1913 73.3006 48.4226 0.0000 -13.3349 0.0000
# 2 73.3006 116.1982 43.3348 0.0000 -11.4342 0.0000
# 3 48.4226 43.3348 120.2249 0.0000 1.0397 0.0000
# 4 0.0000 0.0000 0.0000 58.5380 0.0000 -4.1595
# 5 -13.3349 -11.4342 1.0397 0.0000 22.8597 0.0000
# 6 0.0000 0.0000 0.0000 -4.1595 0.0000 36.7735
#
#
#
# Elastic Compliance Matrix: (Units=1/GPa)
#
#
# Indices 1 2 3 4 5 6 
#
# 1 0.010388 -0.005359 -0.002282 0.000000 0.003483 0.000000
# 2 -0.005359 0.013349 -0.002685 0.000000 0.003673 0.000000
# 3 -0.002282 -0.002685 0.010232 0.000000 -0.003140 0.000000
# 4 0.000000 0.000000 0.000000 0.017221 0.000000 0.001948
# 5 0.003483 0.003673 -0.003140 0.000000 0.047757 0.000000
# 6 0.000000 0.000000 0.000000 0.001948 0.000000 0.027414
#
#
# Mechanical properties :
#
#
# Convention : Reuss Voigt Hill
#
# Bulk Modulus (GPa) = 75.09576 79.52559 77.31068
# Shear Modulus (GPa) = 33.01351 38.33800 35.67576
#
# Velocity S-wave (km/s) = 3.46423 3.73315 3.60120
# Velocity P-wave (km/s) = 6.58025 6.89135 6.73759
#
# Compressibility (1/GPa) = 0.01331633
#
# Stress axis : x y z
#
# Youngs Moduli (GPa) = 96.26603 74.90966 97.73259
#
# Poissons Ratio (x) = 0.40144 0.22306
# Poissons Ratio (y) = 0.51589 0.26242
# Poissons Ratio (z) = 0.21971 0.20114
#
# Static dielectric constant tensor:
#      x y z
#    x 2.447330 0.000000 0.136410 
#    y 0.000000 2.250990 0.000000 
#    z 0.136410 0.000000 2.161670 
# 
# From -- ./inp_files/218310.got.cif
#   From: 2010.05.17/outbox.cif.g08.bks.cpg/sg15_110_cif.got.tgz:218310.got - 2010.06.03 18:47:42.
