data_PCOD9286099
_publ_section_title
;
Structure prediction by ZEFSAII (Michael W. Deem and Ramdas Pophale) SiO2 
 PCOD9286099
Probable space group: C 2/C
;
_chemical_formula_sum "Si O2"
_cell_formula_units_Z 36
_cell_length_a 18.680923
_cell_length_b 20.378628
_cell_length_c 9.195600
_cell_angle_alpha 90.000000
_cell_angle_beta 26.682966
_cell_angle_gamma 90.000000
_cell_volume 1571.995553
_symmetry_space_group_name_H-M "C 2/C"
_symmetry_group_IT_number 15
_symmetry_cell_setting 'monoclinic'
loop_
_space_group_symop_operation_xyz
x,y,z
-x,y,1/2-z
-x,-y,-z
x,-y,1/2+z
1/2+x,1/2+y,z
1/2-x,1/2+y,1/2-z
1/2-x,1/2-y,-z
1/2+x,1/2-y,1/2+z
loop_
_atom_site_type_symbol
_atom_site_label
_atom_site_fract_x
_atom_site_fract_y
_atom_site_fract_z
Si Si1 0.643005 0.584199 0.261335
Si Si2 0.502601 0.070386 0.917232
Si Si3 0.366951 0.207711 0.183710
Si Si4 0.887564 0.225820 0.086635
Si Si5 0.000000 0.006640 0.250000
O O1 0.568235 0.652249 0.446095
O O2 0.562108 0.549962 0.270330
O O3 0.628847 0.538607 0.431354
O O4 0.819720 0.597259 0.884179
O O5 0.500000 0.059169 0.750000
O O6 0.377576 0.128233 0.184424
O O7 0.500000 0.000000 0.000000
O O8 0.250000 0.250000 0.500000
O O9 0.287277 0.221933 0.170786
O O10 0.545008 0.231819 0.902302
O O11 0.000000 0.247981 0.750000
#
# Coordination Sequence:
#
# PCOD9286099 Si02
#       5
#     8   8   8   8   4
#     4  11  22  42  68 102 147 187 250 293 382 439
#     4  12  26  45  73 108 148 190 247 309 376 451
#     4  10  24  44  71 103 144 200 247 304 375 445
#     4  10  21  42  71  98 139 189 245 300 364 441
#     4  10  24  40  68 108 144 202 234 316 372 472
#
# _framework density 22.900827
#
# number of rings (size 3 to 8) (size 9 to 14) (size 15 to 20)
#    0.000    1.333    3.333    1.333    0.000    7.111 
#    2.000    0.000    0.000    0.000    0.000    0.000 
#    0.000    0.000    0.000    0.000    0.000    0.000 
#
# Total GULP energy -100261.781415 kJ/mol
# GULP energy per Si atom -5570.098968 kJ/mol
# Density = 2.284870 g / cm^3
# Si number density = 22.900827 Si / 1000 Ang^3
#
#
#
# Elastic Constant Matrix: (Units=GPa)
#
#
# Indices 1 2 3 4 5 6 
#
# 1 154.7806 92.4884 41.2412 0.0000 -7.8611 0.0018
# 2 92.4884 132.1737 33.0883 -0.0010 -1.0999 -0.0014
# 3 41.2412 33.0883 70.4922 -0.0015 10.9976 0.0037
# 4 0.0000 -0.0010 -0.0015 20.7165 0.0002 -17.4305
# 5 -7.8611 -1.0999 10.9976 0.0002 46.5419 -0.0024
# 6 0.0018 -0.0014 0.0037 -17.4305 -0.0024 17.8992
#
#
#
# Elastic Compliance Matrix: (Units=1/GPa)
#
#
# Indices 1 2 3 4 5 6 
#
# 1 0.012138 -0.007458 -0.004042 -0.000006 0.002829 -0.000007
# 2 -0.007458 0.013221 -0.001759 0.000012 -0.000532 0.000014
# 3 -0.004042 -0.001759 0.018159 -0.000012 -0.005015 -0.000016
# 4 -0.000006 0.000012 -0.000012 0.267207 0.000014 0.260210
# 5 0.002829 -0.000532 -0.005015 0.000014 0.023136 0.000018
# 6 -0.000007 0.000014 -0.000016 0.260210 0.000018 0.309266
#
#
# Mechanical properties :
#
#
# Convention : Reuss Voigt Hill
#
# Bulk Modulus (GPa) = 58.82766 76.78693 67.80730
# Shear Modulus (GPa) = 7.40399 29.74008 18.57204
#
# Velocity S-wave (km/s) = 1.80002 3.60758 2.85085
# Velocity P-wave (km/s) = 5.48305 7.13834 6.36474
#
# Compressibility (1/GPa) = 0.01699881
#
# Stress axis : x y z
#
# Youngs Moduli (GPa) = 82.38612 75.63929 55.06949
#
# Poissons Ratio (x) = 0.56413 0.22258
# Poissons Ratio (y) = 0.61445 0.09689
# Poissons Ratio (z) = 0.33299 0.13308
#
# Static dielectric constant tensor:
#      x y z
#    x 2.033400 0.000000 0.000250 
#    y 0.000000 1.918630 0.000000 
#    z 0.000250 0.000000 1.992140 
# 
# From -- ./inp_files/23166.got.cif
#   From: 2010.05.17/outbox.cif.g08.bks.cpg/sg15_12_cif.got.tgz:23166.got - 2010.06.03 18:47:42.
