data_PCOD9286889
_publ_section_title
;
Structure prediction by ZEFSAII (Michael W. Deem and Ramdas Pophale) SiO2 
 PCOD9286889
Probable space group: C 2/C
;
_chemical_formula_sum "Si O2"
_cell_formula_units_Z 44
_cell_length_a 11.692064
_cell_length_b 11.462872
_cell_length_c 11.923838
_cell_angle_alpha 90.000000
_cell_angle_beta 100.902332
_cell_angle_gamma 90.000000
_cell_volume 1569.244147
_symmetry_space_group_name_H-M "C 2/C"
_symmetry_group_IT_number 15
_symmetry_cell_setting 'monoclinic'
loop_
_space_group_symop_operation_xyz
x,y,z
-x,y,1/2-z
-x,-y,-z
x,-y,1/2+z
1/2+x,1/2+y,z
1/2-x,1/2+y,1/2-z
1/2-x,1/2-y,-z
1/2+x,1/2-y,1/2+z
loop_
_atom_site_type_symbol
_atom_site_label
_atom_site_fract_x
_atom_site_fract_y
_atom_site_fract_z
Si Si1 0.900837 0.757885 0.464511
Si Si2 0.243460 0.349883 0.234225
Si Si3 0.809604 0.028729 0.073176
Si Si4 0.000000 0.500000 0.000000
Si Si5 0.000000 0.053944 0.250000
Si Si6 0.000000 0.561854 0.750000
Si Si7 0.849460 0.843176 0.910036
O O1 0.658682 0.692673 0.660660
O O2 0.908112 0.618210 0.483413
O O3 0.037303 0.791247 0.506761
O O4 0.833319 0.837149 0.546057
O O5 0.244199 0.472583 0.166329
O O6 0.114966 0.358402 0.262515
O O7 0.241636 0.257692 0.132224
O O8 0.939419 0.987279 0.138409
O O9 0.790606 0.953240 0.958388
O O10 0.010744 0.490733 0.866556
O O11 0.900250 0.121326 0.297891
#
# Coordination Sequence:
#
# PCOD9286889 Si02
#       7
#     8   8   8   4   4   4   8
#     4  11  27  50  85 121 177 237 308 373 471 555
#     4  12  27  50  83 126 177 243 309 384 464 551
#     4  11  24  45  83 124 165 228 304 381 454 545
#     4  12  30  58  86 126 186 252 296 392 470 558
#     4  10  21  44  73 110 154 215 288 371 464 534
#     4  12  31  58  81 126 192 251 320 387 454 550
#     4  11  23  47  75 120 171 221 306 385 451 546
#
# _framework density 28.038976000000002
#
# number of rings (size 3 to 8) (size 9 to 14) (size 15 to 20)
#    0.000    0.727    1.818    5.455    5.091    5.091 
#    0.000    0.909    0.000    0.000    0.000    0.000 
#    0.000    0.000    0.000    0.000    0.000    0.000 
#
# Total GULP energy -122477.853000 kJ/mol
# GULP energy per Si atom -5567.175136 kJ/mol
# Density = 2.797516 g / cm^3
# Si number density = 28.038976 Si / 1000 Ang^3
#
#
#
# Elastic Constant Matrix: (Units=GPa)
#
#
# Indices 1 2 3 4 5 6 
#
# 1 110.7690 62.0583 42.0222 0.0000 15.3514 0.0000
# 2 62.0583 123.3028 69.6137 0.0000 13.4676 0.0000
# 3 42.0222 69.6137 210.5641 0.0000 14.8771 0.0000
# 4 0.0000 0.0000 0.0000 -11.5283 0.0000 -15.2271
# 5 15.3514 13.4676 14.8771 0.0000 33.7563 0.0000
# 6 0.0000 0.0000 0.0000 -15.2271 0.0000 36.1640
#
#
#
# Elastic Compliance Matrix: (Units=1/GPa)
#
#
# Indices 1 2 3 4 5 6 
#
# 1 0.012969 -0.005942 -0.000386 0.000000 -0.003357 0.000000
# 2 -0.005942 0.012921 -0.003006 0.000000 -0.001128 0.000000
# 3 -0.000386 -0.003006 0.005907 0.000000 -0.001228 0.000000
# 4 0.000000 0.000000 0.000000 -0.055742 0.000000 -0.023471
# 5 -0.003357 -0.001128 -0.001228 0.000000 0.032142 0.000000
# 6 0.000000 0.000000 0.000000 -0.023471 0.000000 0.017769
#
#
# Mechanical properties :
#
#
# Convention : Reuss Voigt Hill
#
# Bulk Modulus (GPa) = 76.17927 88.00270 82.09099
# Shear Modulus (GPa) = 102.01497 29.74116 65.87807
#
# Velocity S-wave (km/s) = 6.03840 3.26038 4.85244
# Velocity P-wave (km/s) = 8.70887 6.75481 7.79333
#
# Compressibility (1/GPa) = 0.01312693
#
# Stress axis : x y z
#
# Youngs Moduli (GPa) = 77.10786 77.39106 169.29262
#
# Poissons Ratio (x) = 0.45989 0.06542
# Poissons Ratio (y) = 0.45821 0.50894
# Poissons Ratio (z) = 0.02980 0.23266
#
# Static dielectric constant tensor:
#      x y z
#    x 3.600230 0.000000 0.107920 
#    y 0.000000 2.365950 0.000000 
#    z 0.107920 0.000000 2.122200 
# 
# From -- ./inp_files/95033.got.cif
#   From: 2010.05.17/outbox.cif.g08.bks.cpg/sg15_48_cif.got.tgz:95033.got - 2010.06.03 18:47:42.
