data_PCOD9286528
_publ_section_title
;
Structure prediction by ZEFSAII (Michael W. Deem and Ramdas Pophale) SiO2 
 PCOD9286528
Probable space group: C 2/C
;
_chemical_formula_sum "Si O2"
_cell_formula_units_Z 32
_cell_length_a 15.461378
_cell_length_b 11.714509
_cell_length_c 13.293665
_cell_angle_alpha 90.000000
_cell_angle_beta 145.601090
_cell_angle_gamma 90.000000
_cell_volume 1360.279133
_symmetry_space_group_name_H-M "C 2/C"
_symmetry_group_IT_number 15
_symmetry_cell_setting 'monoclinic'
loop_
_space_group_symop_operation_xyz
x,y,z
-x,y,1/2-z
-x,-y,-z
x,-y,1/2+z
1/2+x,1/2+y,z
1/2-x,1/2+y,1/2-z
1/2-x,1/2-y,-z
1/2+x,1/2-y,1/2+z
loop_
_atom_site_type_symbol
_atom_site_label
_atom_site_fract_x
_atom_site_fract_y
_atom_site_fract_z
Si Si1 0.887838 0.740643 0.353928
Si Si2 0.666555 0.549709 0.799492
Si Si3 0.856873 0.872263 0.001991
Si Si4 0.361989 0.833298 0.045430
O O1 0.796933 0.861339 0.253658
O O2 0.787089 0.639844 0.208668
O O3 0.927121 0.724118 0.506955
O O4 0.033953 0.766423 0.424216
O O5 0.483207 0.526631 0.610145
O O6 0.684898 0.620334 0.921730
O O7 0.763651 0.438535 0.909200
O O8 0.500000 0.869573 0.250000
O O9 0.250000 0.750000 0.000000
#
# Coordination Sequence:
#
# PCOD9286528 Si02
#       4
#     8   8   8   8
#     4  10  21  43  71 103 136 185 234 290 342 422
#     4   9  23  41  70 104 137 180 228 296 348 410
#     4   9  20  41  73 103 137 176 240 286 354 404
#     4  12  28  46  68 104 149 188 232 289 354 419
#
# _framework density 23.524584000000001
#
# number of rings (size 3 to 8) (size 9 to 14) (size 15 to 20)
#    1.500    0.500    0.000    2.250    3.500    5.000 
#    0.000    3.750    0.000    0.000    0.000    0.000 
#    0.000    0.000    0.000    0.000    0.000    0.000 
#
# Total GULP energy -89196.612946 kJ/mol
# GULP energy per Si atom -5574.788309 kJ/mol
# Density = 2.347104 g / cm^3
# Si number density = 23.524584 Si / 1000 Ang^3
#
#
#
# Elastic Constant Matrix: (Units=GPa)
#
#
# Indices 1 2 3 4 5 6 
#
# 1 88.7065 28.1998 22.5769 0.0000 -30.3564 0.0000
# 2 28.1998 76.6592 24.0178 0.0000 -7.2678 0.0000
# 3 22.5769 24.0178 77.7306 0.0000 -15.9445 0.0000
# 4 0.0000 0.0000 0.0000 22.5218 0.0000 2.3823
# 5 -30.3564 -7.2678 -15.9445 0.0000 43.7431 0.0000
# 6 0.0000 0.0000 0.0000 2.3823 0.0000 20.2383
#
#
#
# Elastic Compliance Matrix: (Units=1/GPa)
#
#
# Indices 1 2 3 4 5 6 
#
# 1 0.016622 -0.004747 -0.001250 0.000000 0.010291 0.000000
# 2 -0.004747 0.015827 -0.003943 0.000000 -0.002102 0.000000
# 3 -0.001250 -0.003943 0.015276 0.000000 0.004046 0.000000
# 4 0.000000 0.000000 0.000000 0.044961 0.000000 -0.005292
# 5 0.010291 -0.002102 0.004046 0.000000 0.031128 0.000000
# 6 0.000000 0.000000 0.000000 -0.005292 0.000000 0.050034
#
#
# Mechanical properties :
#
#
# Convention : Reuss Voigt Hill
#
# Bulk Modulus (GPa) = 35.91299 43.63171 39.77235
# Shear Modulus (GPa) = 24.62928 28.52077 26.57502
#
# Velocity S-wave (km/s) = 3.23919 3.48570 3.36470
# Velocity P-wave (km/s) = 5.41194 5.89811 5.66025
#
# Compressibility (1/GPa) = 0.02784508
#
# Stress axis : x y z
#
# Youngs Moduli (GPa) = 60.16080 63.18283 65.46162
#
# Poissons Ratio (x) = 0.29995 0.08184
# Poissons Ratio (y) = 0.28560 0.25809
# Poissons Ratio (z) = 0.07521 0.24911
#
# Static dielectric constant tensor:
#      x y z
#    x 1.898050 0.000000 0.057520 
#    y 0.000000 1.979930 0.000000 
#    z 0.057520 0.000000 1.935490 
# 
# From -- ./inp_files/161476.got.cif
#   From: 2010.05.17/outbox.cif.g08.bks.cpg/sg15_81_cif.got.tgz:161476.got - 2010.06.03 18:47:42.
