data_PCOD9286036
_publ_section_title
;
Structure prediction by ZEFSAII (Michael W. Deem and Ramdas Pophale) SiO2 
 PCOD9286036
Probable space group: C 2/C
;
_chemical_formula_sum "Si O2"
_cell_formula_units_Z 36
_cell_length_a 21.811983
_cell_length_b 8.383061
_cell_length_c 14.675449
_cell_angle_alpha 90.000000
_cell_angle_beta 38.301003
_cell_angle_gamma 90.000000
_cell_volume 1663.166313
_symmetry_space_group_name_H-M "C 2/C"
_symmetry_group_IT_number 15
_symmetry_cell_setting 'monoclinic'
loop_
_space_group_symop_operation_xyz
x,y,z
-x,y,1/2-z
-x,-y,-z
x,-y,1/2+z
1/2+x,1/2+y,z
1/2-x,1/2+y,1/2-z
1/2-x,1/2-y,-z
1/2+x,1/2-y,1/2+z
loop_
_atom_site_type_symbol
_atom_site_label
_atom_site_fract_x
_atom_site_fract_y
_atom_site_fract_z
Si Si1 0.739738 0.589959 0.810842
Si Si2 0.522311 0.517532 0.123634
Si Si3 0.000000 0.701908 0.250000
Si Si4 0.306700 0.575771 0.308333
Si Si5 0.299753 0.916081 0.911895
O O1 0.747533 0.547701 0.696050
O O2 0.788650 0.753109 0.785536
O O3 0.785944 0.453904 0.822133
O O4 0.622143 0.588946 0.968086
O O5 0.500000 0.589241 0.250000
O O6 0.536490 0.328794 0.130233
O O7 0.423207 0.540463 0.181385
O O8 0.912446 0.598341 0.311159
O O9 0.258340 0.551131 0.463577
O O10 0.250000 0.750000 0.000000
#
# Coordination Sequence:
#
# PCOD9286036 Si02
#       5
#     8   8   4   8   8
#     4  12  26  43  69  98 134 174 221 270 327 390
#     4  10  21  42  70  91 134 176 212 267 341 380
#     4  10  22  38  76  94 128 172 220 266 334 382
#     4  12  26  43  69  98 134 174 221 270 327 390
#     4  12  21  44  67  97 131 169 219 267 325 389
#
# _framework density 21.645461000000001
#
# number of rings (size 3 to 8) (size 9 to 14) (size 15 to 20)
#    0.667    0.000    6.667    2.667    0.000    1.778 
#    0.000    2.222    0.000    0.000    0.000    0.000 
#    0.000    0.000    0.000    0.000    0.000    0.000 
#
# Total GULP energy -100625.638446 kJ/mol
# GULP energy per Si atom -5590.313247 kJ/mol
# Density = 2.159619 g / cm^3
# Si number density = 21.645461 Si / 1000 Ang^3
#
#
#
# Elastic Constant Matrix: (Units=GPa)
#
#
# Indices 1 2 3 4 5 6 
#
# 1 161.3497 25.6485 16.2482 0.0000 -18.5412 0.0000
# 2 25.6485 64.9629 -19.2553 0.0000 -0.5401 0.0000
# 3 16.2482 -19.2553 30.6867 0.0000 -5.4446 0.0000
# 4 0.0000 0.0000 0.0000 20.5022 0.0000 1.0215
# 5 -18.5412 -0.5401 -5.4446 0.0000 40.8835 0.0000
# 6 0.0000 0.0000 0.0000 1.0215 0.0000 38.2078
#
#
#
# Elastic Compliance Matrix: (Units=1/GPa)
#
#
# Indices 1 2 3 4 5 6 
#
# 1 0.008051 -0.005260 -0.007096 0.000000 0.002637 0.000000
# 2 -0.005260 0.022488 0.016926 0.000000 0.000166 0.000000
# 3 -0.007096 0.016926 0.047558 0.000000 0.003339 0.000000
# 4 0.000000 0.000000 0.000000 0.048840 0.000000 -0.001306
# 5 0.002637 0.000166 0.003339 0.000000 0.026102 0.000000
# 6 0.000000 0.000000 0.000000 -0.001306 0.000000 0.026208
#
#
# Mechanical properties :
#
#
# Convention : Reuss Voigt Hill
#
# Bulk Modulus (GPa) = 11.46309 33.58690 22.52499
# Shear Modulus (GPa) = 25.10191 35.54254 30.32223
#
# Velocity S-wave (km/s) = 3.40911 4.05660 3.74686
# Velocity P-wave (km/s) = 4.56107 6.12306 5.39885
#
# Compressibility (1/GPa) = 0.08723653
#
# Stress axis : x y z
#
# Youngs Moduli (GPa) = 124.20046 44.46725 21.02710
#
# Poissons Ratio (x) = 0.23391 0.14921
# Poissons Ratio (y) = 0.65332 -0.35590
# Poissons Ratio (z) = 0.88133 -0.75264
#
# Static dielectric constant tensor:
#      x y z
#    x 1.769180 0.000000 0.021110 
#    y 0.000000 1.806800 0.000000 
#    z 0.021110 0.000000 1.786750 
# 
# From -- ./inp_files/166738.got.cif
#   From: 2010.05.17/outbox.cif.g08.bks.cpg/sg15_84_cif.got.tgz:166738.got - 2010.06.03 18:47:42.
