data_PCOD9286446
_publ_section_title
;
Structure prediction by ZEFSAII (Michael W. Deem and Ramdas Pophale) SiO2 
 PCOD9286446
Probable space group: C 2/C
;
_chemical_formula_sum "Si O2"
_cell_formula_units_Z 48
_cell_length_a 11.069714
_cell_length_b 8.196006
_cell_length_c 20.547149
_cell_angle_alpha 90.000000
_cell_angle_beta 113.477070
_cell_angle_gamma 90.000000
_cell_volume 1709.871826
_symmetry_space_group_name_H-M "C 2/C"
_symmetry_group_IT_number 15
_symmetry_cell_setting 'monoclinic'
loop_
_space_group_symop_operation_xyz
x,y,z
-x,y,1/2-z
-x,-y,-z
x,-y,1/2+z
1/2+x,1/2+y,z
1/2-x,1/2+y,1/2-z
1/2-x,1/2-y,-z
1/2+x,1/2-y,1/2+z
loop_
_atom_site_type_symbol
_atom_site_label
_atom_site_fract_x
_atom_site_fract_y
_atom_site_fract_z
Si Si1 0.436583 0.704611 0.655286
Si Si2 0.535821 0.973569 0.145034
Si Si3 0.831405 0.298776 0.928882
Si Si4 0.274709 0.396737 0.293715
Si Si5 0.664361 0.713648 0.114420
Si Si6 0.652197 0.510351 0.984622
O O1 0.587850 0.670870 0.709939
O O2 0.289155 0.664072 0.648057
O O3 0.434245 0.598485 0.588443
O O4 0.431886 0.904154 0.654686
O O5 0.646434 0.928914 0.222517
O O6 0.528547 0.802057 0.106198
O O7 0.571573 0.091047 0.092064
O O8 0.744611 0.220805 0.849974
O O9 0.888446 0.139963 0.977437
O O10 0.765932 0.418558 0.967637
O O11 0.316565 0.570957 0.330313
O O12 0.678743 0.650209 0.043912
#
# Coordination Sequence:
#
# PCOD9286446 Si02
#       6
#     8   8   8   8   8   8
#     4  11  24  44  72  99 131 193 218 279 373 392
#     4  11  23  41  66 100 137 178 235 282 334 416
#     4   9  20  41  69  93 142 174 215 297 328 402
#     4  10  24  43  65  97 139 179 238 279 332 419
#     4  11  23  44  68 101 142 173 226 302 328 421
#     4  10  21  43  69 103 138 174 233 281 354 415
#
# _framework density 28.072279999999999
#
# number of rings (size 3 to 8) (size 9 to 14) (size 15 to 20)
#    0.000    1.667    1.667    2.500    0.000    9.333 
#   12.000    0.000   11.000    0.000    0.000    0.000 
#    0.000    0.000    0.000    0.000    0.000    0.000 
#
# Total GULP energy -133867.478106 kJ/mol
# GULP energy per Si atom -5577.811588 kJ/mol
# Density = 2.800839 g / cm^3
# Si number density = 28.072280 Si / 1000 Ang^3
#
#
#
# Elastic Constant Matrix: (Units=GPa)
#
#
# Indices 1 2 3 4 5 6 
#
# 1 92.6828 5.1841 1.0288 0.0000 4.7676 0.0000
# 2 5.1841 113.3369 23.7509 0.0000 3.7639 0.0000
# 3 1.0288 23.7509 100.8608 0.0000 47.6387 0.0000
# 4 0.0000 0.0000 0.0000 56.3050 0.0000 4.5185
# 5 4.7676 3.7639 47.6387 0.0000 39.8993 0.0000
# 6 0.0000 0.0000 0.0000 4.5185 0.0000 49.2864
#
#
#
# Elastic Compliance Matrix: (Units=1/GPa)
#
#
# Indices 1 2 3 4 5 6 
#
# 1 0.010967 -0.000711 0.001474 0.000000 -0.003004 0.000000
# 2 -0.000711 0.009611 -0.004283 0.000000 0.004293 0.000000
# 3 0.001474 -0.004283 0.024769 0.000000 -0.029345 0.000000
# 4 0.000000 0.000000 0.000000 0.017892 0.000000 -0.001640
# 5 -0.003004 0.004293 -0.029345 0.000000 0.060055 0.000000
# 6 0.000000 0.000000 0.000000 -0.001640 0.000000 0.020440
#
#
# Mechanical properties :
#
#
# Convention : Reuss Voigt Hill
#
# Bulk Modulus (GPa) = 26.10506 40.75645 33.43076
# Shear Modulus (GPa) = 30.57305 47.55925 39.06615
#
# Velocity S-wave (km/s) = 3.30371 4.12050 3.73450
# Velocity P-wave (km/s) = 4.88590 6.09819 5.52539
#
# Compressibility (1/GPa) = 0.03830675
#
# Stress axis : x y z
#
# Youngs Moduli (GPa) = 91.17948 104.04908 40.37349
#
# Poissons Ratio (x) = 0.07396 -0.05952
# Poissons Ratio (y) = 0.06481 0.17294
# Poissons Ratio (z) = -0.13441 0.44569
#
# Static dielectric constant tensor:
#      x y z
#    x 2.276850 0.000000 -0.019500 
#    y 0.000000 2.204050 0.000000 
#    z -0.019500 0.000000 2.267980 
# 
# From -- ./inp_files/272361.got.cif
#   From: 2010.05.17/outbox.cif.g08.bks.cpg/sg15_137_cif.got.tgz:272361.got - 2010.06.03 18:47:42.
