data_PCOD9286016
_publ_section_title
;
Structure prediction by ZEFSAII (Michael W. Deem and Ramdas Pophale) SiO2 
 PCOD9286016
Probable space group: C 2/C
;
_chemical_formula_sum "Si O2"
_cell_formula_units_Z 32
_cell_length_a 22.946115
_cell_length_b 8.422413
_cell_length_c 11.653623
_cell_angle_alpha 90.000000
_cell_angle_beta 30.393921
_cell_angle_gamma 90.000000
_cell_volume 1139.482373
_symmetry_space_group_name_H-M "C 2/C"
_symmetry_group_IT_number 15
_symmetry_cell_setting 'monoclinic'
loop_
_space_group_symop_operation_xyz
x,y,z
-x,y,1/2-z
-x,-y,-z
x,-y,1/2+z
1/2+x,1/2+y,z
1/2-x,1/2+y,1/2-z
1/2-x,1/2-y,-z
1/2+x,1/2-y,1/2+z
loop_
_atom_site_type_symbol
_atom_site_label
_atom_site_fract_x
_atom_site_fract_y
_atom_site_fract_z
Si Si1 0.244705 0.260428 0.726103
Si Si2 0.419743 0.246755 0.641280
Si Si3 0.617643 0.458221 0.585442
Si Si4 0.091073 0.424959 0.700338
O O1 0.328119 0.259482 0.695212
O O2 0.271471 0.430974 0.624753
O O3 0.292351 0.136310 0.553226
O O4 0.128836 0.191399 0.977977
O O5 0.400800 0.395029 0.756137
O O6 0.541117 0.204843 0.374754
O O7 0.397037 0.091207 0.756742
O O8 0.500000 0.546888 0.750000
O O9 0.000000 0.440726 0.750000
#
# Coordination Sequence:
#
# PCOD9286016 Si02
#       4
#     8   8   8   8
#     4  11  25  44  66  98 137 176 224 278 332 397
#     4  10  21  42  69  99 137 177 222 277 334 396
#     4  12  26  45  69  99 137 178 224 276 332 396
#     4   9  19  39  69 101 134 176 224 276 335 397
#
# _framework density 28.082926
#
# number of rings (size 3 to 8) (size 9 to 14) (size 15 to 20)
#    0.000    1.500    0.000    5.250    0.000    8.000 
#    0.000    5.000    0.000    0.000    0.000    0.000 
#    0.000    0.000    0.000    0.000    0.000    0.000 
#
# Total GULP energy -89844.324542 kJ/mol
# GULP energy per Si atom -5615.270284 kJ/mol
# Density = 2.801901 g / cm^3
# Si number density = 28.082926 Si / 1000 Ang^3
#
#
#
# Elastic Constant Matrix: (Units=GPa)
#
#
# Indices 1 2 3 4 5 6 
#
# 1 81.4467 42.1592 30.1538 0.0000 21.5830 0.0000
# 2 42.1592 120.3718 45.8190 0.0000 22.1229 0.0000
# 3 30.1538 45.8190 159.6448 0.0000 25.2278 0.0000
# 4 0.0000 0.0000 0.0000 75.4590 0.0000 21.7724
# 5 21.5830 22.1229 25.2278 0.0000 49.8577 0.0000
# 6 0.0000 0.0000 0.0000 21.7724 0.0000 48.6261
#
#
#
# Elastic Compliance Matrix: (Units=1/GPa)
#
#
# Indices 1 2 3 4 5 6 
#
# 1 0.016155 -0.004425 -0.001072 0.000000 -0.004487 0.000000
# 2 -0.004425 0.010978 -0.002009 0.000000 -0.001939 0.000000
# 3 -0.001072 -0.002009 0.007422 0.000000 -0.002400 0.000000
# 4 0.000000 0.000000 0.000000 0.015218 0.000000 -0.006814
# 5 -0.004487 -0.001939 -0.002400 0.000000 0.024075 0.000000
# 6 0.000000 0.000000 0.000000 -0.006814 0.000000 0.023616
#
#
# Mechanical properties :
#
#
# Convention : Reuss Voigt Hill
#
# Bulk Modulus (GPa) = 51.16828 66.41415 58.79121
# Shear Modulus (GPa) = 42.02012 51.01064 46.51538
#
# Velocity S-wave (km/s) = 3.87238 4.26658 4.07425
# Velocity P-wave (km/s) = 6.18496 6.92620 6.56605
#
# Compressibility (1/GPa) = 0.01954336
#
# Stress axis : x y z
#
# Youngs Moduli (GPa) = 61.90182 91.08718 134.73121
#
# Poissons Ratio (x) = 0.40308 0.14445
# Poissons Ratio (y) = 0.27393 0.27062
# Poissons Ratio (z) = 0.06637 0.18296
#
# Static dielectric constant tensor:
#      x y z
#    x 2.152700 0.000000 -0.013930 
#    y 0.000000 2.202530 0.000000 
#    z -0.013930 0.000000 2.116970 
# 
# From -- ./inp_files/93254.got.cif
#   From: 2010.05.17/outbox.cif.g08.bks.cpg/sg15_47_cif.got.tgz:93254.got - 2010.06.03 18:47:42.
