data_PCOD9286539
_publ_section_title
;
Structure prediction by ZEFSAII (Michael W. Deem and Ramdas Pophale) SiO2 
 PCOD9286539
Probable space group: C 2/C
;
_chemical_formula_sum "Si O2"
_cell_formula_units_Z 56
_cell_length_a 14.335245
_cell_length_b 11.546815
_cell_length_c 18.566967
_cell_angle_alpha 90.000000
_cell_angle_beta 59.485862
_cell_angle_gamma 90.000000
_cell_volume 2647.680270
_symmetry_space_group_name_H-M "C 2/C"
_symmetry_group_IT_number 15
_symmetry_cell_setting 'monoclinic'
loop_
_space_group_symop_operation_xyz
x,y,z
-x,y,1/2-z
-x,-y,-z
x,-y,1/2+z
1/2+x,1/2+y,z
1/2-x,1/2+y,1/2-z
1/2-x,1/2-y,-z
1/2+x,1/2-y,1/2+z
loop_
_atom_site_type_symbol
_atom_site_label
_atom_site_fract_x
_atom_site_fract_y
_atom_site_fract_z
Si Si1 0.074638 0.230779 0.063068
Si Si2 0.674810 0.666087 0.616876
Si Si3 0.254678 0.839577 0.392866
Si Si4 0.012922 0.989977 0.827974
Si Si5 0.319134 0.072711 0.437953
Si Si6 0.533891 0.965577 0.406093
Si Si7 0.255682 0.582825 0.759163
O O1 0.153461 0.275518 0.096199
O O2 0.034680 0.105473 0.100815
O O3 0.982491 0.326836 0.092029
O O4 0.144238 0.220658 0.962641
O O5 0.559558 0.607071 0.642891
O O6 0.681782 0.799441 0.593575
O O7 0.762347 0.590046 0.537904
O O8 0.702837 0.656209 0.689317
O O9 0.272910 0.844235 0.300686
O O10 0.256261 0.973136 0.419311
O O11 0.000000 0.948671 0.750000
O O12 0.137448 0.008383 0.799189
O O13 0.441426 0.027171 0.395437
O O14 0.652776 0.988987 0.328720
O O15 0.500000 0.000000 0.500000
#
# Coordination Sequence:
#
# PCOD9286539 Si02
#       7
#     8   8   8   8   8   8   8
#     4  10  23  43  72  93 140 185 218 279 354 406
#     4  10  21  45  68  95 134 183 216 276 341 404
#     4  10  23  44  68 104 130 176 227 281 335 413
#     4  10  23  43  67  98 136 176 222 285 340 398
#     4  10  21  43  71  91 136 180 224 264 347 410
#     4  11  24  45  68 102 133 182 227 283 343 407
#     4  11  25  44  67 104 136 166 241 282 328 404
#
# _framework density 21.150590000000001
#
# number of rings (size 3 to 8) (size 9 to 14) (size 15 to 20)
#    0.000    1.714    2.857    0.000    2.000    4.571 
#   15.429    0.000    0.000    0.000    0.000    0.000 
#    0.000    0.000    0.000    0.000    0.000    0.000 
#
# Total GULP energy -156370.793890 kJ/mol
# GULP energy per Si atom -5584.671210 kJ/mol
# Density = 2.110245 g / cm^3
# Si number density = 21.150590 Si / 1000 Ang^3
#
#
#
# Elastic Constant Matrix: (Units=GPa)
#
#
# Indices 1 2 3 4 5 6 
#
# 1 67.1190 20.9872 37.7997 0.0000 -20.3999 0.0000
# 2 20.9872 73.1101 24.5653 0.0000 -5.0004 0.0000
# 3 37.7997 24.5653 109.2093 0.0000 -2.5636 0.0000
# 4 0.0000 0.0000 0.0000 20.1512 0.0000 1.3594
# 5 -20.3999 -5.0004 -2.5636 0.0000 40.6060 0.0000
# 6 0.0000 0.0000 0.0000 1.3594 0.0000 -0.0087
#
#
#
# Elastic Compliance Matrix: (Units=1/GPa)
#
#
# Indices 1 2 3 4 5 6 
#
# 1 0.023230 -0.003585 -0.006981 0.000000 0.010788 0.000000
# 2 -0.003585 0.015456 -0.002237 0.000000 -0.000039 0.000000
# 3 -0.006981 -0.002237 0.012005 0.000000 -0.003025 0.000000
# 4 0.000000 0.000000 0.000000 0.004306 0.000000 0.671818
# 5 0.010788 -0.000039 -0.003025 0.000000 0.029851 0.000000
# 6 0.000000 0.000000 0.000000 0.671818 0.000000 -9.959102
#
#
# Mechanical properties :
#
#
# Convention : Reuss Voigt Hill
#
# Bulk Modulus (GPa) = 39.86261 46.23810 43.05035
# Shear Modulus (GPa) = -0.50812 23.22211 11.35700
#
# Velocity S-wave (km/s) = -0.49067 3.31711 2.31975
# Velocity P-wave (km/s) = 4.30894 6.04813 5.25104
#
# Compressibility (1/GPa) = 0.02508617
#
# Stress axis : x y z
#
# Youngs Moduli (GPa) = 43.04717 64.69975 83.29814
#
# Poissons Ratio (x) = 0.23195 0.58149
# Poissons Ratio (y) = 0.15433 0.18631
# Poissons Ratio (z) = 0.30051 0.14471
#
# Static dielectric constant tensor:
#      x y z
#    x 1.771900 0.000000 -0.011950 
#    y 0.000000 1.730820 0.000000 
#    z -0.011950 0.000000 1.779080 
# 
# From -- ./inp_files/204386.got.cif
#   From: 2010.05.17/outbox.cif.g08.bks.cpg/sg15_103_cif.got.tgz:204386.got - 2010.06.03 18:47:42.
