data_PCOD9286256
_publ_section_title
;
Structure prediction by ZEFSAII (Michael W. Deem and Ramdas Pophale) SiO2 
 PCOD9286256
Probable space group: C 2/C
;
_chemical_formula_sum "Si O2"
_cell_formula_units_Z 32
_cell_length_a 8.660527
_cell_length_b 6.872693
_cell_length_c 22.325083
_cell_angle_alpha 90.000000
_cell_angle_beta 69.710658
_cell_angle_gamma 90.000000
_cell_volume 1246.366117
_symmetry_space_group_name_H-M "C 2/C"
_symmetry_group_IT_number 15
_symmetry_cell_setting 'monoclinic'
loop_
_space_group_symop_operation_xyz
x,y,z
-x,y,1/2-z
-x,-y,-z
x,-y,1/2+z
1/2+x,1/2+y,z
1/2-x,1/2+y,1/2-z
1/2-x,1/2-y,-z
1/2+x,1/2-y,1/2+z
loop_
_atom_site_type_symbol
_atom_site_label
_atom_site_fract_x
_atom_site_fract_y
_atom_site_fract_z
Si Si1 0.679493 0.693499 0.213652
Si Si2 0.535257 0.630479 0.052977
Si Si3 0.772662 0.609257 0.330726
Si Si4 0.297572 0.046281 0.591376
O O1 0.500000 0.602533 0.250000
O O2 0.767786 0.707503 0.265997
O O3 0.792433 0.575436 0.152867
O O4 0.643195 0.902255 0.187908
O O5 0.415007 0.563616 0.123545
O O6 0.469143 0.849635 0.053937
O O7 0.716061 0.586680 0.052298
O O8 0.500000 0.500000 0.000000
O O9 0.816803 0.763622 0.376437
#
# Coordination Sequence:
#
# PCOD9286256 Si02
#       4
#     8   8   8   8
#     4  12  21  40  61  97 131 168 217 280 349 419
#     4  10  21  43  65  88 132 179 225 285 343 415
#     4  10  23  36  65  93 128 169 220 273 352 408
#     4  10  22  41  63  95 130 171 226 282 350 417
#
# _framework density 25.674637000000001
#
# number of rings (size 3 to 8) (size 9 to 14) (size 15 to 20)
#    1.500    0.000    5.000    0.750    0.000    3.000 
#    0.000    2.500    0.000    0.000    0.000    0.000 
#    0.000    0.000    0.000    0.000    0.000    0.000 
#
# Total GULP energy -89348.117492 kJ/mol
# GULP energy per Si atom -5584.257343 kJ/mol
# Density = 2.561620 g / cm^3
# Si number density = 25.674637 Si / 1000 Ang^3
#
#
#
# Elastic Constant Matrix: (Units=GPa)
#
#
# Indices 1 2 3 4 5 6 
#
# 1 99.9987 45.4666 51.3613 0.0000 -9.4882 0.0000
# 2 45.4666 129.0183 50.2968 0.0000 -5.7111 0.0000
# 3 51.3613 50.2968 123.2860 0.0000 2.1175 0.0000
# 4 0.0000 0.0000 0.0000 56.4527 0.0000 -2.1251
# 5 -9.4882 -5.7111 2.1175 0.0000 36.4462 0.0000
# 6 0.0000 0.0000 0.0000 -2.1251 0.0000 46.1774
#
#
#
# Elastic Compliance Matrix: (Units=1/GPa)
#
#
# Indices 1 2 3 4 5 6 
#
# 1 0.014110 -0.002977 -0.004724 0.000000 0.003481 0.000000
# 2 -0.002977 0.009947 -0.002834 0.000000 0.000948 0.000000
# 3 -0.004724 -0.002834 0.011275 0.000000 -0.002329 0.000000
# 4 0.000000 0.000000 0.000000 0.017745 0.000000 0.000817
# 5 0.003481 0.000948 -0.002329 0.000000 0.028628 0.000000
# 6 0.000000 0.000000 0.000000 0.000817 0.000000 0.021693
#
#
# Mechanical properties :
#
#
# Convention : Reuss Voigt Hill
#
# Bulk Modulus (GPa) = 70.11153 71.83915 70.97534
# Shear Modulus (GPa) = 38.69329 41.49383 40.09356
#
# Velocity S-wave (km/s) = 3.88630 4.02449 3.95600
# Velocity P-wave (km/s) = 6.89237 7.04533 6.96927
#
# Compressibility (1/GPa) = 0.01426299
#
# Stress axis : x y z
#
# Youngs Moduli (GPa) = 70.87116 100.53571 88.68940
#
# Poissons Ratio (x) = 0.29928 0.41894
# Poissons Ratio (y) = 0.21098 0.25135
# Poissons Ratio (z) = 0.33477 0.28492
#
# Static dielectric constant tensor:
#      x y z
#    x 2.047790 0.000000 -0.008940 
#    y 0.000000 2.063220 0.000000 
#    z -0.008940 0.000000 1.939820 
# 
# From -- ./inp_files/267012.got.cif
#   From: 2010.05.17/outbox.cif.g08.bks.cpg/sg15_134_cif.got.tgz:267012.got - 2010.06.03 18:47:42.
