data_PCOD9286252
_publ_section_title
;
Structure prediction by ZEFSAII (Michael W. Deem and Ramdas Pophale) SiO2 
 PCOD9286252
Probable space group: C 2/C
;
_chemical_formula_sum "Si O2"
_cell_formula_units_Z 40
_cell_length_a 17.043317
_cell_length_b 16.659884
_cell_length_c 5.903322
_cell_angle_alpha 90.000000
_cell_angle_beta 68.393750
_cell_angle_gamma 90.000000
_cell_volume 1558.412297
_symmetry_space_group_name_H-M "C 2/C"
_symmetry_group_IT_number 15
_symmetry_cell_setting 'monoclinic'
loop_
_space_group_symop_operation_xyz
x,y,z
-x,y,1/2-z
-x,-y,-z
x,-y,1/2+z
1/2+x,1/2+y,z
1/2-x,1/2+y,1/2-z
1/2-x,1/2-y,-z
1/2+x,1/2-y,1/2+z
loop_
_atom_site_type_symbol
_atom_site_label
_atom_site_fract_x
_atom_site_fract_y
_atom_site_fract_z
Si Si1 0.127365 0.200038 0.683701
Si Si2 0.405840 0.520898 0.857245
Si Si3 0.674340 0.009436 0.873774
Si Si4 0.200324 0.317909 0.260672
Si Si5 0.418553 0.152066 0.995543
O O1 0.087010 0.116715 0.662855
O O2 0.169611 0.238266 0.416576
O O3 0.202371 0.174532 0.777822
O O4 0.073424 0.273688 0.840751
O O5 0.500000 0.482580 0.750000
O O6 0.369615 0.496856 0.647485
O O7 0.715138 0.994374 0.077824
O O8 0.600987 0.941687 0.929866
O O9 0.652609 0.103711 0.912957
O O10 0.168687 0.322255 0.039471
O O11 0.500000 0.154495 0.750000
#
# Coordination Sequence:
#
# PCOD9286252 Si02
#       5
#     8   8   8   8   8
#     4  11  24  45  69 102 136 190 242 302 363 434
#     4  10  25  46  71 103 138 181 238 301 360 426
#     4  10  21  43  65 100 143 184 232 283 354 425
#     4  10  24  43  67  99 143 185 244 298 356 437
#     4  11  25  41  70 106 145 191 237 305 362 445
#
# _framework density 25.667149999999999
#
# number of rings (size 3 to 8) (size 9 to 14) (size 15 to 20)
#    0.000    1.600    2.000    0.600    5.600    7.200 
#    0.000    0.000    0.000    0.000    0.000    0.000 
#    0.000    0.000    0.000    0.000    0.000    0.000 
#
# Total GULP energy -111472.042648 kJ/mol
# GULP energy per Si atom -5573.602132 kJ/mol
# Density = 2.560873 g / cm^3
# Si number density = 25.667150 Si / 1000 Ang^3
#
#
#
# Elastic Constant Matrix: (Units=GPa)
#
#
# Indices 1 2 3 4 5 6 
#
# 1 58.8482 37.0575 48.8840 0.0000 0.6347 0.0000
# 2 37.0575 191.3017 53.4755 0.0000 1.0309 0.0000
# 3 48.8840 53.4755 159.6205 0.0000 -2.4286 0.0000
# 4 0.0000 0.0000 0.0000 39.2360 0.0000 7.2497
# 5 0.6347 1.0309 -2.4286 0.0000 42.7481 0.0000
# 6 0.0000 0.0000 0.0000 7.2497 0.0000 16.1658
#
#
#
# Elastic Compliance Matrix: (Units=1/GPa)
#
#
# Indices 1 2 3 4 5 6 
#
# 1 0.024167 -0.002875 -0.006448 0.000000 -0.000656 0.000000
# 2 -0.002875 0.006112 -0.001170 0.000000 -0.000171 0.000000
# 3 -0.006448 -0.001170 0.008641 0.000000 0.000615 0.000000
# 4 0.000000 0.000000 0.000000 0.027790 0.000000 -0.012462
# 5 -0.000656 -0.000171 0.000615 0.000000 0.023442 0.000000
# 6 0.000000 0.000000 0.000000 -0.012462 0.000000 0.067448
#
#
# Mechanical properties :
#
#
# Convention : Reuss Voigt Hill
#
# Bulk Modulus (GPa) = 55.76052 76.51160 66.13606
# Shear Modulus (GPa) = 27.09112 37.65354 32.37233
#
# Velocity S-wave (km/s) = 3.25234 3.83429 3.55524
# Velocity P-wave (km/s) = 5.98959 7.03394 6.53267
#
# Compressibility (1/GPa) = 0.01793384
#
# Stress axis : x y z
#
# Youngs Moduli (GPa) = 41.37931 163.60579 115.73136
#
# Poissons Ratio (x) = 0.47045 0.74620
# Poissons Ratio (y) = 0.11899 0.13537
# Poissons Ratio (z) = 0.26680 0.19137
#
# Static dielectric constant tensor:
#      x y z
#    x 2.027410 0.000000 0.029710 
#    y 0.000000 1.978460 0.000000 
#    z 0.029710 0.000000 2.108120 
# 
# From -- ./inp_files/12777.got.cif
#   From: 2010.05.17/outbox.cif.g08.bks.cpg/sg15_7_cif.got.tgz:12777.got - 2010.06.03 18:47:42.
