data_PCOD9286678
_publ_section_title
;
Structure prediction by ZEFSAII (Michael W. Deem and Ramdas Pophale) SiO2 
 PCOD9286678
Probable space group: C 2/C
;
_chemical_formula_sum "Si O2"
_cell_formula_units_Z 36
_cell_length_a 18.262126
_cell_length_b 15.825829
_cell_length_c 11.302542
_cell_angle_alpha 90.000000
_cell_angle_beta 151.718188
_cell_angle_gamma 90.000000
_cell_volume 1547.736239
_symmetry_space_group_name_H-M "C 2/C"
_symmetry_group_IT_number 15
_symmetry_cell_setting 'monoclinic'
loop_
_space_group_symop_operation_xyz
x,y,z
-x,y,1/2-z
-x,-y,-z
x,-y,1/2+z
1/2+x,1/2+y,z
1/2-x,1/2+y,1/2-z
1/2-x,1/2-y,-z
1/2+x,1/2-y,1/2+z
loop_
_atom_site_type_symbol
_atom_site_label
_atom_site_fract_x
_atom_site_fract_y
_atom_site_fract_z
Si Si1 0.500000 0.844607 0.250000
Si Si2 0.712415 0.531996 0.322111
Si Si3 0.595732 0.407280 0.004441
Si Si4 0.649123 0.372155 0.393660
Si Si5 0.623313 0.755946 0.646937
O O1 0.650433 0.903649 0.464843
O O2 0.503473 0.792040 0.378805
O O3 0.549223 0.579157 0.111306
O O4 0.719237 0.450631 0.419920
O O5 0.705371 0.486460 0.184545
O O6 0.500000 0.401410 0.750000
O O7 0.690734 0.322487 0.166139
O O8 0.500000 0.403281 0.250000
O O9 0.593669 0.294755 0.227946
O O10 0.767046 0.330632 0.654131
#
# Coordination Sequence:
#
# PCOD9286678 Si02
#       5
#     4   8   8   8   8
#     4  12  26  44  62 112 140 166 226 280 342 398
#     4  10  25  41  68  97 134 180 223 273 340 395
#     4  10  21  44  65  94 126 185 228 269 333 404
#     4  10  23  48  71  97 132 183 229 270 334 408
#     4  10  24  42  68 102 132 176 219 284 336 383
#
# _framework density 23.259775999999999
#
# number of rings (size 3 to 8) (size 9 to 14) (size 15 to 20)
#    0.000    1.778    1.111    0.667   12.444    3.556 
#   18.000    0.000    0.000    0.000    0.000    0.000 
#    0.000    0.000    0.000    0.000    0.000    0.000 
#
# Total GULP energy -100340.502639 kJ/mol
# GULP energy per Si atom -5574.472369 kJ/mol
# Density = 2.320684 g / cm^3
# Si number density = 23.259776 Si / 1000 Ang^3
#
#
#
# Elastic Constant Matrix: (Units=GPa)
#
#
# Indices 1 2 3 4 5 6 
#
# 1 35.8208 10.7561 16.7220 0.0000 -23.6188 0.0000
# 2 10.7561 121.0611 50.1342 0.0000 -15.3861 0.0000
# 3 16.7220 50.1342 119.7170 0.0000 -44.7937 0.0000
# 4 0.0000 0.0000 0.0000 73.9746 0.0000 -11.4844
# 5 -23.6188 -15.3861 -44.7937 0.0000 43.9601 0.0000
# 6 0.0000 0.0000 0.0000 -11.4844 0.0000 14.8471
#
#
#
# Elastic Compliance Matrix: (Units=1/GPa)
#
#
# Indices 1 2 3 4 5 6 
#
# 1 0.045346 -0.002688 0.005746 0.000000 0.029278 0.000000
# 2 -0.002688 0.010195 -0.005009 0.000000 -0.002979 0.000000
# 3 0.005746 -0.005009 0.016400 0.000000 0.018045 0.000000
# 4 0.000000 0.000000 0.000000 0.015363 0.000000 0.011883
# 5 0.029278 -0.002979 0.018045 0.000000 0.055823 0.000000
# 6 0.000000 0.000000 0.000000 0.011883 0.000000 0.076545
#
#
# Mechanical properties :
#
#
# Convention : Reuss Voigt Hill
#
# Bulk Modulus (GPa) = 14.69712 47.98037 31.33875
# Shear Modulus (GPa) = 20.30451 39.82214 30.06333
#
# Velocity S-wave (km/s) = 2.95777 4.14219 3.59904
# Velocity P-wave (km/s) = 4.24228 6.59923 5.54738
#
# Compressibility (1/GPa) = 0.06804055
#
# Stress axis : x y z
#
# Youngs Moduli (GPa) = 22.05267 98.09121 60.97699
#
# Poissons Ratio (x) = 0.26363 -0.35040
# Poissons Ratio (y) = 0.05927 0.30541
# Poissons Ratio (z) = -0.12672 0.49130
#
# Static dielectric constant tensor:
#      x y z
#    x 1.957540 0.000000 -0.129100 
#    y 0.000000 1.913030 0.000000 
#    z -0.129100 0.000000 1.924410 
# 
# From -- ./inp_files/112578.got.cif
#   From: 2010.05.17/outbox.cif.g08.bks.cpg/sg15_57_cif.got.tgz:112578.got - 2010.06.03 18:47:42.
