data_PCOD9286287
_publ_section_title
;
Structure prediction by ZEFSAII (Michael W. Deem and Ramdas Pophale) SiO2 
 PCOD9286287
Probable space group: C 2/C
;
_chemical_formula_sum "Si O2"
_cell_formula_units_Z 44
_cell_length_a 5.405037
_cell_length_b 24.249804
_cell_length_c 15.107340
_cell_angle_alpha 90.000000
_cell_angle_beta 68.885687
_cell_angle_gamma 90.000000
_cell_volume 1847.196271
_symmetry_space_group_name_H-M "C 2/C"
_symmetry_group_IT_number 15
_symmetry_cell_setting 'monoclinic'
loop_
_space_group_symop_operation_xyz
x,y,z
-x,y,1/2-z
-x,-y,-z
x,-y,1/2+z
1/2+x,1/2+y,z
1/2-x,1/2+y,1/2-z
1/2-x,1/2-y,-z
1/2+x,1/2-y,1/2+z
loop_
_atom_site_type_symbol
_atom_site_label
_atom_site_fract_x
_atom_site_fract_y
_atom_site_fract_z
Si Si1 0.219264 0.469335 0.533879
Si Si2 0.124375 0.626306 0.919655
Si Si3 0.226109 0.696885 0.441570
Si Si4 0.000000 0.573169 0.250000
Si Si5 0.993878 0.227212 0.651590
Si Si6 0.500000 0.354291 0.750000
Si Si7 0.500000 0.148079 0.750000
O O1 0.500000 0.500000 0.500000
O O2 0.259778 0.413547 0.471656
O O3 0.114089 0.458910 0.647874
O O4 0.000000 0.500000 0.500000
O O5 0.275288 0.684354 0.895904
O O6 0.101604 0.611424 0.819155
O O7 0.840060 0.641951 0.997092
O O8 0.250000 0.750000 0.500000
O O9 0.992287 0.718635 0.408467
O O10 0.451067 0.683614 0.342078
O O11 0.756892 0.608827 0.240171
O O12 0.727896 0.188879 0.682781
O O13 0.000000 0.246865 0.750000
#
# Coordination Sequence:
#
# PCOD9286287 Si02
#       7
#     8   8   8   4   8   4   4
#     4  12  30  54  85 114 150 199 270 337 410 478
#     4  11  25  45  72 108 148 208 251 330 386 469
#     4  12  25  40  74 108 157 211 263 306 384 466
#     4  12  28  57  82 115 156 207 268 333 412 476
#     4  10  23  40  64 103 151 199 253 307 370 461
#     4  12  29  48  80 111 168 215 254 324 387 470
#     4  10  21  43  66 104 154 186 256 303 387 456
#
# _framework density 23.819883999999998
#
# number of rings (size 3 to 8) (size 9 to 14) (size 15 to 20)
#    0.000    0.727    3.636    2.182    8.909    0.727 
#    6.545    0.000    0.000    0.000    0.000    0.000 
#    0.000    0.000    0.000    0.000    0.000    0.000 
#
# Total GULP energy -122918.059137 kJ/mol
# GULP energy per Si atom -5587.184506 kJ/mol
# Density = 2.376567 g / cm^3
# Si number density = 23.819884 Si / 1000 Ang^3
#
#
#
# Elastic Constant Matrix: (Units=GPa)
#
#
# Indices 1 2 3 4 5 6 
#
# 1 116.3904 38.3895 61.5512 0.0000 6.1900 0.0000
# 2 38.3895 67.8447 69.8980 0.0000 12.7704 0.0000
# 3 61.5512 69.8980 210.4609 0.0000 19.8209 0.0000
# 4 0.0000 0.0000 0.0000 20.8388 0.0000 15.9408
# 5 6.1900 12.7704 19.8209 0.0000 40.6359 0.0000
# 6 0.0000 0.0000 0.0000 15.9408 0.0000 40.9387
#
#
#
# Elastic Compliance Matrix: (Units=1/GPa)
#
#
# Indices 1 2 3 4 5 6 
#
# 1 0.010982 -0.004500 -0.001774 0.000000 0.000607 0.000000
# 2 -0.004500 0.024758 -0.006538 0.000000 -0.003906 0.000000
# 3 -0.001774 -0.006538 0.007571 0.000000 -0.001368 0.000000
# 4 0.000000 0.000000 0.000000 0.068345 0.000000 -0.026612
# 5 0.000607 -0.003906 -0.001368 0.000000 0.026411 0.000000
# 6 0.000000 0.000000 0.000000 -0.026612 0.000000 0.034789
#
#
# Mechanical properties :
#
#
# Convention : Reuss Voigt Hill
#
# Bulk Modulus (GPa) = 56.54784 81.59704 69.07244
# Shear Modulus (GPa) = 24.46466 35.47315 29.96890
#
# Velocity S-wave (km/s) = 3.20827 3.86323 3.55088
# Velocity P-wave (km/s) = 6.12497 7.36408 6.77292
#
# Compressibility (1/GPa) = 0.01768414
#
# Stress axis : x y z
#
# Youngs Moduli (GPa) = 91.05627 40.39171 132.08743
#
# Poissons Ratio (x) = 0.18178 0.23437
# Poissons Ratio (y) = 0.40979 0.86365
# Poissons Ratio (z) = 0.16156 0.26410
#
# Static dielectric constant tensor:
#      x y z
#    x 2.025110 0.000000 -0.006020 
#    y 0.000000 1.915180 0.000000 
#    z -0.006020 0.000000 1.929800 
# 
# From -- ./inp_files/129512.got.cif
#   From: 2010.05.17/outbox.cif.g08.bks.cpg/sg15_65_cif.got.tgz:129512.got - 2010.06.03 18:47:42.
