data_PCOD9286491
_publ_section_title
;
Structure prediction by ZEFSAII (Michael W. Deem and Ramdas Pophale) SiO2 
 PCOD9286491
Probable space group: C 2/C
;
_chemical_formula_sum "Si O2"
_cell_formula_units_Z 40
_cell_length_a 14.555166
_cell_length_b 4.931377
_cell_length_c 22.937446
_cell_angle_alpha 90.000000
_cell_angle_beta 116.305909
_cell_angle_gamma 90.000000
_cell_volume 1475.883265
_symmetry_space_group_name_H-M "C 2/C"
_symmetry_group_IT_number 15
_symmetry_cell_setting 'monoclinic'
loop_
_space_group_symop_operation_xyz
x,y,z
-x,y,1/2-z
-x,-y,-z
x,-y,1/2+z
1/2+x,1/2+y,z
1/2-x,1/2+y,1/2-z
1/2-x,1/2-y,-z
1/2+x,1/2-y,1/2+z
loop_
_atom_site_type_symbol
_atom_site_label
_atom_site_fract_x
_atom_site_fract_y
_atom_site_fract_z
Si Si1 0.500000 0.179449 0.250000
Si Si2 0.101844 0.763675 0.488894
Si Si3 0.895605 0.371756 0.117101
Si Si4 0.421737 0.619219 0.396481
Si Si5 0.250000 0.750000 0.000000
Si Si6 0.688956 0.327322 0.224739
O O1 0.581838 0.328831 0.230720
O O2 0.421939 0.021196 0.184061
O O3 0.139887 0.531148 0.454839
O O4 0.095570 0.685898 0.554052
O O5 0.170861 0.030324 0.507962
O O6 0.992827 0.869018 0.437047
O O7 0.804721 0.160562 0.083510
O O8 0.006026 0.263971 0.129864
O O9 0.325980 0.485241 0.339866
O O10 0.773349 0.524570 0.276878
#
# Coordination Sequence:
#
# PCOD9286491 Si02
#       6
#     4   8   8   8   4   8
#     4  12  28  52  80 110 172 202 274 348 412 492
#     4  10  21  43  70 101 147 196 258 333 390 477
#     4  11  23  47  70 110 149 218 255 338 415 477
#     4  10  23  44  70 104 147 197 265 325 397 470
#     4  10  24  40  70 110 148 198 276 316 410 474
#     4  12  29  52  80 120 159 220 274 327 417 499
#
# _framework density 27.102415000000001
#
# number of rings (size 3 to 8) (size 9 to 14) (size 15 to 20)
#    0.000    1.200    2.000    2.400    2.800    4.800 
#    0.000    0.000    0.000    0.000    0.000    0.000 
#    0.000    0.000    0.000    0.000    0.000    0.000 
#
# Total GULP energy -111444.134129 kJ/mol
# GULP energy per Si atom -5572.206706 kJ/mol
# Density = 2.704073 g / cm^3
# Si number density = 27.102415 Si / 1000 Ang^3
#
#
#
# Elastic Constant Matrix: (Units=GPa)
#
#
# Indices 1 2 3 4 5 6 
#
# 1 92.8794 38.0735 17.6834 0.0000 11.0538 0.0000
# 2 38.0735 73.6503 11.8478 0.0001 -11.2906 0.0000
# 3 17.6834 11.8478 148.3393 0.0000 0.5838 -0.0001
# 4 0.0000 0.0001 0.0000 24.0623 0.0000 2.3822
# 5 11.0538 -11.2906 0.5838 0.0000 43.4770 0.0000
# 6 0.0000 0.0000 -0.0001 2.3822 0.0000 49.1546
#
#
#
# Elastic Compliance Matrix: (Units=1/GPa)
#
#
# Indices 1 2 3 4 5 6 
#
# 1 0.015245 -0.008639 -0.001103 0.000000 -0.006104 0.000000
# 2 -0.008639 0.019233 -0.000535 0.000000 0.007198 0.000000
# 3 -0.001103 -0.000535 0.006915 0.000000 0.000049 0.000000
# 4 0.000000 0.000000 0.000000 0.041759 0.000000 -0.002024
# 5 -0.006104 0.007198 0.000049 0.000000 0.026421 0.000000
# 6 0.000000 0.000000 0.000000 -0.002024 0.000000 0.020442
#
#
# Mechanical properties :
#
#
# Convention : Reuss Voigt Hill
#
# Bulk Modulus (GPa) = 47.98653 50.00872 48.99763
# Shear Modulus (GPa) = 31.74286 39.82307 35.78296
#
# Velocity S-wave (km/s) = 3.42602 3.83738 3.63752
# Velocity P-wave (km/s) = 5.77877 6.17460 5.97997
#
# Compressibility (1/GPa) = 0.02083918
#
# Stress axis : x y z
#
# Youngs Moduli (GPa) = 65.59720 51.99371 144.60624
#
# Poissons Ratio (x) = 0.44917 0.15954
# Poissons Ratio (y) = 0.56669 0.07731
# Poissons Ratio (z) = 0.07237 0.02780
#
# Static dielectric constant tensor:
#      x y z
#    x 5.921560 0.000010 1.203820 
#    y 0.000010 5.655860 0.000000 
#    z 1.203820 0.000000 2.668050 
# 
# From -- ./inp_files/271998.got.cif
#   From: 2010.05.17/outbox.cif.g08.bks.cpg/sg15_136_cif.got.tgz:271998.got - 2010.06.03 18:47:42.
