data_PCOD9286513
_publ_section_title
;
Structure prediction by ZEFSAII (Michael W. Deem and Ramdas Pophale) SiO2 
 PCOD9286513
Probable space group: C 2/C
;
_chemical_formula_sum "Si O2"
_cell_formula_units_Z 64
_cell_length_a 11.259506
_cell_length_b 13.708301
_cell_length_c 28.895588
_cell_angle_alpha 90.000000
_cell_angle_beta 140.289325
_cell_angle_gamma 90.000000
_cell_volume 2849.541436
_symmetry_space_group_name_H-M "C 2/C"
_symmetry_group_IT_number 15
_symmetry_cell_setting 'monoclinic'
loop_
_space_group_symop_operation_xyz
x,y,z
-x,y,1/2-z
-x,-y,-z
x,-y,1/2+z
1/2+x,1/2+y,z
1/2-x,1/2+y,1/2-z
1/2-x,1/2-y,-z
1/2+x,1/2-y,1/2+z
loop_
_atom_site_type_symbol
_atom_site_label
_atom_site_fract_x
_atom_site_fract_y
_atom_site_fract_z
Si Si1 0.294414 0.632586 0.684781
Si Si2 0.617770 0.950691 0.827370
Si Si3 0.019055 0.852508 0.959491
Si Si4 0.495000 0.789503 0.589541
Si Si5 0.263960 0.647130 0.890385
Si Si6 0.229763 0.572186 0.213147
Si Si7 0.309408 0.185903 0.943951
Si Si8 0.517664 0.291832 0.648277
O O1 0.500000 0.675340 0.750000
O O2 0.294717 0.529379 0.711148
O O3 0.251843 0.619267 0.617197
O O4 0.156046 0.709895 0.667652
O O5 0.500000 0.906909 0.750000
O O6 0.666331 0.062975 0.832467
O O7 0.816854 0.901753 0.894751
O O8 0.472248 0.948240 0.825246
O O9 0.973126 0.749083 0.969637
O O10 0.086071 0.838019 0.927362
O O11 0.160576 0.898857 0.038447
O O12 0.564737 0.689469 0.587148
O O13 0.676380 0.847135 0.659372
O O14 0.386354 0.848819 0.516738
O O15 0.359846 0.756884 0.590678
O O16 0.122889 0.732710 0.861677
O O17 0.369251 0.624250 0.290823
#
# Coordination Sequence:
#
# PCOD9286513 Si02
#       8
#     8   8   8   8   8   8   8   8
#     4  11  25  42  67  94 131 177 230 277 337 406
#     4  12  24  42  65 100 132 174 230 278 329 404
#     4  10  21  43  70  97 129 178 223 277 336 407
#     4  10  22  40  68  93 131 175 218 275 335 405
#     4  11  25  42  66  98 138 171 219 281 345 394
#     4  12  25  42  64  97 134 172 224 283 339 398
#     4   9  20  42  67  94 124 178 227 263 335 406
#     4  11  24  43  69  96 133 176 222 281 338 407
#
# _framework density 22.459752999999999
#
# number of rings (size 3 to 8) (size 9 to 14) (size 15 to 20)
#    0.000    1.250    3.750    1.500    5.250    1.500 
#    0.000    0.000    0.000    0.000    0.000    0.000 
#    0.000    0.000    0.000    0.000    0.000    0.000 
#
# Total GULP energy -178648.237816 kJ/mol
# GULP energy per Si atom -5582.757432 kJ/mol
# Density = 2.240863 g / cm^3
# Si number density = 22.459753 Si / 1000 Ang^3
#
#
#
# Elastic Constant Matrix: (Units=GPa)
#
#
# Indices 1 2 3 4 5 6 
#
# 1 79.7185 15.4166 1.2383 0.0000 -0.9862 0.0000
# 2 15.4166 58.2151 29.8665 0.0000 -14.3838 0.0000
# 3 1.2383 29.8665 89.7419 0.0000 -7.7623 0.0000
# 4 0.0000 0.0000 0.0000 7.8054 0.0000 3.6697
# 5 -0.9862 -14.3838 -7.7623 0.0000 31.3511 0.0000
# 6 0.0000 0.0000 0.0000 3.6697 0.0000 22.0981
#
#
#
# Elastic Compliance Matrix: (Units=1/GPa)
#
#
# Indices 1 2 3 4 5 6 
#
# 1 0.013376 -0.004486 0.001192 0.000000 -0.001342 0.000000
# 2 -0.004486 0.024368 -0.007248 0.000000 0.009244 0.000000
# 3 0.001192 -0.007248 0.013545 0.000000 0.000065 0.000000
# 4 0.000000 0.000000 0.000000 0.138966 0.000000 -0.023077
# 5 -0.001342 0.009244 0.000065 0.000000 0.036112 0.000000
# 6 0.000000 0.000000 0.000000 -0.023077 0.000000 0.049085
#
#
# Mechanical properties :
#
#
# Convention : Reuss Voigt Hill
#
# Bulk Modulus (GPa) = 33.10628 35.63536 34.37082
# Shear Modulus (GPa) = 16.30765 24.32787 20.31776
#
# Velocity S-wave (km/s) = 2.69752 3.29473 3.01097
# Velocity P-wave (km/s) = 4.94716 5.51130 5.23683
#
# Compressibility (1/GPa) = 0.03020575
#
# Stress axis : x y z
#
# Youngs Moduli (GPa) = 74.75804 41.03686 73.83025
#
# Poissons Ratio (x) = 0.18407 -0.08802
# Poissons Ratio (y) = 0.33533 0.53515
# Poissons Ratio (z) = -0.08912 0.29745
#
# Static dielectric constant tensor:
#      x y z
#    x 1.821830 0.000000 -0.029440 
#    y 0.000000 1.834950 0.000000 
#    z -0.029440 0.000000 1.924310 
# 
# From -- ./inp_files/293099.got.cif
#   From: 2010.05.17/outbox.cif.g08.bks.cpg/sg15_147_cif.got.tgz:293099.got - 2010.06.03 18:47:42.
