data_PCOD9286787
_publ_section_title
;
Structure prediction by ZEFSAII (Michael W. Deem and Ramdas Pophale) SiO2 
 PCOD9286787
Probable space group: C 2/C
;
_chemical_formula_sum "Si O2"
_cell_formula_units_Z 48
_cell_length_a 14.190560
_cell_length_b 25.123948
_cell_length_c 9.355550
_cell_angle_alpha 90.000000
_cell_angle_beta 139.460107
_cell_angle_gamma 90.000000
_cell_volume 2167.978429
_symmetry_space_group_name_H-M "C 2/C"
_symmetry_group_IT_number 15
_symmetry_cell_setting 'monoclinic'
loop_
_space_group_symop_operation_xyz
x,y,z
-x,y,1/2-z
-x,-y,-z
x,-y,1/2+z
1/2+x,1/2+y,z
1/2-x,1/2+y,1/2-z
1/2-x,1/2-y,-z
1/2+x,1/2-y,1/2+z
loop_
_atom_site_type_symbol
_atom_site_label
_atom_site_fract_x
_atom_site_fract_y
_atom_site_fract_z
Si Si1 0.945891 0.144908 0.342240
Si Si2 0.064817 0.048622 0.663654
Si Si3 0.867328 0.384643 0.992717
Si Si4 0.358224 0.831651 0.681708
Si Si5 0.895216 0.211794 0.766243
Si Si6 0.889179 0.491309 0.505655
O O1 0.774698 0.147893 0.131258
O O2 0.000000 0.129586 0.250000
O O3 0.993579 0.100403 0.510732
O O4 0.019354 0.196707 0.493017
O O5 0.000000 0.045307 0.750000
O O6 0.000000 0.000000 0.500000
O O7 0.239915 0.042598 0.840360
O O8 0.879399 0.371765 0.837576
O O9 0.841792 0.447813 0.986277
O O10 0.000000 0.370550 0.250000
O O11 0.500000 0.833280 0.750000
O O12 0.223347 0.832510 0.416484
O O13 0.336693 0.771568 0.718551
O O14 0.000000 0.213227 0.750000
O O15 0.000000 0.469216 0.750000
O O16 0.000000 0.500000 0.500000
#
# Coordination Sequence:
#
# PCOD9286787 Si02
#       6
#     8   8   8   8   8   8
#     4  12  27  44  70  99 137 180 231 280 334 407
#     4  12  25  44  71 100 135 182 233 279 339 405
#     4  11  26  45  65  98 140 174 221 282 342 408
#     4  10  23  42  71  99 134 174 221 280 341 408
#     4  10  21  44  69 100 132 172 228 280 334 406
#     4  11  26  43  66  96 135 173 223 282 337 398
#
# _framework density 22.140440999999999
#
# number of rings (size 3 to 8) (size 9 to 14) (size 15 to 20)
#    0.000    1.000    3.333    2.000    7.000    1.333 
#    0.000    1.667    0.000    0.000    0.000    0.000 
#    0.000    0.000    0.000    0.000    0.000    0.000 
#
# Total GULP energy -133969.063148 kJ/mol
# GULP energy per Si atom -5582.044298 kJ/mol
# Density = 2.209005 g / cm^3
# Si number density = 22.140441 Si / 1000 Ang^3
#
#
#
# Elastic Constant Matrix: (Units=GPa)
#
#
# Indices 1 2 3 4 5 6 
#
# 1 124.2453 -15.9250 42.5808 0.0000 -0.8369 0.0000
# 2 -15.9250 53.5236 22.2635 0.0000 -1.8443 0.0000
# 3 42.5808 22.2635 145.5305 0.0000 22.0045 0.0000
# 4 0.0000 0.0000 0.0000 38.9363 0.0000 1.4884
# 5 -0.8369 -1.8443 22.0045 0.0000 46.8652 0.0000
# 6 0.0000 0.0000 0.0000 1.4884 0.0000 10.0241
#
#
#
# Elastic Compliance Matrix: (Units=1/GPa)
#
#
# Indices 1 2 3 4 5 6 
#
# 1 0.010041 0.004729 -0.004001 0.000000 0.002244 0.000000
# 2 0.004729 0.022432 -0.005341 0.000000 0.003475 0.000000
# 3 -0.004001 -0.005341 0.009582 0.000000 -0.004781 0.000000
# 4 0.000000 0.000000 0.000000 0.025830 0.000000 -0.003835
# 5 0.002244 0.003475 -0.004781 0.000000 0.023759 0.000000
# 6 0.000000 0.000000 0.000000 -0.003835 0.000000 0.100329
#
#
# Mechanical properties :
#
#
# Convention : Reuss Voigt Hill
#
# Bulk Modulus (GPa) = 30.46038 46.79310 38.62674
# Shear Modulus (GPa) = 23.56937 37.45714 30.51326
#
# Velocity S-wave (km/s) = 3.26627 4.11761 3.71640
# Velocity P-wave (km/s) = 5.29267 6.61716 5.99163
#
# Compressibility (1/GPa) = 0.03282954
#
# Stress axis : x y z
#
# Youngs Moduli (GPa) = 99.59298 44.58013 104.36486
#
# Poissons Ratio (x) = -0.21081 0.41752
# Poissons Ratio (y) = -0.47096 0.55737
# Poissons Ratio (z) = 0.39843 0.23809
#
# Static dielectric constant tensor:
#      x y z
#    x 1.832560 0.000000 0.146940 
#    y 0.000000 1.855200 0.000000 
#    z 0.146940 0.000000 1.993940 
# 
# From -- ./inp_files/43956.got.cif
#   From: 2010.05.17/outbox.cif.g08.bks.cpg/sg15_22_cif.got.tgz:43956.got - 2010.06.03 18:47:42.
