data_PCOD9286789
_publ_section_title
;
Structure prediction by ZEFSAII (Michael W. Deem and Ramdas Pophale) SiO2 
 PCOD9286789
Probable space group: C 2/C
;
_chemical_formula_sum "Si O2"
_cell_formula_units_Z 40
_cell_length_a 24.026431
_cell_length_b 6.416391
_cell_length_c 11.828082
_cell_angle_alpha 90.000000
_cell_angle_beta 72.076384
_cell_angle_gamma 90.000000
_cell_volume 1734.955869
_symmetry_space_group_name_H-M "C 2/C"
_symmetry_group_IT_number 15
_symmetry_cell_setting 'monoclinic'
loop_
_space_group_symop_operation_xyz
x,y,z
-x,y,1/2-z
-x,-y,-z
x,-y,1/2+z
1/2+x,1/2+y,z
1/2-x,1/2+y,1/2-z
1/2-x,1/2-y,-z
1/2+x,1/2-y,1/2+z
loop_
_atom_site_type_symbol
_atom_site_label
_atom_site_fract_x
_atom_site_fract_y
_atom_site_fract_z
Si Si1 0.724792 0.918408 0.929575
Si Si2 0.585571 0.433791 0.924527
Si Si3 0.019373 0.316777 0.072367
Si Si4 0.821807 0.832345 0.253447
Si Si5 0.391991 0.890737 0.891194
O O1 0.708517 0.807935 0.821958
O O2 0.773938 0.089962 0.872526
O O3 0.750000 0.750000 0.000000
O O4 0.665792 0.007824 0.019221
O O5 0.537877 0.325429 0.872734
O O6 0.647093 0.470265 0.825269
O O7 0.562472 0.657597 0.980488
O O8 0.590437 0.292633 0.033177
O O9 0.056914 0.437380 0.143079
O O10 0.000000 0.500000 0.000000
O O11 0.872874 0.705505 0.284625
#
# Coordination Sequence:
#
# PCOD9286789 Si02
#       5
#     8   8   8   8   8
#     4  12  25  45  69  99 141 179 230 293 341 412
#     4  10  21  44  69 101 138 177 227 286 337 409
#     4   9  20  43  72  95 139 177 220 291 336 392
#     4  12  24  41  71 104 134 186 234 272 354 412
#     4  11  23  43  70 100 138 181 224 286 342 404
#
# _framework density 23.055340000000001
#
# number of rings (size 3 to 8) (size 9 to 14) (size 15 to 20)
#    0.000    1.200    2.000    4.200    0.000    0.000 
#    0.000   11.000    0.000    0.000    0.000    0.000 
#    0.000    0.000    0.000    0.000    0.000    0.000 
#
# Total GULP energy -111979.256592 kJ/mol
# GULP energy per Si atom -5598.962830 kJ/mol
# Density = 2.300286 g / cm^3
# Si number density = 23.055340 Si / 1000 Ang^3
#
#
#
# Elastic Constant Matrix: (Units=GPa)
#
#
# Indices 1 2 3 4 5 6 
#
# 1 107.6427 46.4962 26.8146 0.0000 20.1007 0.0000
# 2 46.4962 108.0560 33.9426 0.0000 17.9449 0.0000
# 3 26.8146 33.9426 68.4505 0.0000 23.6440 0.0000
# 4 0.0000 0.0000 0.0000 32.0659 0.0000 -0.6462
# 5 20.1007 17.9449 23.6440 0.0000 48.7544 0.0000
# 6 0.0000 0.0000 0.0000 -0.6462 0.0000 63.8656
#
#
#
# Elastic Compliance Matrix: (Units=1/GPa)
#
#
# Indices 1 2 3 4 5 6 
#
# 1 0.012016 -0.004198 -0.001739 0.000000 -0.002565 0.000000
# 2 -0.004198 0.012544 -0.004299 0.000000 -0.000802 0.000000
# 3 -0.001739 -0.004299 0.019974 0.000000 -0.007387 0.000000
# 4 0.000000 0.000000 0.000000 0.031192 0.000000 0.000316
# 5 -0.002565 -0.000802 -0.007387 0.000000 0.025446 0.000000
# 6 0.000000 0.000000 0.000000 0.000316 0.000000 0.015661
#
#
# Mechanical properties :
#
#
# Convention : Reuss Voigt Hill
#
# Bulk Modulus (GPa) = 41.56032 55.40621 48.48326
# Shear Modulus (GPa) = 34.40544 40.73024 37.56784
#
# Velocity S-wave (km/s) = 3.86722 4.20769 4.04104
# Velocity P-wave (km/s) = 6.16490 6.90581 6.54584
#
# Compressibility (1/GPa) = 0.02406142
#
# Stress axis : x y z
#
# Youngs Moduli (GPa) = 83.22543 79.71717 50.06546
#
# Poissons Ratio (x) = 0.33465 0.08707
# Poissons Ratio (y) = 0.34937 0.21523
# Poissons Ratio (z) = 0.14475 0.34271
#
# Static dielectric constant tensor:
#      x y z
#    x 1.848880 0.000000 0.023240 
#    y 0.000000 1.835570 0.000000 
#    z 0.023240 0.000000 1.835590 
# 
# From -- ./inp_files/120739.got.cif
#   From: 2010.05.17/outbox.cif.g08.bks.cpg/sg15_61_cif.got.tgz:120739.got - 2010.06.03 18:47:42.
