data_PCOD9286804
_publ_section_title
;
Structure prediction by ZEFSAII (Michael W. Deem and Ramdas Pophale) SiO2 
 PCOD9286804
Probable space group: C 2/C
;
_chemical_formula_sum "Si O2"
_cell_formula_units_Z 44
_cell_length_a 11.325746
_cell_length_b 16.127645
_cell_length_c 16.600697
_cell_angle_alpha 90.000000
_cell_angle_beta 141.276565
_cell_angle_gamma 90.000000
_cell_volume 1896.855840
_symmetry_space_group_name_H-M "C 2/C"
_symmetry_group_IT_number 15
_symmetry_cell_setting 'monoclinic'
loop_
_space_group_symop_operation_xyz
x,y,z
-x,y,1/2-z
-x,-y,-z
x,-y,1/2+z
1/2+x,1/2+y,z
1/2-x,1/2+y,1/2-z
1/2-x,1/2-y,-z
1/2+x,1/2-y,1/2+z
loop_
_atom_site_type_symbol
_atom_site_label
_atom_site_fract_x
_atom_site_fract_y
_atom_site_fract_z
Si Si1 0.663390 0.982859 0.971708
Si Si2 0.839000 0.878184 0.327437
Si Si3 0.229031 0.831941 0.579289
Si Si4 0.000000 0.934514 0.750000
Si Si5 0.745644 0.934244 0.750115
Si Si6 0.500000 0.687852 0.750000
Si Si7 0.500000 0.896720 0.250000
O O1 0.624674 0.046387 0.877049
O O2 0.732471 0.897970 0.969696
O O3 0.454255 0.962861 0.893518
O O4 0.827715 0.015059 0.116995
O O5 0.642557 0.852155 0.264398
O O6 0.003257 0.831052 0.462939
O O7 0.883061 0.858421 0.257560
O O8 0.839198 0.979232 0.331345
O O9 0.296733 0.874152 0.698533
O O10 0.344060 0.748778 0.628759
O O11 0.111067 0.892085 0.735965
#
# Coordination Sequence:
#
# PCOD9286804 Si02
#       7
#     8   8   8   4   8   4   4
#     4  11  20  39  65  99 128 177 224 280 336 403
#     4  11  23  40  68 102 133 184 229 285 341 407
#     4  12  21  44  71  93 135 189 232 269 341 425
#     4  12  23  32  59 109 139 158 216 308 337 378
#     4  11  21  40  66  97 136 175 233 281 342 404
#     4  12  26  44  64 105 141 180 230 286 336 412
#     4  10  21  44  69  94 132 178 230 276 345 412
#
# _framework density 23.196279000000001
#
# number of rings (size 3 to 8) (size 9 to 14) (size 15 to 20)
#    0.000    0.727    7.273    3.273    0.000    0.000 
#    0.000    1.818    0.000    0.000    0.000    0.000 
#    0.000    0.000    0.000    0.000    0.000    0.000 
#
# Total GULP energy -122898.530190 kJ/mol
# GULP energy per Si atom -5586.296827 kJ/mol
# Density = 2.314348 g / cm^3
# Si number density = 23.196279 Si / 1000 Ang^3
#
#
#
# Elastic Constant Matrix: (Units=GPa)
#
#
# Indices 1 2 3 4 5 6 
#
# 1 167.1307 32.8177 22.0304 0.0000 19.6253 0.0000
# 2 32.8177 44.8106 22.2460 0.0000 2.8260 0.0000
# 3 22.0304 22.2460 133.2986 0.0000 7.6244 0.0000
# 4 0.0000 0.0000 0.0000 26.8030 0.0000 -2.7342
# 5 19.6253 2.8260 7.6244 0.0000 38.6934 0.0000
# 6 0.0000 0.0000 0.0000 -2.7342 0.0000 12.1681
#
#
#
# Elastic Compliance Matrix: (Units=1/GPa)
#
#
# Indices 1 2 3 4 5 6 
#
# 1 0.007406 -0.005125 -0.000177 0.000000 -0.003347 0.000000
# 2 -0.005125 0.027916 -0.003888 0.000000 0.001327 0.000000
# 3 -0.000177 -0.003888 0.008252 0.000000 -0.001252 0.000000
# 4 0.000000 0.000000 0.000000 0.038185 0.000000 0.008580
# 5 -0.003347 0.001327 -0.001252 0.000000 0.027692 0.000000
# 6 0.000000 0.000000 0.000000 0.008580 0.000000 0.084110
#
#
# Mechanical properties :
#
#
# Convention : Reuss Voigt Hill
#
# Bulk Modulus (GPa) = 39.69222 55.49202 47.59212
# Shear Modulus (GPa) = 22.69243 33.40928 28.05086
#
# Velocity S-wave (km/s) = 3.13114 3.79923 3.48125
# Velocity P-wave (km/s) = 5.49733 6.57421 6.05974
#
# Compressibility (1/GPa) = 0.02519385
#
# Stress axis : x y z
#
# Youngs Moduli (GPa) = 135.02469 35.82206 121.18740
#
# Poissons Ratio (x) = 0.18358 0.02148
# Poissons Ratio (y) = 0.69198 0.47114
# Poissons Ratio (z) = 0.02394 0.13927
#
# Static dielectric constant tensor:
#      x y z
#    x 1.896670 0.000000 0.003030 
#    y 0.000000 1.856950 0.000000 
#    z 0.003030 0.000000 1.966830 
# 
# From -- ./inp_files/86208.got.cif
#   From: 2010.05.17/outbox.cif.g08.bks.cpg/sg15_44_cif.got.tgz:86208.got - 2010.06.03 18:47:42.
