data_PCOD9286249
_publ_section_title
;
Structure prediction by ZEFSAII (Michael W. Deem and Ramdas Pophale) SiO2 
 PCOD9286249
Probable space group: C 2/C
;
_chemical_formula_sum "Si O2"
_cell_formula_units_Z 48
_cell_length_a 27.614513
_cell_length_b 5.720570
_cell_length_c 27.652863
_cell_angle_alpha 90.000000
_cell_angle_beta 27.566442
_cell_angle_gamma 90.000000
_cell_volume 2021.568563
_symmetry_space_group_name_H-M "C 2/C"
_symmetry_group_IT_number 15
_symmetry_cell_setting 'monoclinic'
loop_
_space_group_symop_operation_xyz
x,y,z
-x,y,1/2-z
-x,-y,-z
x,-y,1/2+z
1/2+x,1/2+y,z
1/2-x,1/2+y,1/2-z
1/2-x,1/2-y,-z
1/2+x,1/2-y,1/2+z
loop_
_atom_site_type_symbol
_atom_site_label
_atom_site_fract_x
_atom_site_fract_y
_atom_site_fract_z
Si Si1 0.236566 0.262708 0.389154
Si Si2 0.747902 0.725128 0.778955
Si Si3 0.923590 0.455732 0.522555
Si Si4 0.586177 0.891057 0.296591
Si Si5 0.858528 0.156691 0.342480
Si Si6 0.808869 0.048057 0.977710
O O1 0.164896 0.350578 0.409177
O O2 0.332444 0.100651 0.286948
O O3 0.291806 0.474247 0.369341
O O4 0.161266 0.142916 0.496173
O O5 0.761267 0.464932 0.744575
O O6 0.653986 0.269546 0.772781
O O7 0.642985 0.727123 0.904498
O O8 0.000000 0.500000 0.500000
O O9 0.986157 0.446618 0.417122
O O10 0.564045 0.774729 0.264519
O O11 0.777046 0.355130 0.431824
O O12 0.889912 0.042423 0.365826
O O13 0.750000 0.250000 0.000000
#
# Coordination Sequence:
#
# PCOD9286249 Si02
#       6
#     8   8   8   8   8   8
#     4  10  21  43  64  98 140 179 238 302 361 433
#     4  12  26  49  69  99 146 192 245 306 359 431
#     4  12  26  42  68 104 137 200 245 300 368 448
#     4  11  24  42  67  98 141 185 239 308 363 438
#     4   9  17  36  66  97 130 178 228 294 374 431
#     4   8  16  33  68  96 126 180 226 290 377 434
#
# _framework density 23.743936999999999
#
# number of rings (size 3 to 8) (size 9 to 14) (size 15 to 20)
#    0.000    1.667    3.333    1.000    0.000    0.667 
#    6.000    0.000    0.000   46.000    0.000    0.000 
#    0.000    0.000    0.000    0.000    0.000    0.000 
#
# Total GULP energy -133847.964065 kJ/mol
# GULP energy per Si atom -5576.998503 kJ/mol
# Density = 2.368990 g / cm^3
# Si number density = 23.743937 Si / 1000 Ang^3
#
#
#
# Elastic Constant Matrix: (Units=GPa)
#
#
# Indices 1 2 3 4 5 6 
#
# 1 85.9230 50.8756 35.2023 0.0373 19.4815 -0.0198
# 2 50.8756 93.5278 57.7813 0.0291 22.8192 -0.0068
# 3 35.2023 57.7813 167.0256 0.0280 37.0466 -0.0095
# 4 0.0373 0.0291 0.0280 36.6243 -0.0072 15.9752
# 5 19.4815 22.8192 37.0466 -0.0072 47.8881 0.0081
# 6 -0.0198 -0.0068 -0.0095 15.9752 0.0081 47.0963
#
#
#
# Elastic Compliance Matrix: (Units=1/GPa)
#
#
# Indices 1 2 3 4 5 6 
#
# 1 0.017523 -0.008822 0.000009 -0.000017 -0.002932 0.000012
# 2 -0.008822 0.018523 -0.004088 -0.000003 -0.002075 -0.000001
# 3 0.000009 -0.004088 0.008412 -0.000006 -0.004563 0.000004
# 4 -0.000017 -0.000003 -0.000006 0.032046 0.000019 -0.010870
# 5 -0.002932 -0.002075 -0.004563 0.000019 0.026593 -0.000014
# 6 0.000012 -0.000001 0.000004 -0.010870 -0.000014 0.024920
#
#
# Mechanical properties :
#
#
# Convention : Reuss Voigt Hill
#
# Bulk Modulus (GPa) = 53.60610 70.46611 62.03611
# Shear Modulus (GPa) = 31.24268 39.82956 35.53612
#
# Velocity S-wave (km/s) = 3.63135 4.10013 3.87284
# Velocity P-wave (km/s) = 6.34098 7.22196 6.79576
#
# Compressibility (1/GPa) = 0.01865459
#
# Stress axis : x y z
#
# Youngs Moduli (GPa) = 57.06787 53.98731 118.88390
#
# Poissons Ratio (x) = 0.47628 -0.00108
# Poissons Ratio (y) = 0.50346 0.48604
# Poissons Ratio (z) = -0.00052 0.22072
#
# Static dielectric constant tensor:
#      x y z
#    x 1.897000 -0.000020 0.047410 
#    y -0.000020 1.972410 0.000020 
#    z 0.047410 0.000020 2.022340 
# 
# From -- ./inp_files/303999.got.cif
#   From: 2010.05.17/outbox.cif.g08.bks.cpg/sg15_152_cif.got.tgz:303999.got - 2010.06.03 18:47:42.
