data_PCOD9286512
_publ_section_title
;
Structure prediction by ZEFSAII (Michael W. Deem and Ramdas Pophale) SiO2 
 PCOD9286512
Probable space group: C 2/C
;
_chemical_formula_sum "Si O2"
_cell_formula_units_Z 60
_cell_length_a 12.399048
_cell_length_b 19.256647
_cell_length_c 19.624787
_cell_angle_alpha 90.000000
_cell_angle_beta 139.911879
_cell_angle_gamma 90.000000
_cell_volume 3017.423331
_symmetry_space_group_name_H-M "C 2/C"
_symmetry_group_IT_number 15
_symmetry_cell_setting 'monoclinic'
loop_
_space_group_symop_operation_xyz
x,y,z
-x,y,1/2-z
-x,-y,-z
x,-y,1/2+z
1/2+x,1/2+y,z
1/2-x,1/2+y,1/2-z
1/2-x,1/2-y,-z
1/2+x,1/2-y,1/2+z
loop_
_atom_site_type_symbol
_atom_site_label
_atom_site_fract_x
_atom_site_fract_y
_atom_site_fract_z
Si Si1 0.250000 0.250000 0.500000
Si Si2 0.000200 0.880841 0.452303
Si Si3 0.117514 0.781562 0.622733
Si Si4 0.097715 0.887871 0.728323
Si Si5 0.858331 0.848890 0.239603
Si Si6 0.808607 0.486258 0.387379
Si Si7 0.167982 0.008683 0.463354
Si Si8 0.338099 0.111907 0.625776
O O1 0.427396 0.256943 0.542875
O O2 0.323043 0.181570 0.575116
O O3 0.948466 0.845388 0.356289
O O4 0.827672 0.895757 0.408295
O O5 0.112301 0.833019 0.555547
O O6 0.092022 0.951917 0.476363
O O7 0.160615 0.825095 0.712476
O O8 0.240588 0.717509 0.672643
O O9 0.000000 0.863222 0.750000
O O10 0.963531 0.929886 0.617643
O O11 0.234118 0.943970 0.817273
O O12 0.743526 0.918808 0.181148
O O13 0.000000 0.852043 0.250000
O O14 0.709832 0.476257 0.410754
O O15 0.000000 0.500000 0.500000
O O16 0.330597 0.045946 0.572148
O O17 0.500000 0.113440 0.750000
#
# Coordination Sequence:
#
# PCOD9286512 Si02
#       8
#     4   8   8   8   8   8   8   8
#     4  10  22  44  58 100 138 170 222 268 350 402
#     4  11  23  44  69  94 133 184 223 281 343 406
#     4  11  26  41  71 102 134 180 227 289 336 414
#     4  10  21  43  70  96 132 176 224 279 350 402
#     4  12  25  48  68  94 143 188 226 271 354 426
#     4  11  25  42  71  99 130 180 233 283 332 413
#     4  11  21  44  69  95 131 178 227 278 341 412
#     4  11  24  39  67 104 137 171 221 292 344 400
#
# _framework density 19.884516000000001
#
# number of rings (size 3 to 8) (size 9 to 14) (size 15 to 20)
#    0.000    1.067    5.333    1.600    3.733    4.267 
#    2.400    0.000    0.000    0.000    0.000    0.000 
#    0.000    0.000    0.000    0.000    0.000    0.000 
#
# Total GULP energy -167141.110352 kJ/mol
# GULP energy per Si atom -5571.370345 kJ/mol
# Density = 1.983926 g / cm^3
# Si number density = 19.884516 Si / 1000 Ang^3
#
#
#
# Elastic Constant Matrix: (Units=GPa)
#
#
# Indices 1 2 3 4 5 6 
#
# 1 54.3008 22.0908 18.2967 0.0001 -14.1777 0.0000
# 2 22.0908 55.8541 43.2759 0.0001 -4.2942 0.0000
# 3 18.2967 43.2759 95.9288 0.0003 -6.7369 0.0001
# 4 0.0001 0.0001 0.0003 19.4457 0.0000 -5.2906
# 5 -14.1777 -4.2942 -6.7369 0.0000 32.5231 0.0000
# 6 0.0000 0.0000 0.0001 -5.2906 0.0000 35.4505
#
#
#
# Elastic Compliance Matrix: (Units=1/GPa)
#
#
# Indices 1 2 3 4 5 6 
#
# 1 0.024554 -0.009022 0.000056 0.000000 0.009524 0.000000
# 2 -0.009022 0.030877 -0.012379 0.000000 -0.002420 0.000000
# 3 0.000056 -0.012379 0.016119 0.000000 0.001729 0.000000
# 4 0.000000 0.000000 0.000000 0.053602 0.000000 0.008000
# 5 0.009524 -0.002420 0.001729 0.000000 0.034938 0.000000
# 6 0.000000 0.000000 0.000000 0.008000 0.000000 0.029402
#
#
# Mechanical properties :
#
#
# Convention : Reuss Voigt Hill
#
# Bulk Modulus (GPa) = 34.64938 41.49006 38.06972
# Shear Modulus (GPa) = 20.67798 25.64523 23.16161
#
# Velocity S-wave (km/s) = 3.22825 3.59515 3.41663
# Velocity P-wave (km/s) = 5.59988 6.17610 5.89503
#
# Compressibility (1/GPa) = 0.02886055
#
# Stress axis : x y z
#
# Youngs Moduli (GPa) = 40.72585 32.38651 62.03696
#
# Poissons Ratio (x) = 0.29221 -0.00346
# Poissons Ratio (y) = 0.36745 0.76793
# Poissons Ratio (z) = -0.00227 0.40090
#
# Static dielectric constant tensor:
#      x y z
#    x 1.716880 0.000000 -0.032320 
#    y 0.000000 1.710730 0.000000 
#    z -0.032320 0.000000 1.721870 
# 
# From -- ./inp_files/240002.got.cif
#   From: 2010.05.17/outbox.cif.g08.bks.cpg/sg15_121_cif.got.tgz:240002.got - 2010.06.03 18:47:42.
