data_PCOD9286385
_publ_section_title
;
Structure prediction by ZEFSAII (Michael W. Deem and Ramdas Pophale) SiO2 
 PCOD9286385
Probable space group: C 2/C
;
_chemical_formula_sum "Si O2"
_cell_formula_units_Z 52
_cell_length_a 26.986110
_cell_length_b 14.688541
_cell_length_c 16.280808
_cell_angle_alpha 90.000000
_cell_angle_beta 23.441239
_cell_angle_gamma 90.000000
_cell_volume 2567.253725
_symmetry_space_group_name_H-M "C 2/C"
_symmetry_group_IT_number 15
_symmetry_cell_setting 'monoclinic'
loop_
_space_group_symop_operation_xyz
x,y,z
-x,y,1/2-z
-x,-y,-z
x,-y,1/2+z
1/2+x,1/2+y,z
1/2-x,1/2+y,1/2-z
1/2-x,1/2-y,-z
1/2+x,1/2-y,1/2+z
loop_
_atom_site_type_symbol
_atom_site_label
_atom_site_fract_x
_atom_site_fract_y
_atom_site_fract_z
Si Si1 0.783323 0.173571 0.382902
Si Si2 0.500000 0.678801 0.750000
Si Si3 0.717233 0.247685 0.800567
Si Si4 0.538695 0.265681 0.468498
Si Si5 0.367490 0.008766 0.816429
Si Si6 0.901877 0.589584 0.590980
Si Si7 0.816352 0.848118 0.393418
O O1 0.750000 0.250000 0.500000
O O2 0.777255 0.201133 0.295777
O O3 0.689362 0.091230 0.544724
O O4 0.931956 0.173851 0.173346
O O5 0.594383 0.730905 0.543214
O O6 0.599241 0.628655 0.656479
O O7 0.845160 0.265453 0.653369
O O8 0.702490 0.141083 0.801699
O O9 0.481877 0.174058 0.511080
O O10 0.592349 0.334178 0.320174
O O11 0.511064 0.975625 0.596344
O O12 0.348708 0.035227 0.749188
O O13 0.288269 0.921585 0.960485
O O14 0.750000 0.750000 0.500000
#
# Coordination Sequence:
#
# PCOD9286385 Si02
#       7
#     8   4   8   8   8   8   8
#     4  11  23  45  66  95 135 177 216 277 335 395
#     4  12  20  40  72  94 130 172 226 264 334 396
#     4  11  22  40  72  99 127 179 222 268 337 396
#     4  11  22  42  69  96 134 172 224 273 335 390
#     4  11  22  42  69  93 137 171 223 276 327 393
#     4  10  21  43  67  97 128 179 221 272 322 397
#     4  12  22  41  69  95 127 174 217 282 327 385
#
# _framework density 20.255106000000001
#
# number of rings (size 3 to 8) (size 9 to 14) (size 15 to 20)
#    0.000    0.923    9.231    0.000    0.000    1.231 
#    2.769    4.615    0.000    0.000    0.000    0.000 
#    0.000    0.000    0.000    0.000    0.000    0.000 
#
# Total GULP energy -144802.349623 kJ/mol
# GULP energy per Si atom -5569.321139 kJ/mol
# Density = 2.020900 g / cm^3
# Si number density = 20.255106 Si / 1000 Ang^3
#
#
#
# Elastic Constant Matrix: (Units=GPa)
#
#
# Indices 1 2 3 4 5 6 
#
# 1 64.2563 6.0363 25.2856 0.0000 -0.3085 0.0000
# 2 6.0363 86.3870 34.1609 0.0000 17.6846 0.0000
# 3 25.2856 34.1609 125.7767 0.0000 27.1960 0.0000
# 4 0.0000 0.0000 0.0000 40.2254 0.0000 7.8703
# 5 -0.3085 17.6846 27.1960 0.0000 39.0619 0.0000
# 6 0.0000 0.0000 0.0000 7.8703 0.0000 7.2186
#
#
#
# Elastic Compliance Matrix: (Units=1/GPa)
#
#
# Indices 1 2 3 4 5 6 
#
# 1 0.017195 -0.000224 -0.004058 0.000000 0.003063 0.000000
# 2 -0.000224 0.013532 -0.002714 0.000000 -0.004239 0.000000
# 3 -0.004058 -0.002714 0.010883 0.000000 -0.006381 0.000000
# 4 0.000000 0.000000 0.000000 0.031601 0.000000 -0.034454
# 5 0.003063 -0.004239 -0.006381 0.000000 0.031986 0.000000
# 6 0.000000 0.000000 0.000000 -0.034454 0.000000 0.176094
#
#
# Mechanical properties :
#
#
# Convention : Reuss Voigt Hill
#
# Bulk Modulus (GPa) = 36.20670 45.26505 40.73588
# Shear Modulus (GPa) = 16.42091 31.36368 23.89230
#
# Velocity S-wave (km/s) = 2.85038 3.93928 3.43821
# Velocity P-wave (km/s) = 5.36162 6.56404 5.99306
#
# Compressibility (1/GPa) = 0.02761920
#
# Stress axis : x y z
#
# Youngs Moduli (GPa) = 58.15517 73.89690 91.88491
#
# Poissons Ratio (x) = 0.01653 0.37290
# Poissons Ratio (y) = 0.01301 0.24936
# Poissons Ratio (z) = 0.23601 0.20055
#
# Static dielectric constant tensor:
#      x y z
#    x 1.785160 0.000000 0.059360 
#    y 0.000000 1.732810 0.000000 
#    z 0.059360 0.000000 1.936100 
# 
# From -- ./inp_files/225457.got.cif
#   From: 2010.05.17/outbox.cif.g08.bks.cpg/sg15_113_cif.got.tgz:225457.got - 2010.06.03 18:47:42.
