data_PCOD9286687
_publ_section_title
;
Structure prediction by ZEFSAII (Michael W. Deem and Ramdas Pophale) SiO2 
 PCOD9286687
Probable space group: C 2/C
;
_chemical_formula_sum "Si O2"
_cell_formula_units_Z 32
_cell_length_a 8.528444
_cell_length_b 11.805140
_cell_length_c 18.160951
_cell_angle_alpha 90.000000
_cell_angle_beta 58.196281
_cell_angle_gamma 90.000000
_cell_volume 1553.911019
_symmetry_space_group_name_H-M "C 2/C"
_symmetry_group_IT_number 15
_symmetry_cell_setting 'monoclinic'
loop_
_space_group_symop_operation_xyz
x,y,z
-x,y,1/2-z
-x,-y,-z
x,-y,1/2+z
1/2+x,1/2+y,z
1/2-x,1/2+y,1/2-z
1/2-x,1/2-y,-z
1/2+x,1/2-y,1/2+z
loop_
_atom_site_type_symbol
_atom_site_label
_atom_site_fract_x
_atom_site_fract_y
_atom_site_fract_z
Si Si1 0.698708 0.504892 0.413562
Si Si2 0.672542 0.545183 0.759139
Si Si3 0.292524 0.771736 0.329845
Si Si4 0.535399 0.062172 0.414675
O O1 0.500000 0.500000 0.500000
O O2 0.674061 0.531410 0.332840
O O3 0.784653 0.377305 0.388699
O O4 0.839451 0.583691 0.423266
O O5 0.500000 0.526806 0.750000
O O6 0.683949 0.672279 0.787584
O O7 0.852652 0.517812 0.668576
O O8 0.500000 0.747112 0.250000
O O9 0.172110 0.668597 0.389105
O O10 0.500000 0.000000 0.500000
#
# Coordination Sequence:
#
# PCOD9286687 Si02
#       4
#     8   8   8   8
#     4  10  22  44  67 102 141 179 238 295 348 425
#     4  10  21  44  65  99 138 184 236 289 357 420
#     4  10  23  46  69  98 142 189 237 288 368 407
#     4  12  24  42  69 102 141 186 240 294 354 426
#
# _framework density 20.593198999999998
#
# number of rings (size 3 to 8) (size 9 to 14) (size 15 to 20)
#    1.500    0.000    2.500    3.000    0.000    4.000 
#    4.500    0.000    0.000    0.000    0.000    0.000 
#    0.000    0.000    0.000    0.000    0.000    0.000 
#
# Total GULP energy -89160.572698 kJ/mol
# GULP energy per Si atom -5572.535794 kJ/mol
# Density = 2.054633 g / cm^3
# Si number density = 20.593199 Si / 1000 Ang^3
#
#
#
# Elastic Constant Matrix: (Units=GPa)
#
#
# Indices 1 2 3 4 5 6 
#
# 1 138.5635 -6.1384 37.0714 0.0000 -10.8842 0.0000
# 2 -6.1384 57.0390 1.6495 0.0000 -11.4863 0.0000
# 3 37.0714 1.6495 142.8954 0.0000 -10.7721 0.0000
# 4 0.0000 0.0000 0.0000 12.4121 0.0000 -8.5897
# 5 -10.8842 -11.4863 -10.7721 0.0000 46.1764 0.0000
# 6 0.0000 0.0000 0.0000 -8.5897 0.0000 29.0961
#
#
#
# Elastic Compliance Matrix: (Units=1/GPa)
#
#
# Indices 1 2 3 4 5 6 
#
# 1 0.007928 0.001257 -0.001941 0.000000 0.001729 0.000000
# 2 0.001257 0.018658 -0.000172 0.000000 0.004897 0.000000
# 3 -0.001941 -0.000172 0.007600 0.000000 0.001272 0.000000
# 4 0.000000 0.000000 0.000000 0.101253 0.000000 0.029891
# 5 0.001729 0.004897 0.001272 0.000000 0.023579 0.000000
# 6 0.000000 0.000000 0.000000 0.029891 0.000000 0.043193
#
#
# Mechanical properties :
#
#
# Convention : Reuss Voigt Hill
#
# Bulk Modulus (GPa) = 30.79401 44.85143 37.82272
# Shear Modulus (GPa) = 23.28325 37.93127 30.60726
#
# Velocity S-wave (km/s) = 3.36613 4.29643 3.85941
# Velocity P-wave (km/s) = 5.48577 6.81465 6.18600
#
# Compressibility (1/GPa) = 0.03247385
#
# Stress axis : x y z
#
# Youngs Moduli (GPa) = 126.14068 53.59514 131.58649
#
# Poissons Ratio (x) = -0.06739 0.25539
# Poissons Ratio (y) = -0.15861 0.02269
# Poissons Ratio (z) = 0.24482 0.00924
#
# Static dielectric constant tensor:
#      x y z
#    x 1.798550 0.000000 0.019880 
#    y 0.000000 1.780900 0.000000 
#    z 0.019880 0.000000 1.701010 
# 
# From -- ./inp_files/75684.got.cif
#   From: 2010.05.17/outbox.cif.g08.bks.cpg/sg15_38_cif.got.tgz:75684.got - 2010.06.03 18:47:42.
