data_PCOD9286996
_publ_section_title
;
Structure prediction by ZEFSAII (Michael W. Deem and Ramdas Pophale) SiO2 
 PCOD9286996
Probable space group: C 2/C
;
_chemical_formula_sum "Si O2"
_cell_formula_units_Z 48
_cell_length_a 9.133581
_cell_length_b 10.466410
_cell_length_c 24.876412
_cell_angle_alpha 90.000000
_cell_angle_beta 61.857843
_cell_angle_gamma 90.000000
_cell_volume 2096.944065
_symmetry_space_group_name_H-M "C 2/C"
_symmetry_group_IT_number 15
_symmetry_cell_setting 'monoclinic'
loop_
_space_group_symop_operation_xyz
x,y,z
-x,y,1/2-z
-x,-y,-z
x,-y,1/2+z
1/2+x,1/2+y,z
1/2-x,1/2+y,1/2-z
1/2-x,1/2-y,-z
1/2+x,1/2-y,1/2+z
loop_
_atom_site_type_symbol
_atom_site_label
_atom_site_fract_x
_atom_site_fract_y
_atom_site_fract_z
Si Si1 0.142985 0.048457 0.621070
Si Si2 0.889246 0.698834 0.516145
Si Si3 0.660288 0.195697 0.187343
Si Si4 0.515601 0.709966 0.185438
Si Si5 0.782801 0.794446 0.054338
Si Si6 0.370649 0.544670 0.083175
O O1 0.006822 0.018505 0.598458
O O2 0.316925 0.075632 0.559305
O O3 0.123441 0.179847 0.657216
O O4 0.104704 0.930617 0.667569
O O5 0.750000 0.750000 0.500000
O O6 0.062986 0.704381 0.454859
O O7 0.911625 0.813738 0.555504
O O8 0.500000 0.173151 0.250000
O O9 0.829854 0.211634 0.192676
O O10 0.701929 0.072333 0.144510
O O11 0.500000 0.752291 0.250000
O O12 0.634295 0.782879 0.122509
O O13 0.834237 0.942515 0.043964
O O14 0.750000 0.750000 0.000000
#
# Coordination Sequence:
#
# PCOD9286996 Si02
#       6
#     8   8   8   8   8   8
#     4  10  21  45  70  99 136 184 236 294 351 429
#     4  11  23  41  71  99 133 191 237 283 363 427
#     4  10  23  46  73  95 133 193 247 280 364 437
#     4  11  27  47  68 106 149 181 233 308 360 424
#     4  12  25  44  68 105 148 179 234 304 358 428
#     4  10  23  42  68 101 142 180 236 302 348 423
#
# _framework density 22.890450999999999
#
# number of rings (size 3 to 8) (size 9 to 14) (size 15 to 20)
#    0.000    1.333    1.667    4.000    4.667    1.333 
#   12.000    0.000    0.000    0.000    0.000    0.000 
#    0.000    0.000    0.000    0.000    0.000    0.000 
#
# Total GULP energy -133938.737912 kJ/mol
# GULP energy per Si atom -5580.780746 kJ/mol
# Density = 2.283835 g / cm^3
# Si number density = 22.890451 Si / 1000 Ang^3
#
#
#
# Elastic Constant Matrix: (Units=GPa)
#
#
# Indices 1 2 3 4 5 6 
#
# 1 106.5916 39.4248 52.5905 0.0000 -11.4161 0.0000
# 2 39.4248 117.6092 28.7225 0.0000 -2.0928 0.0000
# 3 52.5905 28.7225 135.5322 0.0000 -19.3866 0.0000
# 4 0.0000 0.0000 0.0000 41.1620 0.0000 -0.7859
# 5 -11.4161 -2.0928 -19.3866 0.0000 55.1185 0.0000
# 6 0.0000 0.0000 0.0000 -0.7859 0.0000 34.6171
#
#
#
# Elastic Compliance Matrix: (Units=1/GPa)
#
#
# Indices 1 2 3 4 5 6 
#
# 1 0.012716 -0.003244 -0.004093 0.000000 0.001071 0.000000
# 2 -0.003244 0.009801 -0.000907 0.000000 -0.000619 0.000000
# 3 -0.004093 -0.000907 0.009511 0.000000 0.002463 0.000000
# 4 0.000000 0.000000 0.000000 0.024305 0.000000 0.000552
# 5 0.001071 -0.000619 0.002463 0.000000 0.019207 0.000000
# 6 0.000000 0.000000 0.000000 0.000552 0.000000 0.028900
#
#
# Mechanical properties :
#
#
# Convention : Reuss Voigt Hill
#
# Bulk Modulus (GPa) = 64.35263 66.80094 65.57678
# Shear Modulus (GPa) = 39.64872 42.11252 40.88062
#
# Velocity S-wave (km/s) = 4.16637 4.29387 4.23060
# Velocity P-wave (km/s) = 7.16375 7.33685 7.25081
#
# Compressibility (1/GPa) = 0.01553938
#
# Stress axis : x y z
#
# Youngs Moduli (GPa) = 78.64292 102.03500 105.13922
#
# Poissons Ratio (x) = 0.33098 0.43038
# Poissons Ratio (y) = 0.25510 0.09534
# Poissons Ratio (z) = 0.32192 0.09252
#
# Static dielectric constant tensor:
#      x y z
#    x 1.901380 0.000000 -0.034950 
#    y 0.000000 1.855190 0.000000 
#    z -0.034950 0.000000 1.952620 
# 
# From -- ./inp_files/287532.got.cif
#   From: 2010.05.17/outbox.cif.g08.bks.cpg/sg15_144_cif.got.tgz:287532.got - 2010.06.03 18:47:42.
