data_PCOD9286870
_publ_section_title
;
Structure prediction by ZEFSAII (Michael W. Deem and Ramdas Pophale) SiO2 
 PCOD9286870
Probable space group: C 2/C
;
_chemical_formula_sum "Si O2"
_cell_formula_units_Z 40
_cell_length_a 11.037457
_cell_length_b 14.821572
_cell_length_c 11.789347
_cell_angle_alpha 90.000000
_cell_angle_beta 109.510446
_cell_angle_gamma 90.000000
_cell_volume 1817.906523
_symmetry_space_group_name_H-M "C 2/C"
_symmetry_group_IT_number 15
_symmetry_cell_setting 'monoclinic'
loop_
_space_group_symop_operation_xyz
x,y,z
-x,y,1/2-z
-x,-y,-z
x,-y,1/2+z
1/2+x,1/2+y,z
1/2-x,1/2+y,1/2-z
1/2-x,1/2-y,-z
1/2+x,1/2-y,1/2+z
loop_
_atom_site_type_symbol
_atom_site_label
_atom_site_fract_x
_atom_site_fract_y
_atom_site_fract_z
Si Si1 0.401936 0.757349 0.047108
Si Si2 0.869477 0.910422 0.687229
Si Si3 0.384181 0.959621 0.037702
Si Si4 0.737234 0.878072 0.885431
Si Si5 0.933822 0.203457 0.616146
O O1 0.430038 0.672995 0.135311
O O2 0.250000 0.750000 0.000000
O O3 0.429211 0.860178 0.091652
O O4 0.464441 0.739927 0.944462
O O5 0.748123 0.947255 0.576553
O O6 0.804553 0.882866 0.785361
O O7 0.000000 0.967737 0.750000
O O8 0.500000 0.000000 0.000000
O O9 0.345752 0.032105 0.120493
O O10 0.649980 0.789313 0.869715
O O11 0.842728 0.864732 0.018300
O O12 0.000000 0.167840 0.750000
#
# Coordination Sequence:
#
# PCOD9286870 Si02
#       5
#     8   8   8   8   8
#     4  10  21  44  71  98 138 188 234 283 362 427
#     4  11  24  47  70  99 150 188 234 297 359 435
#     4  11  24  45  71 106 140 185 244 299 357 420
#     4  11  25  44  69 107 141 183 240 297 356 422
#     4  11  22  43  73  98 142 188 235 286 359 427
#
# _framework density 22.003332
#
# number of rings (size 3 to 8) (size 9 to 14) (size 15 to 20)
#    0.000    1.200    4.000    2.400    0.000    1.600 
#   18.000    0.000    0.000    0.000    0.000    0.000 
#    0.000    0.000    0.000    0.000    0.000    0.000 
#
# Total GULP energy -111623.238383 kJ/mol
# GULP energy per Si atom -5581.161919 kJ/mol
# Density = 2.195325 g / cm^3
# Si number density = 22.003332 Si / 1000 Ang^3
#
#
#
# Elastic Constant Matrix: (Units=GPa)
#
#
# Indices 1 2 3 4 5 6 
#
# 1 134.2607 28.4120 17.7644 0.0000 -26.5871 0.0000
# 2 28.4120 125.3835 16.0843 0.0000 -20.8891 0.0000
# 3 17.7644 16.0843 87.5950 0.0000 -9.9269 0.0000
# 4 0.0000 0.0000 0.0000 -4.8515 0.0000 -16.1829
# 5 -26.5871 -20.8891 -9.9269 0.0000 53.9364 0.0000
# 6 0.0000 0.0000 0.0000 -16.1829 0.0000 4.9046
#
#
#
# Elastic Compliance Matrix: (Units=1/GPa)
#
#
# Indices 1 2 3 4 5 6 
#
# 1 0.008552 -0.001205 -0.001111 0.000000 0.003544 0.000000
# 2 -0.001205 0.008824 -0.001078 0.000000 0.002625 0.000000
# 3 -0.001111 -0.001078 0.011980 0.000000 0.001239 0.000000
# 4 0.000000 0.000000 0.000000 -0.017168 0.000000 -0.056647
# 5 0.003544 0.002625 0.001239 0.000000 0.021532 0.000000
# 6 0.000000 0.000000 0.000000 -0.056647 0.000000 0.016982
#
#
# Mechanical properties :
#
#
# Convention : Reuss Voigt Hill
#
# Bulk Modulus (GPa) = 44.31270 52.41785 48.36527
# Shear Modulus (GPa) = 76.90556 29.79646 53.35101
#
# Velocity S-wave (km/s) = 5.91842 3.68391 4.92944
# Velocity P-wave (km/s) = 8.17841 6.47837 7.37752
#
# Compressibility (1/GPa) = 0.02256690
#
# Stress axis : x y z
#
# Youngs Moduli (GPa) = 116.93022 113.32404 83.47199
#
# Poissons Ratio (x) = 0.13654 0.09278
# Poissons Ratio (y) = 0.14088 0.09002
# Poissons Ratio (z) = 0.12996 0.12222
#
# Static dielectric constant tensor:
#      x y z
#    x 1.661190 0.000000 0.027310 
#    y 0.000000 1.855630 0.000000 
#    z 0.027310 0.000000 1.817490 
# 
# From -- ./inp_files/86246.got.cif
#   From: 2010.05.17/outbox.cif.g08.bks.cpg/sg15_44_cif.got.tgz:86246.got - 2010.06.03 18:47:42.
