data_PCOD9286943
_publ_section_title
;
Structure prediction by ZEFSAII (Michael W. Deem and Ramdas Pophale) SiO2 
 PCOD9286943
Probable space group: C 2/C
;
_chemical_formula_sum "Si O2"
_cell_formula_units_Z 52
_cell_length_a 16.511425
_cell_length_b 7.601105
_cell_length_c 16.765386
_cell_angle_alpha 90.000000
_cell_angle_beta 69.225268
_cell_angle_gamma 90.000000
_cell_volume 1967.334390
_symmetry_space_group_name_H-M "C 2/C"
_symmetry_group_IT_number 15
_symmetry_cell_setting 'monoclinic'
loop_
_space_group_symop_operation_xyz
x,y,z
-x,y,1/2-z
-x,-y,-z
x,-y,1/2+z
1/2+x,1/2+y,z
1/2-x,1/2+y,1/2-z
1/2-x,1/2-y,-z
1/2+x,1/2-y,1/2+z
loop_
_atom_site_type_symbol
_atom_site_label
_atom_site_fract_x
_atom_site_fract_y
_atom_site_fract_z
Si Si1 0.000000 0.433876 0.750000
Si Si2 0.265720 0.540735 0.444832
Si Si3 0.547866 0.470890 0.067054
Si Si4 0.318253 0.242026 0.299075
Si Si5 0.918249 0.613038 0.500673
Si Si6 0.562268 0.768481 0.331205
Si Si7 0.731869 0.151460 0.671874
O O1 0.916758 0.314159 0.772641
O O2 0.999008 0.570543 0.675359
O O3 0.351597 0.527525 0.468725
O O4 0.168793 0.478164 0.501209
O O5 0.258167 0.733826 0.410055
O O6 0.291415 0.402117 0.364900
O O7 0.494016 0.591015 0.146991
O O8 0.500000 0.500000 0.000000
O O9 0.551143 0.261602 0.071256
O O10 0.269518 0.058158 0.335492
O O11 0.301808 0.294385 0.213325
O O12 0.897866 0.700793 0.594765
O O13 0.000000 0.500000 0.500000
O O14 0.641308 0.783435 0.242597
#
# Coordination Sequence:
#
# PCOD9286943 Si02
#       7
#     4   8   8   8   8   8   8
#     4  10  22  38  68 102 142 166 228 290 364 420
#     4  12  24  46  72 101 142 187 233 292 364 415
#     4  10  24  45  70  98 136 190 242 288 338 418
#     4  11  22  39  65 104 137 179 217 283 356 430
#     4  11  25  46  67  96 141 188 239 287 340 421
#     4  10  21  45  66  99 138 176 229 295 348 420
#     4  11  22  43  72 104 144 175 226 295 363 424
#
# _framework density 26.431702999999999
#
# number of rings (size 3 to 8) (size 9 to 14) (size 15 to 20)
#    0.000    1.231    3.077    3.231    2.154    2.462 
#    5.538    3.077    0.000    0.000    0.000    0.000 
#    0.000    0.000    0.000    0.000    0.000    0.000 
#
# Total GULP energy -145808.219836 kJ/mol
# GULP energy per Si atom -5608.008455 kJ/mol
# Density = 2.637154 g / cm^3
# Si number density = 26.431703 Si / 1000 Ang^3
#
#
#
# Elastic Constant Matrix: (Units=GPa)
#
#
# Indices 1 2 3 4 5 6 
#
# 1 211.7261 51.0351 34.9619 0.0000 19.3459 0.0000
# 2 51.0351 137.3159 21.8745 0.0000 -9.6858 -0.0001
# 3 34.9619 21.8745 74.5842 0.0000 6.2283 0.0000
# 4 0.0000 0.0000 0.0000 50.1965 0.0000 -6.1722
# 5 19.3459 -9.6858 6.2283 0.0000 46.3250 0.0000
# 6 0.0000 -0.0001 0.0000 -6.1722 0.0000 42.4942
#
#
#
# Elastic Compliance Matrix: (Units=1/GPa)
#
#
# Indices 1 2 3 4 5 6 
#
# 1 0.005757 -0.002020 -0.001892 0.000000 -0.002572 0.000000
# 2 -0.002020 0.008521 -0.001791 0.000000 0.002866 0.000000
# 3 -0.001892 -0.001791 0.014953 0.000000 -0.001595 0.000000
# 4 0.000000 0.000000 0.000000 0.020284 0.000000 0.002946
# 5 -0.002572 0.002866 -0.001595 0.000000 0.023475 0.000000
# 6 0.000000 0.000000 0.000000 0.002946 0.000000 0.023961
#
#
# Mechanical properties :
#
#
# Convention : Reuss Voigt Hill
#
# Bulk Modulus (GPa) = 56.10065 71.04102 63.57084
# Shear Modulus (GPa) = 43.74535 48.85344 46.29939
#
# Velocity S-wave (km/s) = 4.07262 4.30384 4.18983
# Velocity P-wave (km/s) = 6.58679 7.18560 6.89270
#
# Compressibility (1/GPa) = 0.01782511
#
# Stress axis : x y z
#
# Youngs Moduli (GPa) = 173.69053 117.36063 66.87630
#
# Poissons Ratio (x) = 0.23706 0.12650
# Poissons Ratio (y) = 0.35084 0.11981
# Poissons Ratio (z) = 0.32855 0.21025
#
# Static dielectric constant tensor:
#      x y z
#    x 2.061870 0.000000 0.041440 
#    y 0.000000 2.061840 0.000000 
#    z 0.041440 0.000000 2.215670 
# 
# From -- ./inp_files/246908.got.cif
#   From: 2010.05.17/outbox.cif.g08.bks.cpg/sg15_124_cif.got.tgz:246908.got - 2010.06.03 18:47:42.
