data_PCOD9286462
_publ_section_title
;
Structure prediction by ZEFSAII (Michael W. Deem and Ramdas Pophale) SiO2 
 PCOD9286462
Probable space group: C 2/C
;
_chemical_formula_sum "Si O2"
_cell_formula_units_Z 36
_cell_length_a 9.864467
_cell_length_b 29.499362
_cell_length_c 5.018840
_cell_angle_alpha 90.000000
_cell_angle_beta 94.017053
_cell_angle_gamma 90.000000
_cell_volume 1456.871777
_symmetry_space_group_name_H-M "C 2/C"
_symmetry_group_IT_number 15
_symmetry_cell_setting 'monoclinic'
loop_
_space_group_symop_operation_xyz
x,y,z
-x,y,1/2-z
-x,-y,-z
x,-y,1/2+z
1/2+x,1/2+y,z
1/2-x,1/2+y,1/2-z
1/2-x,1/2-y,-z
1/2+x,1/2-y,1/2+z
loop_
_atom_site_type_symbol
_atom_site_label
_atom_site_fract_x
_atom_site_fract_y
_atom_site_fract_z
Si Si1 0.000000 0.965598 0.750000
Si Si2 0.720075 0.144645 0.564461
Si Si3 0.500000 0.084366 0.250000
Si Si4 0.220624 0.197736 0.446853
Si Si5 0.268600 0.029993 0.475669
Si Si6 0.000000 0.150899 0.750000
O O1 0.859773 0.940809 0.654242
O O2 0.000000 0.000000 0.500000
O O3 0.604565 0.113331 0.437150
O O4 0.750378 0.183362 0.349583
O O5 0.870688 0.122953 0.628820
O O6 0.685863 0.167385 0.842534
O O7 0.407471 0.054505 0.430554
O O8 0.250000 0.250000 0.500000
O O9 0.072112 0.182676 0.537693
O O10 0.263377 0.013900 0.778536
#
# Coordination Sequence:
#
# PCOD9286462 Si02
#       6
#     4   8   4   8   8   4
#     4   8  16  36  61  94 124 161 224 273 312 390
#     4  10  24  42  62  97 134 169 222 271 341 400
#     4  12  26  45  66 104 144 179 214 293 344 398
#     4  10  21  43  69  95 124 174 225 282 330 399
#     4  10  22  42  69  97 133 179 227 270 331 405
#     4   8  22  43  65  90 132 170 230 262 326 414
#
# _framework density 24.710478999999999
#
# number of rings (size 3 to 8) (size 9 to 14) (size 15 to 20)
#    1.333    0.889    0.000    2.000    0.000    5.333 
#    8.000    4.444    0.000    0.000    0.000    0.000 
#    0.000    0.000    0.000    0.000    0.000    0.000 
#
# Total GULP energy -100563.305614 kJ/mol
# GULP energy per Si atom -5586.850312 kJ/mol
# Density = 2.465424 g / cm^3
# Si number density = 24.710479 Si / 1000 Ang^3
#
#
#
# Elastic Constant Matrix: (Units=GPa)
#
#
# Indices 1 2 3 4 5 6 
#
# 1 166.4082 42.5120 8.8077 0.0000 29.0836 0.0000
# 2 42.5120 51.4048 15.6227 0.0000 17.9060 0.0000
# 3 8.8077 15.6227 107.2685 0.0000 11.5537 0.0000
# 4 0.0000 0.0000 0.0000 48.8415 0.0000 -35.2037
# 5 29.0836 17.9060 11.5537 0.0000 40.1710 0.0000
# 6 0.0000 0.0000 0.0000 -35.2037 0.0000 120.4658
#
#
#
# Elastic Compliance Matrix: (Units=1/GPa)
#
#
# Indices 1 2 3 4 5 6 
#
# 1 0.008013 -0.005580 0.000528 0.000000 -0.003466 0.000000
# 2 -0.005580 0.027488 -0.002746 0.000000 -0.007423 0.000000
# 3 0.000528 -0.002746 0.009895 0.000000 -0.002004 0.000000
# 4 0.000000 0.000000 0.000000 0.025938 0.000000 0.007580
# 5 -0.003466 -0.007423 -0.002004 0.000000 0.031288 0.000000
# 6 0.000000 0.000000 0.000000 0.007580 0.000000 0.010516
#
#
# Mechanical properties :
#
#
# Convention : Reuss Voigt Hill
#
# Bulk Modulus (GPa) = 33.55611 50.99623 42.27617
# Shear Modulus (GPa) = 36.05798 59.10493 47.58146
#
# Velocity S-wave (km/s) = 3.82412 4.89601 4.39288
# Velocity P-wave (km/s) = 5.75393 7.25558 6.54794
#
# Compressibility (1/GPa) = 0.02980083
#
# Stress axis : x y z
#
# Youngs Moduli (GPa) = 124.80482 36.37945 101.06307
#
# Poissons Ratio (x) = 0.20298 -0.05336
# Poissons Ratio (y) = 0.69636 0.27749
# Poissons Ratio (z) = -0.06590 0.09989
#
# Static dielectric constant tensor:
#      x y z
#    x 2.100980 0.000000 -0.002250 
#    y 0.000000 1.958410 0.000000 
#    z -0.002250 0.000000 1.930560 
# 
# From -- ./inp_files/5324.got.cif
#   From: 2010.05.17/outbox.cif.g08.bks.cpg/sg15_3_cif.got.tgz:5324.got - 2010.06.03 18:47:42.
