data_PCOD9286628
_publ_section_title
;
Structure prediction by ZEFSAII (Michael W. Deem and Ramdas Pophale) SiO2 
 PCOD9286628
Probable space group: C 2/C
;
_chemical_formula_sum "Si O2"
_cell_formula_units_Z 44
_cell_length_a 15.455597
_cell_length_b 21.554390
_cell_length_c 9.771314
_cell_angle_alpha 90.000000
_cell_angle_beta 142.266366
_cell_angle_gamma 90.000000
_cell_volume 1992.139799
_symmetry_space_group_name_H-M "C 2/C"
_symmetry_group_IT_number 15
_symmetry_cell_setting 'monoclinic'
loop_
_space_group_symop_operation_xyz
x,y,z
-x,y,1/2-z
-x,-y,-z
x,-y,1/2+z
1/2+x,1/2+y,z
1/2-x,1/2+y,1/2-z
1/2-x,1/2-y,-z
1/2+x,1/2-y,1/2+z
loop_
_atom_site_type_symbol
_atom_site_label
_atom_site_fract_x
_atom_site_fract_y
_atom_site_fract_z
Si Si1 0.284381 0.553607 0.728930
Si Si2 0.701692 0.560081 0.429291
Si Si3 0.477599 0.810081 0.929291
Si Si4 0.000000 0.412585 0.750000
Si Si5 0.694550 0.696393 0.728931
Si Si6 0.000000 0.837416 0.750000
Si Si7 0.500000 0.875000 0.250000
O O1 0.299808 0.545283 0.910526
O O2 0.348748 0.498461 0.721204
O O3 0.118996 0.550568 0.479115
O O4 0.326535 0.625000 0.749998
O O5 0.595480 0.617474 0.276189
O O6 0.858582 0.584083 0.590680
O O7 0.639282 0.795282 0.089473
O O8 0.482099 0.834082 0.090681
O O9 0.430710 0.867475 0.776190
O O10 0.377544 0.751539 0.778795
O O11 0.610119 0.699431 0.479116
#
# Coordination Sequence:
#
# PCOD9286628 Si02
#       7
#     8   8   8   4   8   4   4
#     4  10  23  43  61  97 129 172 208 271 313 386
#     4  11  24  40  67  94 132 166 219 257 329 375
#     4  11  24  40  67  94 132 166 219 257 329 375
#     4  10  21  44  61  93 134 167 208 274 312 390
#     4  10  23  43  61  97 129 172 208 271 313 386
#     4  10  21  44  61  93 134 167 208 274 312 390
#     4  12  22  40  64 108 114 176 216 270 312 384
#
# _framework density 22.086804000000001
#
# number of rings (size 3 to 8) (size 9 to 14) (size 15 to 20)
#    0.000    1.455    5.455    1.091    5.091    8.727 
#    0.000    4.545    0.000    0.000    0.000    0.000 
#    0.000    0.000    0.000    0.000    0.000    0.000 
#
# Total GULP energy -122932.088243 kJ/mol
# GULP energy per Si atom -5587.822193 kJ/mol
# Density = 2.203653 g / cm^3
# Si number density = 22.086804 Si / 1000 Ang^3
#
#
#
# Elastic Constant Matrix: (Units=GPa)
#
#
# Indices 1 2 3 4 5 6 
#
# 1 76.2296 42.2815 28.6063 0.0000 2.9291 0.0000
# 2 42.2815 100.7226 3.5577 0.0000 -5.3264 0.0000
# 3 28.6063 3.5577 105.3766 0.0000 1.0811 0.0000
# 4 0.0000 0.0000 0.0000 13.3746 0.0000 1.3133
# 5 2.9291 -5.3264 1.0811 0.0000 34.2033 0.0000
# 6 0.0000 0.0000 0.0000 1.3133 0.0000 3.8388
#
#
#
# Elastic Compliance Matrix: (Units=1/GPa)
#
#
# Indices 1 2 3 4 5 6 
#
# 1 0.019683 -0.008233 -0.005036 0.000000 -0.002808 0.000000
# 2 -0.008233 0.013468 0.001752 0.000000 0.002747 0.000000
# 3 -0.005036 0.001752 0.010794 0.000000 0.000363 0.000000
# 4 0.000000 0.000000 0.000000 0.077368 0.000000 -0.026467
# 5 -0.002808 0.002747 0.000363 0.000000 0.029894 0.000000
# 6 0.000000 0.000000 0.000000 -0.026467 0.000000 0.269551
#
#
# Mechanical properties :
#
#
# Convention : Reuss Voigt Hill
#
# Bulk Modulus (GPa) = 47.82441 47.91330 47.86886
# Shear Modulus (GPa) = 11.09234 24.14223 17.61728
#
# Velocity S-wave (km/s) = 2.24345 3.30973 2.82731
# Velocity P-wave (km/s) = 5.33017 6.02877 5.69020
#
# Compressibility (1/GPa) = 0.02090983
#
# Stress axis : x y z
#
# Youngs Moduli (GPa) = 50.80595 74.25159 92.64304
#
# Poissons Ratio (x) = 0.61132 0.46659
# Poissons Ratio (y) = 0.41829 -0.16232
# Poissons Ratio (z) = 0.25588 -0.13010
#
# Static dielectric constant tensor:
#      x y z
#    x 1.803640 0.000000 0.007370 
#    y 0.000000 1.858270 0.000000 
#    z 0.007370 0.000000 1.857240 
# 
# From -- ./inp_files/32472.got.cif
#   From: 2010.05.17/outbox.cif.g08.bks.cpg/sg15_17_cif.got.tgz:32472.got - 2010.06.03 18:47:42.
