data_PCOD9286876
_publ_section_title
;
Structure prediction by ZEFSAII (Michael W. Deem and Ramdas Pophale) SiO2 
 PCOD9286876
Probable space group: C 2/C
;
_chemical_formula_sum "Si O2"
_cell_formula_units_Z 44
_cell_length_a 10.001465
_cell_length_b 21.368177
_cell_length_c 10.610284
_cell_angle_alpha 90.000000
_cell_angle_beta 53.122788
_cell_angle_gamma 90.000000
_cell_volume 1813.871431
_symmetry_space_group_name_H-M "C 2/C"
_symmetry_group_IT_number 15
_symmetry_cell_setting 'monoclinic'
loop_
_space_group_symop_operation_xyz
x,y,z
-x,y,1/2-z
-x,-y,-z
x,-y,1/2+z
1/2+x,1/2+y,z
1/2-x,1/2+y,1/2-z
1/2-x,1/2-y,-z
1/2+x,1/2-y,1/2+z
loop_
_atom_site_type_symbol
_atom_site_label
_atom_site_fract_x
_atom_site_fract_y
_atom_site_fract_z
Si Si1 0.285085 0.556525 0.632551
Si Si2 0.854143 0.114776 0.079219
Si Si3 0.500000 0.852196 0.750000
Si Si4 0.178403 0.302344 0.208281
Si Si5 0.189582 0.960451 0.668383
Si Si6 0.017681 0.249148 0.526765
O O1 0.487498 0.568986 0.529100
O O2 0.205242 0.623925 0.698920
O O3 0.236576 0.507268 0.768257
O O4 0.238351 0.541093 0.513308
O O5 0.666243 0.106845 0.135338
O O6 0.825583 0.106370 0.248090
O O7 0.912129 0.179921 0.983422
O O8 0.480294 0.803274 0.646911
O O9 0.342266 0.269392 0.061281
O O10 0.000000 0.288682 0.250000
O O11 0.160973 0.276766 0.358457
O O12 0.000000 0.981025 0.750000
#
# Coordination Sequence:
#
# PCOD9286876 Si02
#       6
#     8   8   4   8   8   8
#     4  10  24  45  74 103 137 183 242 289 356 420
#     4  10  22  40  67 101 139 185 227 293 342 420
#     4  12  24  42  62 106 148 176 242 284 350 420
#     4  11  25  43  69 102 140 182 234 286 350 420
#     4  10  21  44  72 101 134 182 239 289 349 425
#     4  11  24  43  67 101 141 190 226 285 347 425
#
# _framework density 24.257507
#
# number of rings (size 3 to 8) (size 9 to 14) (size 15 to 20)
#    0.000    1.455    1.818    3.273    2.545    6.545 
#    8.182    0.909    0.000    3.273    0.000    0.000 
#    0.000    0.000    0.000    0.000    0.000    0.000 
#
# Total GULP energy -122635.262700 kJ/mol
# GULP energy per Si atom -5574.330123 kJ/mol
# Density = 2.420230 g / cm^3
# Si number density = 24.257507 Si / 1000 Ang^3
#
#
#
# Elastic Constant Matrix: (Units=GPa)
#
#
# Indices 1 2 3 4 5 6 
#
# 1 86.3521 15.8140 -6.4638 0.0000 -32.1338 0.0000
# 2 15.8140 89.0233 52.1041 0.0000 21.7376 0.0000
# 3 -6.4638 52.1041 -51.7656 0.0000 -72.8362 0.0000
# 4 0.0000 0.0000 0.0000 24.5850 0.0000 13.9861
# 5 -32.1338 21.7376 -72.8362 0.0000 -2.7160 0.0000
# 6 0.0000 0.0000 0.0000 13.9861 0.0000 -8.4692
#
#
#
# Elastic Compliance Matrix: (Units=1/GPa)
#
#
# Indices 1 2 3 4 5 6 
#
# 1 0.012228 0.000277 -0.005423 0.000000 0.002967 0.000000
# 2 0.000277 0.008717 0.002309 0.000000 0.004570 0.000000
# 3 -0.005423 0.002309 0.003609 0.000000 -0.014162 0.000000
# 4 0.000000 0.000000 0.000000 0.020972 0.000000 0.034634
# 5 0.002967 0.004570 -0.014162 0.000000 0.013071 0.000000
# 6 0.000000 0.000000 0.000000 0.034634 0.000000 -0.060880
#
#
# Mechanical properties :
#
#
# Convention : Reuss Voigt Hill
#
# Bulk Modulus (GPa) = 52.96467 27.39092 40.17779
# Shear Modulus (GPa) = 516.30190 6.82367 261.56278
#
# Velocity S-wave (km/s) = 14.60494 1.67902 10.39527
# Velocity P-wave (km/s) = 17.50107 3.88266 12.67601
#
# Compressibility (1/GPa) = 0.01888051
#
# Stress axis : x y z
#
# Youngs Moduli (GPa) = 81.77991 114.72358 277.04921
#
# Poissons Ratio (x) = -0.03180 1.50234
# Poissons Ratio (y) = -0.02267 -0.63963
# Poissons Ratio (z) = 0.44346 -0.26487
#
# Static dielectric constant tensor:
#      x y z
#    x 1.957080 0.000000 0.047110 
#    y 0.000000 1.936790 0.000000 
#    z 0.047110 0.000000 1.895520 
# 
# From -- ./inp_files/88714.got.cif
#   From: 2010.05.17/outbox.cif.g08.bks.cpg/sg15_45_cif.got.tgz:88714.got - 2010.06.03 18:47:42.
