data_PCOD9286000
_publ_section_title
;
Structure prediction by ZEFSAII (Michael W. Deem and Ramdas Pophale) SiO2 
 PCOD9286000
Probable space group: C 2/C
;
_chemical_formula_sum "Si O2"
_cell_formula_units_Z 56
_cell_length_a 9.852447
_cell_length_b 24.233956
_cell_length_c 11.831619
_cell_angle_alpha 90.000000
_cell_angle_beta 68.745134
_cell_angle_gamma 90.000000
_cell_volume 2632.799778
_symmetry_space_group_name_H-M "C 2/C"
_symmetry_group_IT_number 15
_symmetry_cell_setting 'monoclinic'
loop_
_space_group_symop_operation_xyz
x,y,z
-x,y,1/2-z
-x,-y,-z
x,-y,1/2+z
1/2+x,1/2+y,z
1/2-x,1/2+y,1/2-z
1/2-x,1/2-y,-z
1/2+x,1/2-y,1/2+z
loop_
_atom_site_type_symbol
_atom_site_label
_atom_site_fract_x
_atom_site_fract_y
_atom_site_fract_z
Si Si1 0.061255 0.685208 0.105456
Si Si2 0.339633 0.391330 0.523379
Si Si3 0.661632 0.461600 0.747771
Si Si4 0.531147 0.698898 0.873664
Si Si5 0.618157 0.098030 0.487132
Si Si6 0.813511 0.433671 0.145302
Si Si7 0.335275 0.832948 0.305096
O O1 0.216341 0.656057 0.064590
O O2 0.055883 0.747122 0.059372
O O3 0.000000 0.689422 0.250000
O O4 0.957757 0.644681 0.066819
O O5 0.345537 0.424914 0.637272
O O6 0.484168 0.357475 0.448762
O O7 0.285337 0.429975 0.437012
O O8 0.500000 0.471161 0.750000
O O9 0.758596 0.431665 0.622470
O O10 0.745759 0.519059 0.743338
O O11 0.500000 0.690898 0.750000
O O12 0.702479 0.709188 0.841239
O O13 0.483594 0.058410 0.563988
O O14 0.673537 0.128878 0.581632
O O15 0.811822 0.374341 0.206891
O O16 0.500000 0.810293 0.250000
#
# Coordination Sequence:
#
# PCOD9286000 Si02
#       7
#     8   8   8   8   8   8   8
#     4  10  21  42  69  97 129 174 222 268 329 399
#     4  11  23  43  67  96 138 168 224 277 323 401
#     4  12  26  40  63  97 134 175 219 279 336 381
#     4  11  22  40  72  99 132 177 220 273 329 392
#     4  10  22  45  63  90 137 170 219 273 331 394
#     4  10  24  41  66  92 125 184 224 266 325 395
#     4  10  22  43  64  95 135 171 226 271 320 395
#
# _framework density 21.270132
#
# number of rings (size 3 to 8) (size 9 to 14) (size 15 to 20)
#    0.000    1.429    2.857    1.714    4.000    1.143 
#    7.714    0.714    0.000    0.000    0.000    0.000 
#    0.000    0.000    0.000    0.000    0.000    0.000 
#
# Total GULP energy -156507.355088 kJ/mol
# GULP energy per Si atom -5589.548396 kJ/mol
# Density = 2.122172 g / cm^3
# Si number density = 21.270132 Si / 1000 Ang^3
#
#
#
# Elastic Constant Matrix: (Units=GPa)
#
#
# Indices 1 2 3 4 5 6 
#
# 1 114.6088 28.8217 26.5303 0.0000 -7.3588 0.0000
# 2 28.8217 70.2432 14.9292 0.0000 -13.0051 0.0000
# 3 26.5303 14.9292 48.2199 0.0000 -4.6108 0.0000
# 4 0.0000 0.0000 0.0000 26.8733 0.0000 -16.4155
# 5 -7.3588 -13.0051 -4.6108 0.0000 25.6642 0.0000
# 6 0.0000 0.0000 0.0000 -16.4155 0.0000 15.5910
#
#
#
# Elastic Compliance Matrix: (Units=1/GPa)
#
#
# Indices 1 2 3 4 5 6 
#
# 1 0.010698 -0.003263 -0.004823 0.000000 0.000547 0.000000
# 2 -0.003263 0.017577 -0.002935 0.000000 0.007444 0.000000
# 3 -0.004823 -0.002935 0.024446 0.000000 0.001522 0.000000
# 4 0.000000 0.000000 0.000000 0.104278 0.000000 0.109793
# 5 0.000547 0.007444 0.001522 0.000000 0.043167 0.000000
# 6 0.000000 0.000000 0.000000 0.109793 0.000000 0.179738
#
#
# Mechanical properties :
#
#
# Convention : Reuss Voigt Hill
#
# Bulk Modulus (GPa) = 32.59579 41.51491 37.05535
# Shear Modulus (GPa) = 12.13083 24.47844 18.30464
#
# Velocity S-wave (km/s) = 2.39073 3.39608 2.93675
# Velocity P-wave (km/s) = 4.79362 5.91085 5.38130
#
# Compressibility (1/GPa) = 0.03067881
#
# Stress axis : x y z
#
# Youngs Moduli (GPa) = 93.47956 56.89233 40.90620
#
# Poissons Ratio (x) = 0.18563 0.19730
# Poissons Ratio (y) = 0.30501 0.12006
# Poissons Ratio (z) = 0.45087 0.16697
#
# Static dielectric constant tensor:
#      x y z
#    x 1.764350 0.000000 -0.036860 
#    y 0.000000 1.779440 0.000000 
#    z -0.036860 0.000000 1.787390 
# 
# From -- ./inp_files/81292.got.cif
#   From: 2010.05.17/outbox.cif.g08.bks.cpg/sg15_41_cif.got.tgz:81292.got - 2010.06.03 18:47:42.
