data_PCOD9286885
_publ_section_title
;
Structure prediction by ZEFSAII (Michael W. Deem and Ramdas Pophale) SiO2 
 PCOD9286885
Probable space group: C 2/C
;
_chemical_formula_sum "Si O2"
_cell_formula_units_Z 48
_cell_length_a 12.748294
_cell_length_b 5.373600
_cell_length_c 30.509273
_cell_angle_alpha 90.000000
_cell_angle_beta 109.359162
_cell_angle_gamma 90.000000
_cell_volume 1971.843187
_symmetry_space_group_name_H-M "C 2/C"
_symmetry_group_IT_number 15
_symmetry_cell_setting 'monoclinic'
loop_
_space_group_symop_operation_xyz
x,y,z
-x,y,1/2-z
-x,-y,-z
x,-y,1/2+z
1/2+x,1/2+y,z
1/2-x,1/2+y,1/2-z
1/2-x,1/2-y,-z
1/2+x,1/2-y,1/2+z
loop_
_atom_site_type_symbol
_atom_site_label
_atom_site_fract_x
_atom_site_fract_y
_atom_site_fract_z
Si Si1 0.919210 0.992824 0.269927
Si Si2 0.187397 0.183584 0.035625
Si Si3 0.058301 0.616611 0.147455
Si Si4 0.250221 0.768069 0.695050
Si Si5 0.176880 0.569589 0.875058
Si Si6 0.627130 0.818996 0.562393
O O1 0.813747 0.148114 0.270544
O O2 0.000000 0.152626 0.250000
O O3 0.950262 0.837545 0.317886
O O4 0.872683 0.808533 0.226299
O O5 0.282252 0.142335 0.085493
O O6 0.111184 0.414779 0.038611
O O7 0.123284 0.919217 0.029801
O O8 0.250000 0.250000 0.000000
O O9 0.170925 0.452924 0.166792
O O10 0.055675 0.710651 0.096766
O O11 0.955126 0.431496 0.143138
O O12 0.266809 0.987127 0.662512
O O13 0.243059 0.803992 0.903228
#
# Coordination Sequence:
#
# PCOD9286885 Si02
#       6
#     8   8   8   8   8   8
#     4  12  25  38  63  91 127 172 228 276 330 385
#     4  10  21  44  72  98 137 175 215 277 339 401
#     4  12  23  42  66  94 131 175 228 272 337 397
#     4  12  24  41  60  92 131 173 224 280 326 394
#     4  10  24  40  68  95 131 176 219 274 339 395
#     4  10  22  43  68 100 136 172 220 273 334 399
#
# _framework density 24.342707999999998
#
# number of rings (size 3 to 8) (size 9 to 14) (size 15 to 20)
#    1.000    0.000    6.667    0.500    0.000    4.667 
#    0.000    1.667    0.000    0.000    0.000    0.000 
#    0.000    0.000    0.000    0.000    0.000    0.000 
#
# Total GULP energy -133927.216894 kJ/mol
# GULP energy per Si atom -5580.300704 kJ/mol
# Density = 2.428730 g / cm^3
# Si number density = 24.342708 Si / 1000 Ang^3
#
#
#
# Elastic Constant Matrix: (Units=GPa)
#
#
# Indices 1 2 3 4 5 6 
#
# 1 77.7994 -2.0632 19.4634 0.0000 -20.4290 0.0000
# 2 -2.0632 96.9354 4.0649 0.0000 -10.1912 0.0000
# 3 19.4634 4.0649 32.1760 0.0000 -21.6358 0.0000
# 4 0.0000 0.0000 0.0000 20.4351 0.0000 -9.4790
# 5 -20.4290 -10.1912 -21.6358 0.0000 42.1018 0.0000
# 6 0.0000 0.0000 0.0000 -9.4790 0.0000 18.6488
#
#
#
# Elastic Compliance Matrix: (Units=1/GPa)
#
#
# Indices 1 2 3 4 5 6 
#
# 1 0.015718 0.001084 -0.006632 0.000000 0.004481 0.000000
# 2 0.001084 0.010668 0.000132 0.000000 0.003176 0.000000
# 3 -0.006632 0.000132 0.050320 0.000000 0.022673 0.000000
# 4 0.000000 0.000000 0.000000 0.064033 0.000000 0.032547
# 5 0.004481 0.003176 0.022673 0.000000 0.038347 0.000000
# 6 0.000000 0.000000 0.000000 0.032547 0.000000 0.070166
#
#
# Mechanical properties :
#
#
# Convention : Reuss Voigt Hill
#
# Bulk Modulus (GPa) = 15.18035 27.76010 21.47022
# Shear Modulus (GPa) = 17.72799 28.60019 23.16409
#
# Velocity S-wave (km/s) = 2.70157 3.43140 3.08812
# Velocity P-wave (km/s) = 3.99762 5.20845 4.64268
#
# Compressibility (1/GPa) = 0.06587464
#
# Stress axis : x y z
#
# Youngs Moduli (GPa) = 63.62101 93.74198 19.87295
#
# Poissons Ratio (x) = -0.10159 0.13179
# Poissons Ratio (y) = -0.06895 -0.00263
# Poissons Ratio (z) = 0.42191 -0.01242
#
# Static dielectric constant tensor:
#      x y z
#    x 1.959880 0.000000 0.066680 
#    y 0.000000 1.959580 0.000000 
#    z 0.066680 0.000000 1.967680 
# 
# From -- ./inp_files/312129.got.cif
#   From: 2010.05.17/outbox.cif.g08.bks.cpg/sg15_157_cif.got.tgz:312129.got - 2010.06.03 18:47:42.
