data_PCOD9286520
_publ_section_title
;
Structure prediction by ZEFSAII (Michael W. Deem and Ramdas Pophale) SiO2 
 PCOD9286520
Probable space group: C 2/C
;
_chemical_formula_sum "Si O2"
_cell_formula_units_Z 52
_cell_length_a 11.185901
_cell_length_b 14.333617
_cell_length_c 14.106681
_cell_angle_alpha 90.000000
_cell_angle_beta 113.167247
_cell_angle_gamma 90.000000
_cell_volume 2079.396932
_symmetry_space_group_name_H-M "C 2/C"
_symmetry_group_IT_number 15
_symmetry_cell_setting 'monoclinic'
loop_
_space_group_symop_operation_xyz
x,y,z
-x,y,1/2-z
-x,-y,-z
x,-y,1/2+z
1/2+x,1/2+y,z
1/2-x,1/2+y,1/2-z
1/2-x,1/2-y,-z
1/2+x,1/2-y,1/2+z
loop_
_atom_site_type_symbol
_atom_site_label
_atom_site_fract_x
_atom_site_fract_y
_atom_site_fract_z
Si Si1 0.209061 0.195245 0.265374
Si Si2 0.880292 0.923094 0.605980
Si Si3 0.000000 0.353282 0.250000
Si Si4 0.008264 0.123753 0.865325
Si Si5 0.644059 0.713441 0.541752
Si Si6 0.898440 0.488594 0.053094
Si Si7 0.121739 0.688254 0.360207
O O1 0.138352 0.105666 0.289729
O O2 0.119364 0.284616 0.261158
O O3 0.338123 0.204724 0.374023
O O4 0.256612 0.196457 0.173387
O O5 0.944923 0.837205 0.567087
O O6 0.735785 0.940795 0.519355
O O7 0.943506 0.020822 0.603521
O O8 0.039730 0.420596 0.348580
O O9 0.095690 0.216871 0.913305
O O10 0.000000 0.130595 0.750000
O O11 0.876475 0.134395 0.883882
O O12 0.750000 0.750000 0.500000
O O13 0.868510 0.592888 0.079466
O O14 0.000000 0.500000 0.000000
O O15 0.000000 0.676210 0.250000
#
# Coordination Sequence:
#
# PCOD9286520 Si02
#       7
#     8   8   4   8   8   8   8
#     4  11  24  47  72 106 146 194 246 306 374 444
#     4  11  26  44  69 107 150 188 243 316 370 442
#     4  12  28  48  76 108 146 206 248 304 376 458
#     4  11  24  42  73 104 143 194 250 307 376 443
#     4  10  21  43  70  98 142 189 233 303 377 436
#     4  12  28  45  74 107 148 196 251 304 374 451
#     4  11  23  45  75 100 142 193 249 308 366 442
#
# _framework density 25.007249999999999
#
# number of rings (size 3 to 8) (size 9 to 14) (size 15 to 20)
#    0.000    0.923    5.385    1.385    5.385    1.846 
#    5.538    0.000    0.000    0.000    0.000    0.000 
#    0.000    0.000    0.000    0.000    0.000    0.000 
#
# Total GULP energy -144865.080804 kJ/mol
# GULP energy per Si atom -5571.733877 kJ/mol
# Density = 2.495033 g / cm^3
# Si number density = 25.007250 Si / 1000 Ang^3
#
#
#
# Elastic Constant Matrix: (Units=GPa)
#
#
# Indices 1 2 3 4 5 6 
#
# 1 151.5827 69.8848 54.3651 0.0000 -35.0795 0.0000
# 2 69.8848 202.4418 35.6224 0.0000 -11.3397 0.0000
# 3 54.3651 35.6224 86.6981 0.0000 -27.1577 0.0000
# 4 0.0000 0.0000 0.0000 42.9077 0.0000 -6.1487
# 5 -35.0795 -11.3397 -27.1577 0.0000 45.1392 0.0000
# 6 0.0000 0.0000 0.0000 -6.1487 0.0000 41.7242
#
#
#
# Elastic Compliance Matrix: (Units=1/GPa)
#
#
# Indices 1 2 3 4 5 6 
#
# 1 0.010351 -0.002616 -0.003823 0.000000 0.005088 0.000000
# 2 -0.002616 0.005986 -0.001214 0.000000 -0.001259 0.000000
# 3 -0.003823 -0.001214 0.016517 0.000000 0.006662 0.000000
# 4 0.000000 0.000000 0.000000 0.023809 0.000000 0.003509
# 5 0.005088 -0.001259 0.006662 0.000000 0.029799 0.000000
# 6 0.000000 0.000000 0.000000 0.003509 0.000000 0.024484
#
#
# Mechanical properties :
#
#
# Convention : Reuss Voigt Hill
#
# Bulk Modulus (GPa) = 56.98070 84.49636 70.73853
# Shear Modulus (GPa) = 37.85044 44.67757 41.26400
#
# Velocity S-wave (km/s) = 3.89469 4.23139 4.06653
# Velocity P-wave (km/s) = 6.56201 7.59835 7.09912
#
# Compressibility (1/GPa) = 0.01754980
#
# Stress axis : x y z
#
# Youngs Moduli (GPa) = 96.60599 167.06504 60.54522
#
# Poissons Ratio (x) = 0.43700 0.23144
# Poissons Ratio (y) = 0.25270 0.07348
# Poissons Ratio (z) = 0.36928 0.20275
#
# Static dielectric constant tensor:
#      x y z
#    x 2.332800 0.000000 0.149430 
#    y 0.000000 2.029530 0.000000 
#    z 0.149430 0.000000 2.064040 
# 
# From -- ./inp_files/144339.got.cif
#   From: 2010.05.17/outbox.cif.g08.bks.cpg/sg15_73_cif.got.tgz:144339.got - 2010.06.03 18:47:42.
