data_PCOD9286469
_publ_section_title
;
Structure prediction by ZEFSAII (Michael W. Deem and Ramdas Pophale) SiO2 
 PCOD9286469
Probable space group: C 2/C
;
_chemical_formula_sum "Si O2"
_cell_formula_units_Z 40
_cell_length_a 17.085064
_cell_length_b 7.298145
_cell_length_c 17.890279
_cell_angle_alpha 90.000000
_cell_angle_beta 132.785086
_cell_angle_gamma 90.000000
_cell_volume 1637.144683
_symmetry_space_group_name_H-M "C 2/C"
_symmetry_group_IT_number 15
_symmetry_cell_setting 'monoclinic'
loop_
_space_group_symop_operation_xyz
x,y,z
-x,y,1/2-z
-x,-y,-z
x,-y,1/2+z
1/2+x,1/2+y,z
1/2-x,1/2+y,1/2-z
1/2-x,1/2-y,-z
1/2+x,1/2-y,1/2+z
loop_
_atom_site_type_symbol
_atom_site_label
_atom_site_fract_x
_atom_site_fract_y
_atom_site_fract_z
Si Si1 0.845718 0.669752 0.215614
Si Si2 0.016741 0.834680 0.849717
Si Si3 0.894783 0.451198 0.978869
Si Si4 0.790432 0.060002 0.249962
Si Si5 0.913400 0.740116 0.098326
O O1 0.760350 0.543189 0.201058
O O2 0.848212 0.680400 0.128616
O O3 0.969835 0.643260 0.318313
O O4 0.820329 0.864839 0.235647
O O5 0.900348 0.830482 0.813771
O O6 0.000000 0.797547 0.750000
O O7 0.086747 0.691822 0.941806
O O8 0.065224 0.041744 0.887270
O O9 0.863048 0.647070 0.993659
O O10 0.804921 0.375214 0.865603
O O11 0.000000 0.500000 0.000000
#
# Coordination Sequence:
#
# PCOD9286469 Si02
#       5
#     8   8   8   8   8
#     4  10  21  43  69  95 141 178 227 278 351 405
#     4  11  25  48  70  99 145 184 228 290 352 410
#     4  12  26  42  71 108 138 179 242 287 341 418
#     4  11  23  44  69 106 135 183 233 282 352 411
#     4  10  22  47  67  97 140 186 220 290 348 405
#
# _framework density 24.432784000000002
#
# number of rings (size 3 to 8) (size 9 to 14) (size 15 to 20)
#    0.000    1.200    6.000    1.200    2.800    2.400 
#    3.600    0.000    0.000    0.000    0.000    0.000 
#    0.000    0.000    0.000    0.000    0.000    0.000 
#
# Total GULP energy -111925.474512 kJ/mol
# GULP energy per Si atom -5596.273726 kJ/mol
# Density = 2.437717 g / cm^3
# Si number density = 24.432784 Si / 1000 Ang^3
#
#
#
# Elastic Constant Matrix: (Units=GPa)
#
#
# Indices 1 2 3 4 5 6 
#
# 1 188.6234 28.8368 41.8318 0.0000 -22.9840 0.0000
# 2 28.8368 74.8037 44.3614 0.0000 -17.1123 0.0000
# 3 41.8318 44.3614 88.4201 0.0000 -8.7781 0.0000
# 4 0.0000 0.0000 0.0000 30.6570 0.0000 -9.9077
# 5 -22.9840 -17.1123 -8.7781 0.0000 40.2797 0.0000
# 6 0.0000 0.0000 0.0000 -9.9077 0.0000 36.0691
#
#
#
# Elastic Compliance Matrix: (Units=1/GPa)
#
#
# Indices 1 2 3 4 5 6 
#
# 1 0.006259 -0.000230 -0.002556 0.000000 0.002917 0.000000
# 2 -0.000230 0.020649 -0.009601 0.000000 0.006549 0.000000
# 3 -0.002556 -0.009601 0.017157 0.000000 -0.001798 0.000000
# 4 0.000000 0.000000 0.000000 0.035797 0.000000 0.009833
# 5 0.002917 0.006549 -0.001798 0.000000 0.028881 0.000000
# 6 0.000000 0.000000 0.000000 0.009833 0.000000 0.030426
#
#
# Mechanical properties :
#
#
# Convention : Reuss Voigt Hill
#
# Bulk Modulus (GPa) = 51.83660 64.65637 58.24649
# Shear Modulus (GPa) = 29.34739 37.18897 33.26818
#
# Velocity S-wave (km/s) = 3.46952 3.90563 3.69402
# Velocity P-wave (km/s) = 6.10837 6.84537 6.48734
#
# Compressibility (1/GPa) = 0.01929139
#
# Stress axis : x y z
#
# Youngs Moduli (GPa) = 159.76919 48.42917 58.28368
#
# Poissons Ratio (x) = 0.01112 0.14900
# Poissons Ratio (y) = 0.03667 0.55958
# Poissons Ratio (z) = 0.40844 0.46497
#
# Static dielectric constant tensor:
#      x y z
#    x 1.994970 0.000000 0.025740 
#    y 0.000000 1.987760 0.000000 
#    z 0.025740 0.000000 1.937810 
# 
# From -- ./inp_files/202819.got.cif
#   From: 2010.05.17/outbox.cif.g08.bks.cpg/sg15_102_cif.got.tgz:202819.got - 2010.06.03 18:47:42.
