data_PCOD9286824
_publ_section_title
;
Structure prediction by ZEFSAII (Michael W. Deem and Ramdas Pophale) SiO2 
 PCOD9286824
Probable space group: C 2/C
;
_chemical_formula_sum "Si O2"
_cell_formula_units_Z 44
_cell_length_a 16.926524
_cell_length_b 12.058786
_cell_length_c 26.842895
_cell_angle_alpha 90.000000
_cell_angle_beta 158.598164
_cell_angle_gamma 90.000000
_cell_volume 1999.320703
_symmetry_space_group_name_H-M "C 2/C"
_symmetry_group_IT_number 15
_symmetry_cell_setting 'monoclinic'
loop_
_space_group_symop_operation_xyz
x,y,z
-x,y,1/2-z
-x,-y,-z
x,-y,1/2+z
1/2+x,1/2+y,z
1/2-x,1/2+y,1/2-z
1/2-x,1/2-y,-z
1/2+x,1/2-y,1/2+z
loop_
_atom_site_type_symbol
_atom_site_label
_atom_site_fract_x
_atom_site_fract_y
_atom_site_fract_z
Si Si1 0.258761 0.337246 0.118697
Si Si2 0.738583 0.533410 0.198685
Si Si3 0.613546 0.327767 0.065596
Si Si4 0.191149 0.620910 0.469546
Si Si5 0.000000 0.185707 0.250000
Si Si6 0.919479 0.985020 0.790664
O O1 0.500000 0.287210 0.250000
O O2 0.296287 0.422121 0.185852
O O3 0.202191 0.402423 0.035231
O O4 0.064047 0.254184 0.014722
O O5 0.727591 0.405950 0.173953
O O6 0.731208 0.554672 0.253392
O O7 0.962665 0.588685 0.312655
O O8 0.532019 0.593986 0.054426
O O9 0.789935 0.261485 0.136775
O O10 0.250000 0.750000 0.500000
O O11 0.385328 0.544633 0.564818
O O12 0.997636 0.107465 0.199367
#
# Coordination Sequence:
#
# PCOD9286824 Si02
#       6
#     8   8   8   8   4   8
#     4  10  21  44  70 101 131 179 232 292 336 416
#     4  11  26  45  67 102 138 190 236 284 353 427
#     4  11  27  45  67 101 146 187 230 295 358 422
#     4  11  22  42  72 103 130 178 233 286 342 412
#     4  12  26  46  68 106 150 188 228 296 374 412
#     4  11  24  43  71 103 138 183 233 289 349 426
#
# _framework density 22.007476
#
# number of rings (size 3 to 8) (size 9 to 14) (size 15 to 20)
#    0.000    1.091    2.727    4.364    5.091    3.636 
#    3.273    0.000    0.000    0.000    0.000    0.000 
#    0.000    0.000    0.000    0.000    0.000    0.000 
#
# Total GULP energy -122901.964942 kJ/mol
# GULP energy per Si atom -5586.452952 kJ/mol
# Density = 2.195739 g / cm^3
# Si number density = 22.007476 Si / 1000 Ang^3
#
#
#
# Elastic Constant Matrix: (Units=GPa)
#
#
# Indices 1 2 3 4 5 6 
#
# 1 42.8845 6.3275 9.0862 -0.0092 -5.3071 -0.0012
# 2 6.3275 89.7621 48.1909 -0.0034 13.4764 -0.0009
# 3 9.0862 48.1909 125.0916 0.0186 22.6156 0.0030
# 4 -0.0092 -0.0034 0.0186 -54.1174 -0.0068 3.5484
# 5 -5.3071 13.4764 22.6156 -0.0068 30.9664 -0.0012
# 6 -0.0012 -0.0009 0.0030 3.5484 -0.0012 34.2924
#
#
#
# Elastic Compliance Matrix: (Units=1/GPa)
#
#
# Indices 1 2 3 4 5 6 
#
# 1 0.024880 -0.001435 -0.002463 -0.000006 0.006688 0.000002
# 2 -0.001435 0.014297 -0.004878 -0.000002 -0.002905 0.000001
# 3 -0.002463 -0.004878 0.011227 0.000005 -0.006499 -0.000002
# 4 -0.000006 -0.000002 0.000005 -0.018354 -0.000008 0.001899
# 5 0.006688 -0.002905 -0.006499 -0.000008 0.039450 0.000003
# 6 0.000002 0.000001 -0.000002 0.001899 0.000003 0.028964
#
#
# Mechanical properties :
#
#
# Convention : Reuss Voigt Hill
#
# Bulk Modulus (GPa) = 30.44134 42.77191 36.60663
# Shear Modulus (GPa) = 38.76918 15.17054 26.96986
#
# Velocity S-wave (km/s) = 4.20174 2.62837 3.50449
# Velocity P-wave (km/s) = 6.11570 5.35616 5.74849
#
# Compressibility (1/GPa) = 0.03285007
#
# Stress axis : x y z
#
# Youngs Moduli (GPa) = 40.19334 69.94492 89.06825
#
# Poissons Ratio (x) = 0.10040 0.21940
# Poissons Ratio (y) = 0.05769 0.43450
# Poissons Ratio (z) = 0.09901 0.34121
#
# Static dielectric constant tensor:
#      x y z
#    x 1.816300 0.000000 0.008220 
#    y 0.000000 1.824050 0.000000 
#    z 0.008220 0.000000 1.823450 
# 
# From -- ./inp_files/316277.got.cif
#   From: 2010.05.17/outbox.cif.g08.bks.cpg/sg15_159_cif.got.tgz:316277.got - 2010.06.03 18:47:42.
