data_PCOD9286490
_publ_section_title
;
Structure prediction by ZEFSAII (Michael W. Deem and Ramdas Pophale) SiO2 
 PCOD9286490
Probable space group: C 2/C
;
_chemical_formula_sum "Si O2"
_cell_formula_units_Z 48
_cell_length_a 13.014301
_cell_length_b 25.119723
_cell_length_c 10.824747
_cell_angle_alpha 90.000000
_cell_angle_beta 143.913491
_cell_angle_gamma 90.000000
_cell_volume 2084.362412
_symmetry_space_group_name_H-M "C 2/C"
_symmetry_group_IT_number 15
_symmetry_cell_setting 'monoclinic'
loop_
_space_group_symop_operation_xyz
x,y,z
-x,y,1/2-z
-x,-y,-z
x,-y,1/2+z
1/2+x,1/2+y,z
1/2-x,1/2+y,1/2-z
1/2-x,1/2-y,-z
1/2+x,1/2-y,1/2+z
loop_
_atom_site_type_symbol
_atom_site_label
_atom_site_fract_x
_atom_site_fract_y
_atom_site_fract_z
Si Si1 0.209804 0.162606 0.958100
Si Si2 0.303820 0.013455 0.842129
Si Si3 0.842374 0.363827 0.327818
Si Si4 0.439643 0.701525 0.054595
Si Si5 0.310149 0.810135 0.806884
Si Si6 0.307278 0.458760 0.008579
O O1 0.286480 0.168259 0.896850
O O2 0.257837 0.102098 0.049737
O O3 0.000000 0.168089 0.750000
O O4 0.298579 0.197805 0.148581
O O5 0.283254 0.076109 0.794464
O O6 0.283316 0.006750 0.970315
O O7 0.196397 0.981163 0.633794
O O8 0.500000 0.000000 0.000000
O O9 0.048648 0.354733 0.516604
O O10 0.723746 0.338441 0.106584
O O11 0.500000 0.713545 0.250000
O O12 0.610880 0.678257 0.152920
O O13 0.377555 0.756136 0.933216
O O14 0.500000 0.455939 0.250000
#
# Coordination Sequence:
#
# PCOD9286490 Si02
#       6
#     8   8   8   8   8   8
#     4  10  21  43  70 101 135 173 221 281 339 396
#     4  11  23  44  67 101 139 175 227 278 334 402
#     4  11  25  45  69 102 135 178 222 280 337 397
#     4  12  27  47  66  97 136 179 226 280 333 397
#     4  12  24  45  72  93 134 178 222 275 341 396
#     4  10  22  42  69  97 139 176 221 278 340 397
#
# _framework density 23.028625000000002
#
# number of rings (size 3 to 8) (size 9 to 14) (size 15 to 20)
#    0.000    1.000    3.333    3.000    0.000    4.000 
#   15.000    0.000    0.000    0.000    0.000    0.000 
#    0.000    0.000    0.000    0.000    0.000    0.000 
#
# Total GULP energy -134220.936440 kJ/mol
# GULP energy per Si atom -5592.539018 kJ/mol
# Density = 2.297621 g / cm^3
# Si number density = 23.028625 Si / 1000 Ang^3
#
#
#
# Elastic Constant Matrix: (Units=GPa)
#
#
# Indices 1 2 3 4 5 6 
#
# 1 51.4874 -11.4727 9.8961 0.0000 -5.5712 0.0000
# 2 -11.4727 35.9753 24.1200 0.0000 -22.2129 0.0000
# 3 9.8961 24.1200 128.8153 0.0000 -18.5260 0.0000
# 4 0.0000 0.0000 0.0000 33.8677 0.0000 -4.1328
# 5 -5.5712 -22.2129 -18.5260 0.0000 49.3571 0.0000
# 6 0.0000 0.0000 0.0000 -4.1328 0.0000 26.7476
#
#
#
# Elastic Compliance Matrix: (Units=1/GPa)
#
#
# Indices 1 2 3 4 5 6 
#
# 1 0.024408 0.015288 -0.003543 0.000000 0.008305 0.000000
# 2 0.015288 0.051356 -0.007630 0.000000 0.021974 0.000000
# 3 -0.003543 -0.007630 0.009421 0.000000 -0.000298 0.000000
# 4 0.000000 0.000000 0.000000 0.030094 0.000000 0.004650
# 5 0.008305 0.021974 -0.000298 0.000000 0.030976 0.000000
# 6 0.000000 0.000000 0.000000 0.004650 0.000000 0.038105
#
#
# Mechanical properties :
#
#
# Convention : Reuss Voigt Hill
#
# Bulk Modulus (GPa) = 10.70502 29.04054 19.87278
# Shear Modulus (GPa) = 24.12311 34.91012 29.51662
#
# Velocity S-wave (km/s) = 3.24006 3.89774 3.58402
# Velocity P-wave (km/s) = 4.31926 5.73537 5.07693
#
# Compressibility (1/GPa) = 0.09341414
#
# Stress axis : x y z
#
# Youngs Moduli (GPa) = 40.96938 19.47188 106.14377
#
# Poissons Ratio (x) = -0.29768 0.37610
# Poissons Ratio (y) = -0.62633 0.80992
# Poissons Ratio (z) = 0.14517 0.14858
#
# Static dielectric constant tensor:
#      x y z
#    x 1.913270 0.000000 0.021130 
#    y 0.000000 1.953360 0.000000 
#    z 0.021130 0.000000 1.857160 
# 
# From -- ./inp_files/101391.got.cif
#   From: 2010.05.17/outbox.cif.g08.bks.cpg/sg15_51_cif.got.tgz:101391.got - 2010.06.03 18:47:42.
