data_PCOD9286771
_publ_section_title
;
Structure prediction by ZEFSAII (Michael W. Deem and Ramdas Pophale) SiO2 
 PCOD9286771
Probable space group: C 2/C
;
_chemical_formula_sum "Si O2"
_cell_formula_units_Z 52
_cell_length_a 10.356098
_cell_length_b 9.514497
_cell_length_c 26.556473
_cell_angle_alpha 90.000000
_cell_angle_beta 50.859866
_cell_angle_gamma 90.000000
_cell_volume 2029.516894
_symmetry_space_group_name_H-M "C 2/C"
_symmetry_group_IT_number 15
_symmetry_cell_setting 'monoclinic'
loop_
_space_group_symop_operation_xyz
x,y,z
-x,y,1/2-z
-x,-y,-z
x,-y,1/2+z
1/2+x,1/2+y,z
1/2-x,1/2+y,1/2-z
1/2-x,1/2-y,-z
1/2+x,1/2-y,1/2+z
loop_
_atom_site_type_symbol
_atom_site_label
_atom_site_fract_x
_atom_site_fract_y
_atom_site_fract_z
Si Si1 0.660485 0.394008 0.322269
Si Si2 0.000000 0.467650 0.250000
Si Si3 0.819654 0.981341 0.780055
Si Si4 0.983391 0.455210 0.917551
Si Si5 0.639652 0.758996 0.661865
Si Si6 0.834781 0.919154 0.059007
Si Si7 0.557026 0.195775 0.977694
O O1 0.671467 0.529952 0.282625
O O2 0.646782 0.408445 0.385184
O O3 0.624141 0.265827 0.474533
O O4 0.856631 0.362632 0.265831
O O5 0.080261 0.587156 0.193842
O O6 0.651710 0.918120 0.845061
O O7 0.820840 0.145263 0.802866
O O8 0.000000 0.927580 0.750000
O O9 0.904955 0.337570 0.973312
O O10 0.840100 0.529748 0.920531
O O11 0.049517 0.561645 0.943679
O O12 0.495629 0.686390 0.663543
O O13 0.798777 0.779672 0.586903
O O14 0.000000 0.000000 0.000000
#
# Coordination Sequence:
#
# PCOD9286771 Si02
#       7
#     8   4   8   8   8   8   8
#     4  11  23  37  64  97 132 170 233 274 340 421
#     4  12  22  40  72  94 136 194 216 298 358 392
#     4   9  19  42  66  91 132 175 223 286 338 415
#     4  10  22  43  69  98 137 175 233 287 350 416
#     4  10  21  44  68  95 131 183 232 278 351 414
#     4  12  25  40  62 102 136 174 228 287 342 416
#     4  10  23  43  72  95 133 186 227 286 350 417
#
# _framework density 25.621860999999999
#
# number of rings (size 3 to 8) (size 9 to 14) (size 15 to 20)
#    0.000    1.538    2.308    3.231    0.000    6.154 
#    0.000    7.692    6.769    0.000    0.000    0.000 
#    0.000    0.000    0.000    0.000    0.000    0.000 
#
# Total GULP energy -144905.346842 kJ/mol
# GULP energy per Si atom -5573.282571 kJ/mol
# Density = 2.556354 g / cm^3
# Si number density = 25.621861 Si / 1000 Ang^3
#
#
#
# Elastic Constant Matrix: (Units=GPa)
#
#
# Indices 1 2 3 4 5 6 
#
# 1 120.0334 0.4361 52.8769 0.0000 -16.1644 0.0000
# 2 0.4361 45.1520 33.8891 0.0000 -7.3410 0.0000
# 3 52.8769 33.8891 194.0219 0.0000 -9.1358 0.0000
# 4 0.0000 0.0000 0.0000 32.1550 0.0000 -2.3059
# 5 -16.1644 -7.3410 -9.1358 0.0000 45.3952 0.0000
# 6 0.0000 0.0000 0.0000 -2.3059 0.0000 35.7049
#
#
#
# Elastic Compliance Matrix: (Units=1/GPa)
#
#
# Indices 1 2 3 4 5 6 
#
# 1 0.010145 0.002779 -0.003088 0.000000 0.003440 0.000000
# 2 0.002779 0.026736 -0.005227 0.000000 0.004261 0.000000
# 3 -0.003088 -0.005227 0.006882 0.000000 -0.000560 0.000000
# 4 0.000000 0.000000 0.000000 0.031244 0.000000 0.002018
# 5 0.003440 0.004261 -0.000560 0.000000 0.023830 0.000000
# 6 0.000000 0.000000 0.000000 0.002018 0.000000 0.028138
#
#
# Mechanical properties :
#
#
# Convention : Reuss Voigt Hill
#
# Bulk Modulus (GPa) = 30.58868 59.29017 44.93942
# Shear Modulus (GPa) = 33.56970 40.78468 37.17719
#
# Velocity S-wave (km/s) = 3.62359 3.99406 3.81333
# Velocity P-wave (km/s) = 5.42878 6.66788 6.07998
#
# Compressibility (1/GPa) = 0.03269183
#
# Stress axis : x y z
#
# Youngs Moduli (GPa) = 98.57467 37.40227 145.30146
#
# Poissons Ratio (x) = -0.10395 0.44871
# Poissons Ratio (y) = -0.27396 0.75945
# Poissons Ratio (z) = 0.30441 0.19549
#
# Static dielectric constant tensor:
#      x y z
#    x 2.132970 0.000000 -0.015630 
#    y 0.000000 2.218730 0.000000 
#    z -0.015630 0.000000 2.119900 
# 
# From -- ./inp_files/264187.got.cif
#   From: 2010.05.17/outbox.cif.g08.bks.cpg/sg15_133_cif.got.tgz:264187.got - 2010.06.03 18:47:42.
