data_PCOD9286643
_publ_section_title
;
Structure prediction by ZEFSAII (Michael W. Deem and Ramdas Pophale) SiO2 
 PCOD9286643
Probable space group: C 2/C
;
_chemical_formula_sum "Si O2"
_cell_formula_units_Z 44
_cell_length_a 13.580184
_cell_length_b 12.815361
_cell_length_c 12.336851
_cell_angle_alpha 90.000000
_cell_angle_beta 54.262581
_cell_angle_gamma 90.000000
_cell_volume 1742.759943
_symmetry_space_group_name_H-M "C 2/C"
_symmetry_group_IT_number 15
_symmetry_cell_setting 'monoclinic'
loop_
_space_group_symop_operation_xyz
x,y,z
-x,y,1/2-z
-x,-y,-z
x,-y,1/2+z
1/2+x,1/2+y,z
1/2-x,1/2+y,1/2-z
1/2-x,1/2-y,-z
1/2+x,1/2-y,1/2+z
loop_
_atom_site_type_symbol
_atom_site_label
_atom_site_fract_x
_atom_site_fract_y
_atom_site_fract_z
Si Si1 0.662948 0.405338 0.776370
Si Si2 0.500000 0.811979 0.750000
Si Si3 0.356991 0.378700 0.263370
Si Si4 0.242733 0.369617 0.544514
Si Si5 0.833332 0.646634 0.973033
Si Si6 0.893001 0.328994 0.196460
O O1 0.596405 0.516810 0.823525
O O2 0.721620 0.389359 0.856067
O O3 0.761107 0.409068 0.615997
O O4 0.595591 0.296936 0.795968
O O5 0.566008 0.728277 0.788363
O O6 0.598688 0.884266 0.628988
O O7 0.339678 0.414261 0.399302
O O8 0.222268 0.353339 0.304796
O O9 0.250000 0.250000 0.500000
O O10 0.857192 0.614191 0.832477
O O11 0.971412 0.647414 0.928071
O O12 0.750000 0.750000 0.000000
#
# Coordination Sequence:
#
# PCOD9286643 Si02
#       6
#     8   4   8   8   8   8
#     4  11  23  42  69  97 133 179 225 278 337 401
#     4  10  22  46  68  96 136 182 220 278 344 396
#     4  11  25  40  70 101 131 174 234 275 334 407
#     4  10  22  43  65  94 135 177 219 276 339 402
#     4   9  22  39  65  92 128 172 215 272 344 394
#     4  10  21  44  63  95 137 172 219 281 343 399
#
# _framework density 25.247311
#
# number of rings (size 3 to 8) (size 9 to 14) (size 15 to 20)
#    0.000    1.818    3.636    0.000    5.091    3.636 
#    0.000    3.636    0.000    0.000    0.000    0.000 
#    0.000    0.000    0.000    0.000    0.000    0.000 
#
# Total GULP energy -122536.114427 kJ/mol
# GULP energy per Si atom -5569.823383 kJ/mol
# Density = 2.518985 g / cm^3
# Si number density = 25.247311 Si / 1000 Ang^3
#
#
#
# Elastic Constant Matrix: (Units=GPa)
#
#
# Indices 1 2 3 4 5 6 
#
# 1 123.4240 15.7943 8.2392 0.0000 7.4003 0.0000
# 2 15.7943 108.3114 2.6383 0.0000 14.2331 0.0000
# 3 8.2392 2.6383 57.1567 0.0000 12.9339 0.0000
# 4 0.0000 0.0000 0.0000 7.2908 0.0000 12.4736
# 5 7.4003 14.2331 12.9339 0.0000 33.8411 0.0000
# 6 0.0000 0.0000 0.0000 12.4736 0.0000 25.6542
#
#
#
# Elastic Compliance Matrix: (Units=1/GPa)
#
#
# Indices 1 2 3 4 5 6 
#
# 1 0.008361 -0.001062 -0.000923 0.000000 -0.001029 0.000000
# 2 -0.001062 0.009922 0.000642 0.000000 -0.004186 0.000000
# 3 -0.000923 0.000642 0.019282 0.000000 -0.007438 0.000000
# 4 0.000000 0.000000 0.000000 0.815732 0.000000 -0.396625
# 5 -0.001029 -0.004186 -0.007438 0.000000 0.034378 0.000000
# 6 0.000000 0.000000 0.000000 -0.396625 0.000000 0.231826
#
#
# Mechanical properties :
#
#
# Convention : Reuss Voigt Hill
#
# Bulk Modulus (GPa) = 28.66943 38.02617 33.34780
# Shear Modulus (GPa) = 4.40989 30.83858 17.62423
#
# Velocity S-wave (km/s) = 1.32305 3.49873 2.64496
# Velocity P-wave (km/s) = 3.70325 5.60497 4.75025
#
# Compressibility (1/GPa) = 0.03488035
#
# Stress axis : x y z
#
# Youngs Moduli (GPa) = 119.59804 100.78689 51.86092
#
# Poissons Ratio (x) = 0.10699 0.04789
# Poissons Ratio (y) = 0.12696 -0.03331
# Poissons Ratio (z) = 0.11044 -0.06474
#
# Static dielectric constant tensor:
#      x y z
#    x 2.036680 0.000000 -0.010020 
#    y 0.000000 2.072060 0.000000 
#    z -0.010020 0.000000 2.095350 
# 
# From -- ./inp_files/96111.got.cif
#   From: 2010.05.17/outbox.cif.g08.bks.cpg/sg15_49_cif.got.tgz:96111.got - 2010.06.03 18:47:42.
