data_PCOD9286420
_publ_section_title
;
Structure prediction by ZEFSAII (Michael W. Deem and Ramdas Pophale) SiO2 
 PCOD9286420
Probable space group: C 2/C
;
_chemical_formula_sum "Si O2"
_cell_formula_units_Z 64
_cell_length_a 15.866014
_cell_length_b 27.954618
_cell_length_c 9.652135
_cell_angle_alpha 90.000000
_cell_angle_beta 43.953352
_cell_angle_gamma 90.000000
_cell_volume 2971.321249
_symmetry_space_group_name_H-M "C 2/C"
_symmetry_group_IT_number 15
_symmetry_cell_setting 'monoclinic'
loop_
_space_group_symop_operation_xyz
x,y,z
-x,y,1/2-z
-x,-y,-z
x,-y,1/2+z
1/2+x,1/2+y,z
1/2-x,1/2+y,1/2-z
1/2-x,1/2-y,-z
1/2+x,1/2-y,1/2+z
loop_
_atom_site_type_symbol
_atom_site_label
_atom_site_fract_x
_atom_site_fract_y
_atom_site_fract_z
Si Si1 0.561596 0.713126 0.536914
Si Si2 0.565513 0.354681 0.525232
Si Si3 0.301249 0.131063 0.914176
Si Si4 0.059685 0.038181 0.027673
Si Si5 0.021948 0.287815 0.376754
Si Si6 0.942134 0.569909 0.176526
Si Si7 0.837194 0.532691 0.777271
Si Si8 0.293906 0.158865 0.230726
O O1 0.500000 0.730740 0.750000
O O2 0.468578 0.683279 0.550141
O O3 0.600626 0.755544 0.386308
O O4 0.673978 0.679055 0.443498
O O5 0.500000 0.345620 0.750000
O O6 0.704570 0.359732 0.407901
O O7 0.530246 0.407771 0.516329
O O8 0.416706 0.161445 0.730761
O O9 0.324390 0.074700 0.905589
O O10 0.257901 0.150404 0.112724
O O11 0.000000 0.033449 0.250000
O O12 0.204979 0.030905 0.862822
O O13 0.000000 0.000000 0.000000
O O14 0.000000 0.265499 0.250000
O O15 0.896888 0.300288 0.601084
O O16 0.871487 0.519989 0.287554
O O17 0.854819 0.610604 0.217202
O O18 0.000000 0.588484 0.250000
O O19 0.054495 0.553579 0.946200
#
# Coordination Sequence:
#
# PCOD9286420 Si02
#       8
#     8   8   8   8   8   8   8   8
#     4  12  28  45  68 100 137 180 220 286 356 414
#     4  10  21  43  68  94 130 178 229 278 333 402
#     4  10  21  43  73  99 133 172 235 283 326 400
#     4  10  24  40  65  98 136 180 224 281 334 401
#     4  10  24  44  72 102 130 176 229 285 341 410
#     4  11  26  41  68 101 141 181 223 285 343 408
#     4  10  24  42  68 100 135 183 228 272 337 400
#     4  11  25  45  72 100 134 178 227 289 333 410
#
# _framework density 21.539239999999999
#
# number of rings (size 3 to 8) (size 9 to 14) (size 15 to 20)
#    0.000    1.500    2.500    0.375    8.750    4.500 
#    0.000    0.000    0.000    0.000    0.000    0.000 
#    0.000    0.000    0.000    0.000    0.000    0.000 
#
# Total GULP energy -178754.328846 kJ/mol
# GULP energy per Si atom -5586.072776 kJ/mol
# Density = 2.149022 g / cm^3
# Si number density = 21.539240 Si / 1000 Ang^3
#
#
#
# Elastic Constant Matrix: (Units=GPa)
#
#
# Indices 1 2 3 4 5 6 
#
# 1 77.7582 40.5989 13.8139 0.0000 -4.9162 0.0000
# 2 40.5989 102.8718 10.5964 0.0000 1.5439 0.0000
# 3 13.8139 10.5964 41.7197 0.0000 -6.2781 0.0000
# 4 0.0000 0.0000 0.0000 14.6224 0.0000 -0.2564
# 5 -4.9162 1.5439 -6.2781 0.0000 30.2405 0.0000
# 6 0.0000 0.0000 0.0000 -0.2564 0.0000 32.3873
#
#
#
# Elastic Compliance Matrix: (Units=1/GPa)
#
#
# Indices 1 2 3 4 5 6 
#
# 1 0.016977 -0.006358 -0.003656 0.000000 0.002325 0.000000
# 2 -0.006358 0.012397 -0.001336 0.000000 -0.001944 0.000000
# 3 -0.003656 -0.001336 0.026261 0.000000 0.004926 0.000000
# 4 0.000000 0.000000 0.000000 0.068398 0.000000 0.000542
# 5 0.002325 -0.001944 0.004926 0.000000 0.034568 0.000000
# 6 0.000000 0.000000 0.000000 0.000542 0.000000 0.030881
#
#
# Mechanical properties :
#
#
# Convention : Reuss Voigt Hill
#
# Bulk Modulus (GPa) = 30.36439 39.15203 34.75821
# Shear Modulus (GPa) = 22.40551 25.93941 24.17246
#
# Velocity S-wave (km/s) = 3.22874 3.47405 3.35364
# Velocity P-wave (km/s) = 5.29410 5.85735 5.58283
#
# Compressibility (1/GPa) = 0.03293331
#
# Stress axis : x y z
#
# Youngs Moduli (GPa) = 58.90428 80.66515 38.07976
#
# Poissons Ratio (x) = 0.51289 0.13923
# Poissons Ratio (y) = 0.37453 0.05087
# Poissons Ratio (z) = 0.21537 0.10777
#
# Static dielectric constant tensor:
#      x y z
#    x 1.797370 0.000000 -0.027860 
#    y 0.000000 1.802440 0.000000 
#    z -0.027860 0.000000 1.796530 
# 
# From -- ./inp_files/44835.got.cif
#   From: 2010.05.17/outbox.cif.g08.bks.cpg/sg15_23_cif.got.tgz:44835.got - 2010.06.03 18:47:42.
