data_PCOD9286751
_publ_section_title
;
Structure prediction by ZEFSAII (Michael W. Deem and Ramdas Pophale) SiO2 
 PCOD9286751
Probable space group: C 2/C
;
_chemical_formula_sum "Si O2"
_cell_formula_units_Z 60
_cell_length_a 21.572182
_cell_length_b 17.940391
_cell_length_c 9.049889
_cell_angle_alpha 90.000000
_cell_angle_beta 123.814580
_cell_angle_gamma 90.000000
_cell_volume 2909.967482
_symmetry_space_group_name_H-M "C 2/C"
_symmetry_group_IT_number 15
_symmetry_cell_setting 'monoclinic'
loop_
_space_group_symop_operation_xyz
x,y,z
-x,y,1/2-z
-x,-y,-z
x,-y,1/2+z
1/2+x,1/2+y,z
1/2-x,1/2+y,1/2-z
1/2-x,1/2-y,-z
1/2+x,1/2-y,1/2+z
loop_
_atom_site_type_symbol
_atom_site_label
_atom_site_fract_x
_atom_site_fract_y
_atom_site_fract_z
Si Si1 0.896553 0.813976 0.740764
Si Si2 0.812790 0.471911 0.206114
Si Si3 0.374262 0.091518 0.505549
Si Si4 0.500000 0.811895 0.250000
Si Si5 0.684960 0.364795 0.154488
Si Si6 0.682980 0.580419 0.960604
Si Si7 0.456792 0.561851 0.539713
Si Si8 0.755386 0.795456 0.753141
O O1 0.871806 0.856210 0.557583
O O2 0.820650 0.787916 0.719381
O O3 0.945287 0.742790 0.765108
O O4 0.940603 0.869145 0.908734
O O5 0.857798 0.521239 0.381595
O O6 0.757683 0.411539 0.203969
O O7 0.868659 0.434582 0.166242
O O8 0.755112 0.527656 0.045890
O O9 0.450024 0.135731 0.580324
O O10 0.306323 0.148362 0.391193
O O11 0.651591 0.402930 0.256695
O O12 0.715397 0.282144 0.231970
O O13 0.625366 0.543403 0.000190
O O14 0.708149 0.659575 0.062590
O O15 0.500000 0.579875 0.750000
O O16 0.500000 0.500000 0.500000
#
# Coordination Sequence:
#
# PCOD9286751 Si02
#       8
#     8   8   8   4   8   8   8   8
#     4  11  25  43  68 102 130 179 229 282 337 411
#     4  11  23  40  69  97 131 172 228 282 337 387
#     4  11  23  44  66 100 134 181 225 283 335 408
#     4  12  26  42  70  94 144 182 230 268 346 414
#     4  12  21  40  74  99 128 170 225 292 336 390
#     4  10  25  40  65 102 132 171 226 283 335 405
#     4  11  29  44  63  93 143 181 216 272 353 428
#     4  10  21  44  67  99 135 171 231 281 343 400
#
# _framework density 20.618787000000001
#
# number of rings (size 3 to 8) (size 9 to 14) (size 15 to 20)
#    0.000    1.067    4.000    1.600    6.533    0.533 
#    0.000    0.000    0.000    0.000    0.000    0.000 
#    0.000    0.000    0.000    0.000    0.000    0.000 
#
# Total GULP energy -167729.335787 kJ/mol
# GULP energy per Si atom -5590.977860 kJ/mol
# Density = 2.057186 g / cm^3
# Si number density = 20.618787 Si / 1000 Ang^3
#
#
#
# Elastic Constant Matrix: (Units=GPa)
#
#
# Indices 1 2 3 4 5 6 
#
# 1 54.8177 28.7297 48.5563 0.0000 -9.4829 0.0000
# 2 28.7297 101.8781 50.3435 0.0000 -8.2560 0.0000
# 3 48.5563 50.3435 102.7971 0.0000 0.4481 0.0000
# 4 0.0000 0.0000 0.0000 20.2582 0.0000 15.4101
# 5 -9.4829 -8.2560 0.4481 0.0000 29.6876 0.0000
# 6 0.0000 0.0000 0.0000 15.4101 0.0000 35.5905
#
#
#
# Elastic Compliance Matrix: (Units=1/GPa)
#
#
# Indices 1 2 3 4 5 6 
#
# 1 0.034901 -0.001018 -0.016035 0.000000 0.011107 0.000000
# 2 -0.001018 0.013398 -0.006096 0.000000 0.003493 0.000000
# 3 -0.016035 -0.006096 0.020319 0.000000 -0.007124 0.000000
# 4 0.000000 0.000000 0.000000 0.073606 0.000000 -0.031870
# 5 0.011107 0.003493 -0.007124 0.000000 0.038311 0.000000
# 6 0.000000 0.000000 0.000000 -0.031870 0.000000 0.041897
#
#
# Mechanical properties :
#
#
# Convention : Reuss Voigt Hill
#
# Bulk Modulus (GPa) = 44.80455 57.19465 50.99960
# Shear Modulus (GPa) = 18.10481 25.89816 22.00148
#
# Velocity S-wave (km/s) = 2.96644 3.54792 3.27013
# Velocity P-wave (km/s) = 5.78880 6.67705 6.24873
#
# Compressibility (1/GPa) = 0.02231916
#
# Stress axis : x y z
#
# Youngs Moduli (GPa) = 28.65242 74.63749 49.21594
#
# Poissons Ratio (x) = 0.07599 0.78919
# Poissons Ratio (y) = 0.02917 0.30001
# Poissons Ratio (z) = 0.45945 0.45498
#
# Static dielectric constant tensor:
#      x y z
#    x 1.729800 0.000000 0.008460 
#    y 0.000000 1.732900 0.000000 
#    z 0.008460 0.000000 1.747720 
# 
# From -- ./inp_files/57040.got.cif
#   From: 2010.05.17/outbox.cif.g08.bks.cpg/sg15_29_cif.got.tgz:57040.got - 2010.06.03 18:47:42.
