data_PCOD9286428
_publ_section_title
;
Structure prediction by ZEFSAII (Michael W. Deem and Ramdas Pophale) SiO2 
 PCOD9286428
Probable space group: C 2/C
;
_chemical_formula_sum "Si O2"
_cell_formula_units_Z 44
_cell_length_a 24.190352
_cell_length_b 12.482209
_cell_length_c 8.196006
_cell_angle_alpha 90.000000
_cell_angle_beta 58.255413
_cell_angle_gamma 90.000000
_cell_volume 2104.554348
_symmetry_space_group_name_H-M "C 2/C"
_symmetry_group_IT_number 15
_symmetry_cell_setting 'monoclinic'
loop_
_space_group_symop_operation_xyz
x,y,z
-x,y,1/2-z
-x,-y,-z
x,-y,1/2+z
1/2+x,1/2+y,z
1/2-x,1/2+y,1/2-z
1/2-x,1/2-y,-z
1/2+x,1/2-y,1/2+z
loop_
_atom_site_type_symbol
_atom_site_label
_atom_site_fract_x
_atom_site_fract_y
_atom_site_fract_z
Si Si1 0.789411 0.199113 0.287882
Si Si2 0.158837 0.612444 0.372069
Si Si3 0.370710 0.873445 0.964933
Si Si4 0.899937 0.812464 0.843848
Si Si5 0.500000 0.762795 0.750000
Si Si6 0.971435 0.883039 0.019162
O O1 0.750000 0.250000 0.500000
O O2 0.736297 0.131932 0.271793
O O3 0.848955 0.143471 0.291078
O O4 0.820999 0.290807 0.126811
O O5 0.143063 0.493016 0.453014
O O6 0.137065 0.629398 0.219176
O O7 0.123056 0.698706 0.546462
O O8 0.443354 0.838907 0.905056
O O9 0.912486 0.884548 0.984121
O O10 0.969419 0.813013 0.647915
O O11 0.458428 0.680632 0.703459
O O12 0.000000 0.000000 0.000000
#
# Coordination Sequence:
#
# PCOD9286428 Si02
#       6
#     8   8   8   8   4   8
#     4  10  22  45  69  98 140 176 232 286 330 418
#     4  11  24  44  69 101 143 181 230 282 344 419
#     4  12  25  45  71 107 139 187 232 283 357 406
#     4  10  21  43  68  95 139 178 227 285 345 405
#     4  12  24  42  72 104 144 176 236 292 340 428
#     4  11  23  43  66  97 138 180 231 290 345 411
#
# _framework density 20.907039999999999
#
# number of rings (size 3 to 8) (size 9 to 14) (size 15 to 20)
#    0.000    1.091    3.636    3.818    0.000    2.182 
#    9.818    0.000    0.000    0.000    0.000    0.000 
#    0.000    0.000    0.000    0.000    0.000    0.000 
#
# Total GULP energy -122724.574381 kJ/mol
# GULP energy per Si atom -5578.389745 kJ/mol
# Density = 2.085945 g / cm^3
# Si number density = 20.907040 Si / 1000 Ang^3
#
#
#
# Elastic Constant Matrix: (Units=GPa)
#
#
# Indices 1 2 3 4 5 6 
#
# 1 102.7822 59.0619 4.0995 0.0000 14.2936 0.0000
# 2 59.0619 142.3328 37.9155 0.0000 -4.4338 0.0000
# 3 4.0995 37.9155 63.1057 0.0000 -2.2180 0.0000
# 4 0.0000 0.0000 0.0000 23.3598 0.0000 -3.7704
# 5 14.2936 -4.4338 -2.2180 0.0000 38.5181 0.0000
# 6 0.0000 0.0000 0.0000 -3.7704 0.0000 27.8405
#
#
#
# Elastic Compliance Matrix: (Units=1/GPa)
#
#
# Indices 1 2 3 4 5 6 
#
# 1 0.014466 -0.007004 0.003058 0.000000 -0.005999 0.000000
# 2 -0.007004 0.011773 -0.006493 0.000000 0.003581 0.000000
# 3 0.003058 -0.006493 0.019522 0.000000 -0.000758 0.000000
# 4 0.000000 0.000000 0.000000 0.043765 0.000000 0.005927
# 5 -0.005999 0.003581 -0.000758 0.000000 0.028556 0.000000
# 6 0.000000 0.000000 0.000000 0.005927 0.000000 0.036722
#
#
# Mechanical properties :
#
#
# Convention : Reuss Voigt Hill
#
# Bulk Modulus (GPa) = 40.18778 56.70828 48.44803
# Shear Modulus (GPa) = 27.17705 31.75327 29.46516
#
# Velocity S-wave (km/s) = 3.60932 3.90139 3.75819
# Velocity P-wave (km/s) = 6.05256 6.89038 6.48501
#
# Compressibility (1/GPa) = 0.02488318
#
# Stress axis : x y z
#
# Youngs Moduli (GPa) = 69.12535 84.93681 51.22361
#
# Poissons Ratio (x) = 0.59493 -0.15663
# Poissons Ratio (y) = 0.48418 0.33259
# Poissons Ratio (z) = -0.21137 0.55149
#
# Static dielectric constant tensor:
#      x y z
#    x 1.911070 0.000000 -0.003480 
#    y 0.000000 1.712820 0.000000 
#    z -0.003480 0.000000 1.822290 
# 
# From -- ./inp_files/54347.got.cif
#   From: 2010.05.17/outbox.cif.g08.bks.cpg/sg15_28_cif.got.tgz:54347.got - 2010.06.03 18:47:42.
