data_PCOD9286542
_publ_section_title
;
Structure prediction by ZEFSAII (Michael W. Deem and Ramdas Pophale) SiO2 
 PCOD9286542
Probable space group: C 2/C
;
_chemical_formula_sum "Si O2"
_cell_formula_units_Z 48
_cell_length_a 11.749122
_cell_length_b 8.007365
_cell_length_c 23.446018
_cell_angle_alpha 90.000000
_cell_angle_beta 77.586015
_cell_angle_gamma 90.000000
_cell_volume 2154.218116
_symmetry_space_group_name_H-M "C 2/C"
_symmetry_group_IT_number 15
_symmetry_cell_setting 'monoclinic'
loop_
_space_group_symop_operation_xyz
x,y,z
-x,y,1/2-z
-x,-y,-z
x,-y,1/2+z
1/2+x,1/2+y,z
1/2-x,1/2+y,1/2-z
1/2-x,1/2-y,-z
1/2+x,1/2-y,1/2+z
loop_
_atom_site_type_symbol
_atom_site_label
_atom_site_fract_x
_atom_site_fract_y
_atom_site_fract_z
Si Si1 0.128750 0.956038 0.322941
Si Si2 0.917917 0.755557 0.937111
Si Si3 0.613680 0.512018 0.160807
Si Si4 0.351277 0.214404 0.747996
Si Si5 0.654959 0.304672 0.431354
Si Si6 0.379129 0.967462 0.140053
O O1 0.227626 0.844875 0.284326
O O2 0.136461 0.954299 0.389966
O O3 0.152374 0.140654 0.298189
O O4 0.000384 0.903379 0.316175
O O5 0.905036 0.922207 0.901045
O O6 0.789296 0.679085 0.937478
O O7 0.025038 0.643238 0.903476
O O8 0.921721 0.789765 0.003924
O O9 0.602701 0.679138 0.201970
O O10 0.739224 0.429267 0.153698
O O11 0.405956 0.060722 0.705177
O O12 0.626328 0.145700 0.392793
#
# Coordination Sequence:
#
# PCOD9286542 Si02
#       6
#     8   8   8   8   8   8
#     4  12  23  44  68  97 135 174 218 276 329 400
#     4  10  21  43  71  93 136 179 218 274 327 398
#     4  11  24  42  67  97 139 169 217 278 336 387
#     4  12  23  40  68  95 131 172 218 267 339 386
#     4  10  23  44  68  99 131 178 227 268 332 384
#     4  11  22  41  67  98 130 178 216 278 327 391
#
# _framework density 22.281866000000001
#
# number of rings (size 3 to 8) (size 9 to 14) (size 15 to 20)
#    0.000    1.000    6.667    1.000    0.000    0.667 
#    3.000    2.500    3.667    0.000    0.000    0.000 
#    0.000    0.000    0.000    0.000    0.000    0.000 
#
# Total GULP energy -133672.218811 kJ/mol
# GULP energy per Si atom -5569.675784 kJ/mol
# Density = 2.223115 g / cm^3
# Si number density = 22.281866 Si / 1000 Ang^3
#
#
#
# Elastic Constant Matrix: (Units=GPa)
#
#
# Indices 1 2 3 4 5 6 
#
# 1 100.0495 32.5026 45.2086 0.0000 -11.0659 0.0000
# 2 32.5026 37.9552 26.6683 0.0000 4.6385 0.0000
# 3 45.2086 26.6683 191.5057 0.0000 -3.9421 0.0000
# 4 0.0000 0.0000 0.0000 35.4801 0.0000 -0.7920
# 5 -11.0659 4.6385 -3.9421 0.0000 30.5248 0.0000
# 6 0.0000 0.0000 0.0000 -0.7920 0.0000 47.2536
#
#
#
# Elastic Compliance Matrix: (Units=1/GPa)
#
#
# Indices 1 2 3 4 5 6 
#
# 1 0.015972 -0.013375 -0.001752 0.000000 0.007596 0.000000
# 2 -0.013375 0.041179 -0.002813 0.000000 -0.011469 0.000000
# 3 -0.001752 -0.002813 0.006039 0.000000 0.000572 0.000000
# 4 0.000000 0.000000 0.000000 0.028195 0.000000 0.000473
# 5 0.007596 -0.011469 0.000572 0.000000 0.037331 0.000000
# 6 0.000000 0.000000 0.000000 0.000473 0.000000 0.021170
#
#
# Mechanical properties :
#
#
# Convention : Reuss Voigt Hill
#
# Bulk Modulus (GPa) = 36.61654 59.80773 48.21213
# Shear Modulus (GPa) = 25.65839 37.66042 31.65940
#
# Velocity S-wave (km/s) = 3.39711 4.11564 3.77352
# Velocity P-wave (km/s) = 5.64413 7.03451 6.37733
#
# Compressibility (1/GPa) = 0.02731006
#
# Stress axis : x y z
#
# Youngs Moduli (GPa) = 62.61057 24.28447 165.59655
#
# Poissons Ratio (x) = 0.32480 0.29005
# Poissons Ratio (y) = 0.83741 0.46583
# Poissons Ratio (z) = 0.10966 0.06831
#
# Static dielectric constant tensor:
#      x y z
#    x 1.906340 0.000000 -0.009330 
#    y 0.000000 1.887980 0.000000 
#    z -0.009330 0.000000 1.853890 
# 
# From -- ./inp_files/267644.got.cif
#   From: 2010.05.17/outbox.cif.g08.bks.cpg/sg15_134_cif.got.tgz:267644.got - 2010.06.03 18:47:42.
