data_PCOD9286810
_publ_section_title
;
Structure prediction by ZEFSAII (Michael W. Deem and Ramdas Pophale) SiO2 
 PCOD9286810
Probable space group: C 2/C
;
_chemical_formula_sum "Si O2"
_cell_formula_units_Z 44
_cell_length_a 12.545881
_cell_length_b 23.479893
_cell_length_c 8.529819
_cell_angle_alpha 90.000000
_cell_angle_beta 56.588966
_cell_angle_gamma 90.000000
_cell_volume 2097.438683
_symmetry_space_group_name_H-M "C 2/C"
_symmetry_group_IT_number 15
_symmetry_cell_setting 'monoclinic'
loop_
_space_group_symop_operation_xyz
x,y,z
-x,y,1/2-z
-x,-y,-z
x,-y,1/2+z
1/2+x,1/2+y,z
1/2-x,1/2+y,1/2-z
1/2-x,1/2-y,-z
1/2+x,1/2-y,1/2+z
loop_
_atom_site_type_symbol
_atom_site_label
_atom_site_fract_x
_atom_site_fract_y
_atom_site_fract_z
Si Si1 0.438389 0.590581 0.450598
Si Si2 0.879487 0.966034 0.462636
Si Si3 0.137277 0.612057 0.127395
Si Si4 0.271093 0.827219 0.250016
Si Si5 0.409626 0.227223 0.170648
Si Si6 0.000000 0.291080 0.250000
O O1 0.500000 0.619967 0.250000
O O2 0.355464 0.533477 0.486408
O O3 0.561558 0.561384 0.429735
O O4 0.351842 0.633695 0.615434
O O5 0.752959 0.931363 0.533096
O O6 0.000000 0.956926 0.250000
O O7 0.135884 0.662187 0.259335
O O8 0.000000 0.582685 0.250000
O O9 0.148733 0.645234 0.954432
O O10 0.213377 0.767743 0.237695
O O11 0.365369 0.822202 0.321894
O O12 0.500000 0.241534 0.250000
O O13 0.474640 0.235674 0.945172
#
# Coordination Sequence:
#
# PCOD9286810 Si02
#       6
#     8   8   8   8   8   4
#     4  10  24  40  67 103 133 173 241 296 343 403
#     4  10  21  44  69  96 135 179 239 294 335 416
#     4  11  23  45  68  99 140 184 232 284 350 426
#     4  12  25  44  69  99 139 192 230 292 362 415
#     4  11  26  45  69 100 140 186 238 291 350 421
#     4  12  26  46  62 100 150 176 242 292 340 436
#
# _framework density 20.977968000000001
#
# number of rings (size 3 to 8) (size 9 to 14) (size 15 to 20)
#    0.000    1.091    5.455    1.091    6.364    0.000 
#    1.636    0.909    0.000    0.000    0.000    0.000 
#    0.000    0.000    0.000    0.000    0.000    0.000 
#
# Total GULP energy -122590.456629 kJ/mol
# GULP energy per Si atom -5572.293483 kJ/mol
# Density = 2.093022 g / cm^3
# Si number density = 20.977968 Si / 1000 Ang^3
#
#
#
# Elastic Constant Matrix: (Units=GPa)
#
#
# Indices 1 2 3 4 5 6 
#
# 1 94.9484 41.3565 11.2640 0.0000 -4.3417 0.0000
# 2 41.3565 63.9910 3.3370 0.0000 -16.6203 0.0000
# 3 11.2640 3.3370 98.0012 0.0000 6.2339 0.0000
# 4 0.0000 0.0000 0.0000 7.6307 0.0000 5.0302
# 5 -4.3417 -16.6203 6.2339 0.0000 39.8562 0.0000
# 6 0.0000 0.0000 0.0000 5.0302 0.0000 10.8978
#
#
#
# Elastic Compliance Matrix: (Units=1/GPa)
#
#
# Indices 1 2 3 4 5 6 
#
# 1 0.015053 -0.010305 -0.001222 0.000000 -0.002466 0.000000
# 2 -0.010305 0.024693 -0.000242 0.000000 0.009212 0.000000
# 3 -0.001222 -0.000242 0.010472 0.000000 -0.001872 0.000000
# 4 0.000000 0.000000 0.000000 0.188365 0.000000 -0.086946
# 5 -0.002466 0.009212 -0.001872 0.000000 0.028956 0.000000
# 6 0.000000 0.000000 0.000000 -0.086946 0.000000 0.131895
#
#
# Mechanical properties :
#
#
# Convention : Reuss Voigt Hill
#
# Bulk Modulus (GPa) = 37.48492 40.98394 39.23443
# Shear Modulus (GPa) = 11.57766 25.07581 18.32674
#
# Velocity S-wave (km/s) = 2.35180 3.46112 2.95891
# Velocity P-wave (km/s) = 5.02813 5.96251 5.51514
#
# Compressibility (1/GPa) = 0.02667740
#
# Stress axis : x y z
#
# Youngs Moduli (GPa) = 66.43206 40.49764 95.49469
#
# Poissons Ratio (x) = 0.41734 0.11673
# Poissons Ratio (y) = 0.68461 0.02314
# Poissons Ratio (z) = 0.08120 0.00981
#
# Static dielectric constant tensor:
#      x y z
#    x 1.858970 0.000000 0.086960 
#    y 0.000000 1.756320 0.000000 
#    z 0.086960 0.000000 1.898020 
# 
# From -- ./inp_files/32423.got.cif
#   From: 2010.05.17/outbox.cif.g08.bks.cpg/sg15_17_cif.got.tgz:32423.got - 2010.06.03 18:47:42.
