data_PCOD9286418
_publ_section_title
;
Structure prediction by ZEFSAII (Michael W. Deem and Ramdas Pophale) SiO2 
 PCOD9286418
Probable space group: C 2/C
;
_chemical_formula_sum "Si O2"
_cell_formula_units_Z 56
_cell_length_a 10.120076
_cell_length_b 9.554154
_cell_length_c 25.370263
_cell_angle_alpha 90.000000
_cell_angle_beta 76.752734
_cell_angle_gamma 90.000000
_cell_volume 2387.745017
_symmetry_space_group_name_H-M "C 2/C"
_symmetry_group_IT_number 15
_symmetry_cell_setting 'monoclinic'
loop_
_space_group_symop_operation_xyz
x,y,z
-x,y,1/2-z
-x,-y,-z
x,-y,1/2+z
1/2+x,1/2+y,z
1/2-x,1/2+y,1/2-z
1/2-x,1/2-y,-z
1/2+x,1/2-y,1/2+z
loop_
_atom_site_type_symbol
_atom_site_label
_atom_site_fract_x
_atom_site_fract_y
_atom_site_fract_z
Si Si1 0.163533 0.735905 0.949579
Si Si2 0.352888 0.418598 0.289268
Si Si3 0.808241 0.862640 0.711885
Si Si4 0.983898 0.735934 0.871788
Si Si5 0.125802 0.261637 0.967291
Si Si6 0.692505 0.509830 0.088784
Si Si7 0.738855 0.519947 0.892852
O O1 0.276745 0.619607 0.952782
O O2 0.108244 0.689454 0.896574
O O3 0.234279 0.883705 0.930585
O O4 0.024438 0.726608 0.995285
O O5 0.500000 0.421004 0.250000
O O6 0.290414 0.268631 0.282431
O O7 0.280648 0.547144 0.265993
O O8 0.349774 0.448016 0.351212
O O9 0.956933 0.792570 0.688659
O O10 0.791396 0.965202 0.662993
O O11 0.922368 0.871247 0.908014
O O12 0.875497 0.612789 0.878358
O O13 0.171356 0.395838 0.928994
O O14 0.133170 0.127202 0.928855
O O15 0.250000 0.250000 0.000000
#
# Coordination Sequence:
#
# PCOD9286418 Si02
#       7
#     8   8   8   8   8   8   8
#     4  11  21  44  66  98 135 173 222 274 325 398
#     4  12  26  45  69 100 132 172 225 277 335 396
#     4  11  26  44  69  98 132 174 220 280 337 393
#     4  10  21  43  68  93 138 172 216 268 337 394
#     4  11  22  41  72  94 136 185 218 268 339 389
#     4  11  22  42  69  95 133 176 218 275 329 395
#     4  10  22  41  70  97 133 175 219 271 331 397
#
# _framework density 23.45309
#
# number of rings (size 3 to 8) (size 9 to 14) (size 15 to 20)
#    0.000    1.143    7.143    0.857    4.000    1.143 
#    0.000    6.429    0.000    0.000    0.000    0.000 
#    0.000    0.000    0.000    0.000    0.000    0.000 
#
# Total GULP energy -156347.116652 kJ/mol
# GULP energy per Si atom -5583.825595 kJ/mol
# Density = 2.339971 g / cm^3
# Si number density = 23.453090 Si / 1000 Ang^3
#
#
#
# Elastic Constant Matrix: (Units=GPa)
#
#
# Indices 1 2 3 4 5 6 
#
# 1 75.4593 32.3265 23.9478 0.0000 -10.3094 0.0000
# 2 32.3265 136.7555 5.7923 0.0000 -15.2384 0.0000
# 3 23.9478 5.7923 75.8720 0.0000 -14.1138 0.0000
# 4 0.0000 0.0000 0.0000 9.9318 0.0000 -12.5599
# 5 -10.3094 -15.2384 -14.1138 0.0000 20.4985 0.0000
# 6 0.0000 0.0000 0.0000 -12.5599 0.0000 40.0479
#
#
#
# Elastic Compliance Matrix: (Units=1/GPa)
#
#
# Indices 1 2 3 4 5 6 
#
# 1 0.016492 -0.003409 -0.004443 0.000000 0.002701 0.000000
# 2 -0.003409 0.008699 0.001486 0.000000 0.005775 0.000000
# 3 -0.004443 0.001486 0.016353 0.000000 0.010130 0.000000
# 4 0.000000 0.000000 0.000000 0.166868 0.000000 0.052333
# 5 0.002701 0.005775 0.010130 0.000000 0.061411 0.000000
# 6 0.000000 0.000000 0.000000 0.052333 0.000000 0.041383
#
#
# Mechanical properties :
#
#
# Convention : Reuss Voigt Hill
#
# Bulk Modulus (GPa) = 34.70691 45.80222 40.25456
# Shear Modulus (GPa) = 14.99069 29.16365 22.07717
#
# Velocity S-wave (km/s) = 2.53094 3.53014 3.07144
# Velocity P-wave (km/s) = 4.83440 6.01561 5.45706
#
# Compressibility (1/GPa) = 0.02881271
#
# Stress axis : x y z
#
# Youngs Moduli (GPa) = 60.63701 114.95873 61.14965
#
# Poissons Ratio (x) = 0.39192 0.27166
# Poissons Ratio (y) = 0.20672 -0.09089
# Poissons Ratio (z) = 0.26939 -0.17086
#
# Static dielectric constant tensor:
#      x y z
#    x 1.915350 0.000000 0.014280 
#    y 0.000000 1.898380 0.000000 
#    z 0.014280 0.000000 1.900210 
# 
# From -- ./inp_files/291535.got.cif
#   From: 2010.05.17/outbox.cif.g08.bks.cpg/sg15_146_cif.got.tgz:291535.got - 2010.06.03 18:47:42.
