data_PCOD9286354
_publ_section_title
;
Structure prediction by ZEFSAII (Michael W. Deem and Ramdas Pophale) SiO2 
 PCOD9286354
Probable space group: C 2/C
;
_chemical_formula_sum "Si O2"
_cell_formula_units_Z 64
_cell_length_a 17.778446
_cell_length_b 15.723475
_cell_length_c 16.910987
_cell_angle_alpha 90.000000
_cell_angle_beta 36.826097
_cell_angle_gamma 90.000000
_cell_volume 2833.475840
_symmetry_space_group_name_H-M "C 2/C"
_symmetry_group_IT_number 15
_symmetry_cell_setting 'monoclinic'
loop_
_space_group_symop_operation_xyz
x,y,z
-x,y,1/2-z
-x,-y,-z
x,-y,1/2+z
1/2+x,1/2+y,z
1/2-x,1/2+y,1/2-z
1/2-x,1/2-y,-z
1/2+x,1/2-y,1/2+z
loop_
_atom_site_type_symbol
_atom_site_label
_atom_site_fract_x
_atom_site_fract_y
_atom_site_fract_z
Si Si1 0.262416 0.389995 0.196828
Si Si2 0.205419 0.180932 0.653608
Si Si3 0.955411 0.239897 0.472183
Si Si4 0.615324 0.480123 0.997393
Si Si5 0.426792 0.612780 0.234289
Si Si6 0.265893 0.992598 0.023368
Si Si7 0.548805 0.716828 0.564570
Si Si8 0.508927 0.903128 0.149657
O O1 0.265160 0.351558 0.281850
O O2 0.336757 0.323184 0.078534
O O3 0.123753 0.406827 0.282633
O O4 0.342856 0.476655 0.119698
O O5 0.208719 0.096063 0.599486
O O6 0.318103 0.240579 0.529245
O O7 0.066977 0.221474 0.776816
O O8 0.925735 0.324009 0.449210
O O9 0.067714 0.188265 0.333751
O O10 0.998401 0.257126 0.525286
O O11 0.506844 0.535506 0.129421
O O12 0.732234 0.494057 0.959138
O O13 0.575075 0.382919 0.026173
O O14 0.500000 0.645974 0.250000
O O15 0.304042 0.568539 0.371662
O O16 0.410717 0.010013 0.920597
O O17 0.500000 0.882584 0.250000
#
# Coordination Sequence:
#
# PCOD9286354 Si02
#       8
#     8   8   8   8   8   8   8   8
#     4  10  23  43  62  99 134 169 225 274 340 416
#     4  11  25  45  67 101 133 176 234 281 351 397
#     4  10  23  39  64  94 134 175 216 268 336 407
#     4  10  21  43  67  91 129 175 225 272 327 406
#     4   9  19  37  61  92 120 164 217 259 315 397
#     4  11  24  40  67  96 132 176 225 277 341 402
#     4  11  24  43  69  97 135 177 227 289 331 410
#     4  12  24  41  64  97 140 173 215 280 342 412
#
# _framework density 22.587098999999998
#
# number of rings (size 3 to 8) (size 9 to 14) (size 15 to 20)
#    0.000    1.500    3.750    0.375    3.500    4.000 
#    0.000    0.000    0.000    0.000    0.000    0.000 
#    0.000    0.000    0.000    0.000    0.000    0.000 
#
# Total GULP energy -178886.060963 kJ/mol
# GULP energy per Si atom -5590.189405 kJ/mol
# Density = 2.253569 g / cm^3
# Si number density = 22.587099 Si / 1000 Ang^3
#
#
#
# Elastic Constant Matrix: (Units=GPa)
#
#
# Indices 1 2 3 4 5 6 
#
# 1 75.6303 -3.7230 33.8655 0.0000 0.7549 0.0000
# 2 -3.7230 57.4995 31.7153 0.0000 -1.3697 0.0000
# 3 33.8655 31.7153 92.9648 0.0000 -16.2238 0.0000
# 4 0.0000 0.0000 0.0000 31.2048 0.0000 -11.4960
# 5 0.7549 -1.3697 -16.2238 0.0000 33.7315 0.0000
# 6 0.0000 0.0000 0.0000 -11.4960 0.0000 -23.0101
#
#
#
# Elastic Compliance Matrix: (Units=1/GPa)
#
#
# Indices 1 2 3 4 5 6 
#
# 1 0.017799 0.006242 -0.009430 0.000000 -0.004681 0.000000
# 2 0.006242 0.023873 -0.011215 0.000000 -0.004564 0.000000
# 3 -0.009430 -0.011215 0.019622 0.000000 0.009193 0.000000
# 4 0.000000 0.000000 0.000000 0.027065 0.000000 -0.013522
# 5 -0.004681 -0.004564 0.009193 0.000000 0.033987 0.000000
# 6 0.000000 0.000000 0.000000 -0.013522 0.000000 -0.036704
#
#
# Mechanical properties :
#
#
# Convention : Reuss Voigt Hill
#
# Bulk Modulus (GPa) = 30.77990 38.86782 34.82386
# Shear Modulus (GPa) = 39.91141 19.33435 29.62288
#
# Velocity S-wave (km/s) = 4.20813 2.92891 3.62539
# Velocity P-wave (km/s) = 6.10475 5.35568 5.74244
#
# Compressibility (1/GPa) = 0.03248873
#
# Stress axis : x y z
#
# Youngs Moduli (GPa) = 56.18327 41.88870 50.96200
#
# Poissons Ratio (x) = -0.26149 0.48059
# Poissons Ratio (y) = -0.35072 0.57153
# Poissons Ratio (z) = 0.52983 0.46978
#
# Static dielectric constant tensor:
#      x y z
#    x 1.851130 0.000000 -0.018860 
#    y 0.000000 1.806990 0.000000 
#    z -0.018860 0.000000 1.865770 
# 
# From -- ./inp_files/211365.got.cif
#   From: 2010.05.17/outbox.cif.g08.bks.cpg/sg15_106_cif.got.tgz:211365.got - 2010.06.03 18:47:42.
