data_PCOD9286617
_publ_section_title
;
Structure prediction by ZEFSAII (Michael W. Deem and Ramdas Pophale) SiO2 
 PCOD9286617
Probable space group: C 2/C
;
_chemical_formula_sum "Si O2"
_cell_formula_units_Z 40
_cell_length_a 8.719659
_cell_length_b 10.678934
_cell_length_c 17.469052
_cell_angle_alpha 90.000000
_cell_angle_beta 69.388922
_cell_angle_gamma 90.000000
_cell_volume 1522.539756
_symmetry_space_group_name_H-M "C 2/C"
_symmetry_group_IT_number 15
_symmetry_cell_setting 'monoclinic'
loop_
_space_group_symop_operation_xyz
x,y,z
-x,y,1/2-z
-x,-y,-z
x,-y,1/2+z
1/2+x,1/2+y,z
1/2-x,1/2+y,1/2-z
1/2-x,1/2-y,-z
1/2+x,1/2-y,1/2+z
loop_
_atom_site_type_symbol
_atom_site_label
_atom_site_fract_x
_atom_site_fract_y
_atom_site_fract_z
Si Si1 0.626056 0.279501 0.423745
Si Si2 0.828610 0.899502 0.245959
Si Si3 0.751990 0.374903 0.829072
Si Si4 0.367739 0.091955 0.481647
Si Si5 0.629399 0.419441 0.575482
O O1 0.626311 0.345768 0.344279
O O2 0.453449 0.223759 0.480756
O O3 0.677154 0.372226 0.481837
O O4 0.759519 0.169279 0.392331
O O5 0.777076 0.770890 0.299661
O O6 0.000000 0.949190 0.250000
O O7 0.712762 0.019191 0.243902
O O8 0.843735 0.406999 0.893288
O O9 0.558690 0.395378 0.877605
O O10 0.500000 0.000000 0.500000
O O11 0.204236 0.057609 0.557207
#
# Coordination Sequence:
#
# PCOD9286617 Si02
#       5
#     8   8   8   8   8
#     4  10  22  45  72 110 148 190 252 319 380 453
#     4  12  28  50  72 111 160 203 253 311 396 467
#     4  12  27  50  76 111 157 205 258 317 384 468
#     4  10  21  43  76 111 145 192 251 324 378 438
#     4  10  23  44  76 110 142 195 259 319 375 442
#
# _framework density 26.271892999999999
#
# number of rings (size 3 to 8) (size 9 to 14) (size 15 to 20)
#    0.000    1.200    4.000    0.600    2.800    2.400 
#   14.400    0.000    0.000    0.000    0.000    0.000 
#    0.000    0.000    0.000    0.000    0.000    0.000 
#
# Total GULP energy -111776.962381 kJ/mol
# GULP energy per Si atom -5588.848119 kJ/mol
# Density = 2.621210 g / cm^3
# Si number density = 26.271893 Si / 1000 Ang^3
#
#
#
# Elastic Constant Matrix: (Units=GPa)
#
#
# Indices 1 2 3 4 5 6 
#
# 1 122.5442 47.5245 46.8486 0.0000 13.3152 0.0000
# 2 47.5245 158.9414 48.9016 0.0000 18.0343 0.0000
# 3 46.8486 48.9016 105.6921 0.0000 31.9228 0.0000
# 4 0.0000 0.0000 0.0000 39.1457 0.0000 -0.2494
# 5 13.3152 18.0343 31.9228 0.0000 55.9794 0.0000
# 6 0.0000 0.0000 0.0000 -0.2494 0.0000 33.4941
#
#
#
# Elastic Compliance Matrix: (Units=1/GPa)
#
#
# Indices 1 2 3 4 5 6 
#
# 1 0.010327 -0.001966 -0.003766 0.000000 0.000325 0.000000
# 2 -0.001966 0.007723 -0.002527 0.000000 -0.000579 0.000000
# 3 -0.003766 -0.002527 0.014235 0.000000 -0.006408 0.000000
# 4 0.000000 0.000000 0.000000 0.025547 0.000000 0.000190
# 5 0.000325 -0.000579 -0.006408 0.000000 0.021627 0.000000
# 6 0.000000 0.000000 0.000000 0.000190 0.000000 0.029857
#
#
# Mechanical properties :
#
#
# Convention : Reuss Voigt Hill
#
# Bulk Modulus (GPa) = 63.42059 74.85856 69.13957
# Shear Modulus (GPa) = 38.14175 41.98403 40.06289
#
# Velocity S-wave (km/s) = 3.81439 4.00191 3.90928
# Velocity P-wave (km/s) = 6.60242 7.06465 6.83745
#
# Compressibility (1/GPa) = 0.01576775
#
# Stress axis : x y z
#
# Youngs Moduli (GPa) = 96.83112 129.49002 70.24843
#
# Poissons Ratio (x) = 0.25459 0.26455
# Poissons Ratio (y) = 0.19038 0.17749
# Poissons Ratio (z) = 0.36466 0.32717
#
# Static dielectric constant tensor:
#      x y z
#    x 2.052360 0.000000 0.030030 
#    y 0.000000 2.151210 0.000000 
#    z 0.030030 0.000000 2.054030 
# 
# From -- ./inp_files/187805.got.cif
#   From: 2010.05.17/outbox.cif.g08.bks.cpg/sg15_94_cif.got.tgz:187805.got - 2010.06.03 18:47:42.
