data_PCOD9286467
_publ_section_title
;
Structure prediction by ZEFSAII (Michael W. Deem and Ramdas Pophale) SiO2 
 PCOD9286467
Probable space group: C 2/C
;
_chemical_formula_sum "Si O2"
_cell_formula_units_Z 56
_cell_length_a 13.800267
_cell_length_b 18.848711
_cell_length_c 8.175694
_cell_angle_alpha 90.000000
_cell_angle_beta 85.224974
_cell_angle_gamma 90.000000
_cell_volume 2119.257936
_symmetry_space_group_name_H-M "C 2/C"
_symmetry_group_IT_number 15
_symmetry_cell_setting 'monoclinic'
loop_
_space_group_symop_operation_xyz
x,y,z
-x,y,1/2-z
-x,-y,-z
x,-y,1/2+z
1/2+x,1/2+y,z
1/2-x,1/2+y,1/2-z
1/2-x,1/2-y,-z
1/2+x,1/2-y,1/2+z
loop_
_atom_site_type_symbol
_atom_site_label
_atom_site_fract_x
_atom_site_fract_y
_atom_site_fract_z
Si Si1 0.725596 0.048950 0.630922
Si Si2 0.250793 0.773089 0.777996
Si Si3 0.869408 0.308799 0.439191
Si Si4 0.358870 0.537404 0.875699
Si Si5 0.091094 0.893643 0.825249
Si Si6 0.434530 0.947905 0.113173
Si Si7 0.434974 0.188620 0.424598
O O1 0.666951 0.109393 0.545682
O O2 0.650266 0.015754 0.770691
O O3 0.777859 0.991640 0.513117
O O4 0.810102 0.081260 0.735812
O O5 0.170599 0.715854 0.731693
O O6 0.314291 0.776147 0.602756
O O7 0.186971 0.844770 0.808633
O O8 0.337177 0.766645 0.900887
O O9 0.981205 0.290141 0.459125
O O10 0.428436 0.581984 0.984418
O O11 0.395815 0.465422 0.785099
O O12 0.000000 0.856999 0.750000
O O13 0.500000 0.915871 0.250000
O O14 0.399941 0.887473 0.995661
O O15 0.500000 0.000000 0.000000
O O16 0.500000 0.179680 0.250000
#
# Coordination Sequence:
#
# PCOD9286467 Si02
#       7
#     8   8   8   8   8   8   8
#     4  11  21  40  63  93 132 173 216 270 333 392
#     4  10  22  43  70  95 132 172 226 273 333 397
#     4  10  21  43  69  95 132 177 217 276 329 395
#     4  10  23  39  68  93 130 170 219 273 336 392
#     4  11  22  43  67  98 128 174 217 281 334 395
#     4  12  23  35  57  95 137 176 216 265 324 398
#     4  10  22  42  66  94 130 173 222 273 333 396
#
# _framework density 26.424341999999999
#
# number of rings (size 3 to 8) (size 9 to 14) (size 15 to 20)
#    0.000    1.429    2.857    2.571    0.000    2.286 
#    5.143    1.429    0.000    0.000    0.000    0.000 
#    0.000    0.000    0.000    0.000    0.000    0.000 
#
# Total GULP energy -156448.211122 kJ/mol
# GULP energy per Si atom -5587.436112 kJ/mol
# Density = 2.636420 g / cm^3
# Si number density = 26.424342 Si / 1000 Ang^3
#
#
#
# Elastic Constant Matrix: (Units=GPa)
#
#
# Indices 1 2 3 4 5 6 
#
# 1 159.0151 28.5036 47.0882 0.0000 36.0267 0.0000
# 2 28.5036 55.5897 15.0728 0.0000 15.1082 0.0000
# 3 47.0882 15.0728 92.6521 0.0000 34.2185 0.0000
# 4 0.0000 0.0000 0.0000 38.5403 0.0000 4.0999
# 5 36.0267 15.1082 34.2185 0.0000 70.6669 0.0000
# 6 0.0000 0.0000 0.0000 4.0999 0.0000 26.0474
#
#
#
# Elastic Compliance Matrix: (Units=1/GPa)
#
#
# Indices 1 2 3 4 5 6 
#
# 1 0.008132 -0.002804 -0.002883 0.000000 -0.002151 0.000000
# 2 -0.002804 0.020358 -0.000983 0.000000 -0.002447 0.000000
# 3 -0.002883 -0.000983 0.014367 0.000000 -0.005277 0.000000
# 4 0.000000 0.000000 0.000000 0.026389 0.000000 -0.004154
# 5 -0.002151 -0.002447 -0.005277 0.000000 0.018326 0.000000
# 6 0.000000 0.000000 0.000000 -0.004154 0.000000 0.039045
#
#
# Mechanical properties :
#
#
# Convention : Reuss Voigt Hill
#
# Bulk Modulus (GPa) = 33.87738 54.28734 44.08236
# Shear Modulus (GPa) = 33.37887 41.49041 37.43464
#
# Velocity S-wave (km/s) = 3.55799 3.96682 3.76795
# Velocity P-wave (km/s) = 5.45228 6.44748 5.97065
#
# Compressibility (1/GPa) = 0.02951822
#
# Stress axis : x y z
#
# Youngs Moduli (GPa) = 122.96914 49.12036 69.60422
#
# Poissons Ratio (x) = 0.13772 0.20064
# Poissons Ratio (y) = 0.34476 0.06844
# Poissons Ratio (z) = 0.35447 0.04830
#
# Static dielectric constant tensor:
#      x y z
#    x 2.214510 0.000000 0.064770 
#    y 0.000000 2.051030 0.000000 
#    z 0.064770 0.000000 2.088490 
# 
# From -- ./inp_files/41239.got.cif
#   From: 2010.05.17/outbox.cif.g08.bks.cpg/sg15_21_cif.got.tgz:41239.got - 2010.06.03 18:47:42.
