data_PCOD9286650
_publ_section_title
;
Structure prediction by ZEFSAII (Michael W. Deem and Ramdas Pophale) SiO2 
 PCOD9286650
Probable space group: C 2/C
;
_chemical_formula_sum "Si O2"
_cell_formula_units_Z 48
_cell_length_a 13.775714
_cell_length_b 29.487322
_cell_length_c 14.234044
_cell_angle_alpha 90.000000
_cell_angle_beta 158.324284
_cell_angle_gamma 90.000000
_cell_volume 2135.596970
_symmetry_space_group_name_H-M "C 2/C"
_symmetry_group_IT_number 15
_symmetry_cell_setting 'monoclinic'
loop_
_space_group_symop_operation_xyz
x,y,z
-x,y,1/2-z
-x,-y,-z
x,-y,1/2+z
1/2+x,1/2+y,z
1/2-x,1/2+y,1/2-z
1/2-x,1/2-y,-z
1/2+x,1/2-y,1/2+z
loop_
_atom_site_type_symbol
_atom_site_label
_atom_site_fract_x
_atom_site_fract_y
_atom_site_fract_z
Si Si1 0.063207 0.368829 0.584392
Si Si2 0.617570 0.462861 0.958716
Si Si3 0.657710 0.633419 0.552875
Si Si4 0.674667 0.032279 0.221969
Si Si5 0.583627 0.222984 0.216882
Si Si6 0.854838 0.732789 0.712300
O O1 0.068501 0.417298 0.641125
O O2 0.054326 0.325711 0.643096
O O3 0.811993 0.370725 0.290174
O O4 0.341618 0.364674 0.778757
O O5 0.500000 0.471377 0.750000
O O6 0.423377 0.460653 0.875371
O O7 0.729716 0.411664 0.059242
O O8 0.789581 0.504911 0.149288
O O9 0.761546 0.681746 0.610729
O O10 0.500000 0.000000 0.000000
O O11 0.500000 0.218842 0.250000
O O12 0.880244 0.241625 0.487085
O O13 0.598039 0.762555 0.502733
O O14 0.000000 0.751069 0.750000
#
# Coordination Sequence:
#
# PCOD9286650 Si02
#       6
#     8   8   8   8   8   8
#     4  11  23  40  66  93 125 172 212 266 336 382
#     4  10  23  42  65  94 127 176 217 268 343 400
#     4  11  23  39  63  92 126 165 216 267 316 397
#     4  10  21  44  64  91 137 165 217 286 323 402
#     4  10  22  42  64  94 133 171 217 276 333 403
#     4  10  22  38  56  83 123 162 203 258 312 363
#
# _framework density 22.476151000000002
#
# number of rings (size 3 to 8) (size 9 to 14) (size 15 to 20)
#    0.000    1.667    1.667    2.000    0.000    9.333 
#    3.000    0.833    0.000    0.000    0.000    0.000 
#    0.000    0.000    0.000    0.000    0.000    0.000 
#
# Total GULP energy -133980.977889 kJ/mol
# GULP energy per Si atom -5582.540745 kJ/mol
# Density = 2.242499 g / cm^3
# Si number density = 22.476151 Si / 1000 Ang^3
#
#
#
# Elastic Constant Matrix: (Units=GPa)
#
#
# Indices 1 2 3 4 5 6 
#
# 1 77.6615 20.6869 11.2217 -0.0001 -21.5047 -0.0004
# 2 20.6869 169.8378 27.0448 0.0002 -39.8522 -0.0004
# 3 11.2217 27.0448 76.7018 0.0027 -25.5709 -0.0006
# 4 -0.0001 0.0002 0.0027 34.6272 0.0002 -20.6202
# 5 -21.5047 -39.8522 -25.5709 0.0002 42.0233 -0.0003
# 6 -0.0004 -0.0004 -0.0006 -20.6202 -0.0003 11.0595
#
#
#
# Elastic Compliance Matrix: (Units=1/GPa)
#
#
# Indices 1 2 3 4 5 6 
#
# 1 0.015015 -0.000043 0.000460 -0.000004 0.007923 -0.000007
# 2 -0.000043 0.007581 -0.000348 -0.000002 0.006955 -0.000003
# 3 0.000460 -0.000348 0.016385 0.000006 0.009876 0.000012
# 4 -0.000004 -0.000002 0.000006 -0.261854 -0.000003 -0.488223
# 5 0.007923 0.006955 0.009876 -0.000003 0.040456 -0.000003
# 6 -0.000007 -0.000003 0.000012 -0.488223 -0.000003 -0.819863
#
#
# Mechanical properties :
#
#
# Convention : Reuss Voigt Hill
#
# Bulk Modulus (GPa) = 25.56321 49.12311 37.34316
# Shear Modulus (GPa) = -5.05368 35.22516 15.08574
#
# Velocity S-wave (km/s) = -1.50111 3.96311 2.59354
# Velocity P-wave (km/s) = 2.89719 6.54559 5.06155
#
# Compressibility (1/GPa) = 0.03911871
#
# Stress axis : x y z
#
# Youngs Moduli (GPa) = 66.59890 131.91455 61.03041
#
# Poissons Ratio (x) = 0.00568 -0.02805
# Poissons Ratio (y) = 0.00287 0.02123
# Poissons Ratio (z) = -0.03061 0.04589
#
# Static dielectric constant tensor:
#      x y z
#    x 2.129140 0.000260 0.143410 
#    y 0.000260 0.215160 0.000110 
#    z 0.143410 0.000110 2.002030 
# 
# From -- ./inp_files/157735.got.cif
#   From: 2010.05.17/outbox.cif.g08.bks.cpg/sg15_79_cif.got.tgz:157735.got - 2010.06.03 18:47:42.
