data_PCOD9286895
_publ_section_title
;
Structure prediction by ZEFSAII (Michael W. Deem and Ramdas Pophale) SiO2 
 PCOD9286895
Probable space group: C 2/C
;
_chemical_formula_sum "Si O2"
_cell_formula_units_Z 60
_cell_length_a 20.924181
_cell_length_b 7.689140
_cell_length_c 23.666688
_cell_angle_alpha 90.000000
_cell_angle_beta 138.983030
_cell_angle_gamma 90.000000
_cell_volume 2498.932739
_symmetry_space_group_name_H-M "C 2/C"
_symmetry_group_IT_number 15
_symmetry_cell_setting 'monoclinic'
loop_
_space_group_symop_operation_xyz
x,y,z
-x,y,1/2-z
-x,-y,-z
x,-y,1/2+z
1/2+x,1/2+y,z
1/2-x,1/2+y,1/2-z
1/2-x,1/2-y,-z
1/2+x,1/2-y,1/2+z
loop_
_atom_site_type_symbol
_atom_site_label
_atom_site_fract_x
_atom_site_fract_y
_atom_site_fract_z
Si Si1 0.232524 0.481130 0.249564
Si Si2 0.319223 0.780358 0.491579
Si Si3 0.758761 0.161808 0.160376
Si Si4 0.555271 0.472593 0.596377
Si Si5 0.500000 0.723235 0.750000
Si Si6 0.157276 0.042711 0.378089
Si Si7 0.958534 0.326719 0.840483
Si Si8 0.865224 0.878191 0.512077
O O1 0.238984 0.303178 0.288171
O O2 0.239323 0.492080 0.186122
O O3 0.332726 0.576095 0.337735
O O4 0.126494 0.554067 0.193223
O O5 0.250000 0.750000 0.500000
O O6 0.426463 0.861280 0.572488
O O7 0.336571 0.583033 0.480514
O O8 0.252337 0.932588 0.421173
O O9 0.857970 0.149840 0.189476
O O10 0.687095 0.252161 0.066760
O O11 0.500000 0.500000 0.500000
O O12 0.558545 0.645541 0.637473
O O13 0.480584 0.351569 0.580642
O O14 0.426032 0.597736 0.668505
O O15 0.446636 0.821536 0.764570
O O16 0.163125 0.142716 0.440921
#
# Coordination Sequence:
#
# PCOD9286895 Si02
#       8
#     8   8   8   8   4   8   8   8
#     4  12  26  46  66 105 142 189 242 294 359 425
#     4   9  19  42  70 100 135 182 235 287 366 439
#     4  12  27  44  68 102 148 190 243 305 356 438
#     4  11  20  44  71  96 138 192 237 279 362 443
#     4  12  22  40  72 104 142 180 234 290 370 426
#     4  11  24  42  71 107 142 189 242 299 367 428
#     4  11  23  40  69 105 135 184 238 294 356 433
#     4  10  21  44  74 102 137 193 242 293 366 437
#
# _framework density 24.010252000000001
#
# number of rings (size 3 to 8) (size 9 to 14) (size 15 to 20)
#    0.000    1.067    6.667    1.200    1.867    0.000 
#    2.400    4.000    0.000    0.000    0.000    0.000 
#    0.000    0.000    0.000    0.000    0.000    0.000 
#
# Total GULP energy -167125.906293 kJ/mol
# GULP energy per Si atom -5570.863543 kJ/mol
# Density = 2.395560 g / cm^3
# Si number density = 24.010252 Si / 1000 Ang^3
#
#
#
# Elastic Constant Matrix: (Units=GPa)
#
#
# Indices 1 2 3 4 5 6 
#
# 1 167.7782 12.1065 53.8443 0.0000 -21.0318 0.0000
# 2 12.1065 20.8390 5.0198 0.0000 0.3116 -0.0001
# 3 53.8443 5.0198 89.3449 0.0000 -1.8271 0.0000
# 4 0.0000 0.0000 0.0000 13.2019 0.0000 4.0724
# 5 -21.0318 0.3116 -1.8271 0.0000 65.6436 0.0000
# 6 0.0000 -0.0001 0.0000 4.0724 0.0000 23.1626
#
#
#
# Elastic Compliance Matrix: (Units=1/GPa)
#
#
# Indices 1 2 3 4 5 6 
#
# 1 0.007990 -0.003579 -0.004564 0.000000 0.002450 0.000000
# 2 -0.003579 0.050255 -0.000695 0.000000 -0.001405 0.000000
# 3 -0.004564 -0.000695 0.013960 0.000000 -0.001070 0.000000
# 4 0.000000 0.000000 0.000000 0.080091 0.000000 -0.014081
# 5 0.002450 -0.001405 -0.001070 0.000000 0.015996 0.000000
# 6 0.000000 0.000000 0.000000 -0.014081 0.000000 0.045649
#
#
# Mechanical properties :
#
#
# Convention : Reuss Voigt Hill
#
# Bulk Modulus (GPa) = 18.33914 46.65591 32.49752
# Shear Modulus (GPa) = 20.01649 34.20105 27.10877
#
# Velocity S-wave (km/s) = 2.89046 3.77826 3.36378
# Velocity P-wave (km/s) = 4.33524 6.20545 5.35265
#
# Compressibility (1/GPa) = 0.05452819
#
# Stress axis : x y z
#
# Youngs Moduli (GPa) = 125.14950 19.89862 71.63091
#
# Poissons Ratio (x) = 0.07122 0.32694
# Poissons Ratio (y) = 0.44794 0.04980
# Poissons Ratio (z) = 0.57122 0.01383
#
# Static dielectric constant tensor:
#      x y z
#    x 2.300270 0.000000 -0.238940 
#    y 0.000000 2.121540 0.000000 
#    z -0.238940 0.000000 2.171090 
# 
# From -- ./inp_files/279721.got.cif
#   From: 2010.05.17/outbox.cif.g08.bks.cpg/sg15_140_cif.got.tgz:279721.got - 2010.06.03 18:47:42.
