data_PCOD9286383
_publ_section_title
;
Structure prediction by ZEFSAII (Michael W. Deem and Ramdas Pophale) SiO2 
 PCOD9286383
Probable space group: C 2/C
;
_chemical_formula_sum "Si O2"
_cell_formula_units_Z 40
_cell_length_a 23.611155
_cell_length_b 7.225684
_cell_length_c 10.658192
_cell_angle_alpha 90.000000
_cell_angle_beta 79.515931
_cell_angle_gamma 90.000000
_cell_volume 1788.002914
_symmetry_space_group_name_H-M "C 2/C"
_symmetry_group_IT_number 15
_symmetry_cell_setting 'monoclinic'
loop_
_space_group_symop_operation_xyz
x,y,z
-x,y,1/2-z
-x,-y,-z
x,-y,1/2+z
1/2+x,1/2+y,z
1/2-x,1/2+y,1/2-z
1/2-x,1/2-y,-z
1/2+x,1/2-y,1/2+z
loop_
_atom_site_type_symbol
_atom_site_label
_atom_site_fract_x
_atom_site_fract_y
_atom_site_fract_z
Si Si1 0.733320 0.831342 0.342135
Si Si2 0.663689 0.585243 0.527480
Si Si3 0.943048 0.675602 0.425970
Si Si4 0.928289 0.612089 0.155253
Si Si5 0.188675 0.736013 0.400755
O O1 0.688086 0.669473 0.386995
O O2 0.793153 0.812758 0.394403
O O3 0.756504 0.825342 0.192152
O O4 0.705018 0.020996 0.401166
O O5 0.598415 0.647997 0.566062
O O6 0.675202 0.367146 0.523453
O O7 0.929172 0.562072 0.302781
O O8 0.929372 0.557625 0.556138
O O9 0.011067 0.715085 0.394563
O O10 0.872106 0.732649 0.148586
#
# Coordination Sequence:
#
# PCOD9286383 Si02
#       5
#     8   8   8   8   8
#     4  11  23  39  59  93 127 169 214 264 325 383
#     4  11  23  39  63  89 130 168 214 267 321 388
#     4  10  21  43  67  96 129 171 216 270 327 382
#     4  10  22  41  69  95 130 169 217 271 323 385
#     4  12  22  40  63  92 128 172 215 268 325 387
#
# _framework density 22.371328999999999
#
# number of rings (size 3 to 8) (size 9 to 14) (size 15 to 20)
#    0.000    1.200    6.000    0.600    0.000    0.800 
#    7.200    0.000    0.000    0.000    0.000    0.000 
#    0.000    0.000    0.000    0.000    0.000    0.000 
#
# Total GULP energy -111513.993580 kJ/mol
# GULP energy per Si atom -5575.699679 kJ/mol
# Density = 2.232041 g / cm^3
# Si number density = 22.371329 Si / 1000 Ang^3
#
#
#
# Elastic Constant Matrix: (Units=GPa)
#
#
# Indices 1 2 3 4 5 6 
#
# 1 142.9360 21.0033 18.5706 0.0000 -5.9390 0.0000
# 2 21.0033 81.4643 17.8435 0.0000 -13.8843 0.0000
# 3 18.5706 17.8435 71.1247 0.0000 -1.5517 0.0000
# 4 0.0000 0.0000 0.0000 15.7879 0.0000 -9.3112
# 5 -5.9390 -13.8843 -1.5517 0.0000 26.8081 0.0000
# 6 0.0000 0.0000 0.0000 -9.3112 0.0000 32.4422
#
#
#
# Elastic Compliance Matrix: (Units=1/GPa)
#
#
# Indices 1 2 3 4 5 6 
#
# 1 0.007445 -0.001438 -0.001565 0.000000 0.000814 0.000000
# 2 -0.001438 0.014526 -0.003115 0.000000 0.007024 0.000000
# 3 -0.001565 -0.003115 0.015227 0.000000 -0.001079 0.000000
# 4 0.000000 0.000000 0.000000 0.076246 0.000000 0.021883
# 5 0.000814 0.007024 -0.001079 0.000000 0.041058 0.000000
# 6 0.000000 0.000000 0.000000 0.021883 0.000000 0.037105
#
#
# Mechanical properties :
#
#
# Convention : Reuss Voigt Hill
#
# Bulk Modulus (GPa) = 40.06477 45.59555 42.83016
# Shear Modulus (GPa) = 23.56690 30.88146 27.22418
#
# Velocity S-wave (km/s) = 3.24920 3.71941 3.49223
# Velocity P-wave (km/s) = 5.65900 6.23465 5.95378
#
# Compressibility (1/GPa) = 0.02495958
#
# Stress axis : x y z
#
# Youngs Moduli (GPa) = 134.32548 68.84413 65.67464
#
# Poissons Ratio (x) = 0.09898 0.10280
# Poissons Ratio (y) = 0.19313 0.20461
# Poissons Ratio (z) = 0.21026 0.21448
#
# Static dielectric constant tensor:
#      x y z
#    x 1.813460 0.000000 0.008050 
#    y 0.000000 1.824360 0.000000 
#    z 0.008050 0.000000 1.953200 
# 
# From -- ./inp_files/115945.got.cif
#   From: 2010.05.17/outbox.cif.g08.bks.cpg/sg15_58_cif.got.tgz:115945.got - 2010.06.03 18:47:42.
