data_PCOD9286983
_publ_section_title
;
Structure prediction by ZEFSAII (Michael W. Deem and Ramdas Pophale) SiO2 
 PCOD9286983
Probable space group: C 2/C
;
_chemical_formula_sum "Si O2"
_cell_formula_units_Z 40
_cell_length_a 12.531445
_cell_length_b 9.258307
_cell_length_c 20.670797
_cell_angle_alpha 90.000000
_cell_angle_beta 141.032960
_cell_angle_gamma 90.000000
_cell_volume 1508.179582
_symmetry_space_group_name_H-M "C 2/C"
_symmetry_group_IT_number 15
_symmetry_cell_setting 'monoclinic'
loop_
_space_group_symop_operation_xyz
x,y,z
-x,y,1/2-z
-x,-y,-z
x,-y,1/2+z
1/2+x,1/2+y,z
1/2-x,1/2+y,1/2-z
1/2-x,1/2-y,-z
1/2+x,1/2-y,1/2+z
loop_
_atom_site_type_symbol
_atom_site_label
_atom_site_fract_x
_atom_site_fract_y
_atom_site_fract_z
Si Si1 0.155784 0.189754 0.641780
Si Si2 0.390845 0.861824 0.435879
Si Si3 0.764228 0.951027 0.442844
Si Si4 0.583035 0.242088 0.353973
Si Si5 0.517958 0.723272 0.149392
O O1 0.210266 0.050815 0.623910
O O2 0.320099 0.296565 0.726981
O O3 0.008054 0.242367 0.524370
O O4 0.053831 0.197298 0.661035
O O5 0.210210 0.860391 0.384486
O O6 0.393122 0.826483 0.361911
O O7 0.500000 0.000000 0.500000
O O8 0.627502 0.822579 0.388084
O O9 0.920690 0.902675 0.563723
O O10 0.688403 0.104270 0.429886
O O11 0.500000 0.179878 0.250000
#
# Coordination Sequence:
#
# PCOD9286983 Si02
#       5
#     8   8   8   8   8
#     4  11  23  44  75 104 142 191 245 295 377 436
#     4  11  25  46  68 104 148 188 244 309 363 446
#     4  10  24  44  76 105 147 187 247 305 366 449
#     4  12  24  47  73 108 143 191 249 305 372 443
#     4  10  21  45  70 107 145 189 239 302 373 442
#
# _framework density 26.522041000000002
#
# number of rings (size 3 to 8) (size 9 to 14) (size 15 to 20)
#    0.000    1.200    2.000    3.600    0.000    3.200 
#    7.200   10.000    0.000    0.000    0.000    0.000 
#    0.000    0.000    0.000    0.000    0.000    0.000 
#
# Total GULP energy -111748.270109 kJ/mol
# GULP energy per Si atom -5587.413505 kJ/mol
# Density = 2.646168 g / cm^3
# Si number density = 26.522041 Si / 1000 Ang^3
#
#
#
# Elastic Constant Matrix: (Units=GPa)
#
#
# Indices 1 2 3 4 5 6 
#
# 1 169.3582 59.2672 43.8176 0.0000 5.9564 0.0000
# 2 59.2672 74.9434 13.7834 0.0000 9.9753 0.0000
# 3 43.8176 13.7834 97.6919 0.0000 28.9683 0.0000
# 4 0.0000 0.0000 0.0000 33.1807 0.0000 3.4100
# 5 5.9564 9.9753 28.9683 0.0000 51.0406 0.0000
# 6 0.0000 0.0000 0.0000 3.4100 0.0000 29.3985
#
#
#
# Elastic Compliance Matrix: (Units=1/GPa)
#
#
# Indices 1 2 3 4 5 6 
#
# 1 0.009255 -0.006932 -0.003913 0.000000 0.002496 0.000000
# 2 -0.006932 0.019045 0.001546 0.000000 -0.003791 0.000000
# 3 -0.003913 0.001546 0.014101 0.000000 -0.007848 0.000000
# 4 0.000000 0.000000 0.000000 0.030502 0.000000 -0.003538
# 5 0.002496 -0.003791 -0.007848 0.000000 0.024496 0.000000
# 6 0.000000 0.000000 0.000000 -0.003538 0.000000 0.034426
#
#
# Mechanical properties :
#
#
# Convention : Reuss Voigt Hill
#
# Bulk Modulus (GPa) = 42.01100 63.96997 52.99049
# Shear Modulus (GPa) = 31.57431 37.73231 34.65331
#
# Velocity S-wave (km/s) = 3.45410 3.77593 3.61859
# Velocity P-wave (km/s) = 5.63756 6.57131 6.12226
#
# Compressibility (1/GPa) = 0.02380329
#
# Stress axis : x y z
#
# Youngs Moduli (GPa) = 108.04905 52.50630 70.91912
#
# Poissons Ratio (x) = 0.36395 0.27752
# Poissons Ratio (y) = 0.74895 -0.10964
# Poissons Ratio (z) = 0.42282 -0.08117
#
# Static dielectric constant tensor:
#      x y z
#    x 2.121930 0.000000 -0.121520 
#    y 0.000000 1.040530 0.000000 
#    z -0.121520 0.000000 1.480220 
# 
# From -- ./inp_files/237813.got.cif
#   From: 2010.05.17/outbox.cif.g08.bks.cpg/sg15_119_cif.got.tgz:237813.got - 2010.06.03 18:47:42.
