data_PCOD9286081
_publ_section_title
;
Structure prediction by ZEFSAII (Michael W. Deem and Ramdas Pophale) SiO2 
 PCOD9286081
Probable space group: C 2/C
;
_chemical_formula_sum "Si O2"
_cell_formula_units_Z 56
_cell_length_a 8.832497
_cell_length_b 25.029124
_cell_length_c 12.170560
_cell_angle_alpha 90.000000
_cell_angle_beta 70.161540
_cell_angle_gamma 90.000000
_cell_volume 2530.866500
_symmetry_space_group_name_H-M "C 2/C"
_symmetry_group_IT_number 15
_symmetry_cell_setting 'monoclinic'
loop_
_space_group_symop_operation_xyz
x,y,z
-x,y,1/2-z
-x,-y,-z
x,-y,1/2+z
1/2+x,1/2+y,z
1/2-x,1/2+y,1/2-z
1/2-x,1/2-y,-z
1/2+x,1/2-y,1/2+z
loop_
_atom_site_type_symbol
_atom_site_label
_atom_site_fract_x
_atom_site_fract_y
_atom_site_fract_z
Si Si1 0.176854 0.588734 0.529445
Si Si2 0.966051 0.314257 0.130193
Si Si3 0.974677 0.062873 0.021254
Si Si4 0.873704 0.134884 0.867073
Si Si5 0.736045 0.924829 0.758950
Si Si6 0.940934 0.244483 0.949596
Si Si7 0.500000 0.168628 0.250000
Si Si8 0.500000 0.982592 0.250000
O O1 0.097975 0.646313 0.548578
O O2 0.350928 0.588071 0.542514
O O3 0.210139 0.572389 0.395794
O O4 0.054793 0.552809 0.632251
O O5 0.000000 0.309704 0.250000
O O6 0.791587 0.341581 0.144525
O O7 0.989282 0.258423 0.061281
O O8 0.909455 0.074365 0.159179
O O9 0.849957 0.090385 0.966899
O O10 0.000000 0.000000 0.000000
O O11 0.967655 0.185900 0.896131
O O12 0.000000 0.110942 0.750000
O O13 0.647584 0.871891 0.733338
O O14 0.647558 0.977966 0.737266
O O15 0.995687 0.291277 0.854296
O O16 0.750000 0.250000 0.000000
#
# Coordination Sequence:
#
# PCOD9286081 Si02
#       8
#     8   8   8   8   8   8   4   4
#     4  12  24  43  69 100 144 187 243 304 367 434
#     4  11  23  44  73 108 144 187 243 303 366 444
#     4  12  27  48  66 105 147 192 247 305 372 436
#     4  11  25  45  74 104 144 191 244 300 370 441
#     4  11  24  42  68 100 140 190 246 301 366 437
#     4  10  21  42  71 105 140 182 236 297 364 439
#     4  11  20  42  74 106 138 188 239 302 360 442
#     4  11  24  40  66 102 138 188 249 294 370 438
#
# _framework density 22.126808
#
# number of rings (size 3 to 8) (size 9 to 14) (size 15 to 20)
#    0.000    0.857    4.286    3.429    2.000    2.286 
#    0.000    7.143    0.000    0.000    0.000    0.000 
#    0.000    0.000    0.000    0.000    0.000    0.000 
#
# Total GULP energy -156410.311428 kJ/mol
# GULP energy per Si atom -5586.082551 kJ/mol
# Density = 2.207645 g / cm^3
# Si number density = 22.126808 Si / 1000 Ang^3
#
#
#
# Elastic Constant Matrix: (Units=GPa)
#
#
# Indices 1 2 3 4 5 6 
#
# 1 68.5560 26.9886 22.6524 0.0000 3.6488 0.0000
# 2 26.9886 91.1761 41.3612 0.0000 11.1914 0.0000
# 3 22.6524 41.3612 147.0096 0.0000 10.4704 0.0000
# 4 0.0000 0.0000 0.0000 27.1883 0.0000 6.0163
# 5 3.6488 11.1914 10.4704 0.0000 46.1309 0.0000
# 6 0.0000 0.0000 0.0000 6.0163 0.0000 8.4895
#
#
#
# Elastic Compliance Matrix: (Units=1/GPa)
#
#
# Indices 1 2 3 4 5 6 
#
# 1 0.016744 -0.004344 -0.001361 0.000000 0.000038 0.000000
# 2 -0.004344 0.013941 -0.003086 0.000000 -0.002338 0.000000
# 3 -0.001361 -0.003086 0.007948 0.000000 -0.000948 0.000000
# 4 0.000000 0.000000 0.000000 0.043621 0.000000 -0.030913
# 5 0.000038 -0.002338 -0.000948 0.000000 0.022457 0.000000
# 6 0.000000 0.000000 0.000000 -0.030913 0.000000 0.139700
#
#
# Mechanical properties :
#
#
# Convention : Reuss Voigt Hill
#
# Bulk Modulus (GPa) = 47.50383 54.30512 50.90447
# Shear Modulus (GPa) = 18.58673 30.74437 24.66555
#
# Velocity S-wave (km/s) = 2.90144 3.73159 3.34239
# Velocity P-wave (km/s) = 5.72188 6.56981 6.16045
#
# Compressibility (1/GPa) = 0.02105093
#
# Stress axis : x y z
#
# Youngs Moduli (GPa) = 59.72212 71.73267 125.82139
#
# Poissons Ratio (x) = 0.31159 0.17120
# Poissons Ratio (y) = 0.25942 0.38833
# Poissons Ratio (z) = 0.08126 0.22139
#
# Static dielectric constant tensor:
#      x y z
#    x 1.827110 0.000000 0.054480 
#    y 0.000000 1.763460 0.000000 
#    z 0.054480 0.000000 1.861950 
# 
# From -- ./inp_files/81306.got.cif
#   From: 2010.05.17/outbox.cif.g08.bks.cpg/sg15_41_cif.got.tgz:81306.got - 2010.06.03 18:47:42.
