data_PCOD9286991
_publ_section_title
;
Structure prediction by ZEFSAII (Michael W. Deem and Ramdas Pophale) SiO2 
 PCOD9286991
Probable space group: C 2/C
;
_chemical_formula_sum "Si O2"
_cell_formula_units_Z 52
_cell_length_a 17.553112
_cell_length_b 5.242837
_cell_length_c 28.252948
_cell_angle_alpha 90.000000
_cell_angle_beta 107.548813
_cell_angle_gamma 90.000000
_cell_volume 2479.059319
_symmetry_space_group_name_H-M "C 2/C"
_symmetry_group_IT_number 15
_symmetry_cell_setting 'monoclinic'
loop_
_space_group_symop_operation_xyz
x,y,z
-x,y,1/2-z
-x,-y,-z
x,-y,1/2+z
1/2+x,1/2+y,z
1/2-x,1/2+y,1/2-z
1/2-x,1/2-y,-z
1/2+x,1/2-y,1/2+z
loop_
_atom_site_type_symbol
_atom_site_label
_atom_site_fract_x
_atom_site_fract_y
_atom_site_fract_z
Si Si1 0.500000 0.321071 0.250000
Si Si2 0.465201 0.619844 0.338724
Si Si3 0.411907 0.015214 0.667462
Si Si4 0.825561 0.840661 0.882631
Si Si5 0.555598 0.750207 0.008772
Si Si6 0.224659 0.149761 0.377867
Si Si7 0.885502 0.131154 0.581381
O O1 0.471190 0.482062 0.289471
O O2 0.571600 0.147330 0.283322
O O3 0.379942 0.618075 0.346785
O O4 0.530338 0.496630 0.386981
O O5 0.501633 0.897950 0.335450
O O6 0.374369 0.854363 0.617743
O O7 0.354741 0.256180 0.664909
O O8 0.884770 0.758140 0.935964
O O9 0.766547 0.600925 0.864997
O O10 0.783142 0.107627 0.888141
O O11 0.500000 0.500000 0.000000
O O12 0.605308 0.734173 0.969363
O O13 0.500000 0.000000 0.000000
O O14 0.186686 0.064382 0.421396
#
# Coordination Sequence:
#
# PCOD9286991 Si02
#       7
#     4   8   8   8   8   8   8
#     4  10  22  40  78 100 122 172 242 276 338 416
#     4  10  22  40  73  98 129 175 230 281 337 403
#     4  10  21  45  70  97 132 176 227 277 340 409
#     4  12  25  43  69 104 140 181 223 283 341 396
#     4  12  25  41  67 107 136 179 240 284 321 392
#     4  11  25  44  67  98 144 182 216 273 351 404
#     4  10  22  43  69  94 141 186 221 277 332 405
#
# _framework density 20.975697
#
# number of rings (size 3 to 8) (size 9 to 14) (size 15 to 20)
#    0.000    1.231    3.077    2.308    6.462    1.231 
#    0.000    0.000   13.538    0.000    0.000    0.000 
#    0.000    0.000    0.000    0.000    0.000    0.000 
#
# Total GULP energy -145242.175430 kJ/mol
# GULP energy per Si atom -5586.237517 kJ/mol
# Density = 2.092795 g / cm^3
# Si number density = 20.975697 Si / 1000 Ang^3
#
#
#
# Elastic Constant Matrix: (Units=GPa)
#
#
# Indices 1 2 3 4 5 6 
#
# 1 148.5421 71.5417 40.3937 0.0000 -21.3457 0.0000
# 2 71.5417 138.5005 28.3150 -0.0001 -9.9234 0.0000
# 3 40.3937 28.3150 103.0344 0.0000 -24.2761 0.0000
# 4 0.0000 -0.0001 0.0000 20.5100 0.0000 13.2048
# 5 -21.3457 -9.9234 -24.2761 0.0000 13.0777 0.0000
# 6 0.0000 0.0000 0.0000 13.2048 0.0000 48.6486
#
#
#
# Elastic Compliance Matrix: (Units=1/GPa)
#
#
# Indices 1 2 3 4 5 6 
#
# 1 0.011097 -0.004739 0.000662 0.000000 0.015745 0.000000
# 2 -0.004739 0.009759 -0.001603 0.000000 -0.003306 0.000000
# 3 0.000662 -0.001603 0.017515 0.000000 0.032377 0.000000
# 4 0.000000 0.000000 0.000000 0.059081 0.000000 -0.016037
# 5 0.015745 -0.003306 0.032377 0.000000 0.159759 0.000000
# 6 0.000000 0.000000 0.000000 -0.016037 0.000000 0.024908
#
#
# Mechanical properties :
#
#
# Convention : Reuss Voigt Hill
#
# Bulk Modulus (GPa) = 37.02292 74.50864 55.76578
# Shear Modulus (GPa) = 16.52978 33.10237 24.81607
#
# Velocity S-wave (km/s) = 2.81026 3.97688 3.44333
# Velocity P-wave (km/s) = 5.31213 7.52901 6.51555
#
# Compressibility (1/GPa) = 0.02701029
#
# Stress axis : x y z
#
# Youngs Moduli (GPa) = 90.11073 102.46804 57.09429
#
# Poissons Ratio (x) = 0.48564 -0.03777
# Poissons Ratio (y) = 0.42708 0.09151
# Poissons Ratio (z) = -0.05962 0.16423
#
# Static dielectric constant tensor:
#      x y z
#    x 1.787410 0.000000 0.016560 
#    y 0.000000 1.820690 0.000000 
#    z 0.016560 0.000000 1.729550 
# 
# From -- ./inp_files/297457.got.cif
#   From: 2010.05.17/outbox.cif.g08.bks.cpg/sg15_149_cif.got.tgz:297457.got - 2010.06.03 18:47:42.
