data_PCOD9286305
_publ_section_title
;
Structure prediction by ZEFSAII (Michael W. Deem and Ramdas Pophale) SiO2 
 PCOD9286305
Probable space group: C 2/C
;
_chemical_formula_sum "Si O2"
_cell_formula_units_Z 64
_cell_length_a 14.389591
_cell_length_b 17.366877
_cell_length_c 15.205910
_cell_angle_alpha 90.000000
_cell_angle_beta 130.927256
_cell_angle_gamma 90.000000
_cell_volume 2871.052665
_symmetry_space_group_name_H-M "C 2/C"
_symmetry_group_IT_number 15
_symmetry_cell_setting 'monoclinic'
loop_
_space_group_symop_operation_xyz
x,y,z
-x,y,1/2-z
-x,-y,-z
x,-y,1/2+z
1/2+x,1/2+y,z
1/2-x,1/2+y,1/2-z
1/2-x,1/2-y,-z
1/2+x,1/2-y,1/2+z
loop_
_atom_site_type_symbol
_atom_site_label
_atom_site_fract_x
_atom_site_fract_y
_atom_site_fract_z
Si Si1 0.168513 0.154057 0.204602
Si Si2 0.773275 0.414104 0.327963
Si Si3 0.545885 0.509785 0.628017
Si Si4 0.718861 0.823460 0.539121
Si Si5 0.933145 0.672408 0.295992
Si Si6 0.465353 0.784166 0.458904
Si Si7 0.102167 0.498436 0.754738
Si Si8 0.722932 0.503570 0.475497
O O1 0.130913 0.065642 0.195949
O O2 0.208736 0.185243 0.324190
O O3 0.285534 0.169403 0.213991
O O4 0.055895 0.200572 0.094545
O O5 0.633926 0.418538 0.205017
O O6 0.838843 0.332090 0.376437
O O7 0.850632 0.457869 0.300736
O O8 0.774127 0.458150 0.422267
O O9 0.500000 0.500000 0.500000
O O10 0.422444 0.511014 0.608241
O O11 0.750000 0.750000 0.500000
O O12 0.574445 0.825078 0.472854
O O13 0.756222 0.905142 0.521857
O O14 0.960435 0.580574 0.317120
O O15 0.000000 0.701038 0.250000
O O16 0.988885 0.715899 0.413166
O O17 0.000000 0.541476 0.750000
O O18 0.211199 0.480993 0.891968
#
# Coordination Sequence:
#
# PCOD9286305 Si02
#       8
#     8   8   8   8   8   8   8   8
#     4  11  24  46  64 100 141 183 231 293 358 425
#     4  12  23  43  65 103 135 179 237 290 346 422
#     4  12  24  44  69  98 137 189 237 297 357 421
#     4  11  25  44  69 101 141 184 226 284 367 434
#     4  10  21  43  66  93 128 178 228 289 352 404
#     4  11  26  41  69 100 141 183 233 293 353 429
#     4  11  22  39  67  97 131 169 225 289 343 411
#     4  12  24  42  70 101 138 187 234 292 362 419
#
# _framework density 22.291474999999998
#
# number of rings (size 3 to 8) (size 9 to 14) (size 15 to 20)
#    0.000    0.750    3.750    4.125    1.750    5.500 
#    0.000    1.250    0.000    0.000    0.000    0.000 
#    0.000    0.000    0.000    0.000    0.000    0.000 
#
# Total GULP energy -178967.432023 kJ/mol
# GULP energy per Si atom -5592.732251 kJ/mol
# Density = 2.224074 g / cm^3
# Si number density = 22.291475 Si / 1000 Ang^3
#
#
#
# Elastic Constant Matrix: (Units=GPa)
#
#
# Indices 1 2 3 4 5 6 
#
# 1 125.5770 18.5239 32.8885 0.0000 0.6381 0.0000
# 2 18.5239 46.2192 14.0810 0.0000 -7.5521 0.0000
# 3 32.8885 14.0810 88.0641 0.0000 1.3260 0.0000
# 4 0.0000 0.0000 0.0000 29.6207 0.0000 4.4064
# 5 0.6381 -7.5521 1.3260 0.0000 42.1889 0.0000
# 6 0.0000 0.0000 0.0000 4.4064 0.0000 33.0107
#
#
#
# Elastic Compliance Matrix: (Units=1/GPa)
#
#
# Indices 1 2 3 4 5 6 
#
# 1 0.009162 -0.002863 -0.002956 0.000000 -0.000558 0.000000
# 2 -0.002863 0.024403 -0.002901 0.000000 0.004503 0.000000
# 3 -0.002956 -0.002901 0.012936 0.000000 -0.000881 0.000000
# 4 0.000000 0.000000 0.000000 0.034444 0.000000 -0.004598
# 5 -0.000558 0.004503 -0.000881 0.000000 0.024545 0.000000
# 6 0.000000 0.000000 0.000000 -0.004598 0.000000 0.030907
#
#
# Mechanical properties :
#
#
# Convention : Reuss Voigt Hill
#
# Bulk Modulus (GPa) = 34.40757 43.42749 38.91753
# Shear Modulus (GPa) = 30.57663 33.92185 32.24924
#
# Velocity S-wave (km/s) = 3.70763 3.90518 3.80769
# Velocity P-wave (km/s) = 5.81356 6.31331 6.06858
#
# Compressibility (1/GPa) = 0.02906337
#
# Stress axis : x y z
#
# Youngs Moduli (GPa) = 109.14090 40.97889 77.30229
#
# Poissons Ratio (x) = 0.11732 0.22848
# Poissons Ratio (y) = 0.31246 0.22422
# Poissons Ratio (z) = 0.32258 0.11886
#
# Static dielectric constant tensor:
#      x y z
#    x 1.882990 0.000000 0.021970 
#    y 0.000000 1.780800 0.000000 
#    z 0.021970 0.000000 1.828660 
# 
# From -- ./inp_files/155513.got.cif
#   From: 2010.05.17/outbox.cif.g08.bks.cpg/sg15_78_cif.got.tgz:155513.got - 2010.06.03 18:47:42.
