data_PCOD9286676
_publ_section_title
;
Structure prediction by ZEFSAII (Michael W. Deem and Ramdas Pophale) SiO2 
 PCOD9286676
Probable space group: C 2/C
;
_chemical_formula_sum "Si O2"
_cell_formula_units_Z 48
_cell_length_a 8.771139
_cell_length_b 10.805111
_cell_length_c 26.670504
_cell_angle_alpha 90.000000
_cell_angle_beta 120.015582
_cell_angle_gamma 90.000000
_cell_volume 2188.662862
_symmetry_space_group_name_H-M "C 2/C"
_symmetry_group_IT_number 15
_symmetry_cell_setting 'monoclinic'
loop_
_space_group_symop_operation_xyz
x,y,z
-x,y,1/2-z
-x,-y,-z
x,-y,1/2+z
1/2+x,1/2+y,z
1/2-x,1/2+y,1/2-z
1/2-x,1/2-y,-z
1/2+x,1/2-y,1/2+z
loop_
_atom_site_type_symbol
_atom_site_label
_atom_site_fract_x
_atom_site_fract_y
_atom_site_fract_z
Si Si1 0.828256 0.464960 0.140696
Si Si2 0.595894 0.345242 0.960299
Si Si3 0.082478 0.264908 0.869246
Si Si4 0.188269 0.722837 0.773199
Si Si5 0.445642 0.619755 0.540107
Si Si6 0.367970 0.186616 0.851180
O O1 0.838380 0.610883 0.140829
O O2 0.837314 0.401137 0.196837
O O3 0.646953 0.416360 0.087708
O O4 0.993173 0.423161 0.134184
O O5 0.654426 0.489358 0.966805
O O6 0.495919 0.293612 0.895042
O O7 0.750000 0.250000 0.000000
O O8 0.459340 0.344724 0.984472
O O9 0.201313 0.163421 0.859571
O O10 0.874861 0.271250 0.823415
O O11 0.102873 0.230687 0.930883
O O12 0.203407 0.710451 0.716241
O O13 0.000000 0.792076 0.750000
#
# Coordination Sequence:
#
# PCOD9286676 Si02
#       6
#     8   8   8   8   8   8
#     4  10  21  44  65  93 131 171 215 274 336 389
#     4  11  22  42  69  92 138 178 222 274 325 384
#     4  11  23  43  68  98 132 167 223 273 329 396
#     4   9  22  42  65  94 129 170 213 263 339 392
#     4  10  23  43  66  94 132 182 218 273 331 384
#     4  11  22  39  65  98 126 175 220 265 330 394
#
# _framework density 21.931197999999998
#
# number of rings (size 3 to 8) (size 9 to 14) (size 15 to 20)
#    0.000    1.667    3.333    0.500    0.000    6.000 
#    0.000    1.667    0.000    0.000    0.000    0.000 
#    0.000    0.000    0.000    0.000    0.000    0.000 
#
# Total GULP energy -133788.324023 kJ/mol
# GULP energy per Si atom -5574.513501 kJ/mol
# Density = 2.188128 g / cm^3
# Si number density = 21.931198 Si / 1000 Ang^3
#
#
#
# Elastic Constant Matrix: (Units=GPa)
#
#
# Indices 1 2 3 4 5 6 
#
# 1 71.9026 18.3042 8.8595 0.0000 5.5543 0.0000
# 2 18.3042 65.2777 23.0020 0.0000 8.8224 0.0000
# 3 8.8595 23.0020 104.4445 0.0000 -10.6158 0.0000
# 4 0.0000 0.0000 0.0000 15.9012 0.0000 -4.4163
# 5 5.5543 8.8224 -10.6158 0.0000 38.7632 0.0000
# 6 0.0000 0.0000 0.0000 -4.4163 0.0000 39.5580
#
#
#
# Elastic Compliance Matrix: (Units=1/GPa)
#
#
# Indices 1 2 3 4 5 6 
#
# 1 0.015065 -0.003823 -0.000583 0.000000 -0.001448 0.000000
# 2 -0.003823 0.018543 -0.004251 0.000000 -0.004837 0.000000
# 3 -0.000583 -0.004251 0.010972 0.000000 0.004056 0.000000
# 4 0.000000 0.000000 0.000000 0.064901 0.000000 0.007246
# 5 -0.001448 -0.004837 0.004056 0.000000 0.028217 0.000000
# 6 0.000000 0.000000 0.000000 0.007246 0.000000 0.026088
#
#
# Mechanical properties :
#
#
# Convention : Reuss Voigt Hill
#
# Bulk Modulus (GPa) = 36.67635 37.99514 37.33574
# Shear Modulus (GPa) = 26.28974 31.60842 28.94908
#
# Velocity S-wave (km/s) = 3.46603 3.80050 3.63712
# Velocity P-wave (km/s) = 5.72517 6.05151 5.89060
#
# Compressibility (1/GPa) = 0.02726553
#
# Stress axis : x y z
#
# Youngs Moduli (GPa) = 66.38063 53.92927 91.13782
#
# Poissons Ratio (x) = 0.20617 0.05314
# Poissons Ratio (y) = 0.25377 0.38743
# Poissons Ratio (z) = 0.03871 0.22926
#
# Static dielectric constant tensor:
#      x y z
#    x 1.832290 0.000000 0.029650 
#    y 0.000000 1.841000 0.000000 
#    z 0.029650 0.000000 1.816080 
# 
# From -- ./inp_files/263559.got.cif
#   From: 2010.05.17/outbox.cif.g08.bks.cpg/sg15_132_cif.got.tgz:263559.got - 2010.06.03 18:47:42.
