data_PCOD9286315
_publ_section_title
;
Structure prediction by ZEFSAII (Michael W. Deem and Ramdas Pophale) SiO2 
 PCOD9286315
Probable space group: C 2/C
;
_chemical_formula_sum "Si O2"
_cell_formula_units_Z 64
_cell_length_a 14.133521
_cell_length_b 23.161247
_cell_length_c 9.535680
_cell_angle_alpha 90.000000
_cell_angle_beta 94.901295
_cell_angle_gamma 90.000000
_cell_volume 3110.090368
_symmetry_space_group_name_H-M "C 2/C"
_symmetry_group_IT_number 15
_symmetry_cell_setting 'monoclinic'
loop_
_space_group_symop_operation_xyz
x,y,z
-x,y,1/2-z
-x,-y,-z
x,-y,1/2+z
1/2+x,1/2+y,z
1/2-x,1/2+y,1/2-z
1/2-x,1/2-y,-z
1/2+x,1/2-y,1/2+z
loop_
_atom_site_type_symbol
_atom_site_label
_atom_site_fract_x
_atom_site_fract_y
_atom_site_fract_z
Si Si1 0.944471 0.116699 0.106768
Si Si2 0.760442 0.802866 0.106057
Si Si3 0.382197 0.099382 0.607578
Si Si4 0.786018 0.191783 0.933028
Si Si5 0.912826 0.383182 0.432938
Si Si6 0.175220 0.995568 0.826000
Si Si7 0.424920 0.607041 0.634508
Si Si8 0.809366 0.477500 0.586326
O O1 0.883369 0.062275 0.154071
O O2 0.000000 0.140541 0.250000
O O3 0.877602 0.164079 0.021579
O O4 0.018155 0.093251 0.999905
O O5 0.792263 0.791263 0.269827
O O6 0.654708 0.828613 0.087182
O O7 0.837398 0.852225 0.077868
O O8 0.750000 0.750000 0.000000
O O9 0.292278 0.140326 0.572639
O O10 0.475168 0.126787 0.549369
O O11 0.396373 0.089766 0.776299
O O12 0.366602 0.034973 0.552971
O O13 0.750000 0.250000 0.000000
O O14 0.873215 0.423275 0.551923
O O15 0.262126 0.982243 0.732676
O O16 0.111848 0.051608 0.779839
O O17 0.218361 0.019423 0.975212
O O18 0.500000 0.637108 0.750000
#
# Coordination Sequence:
#
# PCOD9286315 Si02
#       8
#     8   8   8   8   8   8   8   8
#     4  12  26  42  67 105 140 178 224 275 340 412
#     4  11  25  46  70  94 131 179 227 282 337 398
#     4  10  21  43  66  95 130 172 218 273 336 397
#     4  11  25  46  69  95 134 175 225 287 335 391
#     4  10  22  41  68  96 127 173 220 270 338 399
#     4  12  23  39  69 100 140 181 218 271 339 409
#     4  12  23  45  69  97 139 182 222 275 343 406
#     4  12  20  39  68  95 136 175 213 272 339 395
#
# _framework density 20.57818
#
# number of rings (size 3 to 8) (size 9 to 14) (size 15 to 20)
#    0.000    0.750    5.000    3.375    1.750    1.000 
#    2.250    0.000    0.000    0.000    0.000    0.000 
#    0.000    0.000    0.000    0.000    0.000    0.000 
#
# Total GULP energy -178544.053473 kJ/mol
# GULP energy per Si atom -5579.501671 kJ/mol
# Density = 2.053134 g / cm^3
# Si number density = 20.578180 Si / 1000 Ang^3
#
#
#
# Elastic Constant Matrix: (Units=GPa)
#
#
# Indices 1 2 3 4 5 6 
#
# 1 85.5536 17.9283 49.6285 0.0000 -8.6018 0.0000
# 2 17.9283 69.5183 52.7981 0.0000 -5.1252 0.0000
# 3 49.6285 52.7981 98.4870 0.0000 -5.1303 0.0000
# 4 0.0000 0.0000 0.0000 29.9890 0.0000 -7.1416
# 5 -8.6018 -5.1252 -5.1303 0.0000 33.9360 0.0000
# 6 0.0000 0.0000 0.0000 -7.1416 0.0000 11.4883
#
#
#
# Elastic Compliance Matrix: (Units=1/GPa)
#
#
# Indices 1 2 3 4 5 6 
#
# 1 0.017406 0.003860 -0.010664 0.000000 0.003383 0.000000
# 2 0.003860 0.025219 -0.015336 0.000000 0.002469 0.000000
# 3 -0.010664 -0.015336 0.023674 0.000000 -0.001440 0.000000
# 4 0.000000 0.000000 0.000000 0.039140 0.000000 0.024331
# 5 0.003383 0.002469 -0.001440 0.000000 0.030480 0.000000
# 6 0.000000 0.000000 0.000000 0.024331 0.000000 0.102170
#
#
# Mechanical properties :
#
#
# Convention : Reuss Voigt Hill
#
# Bulk Modulus (GPa) = 45.41746 54.91875 50.16810
# Shear Modulus (GPa) = 17.25880 23.96293 20.61086
#
# Velocity S-wave (km/s) = 2.89916 3.41615 3.16822
# Velocity P-wave (km/s) = 5.77282 6.50430 6.14945
#
# Compressibility (1/GPa) = 0.02201797
#
# Stress axis : x y z
#
# Youngs Moduli (GPa) = 57.45197 39.65313 42.24107
#
# Poissons Ratio (x) = -0.15304 0.45045
# Poissons Ratio (y) = -0.22174 0.64780
# Poissons Ratio (z) = 0.61266 0.60811
#
# Static dielectric constant tensor:
#      x y z
#    x 1.869970 0.000000 0.149570 
#    y 0.000000 1.786910 0.000000 
#    z 0.149570 0.000000 2.431510 
# 
# From -- ./inp_files/42628.got.cif
#   From: 2010.05.17/outbox.cif.g08.bks.cpg/sg15_22_cif.got.tgz:42628.got - 2010.06.03 18:47:42.
