data_PCOD9286878
_publ_section_title
;
Structure prediction by ZEFSAII (Michael W. Deem and Ramdas Pophale) SiO2 
 PCOD9286878
Probable space group: C 2/C
;
_chemical_formula_sum "Si O2"
_cell_formula_units_Z 32
_cell_length_a 23.421878
_cell_length_b 5.214804
_cell_length_c 10.856953
_cell_angle_alpha 90.000000
_cell_angle_beta 75.925788
_cell_angle_gamma 90.000000
_cell_volume 1286.267044
_symmetry_space_group_name_H-M "C 2/C"
_symmetry_group_IT_number 15
_symmetry_cell_setting 'monoclinic'
loop_
_space_group_symop_operation_xyz
x,y,z
-x,y,1/2-z
-x,-y,-z
x,-y,1/2+z
1/2+x,1/2+y,z
1/2-x,1/2+y,1/2-z
1/2-x,1/2-y,-z
1/2+x,1/2-y,1/2+z
loop_
_atom_site_type_symbol
_atom_site_label
_atom_site_fract_x
_atom_site_fract_y
_atom_site_fract_z
Si Si1 0.213964 0.065460 0.301223
Si Si2 0.142395 0.370828 0.515274
Si Si3 0.619046 0.792890 0.784619
Si Si4 0.990209 0.752530 0.425058
O O1 0.250208 0.798868 0.279270
O O2 0.152586 0.979262 0.269277
O O3 0.193261 0.179441 0.443423
O O4 0.147460 0.450105 0.655450
O O5 0.133718 0.576101 0.409528
O O6 0.079513 0.232112 0.558944
O O7 0.548368 0.764552 0.808516
O O8 0.000000 0.500000 0.500000
O O9 0.000000 0.000000 0.500000
#
# Coordination Sequence:
#
# PCOD9286878 Si02
#       4
#     8   8   8   8
#     4  12  26  49  70 109 144 198 250 306 358 430
#     4  11  25  48  77 111 149 191 244 305 371 439
#     4  11  25  48  77 111 149 191 244 305 371 439
#     4  10  21  44  72 109 143 184 234 292 367 435
#
# _framework density 24.878193
#
# number of rings (size 3 to 8) (size 9 to 14) (size 15 to 20)
#    0.000    1.000    5.000    0.750    0.000    4.000 
#    0.000    2.500    0.000    0.000    0.000    0.000 
#    0.000    0.000    0.000    0.000    0.000    0.000 
#
# Total GULP energy -89193.872140 kJ/mol
# GULP energy per Si atom -5574.617009 kJ/mol
# Density = 2.482157 g / cm^3
# Si number density = 24.878193 Si / 1000 Ang^3
#
#
#
# Elastic Constant Matrix: (Units=GPa)
#
#
# Indices 1 2 3 4 5 6 
#
# 1 129.8206 41.3572 43.0628 0.0000 -39.7791 0.0000
# 2 41.3572 142.5765 57.7774 0.0000 -19.5592 0.0000
# 3 43.0628 57.7774 202.8536 0.0000 -40.1411 0.0000
# 4 0.0000 0.0000 0.0000 19.0823 0.0000 -13.2329
# 5 -39.7791 -19.5592 -40.1411 0.0000 46.8821 0.0000
# 6 0.0000 0.0000 0.0000 -13.2329 0.0000 52.3312
#
#
#
# Elastic Compliance Matrix: (Units=1/GPa)
#
#
# Indices 1 2 3 4 5 6 
#
# 1 0.010930 -0.001982 -0.000101 0.000000 0.008360 0.000000
# 2 -0.001982 0.008397 -0.001939 0.000000 0.000161 0.000000
# 3 -0.000101 -0.001939 0.006413 0.000000 0.004596 0.000000
# 4 0.000000 0.000000 0.000000 0.063548 0.000000 0.016069
# 5 0.008360 0.000161 0.004596 0.000000 0.032426 0.000000
# 6 0.000000 0.000000 0.000000 0.016069 0.000000 0.023172
#
#
# Mechanical properties :
#
#
# Convention : Reuss Voigt Hill
#
# Bulk Modulus (GPa) = 56.51649 84.40504 70.46077
# Shear Modulus (GPa) = 31.48041 45.86267 38.67154
#
# Velocity S-wave (km/s) = 3.56108 4.29824 3.94691
# Velocity P-wave (km/s) = 6.29881 7.65730 7.01103
#
# Compressibility (1/GPa) = 0.01769395
#
# Stress axis : x y z
#
# Youngs Moduli (GPa) = 91.49346 119.09574 155.93690
#
# Poissons Ratio (x) = 0.23611 0.01579
# Poissons Ratio (y) = 0.18139 0.30234
# Poissons Ratio (z) = 0.00926 0.23091
#
# Static dielectric constant tensor:
#      x y z
#    x 2.183760 0.000000 0.090020 
#    y 0.000000 1.896700 0.000000 
#    z 0.090020 0.000000 2.106180 
# 
# From -- ./inp_files/120532.got.cif
#   From: 2010.05.17/outbox.cif.g08.bks.cpg/sg15_61_cif.got.tgz:120532.got - 2010.06.03 18:47:42.
