data_PCOD9286709
_publ_section_title
;
Structure prediction by ZEFSAII (Michael W. Deem and Ramdas Pophale) SiO2 
 PCOD9286709
Probable space group: C 2/C
;
_chemical_formula_sum "Si O2"
_cell_formula_units_Z 52
_cell_length_a 15.378341
_cell_length_b 28.918089
_cell_length_c 9.929911
_cell_angle_alpha 90.000000
_cell_angle_beta 37.726037
_cell_angle_gamma 90.000000
_cell_volume 2702.062114
_symmetry_space_group_name_H-M "C 2/C"
_symmetry_group_IT_number 15
_symmetry_cell_setting 'monoclinic'
loop_
_space_group_symop_operation_xyz
x,y,z
-x,y,1/2-z
-x,-y,-z
x,-y,1/2+z
1/2+x,1/2+y,z
1/2-x,1/2+y,1/2-z
1/2-x,1/2-y,-z
1/2+x,1/2-y,1/2+z
loop_
_atom_site_type_symbol
_atom_site_label
_atom_site_fract_x
_atom_site_fract_y
_atom_site_fract_z
Si Si1 0.345716 0.383467 0.368878
Si Si2 0.935407 0.435252 0.187000
Si Si3 0.850181 0.254906 0.245538
Si Si4 0.329997 0.287661 0.491700
Si Si5 0.746157 0.352701 0.313026
Si Si6 0.000000 0.803568 0.750000
Si Si7 0.124842 0.538761 0.206615
O O1 0.500000 0.389169 0.250000
O O2 0.277356 0.339203 0.526489
O O3 0.335152 0.366362 0.225911
O O4 0.255760 0.429745 0.501735
O O5 0.836196 0.396410 0.246919
O O6 0.852219 0.483675 0.311944
O O7 0.000000 0.420353 0.250000
O O8 0.061894 0.445767 0.927230
O O9 0.750000 0.250000 0.500000
O O10 0.847328 0.306843 0.189995
O O11 0.991235 0.230612 0.131954
O O12 0.805187 0.223585 0.176859
O O13 0.500000 0.285772 0.250000
O O14 0.250000 0.250000 0.500000
O O15 0.631381 0.337236 0.564286
O O16 0.000000 0.545493 0.250000
#
# Coordination Sequence:
#
# PCOD9286709 Si02
#       7
#     8   8   8   8   8   4   8
#     4  11  23  40  67  96 131 166 216 263 328 381
#     4  10  23  40  69  94 125 164 220 264 319 389
#     4  10  23  39  61  88 127 170 208 254 312 378
#     4  11  23  39  60  92 128 166 211 258 310 376
#     4  11  22  42  62  94 126 174 212 264 322 385
#     4  10  22  40  62  88 140 164 204 270 322 374
#     4  10  21  44  66  94 129 167 212 272 318 377
#
# _framework density 19.244561999999998
#
# number of rings (size 3 to 8) (size 9 to 14) (size 15 to 20)
#    0.000    1.538    3.077    1.846    3.231    5.538 
#    1.385    0.769    0.000    0.000    0.000    0.000 
#    0.000    0.000    0.000    0.000    0.000    0.000 
#
# Total GULP energy -144959.014766 kJ/mol
# GULP energy per Si atom -5575.346722 kJ/mol
# Density = 1.920076 g / cm^3
# Si number density = 19.244562 Si / 1000 Ang^3
#
#
#
# Elastic Constant Matrix: (Units=GPa)
#
#
# Indices 1 2 3 4 5 6 
#
# 1 112.5372 43.8737 10.0143 0.0000 24.3865 0.0000
# 2 43.8737 102.6598 13.3773 0.0000 -10.6232 0.0000
# 3 10.0143 13.3773 39.8121 0.0000 13.7230 0.0000
# 4 0.0000 0.0000 0.0000 22.0901 0.0000 9.2236
# 5 24.3865 -10.6232 13.7230 0.0000 34.5754 0.0000
# 6 0.0000 0.0000 0.0000 9.2236 0.0000 23.5142
#
#
#
# Elastic Compliance Matrix: (Units=1/GPa)
#
#
# Indices 1 2 3 4 5 6 
#
# 1 0.015074 -0.008538 0.004224 0.000000 -0.014932 0.000000
# 2 -0.008538 0.015899 -0.008056 0.000000 0.014104 0.000000
# 3 0.004224 -0.008056 0.033182 0.000000 -0.018625 0.000000
# 4 0.000000 0.000000 0.000000 0.054136 0.000000 -0.021235
# 5 -0.014932 0.014104 -0.018625 0.000000 0.051180 0.000000
# 6 0.000000 0.000000 0.000000 -0.021235 0.000000 0.050857
#
#
# Mechanical properties :
#
#
# Convention : Reuss Voigt Hill
#
# Bulk Modulus (GPa) = 25.37093 43.28219 34.32656
# Shear Modulus (GPa) = 19.36433 28.55221 23.95827
#
# Velocity S-wave (km/s) = 3.17554 3.85600 3.53219
# Velocity P-wave (km/s) = 5.16309 6.50879 5.87460
#
# Compressibility (1/GPa) = 0.03941519
#
# Stress axis : x y z
#
# Youngs Moduli (GPa) = 66.33789 62.89682 30.13654
#
# Poissons Ratio (x) = 0.53700 -0.12730
# Poissons Ratio (y) = 0.56638 0.24279
# Poissons Ratio (z) = -0.28021 0.50672
#
# Static dielectric constant tensor:
#      x y z
#    x 1.736370 0.000000 -0.025850 
#    y 0.000000 1.666790 0.000000 
#    z -0.025850 0.000000 1.703930 
# 
# From -- ./inp_files/44778.got.cif
#   From: 2010.05.17/outbox.cif.g08.bks.cpg/sg15_23_cif.got.tgz:44778.got - 2010.06.03 18:47:42.
