data_PCOD9286683
_publ_section_title
;
Structure prediction by ZEFSAII (Michael W. Deem and Ramdas Pophale) SiO2 
 PCOD9286683
Probable space group: C 2/C
;
_chemical_formula_sum "Si O2"
_cell_formula_units_Z 28
_cell_length_a 13.086497
_cell_length_b 19.251809
_cell_length_c 6.635759
_cell_angle_alpha 90.000000
_cell_angle_beta 137.253747
_cell_angle_gamma 90.000000
_cell_volume 1134.742034
_symmetry_space_group_name_H-M "C 2/C"
_symmetry_group_IT_number 15
_symmetry_cell_setting 'monoclinic'
loop_
_space_group_symop_operation_xyz
x,y,z
-x,y,1/2-z
-x,-y,-z
x,-y,1/2+z
1/2+x,1/2+y,z
1/2-x,1/2+y,1/2-z
1/2-x,1/2-y,-z
1/2+x,1/2-y,1/2+z
loop_
_atom_site_type_symbol
_atom_site_label
_atom_site_fract_x
_atom_site_fract_y
_atom_site_fract_z
Si Si1 0.876567 0.912124 0.358153
Si Si2 0.712086 0.559865 0.223290
Si Si3 0.909733 0.767476 0.320099
Si Si4 0.000000 0.649360 0.750000
O O1 0.875547 0.832074 0.419764
O O2 0.054966 0.930867 0.617004
O O3 0.777606 0.976499 0.294378
O O4 0.819525 0.910535 0.043841
O O5 0.852899 0.600093 0.521721
O O6 0.000000 0.787922 0.250000
O O7 0.987969 0.702523 0.543950
O O8 0.750000 0.750000 0.000000
#
# Coordination Sequence:
#
# PCOD9286683 Si02
#       4
#     8   8   8   4
#     4  10  21  44  65  97 146 182 236 292 361 435
#     4  10  22  42  68 100 136 189 238 291 359 434
#     4  12  25  47  72 106 148 187 242 305 364 432
#     4  12  26  44  76 110 142 190 248 304 368 422
#
# _framework density 24.675211000000001
#
# number of rings (size 3 to 8) (size 9 to 14) (size 15 to 20)
#    0.000    1.143    5.714    0.000    0.000   12.571 
#    2.571    0.000    0.000    0.000    0.000    0.000 
#    0.000    0.000    0.000    0.000    0.000    0.000 
#
# Total GULP energy -78215.619004 kJ/mol
# GULP energy per Si atom -5586.829929 kJ/mol
# Density = 2.461905 g / cm^3
# Si number density = 24.675211 Si / 1000 Ang^3
#
#
#
# Elastic Constant Matrix: (Units=GPa)
#
#
# Indices 1 2 3 4 5 6 
#
# 1 38.0873 35.0178 24.0850 0.0000 1.7201 0.0000
# 2 35.0178 227.7146 101.9174 0.0000 16.2573 0.0000
# 3 24.0850 101.9174 191.0068 0.0000 8.3695 0.0000
# 4 0.0000 0.0000 0.0000 56.3992 0.0000 -0.7723
# 5 1.7201 16.2573 8.3695 0.0000 28.5506 0.0000
# 6 0.0000 0.0000 0.0000 -0.7723 0.0000 35.1884
#
#
#
# Elastic Compliance Matrix: (Units=1/GPa)
#
#
# Indices 1 2 3 4 5 6 
#
# 1 0.031066 -0.004038 -0.001805 0.000000 0.000957 0.000000
# 2 -0.004038 0.006463 -0.002825 0.000000 -0.002609 0.000000
# 3 -0.001805 -0.002825 0.006985 0.000000 -0.000330 0.000000
# 4 0.000000 0.000000 0.000000 0.017736 0.000000 0.000389
# 5 0.000957 -0.002609 -0.000330 0.000000 0.036550 0.000000
# 6 0.000000 0.000000 0.000000 0.000389 0.000000 0.028427
#
#
# Mechanical properties :
#
#
# Convention : Reuss Voigt Hill
#
# Bulk Modulus (GPa) = 36.79369 86.53880 61.66624
# Shear Modulus (GPa) = 32.54745 43.74688 38.14717
#
# Velocity S-wave (km/s) = 3.63579 4.21516 3.93615
# Velocity P-wave (km/s) = 5.70691 7.67055 6.76041
#
# Compressibility (1/GPa) = 0.02717858
#
# Stress axis : x y z
#
# Youngs Moduli (GPa) = 32.18963 154.72507 143.16695
#
# Poissons Ratio (x) = 0.62477 0.25836
# Poissons Ratio (y) = 0.12998 0.40446
# Poissons Ratio (z) = 0.05809 0.43711
#
# Static dielectric constant tensor:
#      x y z
#    x 1.637810 0.000000 -0.110970 
#    y 0.000000 2.008630 0.000000 
#    z -0.110970 0.000000 1.920910 
# 
# From -- ./inp_files/21621.got.cif
#   From: 2010.05.17/outbox.cif.g08.bks.cpg/sg15_11_cif.got.tgz:21621.got - 2010.06.03 18:47:42.
