data_PCOD9286705
_publ_section_title
;
Structure prediction by ZEFSAII (Michael W. Deem and Ramdas Pophale) SiO2 
 PCOD9286705
Probable space group: C 2/C
;
_chemical_formula_sum "Si O2"
_cell_formula_units_Z 52
_cell_length_a 10.197112
_cell_length_b 23.655106
_cell_length_c 10.983425
_cell_angle_alpha 90.000000
_cell_angle_beta 116.344683
_cell_angle_gamma 90.000000
_cell_volume 2374.193114
_symmetry_space_group_name_H-M "C 2/C"
_symmetry_group_IT_number 15
_symmetry_cell_setting 'monoclinic'
loop_
_space_group_symop_operation_xyz
x,y,z
-x,y,1/2-z
-x,-y,-z
x,-y,1/2+z
1/2+x,1/2+y,z
1/2-x,1/2+y,1/2-z
1/2-x,1/2-y,-z
1/2+x,1/2-y,1/2+z
loop_
_atom_site_type_symbol
_atom_site_label
_atom_site_fract_x
_atom_site_fract_y
_atom_site_fract_z
Si Si1 0.733299 0.553007 0.746770
Si Si2 0.500000 0.124058 0.750000
Si Si3 0.265321 0.574683 0.204612
Si Si4 0.458554 0.169609 0.466397
Si Si5 0.582557 0.298296 0.102363
Si Si6 0.946633 0.093913 0.039932
Si Si7 0.211388 0.844363 0.395856
O O1 0.780867 0.489239 0.788156
O O2 0.596103 0.559773 0.599029
O O3 0.698385 0.589497 0.853604
O O4 0.865024 0.584866 0.733292
O O5 0.462292 0.158666 0.613117
O O6 0.355332 0.571180 0.115662
O O7 0.383388 0.592126 0.355480
O O8 0.139412 0.620982 0.135388
O O9 0.406630 0.232904 0.420617
O O10 0.626438 0.165675 0.488998
O O11 0.692070 0.313873 0.256588
O O12 0.420811 0.318116 0.081873
O O13 0.605443 0.341362 0.001357
#
# Coordination Sequence:
#
# PCOD9286705 Si02
#       7
#     8   4   8   8   8   8   8
#     4  10  21  44  66  91 137 170 222 271 329 407
#     4  10  22  42  64  94 128 180 214 262 364 372
#     4  11  24  40  67 100 128 171 227 277 325 389
#     4  11  23  42  67  97 131 167 223 279 327 397
#     4  10  22  42  67  93 135 172 222 266 328 410
#     4  10  23  43  63  98 128 176 221 261 340 389
#     4   9  22  42  67  93 126 184 211 269 347 381
#
# _framework density 21.902179
#
# number of rings (size 3 to 8) (size 9 to 14) (size 15 to 20)
#    0.000    1.846    1.538    0.923    2.154   10.462 
#    2.769    0.000    0.000    0.000    0.000    0.000 
#    0.000    0.000    0.000    0.000    0.000    0.000 
#
# Total GULP energy -145357.521581 kJ/mol
# GULP energy per Si atom -5590.673907 kJ/mol
# Density = 2.185233 g / cm^3
# Si number density = 21.902179 Si / 1000 Ang^3
#
#
#
# Elastic Constant Matrix: (Units=GPa)
#
#
# Indices 1 2 3 4 5 6 
#
# 1 86.9673 33.0856 19.7692 0.0000 17.7056 0.0000
# 2 33.0856 182.7684 41.5697 0.0000 8.1188 0.0000
# 3 19.7692 41.5697 48.8118 0.0000 8.9550 0.0000
# 4 0.0000 0.0000 0.0000 15.1258 0.0000 -1.2282
# 5 17.7056 8.1188 8.9550 0.0000 26.2233 0.0000
# 6 0.0000 0.0000 0.0000 -1.2282 0.0000 19.6538
#
#
#
# Elastic Compliance Matrix: (Units=1/GPa)
#
#
# Indices 1 2 3 4 5 6 
#
# 1 0.014458 -0.001567 -0.003008 0.000000 -0.008250 0.000000
# 2 -0.001567 0.006956 -0.005429 0.000000 0.000758 0.000000
# 3 -0.003008 -0.005429 0.027361 0.000000 -0.005632 0.000000
# 4 0.000000 0.000000 0.000000 0.066449 0.000000 0.004152
# 5 -0.008250 0.000758 -0.005632 0.000000 0.045393 0.000000
# 6 0.000000 0.000000 0.000000 0.004152 0.000000 0.051140
#
#
# Mechanical properties :
#
#
# Convention : Reuss Voigt Hill
#
# Bulk Modulus (GPa) = 34.75944 56.37738 45.56841
# Shear Modulus (GPa) = 20.71651 27.14210 23.92930
#
# Velocity S-wave (km/s) = 3.07883 3.52411 3.30897
# Velocity P-wave (km/s) = 5.34263 6.50811 5.95396
#
# Compressibility (1/GPa) = 0.02876916
#
# Stress axis : x y z
#
# Youngs Moduli (GPa) = 69.16659 143.76015 36.54776
#
# Poissons Ratio (x) = 0.22522 0.10993
# Poissons Ratio (y) = 0.10836 0.19840
# Poissons Ratio (z) = 0.20805 0.78041
#
# Static dielectric constant tensor:
#      x y z
#    x 1.853040 0.000000 0.007730 
#    y 0.000000 1.770040 0.000000 
#    z 0.007730 0.000000 1.812130 
# 
# From -- ./inp_files/89742.got.cif
#   From: 2010.05.17/outbox.cif.g08.bks.cpg/sg15_45_cif.got.tgz:89742.got - 2010.06.03 18:47:42.
