data_PCOD9286977
_publ_section_title
;
Structure prediction by ZEFSAII (Michael W. Deem and Ramdas Pophale) SiO2 
 PCOD9286977
Probable space group: C 2/C
;
_chemical_formula_sum "Si O2"
_cell_formula_units_Z 44
_cell_length_a 7.255457
_cell_length_b 11.723330
_cell_length_c 25.588101
_cell_angle_alpha 90.000000
_cell_angle_beta 56.141225
_cell_angle_gamma 90.000000
_cell_volume 1807.374515
_symmetry_space_group_name_H-M "C 2/C"
_symmetry_group_IT_number 15
_symmetry_cell_setting 'monoclinic'
loop_
_space_group_symop_operation_xyz
x,y,z
-x,y,1/2-z
-x,-y,-z
x,-y,1/2+z
1/2+x,1/2+y,z
1/2-x,1/2+y,1/2-z
1/2-x,1/2-y,-z
1/2+x,1/2-y,1/2+z
loop_
_atom_site_type_symbol
_atom_site_label
_atom_site_fract_x
_atom_site_fract_y
_atom_site_fract_z
Si Si1 0.714305 0.532531 0.096123
Si Si2 0.827336 0.220450 0.615325
Si Si3 0.212689 0.715584 0.901935
Si Si4 0.245759 0.612050 0.199409
Si Si5 0.859172 0.891915 0.003936
Si Si6 0.500000 0.741858 0.250000
O O1 0.792785 0.644359 0.113807
O O2 0.820662 0.418587 0.101987
O O3 0.444440 0.532708 0.145511
O O4 0.764773 0.559772 0.027492
O O5 0.758645 0.158274 0.572990
O O6 0.662680 0.187078 0.687569
O O7 0.083093 0.208059 0.589590
O O8 0.276405 0.785895 0.839978
O O9 0.015157 0.788237 0.958847
O O10 0.346440 0.665348 0.236502
O O11 0.000000 0.566795 0.250000
O O12 0.000000 0.000000 0.000000
#
# Coordination Sequence:
#
# PCOD9286977 Si02
#       6
#     8   8   8   8   8   4
#     4  10  24  43  66 103 139 178 238 290 349 421
#     4  11  22  43  68  97 137 182 229 285 349 411
#     4  11  23  45  68 102 142 180 232 301 344 412
#     4  10  21  45  69  98 143 185 236 288 351 419
#     4  11  23  43  70 100 143 182 232 292 354 413
#     4  10  22  44  70 100 140 178 240 280 342 432
#
# _framework density 24.344702999999999
#
# number of rings (size 3 to 8) (size 9 to 14) (size 15 to 20)
#    0.000    1.455    3.636    1.091    0.000    0.727 
#   18.000    0.000    0.000    0.000    0.000    0.000 
#    0.000    0.000    0.000    0.000    0.000    0.000 
#
# Total GULP energy -123126.239560 kJ/mol
# GULP energy per Si atom -5596.647253 kJ/mol
# Density = 2.428929 g / cm^3
# Si number density = 24.344703 Si / 1000 Ang^3
#
#
#
# Elastic Constant Matrix: (Units=GPa)
#
#
# Indices 1 2 3 4 5 6 
#
# 1 112.6259 19.1634 32.4799 0.0001 1.5285 0.0000
# 2 19.1634 151.8386 27.6896 0.0000 2.1777 0.0000
# 3 32.4799 27.6896 140.8376 0.0001 13.4217 0.0000
# 4 0.0001 0.0000 0.0001 14.6202 -0.0001 -5.4532
# 5 1.5285 2.1777 13.4217 -0.0001 37.2456 0.0000
# 6 0.0000 0.0000 0.0000 -5.4532 0.0000 38.3241
#
#
#
# Elastic Compliance Matrix: (Units=1/GPa)
#
#
# Indices 1 2 3 4 5 6 
#
# 1 0.009620 -0.000838 -0.002093 0.000000 0.000408 0.000000
# 2 -0.000838 0.006904 -0.001169 0.000000 0.000052 0.000000
# 3 -0.002093 -0.001169 0.008075 0.000000 -0.002756 0.000000
# 4 0.000000 0.000000 0.000000 0.072232 0.000000 0.010278
# 5 0.000408 0.000052 -0.002756 0.000000 0.027822 0.000000
# 6 0.000000 0.000000 0.000000 0.010278 0.000000 0.027556
#
#
# Mechanical properties :
#
#
# Convention : Reuss Voigt Hill
#
# Bulk Modulus (GPa) = 60.97809 62.66310 61.82059
# Shear Modulus (GPa) = 30.14319 39.76928 34.95623
#
# Velocity S-wave (km/s) = 3.52260 4.04616 3.79342
# Velocity P-wave (km/s) = 6.45346 6.90104 6.68100
#
# Compressibility (1/GPa) = 0.01639933
#
# Stress axis : x y z
#
# Youngs Moduli (GPa) = 103.95535 144.83970 123.83258
#
# Poissons Ratio (x) = 0.12142 0.25912
# Poissons Ratio (y) = 0.08715 0.14476
# Poissons Ratio (z) = 0.21753 0.16932
#
# Static dielectric constant tensor:
#      x y z
#    x 1.970150 0.000000 -0.085440 
#    y 0.000000 1.929690 0.000000 
#    z -0.085440 0.000000 1.968630 
# 
# From -- ./inp_files/287871.got.cif
#   From: 2010.05.17/outbox.cif.g08.bks.cpg/sg15_144_cif.got.tgz:287871.got - 2010.06.03 18:47:42.
