data_PCOD9286525
_publ_section_title
;
Structure prediction by ZEFSAII (Michael W. Deem and Ramdas Pophale) SiO2 
 PCOD9286525
Probable space group: C 2/C
;
_chemical_formula_sum "Si O2"
_cell_formula_units_Z 52
_cell_length_a 8.116023
_cell_length_b 32.519486
_cell_length_c 13.909722
_cell_angle_alpha 90.000000
_cell_angle_beta 136.640975
_cell_angle_gamma 90.000000
_cell_volume 2520.512041
_symmetry_space_group_name_H-M "C 2/C"
_symmetry_group_IT_number 15
_symmetry_cell_setting 'monoclinic'
loop_
_space_group_symop_operation_xyz
x,y,z
-x,y,1/2-z
-x,-y,-z
x,-y,1/2+z
1/2+x,1/2+y,z
1/2-x,1/2+y,1/2-z
1/2-x,1/2-y,-z
1/2+x,1/2-y,1/2+z
loop_
_atom_site_type_symbol
_atom_site_label
_atom_site_fract_x
_atom_site_fract_y
_atom_site_fract_z
Si Si1 0.412271 0.686504 0.102884
Si Si2 0.067690 0.974963 0.621651
Si Si3 0.000000 0.960406 0.250000
Si Si4 0.675155 0.600296 0.415333
Si Si5 0.573623 0.772625 0.166966
Si Si6 0.000000 0.180914 0.750000
Si Si7 0.676670 0.111001 0.525340
Si Si8 0.500000 0.915707 0.750000
O O1 0.500000 0.681556 0.250000
O O2 0.415281 0.640206 0.063216
O O3 0.566814 0.724885 0.130938
O O4 0.141518 0.703564 0.978498
O O5 0.290812 0.945009 0.700715
O O6 0.845786 0.943952 0.545936
O O7 0.120781 0.007951 0.727037
O O8 0.000000 0.000000 0.500000
O O9 0.824714 0.930127 0.116690
O O10 0.500000 0.595750 0.250000
O O11 0.938695 0.610512 0.489656
O O12 0.500000 0.774224 0.250000
O O13 0.824544 0.792767 0.244146
O O14 0.164996 0.150489 0.882872
O O15 0.597965 0.109677 0.381518
#
# Coordination Sequence:
#
# PCOD9286525 Si02
#       8
#     8   8   4   8   8   4   8   4
#     4   9  20  41  70  95 132 176 224 273 335 405
#     4  12  25  40  63  97 132 180 229 280 345 408
#     4  11  24  44  62  90 141 178 221 288 350 395
#     4  11  21  41  68  91 131 179 219 277 343 394
#     4  10  21  43  71 100 138 177 222 277 338 412
#     4  11  24  46  67 104 144 176 226 280 351 403
#     4  11  24  43  66  99 137 176 226 287 338 410
#     4  12  24  42  63  96 137 174 235 284 325 424
#
# _framework density 20.630728000000001
#
# number of rings (size 3 to 8) (size 9 to 14) (size 15 to 20)
#    0.000    1.231    5.385    0.000    2.154    2.462 
#    0.000    7.692    0.000    0.000    0.000    0.000 
#    0.000    0.000    0.000    0.000    0.000    0.000 
#
# Total GULP energy -145122.015596 kJ/mol
# GULP energy per Si atom -5581.615984 kJ/mol
# Density = 2.058377 g / cm^3
# Si number density = 20.630728 Si / 1000 Ang^3
#
#
#
# Elastic Constant Matrix: (Units=GPa)
#
#
# Indices 1 2 3 4 5 6 
#
# 1 102.0447 54.3678 36.2416 0.0000 12.3618 0.0000
# 2 54.3678 156.1636 33.8464 0.0000 -1.1815 0.0000
# 3 36.2416 33.8464 94.6601 0.0000 -0.3057 0.0000
# 4 0.0000 0.0000 0.0000 10.2546 0.0000 -5.2172
# 5 12.3618 -1.1815 -0.3057 0.0000 31.0831 0.0000
# 6 0.0000 0.0000 0.0000 -5.2172 0.0000 15.5662
#
#
#
# Elastic Compliance Matrix: (Units=1/GPa)
#
#
# Indices 1 2 3 4 5 6 
#
# 1 0.014084 -0.004091 -0.003948 0.000000 -0.005795 0.000000
# 2 -0.004091 0.008132 -0.001335 0.000000 0.001923 0.000000
# 3 -0.003948 -0.001335 0.012558 0.000000 0.001643 0.000000
# 4 0.000000 0.000000 0.000000 0.117564 0.000000 0.039403
# 5 -0.005795 0.001923 0.001643 0.000000 0.034566 0.000000
# 6 0.000000 0.000000 0.000000 0.039403 0.000000 0.077448
#
#
# Mechanical properties :
#
#
# Convention : Reuss Voigt Hill
#
# Bulk Modulus (GPa) = 62.40147 66.86445 64.63296
# Shear Modulus (GPa) = 17.33451 26.60829 21.97140
#
# Velocity S-wave (km/s) = 2.90181 3.59519 3.26695
# Velocity P-wave (km/s) = 6.44514 7.05084 6.75478
#
# Compressibility (1/GPa) = 0.01602526
#
# Stress axis : x y z
#
# Youngs Moduli (GPa) = 71.00447 122.97367 79.62902
#
# Poissons Ratio (x) = 0.50313 0.31437
# Poissons Ratio (y) = 0.29050 0.10630
# Poissons Ratio (z) = 0.28032 0.16416
#
# Static dielectric constant tensor:
#      x y z
#    x 1.770710 0.000000 -0.005570 
#    y 0.000000 1.765910 0.000000 
#    z -0.005570 0.000000 1.722650 
# 
# From -- ./inp_files/139923.got.cif
#   From: 2010.05.17/outbox.cif.g08.bks.cpg/sg15_70_cif.got.tgz:139923.got - 2010.06.03 18:47:42.
