data_PCOD9286097
_publ_section_title
;
Structure prediction by ZEFSAII (Michael W. Deem and Ramdas Pophale) SiO2 
 PCOD9286097
Probable space group: C 2/C
;
_chemical_formula_sum "Si O2"
_cell_formula_units_Z 40
_cell_length_a 17.991699
_cell_length_b 13.656263
_cell_length_c 12.849772
_cell_angle_alpha 90.000000
_cell_angle_beta 32.935796
_cell_angle_gamma 90.000000
_cell_volume 1716.555808
_symmetry_space_group_name_H-M "C 2/C"
_symmetry_group_IT_number 15
_symmetry_cell_setting 'monoclinic'
loop_
_space_group_symop_operation_xyz
x,y,z
-x,y,1/2-z
-x,-y,-z
x,-y,1/2+z
1/2+x,1/2+y,z
1/2-x,1/2+y,1/2-z
1/2-x,1/2-y,-z
1/2+x,1/2-y,1/2+z
loop_
_atom_site_type_symbol
_atom_site_label
_atom_site_fract_x
_atom_site_fract_y
_atom_site_fract_z
Si Si1 0.878119 0.466178 0.218420
Si Si2 0.000000 0.673680 0.750000
Si Si3 0.850530 0.807467 0.071116
Si Si4 0.903128 0.937507 0.687892
Si Si5 0.232959 0.856665 0.840268
Si Si6 0.500000 0.572651 0.750000
O O1 0.941837 0.397459 0.230387
O O2 0.751666 0.398768 0.324747
O O3 0.819705 0.573517 0.313194
O O4 0.000000 0.500000 0.000000
O O5 0.125075 0.739080 0.557970
O O6 0.796051 0.746204 0.233745
O O7 0.007416 0.840478 0.902144
O O8 0.777927 0.911584 0.760185
O O9 0.000000 0.000000 0.500000
O O10 0.904432 0.998694 0.793245
O O11 0.086213 0.860845 0.068957
#
# Coordination Sequence:
#
# PCOD9286097 Si02
#       6
#     8   4   8   8   8   4
#     4  12  26  48  69 109 150 183 233 304 365 405
#     4  12  27  44  77 110 136 192 243 298 351 422
#     4  12  24  45  76 106 141 181 246 292 349 431
#     4  10  21  43  70 101 135 184 232 287 347 410
#     4  11  25  43  72 102 144 184 236 294 352 423
#     4  10  21  42  71  98 132 194 229 274 357 414
#
# _framework density 23.302475000000001
#
# number of rings (size 3 to 8) (size 9 to 14) (size 15 to 20)
#    0.000    0.800    6.000    2.400    2.800    0.000 
#    0.000    5.000    0.000    0.000    0.000    0.000 
#    0.000    0.000    0.000    0.000    0.000    0.000 
#
# Total GULP energy -111521.634620 kJ/mol
# GULP energy per Si atom -5576.081731 kJ/mol
# Density = 2.324944 g / cm^3
# Si number density = 23.302475 Si / 1000 Ang^3
#
#
#
# Elastic Constant Matrix: (Units=GPa)
#
#
# Indices 1 2 3 4 5 6 
#
# 1 63.8578 13.1499 11.6116 0.0000 3.4928 0.0000
# 2 13.1499 91.4913 44.9861 0.0000 10.4158 0.0000
# 3 11.6116 44.9861 130.7213 0.0000 13.0390 0.0000
# 4 0.0000 0.0000 0.0000 59.6595 0.0000 -1.9131
# 5 3.4928 10.4158 13.0390 0.0000 30.4506 0.0000
# 6 0.0000 0.0000 0.0000 -1.9131 0.0000 27.5016
#
#
#
# Elastic Compliance Matrix: (Units=1/GPa)
#
#
# Indices 1 2 3 4 5 6 
#
# 1 0.016225 -0.001883 -0.000702 0.000000 -0.000917 0.000000
# 2 -0.001883 0.013587 -0.004248 0.000000 -0.002613 0.000000
# 3 -0.000702 -0.004248 0.009424 0.000000 -0.002502 0.000000
# 4 0.000000 0.000000 0.000000 0.016799 0.000000 0.001169
# 5 -0.000917 -0.002613 -0.002502 0.000000 0.034910 0.000000
# 6 0.000000 0.000000 0.000000 0.001169 0.000000 0.036443
#
#
# Mechanical properties :
#
#
# Convention : Reuss Voigt Hill
#
# Bulk Modulus (GPa) = 39.10714 47.28506 43.19610
# Shear Modulus (GPa) = 33.42785 37.94387 35.68586
#
# Velocity S-wave (km/s) = 3.79161 4.03962 3.91758
# Velocity P-wave (km/s) = 5.99894 6.48799 6.24825
#
# Compressibility (1/GPa) = 0.02557078
#
# Stress axis : x y z
#
# Youngs Moduli (GPa) = 61.63244 73.60157 106.11653
#
# Poissons Ratio (x) = 0.13856 0.07449
# Poissons Ratio (y) = 0.11602 0.45077
# Poissons Ratio (z) = 0.04326 0.31265
#
# Static dielectric constant tensor:
#      x y z
#    x 2.561250 0.000000 -0.084200 
#    y 0.000000 2.047710 0.000000 
#    z -0.084200 0.000000 1.929210 
# 
# From -- ./inp_files/95564.got.cif
#   From: 2010.05.17/outbox.cif.g08.bks.cpg/sg15_48_cif.got.tgz:95564.got - 2010.06.03 18:47:42.
