data_PCOD9286254
_publ_section_title
;
Structure prediction by ZEFSAII (Michael W. Deem and Ramdas Pophale) SiO2 
 PCOD9286254
Probable space group: C 2/C
;
_chemical_formula_sum "Si O2"
_cell_formula_units_Z 44
_cell_length_a 11.800296
_cell_length_b 9.276905
_cell_length_c 26.348059
_cell_angle_alpha 90.000000
_cell_angle_beta 136.239479
_cell_angle_gamma 90.000000
_cell_volume 1994.932990
_symmetry_space_group_name_H-M "C 2/C"
_symmetry_group_IT_number 15
_symmetry_cell_setting 'monoclinic'
loop_
_space_group_symop_operation_xyz
x,y,z
-x,y,1/2-z
-x,-y,-z
x,-y,1/2+z
1/2+x,1/2+y,z
1/2-x,1/2+y,1/2-z
1/2-x,1/2-y,-z
1/2+x,1/2-y,1/2+z
loop_
_atom_site_type_symbol
_atom_site_label
_atom_site_fract_x
_atom_site_fract_y
_atom_site_fract_z
Si Si1 0.528681 0.283500 0.339288
Si Si2 0.746212 0.529470 0.416030
Si Si3 0.000000 0.619312 0.750000
Si Si4 0.449176 0.774388 0.122668
Si Si5 0.485878 0.928863 0.576967
Si Si6 0.732865 0.149233 0.320341
O O1 0.572674 0.450660 0.353667
O O2 0.680442 0.211222 0.357934
O O3 0.372564 0.238429 0.255574
O O4 0.514998 0.214154 0.389979
O O5 0.718982 0.685384 0.431946
O O6 0.854832 0.433776 0.489220
O O7 0.840179 0.545685 0.393693
O O8 0.008232 0.710620 0.803879
O O9 0.157837 0.511986 0.795609
O O10 0.447651 0.935865 0.100862
O O11 0.582019 0.684048 0.133538
#
# Coordination Sequence:
#
# PCOD9286254 Si02
#       6
#     8   8   4   8   8   8
#     4  10  21  43  65  87 127 169 198 257 319 364
#     4  11  26  39  65  95 121 172 213 250 312 363
#     4  10  24  40  60  96 124 164 194 258 322 368
#     4  12  24  40  67  93 125 159 211 260 312 368
#     4  11  23  46  61  88 135 164 210 261 294 380
#     4  10  22  40  65  89 128 158 201 262 316 365
#
# _framework density 22.055878
#
# number of rings (size 3 to 8) (size 9 to 14) (size 15 to 20)
#    0.000    1.455    5.455    1.091    5.091    1.455 
#    0.000    0.909    0.000    0.000    0.000    0.000 
#    0.000    0.000    0.000    0.000    0.000    0.000 
#
# Total GULP energy -122958.253149 kJ/mol
# GULP energy per Si atom -5589.011507 kJ/mol
# Density = 2.200568 g / cm^3
# Si number density = 22.055878 Si / 1000 Ang^3
#
#
#
# Elastic Constant Matrix: (Units=GPa)
#
#
# Indices 1 2 3 4 5 6 
#
# 1 49.7090 21.0687 18.5446 0.0000 -22.4121 0.0000
# 2 21.0687 65.4855 -2.2208 0.0000 -1.8915 0.0000
# 3 18.5446 -2.2208 25.4224 0.0000 -16.6526 0.0000
# 4 0.0000 0.0000 0.0000 21.7197 0.0000 -10.1856
# 5 -22.4121 -1.8915 -16.6526 0.0000 29.6426 0.0000
# 6 0.0000 0.0000 0.0000 -10.1856 0.0000 26.8896
#
#
#
# Elastic Compliance Matrix: (Units=1/GPa)
#
#
# Indices 1 2 3 4 5 6 
#
# 1 0.041956 -0.013525 -0.018312 0.000000 0.020572 0.000000
# 2 -0.013525 0.019818 0.009062 0.000000 -0.003871 0.000000
# 3 -0.018312 0.009062 0.070875 0.000000 0.026550 0.000000
# 4 0.000000 0.000000 0.000000 0.055986 0.000000 0.021207
# 5 0.020572 -0.003871 0.026550 0.000000 0.063957 0.000000
# 6 0.000000 0.000000 0.000000 0.021207 0.000000 0.045222
#
#
# Mechanical properties :
#
#
# Convention : Reuss Voigt Hill
#
# Bulk Modulus (GPa) = 11.48116 23.93354 17.70735
# Shear Modulus (GPa) = 13.42647 22.53202 17.97924
#
# Velocity S-wave (km/s) = 2.46996 3.19970 2.85821
# Velocity P-wave (km/s) = 3.65391 4.95233 4.35182
#
# Compressibility (1/GPa) = 0.08709924
#
# Stress axis : x y z
#
# Youngs Moduli (GPa) = 23.83430 50.46015 14.10925
#
# Poissons Ratio (x) = 0.68250 0.25836
# Poissons Ratio (y) = 0.32237 -0.12786
# Poissons Ratio (z) = 0.43644 -0.45726
#
# Static dielectric constant tensor:
#      x y z
#    x 1.789140 0.000000 0.033930 
#    y 0.000000 1.813460 0.000000 
#    z 0.033930 0.000000 1.835070 
# 
# From -- ./inp_files/236068.got.cif
#   From: 2010.05.17/outbox.cif.g08.bks.cpg/sg15_119_cif.got.tgz:236068.got - 2010.06.03 18:47:42.
