data_PCOD9286498
_publ_section_title
;
Structure prediction by ZEFSAII (Michael W. Deem and Ramdas Pophale) SiO2 
 PCOD9286498
Probable space group: C 2/C
;
_chemical_formula_sum "Si O2"
_cell_formula_units_Z 44
_cell_length_a 17.910237
_cell_length_b 12.748333
_cell_length_c 8.749230
_cell_angle_alpha 90.000000
_cell_angle_beta 102.214911
_cell_angle_gamma 90.000000
_cell_volume 1952.448155
_symmetry_space_group_name_H-M "C 2/C"
_symmetry_group_IT_number 15
_symmetry_cell_setting 'monoclinic'
loop_
_space_group_symop_operation_xyz
x,y,z
-x,y,1/2-z
-x,-y,-z
x,-y,1/2+z
1/2+x,1/2+y,z
1/2-x,1/2+y,1/2-z
1/2-x,1/2-y,-z
1/2+x,1/2-y,1/2+z
loop_
_atom_site_type_symbol
_atom_site_label
_atom_site_fract_x
_atom_site_fract_y
_atom_site_fract_z
Si Si1 0.033081 0.833198 0.918956
Si Si2 0.746611 0.199115 0.663732
Si Si3 0.500000 0.025763 0.250000
Si Si4 0.650143 0.456673 0.135403
Si Si5 0.426238 0.862169 0.451330
Si Si6 0.815090 0.146533 0.146582
O O1 0.113812 0.785932 0.889702
O O2 0.000000 0.883688 0.750000
O O3 0.975878 0.744538 0.951966
O O4 0.065772 0.917004 0.053076
O O5 0.750000 0.250000 0.500000
O O6 0.699883 0.569789 0.503855
O O7 0.814160 0.118101 0.720908
O O8 0.748540 0.281296 0.806196
O O9 0.458854 0.949785 0.351729
O O10 0.558845 0.097223 0.370578
O O11 0.656940 0.573210 0.201058
O O12 0.338075 0.848807 0.371958
#
# Coordination Sequence:
#
# PCOD9286498 Si02
#       6
#     8   8   4   8   8   8
#     4  10  21  43  70  90 133 172 217 282 334 382
#     4  12  25  42  66  98 138 177 218 279 331 409
#     4  10  24  40  72  96 124 168 224 278 324 402
#     4  10  24  42  65 100 130 176 221 271 339 392
#     4  11  22  45  64  99 126 171 221 272 340 382
#     4  10  22  43  66  94 132 176 222 270 334 390
#
# _framework density 22.535809
#
# number of rings (size 3 to 8) (size 9 to 14) (size 15 to 20)
#    1.091    0.364    2.727    1.636    2.545    3.636 
#    3.273    0.000    0.000    0.000    0.000    0.000 
#    0.000    0.000    0.000    0.000    0.000    0.000 
#
# Total GULP energy -122696.882393 kJ/mol
# GULP energy per Si atom -5577.131018 kJ/mol
# Density = 2.248452 g / cm^3
# Si number density = 22.535809 Si / 1000 Ang^3
#
#
#
# Elastic Constant Matrix: (Units=GPa)
#
#
# Indices 1 2 3 4 5 6 
#
# 1 46.4987 18.2902 12.9706 0.0000 16.5641 0.0000
# 2 18.2902 69.6100 24.0976 0.0000 18.5799 0.0000
# 3 12.9706 24.0976 108.8950 0.0000 17.5535 0.0000
# 4 0.0000 0.0000 0.0000 48.1385 0.0000 4.7376
# 5 16.5641 18.5799 17.5535 0.0000 36.5772 0.0000
# 6 0.0000 0.0000 0.0000 4.7376 0.0000 1.3893
#
#
#
# Elastic Compliance Matrix: (Units=1/GPa)
#
#
# Indices 1 2 3 4 5 6 
#
# 1 0.026802 -0.004222 -0.000702 0.000000 -0.009656 0.000000
# 2 -0.004222 0.017943 -0.002500 0.000000 -0.006002 0.000000
# 3 -0.000702 -0.002500 0.010366 0.000000 -0.003387 0.000000
# 4 0.000000 0.000000 0.000000 0.031267 0.000000 -0.106625
# 5 -0.009656 -0.006002 -0.003387 0.000000 0.036387 0.000000
# 6 0.000000 0.000000 0.000000 -0.106625 0.000000 1.083401
#
#
# Mechanical properties :
#
#
# Convention : Reuss Voigt Hill
#
# Bulk Modulus (GPa) = 24.83654 37.30227 31.06940
# Shear Modulus (GPa) = 4.05044 28.53068 16.29056
#
# Velocity S-wave (km/s) = 1.34210 3.56197 2.69155
# Velocity P-wave (km/s) = 3.66695 5.78837 4.84519
#
# Compressibility (1/GPa) = 0.04026326
#
# Stress axis : x y z
#
# Youngs Moduli (GPa) = 37.31035 55.73279 96.46966
#
# Poissons Ratio (x) = 0.23531 0.06768
# Poissons Ratio (y) = 0.15753 0.24119
# Poissons Ratio (z) = 0.02618 0.13934
#
# Static dielectric constant tensor:
#      x y z
#    x 1.952910 0.000000 0.027710 
#    y 0.000000 1.830980 0.000000 
#    z 0.027710 0.000000 1.877960 
# 
# From -- ./inp_files/54539.got.cif
#   From: 2010.05.17/outbox.cif.g08.bks.cpg/sg15_28_cif.got.tgz:54539.got - 2010.06.03 18:47:42.
