data_PCOD9286042
_publ_section_title
;
Structure prediction by ZEFSAII (Michael W. Deem and Ramdas Pophale) SiO2 
 PCOD9286042
Probable space group: C 2/C
;
_chemical_formula_sum "Si O2"
_cell_formula_units_Z 64
_cell_length_a 22.158656
_cell_length_b 27.456695
_cell_length_c 15.093991
_cell_angle_alpha 90.000000
_cell_angle_beta 160.119946
_cell_angle_gamma 90.000000
_cell_volume 3122.779659
_symmetry_space_group_name_H-M "C 2/C"
_symmetry_group_IT_number 15
_symmetry_cell_setting 'monoclinic'
loop_
_space_group_symop_operation_xyz
x,y,z
-x,y,1/2-z
-x,-y,-z
x,-y,1/2+z
1/2+x,1/2+y,z
1/2-x,1/2+y,1/2-z
1/2-x,1/2-y,-z
1/2+x,1/2-y,1/2+z
loop_
_atom_site_type_symbol
_atom_site_label
_atom_site_fract_x
_atom_site_fract_y
_atom_site_fract_z
Si Si1 0.629322 0.604707 0.723227
Si Si2 0.614226 0.295555 0.818940
Si Si3 0.457688 0.800796 0.899943
Si Si4 0.311989 0.094082 0.158026
Si Si5 0.391715 0.971057 0.508691
Si Si6 0.240138 0.421739 0.713841
Si Si7 0.796674 0.209424 0.743988
Si Si8 0.545102 0.841363 0.215373
O O1 0.420434 0.597959 0.418831
O O2 0.704198 0.658798 0.809816
O O3 0.680752 0.589846 0.894304
O O4 0.737766 0.568270 0.810803
O O5 0.500000 0.294546 0.750000
O O6 0.478307 0.293984 0.550926
O O7 0.750000 0.250000 0.000000
O O8 0.742403 0.342562 0.994592
O O9 0.633443 0.786199 0.087474
O O10 0.492796 0.813206 0.052642
O O11 0.390676 0.851211 0.765766
O O12 0.318232 0.756497 0.711272
O O13 0.467523 0.054007 0.362705
O O14 0.230880 0.087179 0.142109
O O15 0.500000 0.976845 0.750000
O O16 0.305744 0.022174 0.364949
O O17 0.070030 0.390243 0.448786
O O18 0.500000 0.819070 0.250000
#
# Coordination Sequence:
#
# PCOD9286042 Si02
#       8
#     8   8   8   8   8   8   8   8
#     4  11  24  42  68  95 132 170 219 266 325 384
#     4  12  22  37  60  88 130 174 211 261 325 382
#     4  11  25  40  62  92 128 169 219 262 319 385
#     4  10  23  45  65  94 131 174 211 268 324 388
#     4  10  21  42  70  94 127 171 210 269 336 389
#     4  11  23  41  68  98 128 166 221 268 325 392
#     4  12  24  40  63  94 128 174 217 264 319 386
#     4  11  23  39  60  93 133 168 213 267 326 393
#
# _framework density 20.494561999999998
#
# number of rings (size 3 to 8) (size 9 to 14) (size 15 to 20)
#    0.000    1.000    3.750    2.625    5.250    0.500 
#    0.000    0.000    0.000    1.500    0.000    0.000 
#    0.000    0.000    0.000    0.000    0.000    0.000 
#
# Total GULP energy -178708.043486 kJ/mol
# GULP energy per Si atom -5584.626359 kJ/mol
# Density = 2.044792 g / cm^3
# Si number density = 20.494562 Si / 1000 Ang^3
#
#
#
# Elastic Constant Matrix: (Units=GPa)
#
#
# Indices 1 2 3 4 5 6 
#
# 1 74.1611 12.1059 28.6513 0.0000 24.7619 0.0000
# 2 12.1059 91.6004 11.5887 0.0000 19.5204 0.0000
# 3 28.6513 11.5887 44.4653 0.0000 21.2050 0.0000
# 4 0.0000 0.0000 0.0000 21.3225 0.0000 8.1019
# 5 24.7619 19.5204 21.2050 0.0000 33.5777 0.0000
# 6 0.0000 0.0000 0.0000 8.1019 0.0000 22.5314
#
#
#
# Elastic Compliance Matrix: (Units=1/GPa)
#
#
# Indices 1 2 3 4 5 6 
#
# 1 0.019841 0.000490 -0.008298 0.000000 -0.009676 0.000000
# 2 0.000490 0.012476 0.000092 0.000000 -0.007672 0.000000
# 3 -0.008298 0.000092 0.035659 0.000000 -0.016453 0.000000
# 4 0.000000 0.000000 0.000000 0.054321 0.000000 -0.019533
# 5 -0.009676 -0.007672 -0.016453 0.000000 0.051768 0.000000
# 6 0.000000 0.000000 0.000000 -0.019533 0.000000 0.051406
#
#
# Mechanical properties :
#
#
# Convention : Reuss Voigt Hill
#
# Bulk Modulus (GPa) = 19.03237 34.99095 27.01166
# Shear Modulus (GPa) = 19.34864 26.01171 22.68017
#
# Velocity S-wave (km/s) = 3.07593 3.56645 3.33023
# Velocity P-wave (km/s) = 4.68208 5.83693 5.29111
#
# Compressibility (1/GPa) = 0.05254206
#
# Stress axis : x y z
#
# Youngs Moduli (GPa) = 50.40144 80.15689 28.04372
#
# Poissons Ratio (x) = -0.03925 0.23270
# Poissons Ratio (y) = -0.02468 -0.00257
# Poissons Ratio (z) = 0.41821 -0.00734
#
# Static dielectric constant tensor:
#      x y z
#    x 1.726690 0.000000 -0.005460 
#    y 0.000000 1.750500 0.000000 
#    z -0.005460 0.000000 1.736130 
# 
# From -- ./inp_files/170097.got.cif
#   From: 2010.05.17/outbox.cif.g08.bks.cpg/sg15_86_cif.got.tgz:170097.got - 2010.06.03 18:47:42.
