data_PCOD9286363
_publ_section_title
;
Structure prediction by ZEFSAII (Michael W. Deem and Ramdas Pophale) SiO2 
 PCOD9286363
Probable space group: C 2/C
;
_chemical_formula_sum "Si O2"
_cell_formula_units_Z 56
_cell_length_a 5.241064
_cell_length_b 17.876240
_cell_length_c 30.995812
_cell_angle_alpha 90.000000
_cell_angle_beta 68.647367
_cell_angle_gamma 90.000000
_cell_volume 2704.673890
_symmetry_space_group_name_H-M "C 2/C"
_symmetry_group_IT_number 15
_symmetry_cell_setting 'monoclinic'
loop_
_space_group_symop_operation_xyz
x,y,z
-x,y,1/2-z
-x,-y,-z
x,-y,1/2+z
1/2+x,1/2+y,z
1/2-x,1/2+y,1/2-z
1/2-x,1/2-y,-z
1/2+x,1/2-y,1/2+z
loop_
_atom_site_type_symbol
_atom_site_label
_atom_site_fract_x
_atom_site_fract_y
_atom_site_fract_z
Si Si1 0.315740 0.170510 0.474277
Si Si2 0.151443 0.993360 0.658111
Si Si3 0.751711 0.195175 0.116440
Si Si4 0.803168 0.927522 0.935718
Si Si5 0.161322 0.366523 0.392892
Si Si6 0.941236 0.416664 0.803361
Si Si7 0.959528 0.084382 0.551739
O O1 0.250000 0.250000 0.500000
O O2 0.400518 0.190515 0.420237
O O3 0.548999 0.111954 0.474900
O O4 0.043544 0.122926 0.501595
O O5 0.288324 0.962759 0.605094
O O6 0.313788 0.960984 0.688547
O O7 0.838691 0.965378 0.676349
O O8 0.190302 0.082039 0.651861
O O9 0.846021 0.279404 0.118130
O O10 0.598416 0.158362 0.166023
O O11 0.998030 0.139011 0.090530
O O12 0.955823 0.997491 0.948935
O O13 0.347655 0.376122 0.424126
O O14 0.855229 0.397831 0.418950
O O15 0.000000 0.401550 0.750000
#
# Coordination Sequence:
#
# PCOD9286363 Si02
#       7
#     8   8   8   8   8   8   8
#     4  12  23  39  60  94 136 178 221 271 324 383
#     4  10  21  43  67  93 126 164 210 264 324 387
#     4  11  24  40  66  91 137 168 217 270 335 388
#     4  10  23  40  61  91 127 177 223 267 315 383
#     4  11  23  42  64  95 130 175 210 263 327 383
#     4  11  23  44  71  98 122 162 214 271 329 397
#     4  11  25  39  63  91 132 178 228 260 306 384
#
# _framework density 20.704899000000001
#
# number of rings (size 3 to 8) (size 9 to 14) (size 15 to 20)
#    0.000    1.143    2.857    4.286    4.000    1.714 
#    0.000    1.429    0.000    0.000    0.000    0.000 
#    0.000    0.000    0.000    0.000    0.000    0.000 
#
# Total GULP energy -156351.822809 kJ/mol
# GULP energy per Si atom -5583.993672 kJ/mol
# Density = 2.065777 g / cm^3
# Si number density = 20.704899 Si / 1000 Ang^3
#
#
#
# Elastic Constant Matrix: (Units=GPa)
#
#
# Indices 1 2 3 4 5 6 
#
# 1 84.8346 23.0492 9.2634 0.0000 6.8395 0.0000
# 2 23.0492 183.0492 41.4799 0.0000 1.3677 0.0000
# 3 9.2634 41.4799 101.5362 0.0000 13.5119 0.0000
# 4 0.0000 0.0000 0.0000 21.2353 0.0000 3.2632
# 5 6.8395 1.3677 13.5119 0.0000 30.6813 0.0000
# 6 0.0000 0.0000 0.0000 3.2632 0.0000 21.9616
#
#
#
# Elastic Compliance Matrix: (Units=1/GPa)
#
#
# Indices 1 2 3 4 5 6 
#
# 1 0.012427 -0.001507 -0.000168 0.000000 -0.002629 0.000000
# 2 -0.001507 0.006225 -0.002564 0.000000 0.001187 0.000000
# 3 -0.000168 -0.002564 0.011569 0.000000 -0.004943 0.000000
# 4 0.000000 0.000000 0.000000 0.048192 0.000000 -0.007161
# 5 -0.002629 0.001187 -0.004943 0.000000 0.035303 0.000000
# 6 0.000000 0.000000 0.000000 -0.007161 0.000000 0.046598
#
#
# Mechanical properties :
#
#
# Convention : Reuss Voigt Hill
#
# Bulk Modulus (GPa) = 45.99029 57.44502 51.71766
# Shear Modulus (GPa) = 28.40264 34.48413 31.44339
#
# Velocity S-wave (km/s) = 3.70778 4.08549 3.90121
# Velocity P-wave (km/s) = 6.37108 7.07530 6.73240
#
# Compressibility (1/GPa) = 0.02174372
#
# Stress axis : x y z
#
# Youngs Moduli (GPa) = 80.46709 160.64745 86.43694
#
# Poissons Ratio (x) = 0.24211 0.01454
# Poissons Ratio (y) = 0.12127 0.22158
# Poissons Ratio (z) = 0.01354 0.41182
#
# Static dielectric constant tensor:
#      x y z
#    x 1.814860 0.000000 0.055720 
#    y 0.000000 1.742120 0.000000 
#    z 0.055720 0.000000 1.790280 
# 
# From -- ./inp_files/305621.got.cif
#   From: 2010.05.17/outbox.cif.g08.bks.cpg/sg15_153_cif.got.tgz:305621.got - 2010.06.03 18:47:42.
