data_PCOD9286290
_publ_section_title
;
Structure prediction by ZEFSAII (Michael W. Deem and Ramdas Pophale) SiO2 
 PCOD9286290
Probable space group: C 2/C
;
_chemical_formula_sum "Si O2"
_cell_formula_units_Z 56
_cell_length_a 16.067032
_cell_length_b 25.032407
_cell_length_c 8.366942
_cell_angle_alpha 90.000000
_cell_angle_beta 52.440835
_cell_angle_gamma 90.000000
_cell_volume 2667.639855
_symmetry_space_group_name_H-M "C 2/C"
_symmetry_group_IT_number 15
_symmetry_cell_setting 'monoclinic'
loop_
_space_group_symop_operation_xyz
x,y,z
-x,y,1/2-z
-x,-y,-z
x,-y,1/2+z
1/2+x,1/2+y,z
1/2-x,1/2+y,1/2-z
1/2-x,1/2-y,-z
1/2+x,1/2-y,1/2+z
loop_
_atom_site_type_symbol
_atom_site_label
_atom_site_fract_x
_atom_site_fract_y
_atom_site_fract_z
Si Si1 0.174591 0.431229 0.894396
Si Si2 0.472705 0.293950 0.467011
Si Si3 0.570797 0.807836 0.303113
Si Si4 0.731448 0.320535 0.619885
Si Si5 0.909247 0.116740 0.471076
Si Si6 0.541849 0.910983 0.523944
Si Si7 0.234119 0.468483 0.181262
O O1 0.213117 0.370467 0.857734
O O2 0.055124 0.430271 0.972303
O O3 0.244520 0.468503 0.696270
O O4 0.196508 0.452953 0.047440
O O5 0.500000 0.287322 0.250000
O O6 0.495068 0.240262 0.542239
O O7 0.348297 0.297968 0.654110
O O8 0.534952 0.345323 0.463382
O O9 0.500000 0.833698 0.250000
O O10 0.589457 0.854743 0.406705
O O11 0.675462 0.790753 0.085567
O O12 0.658095 0.344196 0.564623
O O13 0.833109 0.068527 0.610244
O O14 0.000000 0.093955 0.250000
O O15 0.500000 0.904412 0.750000
O O16 0.636063 0.952560 0.406639
#
# Coordination Sequence:
#
# PCOD9286290 Si02
#       7
#     8   8   8   8   8   8   8
#     4  11  22  40  62  94 125 170 211 257 317 380
#     4  11  25  41  63  97 128 161 214 267 316 366
#     4  12  21  43  67  91 126 171 208 255 321 389
#     4  10  21  43  66  87 127 169 217 253 316 382
#     4   9  20  43  65  87 125 171 214 258 307 381
#     4  12  23  38  60  95 131 160 206 267 312 381
#     4  11  22  40  64  89 128 167 214 256 320 375
#
# _framework density 20.992339999999999
#
# number of rings (size 3 to 8) (size 9 to 14) (size 15 to 20)
#    0.000    1.143    4.286    3.857    0.000    2.286 
#    0.000    8.571    0.000    0.000    0.000    0.000 
#    0.000    0.000    0.000    0.000    0.000    0.000 
#
# Total GULP energy -156241.741790 kJ/mol
# GULP energy per Si atom -5580.062207 kJ/mol
# Density = 2.094456 g / cm^3
# Si number density = 20.992340 Si / 1000 Ang^3
#
#
#
# Elastic Constant Matrix: (Units=GPa)
#
#
# Indices 1 2 3 4 5 6 
#
# 1 60.6714 19.5744 44.7697 0.0000 -11.4246 0.0000
# 2 19.5744 75.0893 36.9985 0.0000 5.8017 0.0000
# 3 44.7697 36.9985 134.7203 0.0000 0.1795 0.0000
# 4 0.0000 0.0000 0.0000 44.0399 0.0000 -4.7100
# 5 -11.4246 5.8017 0.1795 0.0000 21.7829 0.0000
# 6 0.0000 0.0000 0.0000 -4.7100 0.0000 26.7509
#
#
#
# Elastic Compliance Matrix: (Units=1/GPa)
#
#
# Indices 1 2 3 4 5 6 
#
# 1 0.026273 -0.004273 -0.007577 0.000000 0.014980 0.000000
# 2 -0.004273 0.016465 -0.003093 0.000000 -0.006601 0.000000
# 3 -0.007577 -0.003093 0.010795 0.000000 -0.003239 0.000000
# 4 0.000000 0.000000 0.000000 0.023142 0.000000 0.004075
# 5 0.014980 -0.006601 -0.003239 0.000000 0.055549 0.000000
# 6 0.000000 0.000000 0.000000 0.004075 0.000000 0.038099
#
#
# Mechanical properties :
#
#
# Convention : Reuss Voigt Hill
#
# Bulk Modulus (GPa) = 42.28993 52.57404 47.43198
# Shear Modulus (GPa) = 24.02775 29.79065 26.90920
#
# Velocity S-wave (km/s) = 3.38686 3.77121 3.58419
# Velocity P-wave (km/s) = 5.95681 6.63788 6.30654
#
# Compressibility (1/GPa) = 0.02364629
#
# Stress axis : x y z
#
# Youngs Moduli (GPa) = 38.06194 60.73334 92.63788
#
# Poissons Ratio (x) = 0.25949 0.70196
# Poissons Ratio (y) = 0.16263 0.28655
# Poissons Ratio (z) = 0.28841 0.18786
#
# Static dielectric constant tensor:
#      x y z
#    x 1.758170 0.000000 -0.031970 
#    y 0.000000 1.785540 0.000000 
#    z -0.031970 0.000000 1.763930 
# 
# From -- ./inp_files/51993.got.cif
#   From: 2010.05.17/outbox.cif.g08.bks.cpg/sg15_26_cif.got.tgz:51993.got - 2010.06.03 18:47:42.
