data_PCOD9286032
_publ_section_title
;
Structure prediction by ZEFSAII (Michael W. Deem and Ramdas Pophale) SiO2 
 PCOD9286032
Probable space group: C 2/C
;
_chemical_formula_sum "Si O2"
_cell_formula_units_Z 60
_cell_length_a 8.911500
_cell_length_b 22.124837
_cell_length_c 21.964545
_cell_angle_alpha 90.000000
_cell_angle_beta 142.586736
_cell_angle_gamma 90.000000
_cell_volume 2631.128649
_symmetry_space_group_name_H-M "C 2/C"
_symmetry_group_IT_number 15
_symmetry_cell_setting 'monoclinic'
loop_
_space_group_symop_operation_xyz
x,y,z
-x,y,1/2-z
-x,-y,-z
x,-y,1/2+z
1/2+x,1/2+y,z
1/2-x,1/2+y,1/2-z
1/2-x,1/2-y,-z
1/2+x,1/2-y,1/2+z
loop_
_atom_site_type_symbol
_atom_site_label
_atom_site_fract_x
_atom_site_fract_y
_atom_site_fract_z
Si Si1 0.462875 0.571161 0.084339
Si Si2 0.630558 0.122396 0.354773
Si Si3 0.000000 0.417043 0.250000
Si Si4 0.358859 0.661724 0.267203
Si Si5 0.762544 0.966212 0.086951
Si Si6 0.964798 0.140204 0.568785
Si Si7 0.928696 0.415894 0.354080
Si Si8 0.657473 0.708837 0.739687
O O1 0.698568 0.568108 0.115351
O O2 0.484890 0.633531 0.127821
O O3 0.451188 0.518936 0.130457
O O4 0.206423 0.573838 0.966285
O O5 0.500000 0.146524 0.250000
O O6 0.385702 0.119323 0.316352
O O7 0.826494 0.156725 0.461486
O O8 0.750708 0.380007 0.151124
O O9 0.918309 0.449131 0.285641
O O10 0.500000 0.660683 0.250000
O O11 0.287016 0.729653 0.261559
O O12 0.750276 0.937233 0.149643
O O13 0.816585 0.915183 0.053366
O O14 0.500000 0.000000 0.000000
O O15 0.982913 0.190397 0.626775
O O16 0.845672 0.347116 0.311906
O O17 0.500000 0.715922 0.750000
#
# Coordination Sequence:
#
# PCOD9286032 Si02
#       8
#     8   8   4   8   8   8   8   8
#     4  10  22  47  68  98 152 195 244 313 373 467
#     4  10  23  47  69 100 149 197 251 304 388 456
#     4  10  22  40  68 108 144 182 248 302 376 448
#     4  11  27  44  70 106 146 196 264 311 386 454
#     4  10  23  43  73 106 151 196 253 311 381 459
#     4  11  23  44  72 107 150 191 255 317 378 460
#     4  10  21  42  70 108 142 191 249 309 384 444
#     4  11  23  43  72 106 148 190 255 318 381 457
#
# _framework density 22.803902999999998
#
# number of rings (size 3 to 8) (size 9 to 14) (size 15 to 20)
#    0.000    1.600    2.667    1.200    7.467    1.600 
#    8.400    2.667    0.000    0.000    0.000    0.000 
#    0.000    0.000    0.000    0.000    0.000    0.000 
#
# Total GULP energy -167273.945437 kJ/mol
# GULP energy per Si atom -5575.798181 kJ/mol
# Density = 2.275200 g / cm^3
# Si number density = 22.803903 Si / 1000 Ang^3
#
#
#
# Elastic Constant Matrix: (Units=GPa)
#
#
# Indices 1 2 3 4 5 6 
#
# 1 191.5808 50.7612 54.7485 -0.0001 4.8647 0.0006
# 2 50.7612 84.8402 27.6476 -0.0001 4.7392 0.0001
# 3 54.7485 27.6476 169.1857 -0.0007 -6.0522 -0.0003
# 4 -0.0001 -0.0001 -0.0007 4.2023 -0.0001 10.4017
# 5 4.8647 4.7392 -6.0522 -0.0001 37.1215 0.0003
# 6 0.0006 0.0001 -0.0003 10.4017 0.0003 41.0490
#
#
#
# Elastic Compliance Matrix: (Units=1/GPa)
#
#
# Indices 1 2 3 4 5 6 
#
# 1 0.006592 -0.003382 -0.001605 0.000000 -0.000694 0.000000
# 2 -0.003382 0.014325 -0.001304 0.000000 -0.001598 0.000000
# 3 -0.001605 -0.001304 0.006696 0.000002 0.001468 -0.000001
# 4 0.000000 0.000000 0.000002 0.638360 0.000004 -0.161759
# 5 -0.000694 -0.001598 0.001468 0.000004 0.027473 -0.000001
# 6 0.000000 0.000000 -0.000001 -0.161759 -0.000001 0.065351
#
#
# Mechanical properties :
#
#
# Convention : Reuss Voigt Hill
#
# Bulk Modulus (GPa) = 66.53279 79.10238 72.81759
# Shear Modulus (GPa) = 6.44007 37.30452 21.87230
#
# Velocity S-wave (km/s) = 1.68233 4.04899 3.10037
# Velocity P-wave (km/s) = 5.74570 7.52479 6.69461
#
# Compressibility (1/GPa) = 0.01503018
#
# Stress axis : x y z
#
# Youngs Moduli (GPa) = 151.69197 69.80980 149.34950
#
# Poissons Ratio (x) = 0.23612 0.23976
# Poissons Ratio (y) = 0.51308 0.19468
# Poissons Ratio (z) = 0.24352 0.09100
#
# Static dielectric constant tensor:
#      x y z
#    x 1.904010 0.000000 -0.007740 
#    y 0.000000 1.854630 0.000000 
#    z -0.007740 0.000000 1.870770 
# 
# From -- ./inp_files/234573.got.cif
#   From: 2010.05.17/outbox.cif.g08.bks.cpg/sg15_118_cif.got.tgz:234573.got - 2010.06.03 18:47:42.
