data_PCOD9286375
_publ_section_title
;
Structure prediction by ZEFSAII (Michael W. Deem and Ramdas Pophale) SiO2 
 PCOD9286375
Probable space group: C 2/C
;
_chemical_formula_sum "Si O2"
_cell_formula_units_Z 44
_cell_length_a 23.193170
_cell_length_b 10.482318
_cell_length_c 11.648575
_cell_angle_alpha 90.000000
_cell_angle_beta 139.672280
_cell_angle_gamma 90.000000
_cell_volume 1832.740712
_symmetry_space_group_name_H-M "C 2/C"
_symmetry_group_IT_number 15
_symmetry_cell_setting 'monoclinic'
loop_
_space_group_symop_operation_xyz
x,y,z
-x,y,1/2-z
-x,-y,-z
x,-y,1/2+z
1/2+x,1/2+y,z
1/2-x,1/2+y,1/2-z
1/2-x,1/2-y,-z
1/2+x,1/2-y,1/2+z
loop_
_atom_site_type_symbol
_atom_site_label
_atom_site_fract_x
_atom_site_fract_y
_atom_site_fract_z
Si Si1 0.329735 0.022735 0.008049
Si Si2 0.815647 0.935968 0.560158
Si Si3 0.500000 0.860378 0.250000
Si Si4 0.388737 0.286931 0.198280
Si Si5 0.659423 0.617470 0.642785
Si Si6 0.975456 0.169617 0.423980
O O1 0.362648 0.164741 0.087899
O O2 0.413623 0.944923 0.095595
O O3 0.245695 0.030660 0.795094
O O4 0.284338 0.958138 0.051209
O O5 0.829361 0.846166 0.471754
O O6 0.877078 0.880636 0.754633
O O7 0.858342 0.076755 0.600976
O O8 0.485998 0.779750 0.344597
O O9 0.337607 0.284285 0.245694
O O10 0.490862 0.289689 0.398914
O O11 0.555874 0.574204 0.502472
#
# Coordination Sequence:
#
# PCOD9286375 Si02
#       6
#     8   8   4   8   8   8
#     4  11  26  42  66  99 138 182 216 272 339 397
#     4  11  19  42  74 100 123 176 226 275 334 390
#     4  12  26  46  58  98 146 176 222 270 334 398
#     4   9  22  42  67 100 134 169 215 281 330 388
#     4   9  20  39  69  98 130 168 220 277 323 385
#     4  10  21  43  67  94 135 168 217 288 316 381
#
# _framework density 24.007760999999999
#
# number of rings (size 3 to 8) (size 9 to 14) (size 15 to 20)
#    1.091    0.727    1.818    2.727    2.545    1.455 
#    3.273    0.000    0.000    0.000    0.000    0.000 
#    0.000    0.000    0.000    0.000    0.000    0.000 
#
# Total GULP energy -122642.101868 kJ/mol
# GULP energy per Si atom -5574.640994 kJ/mol
# Density = 2.395312 g / cm^3
# Si number density = 24.007761 Si / 1000 Ang^3
#
#
#
# Elastic Constant Matrix: (Units=GPa)
#
#
# Indices 1 2 3 4 5 6 
#
# 1 32.2037 18.3209 18.9207 0.0000 17.0404 0.0000
# 2 18.3209 84.0068 35.5442 0.0000 19.2707 0.0000
# 3 18.9207 35.5442 103.3236 0.0000 21.4052 0.0000
# 4 0.0000 0.0000 0.0000 21.5693 0.0000 14.3355
# 5 17.0404 19.2707 21.4052 0.0000 36.1058 0.0000
# 6 0.0000 0.0000 0.0000 14.3355 0.0000 23.0339
#
#
#
# Elastic Compliance Matrix: (Units=1/GPa)
#
#
# Indices 1 2 3 4 5 6 
#
# 1 0.044247 -0.004523 -0.003102 0.000000 -0.016630 0.000000
# 2 -0.004523 0.015321 -0.003637 0.000000 -0.003886 0.000000
# 3 -0.003102 -0.003637 0.012303 0.000000 -0.003889 0.000000
# 4 0.000000 0.000000 0.000000 0.079068 0.000000 -0.049209
# 5 -0.016630 -0.003886 -0.003889 0.000000 0.039925 0.000000
# 6 0.000000 0.000000 0.000000 -0.049209 0.000000 0.074040
#
#
# Mechanical properties :
#
#
# Convention : Reuss Voigt Hill
#
# Bulk Modulus (GPa) = 20.26403 40.56729 30.41566
# Shear Modulus (GPa) = 16.45404 25.92501 21.18952
#
# Velocity S-wave (km/s) = 2.62078 3.28969 2.97410
# Velocity P-wave (km/s) = 4.19726 5.60033 4.94877
#
# Compressibility (1/GPa) = 0.04934853
#
# Stress axis : x y z
#
# Youngs Moduli (GPa) = 22.60020 65.27191 81.28018
#
# Poissons Ratio (x) = 0.29520 0.25210
# Poissons Ratio (y) = 0.10221 0.29562
# Poissons Ratio (z) = 0.07010 0.23740
#
# Static dielectric constant tensor:
#      x y z
#    x 1.936450 0.000000 -0.000520 
#    y 0.000000 1.979150 0.000000 
#    z -0.000520 0.000000 1.942660 
# 
# From -- ./inp_files/177015.got.cif
#   From: 2010.05.17/outbox.cif.g08.bks.cpg/sg15_89_cif.got.tgz:177015.got - 2010.06.03 18:47:42.
