data_PCOD9286079
_publ_section_title
;
Structure prediction by ZEFSAII (Michael W. Deem and Ramdas Pophale) SiO2 
 PCOD9286079
Probable space group: C 2/C
;
_chemical_formula_sum "Si O2"
_cell_formula_units_Z 56
_cell_length_a 8.649017
_cell_length_b 22.904484
_cell_length_c 13.863139
_cell_angle_alpha 90.000000
_cell_angle_beta 108.244113
_cell_angle_gamma 90.000000
_cell_volume 2608.252252
_symmetry_space_group_name_H-M "C 2/C"
_symmetry_group_IT_number 15
_symmetry_cell_setting 'monoclinic'
loop_
_space_group_symop_operation_xyz
x,y,z
-x,y,1/2-z
-x,-y,-z
x,-y,1/2+z
1/2+x,1/2+y,z
1/2-x,1/2+y,1/2-z
1/2-x,1/2-y,-z
1/2+x,1/2-y,1/2+z
loop_
_atom_site_type_symbol
_atom_site_label
_atom_site_fract_x
_atom_site_fract_y
_atom_site_fract_z
Si Si1 0.218860 0.817859 0.084511
Si Si2 0.180118 0.601142 0.741479
Si Si3 0.143912 0.380030 0.578983
Si Si4 0.360583 0.708616 0.457153
Si Si5 0.775806 0.601694 0.965113
Si Si6 0.177419 0.210439 0.271208
Si Si7 0.323615 0.502933 0.168624
O O1 0.196851 0.869055 0.159537
O O2 0.317071 0.767937 0.161078
O O3 0.306293 0.847826 0.010833
O O4 0.052450 0.788095 0.016217
O O5 0.207482 0.628669 0.640457
O O6 0.213744 0.533058 0.725043
O O7 0.000000 0.609262 0.750000
O O8 0.179020 0.331914 0.667148
O O9 0.256399 0.435032 0.624652
O O10 0.960888 0.403070 0.536389
O O11 0.250000 0.750000 0.500000
O O12 0.316141 0.642763 0.478998
O O13 0.315155 0.722896 0.339477
O O14 0.688844 0.540439 0.926035
O O15 0.000000 0.181164 0.250000
O O16 0.500000 0.506358 0.250000
#
# Coordination Sequence:
#
# PCOD9286079 Si02
#       7
#     8   8   8   8   8   8   8
#     4  12  24  43  75  97 135 185 236 278 350 422
#     4  10  21  42  71 105 133 183 233 279 336 420
#     4  12  24  46  70 102 139 184 233 287 345 415
#     4  12  27  45  67 103 138 175 229 295 355 407
#     4  10  24  43  69 104 140 179 229 285 348 409
#     4  12  27  44  70 103 137 183 235 290 344 421
#     4  10  23  44  69 100 144 177 231 288 340 410
#
# _framework density 21.470317000000001
#
# number of rings (size 3 to 8) (size 9 to 14) (size 15 to 20)
#    0.857    0.000    2.857    4.286    2.000    3.429 
#    5.143    1.429    0.000    0.000    0.000    0.000 
#    0.000    0.000    0.000    0.000    0.000    0.000 
#
# Total GULP energy -156404.148382 kJ/mol
# GULP energy per Si atom -5585.862442 kJ/mol
# Density = 2.142145 g / cm^3
# Si number density = 21.470317 Si / 1000 Ang^3
#
#
#
# Elastic Constant Matrix: (Units=GPa)
#
#
# Indices 1 2 3 4 5 6 
#
# 1 50.3377 15.7548 42.0590 0.0000 18.4873 0.0000
# 2 15.7548 111.6830 52.8814 0.0000 10.4496 0.0000
# 3 42.0590 52.8814 148.1645 0.0000 15.7801 0.0000
# 4 0.0000 0.0000 0.0000 5.0545 0.0000 12.9567
# 5 18.4873 10.4496 15.7801 0.0000 35.8275 0.0000
# 6 0.0000 0.0000 0.0000 12.9567 0.0000 26.5143
#
#
#
# Elastic Compliance Matrix: (Units=1/GPa)
#
#
# Indices 1 2 3 4 5 6 
#
# 1 0.030641 0.000410 -0.007499 0.000000 -0.012628 0.000000
# 2 0.000410 0.010860 -0.003811 0.000000 -0.001700 0.000000
# 3 -0.007499 -0.003811 0.010186 0.000000 0.000495 0.000000
# 4 0.000000 0.000000 0.000000 -0.783050 0.000000 0.382653
# 5 -0.012628 -0.001700 0.000495 0.000000 0.034705 0.000000
# 6 0.000000 0.000000 0.000000 0.382653 0.000000 -0.149275
#
#
# Mechanical properties :
#
#
# Convention : Reuss Voigt Hill
#
# Bulk Modulus (GPa) = 33.46132 59.06394 46.26263
# Shear Modulus (GPa) = -6.14122 26.77861 10.31869
#
# Velocity S-wave (km/s) = -1.69309 3.53546 2.19464
# Velocity P-wave (km/s) = 3.43463 6.65096 5.29301
#
# Compressibility (1/GPa) = 0.02988525
#
# Stress axis : x y z
#
# Youngs Moduli (GPa) = 32.63564 92.08290 98.17738
#
# Poissons Ratio (x) = -0.03775 0.73628
# Poissons Ratio (y) = -0.01338 0.37418
# Poissons Ratio (z) = 0.24475 0.35095
#
# Static dielectric constant tensor:
#      x y z
#    x 1.790970 0.000000 0.005390 
#    y 0.000000 1.825730 0.000000 
#    z 0.005390 0.000000 1.779280 
# 
# From -- ./inp_files/137461.got.cif
#   From: 2010.05.17/outbox.cif.g08.bks.cpg/sg15_69_cif.got.tgz:137461.got - 2010.06.03 18:47:42.
