data_PCOD9286831
_publ_section_title
;
Structure prediction by ZEFSAII (Michael W. Deem and Ramdas Pophale) SiO2 
 PCOD9286831
Probable space group: C 2/C
;
_chemical_formula_sum "Si O2"
_cell_formula_units_Z 32
_cell_length_a 15.851201
_cell_length_b 7.208111
_cell_length_c 10.004555
_cell_angle_alpha 90.000000
_cell_angle_beta 98.077055
_cell_angle_gamma 90.000000
_cell_volume 1131.753131
_symmetry_space_group_name_H-M "C 2/C"
_symmetry_group_IT_number 15
_symmetry_cell_setting 'monoclinic'
loop_
_space_group_symop_operation_xyz
x,y,z
-x,y,1/2-z
-x,-y,-z
x,-y,1/2+z
1/2+x,1/2+y,z
1/2-x,1/2+y,1/2-z
1/2-x,1/2-y,-z
1/2+x,1/2-y,1/2+z
loop_
_atom_site_type_symbol
_atom_site_label
_atom_site_fract_x
_atom_site_fract_y
_atom_site_fract_z
Si Si1 0.583620 0.993958 0.695183
Si Si2 0.250275 0.908755 0.112695
Si Si3 0.557298 0.435631 0.134376
Si Si4 0.700523 0.750333 0.096398
O O1 0.500000 0.060260 0.750000
O O2 0.612589 0.137306 0.587864
O O3 0.570006 0.785817 0.640421
O O4 0.656341 0.009476 0.822693
O O5 0.153781 0.022363 0.136438
O O6 0.249580 0.780532 0.253229
O O7 0.241850 0.102136 0.993673
O O8 0.250000 0.750000 0.000000
O O9 0.500000 0.484562 0.250000
O O10 0.500000 0.500000 0.000000
#
# Coordination Sequence:
#
# PCOD9286831 Si02
#       4
#     8   8   8   8
#     4   9  20  44  73 105 148 191 250 310 389 456
#     4  10  21  44  70 103 144 194 243 317 381 451
#     4  11  25  46  73 110 154 200 253 321 389 466
#     4  10  22  42  75 104 147 191 253 311 385 450
#
# _framework density 28.274716000000002
#
# number of rings (size 3 to 8) (size 9 to 14) (size 15 to 20)
#    1.500    0.500    2.500    0.000    3.500    1.000 
#    4.500    6.250    0.000    0.000    0.000    0.000 
#    0.000    0.000    0.000    0.000    0.000    0.000 
#
# Total GULP energy -89328.368917 kJ/mol
# GULP energy per Si atom -5583.023057 kJ/mol
# Density = 2.821036 g / cm^3
# Si number density = 28.274716 Si / 1000 Ang^3
#
#
#
# Elastic Constant Matrix: (Units=GPa)
#
#
# Indices 1 2 3 4 5 6 
#
# 1 252.9438 113.2811 129.5226 0.0000 -45.5858 0.0000
# 2 113.2811 305.6000 106.0049 0.0000 -17.8379 0.0000
# 3 129.5226 106.0049 260.6220 0.0000 -14.1184 0.0000
# 4 0.0000 0.0000 0.0000 59.1096 0.0000 -5.2594
# 5 -45.5858 -17.8379 -14.1184 0.0000 79.3550 0.0000
# 6 0.0000 0.0000 0.0000 -5.2594 0.0000 64.8591
#
#
#
# Elastic Compliance Matrix: (Units=1/GPa)
#
#
# Indices 1 2 3 4 5 6 
#
# 1 0.006322 -0.001326 -0.002445 0.000000 0.002898 0.000000
# 2 -0.001326 0.004115 -0.001016 0.000000 -0.000017 0.000000
# 3 -0.002445 -0.001016 0.005429 0.000000 -0.000667 0.000000
# 4 0.000000 0.000000 0.000000 0.017041 0.000000 0.001382
# 5 0.002898 -0.000017 -0.000667 0.000000 0.014144 0.000000
# 6 0.000000 0.000000 0.000000 0.001382 0.000000 0.015530
#
#
# Mechanical properties :
#
#
# Convention : Reuss Voigt Hill
#
# Bulk Modulus (GPa) = 158.93391 168.53145 163.73268
# Shear Modulus (GPa) = 67.33758 72.02188 69.67973
#
# Velocity S-wave (km/s) = 4.88540 5.05247 4.96964
# Velocity P-wave (km/s) = 9.38912 9.68355 9.53747
#
# Compressibility (1/GPa) = 0.00629192
#
# Stress axis : x y z
#
# Youngs Moduli (GPa) = 158.18064 243.00858 184.18536
#
# Poissons Ratio (x) = 0.32222 0.45042
# Poissons Ratio (y) = 0.20974 0.18708
# Poissons Ratio (z) = 0.38683 0.24683
#
# Static dielectric constant tensor:
#      x y z
#    x 2.171620 0.000000 -0.082970 
#    y 0.000000 2.552320 0.000000 
#    z -0.082970 0.000000 2.106800 
# 
# From -- ./inp_files/93503.got.cif
#   From: 2010.05.17/outbox.cif.g08.bks.cpg/sg15_47_cif.got.tgz:93503.got - 2010.06.03 18:47:42.
