data_PCOD9286971
_publ_section_title
;
Structure prediction by ZEFSAII (Michael W. Deem and Ramdas Pophale) SiO2 
 PCOD9286971
Probable space group: C 2/C
;
_chemical_formula_sum "Si O2"
_cell_formula_units_Z 40
_cell_length_a 26.973975
_cell_length_b 5.216337
_cell_length_c 13.513430
_cell_angle_alpha 90.000000
_cell_angle_beta 94.620119
_cell_angle_gamma 90.000000
_cell_volume 1895.233473
_symmetry_space_group_name_H-M "C 2/C"
_symmetry_group_IT_number 15
_symmetry_cell_setting 'monoclinic'
loop_
_space_group_symop_operation_xyz
x,y,z
-x,y,1/2-z
-x,-y,-z
x,-y,1/2+z
1/2+x,1/2+y,z
1/2-x,1/2+y,1/2-z
1/2-x,1/2-y,-z
1/2+x,1/2-y,1/2+z
loop_
_atom_site_type_symbol
_atom_site_label
_atom_site_fract_x
_atom_site_fract_y
_atom_site_fract_z
Si Si1 0.363799 0.531706 0.860097
Si Si2 0.558900 0.314542 0.256656
Si Si3 0.777872 0.224849 0.718247
Si Si4 0.199661 0.110819 0.456855
Si Si5 0.116838 0.690885 0.803289
O O1 0.419099 0.641890 0.851699
O O2 0.330654 0.704684 0.780461
O O3 0.365306 0.255503 0.806355
O O4 0.335759 0.532862 0.958222
O O5 0.500000 0.306741 0.250000
O O6 0.581741 0.560626 0.317014
O O7 0.583606 0.059188 0.303903
O O8 0.747154 0.995018 0.765837
O O9 0.784471 0.132162 0.607226
O O10 0.250000 0.250000 0.500000
O O11 0.164508 0.288826 0.381739
#
# Coordination Sequence:
#
# PCOD9286971 Si02
#       5
#     8   8   8   8   8
#     4   9  23  38  62  93 127 161 213 252 311 370
#     4  10  21  45  69  86 124 170 208 269 322 354
#     4  11  24  41  60  91 128 171 207 249 304 379
#     4  11  22  41  66  96 132 172 202 255 311 381
#     4   9  23  42  63  95 128 159 214 257 310 379
#
# _framework density 21.10558
#
# number of rings (size 3 to 8) (size 9 to 14) (size 15 to 20)
#    1.200    0.800    2.000    0.600    5.600    0.800 
#   10.800    2.000    0.000    0.000    0.000    0.000 
#    0.000    0.000    0.000    0.000    0.000    0.000 
#
# Total GULP energy -111607.214318 kJ/mol
# GULP energy per Si atom -5580.360716 kJ/mol
# Density = 2.105754 g / cm^3
# Si number density = 21.105580 Si / 1000 Ang^3
#
#
#
# Elastic Constant Matrix: (Units=GPa)
#
#
# Indices 1 2 3 4 5 6 
#
# 1 190.2249 78.2261 63.6075 0.0000 -20.2778 0.0000
# 2 78.2261 147.1803 21.3653 0.0000 1.6628 0.0000
# 3 63.6075 21.3653 126.1462 0.0000 -22.0580 0.0000
# 4 0.0000 0.0000 0.0000 14.7175 0.0000 1.9153
# 5 -20.2778 1.6628 -22.0580 0.0000 28.7968 0.0000
# 6 0.0000 0.0000 0.0000 1.9153 0.0000 28.7771
#
#
#
# Elastic Compliance Matrix: (Units=1/GPa)
#
#
# Indices 1 2 3 4 5 6 
#
# 1 0.008269 -0.004032 -0.002803 0.000000 0.003908 0.000000
# 2 -0.004032 0.008989 -0.000088 0.000000 -0.003426 0.000000
# 3 -0.002803 -0.000088 0.010405 0.000000 0.006001 0.000000
# 4 0.000000 0.000000 0.000000 0.068540 0.000000 -0.004562
# 5 0.003908 -0.003426 0.006001 0.000000 0.042273 0.000000
# 6 0.000000 0.000000 0.000000 -0.004562 0.000000 0.035053
#
#
# Mechanical properties :
#
#
# Convention : Reuss Voigt Hill
#
# Bulk Modulus (GPa) = 72.38148 87.77214 80.07681
# Shear Modulus (GPa) = 26.04399 34.48177 30.26288
#
# Velocity S-wave (km/s) = 3.51662 4.04638 3.79077
# Velocity P-wave (km/s) = 7.13150 7.96922 7.56197
#
# Compressibility (1/GPa) = 0.01381569
#
# Stress axis : x y z
#
# Youngs Moduli (GPa) = 120.93245 111.24653 96.10615
#
# Poissons Ratio (x) = 0.44857 0.26941
# Poissons Ratio (y) = 0.48763 0.00849
# Poissons Ratio (z) = 0.33900 0.00983
#
# Static dielectric constant tensor:
#      x y z
#    x 1.791720 0.000000 -0.034070 
#    y 0.000000 1.825500 0.000000 
#    z -0.034070 0.000000 1.805690 
# 
# From -- ./inp_files/175130.got.cif
#   From: 2010.05.17/outbox.cif.g08.bks.cpg/sg15_88_cif.got.tgz:175130.got - 2010.06.03 18:47:42.
