data_PCOD9286547
_publ_section_title
;
Structure prediction by ZEFSAII (Michael W. Deem and Ramdas Pophale) SiO2 
 PCOD9286547
Probable space group: C 2/C
;
_chemical_formula_sum "Si O2"
_cell_formula_units_Z 60
_cell_length_a 8.055974
_cell_length_b 30.867018
_cell_length_c 11.851053
_cell_angle_alpha 90.000000
_cell_angle_beta 107.118835
_cell_angle_gamma 90.000000
_cell_volume 2816.369142
_symmetry_space_group_name_H-M "C 2/C"
_symmetry_group_IT_number 15
_symmetry_cell_setting 'monoclinic'
loop_
_space_group_symop_operation_xyz
x,y,z
-x,y,1/2-z
-x,-y,-z
x,-y,1/2+z
1/2+x,1/2+y,z
1/2-x,1/2+y,1/2-z
1/2-x,1/2-y,-z
1/2+x,1/2-y,1/2+z
loop_
_atom_site_type_symbol
_atom_site_label
_atom_site_fract_x
_atom_site_fract_y
_atom_site_fract_z
Si Si1 0.649289 0.294567 0.469795
Si Si2 0.357206 0.558989 0.490496
Si Si3 0.291876 0.188177 0.234499
Si Si4 0.000000 0.654547 0.750000
Si Si5 0.196886 0.129390 0.833648
Si Si6 0.183750 0.406738 0.730701
Si Si7 0.635607 0.530728 0.386118
Si Si8 0.252866 0.271324 0.378264
O O1 0.750000 0.250000 0.500000
O O2 0.687405 0.316647 0.596968
O O3 0.727824 0.322225 0.384997
O O4 0.447780 0.289097 0.403127
O O5 0.306196 0.598024 0.560608
O O6 0.270113 0.568597 0.353449
O O7 0.552553 0.553260 0.481256
O O8 0.315413 0.516188 0.555220
O O9 0.500000 0.193801 0.250000
O O10 0.256929 0.142162 0.289027
O O11 0.229076 0.231413 0.286001
O O12 0.142145 0.624077 0.717571
O O13 0.118572 0.688978 0.843736
O O14 0.000000 0.125930 0.750000
O O15 0.212734 0.438901 0.632395
O O16 0.000000 0.398724 0.750000
O O17 0.500000 0.525882 0.250000
O O18 0.250000 0.250000 0.500000
#
# Coordination Sequence:
#
# PCOD9286547 Si02
#       8
#     8   8   8   4   8   8   8   8
#     4  12  23  41  69  91 131 185 229 283 345 401
#     4  10  21  43  71  96 128 180 222 277 340 414
#     4  11  23  41  67  96 133 179 228 283 340 407
#     4  12  28  44  62 102 138 176 238 290 338 418
#     4  12  25  47  67  97 137 179 231 285 349 407
#     4  10  22  40  64 102 139 168 216 280 343 410
#     4   9  20  42  70  98 131 168 225 271 339 423
#     4  12  25  42  64  95 135 179 232 287 338 404
#
# _framework density 21.304024999999999
#
# number of rings (size 3 to 8) (size 9 to 14) (size 15 to 20)
#    0.000    1.067    4.000    2.800    0.000    1.600 
#    9.600    0.000    0.000    0.000    0.000    0.000 
#    0.000    0.000    0.000    0.000    0.000    0.000 
#
# Total GULP energy -167225.685763 kJ/mol
# GULP energy per Si atom -5574.189525 kJ/mol
# Density = 2.125554 g / cm^3
# Si number density = 21.304025 Si / 1000 Ang^3
#
#
#
# Elastic Constant Matrix: (Units=GPa)
#
#
# Indices 1 2 3 4 5 6 
#
# 1 83.3594 42.5005 22.5454 0.0000 -7.2824 0.0000
# 2 42.5005 62.4769 14.2018 0.0000 -26.2361 0.0000
# 3 22.5454 14.2018 58.8232 0.0000 -12.9032 0.0000
# 4 0.0000 0.0000 0.0000 2.5829 0.0000 16.3208
# 5 -7.2824 -26.2361 -12.9032 0.0000 28.6971 0.0000
# 6 0.0000 0.0000 0.0000 16.3208 0.0000 -34.4025
#
#
#
# Elastic Compliance Matrix: (Units=1/GPa)
#
#
# Indices 1 2 3 4 5 6 
#
# 1 0.023448 -0.021362 -0.007553 0.000000 -0.016976 0.000000
# 2 -0.021362 0.045517 0.005700 0.000000 0.038755 0.000000
# 3 -0.007553 0.005700 0.021347 0.000000 0.012893 0.000000
# 4 0.000000 0.000000 0.000000 0.096846 0.000000 0.045945
# 5 -0.016976 0.038755 0.012893 0.000000 0.071767 0.000000
# 6 0.000000 0.000000 0.000000 0.045945 0.000000 -0.007271
#
#
# Mechanical properties :
#
#
# Convention : Reuss Voigt Hill
#
# Bulk Modulus (GPa) = 22.78966 40.35053 31.57010
# Shear Modulus (GPa) = 15.98915 7.73630 11.86273
#
# Velocity S-wave (km/s) = 2.74254 1.90769 2.36229
# Velocity P-wave (km/s) = 4.55514 4.88199 4.72139
#
# Compressibility (1/GPa) = 0.04387955
#
# Stress axis : x y z
#
# Youngs Moduli (GPa) = 42.64833 21.96988 46.84498
#
# Poissons Ratio (x) = 0.46933 0.35383
# Poissons Ratio (y) = 0.91107 -0.26700
# Poissons Ratio (z) = 0.32213 -0.12522
#
# Static dielectric constant tensor:
#      x y z
#    x 1.966850 0.000000 -0.105360 
#    y 0.000000 2.006420 0.000000 
#    z -0.105360 0.000000 1.764150 
# 
# From -- ./inp_files/82646.got.cif
#   From: 2010.05.17/outbox.cif.g08.bks.cpg/sg15_42_cif.got.tgz:82646.got - 2010.06.03 18:47:42.
