data_PCOD9286813
_publ_section_title
;
Structure prediction by ZEFSAII (Michael W. Deem and Ramdas Pophale) SiO2 
 PCOD9286813
Probable space group: C 2/C
;
_chemical_formula_sum "Si O2"
_cell_formula_units_Z 28
_cell_length_a 8.354070
_cell_length_b 15.130381
_cell_length_c 8.826615
_cell_angle_alpha 90.000000
_cell_angle_beta 63.753109
_cell_angle_gamma 90.000000
_cell_volume 1000.655538
_symmetry_space_group_name_H-M "C 2/C"
_symmetry_group_IT_number 15
_symmetry_cell_setting 'monoclinic'
loop_
_space_group_symop_operation_xyz
x,y,z
-x,y,1/2-z
-x,-y,-z
x,-y,1/2+z
1/2+x,1/2+y,z
1/2-x,1/2+y,1/2-z
1/2-x,1/2-y,-z
1/2+x,1/2-y,1/2+z
loop_
_atom_site_type_symbol
_atom_site_label
_atom_site_fract_x
_atom_site_fract_y
_atom_site_fract_z
Si Si1 0.500000 0.851681 0.750000
Si Si2 0.701782 0.184404 0.916372
Si Si3 0.196937 0.018656 0.476144
Si Si4 0.383256 0.831950 0.420524
O O1 0.323244 0.772006 0.865348
O O2 0.663989 0.930385 0.687655
O O3 0.612252 0.178372 0.780287
O O4 0.809034 0.093917 0.890356
O O5 0.489157 0.165916 0.051735
O O6 0.284658 0.925364 0.474070
O O7 0.000000 0.000000 0.500000
O O8 0.250000 0.750000 0.500000
#
# Coordination Sequence:
#
# PCOD9286813 Si02
#       4
#     4   8   8   8
#     4   8  22  40  70  90 142 152 236 260 334 384
#     4  10  22  42  67  93 134 169 220 274 327 388
#     4  10  21  44  69  98 130 176 219 273 336 391
#     4  12  26  42  67 100 139 175 224 275 333 398
#
# _framework density 27.981656000000001
#
# number of rings (size 3 to 8) (size 9 to 14) (size 15 to 20)
#    1.714    0.000    1.429    2.571    4.000    0.000 
#    0.000    2.857    0.000    0.000    0.000    0.000 
#    0.000    0.000    0.000    0.000    0.000    0.000 
#
# Total GULP energy -78026.479405 kJ/mol
# GULP energy per Si atom -5573.319957 kJ/mol
# Density = 2.791797 g / cm^3
# Si number density = 27.981656 Si / 1000 Ang^3
#
#
#
# Elastic Constant Matrix: (Units=GPa)
#
#
# Indices 1 2 3 4 5 6 
#
# 1 394.1890 217.8503 91.3759 0.0000 -5.9469 0.0000
# 2 217.8503 374.6765 76.7032 0.0000 -12.0226 0.0000
# 3 91.3759 76.7032 244.2511 0.0000 -7.9917 0.0000
# 4 0.0000 0.0000 0.0000 29.4293 0.0000 13.5835
# 5 -5.9469 -12.0226 -7.9917 0.0000 42.4500 0.0000
# 6 0.0000 0.0000 0.0000 13.5835 0.0000 68.6417
#
#
#
# Elastic Compliance Matrix: (Units=1/GPa)
#
#
# Indices 1 2 3 4 5 6 
#
# 1 0.003878 -0.002098 -0.000799 0.000000 -0.000201 0.000000
# 2 -0.002098 0.004005 -0.000448 0.000000 0.000756 0.000000
# 3 -0.000799 -0.000448 0.004554 0.000000 0.000619 0.000000
# 4 0.000000 0.000000 0.000000 0.037395 0.000000 -0.007400
# 5 -0.000201 0.000756 0.000619 0.000000 0.023859 0.000000
# 6 0.000000 0.000000 0.000000 -0.007400 0.000000 0.016033
#
#
# Mechanical properties :
#
#
# Convention : Reuss Voigt Hill
#
# Bulk Modulus (GPa) = 173.98377 198.33059 186.15718
# Shear Modulus (GPa) = 50.84912 69.91669 60.38291
#
# Velocity S-wave (km/s) = 4.26752 5.00408 4.65041
# Velocity P-wave (km/s) = 9.30565 10.21863 9.77281
#
# Compressibility (1/GPa) = 0.00574766
#
# Stress axis : x y z
#
# Youngs Moduli (GPa) = 257.83603 249.70003 219.59317
#
# Poissons Ratio (x) = 0.52387 0.17539
# Poissons Ratio (y) = 0.54094 0.09838
# Poissons Ratio (z) = 0.20593 0.11187
#
# Static dielectric constant tensor:
#      x y z
#    x 2.199120 0.000000 0.491700 
#    y 0.000000 1.885880 0.000000 
#    z 0.491700 0.000000 3.437030 
# 
# From -- ./inp_files/188047.got.cif
#   From: 2010.05.17/outbox.cif.g08.bks.cpg/sg15_95_cif.got.tgz:188047.got - 2010.06.03 18:47:42.
