data_PCOD9286918
_publ_section_title
;
Structure prediction by ZEFSAII (Michael W. Deem and Ramdas Pophale) SiO2 
 PCOD9286918
Probable space group: C 2/C
;
_chemical_formula_sum "Si O2"
_cell_formula_units_Z 44
_cell_length_a 22.822275
_cell_length_b 14.801701
_cell_length_c 16.410424
_cell_angle_alpha 90.000000
_cell_angle_beta 160.227580
_cell_angle_gamma 90.000000
_cell_volume 1875.310023
_symmetry_space_group_name_H-M "C 2/C"
_symmetry_group_IT_number 15
_symmetry_cell_setting 'monoclinic'
loop_
_space_group_symop_operation_xyz
x,y,z
-x,y,1/2-z
-x,-y,-z
x,-y,1/2+z
1/2+x,1/2+y,z
1/2-x,1/2+y,1/2-z
1/2-x,1/2-y,-z
1/2+x,1/2-y,1/2+z
loop_
_atom_site_type_symbol
_atom_site_label
_atom_site_fract_x
_atom_site_fract_y
_atom_site_fract_z
Si Si1 0.685828 0.993728 0.200497
Si Si2 0.291233 0.451342 0.158715
Si Si3 0.267773 0.314787 0.841751
Si Si4 0.000000 0.683681 0.250000
Si Si5 0.003541 0.112536 0.159754
Si Si6 0.952997 0.796851 0.936656
O O1 0.785790 0.078948 0.371452
O O2 0.693207 0.993109 0.110636
O O3 0.803173 0.908794 0.376135
O O4 0.500000 0.000000 0.000000
O O5 0.377741 0.527458 0.215623
O O6 0.441081 0.386429 0.392872
O O7 0.158747 0.384514 0.938128
O O8 0.080690 0.284183 0.626058
O O9 0.414202 0.252697 0.073577
O O10 0.281023 0.294506 0.763218
O O11 0.000000 0.127877 0.250000
O O12 0.069688 0.192294 0.188398
#
# Coordination Sequence:
#
# PCOD9286918 Si02
#       6
#     8   8   8   4   8   8
#     4  11  24  41  68  94 131 188 225 266 349 425
#     4  10  21  45  62  94 144 173 220 283 344 405
#     4  11  23  41  67  94 142 171 218 278 349 400
#     4  10  26  38  70 110 134 164 226 294 334 404
#     4  11  23  42  69  91 128 181 233 279 335 405
#     4  10  22  42  61  93 132 179 211 280 342 405
#
# _framework density 23.462786999999999
#
# number of rings (size 3 to 8) (size 9 to 14) (size 15 to 20)
#    0.000    1.455    3.636    1.091   11.455    2.909 
#    0.000    0.909    2.000    0.000    0.000    0.000 
#    0.000    0.000    0.000    0.000    0.000    0.000 
#
# Total GULP energy -122779.606461 kJ/mol
# GULP energy per Si atom -5580.891203 kJ/mol
# Density = 2.340938 g / cm^3
# Si number density = 23.462787 Si / 1000 Ang^3
#
#
#
# Elastic Constant Matrix: (Units=GPa)
#
#
# Indices 1 2 3 4 5 6 
#
# 1 78.4518 -17.7817 20.8264 -0.0001 5.7520 0.0000
# 2 -17.7817 61.8720 4.2839 0.0000 -6.1073 0.0000
# 3 20.8264 4.2839 60.0320 0.0000 12.9455 0.0000
# 4 -0.0001 0.0000 0.0000 31.7770 0.0000 -4.0386
# 5 5.7520 -6.1073 12.9455 0.0000 40.7484 0.0000
# 6 0.0000 0.0000 0.0000 -4.0386 0.0000 27.4850
#
#
#
# Elastic Compliance Matrix: (Units=1/GPa)
#
#
# Indices 1 2 3 4 5 6 
#
# 1 0.015344 0.004846 -0.005753 0.000000 0.000388 0.000000
# 2 0.004846 0.018124 -0.003664 0.000000 0.003196 0.000000
# 3 -0.005753 -0.003664 0.020245 0.000000 -0.006169 0.000000
# 4 0.000000 0.000000 0.000000 0.032068 0.000000 0.004712
# 5 0.000388 0.003196 -0.006169 0.000000 0.026925 0.000000
# 6 0.000000 0.000000 0.000000 0.004712 0.000000 0.037076
#
#
# Mechanical properties :
#
#
# Convention : Reuss Voigt Hill
#
# Bulk Modulus (GPa) = 22.43508 23.89033 23.16270
# Shear Modulus (GPa) = 28.77193 32.87055 30.82124
#
# Velocity S-wave (km/s) = 3.50563 3.74701 3.62832
# Velocity P-wave (km/s) = 5.09594 5.37814 5.23894
#
# Compressibility (1/GPa) = 0.04457306
#
# Stress axis : x y z
#
# Youngs Moduli (GPa) = 65.17286 55.17421 49.39439
#
# Poissons Ratio (x) = -0.26739 0.28415
# Poissons Ratio (y) = -0.31585 0.18098
# Poissons Ratio (z) = 0.37491 0.20215
#
# Static dielectric constant tensor:
#      x y z
#    x 1.916540 0.000000 -0.011860 
#    y 0.000000 1.918390 0.000000 
#    z -0.011860 0.000000 1.870160 
# 
# From -- ./inp_files/39211.got.cif
#   From: 2010.05.17/outbox.cif.g08.bks.cpg/sg15_20_cif.got.tgz:39211.got - 2010.06.03 18:47:42.
