data_PCOD9286060
_publ_section_title
;
Structure prediction by ZEFSAII (Michael W. Deem and Ramdas Pophale) SiO2 
 PCOD9286060
Probable space group: C 2/C
;
_chemical_formula_sum "Si O2"
_cell_formula_units_Z 40
_cell_length_a 22.642989
_cell_length_b 13.950402
_cell_length_c 5.381451
_cell_angle_alpha 90.000000
_cell_angle_beta 88.510942
_cell_angle_gamma 90.000000
_cell_volume 1699.312237
_symmetry_space_group_name_H-M "C 2/C"
_symmetry_group_IT_number 15
_symmetry_cell_setting 'monoclinic'
loop_
_space_group_symop_operation_xyz
x,y,z
-x,y,1/2-z
-x,-y,-z
x,-y,1/2+z
1/2+x,1/2+y,z
1/2-x,1/2+y,1/2-z
1/2-x,1/2-y,-z
1/2+x,1/2-y,1/2+z
loop_
_atom_site_type_symbol
_atom_site_label
_atom_site_fract_x
_atom_site_fract_y
_atom_site_fract_z
Si Si1 0.500000 0.437404 0.750000
Si Si2 0.601444 0.312390 0.922462
Si Si3 0.000000 0.724765 0.250000
Si Si4 0.714036 0.321007 0.185792
Si Si5 0.172085 0.333290 0.090604
Si Si6 0.932308 0.441821 0.568280
O O1 0.500000 0.500000 0.500000
O O2 0.560297 0.374150 0.744159
O O3 0.629161 0.215470 0.801202
O O4 0.553803 0.284045 0.135610
O O5 0.658692 0.363376 0.040466
O O6 0.971732 0.653682 0.050461
O O7 0.768183 0.378204 0.302712
O O8 0.687989 0.255321 0.408911
O O9 0.750000 0.250000 0.000000
O O10 0.135147 0.408640 0.939979
O O11 0.941978 0.508594 0.331542
#
# Coordination Sequence:
#
# PCOD9286060 Si02
#       6
#     4   8   4   8   8   8
#     4  12  29  46  67 104 146 176 220 290 365 410
#     4  11  23  44  73  98 130 181 233 287 328 413
#     4  12  23  44  69 102 132 188 236 264 321 420
#     4   9  20  40  73  95 123 163 243 290 325 384
#     4  10  21  42  70  99 127 178 238 278 330 404
#     4  12  26  41  62 100 151 183 216 277 343 398
#
# _framework density 23.538936
#
# number of rings (size 3 to 8) (size 9 to 14) (size 15 to 20)
#    0.000    1.200    2.000    3.600    5.600    1.600 
#    0.000    2.000    0.000    0.000    0.000    0.000 
#    0.000    0.000    0.000    0.000    0.000    0.000 
#
# Total GULP energy -111790.870379 kJ/mol
# GULP energy per Si atom -5589.543519 kJ/mol
# Density = 2.348536 g / cm^3
# Si number density = 23.538936 Si / 1000 Ang^3
#
#
#
# Elastic Constant Matrix: (Units=GPa)
#
#
# Indices 1 2 3 4 5 6 
#
# 1 179.9469 28.1218 39.9655 0.0000 29.9481 0.0000
# 2 28.1218 36.0349 20.3616 0.0000 9.0991 0.0000
# 3 39.9655 20.3616 103.6566 0.0000 5.1110 0.0000
# 4 0.0000 0.0000 0.0000 43.0032 0.0000 19.8600
# 5 29.9481 9.0991 5.1110 0.0000 57.6328 0.0000
# 6 0.0000 0.0000 0.0000 19.8600 0.0000 29.6888
#
#
#
# Elastic Compliance Matrix: (Units=1/GPa)
#
#
# Indices 1 2 3 4 5 6 
#
# 1 0.007029 -0.003714 -0.001837 0.000000 -0.002903 0.000000
# 2 -0.003714 0.034332 -0.005162 0.000000 -0.003033 0.000000
# 3 -0.001837 -0.005162 0.011332 0.000000 0.000765 0.000000
# 4 0.000000 0.000000 0.000000 0.033650 0.000000 -0.022510
# 5 -0.002903 -0.003033 0.000765 0.000000 0.019271 0.000000
# 6 0.000000 0.000000 0.000000 -0.022510 0.000000 0.048740
#
#
# Mechanical properties :
#
#
# Convention : Reuss Voigt Hill
#
# Bulk Modulus (GPa) = 31.98439 55.17070 43.57754
# Shear Modulus (GPa) = 26.85238 41.47758 34.16498
#
# Velocity S-wave (km/s) = 3.38118 4.20227 3.81389
# Velocity P-wave (km/s) = 5.37220 6.85816 6.16015
#
# Compressibility (1/GPa) = 0.03126526
#
# Stress axis : x y z
#
# Youngs Moduli (GPa) = 142.27084 29.12721 88.24570
#
# Poissons Ratio (x) = 0.10818 0.16213
# Poissons Ratio (y) = 0.52841 0.45557
# Poissons Ratio (z) = 0.26139 0.15037
#
# Static dielectric constant tensor:
#      x y z
#    x 1.950040 0.000000 0.021110 
#    y 0.000000 1.906630 0.000000 
#    z 0.021110 0.000000 1.939160 
# 
# From -- ./inp_files/15028.got.cif
#   From: 2010.05.17/outbox.cif.g08.bks.cpg/sg15_8_cif.got.tgz:15028.got - 2010.06.03 18:47:42.
