data_PCOD9286940
_publ_section_title
;
Structure prediction by ZEFSAII (Michael W. Deem and Ramdas Pophale) SiO2 
 PCOD9286940
Probable space group: C 2/C
;
_chemical_formula_sum "Si O2"
_cell_formula_units_Z 36
_cell_length_a 20.028758
_cell_length_b 15.189669
_cell_length_c 11.203633
_cell_angle_alpha 90.000000
_cell_angle_beta 31.037975
_cell_angle_gamma 90.000000
_cell_volume 1757.434855
_symmetry_space_group_name_H-M "C 2/C"
_symmetry_group_IT_number 15
_symmetry_cell_setting 'monoclinic'
loop_
_space_group_symop_operation_xyz
x,y,z
-x,y,1/2-z
-x,-y,-z
x,-y,1/2+z
1/2+x,1/2+y,z
1/2-x,1/2+y,1/2-z
1/2-x,1/2-y,-z
1/2+x,1/2-y,1/2+z
loop_
_atom_site_type_symbol
_atom_site_label
_atom_site_fract_x
_atom_site_fract_y
_atom_site_fract_z
Si Si1 0.421655 0.506705 0.494892
Si Si2 0.224464 0.654825 0.784850
Si Si3 0.704086 0.145671 0.346141
Si Si4 0.000000 0.432303 0.750000
Si Si5 0.435820 0.903518 0.194657
O O1 0.500000 0.495760 0.250000
O O2 0.500000 0.500000 0.500000
O O3 0.359015 0.604018 0.592236
O O4 0.306190 0.433589 0.673039
O O5 0.234408 0.758962 0.761200
O O6 0.158889 0.613521 0.768039
O O7 0.126162 0.625570 0.038124
O O8 0.639625 0.136317 0.575597
O O9 0.576873 0.138843 0.457729
O O10 0.030433 0.497905 0.813542
#
# Coordination Sequence:
#
# PCOD9286940 Si02
#       5
#     8   8   8   4   8
#     4  12  28  45  67 101 143 176 216 281 345 393
#     4  12  24  41  70  92 131 177 219 274 332 400
#     4  10  24  42  65 100 127 173 226 274 325 403
#     4  10  22  40  66  92 124 172 226 270 328 380
#     4  10  21  45  66  90 126 174 230 269 317 398
#
# _framework density 20.484400000000001
#
# number of rings (size 3 to 8) (size 9 to 14) (size 15 to 20)
#    0.000    1.333    4.444    2.667    7.778    0.000 
#    0.000    2.222    0.000    0.000    0.000    0.000 
#    0.000    0.000    0.000    0.000    0.000    0.000 
#
# Total GULP energy -100507.742125 kJ/mol
# GULP energy per Si atom -5583.763451 kJ/mol
# Density = 2.043778 g / cm^3
# Si number density = 20.484400 Si / 1000 Ang^3
#
#
#
# Elastic Constant Matrix: (Units=GPa)
#
#
# Indices 1 2 3 4 5 6 
#
# 1 93.9565 -12.6948 12.0904 0.0000 -5.4013 0.0000
# 2 -12.6948 115.1596 32.3543 0.0000 3.7725 0.0000
# 3 12.0904 32.3543 103.8122 0.0000 1.2422 0.0000
# 4 0.0000 0.0000 0.0000 20.9284 0.0000 11.6043
# 5 -5.4013 3.7725 1.2422 0.0000 21.6208 0.0000
# 6 0.0000 0.0000 0.0000 11.6043 0.0000 -8.6233
#
#
#
# Elastic Compliance Matrix: (Units=1/GPa)
#
#
# Indices 1 2 3 4 5 6 
#
# 1 0.011261 0.001680 -0.001867 0.000000 0.002627 0.000000
# 2 0.001680 0.009816 -0.003242 0.000000 -0.001107 0.000000
# 3 -0.001867 -0.003242 0.010867 0.000000 -0.000525 0.000000
# 4 0.000000 0.000000 0.000000 0.027364 0.000000 0.036824
# 5 0.002627 -0.001107 -0.000525 0.000000 0.047131 0.000000
# 6 0.000000 0.000000 0.000000 0.036824 0.000000 -0.066411
#
#
# Mechanical properties :
#
#
# Convention : Reuss Voigt Hill
#
# Bulk Modulus (GPa) = 39.86097 41.82536 40.84316
# Shear Modulus (GPa) = 90.50253 25.53041 58.01647
#
# Velocity S-wave (km/s) = 6.65410 3.53418 5.32764
# Velocity P-wave (km/s) = 8.86214 6.09232 7.60440
#
# Compressibility (1/GPa) = 0.02508720
#
# Stress axis : x y z
#
# Youngs Moduli (GPa) = 88.79883 101.87701 92.02411
#
# Poissons Ratio (x) = -0.17113 0.17176
# Poissons Ratio (y) = -0.14916 0.29830
# Poissons Ratio (z) = 0.16574 0.33024
#
# Static dielectric constant tensor:
#      x y z
#    x 1.793800 0.000000 0.057650 
#    y 0.000000 1.694600 0.000000 
#    z 0.057650 0.000000 1.780940 
# 
# From -- ./inp_files/85852.got.cif
#   From: 2010.05.17/outbox.cif.g08.bks.cpg/sg15_43_cif.got.tgz:85852.got - 2010.06.03 18:47:42.
