data_PCOD9286974
_publ_section_title
;
Structure prediction by ZEFSAII (Michael W. Deem and Ramdas Pophale) SiO2 
 PCOD9286974
Probable space group: C 2/C
;
_chemical_formula_sum "Si O2"
_cell_formula_units_Z 48
_cell_length_a 13.732029
_cell_length_b 13.988952
_cell_length_c 12.144804
_cell_angle_alpha 90.000000
_cell_angle_beta 52.693553
_cell_angle_gamma 90.000000
_cell_volume 1855.662010
_symmetry_space_group_name_H-M "C 2/C"
_symmetry_group_IT_number 15
_symmetry_cell_setting 'monoclinic'
loop_
_space_group_symop_operation_xyz
x,y,z
-x,y,1/2-z
-x,-y,-z
x,-y,1/2+z
1/2+x,1/2+y,z
1/2-x,1/2+y,1/2-z
1/2-x,1/2-y,-z
1/2+x,1/2-y,1/2+z
loop_
_atom_site_type_symbol
_atom_site_label
_atom_site_fract_x
_atom_site_fract_y
_atom_site_fract_z
Si Si1 0.726882 0.683928 0.669244
Si Si2 0.698720 0.942992 0.182461
Si Si3 0.115754 0.296571 0.079517
Si Si4 0.425809 0.674442 0.087879
Si Si5 0.598582 0.547869 0.592234
Si Si6 0.840250 0.371689 0.679320
O O1 0.740564 0.604198 0.752906
O O2 0.640778 0.770597 0.771428
O O3 0.677402 0.631949 0.596477
O O4 0.859671 0.735090 0.573132
O O5 0.626914 0.037150 0.271151
O O6 0.615525 0.860541 0.188638
O O7 0.802343 0.974581 0.024073
O O8 0.110008 0.365707 0.977023
O O9 0.250000 0.250000 0.000000
O O10 0.024146 0.212144 0.106511
O O11 0.308685 0.626501 0.227825
O O12 0.465428 0.599072 0.968440
O O13 0.500000 0.514503 0.750000
#
# Coordination Sequence:
#
# PCOD9286974 Si02
#       6
#     8   8   8   8   8   8
#     4  10  21  45  69  94 148 187 238 300 358 438
#     4  11  24  41  68 104 144 181 240 300 363 432
#     4  12  22  44  71 100 141 191 239 300 368 425
#     4   9  23  43  72 100 135 195 241 293 362 427
#     4  11  23  43  74 104 142 188 247 303 362 433
#     4   9  22  43  68  98 142 182 242 292 359 427
#
# _framework density 25.866776999999999
#
# number of rings (size 3 to 8) (size 9 to 14) (size 15 to 20)
#    1.000    0.667    1.667    2.500    0.000    3.333 
#    6.000    5.000    3.667    0.000    0.000    0.000 
#    0.000    0.000    0.000    0.000    0.000    0.000 
#
# Total GULP energy -134320.225800 kJ/mol
# GULP energy per Si atom -5596.676075 kJ/mol
# Density = 2.580790 g / cm^3
# Si number density = 25.866777 Si / 1000 Ang^3
#
#
#
# Elastic Constant Matrix: (Units=GPa)
#
#
# Indices 1 2 3 4 5 6 
#
# 1 118.7489 27.0485 3.9658 0.0000 12.2715 0.0000
# 2 27.0485 118.0188 11.7135 0.0000 27.5645 0.0000
# 3 3.9658 11.7135 97.1519 0.0000 18.2019 0.0000
# 4 0.0000 0.0000 0.0000 47.1955 0.0000 13.5146
# 5 12.2715 27.5645 18.2019 0.0000 32.9347 0.0000
# 6 0.0000 0.0000 0.0000 13.5146 0.0000 28.5072
#
#
#
# Elastic Compliance Matrix: (Units=1/GPa)
#
#
# Indices 1 2 3 4 5 6 
#
# 1 0.008996 -0.001581 0.000227 0.000000 -0.002154 0.000000
# 2 -0.001581 0.010826 0.000386 0.000000 -0.008685 0.000000
# 3 0.000227 0.000386 0.011505 0.000000 -0.006766 0.000000
# 4 0.000000 0.000000 0.000000 0.024517 0.000000 -0.011623
# 5 -0.002154 -0.008685 -0.006766 0.000000 0.042174 0.000000
# 6 0.000000 0.000000 0.000000 -0.011623 0.000000 0.040589
#
#
# Mechanical properties :
#
#
# Convention : Reuss Voigt Hill
#
# Bulk Modulus (GPa) = 34.02352 46.59724 40.31038
# Shear Modulus (GPa) = 33.25802 41.14026 37.19914
#
# Velocity S-wave (km/s) = 3.58962 3.99239 3.79635
# Velocity P-wave (km/s) = 5.51021 6.26943 5.90204
#
# Compressibility (1/GPa) = 0.02939143
#
# Stress axis : x y z
#
# Youngs Moduli (GPa) = 111.15640 92.37253 86.91849
#
# Poissons Ratio (x) = 0.14607 -0.01973
# Poissons Ratio (y) = 0.17577 -0.03359
# Poissons Ratio (z) = -0.02523 -0.03570
#
# Static dielectric constant tensor:
#      x y z
#    x 2.033270 0.000000 -0.122080 
#    y 0.000000 2.012610 0.000000 
#    z -0.122080 0.000000 2.127620 
# 
# From -- ./inp_files/87804.got.cif
#   From: 2010.05.17/outbox.cif.g08.bks.cpg/sg15_44_cif.got.tgz:87804.got - 2010.06.03 18:47:42.
