data_PCOD9286734
_publ_section_title
;
Structure prediction by ZEFSAII (Michael W. Deem and Ramdas Pophale) SiO2 
 PCOD9286734
Probable space group: C 2/C
;
_chemical_formula_sum "Si O2"
_cell_formula_units_Z 48
_cell_length_a 10.890039
_cell_length_b 16.078125
_cell_length_c 25.225554
_cell_angle_alpha 90.000000
_cell_angle_beta 32.909844
_cell_angle_gamma 90.000000
_cell_volume 2399.717946
_symmetry_space_group_name_H-M "C 2/C"
_symmetry_group_IT_number 15
_symmetry_cell_setting 'monoclinic'
loop_
_space_group_symop_operation_xyz
x,y,z
-x,y,1/2-z
-x,-y,-z
x,-y,1/2+z
1/2+x,1/2+y,z
1/2-x,1/2+y,1/2-z
1/2-x,1/2-y,-z
1/2+x,1/2-y,1/2+z
loop_
_atom_site_type_symbol
_atom_site_label
_atom_site_fract_x
_atom_site_fract_y
_atom_site_fract_z
Si Si1 0.925777 0.686156 0.910025
Si Si2 0.260640 0.283559 0.775608
Si Si3 0.657008 0.898882 0.590355
Si Si4 0.320158 0.359127 0.109736
Si Si5 0.963814 0.517270 0.574334
Si Si6 0.500000 0.999465 0.250000
Si Si7 0.000000 0.078566 0.250000
O O1 0.809424 0.648615 0.899207
O O2 0.144243 0.734718 0.809165
O O3 0.996517 0.612127 0.923369
O O4 0.750000 0.750000 0.000000
O O5 0.233093 0.221324 0.835326
O O6 0.441466 0.356570 0.723793
O O7 0.016847 0.323787 0.855193
O O8 0.569222 0.945483 0.674766
O O9 0.916245 0.871020 0.497754
O O10 0.626006 0.961859 0.552521
O O11 0.213227 0.437461 0.179897
O O12 0.714186 0.481246 0.673422
O O13 0.000000 0.500000 0.500000
#
# Coordination Sequence:
#
# PCOD9286734 Si02
#       7
#     8   8   8   8   8   4   4
#     4  12  25  42  70 100 139 186 234 283 354 422
#     4  11  22  46  68  99 137 184 228 290 348 413
#     4  11  27  41  73 104 133 181 232 297 345 415
#     4  12  23  47  70 101 137 183 235 287 357 410
#     4  11  25  44  65 101 135 182 225 284 346 413
#     4  12  23  46  69 100 138 174 238 286 351 414
#     4  10  21  44  67  92 138 178 228 274 347 404
#
# _framework density 20.002351999999998
#
# number of rings (size 3 to 8) (size 9 to 14) (size 15 to 20)
#    0.000    0.667    5.000    2.000    4.667    4.000 
#    3.000    0.000    0.000    0.000    0.000    0.000 
#    0.000    0.000    0.000    0.000    0.000    0.000 
#
# Total GULP energy -134107.477446 kJ/mol
# GULP energy per Si atom -5587.811560 kJ/mol
# Density = 1.995683 g / cm^3
# Si number density = 20.002352 Si / 1000 Ang^3
#
#
#
# Elastic Constant Matrix: (Units=GPa)
#
#
# Indices 1 2 3 4 5 6 
#
# 1 68.5223 61.7916 45.9884 -0.0016 9.7378 -0.0002
# 2 61.7916 142.4890 70.8321 0.0003 10.3651 -0.0005
# 3 45.9884 70.8321 103.0352 0.0006 6.4885 -0.0034
# 4 -0.0016 0.0003 0.0006 35.4380 0.0008 2.2914
# 5 9.7378 10.3651 6.4885 0.0008 39.3534 0.0009
# 6 -0.0002 -0.0005 -0.0034 2.2914 0.0009 24.0322
#
#
#
# Elastic Compliance Matrix: (Units=1/GPa)
#
#
# Indices 1 2 3 4 5 6 
#
# 1 0.026558 -0.008330 -0.005913 0.000002 -0.003403 -0.000001
# 2 -0.008330 0.013377 -0.005443 0.000000 -0.000565 -0.000001
# 3 -0.005913 -0.005443 0.016070 -0.000001 0.000247 0.000002
# 4 0.000002 0.000000 -0.000001 0.028393 -0.000001 -0.002707
# 5 -0.003403 -0.000565 0.000247 -0.000001 0.026361 -0.000001
# 6 -0.000001 -0.000001 0.000002 -0.002707 -0.000001 0.041869
#
#
# Mechanical properties :
#
#
# Convention : Reuss Voigt Hill
#
# Bulk Modulus (GPa) = 60.11689 74.58562 67.35126
# Shear Modulus (GPa) = 25.31084 28.79368 27.05226
#
# Velocity S-wave (km/s) = 3.56110 3.79821 3.68156
# Velocity P-wave (km/s) = 6.85775 7.52360 7.19838
#
# Compressibility (1/GPa) = 0.01663426
#
# Stress axis : x y z
#
# Youngs Moduli (GPa) = 37.65409 74.75442 62.22597
#
# Poissons Ratio (x) = 0.62271 0.36792
# Poissons Ratio (y) = 0.31366 0.33867
# Poissons Ratio (z) = 0.22264 0.40686
#
# Static dielectric constant tensor:
#      x y z
#    x 1.664140 0.000010 0.031770 
#    y 0.000010 1.773400 -0.000060 
#    z 0.031770 -0.000060 1.642990 
# 
# From -- ./inp_files/182472.got.cif
#   From: 2010.05.17/outbox.cif.g08.bks.cpg/sg15_92_cif.got.tgz:182472.got - 2010.06.03 18:47:42.
