data_PCOD9286191
_publ_section_title
;
Structure prediction by ZEFSAII (Michael W. Deem and Ramdas Pophale) SiO2 
 PCOD9286191
Probable space group: C 2/C
;
_chemical_formula_sum "Si O2"
_cell_formula_units_Z 32
_cell_length_a 21.222644
_cell_length_b 7.054541
_cell_length_c 9.110460
_cell_angle_alpha 90.000000
_cell_angle_beta 86.786731
_cell_angle_gamma 90.000000
_cell_volume 1361.837302
_symmetry_space_group_name_H-M "C 2/C"
_symmetry_group_IT_number 15
_symmetry_cell_setting 'monoclinic'
loop_
_space_group_symop_operation_xyz
x,y,z
-x,y,1/2-z
-x,-y,-z
x,-y,1/2+z
1/2+x,1/2+y,z
1/2-x,1/2+y,1/2-z
1/2-x,1/2-y,-z
1/2+x,1/2-y,1/2+z
loop_
_atom_site_type_symbol
_atom_site_label
_atom_site_fract_x
_atom_site_fract_y
_atom_site_fract_z
Si Si1 0.816925 0.709463 0.852467
Si Si2 0.218177 0.114253 0.623508
Si Si3 0.102758 0.370907 0.628261
Si Si4 0.439597 0.190767 0.672673
O O1 0.764113 0.614916 0.757191
O O2 0.852690 0.545938 0.938376
O O3 0.873339 0.778970 0.734681
O O4 0.791267 0.899278 0.928503
O O5 0.250000 0.250000 0.500000
O O6 0.150792 0.208135 0.667094
O O7 0.058162 0.306723 0.502140
O O8 0.068605 0.474728 0.766467
O O9 0.500000 0.270709 0.750000
#
# Coordination Sequence:
#
# PCOD9286191 Si02
#       4
#     8   8   8   8
#     4  10  23  36  63  93 121 161 201 256 306 364
#     4  12  21  40  60  94 127 155 203 254 315 368
#     4  10  22  39  64  92 123 164 205 251 309 360
#     4  10  21  43  63  87 125 166 210 250 300 363
#
# _framework density 23.497665999999999
#
# number of rings (size 3 to 8) (size 9 to 14) (size 15 to 20)
#    1.500    0.000    5.000    0.750    0.000    3.000 
#    0.000    2.500    0.000    0.000    0.000    0.000 
#    0.000    0.000    0.000    0.000    0.000    0.000 
#
# Total GULP energy -89320.464111 kJ/mol
# GULP energy per Si atom -5582.529007 kJ/mol
# Density = 2.344418 g / cm^3
# Si number density = 23.497666 Si / 1000 Ang^3
#
#
#
# Elastic Constant Matrix: (Units=GPa)
#
#
# Indices 1 2 3 4 5 6 
#
# 1 97.5636 5.4773 22.2665 0.0000 31.9328 0.0000
# 2 5.4773 105.3939 -13.3109 0.0000 -0.2608 0.0000
# 3 22.2665 -13.3109 62.5248 0.0000 21.0821 0.0000
# 4 0.0000 0.0000 0.0000 22.9837 0.0000 -3.9584
# 5 31.9328 -0.2608 21.0821 0.0000 37.7579 0.0000
# 6 0.0000 0.0000 0.0000 -3.9584 0.0000 22.2636
#
#
#
# Elastic Compliance Matrix: (Units=1/GPa)
#
#
# Indices 1 2 3 4 5 6 
#
# 1 0.014345 -0.000963 -0.001504 0.000000 -0.011299 0.000000
# 2 -0.000963 0.009871 0.002645 0.000000 -0.000594 0.000000
# 3 -0.001504 0.002645 0.020521 0.000000 -0.010167 0.000000
# 4 0.000000 0.000000 0.000000 0.044884 0.000000 0.007980
# 5 -0.011299 -0.000594 -0.010167 0.000000 0.041713 0.000000
# 6 0.000000 0.000000 0.000000 0.007980 0.000000 0.046335
#
#
# Mechanical properties :
#
#
# Convention : Reuss Voigt Hill
#
# Bulk Modulus (GPa) = 22.17730 32.70534 27.44132
# Shear Modulus (GPa) = 25.99503 33.33767 29.66635
#
# Velocity S-wave (km/s) = 3.32969 3.77074 3.55706
# Velocity P-wave (km/s) = 4.92352 5.73644 5.34545
#
# Compressibility (1/GPa) = 0.04509115
#
# Stress axis : x y z
#
# Youngs Moduli (GPa) = 69.70947 101.30855 48.73172
#
# Poissons Ratio (x) = 0.09760 0.07329
# Poissons Ratio (y) = 0.06716 -0.12888
# Poissons Ratio (z) = 0.10484 -0.26793
#
# Static dielectric constant tensor:
#      x y z
#    x 1.961650 0.000000 -0.077950 
#    y 0.000000 1.859800 0.000000 
#    z -0.077950 0.000000 1.877080 
# 
# From -- ./inp_files/109050.got.cif
#   From: 2010.05.17/outbox.cif.g08.bks.cpg/sg15_55_cif.got.tgz:109050.got - 2010.06.03 18:47:42.
