data_PCOD9286613
_publ_section_title
;
Structure prediction by ZEFSAII (Michael W. Deem and Ramdas Pophale) SiO2 
 PCOD9286613
Probable space group: C 2/C
;
_chemical_formula_sum "Si O2"
_cell_formula_units_Z 36
_cell_length_a 5.204539
_cell_length_b 19.253907
_cell_length_c 14.712318
_cell_angle_alpha 90.000000
_cell_angle_beta 116.777788
_cell_angle_gamma 90.000000
_cell_volume 1316.185884
_symmetry_space_group_name_H-M "C 2/C"
_symmetry_group_IT_number 15
_symmetry_cell_setting 'monoclinic'
loop_
_space_group_symop_operation_xyz
x,y,z
-x,y,1/2-z
-x,-y,-z
x,-y,1/2+z
1/2+x,1/2+y,z
1/2-x,1/2+y,1/2-z
1/2-x,1/2-y,-z
1/2+x,1/2-y,1/2+z
loop_
_atom_site_type_symbol
_atom_site_label
_atom_site_fract_x
_atom_site_fract_y
_atom_site_fract_z
Si Si1 0.500000 0.268008 0.750000
Si Si2 0.845298 0.172698 0.045026
Si Si3 0.267211 0.953407 0.866540
Si Si4 0.000000 0.466111 0.250000
Si Si5 0.000000 0.815782 0.250000
Si Si6 0.418914 0.405433 0.090352
O O1 0.466613 0.311620 0.836281
O O2 0.203596 0.225566 0.710974
O O3 0.643565 0.114128 0.061813
O O4 0.750000 0.250000 0.000000
O O5 0.006187 0.132199 0.990817
O O6 0.000000 0.946118 0.750000
O O7 0.503918 0.983851 0.837324
O O8 0.197499 0.016363 0.924316
O O9 0.277157 0.418909 0.307433
O O10 0.218730 0.854200 0.356091
#
# Coordination Sequence:
#
# PCOD9286613 Si02
#       6
#     4   8   8   4   4   8
#     4  12  29  51  70 113 157 200 256 312 381 464
#     4  12  26  46  71 107 149 200 252 309 386 455
#     4  10  22  44  70 102 144 192 248 320 373 452
#     4  10  21  43  76 103 147 186 258 310 381 443
#     4  12  24  48  80 104 154 200 254 312 378 451
#     4  11  23  43  73 106 141 201 246 316 374 452
#
# _framework density 27.351759999999999
#
# number of rings (size 3 to 8) (size 9 to 14) (size 15 to 20)
#    0.000    0.889    6.667    1.333    0.000    2.667 
#    4.000    0.000    0.000    0.000    0.000    0.000 
#    0.000    0.000    0.000    0.000    0.000    0.000 
#
# Total GULP energy -100531.448541 kJ/mol
# GULP energy per Si atom -5585.080475 kJ/mol
# Density = 2.728951 g / cm^3
# Si number density = 27.351760 Si / 1000 Ang^3
#
#
#
# Elastic Constant Matrix: (Units=GPa)
#
#
# Indices 1 2 3 4 5 6 
#
# 1 40.9679 17.0538 21.6069 0.0000 -28.5450 0.0000
# 2 17.0538 193.4301 85.4873 0.0000 -30.3220 0.0000
# 3 21.6069 85.4873 209.5256 0.0000 -47.2084 0.0000
# 4 0.0000 0.0000 0.0000 72.7708 0.0000 -19.2526
# 5 -28.5450 -30.3220 -47.2084 0.0000 52.5495 0.0000
# 6 0.0000 0.0000 0.0000 -19.2526 0.0000 14.5080
#
#
#
# Elastic Compliance Matrix: (Units=1/GPa)
#
#
# Indices 1 2 3 4 5 6 
#
# 1 0.039464 -0.000505 0.001129 0.000000 0.022160 0.000000
# 2 -0.000505 0.006432 -0.002254 0.000000 0.001412 0.000000
# 3 0.001129 -0.002254 0.006797 0.000000 0.005419 0.000000
# 4 0.000000 0.000000 0.000000 0.021177 0.000000 0.028102
# 5 0.022160 0.001412 0.005419 0.000000 0.036750 0.000000
# 6 0.000000 0.000000 0.000000 0.028102 0.000000 0.106220
#
#
# Mechanical properties :
#
#
# Convention : Reuss Voigt Hill
#
# Bulk Modulus (GPa) = 20.22887 76.91329 48.57108
# Shear Modulus (GPa) = 21.13482 49.28405 35.20943
#
# Velocity S-wave (km/s) = 2.78277 4.24944 3.59176
# Velocity P-wave (km/s) = 4.21153 7.22897 5.91587
#
# Compressibility (1/GPa) = 0.04943431
#
# Stress axis : x y z
#
# Youngs Moduli (GPa) = 25.33925 155.47592 147.12865
#
# Poissons Ratio (x) = 0.07845 -0.16613
# Poissons Ratio (y) = 0.01279 0.33162
# Poissons Ratio (z) = -0.02861 0.35044
#
# Static dielectric constant tensor:
#      x y z
#    x 1.594730 0.000000 -0.429610 
#    y 0.000000 2.303340 0.000000 
#    z -0.429610 0.000000 1.690120 
# 
# From -- ./inp_files/128753.got.cif
#   From: 2010.05.17/outbox.cif.g08.bks.cpg/sg15_65_cif.got.tgz:128753.got - 2010.06.03 18:47:42.
