data_PCOD9286866
_publ_section_title
;
Structure prediction by ZEFSAII (Michael W. Deem and Ramdas Pophale) SiO2 
 PCOD9286866
Probable space group: C 2/C
;
_chemical_formula_sum "Si O2"
_cell_formula_units_Z 48
_cell_length_a 14.551494
_cell_length_b 17.791952
_cell_length_c 8.845288
_cell_angle_alpha 90.000000
_cell_angle_beta 74.962761
_cell_angle_gamma 90.000000
_cell_volume 2211.623558
_symmetry_space_group_name_H-M "C 2/C"
_symmetry_group_IT_number 15
_symmetry_cell_setting 'monoclinic'
loop_
_space_group_symop_operation_xyz
x,y,z
-x,y,1/2-z
-x,-y,-z
x,-y,1/2+z
1/2+x,1/2+y,z
1/2-x,1/2+y,1/2-z
1/2-x,1/2-y,-z
1/2+x,1/2-y,1/2+z
loop_
_atom_site_type_symbol
_atom_site_label
_atom_site_fract_x
_atom_site_fract_y
_atom_site_fract_z
Si Si1 0.430041 0.647387 0.408806
Si Si2 0.603271 0.798975 0.901513
Si Si3 0.570577 0.632256 0.585222
Si Si4 0.118146 0.296322 0.541483
Si Si5 0.255245 0.924411 0.154152
Si Si6 0.235920 0.578440 0.489641
O O1 0.500000 0.677515 0.250000
O O2 0.390335 0.716532 0.525744
O O3 0.500592 0.600453 0.487907
O O4 0.340841 0.601524 0.385627
O O5 0.637616 0.800452 0.713048
O O6 0.491325 0.818966 0.943462
O O7 0.663541 0.856542 0.973990
O O8 0.500000 0.658259 0.750000
O O9 0.620506 0.707837 0.500617
O O10 0.650723 0.581639 0.624389
O O11 0.186985 0.350838 0.421710
O O12 0.253040 0.928406 0.335151
O O13 0.298083 0.000500 0.067712
#
# Coordination Sequence:
#
# PCOD9286866 Si02
#       6
#     8   8   8   8   8   8
#     4  11  25  41  70 100 130 168 214 270 322 376
#     4  10  22  44  69  97 130 160 222 269 323 380
#     4  11  21  45  68  97 130 164 215 268 322 384
#     4  10  21  44  71  97 123 170 212 275 324 377
#     4  12  27  42  67  94 134 176 213 261 327 384
#     4  12  27  44  62  98 133 174 216 263 320 391
#
# _framework density 21.703512
#
# number of rings (size 3 to 8) (size 9 to 14) (size 15 to 20)
#    0.000    1.000    5.000    2.000    9.333    2.000 
#    0.000    0.000    0.000    0.000    0.000    0.000 
#    0.000    0.000    0.000    0.000    0.000    0.000 
#
# Total GULP energy -134224.061687 kJ/mol
# GULP energy per Si atom -5592.669237 kJ/mol
# Density = 2.165411 g / cm^3
# Si number density = 21.703512 Si / 1000 Ang^3
#
#
#
# Elastic Constant Matrix: (Units=GPa)
#
#
# Indices 1 2 3 4 5 6 
#
# 1 69.1852 14.1311 9.5448 0.0000 16.7962 0.0000
# 2 14.1311 60.7319 7.2366 0.0000 -0.2382 0.0000
# 3 9.5448 7.2366 55.6197 0.0000 5.9865 0.0000
# 4 0.0000 0.0000 0.0000 16.7726 0.0000 7.6009
# 5 16.7962 -0.2382 5.9865 0.0000 39.6289 0.0000
# 6 0.0000 0.0000 0.0000 7.6009 0.0000 6.8921
#
#
#
# Elastic Compliance Matrix: (Units=1/GPa)
#
#
# Indices 1 2 3 4 5 6 
#
# 1 0.017180 -0.003823 -0.001692 0.000000 -0.007049 0.000000
# 2 -0.003823 0.017583 -0.001847 0.000000 0.002005 0.000000
# 3 -0.001692 -0.001847 0.018739 0.000000 -0.002125 0.000000
# 4 0.000000 0.000000 0.000000 0.119190 0.000000 -0.131448
# 5 -0.007049 0.002005 -0.002125 0.000000 0.028555 0.000000
# 6 0.000000 0.000000 0.000000 -0.131448 0.000000 0.290059
#
#
# Mechanical properties :
#
#
# Convention : Reuss Voigt Hill
#
# Bulk Modulus (GPa) = 25.78921 27.48466 26.63693
# Shear Modulus (GPa) = 9.63471 22.96701 16.30086
#
# Velocity S-wave (km/s) = 2.10924 3.25655 2.74354
# Velocity P-wave (km/s) = 4.22376 5.17990 4.72607
#
# Compressibility (1/GPa) = 0.03877591
#
# Stress axis : x y z
#
# Youngs Moduli (GPa) = 58.20879 56.87169 53.36561
#
# Poissons Ratio (x) = 0.21744 0.09030
# Poissons Ratio (y) = 0.22255 0.09859
# Poissons Ratio (z) = 0.09849 0.10507
#
# Static dielectric constant tensor:
#      x y z
#    x 1.797030 0.000000 -0.000080 
#    y 0.000000 1.770860 0.000000 
#    z -0.000080 0.000000 1.798790 
# 
# From -- ./inp_files/39656.got.cif
#   From: 2010.05.17/outbox.cif.g08.bks.cpg/sg15_20_cif.got.tgz:39656.got - 2010.06.03 18:47:42.
