data_PCOD9286954
_publ_section_title
;
Structure prediction by ZEFSAII (Michael W. Deem and Ramdas Pophale) SiO2 
 PCOD9286954
Probable space group: C 2/C
;
_chemical_formula_sum "Si O2"
_cell_formula_units_Z 56
_cell_length_a 25.511256
_cell_length_b 20.662843
_cell_length_c 15.194628
_cell_angle_alpha 90.000000
_cell_angle_beta 18.491604
_cell_angle_gamma 90.000000
_cell_volume 2540.377082
_symmetry_space_group_name_H-M "C 2/C"
_symmetry_group_IT_number 15
_symmetry_cell_setting 'monoclinic'
loop_
_space_group_symop_operation_xyz
x,y,z
-x,y,1/2-z
-x,-y,-z
x,-y,1/2+z
1/2+x,1/2+y,z
1/2-x,1/2+y,1/2-z
1/2-x,1/2-y,-z
1/2+x,1/2-y,1/2+z
loop_
_atom_site_type_symbol
_atom_site_label
_atom_site_fract_x
_atom_site_fract_y
_atom_site_fract_z
Si Si1 0.500000 0.030908 0.750000
Si Si2 0.461384 0.831174 0.646128
Si Si3 0.488761 0.146247 0.902606
Si Si4 0.500000 0.254164 0.750000
Si Si5 0.366576 0.515018 0.634543
Si Si6 0.794534 0.155444 0.695946
Si Si7 0.886408 0.884218 0.513373
Si Si8 0.380003 0.315377 0.249212
O O1 0.475814 0.079393 0.704843
O O2 0.672917 0.992484 0.471139
O O3 0.525893 0.849051 0.446400
O O4 0.600002 0.854297 0.492077
O O5 0.430109 0.754244 0.707348
O O6 0.274183 0.853812 0.961724
O O7 0.289799 0.148513 0.216064
O O8 0.558523 0.205648 0.734252
O O9 0.638616 0.301098 0.489903
O O10 0.500000 0.500000 0.500000
O O11 0.383861 0.586894 0.568058
O O12 0.381283 0.461007 0.534928
O O13 0.831770 0.194249 0.725663
O O14 0.000000 0.866180 0.250000
O O15 0.962507 0.858777 0.483172
#
# Coordination Sequence:
#
# PCOD9286954 Si02
#       8
#     4   8   8   4   8   8   8   8
#     4   9  24  44  72  96 136 189 236 286 346 429
#     4  11  24  40  68 104 136 172 226 292 347 423
#     4  10  21  45  68 101 130 179 227 286 359 406
#     4  11  24  44  64  98 140 169 224 282 350 429
#     4  11  25  45  68  99 139 188 238 288 352 412
#     4  12  26  43  65 101 137 183 227 283 355 415
#     4  11  22  43  70  94 130 182 236 281 340 421
#     4  11  23  41  69  98 138 176 225 287 349 419
#
# _framework density 22.043970999999999
#
# number of rings (size 3 to 8) (size 9 to 14) (size 15 to 20)
#    0.000    1.143    4.286    1.286    3.000    1.714 
#    2.571    1.429    0.000    0.000    0.000    0.000 
#    0.000    0.000    0.000    0.000    0.000    0.000 
#
# Total GULP energy -156338.005039 kJ/mol
# GULP energy per Si atom -5583.500180 kJ/mol
# Density = 2.199380 g / cm^3
# Si number density = 22.043971 Si / 1000 Ang^3
#
#
#
# Elastic Constant Matrix: (Units=GPa)
#
#
# Indices 1 2 3 4 5 6 
#
# 1 94.6694 17.8800 35.7581 0.0021 -10.7987 -0.0041
# 2 17.8800 78.7523 10.3468 -0.0115 -7.3875 0.0022
# 3 35.7581 10.3468 59.5585 -0.0009 -1.8639 0.0020
# 4 0.0021 -0.0115 -0.0009 19.4867 0.0076 -8.3891
# 5 -10.7987 -7.3875 -1.8639 0.0076 41.4667 0.0034
# 6 -0.0041 0.0022 0.0020 -8.3891 0.0034 18.0460
#
#
#
# Elastic Compliance Matrix: (Units=1/GPa)
#
#
# Indices 1 2 3 4 5 6 
#
# 1 0.014365 -0.001900 -0.008200 -0.000003 0.003034 0.000002
# 2 -0.001900 0.013453 -0.001139 0.000008 0.001851 0.000001
# 3 -0.008200 -0.001139 0.021869 0.000000 -0.001355 -0.000004
# 4 -0.000003 0.000008 0.000000 0.064156 -0.000014 0.029824
# 5 0.003034 0.001851 -0.001355 -0.000014 0.025175 -0.000010
# 6 0.000002 0.000001 -0.000004 0.029824 -0.000010 0.069278
#
#
# Mechanical properties :
#
#
# Convention : Reuss Voigt Hill
#
# Bulk Modulus (GPa) = 36.75053 40.10553 38.42803
# Shear Modulus (GPa) = 20.84712 27.06625 23.95668
#
# Velocity S-wave (km/s) = 3.07857 3.50784 3.30019
# Velocity P-wave (km/s) = 5.41705 5.88554 5.65615
#
# Compressibility (1/GPa) = 0.02721050
#
# Stress axis : x y z
#
# Youngs Moduli (GPa) = 69.61343 74.33549 45.72772
#
# Poissons Ratio (x) = 0.14120 0.37495
# Poissons Ratio (y) = 0.13223 0.05207
# Poissons Ratio (z) = 0.57080 0.08464
#
# Static dielectric constant tensor:
#      x y z
#    x 1.829120 0.000000 0.039640 
#    y 0.000000 1.842420 0.000000 
#    z 0.039640 0.000000 1.848870 
# 
# From -- ./inp_files/174753.got.cif
#   From: 2010.05.17/outbox.cif.g08.bks.cpg/sg15_88_cif.got.tgz:174753.got - 2010.06.03 18:47:42.
