data_PCOD9286302
_publ_section_title
;
Structure prediction by ZEFSAII (Michael W. Deem and Ramdas Pophale) SiO2 
 PCOD9286302
Probable space group: C 2/C
;
_chemical_formula_sum "Si O2"
_cell_formula_units_Z 44
_cell_length_a 27.238335
_cell_length_b 15.167558
_cell_length_c 10.969156
_cell_angle_alpha 90.000000
_cell_angle_beta 150.625260
_cell_angle_gamma 90.000000
_cell_volume 2222.930127
_symmetry_space_group_name_H-M "C 2/C"
_symmetry_group_IT_number 15
_symmetry_cell_setting 'monoclinic'
loop_
_space_group_symop_operation_xyz
x,y,z
-x,y,1/2-z
-x,-y,-z
x,-y,1/2+z
1/2+x,1/2+y,z
1/2-x,1/2+y,1/2-z
1/2-x,1/2-y,-z
1/2+x,1/2-y,1/2+z
loop_
_atom_site_type_symbol
_atom_site_label
_atom_site_fract_x
_atom_site_fract_y
_atom_site_fract_z
Si Si1 0.205091 0.897684 0.623941
Si Si2 0.687250 0.659725 0.353023
Si Si3 0.967138 0.811474 0.404193
Si Si4 0.716191 0.090370 0.719753
Si Si5 0.316370 0.258792 0.266217
Si Si6 0.500000 0.825095 0.750000
O O1 0.168278 0.860234 0.672241
O O2 0.113782 0.879907 0.330675
O O3 0.297998 0.834947 0.788939
O O4 0.245214 0.995003 0.735105
O O5 0.750000 0.750000 0.500000
O O6 0.753625 0.592993 0.572815
O O7 0.577582 0.655776 0.173123
O O8 0.922314 0.777908 0.434944
O O9 0.986012 0.736591 0.340424
O O10 0.773173 0.165547 0.762389
O O11 0.599645 0.115531 0.464753
O O12 0.250000 0.250000 0.000000
#
# Coordination Sequence:
#
# PCOD9286302 Si02
#       6
#     8   8   8   8   8   4
#     4  11  24  44  67  99 136 173 219 279 339 393
#     4  12  22  44  69  97 134 177 227 275 321 411
#     4  11  21  43  74  89 135 186 216 268 348 390
#     4  12  26  42  69 103 132 175 229 279 330 400
#     4  10  21  43  66  92 134 175 216 274 334 394
#     4  12  20  46  68  96 132 186 216 264 354 394
#
# _framework density 19.793693999999999
#
# number of rings (size 3 to 8) (size 9 to 14) (size 15 to 20)
#    0.000    0.727    9.091    0.000    5.091    1.455 
#    6.545    1.818    0.000    0.000    0.000    0.000 
#    0.000    0.000    0.000    0.000    0.000    0.000 
#
# Total GULP energy -122593.027326 kJ/mol
# GULP energy per Si atom -5572.410333 kJ/mol
# Density = 1.974864 g / cm^3
# Si number density = 19.793694 Si / 1000 Ang^3
#
#
#
# Elastic Constant Matrix: (Units=GPa)
#
#
# Indices 1 2 3 4 5 6 
#
# 1 68.1181 -7.5741 7.9293 0.0000 13.4738 0.0000
# 2 -7.5741 78.8887 14.4161 0.0000 -2.4292 0.0000
# 3 7.9293 14.4161 92.7210 0.0000 16.3045 0.0000
# 4 0.0000 0.0000 0.0000 22.7755 0.0000 -0.4694
# 5 13.4738 -2.4292 16.3045 0.0000 25.7143 0.0000
# 6 0.0000 0.0000 0.0000 -0.4694 0.0000 16.8640
#
#
#
# Elastic Compliance Matrix: (Units=1/GPa)
#
#
# Indices 1 2 3 4 5 6 
#
# 1 0.016516 0.001351 -0.000139 0.000000 -0.008438 0.000000
# 2 0.001351 0.013344 -0.002574 0.000000 0.002185 0.000000
# 3 -0.000139 -0.002574 0.012636 0.000000 -0.008183 0.000000
# 4 0.000000 0.000000 0.000000 0.043932 0.000000 0.001223
# 5 -0.008438 0.002185 -0.008183 0.000000 0.048705 0.000000
# 6 0.000000 0.000000 0.000000 0.001223 0.000000 0.059332
#
#
# Mechanical properties :
#
#
# Convention : Reuss Voigt Hill
#
# Bulk Modulus (GPa) = 25.14343 29.91894 27.53118
# Shear Modulus (GPa) = 23.75913 28.06787 25.91350
#
# Velocity S-wave (km/s) = 3.46835 3.76975 3.62218
# Velocity P-wave (km/s) = 5.36373 5.83919 5.60650
#
# Compressibility (1/GPa) = 0.03977182
#
# Stress axis : x y z
#
# Youngs Moduli (GPa) = 60.54769 74.94274 79.13888
#
# Poissons Ratio (x) = -0.10126 0.01097
# Poissons Ratio (y) = -0.08181 0.20373
# Poissons Ratio (z) = 0.00839 0.19293
#
# Static dielectric constant tensor:
#      x y z
#    x 1.968610 0.000000 0.158240 
#    y 0.000000 1.858760 0.000000 
#    z 0.158240 0.000000 1.783520 
# 
# From -- ./inp_files/123401.got.cif
#   From: 2010.05.17/outbox.cif.g08.bks.cpg/sg15_62_cif.got.tgz:123401.got - 2010.06.03 18:47:42.
