data_PCOD9286823
_publ_section_title
;
Structure prediction by ZEFSAII (Michael W. Deem and Ramdas Pophale) SiO2 
 PCOD9286823
Probable space group: C 2/C
;
_chemical_formula_sum "Si O2"
_cell_formula_units_Z 40
_cell_length_a 12.117757
_cell_length_b 19.855303
_cell_length_c 7.252702
_cell_angle_alpha 90.000000
_cell_angle_beta 97.740224
_cell_angle_gamma 90.000000
_cell_volume 1729.113699
_symmetry_space_group_name_H-M "C 2/C"
_symmetry_group_IT_number 15
_symmetry_cell_setting 'monoclinic'
loop_
_space_group_symop_operation_xyz
x,y,z
-x,y,1/2-z
-x,-y,-z
x,-y,1/2+z
1/2+x,1/2+y,z
1/2-x,1/2+y,1/2-z
1/2-x,1/2-y,-z
1/2+x,1/2-y,1/2+z
loop_
_atom_site_type_symbol
_atom_site_label
_atom_site_fract_x
_atom_site_fract_y
_atom_site_fract_z
Si Si1 0.026739 0.922696 0.540912
Si Si2 0.877175 0.444416 0.138872
Si Si3 0.413034 0.296894 0.563591
Si Si4 0.782766 0.589448 0.995342
Si Si5 0.666348 0.830400 0.659804
O O1 0.152848 0.910299 0.513539
O O2 0.000000 0.915920 0.750000
O O3 0.951047 0.861828 0.452909
O O4 0.000000 0.000000 0.500000
O O5 0.829307 0.517142 0.074765
O O6 0.805859 0.409275 0.284215
O O7 0.000000 0.452015 0.250000
O O8 0.873234 0.396093 0.962084
O O9 0.500000 0.281283 0.750000
O O10 0.400921 0.233327 0.427636
O O11 0.294337 0.314578 0.630453
O O12 0.837650 0.649025 0.127072
#
# Coordination Sequence:
#
# PCOD9286823 Si02
#       5
#     8   8   8   8   8
#     4  11  21  40  71 104 142 178 231 296 357 421
#     4  12  26  44  71 105 142 185 243 296 357 422
#     4  10  21  44  70 100 149 188 227 295 357 422
#     4  12  23  42  73 107 141 185 241 296 357 425
#     4  11  23  43  74  99 147 190 231 295 354 432
#
# _framework density 23.133239
#
# number of rings (size 3 to 8) (size 9 to 14) (size 15 to 20)
#    0.000    0.800    6.000    3.600    0.000    0.000 
#    0.000    4.000   26.400    0.000    0.000    0.000 
#    0.000    0.000    0.000    0.000    0.000    0.000 
#
# Total GULP energy -111964.569116 kJ/mol
# GULP energy per Si atom -5598.228456 kJ/mol
# Density = 2.308059 g / cm^3
# Si number density = 23.133239 Si / 1000 Ang^3
#
#
#
# Elastic Constant Matrix: (Units=GPa)
#
#
# Indices 1 2 3 4 5 6 
#
# 1 93.6391 14.9723 4.4491 0.0000 8.9066 0.0000
# 2 14.9723 151.0372 9.6213 0.0000 20.3203 0.0000
# 3 4.4491 9.6213 52.0677 0.0000 -1.4902 0.0000
# 4 0.0000 0.0000 0.0000 -178.0419 0.0000 107.7953
# 5 8.9066 20.3203 -1.4902 0.0000 38.3574 0.0000
# 6 0.0000 0.0000 0.0000 107.7953 0.0000 -20.0139
#
#
#
# Elastic Compliance Matrix: (Units=1/GPa)
#
#
# Indices 1 2 3 4 5 6 
#
# 1 0.011049 -0.000743 -0.000870 0.000000 -0.002206 0.000000
# 2 -0.000743 0.007286 -0.001390 0.000000 -0.003742 0.000000
# 3 -0.000870 -0.001390 0.019586 0.000000 0.001699 0.000000
# 4 0.000000 0.000000 0.000000 0.002484 0.000000 0.013380
# 5 -0.002206 -0.003742 0.001699 0.000000 0.028631 0.000000
# 6 0.000000 0.000000 0.000000 0.013380 0.000000 0.022099
#
#
# Mechanical properties :
#
#
# Convention : Reuss Voigt Hill
#
# Bulk Modulus (GPa) = 31.33309 39.42547 35.37928
# Shear Modulus (GPa) = 46.39075 -14.09292 16.14891
#
# Velocity S-wave (km/s) = 4.48300 -2.47089 2.64499
# Velocity P-wave (km/s) = 6.35377 2.98988 4.96537
#
# Compressibility (1/GPa) = 0.03191514
#
# Stress axis : x y z
#
# Youngs Moduli (GPa) = 90.50380 137.24052 51.05795
#
# Poissons Ratio (x) = 0.10199 0.04442
# Poissons Ratio (y) = 0.06726 0.07097
# Poissons Ratio (z) = 0.07873 0.19077
#
# Static dielectric constant tensor:
#      x y z
#    x 1.858570 0.000000 0.035610 
#    y 0.000000 1.954330 0.000000 
#    z 0.035610 0.000000 1.855410 
# 
# From -- ./inp_files/29355.got.cif
#   From: 2010.05.17/outbox.cif.g08.bks.cpg/sg15_15_cif.got.tgz:29355.got - 2010.06.03 18:47:42.
