data_PCOD9286723
_publ_section_title
;
Structure prediction by ZEFSAII (Michael W. Deem and Ramdas Pophale) SiO2 
 PCOD9286723
Probable space group: C 2/C
;
_chemical_formula_sum "Si O2"
_cell_formula_units_Z 44
_cell_length_a 13.685135
_cell_length_b 13.861377
_cell_length_c 9.668084
_cell_angle_alpha 90.000000
_cell_angle_beta 89.663690
_cell_angle_gamma 90.000000
_cell_volume 1833.953817
_symmetry_space_group_name_H-M "C 2/C"
_symmetry_group_IT_number 15
_symmetry_cell_setting 'monoclinic'
loop_
_space_group_symop_operation_xyz
x,y,z
-x,y,1/2-z
-x,-y,-z
x,-y,1/2+z
1/2+x,1/2+y,z
1/2-x,1/2+y,1/2-z
1/2-x,1/2-y,-z
1/2+x,1/2-y,1/2+z
loop_
_atom_site_type_symbol
_atom_site_label
_atom_site_fract_x
_atom_site_fract_y
_atom_site_fract_z
Si Si1 0.750000 0.250000 0.500000
Si Si2 0.878912 0.274965 0.138933
Si Si3 0.048659 0.153955 0.018583
Si Si4 0.230773 0.632598 0.109009
Si Si5 0.119107 0.950137 0.118680
Si Si6 0.296584 0.928852 0.322724
O O1 0.862812 0.219459 0.528576
O O2 0.715945 0.135997 0.541746
O O3 0.022712 0.218903 0.387564
O O4 0.792762 0.205450 0.205875
O O5 0.872980 0.370618 0.227855
O O6 0.838123 0.304012 0.987793
O O7 0.088035 0.061162 0.102928
O O8 0.979680 0.110310 0.899752
O O9 0.175744 0.540767 0.167749
O O10 0.314092 0.583013 0.012303
O O11 0.190936 0.931682 0.245448
#
# Coordination Sequence:
#
# PCOD9286723 Si02
#       6
#     4   8   8   8   8   8
#     4  12  26  40  60 102 142 168 220 290 328 398
#     4   9  21  39  69  96 133 178 220 273 343 397
#     4  10  21  44  66  99 132 175 232 281 324 399
#     4   9  18  40  64  99 132 171 221 281 333 402
#     4   9  20  42  69  95 128 176 230 283 330 379
#     4  11  23  39  68 100 138 174 218 282 346 397
#
# _framework density 23.991879999999998
#
# number of rings (size 3 to 8) (size 9 to 14) (size 15 to 20)
#    0.000    2.182    1.818    1.091    2.545    1.455 
#    3.273    0.909    4.000    0.000    0.000    0.000 
#    0.000    0.000    0.000    0.000    0.000    0.000 
#
# Total GULP energy -122528.683614 kJ/mol
# GULP energy per Si atom -5569.485619 kJ/mol
# Density = 2.393727 g / cm^3
# Si number density = 23.991880 Si / 1000 Ang^3
#
#
#
# Elastic Constant Matrix: (Units=GPa)
#
#
# Indices 1 2 3 4 5 6 
#
# 1 111.6693 48.3654 8.6466 0.0000 13.9496 0.0000
# 2 48.3654 157.9893 22.3842 0.0000 8.6240 0.0000
# 3 8.6466 22.3842 41.2386 0.0000 18.1615 0.0000
# 4 0.0000 0.0000 0.0000 40.4836 0.0000 8.1373
# 5 13.9496 8.6240 18.1615 0.0000 21.1507 0.0000
# 6 0.0000 0.0000 0.0000 8.1373 0.0000 61.9324
#
#
#
# Elastic Compliance Matrix: (Units=1/GPa)
#
#
# Indices 1 2 3 4 5 6 
#
# 1 0.011316 -0.003465 0.003494 0.000000 -0.009051 0.000000
# 2 -0.003465 0.007923 -0.005078 0.000000 0.003415 0.000000
# 3 0.003494 -0.005078 0.042416 0.000000 -0.036655 0.000000
# 4 0.000000 0.000000 0.000000 0.025371 0.000000 -0.003334
# 5 -0.009051 0.003415 -0.036655 0.000000 0.083331 0.000000
# 6 0.000000 0.000000 0.000000 -0.003334 0.000000 0.016585
#
#
# Mechanical properties :
#
#
# Convention : Reuss Voigt Hill
#
# Bulk Modulus (GPa) = 19.39618 52.18772 35.79195
# Shear Modulus (GPa) = 23.33975 40.14674 31.74324
#
# Velocity S-wave (km/s) = 3.12239 4.09509 3.64137
# Velocity P-wave (km/s) = 4.59359 6.64524 5.71228
#
# Compressibility (1/GPa) = 0.05155655
#
# Stress axis : x y z
#
# Youngs Moduli (GPa) = 88.37161 126.20821 23.57599
#
# Poissons Ratio (x) = 0.43733 -0.08238
# Poissons Ratio (y) = 0.30622 0.11973
# Poissons Ratio (z) = -0.30878 0.64093
#
# Static dielectric constant tensor:
#      x y z
#    x 1.958970 0.000000 -0.077920 
#    y 0.000000 1.897650 0.000000 
#    z -0.077920 0.000000 2.138370 
# 
# From -- ./inp_files/103884.got.cif
#   From: 2010.05.17/outbox.cif.g08.bks.cpg/sg15_52_cif.got.tgz:103884.got - 2010.06.03 18:47:42.
