data_PCOD9286419
_publ_section_title
;
Structure prediction by ZEFSAII (Michael W. Deem and Ramdas Pophale) SiO2 
 PCOD9286419
Probable space group: C 2/C
;
_chemical_formula_sum "Si O2"
_cell_formula_units_Z 56
_cell_length_a 12.350226
_cell_length_b 14.393853
_cell_length_c 31.179589
_cell_angle_alpha 90.000000
_cell_angle_beta 30.287503
_cell_angle_gamma 90.000000
_cell_volume 2795.407717
_symmetry_space_group_name_H-M "C 2/C"
_symmetry_group_IT_number 15
_symmetry_cell_setting 'monoclinic'
loop_
_space_group_symop_operation_xyz
x,y,z
-x,y,1/2-z
-x,-y,-z
x,-y,1/2+z
1/2+x,1/2+y,z
1/2-x,1/2+y,1/2-z
1/2-x,1/2-y,-z
1/2+x,1/2-y,1/2+z
loop_
_atom_site_type_symbol
_atom_site_label
_atom_site_fract_x
_atom_site_fract_y
_atom_site_fract_z
Si Si1 0.000205 0.009050 0.098515
Si Si2 0.996901 0.516260 0.949767
Si Si3 0.724768 0.623741 0.400415
Si Si4 0.282912 0.146850 0.256691
Si Si5 0.245994 0.336146 0.832257
Si Si6 0.748328 0.801051 0.338002
Si Si7 0.440420 0.316617 0.453109
O O1 0.898316 0.055401 0.090200
O O2 0.881953 0.063759 0.177323
O O3 0.978365 0.897628 0.106371
O O4 0.253685 0.023400 0.016546
O O5 0.121888 0.428559 0.887982
O O6 0.114667 0.607883 0.892621
O O7 0.000000 0.500000 0.000000
O O8 0.697940 0.729289 0.393366
O O9 0.643852 0.626740 0.476735
O O10 0.981566 0.610359 0.309977
O O11 0.299116 0.177540 0.202476
O O12 0.212167 0.235981 0.308836
O O13 0.500000 0.343690 0.750000
O O14 0.138837 0.251315 0.894627
O O15 0.000000 0.824903 0.250000
O O16 0.250000 0.250000 0.500000
#
# Coordination Sequence:
#
# PCOD9286419 Si02
#       7
#     8   8   8   8   8   8   8
#     4  11  24  39  67  95 125 176 219 276 338 402
#     4  12  24  40  61  93 134 173 219 272 343 417
#     4  10  21  43  68  94 129 167 227 275 327 407
#     4  10  22  43  63  94 132 164 224 282 330 400
#     4  12  26  41  62  96 132 171 220 281 333 413
#     4   9  21  38  65  88 121 172 211 269 338 398
#     4  12  23  43  67  92 130 177 218 272 351 396
#
# _framework density 20.032857
#
# number of rings (size 3 to 8) (size 9 to 14) (size 15 to 20)
#    0.000    1.143    2.857    3.857    0.000    5.714 
#    0.000    0.000    0.000    0.000    0.000    0.000 
#    0.000    0.000    0.000    0.000    0.000    0.000 
#
# Total GULP energy -156365.810178 kJ/mol
# GULP energy per Si atom -5584.493221 kJ/mol
# Density = 1.998726 g / cm^3
# Si number density = 20.032857 Si / 1000 Ang^3
#
#
#
# Elastic Constant Matrix: (Units=GPa)
#
#
# Indices 1 2 3 4 5 6 
#
# 1 69.2654 6.0499 21.7432 -0.0087 -12.0314 0.0174
# 2 6.0499 128.9119 59.5605 0.0047 -27.5134 -0.0013
# 3 21.7432 59.5605 97.9140 0.0193 -13.2319 -0.0089
# 4 -0.0087 0.0047 0.0193 27.4886 0.0007 -10.5923
# 5 -12.0314 -27.5134 -13.2319 0.0007 39.9623 -0.0063
# 6 0.0174 -0.0013 -0.0089 -10.5923 -0.0063 5.3664
#
#
#
# Elastic Compliance Matrix: (Units=1/GPa)
#
#
# Indices 1 2 3 4 5 6 
#
# 1 0.016506 0.002356 -0.004405 -0.000055 0.005133 -0.000163
# 2 0.002356 0.012420 -0.007147 0.000001 0.006894 -0.000007
# 3 -0.004405 -0.007147 0.015383 0.000013 -0.001153 0.000063
# 4 -0.000055 0.000001 0.000013 0.151944 0.000033 0.299911
# 5 0.005133 0.006894 -0.001153 0.000033 0.030934 0.000084
# 6 -0.000163 -0.000007 0.000063 0.299911 0.000084 0.778318
#
#
# Mechanical properties :
#
#
# Convention : Reuss Voigt Hill
#
# Bulk Modulus (GPa) = 38.58380 52.31095 45.44737
# Shear Modulus (GPa) = 4.84246 28.47929 16.66087
#
# Velocity S-wave (km/s) = 1.55644 3.77454 2.88701
# Velocity P-wave (km/s) = 4.74680 6.72053 5.81797
#
# Compressibility (1/GPa) = 0.02591761
#
# Stress axis : x y z
#
# Youngs Moduli (GPa) = 60.58468 80.51594 65.00860
#
# Poissons Ratio (x) = -0.18970 0.28636
# Poissons Ratio (y) = -0.14274 0.46459
# Poissons Ratio (z) = 0.26687 0.57541
#
# Static dielectric constant tensor:
#      x y z
#    x 1.867480 -0.000070 -0.035250 
#    y -0.000070 1.681250 0.000050 
#    z -0.035250 0.000050 1.800440 
# 
# From -- ./inp_files/311292.got.cif
#   From: 2010.05.17/outbox.cif.g08.bks.cpg/sg15_156_cif.got.tgz:311292.got - 2010.06.03 18:47:42.
