data_PCOD9286778
_publ_section_title
;
Structure prediction by ZEFSAII (Michael W. Deem and Ramdas Pophale) SiO2 
 PCOD9286778
Probable space group: C 2/C
;
_chemical_formula_sum "Si O2"
_cell_formula_units_Z 56
_cell_length_a 10.863338
_cell_length_b 16.944877
_cell_length_c 17.324166
_cell_angle_alpha 90.000000
_cell_angle_beta 49.721863
_cell_angle_gamma 90.000000
_cell_volume 2432.933549
_symmetry_space_group_name_H-M "C 2/C"
_symmetry_group_IT_number 15
_symmetry_cell_setting 'monoclinic'
loop_
_space_group_symop_operation_xyz
x,y,z
-x,y,1/2-z
-x,-y,-z
x,-y,1/2+z
1/2+x,1/2+y,z
1/2-x,1/2+y,1/2-z
1/2-x,1/2-y,-z
1/2+x,1/2-y,1/2+z
loop_
_atom_site_type_symbol
_atom_site_label
_atom_site_fract_x
_atom_site_fract_y
_atom_site_fract_z
Si Si1 0.408332 0.222539 0.366471
Si Si2 0.574084 0.211427 0.976405
Si Si3 0.864736 0.177974 0.476769
Si Si4 0.093185 0.552198 0.882903
Si Si5 0.809076 0.412798 0.315131
Si Si6 0.863501 0.972769 0.869694
Si Si7 0.792838 0.455295 0.930443
O O1 0.500000 0.229894 0.250000
O O2 0.504919 0.229329 0.407972
O O3 0.262833 0.284504 0.419620
O O4 0.336375 0.134334 0.400518
O O5 0.530144 0.280139 0.934507
O O6 0.534528 0.126800 0.956720
O O7 0.750000 0.250000 0.500000
O O8 0.790354 0.138479 0.583858
O O9 0.873891 0.113208 0.405632
O O10 0.206391 0.589942 0.770177
O O11 0.200106 0.493360 0.889744
O O12 0.947207 0.504166 0.902302
O O13 0.767050 0.501778 0.359471
O O14 0.000000 0.394734 0.250000
O O15 0.000000 0.983522 0.750000
O O16 0.850637 0.030176 0.950139
#
# Coordination Sequence:
#
# PCOD9286778 Si02
#       7
#     8   8   8   8   8   8   8
#     4  11  25  44  70  98 138 181 230 277 344 407
#     4  11  26  44  65 103 139 178 226 285 341 407
#     4  11  25  44  65 102 145 179 224 288 346 412
#     4  11  22  43  71  94 129 182 229 277 334 407
#     4   9  20  38  66  98 128 174 228 281 336 402
#     4  11  25  41  67 101 135 174 224 282 344 399
#     4  10  21  44  68  98 129 172 238 274 323 413
#
# _framework density 23.017481
#
# number of rings (size 3 to 8) (size 9 to 14) (size 15 to 20)
#    0.000    1.429    1.429    4.286    4.000    5.714 
#    0.000    2.857    0.000    0.000    0.000    0.000 
#    0.000    0.000    0.000    0.000    0.000    0.000 
#
# Total GULP energy -156432.796952 kJ/mol
# GULP energy per Si atom -5586.885605 kJ/mol
# Density = 2.296509 g / cm^3
# Si number density = 23.017481 Si / 1000 Ang^3
#
#
#
# Elastic Constant Matrix: (Units=GPa)
#
#
# Indices 1 2 3 4 5 6 
#
# 1 54.7420 20.2995 15.1878 -0.0003 20.9687 0.0001
# 2 20.2995 60.2063 -3.1323 -0.0004 -1.0897 0.0000
# 3 15.1878 -3.1323 133.2954 -0.0007 16.9638 0.0001
# 4 -0.0003 -0.0004 -0.0007 16.1905 0.0002 9.3680
# 5 20.9687 -1.0897 16.9638 0.0002 30.8654 0.0000
# 6 0.0001 0.0000 0.0001 9.3680 0.0000 37.8691
#
#
#
# Elastic Compliance Matrix: (Units=1/GPa)
#
#
# Indices 1 2 3 4 5 6 
#
# 1 0.030328 -0.010652 -0.001114 0.000001 -0.020368 0.000000
# 2 -0.010652 0.020376 0.000731 0.000000 0.007554 0.000000
# 3 -0.001114 0.000731 0.008114 0.000000 -0.003677 0.000000
# 4 0.000001 0.000000 0.000000 0.072082 -0.000001 -0.017832
# 5 -0.020368 0.007554 -0.003677 -0.000001 0.048523 0.000000
# 6 0.000000 0.000000 0.000000 -0.017832 0.000000 0.030818
#
#
# Mechanical properties :
#
#
# Convention : Reuss Voigt Hill
#
# Bulk Modulus (GPa) = 27.21196 34.77262 30.99229
# Shear Modulus (GPa) = 20.44474 31.37759 25.91117
#
# Velocity S-wave (km/s) = 2.98355 3.69617 3.35881
# Velocity P-wave (km/s) = 4.86998 5.77541 5.34191
#
# Compressibility (1/GPa) = 0.03674854
#
# Stress axis : x y z
#
# Youngs Moduli (GPa) = 32.97233 49.07752 123.24089
#
# Poissons Ratio (x) = 0.52279 0.13727
# Poissons Ratio (y) = 0.35123 -0.09011
# Poissons Ratio (z) = 0.03673 -0.03588
#
# Static dielectric constant tensor:
#      x y z
#    x 1.946870 0.000000 0.010530 
#    y 0.000000 1.824730 0.000000 
#    z 0.010530 0.000000 1.937340 
# 
# From -- ./inp_files/199459.got.cif
#   From: 2010.05.17/outbox.cif.g08.bks.cpg/sg15_100_cif.got.tgz:199459.got - 2010.06.03 18:47:42.
