data_PCOD9286486
_publ_section_title
;
Structure prediction by ZEFSAII (Michael W. Deem and Ramdas Pophale) SiO2 
 PCOD9286486
Probable space group: C 2/C
;
_chemical_formula_sum "Si O2"
_cell_formula_units_Z 48
_cell_length_a 18.188787
_cell_length_b 5.050766
_cell_length_c 22.035709
_cell_angle_alpha 90.000000
_cell_angle_beta 80.814427
_cell_angle_gamma 90.000000
_cell_volume 1998.401829
_symmetry_space_group_name_H-M "C 2/C"
_symmetry_group_IT_number 15
_symmetry_cell_setting 'monoclinic'
loop_
_space_group_symop_operation_xyz
x,y,z
-x,y,1/2-z
-x,-y,-z
x,-y,1/2+z
1/2+x,1/2+y,z
1/2-x,1/2+y,1/2-z
1/2-x,1/2-y,-z
1/2+x,1/2-y,1/2+z
loop_
_atom_site_type_symbol
_atom_site_label
_atom_site_fract_x
_atom_site_fract_y
_atom_site_fract_z
Si Si1 0.707882 0.344526 0.275061
Si Si2 0.571331 0.818043 0.980799
Si Si3 0.045826 0.098201 0.584966
Si Si4 0.826297 0.436395 0.901401
Si Si5 0.226135 0.588745 0.404861
Si Si6 0.074875 0.283602 0.710000
O O1 0.739214 0.641629 0.269468
O O2 0.709129 0.211242 0.340879
O O3 0.627559 0.342593 0.253694
O O4 0.576378 0.634090 0.039153
O O5 0.648047 0.939378 0.948464
O O6 0.537533 0.645305 0.928071
O O7 0.500000 0.000000 0.000000
O O8 0.106095 0.333384 0.566091
O O9 0.051247 0.086802 0.657496
O O10 0.777543 0.682393 0.927212
O O11 0.871646 0.490494 0.832677
O O12 0.772750 0.182304 0.898838
O O13 0.000000 0.390989 0.750000
#
# Coordination Sequence:
#
# PCOD9286486 Si02
#       6
#     8   8   8   8   8   8
#     4  12  21  43  67 100 137 172 224 277 334 415
#     4  11  26  44  71  94 140 184 236 288 346 409
#     4   9  23  46  63 101 137 173 239 279 343 417
#     4  10  25  44  69 102 138 175 235 275 348 413
#     4  12  24  46  70 103 138 185 225 288 342 414
#     4  10  21  43  69  99 139 178 221 285 345 412
#
# _framework density 24.019190999999999
#
# number of rings (size 3 to 8) (size 9 to 14) (size 15 to 20)
#    1.000    0.333    3.333    1.000    7.000    1.333 
#    6.000    3.333    0.000    0.000    0.000    0.000 
#    0.000    0.000    0.000    0.000    0.000    0.000 
#
# Total GULP energy -134039.477137 kJ/mol
# GULP energy per Si atom -5584.978214 kJ/mol
# Density = 2.396452 g / cm^3
# Si number density = 24.019191 Si / 1000 Ang^3
#
#
#
# Elastic Constant Matrix: (Units=GPa)
#
#
# Indices 1 2 3 4 5 6 
#
# 1 180.1896 44.0377 38.9107 0.0000 -15.8236 0.0000
# 2 44.0377 88.7389 17.6663 0.0000 4.2443 0.0000
# 3 38.9107 17.6663 100.7747 0.0000 8.4064 0.0000
# 4 0.0000 0.0000 0.0000 26.0810 0.0000 6.1832
# 5 -15.8236 4.2443 8.4064 0.0000 39.1067 0.0000
# 6 0.0000 0.0000 0.0000 6.1832 0.0000 28.2083
#
#
#
# Elastic Compliance Matrix: (Units=1/GPa)
#
#
# Indices 1 2 3 4 5 6 
#
# 1 0.007232 -0.003267 -0.002539 0.000000 0.003827 0.000000
# 2 -0.003267 0.013179 -0.000834 0.000000 -0.002573 0.000000
# 3 -0.002539 -0.000834 0.011331 0.000000 -0.003373 0.000000
# 4 0.000000 0.000000 0.000000 0.040444 0.000000 -0.008865
# 5 0.003827 -0.002573 -0.003373 0.000000 0.028124 0.000000
# 6 0.000000 0.000000 0.000000 -0.008865 0.000000 0.037394
#
#
# Mechanical properties :
#
#
# Convention : Reuss Voigt Hill
#
# Bulk Modulus (GPa) = 54.16429 63.43696 58.80063
# Shear Modulus (GPa) = 31.81897 36.61843 34.21870
#
# Velocity S-wave (km/s) = 3.64363 3.90878 3.77853
# Velocity P-wave (km/s) = 6.34829 6.84396 6.60078
#
# Compressibility (1/GPa) = 0.01846235
#
# Stress axis : x y z
#
# Youngs Moduli (GPa) = 138.26571 75.87625 88.25240
#
# Poissons Ratio (x) = 0.24787 0.22408
# Poissons Ratio (y) = 0.45168 0.07364
# Poissons Ratio (z) = 0.35107 0.06331
#
# Static dielectric constant tensor:
#      x y z
#    x 1.863820 0.000000 0.015990 
#    y 0.000000 2.000630 0.000000 
#    z 0.015990 0.000000 2.073710 
# 
# From -- ./inp_files/314724.got.cif
#   From: 2010.05.17/outbox.cif.g08.bks.cpg/sg15_158_cif.got.tgz:314724.got - 2010.06.03 18:47:42.
