data_PCOD9286236
_publ_section_title
;
Structure prediction by ZEFSAII (Michael W. Deem and Ramdas Pophale) SiO2 
 PCOD9286236
Probable space group: C 2/C
;
_chemical_formula_sum "Si O2"
_cell_formula_units_Z 40
_cell_length_a 12.367637
_cell_length_b 14.411081
_cell_length_c 11.358283
_cell_angle_alpha 90.000000
_cell_angle_beta 102.401907
_cell_angle_gamma 90.000000
_cell_volume 1977.159278
_symmetry_space_group_name_H-M "C 2/C"
_symmetry_group_IT_number 15
_symmetry_cell_setting 'monoclinic'
loop_
_space_group_symop_operation_xyz
x,y,z
-x,y,1/2-z
-x,-y,-z
x,-y,1/2+z
1/2+x,1/2+y,z
1/2-x,1/2+y,1/2-z
1/2-x,1/2-y,-z
1/2+x,1/2-y,1/2+z
loop_
_atom_site_type_symbol
_atom_site_label
_atom_site_fract_x
_atom_site_fract_y
_atom_site_fract_z
Si Si1 0.845708 0.757561 0.923320
Si Si2 0.285752 0.855536 0.984450
Si Si3 0.253623 0.382726 0.274150
Si Si4 0.447191 0.769607 0.862596
Si Si5 0.369709 0.574981 0.240308
O O1 0.826491 0.665715 0.839335
O O2 0.842821 0.844728 0.831286
O O3 0.750000 0.750000 0.000000
O O4 0.959355 0.762405 0.023311
O O5 0.383339 0.852825 0.912659
O O6 0.181101 0.899466 0.897586
O O7 0.250000 0.750000 0.000000
O O8 0.310038 0.895287 0.117508
O O9 0.355761 0.309848 0.315140
O O10 0.310811 0.479206 0.258310
O O11 0.500000 0.795027 0.750000
O O12 0.500000 0.565767 0.250000
#
# Coordination Sequence:
#
# PCOD9286236 Si02
#       5
#     8   8   8   8   8
#     4  12  25  43  71  98 139 192 225 274 360 409
#     4  10  21  43  64  94 141 177 219 281 341 408
#     4  11  25  42  67 108 140 170 234 291 339 407
#     4  11  21  42  70  95 138 181 229 282 342 409
#     4  12  25  42  75 106 134 176 232 294 343 405
#
# _framework density 20.231047
#
# number of rings (size 3 to 8) (size 9 to 14) (size 15 to 20)
#    0.000    0.800    6.000    3.000    2.800    1.600 
#    0.000    1.000    4.400    0.000    0.000    0.000 
#    0.000    0.000    0.000    0.000    0.000    0.000 
#
# Total GULP energy -111622.147039 kJ/mol
# GULP energy per Si atom -5581.107352 kJ/mol
# Density = 2.018500 g / cm^3
# Si number density = 20.231047 Si / 1000 Ang^3
#
#
#
# Elastic Constant Matrix: (Units=GPa)
#
#
# Indices 1 2 3 4 5 6 
#
# 1 35.8195 21.7907 16.2965 0.0000 -19.4135 0.0000
# 2 21.7907 77.6822 22.7307 0.0000 -22.7071 0.0000
# 3 16.2965 22.7307 126.2026 0.0000 -20.4888 0.0000
# 4 0.0000 0.0000 0.0000 10.6281 0.0000 -7.3914
# 5 -19.4135 -22.7071 -20.4888 0.0000 45.5830 0.0000
# 6 0.0000 0.0000 0.0000 -7.3914 0.0000 27.7066
#
#
#
# Elastic Compliance Matrix: (Units=1/GPa)
#
#
# Indices 1 2 3 4 5 6 
#
# 1 0.039849 -0.006930 -0.001837 0.000000 0.012694 0.000000
# 2 -0.006930 0.016583 -0.001327 0.000000 0.004713 0.000000
# 3 -0.001837 -0.001327 0.008808 0.000000 0.002516 0.000000
# 4 0.000000 0.000000 0.000000 0.115524 0.000000 0.030819
# 5 0.012694 0.004713 0.002516 0.000000 0.030823 0.000000
# 6 0.000000 0.000000 0.000000 0.030819 0.000000 0.044314
#
#
# Mechanical properties :
#
#
# Convention : Reuss Voigt Hill
#
# Bulk Modulus (GPa) = 22.19618 40.14892 31.17255
# Shear Modulus (GPa) = 17.17587 28.70930 22.94259
#
# Velocity S-wave (km/s) = 2.91690 3.77114 3.37119
# Velocity P-wave (km/s) = 4.72647 6.23300 5.53127
#
# Compressibility (1/GPa) = 0.04505280
#
# Stress axis : x y z
#
# Youngs Moduli (GPa) = 25.09471 60.30358 113.52821
#
# Poissons Ratio (x) = 0.41792 0.20852
# Poissons Ratio (y) = 0.17391 0.15062
# Poissons Ratio (z) = 0.04609 0.08001
#
# Static dielectric constant tensor:
#      x y z
#    x 1.759540 0.000000 -0.008800 
#    y 0.000000 1.630700 0.000000 
#    z -0.008800 0.000000 1.738220 
# 
# From -- ./inp_files/86232.got.cif
#   From: 2010.05.17/outbox.cif.g08.bks.cpg/sg15_44_cif.got.tgz:86232.got - 2010.06.03 18:47:42.
