data_PCOD9286003
_publ_section_title
;
Structure prediction by ZEFSAII (Michael W. Deem and Ramdas Pophale) SiO2 
 PCOD9286003
Probable space group: C 2/C
;
_chemical_formula_sum "Si O2"
_cell_formula_units_Z 40
_cell_length_a 13.668835
_cell_length_b 8.966081
_cell_length_c 13.545098
_cell_angle_alpha 90.000000
_cell_angle_beta 105.586755
_cell_angle_gamma 90.000000
_cell_volume 1598.983287
_symmetry_space_group_name_H-M "C 2/C"
_symmetry_group_IT_number 15
_symmetry_cell_setting 'monoclinic'
loop_
_space_group_symop_operation_xyz
x,y,z
-x,y,1/2-z
-x,-y,-z
x,-y,1/2+z
1/2+x,1/2+y,z
1/2-x,1/2+y,1/2-z
1/2-x,1/2-y,-z
1/2+x,1/2-y,1/2+z
loop_
_atom_site_type_symbol
_atom_site_label
_atom_site_fract_x
_atom_site_fract_y
_atom_site_fract_z
Si Si1 0.579762 0.546772 0.875538
Si Si2 0.772856 0.852593 0.698325
Si Si3 0.629240 0.613271 0.579199
Si Si4 0.391746 0.065013 0.492904
Si Si5 0.199447 0.668379 0.393485
O O1 0.621996 0.413472 0.817547
O O2 0.462112 0.567670 0.873203
O O3 0.616067 0.705420 0.842506
O O4 0.633841 0.510755 0.995829
O O5 0.765221 0.861931 0.813638
O O6 0.728400 0.689154 0.656261
O O7 0.689190 0.956630 0.618711
O O8 0.595959 0.757371 0.503441
O O9 0.500000 0.000000 0.500000
O O10 0.352798 0.979970 0.578356
O O11 0.250000 0.750000 0.500000
#
# Coordination Sequence:
#
# PCOD9286003 Si02
#       5
#     8   8   8   8   8
#     4  11  21  41  70 100 136 186 232 294 354 428
#     4  10  24  41  69 100 143 181 231 298 365 422
#     4   9  22  41  68  99 140 183 230 291 360 423
#     4  10  21  42  69  97 135 183 227 295 359 424
#     4  12  23  42  70  98 136 182 243 288 354 440
#
# _framework density 25.015895
#
# number of rings (size 3 to 8) (size 9 to 14) (size 15 to 20)
#    1.200    0.400    4.000    0.600    0.000    6.400 
#    0.000    2.000    0.000    0.000    0.000    0.000 
#    0.000    0.000    0.000    0.000    0.000    0.000 
#
# Total GULP energy -111635.805584 kJ/mol
# GULP energy per Si atom -5581.790279 kJ/mol
# Density = 2.495896 g / cm^3
# Si number density = 25.015895 Si / 1000 Ang^3
#
#
#
# Elastic Constant Matrix: (Units=GPa)
#
#
# Indices 1 2 3 4 5 6 
#
# 1 233.8497 97.8251 58.3992 0.0000 -32.5770 0.0000
# 2 97.8251 126.3830 53.4689 0.0000 -4.1325 0.0000
# 3 58.3992 53.4689 113.2524 0.0000 -35.4031 0.0000
# 4 0.0000 0.0000 0.0000 28.2603 0.0000 -3.1947
# 5 -32.5770 -4.1325 -35.4031 0.0000 39.1335 0.0000
# 6 0.0000 0.0000 0.0000 -3.1947 0.0000 64.7492
#
#
#
# Elastic Compliance Matrix: (Units=1/GPa)
#
#
# Indices 1 2 3 4 5 6 
#
# 1 0.007415 -0.005953 0.001004 0.000000 0.006452 0.000000
# 2 -0.005953 0.015251 -0.007217 0.000000 -0.009875 0.000000
# 3 0.001004 -0.007217 0.016373 0.000000 0.014886 0.000000
# 4 0.000000 0.000000 0.000000 0.035584 0.000000 0.001756
# 5 0.006452 -0.009875 0.014886 0.000000 0.043349 0.000000
# 6 0.000000 0.000000 0.000000 0.001756 0.000000 0.015531
#
#
# Mechanical properties :
#
#
# Convention : Reuss Voigt Hill
#
# Bulk Modulus (GPa) = 67.99998 99.20794 83.60396
# Shear Modulus (GPa) = 30.72448 44.01472 37.36960
#
# Velocity S-wave (km/s) = 3.50837 4.19915 3.86921
# Velocity P-wave (km/s) = 6.60706 7.95328 7.31122
#
# Compressibility (1/GPa) = 0.01470589
#
# Stress axis : x y z
#
# Youngs Moduli (GPa) = 134.86856 65.56988 61.07636
#
# Poissons Ratio (x) = 0.39034 -0.06133
# Poissons Ratio (y) = 0.80288 0.44081
# Poissons Ratio (z) = -0.13543 0.47324
#
# Static dielectric constant tensor:
#      x y z
#    x 1.950780 0.000000 0.038820 
#    y 0.000000 2.071000 0.000000 
#    z 0.038820 0.000000 2.055900 
# 
# From -- ./inp_files/273356.got.cif
#   From: 2010.05.17/outbox.cif.g08.bks.cpg/sg15_137_cif.got.tgz:273356.got - 2010.06.03 18:47:42.
