data_PCOD9286455
_publ_section_title
;
Structure prediction by ZEFSAII (Michael W. Deem and Ramdas Pophale) SiO2 
 PCOD9286455
Probable space group: C 2/C
;
_chemical_formula_sum "Si O2"
_cell_formula_units_Z 32
_cell_length_a 10.255895
_cell_length_b 22.296349
_cell_length_c 16.742437
_cell_angle_alpha 90.000000
_cell_angle_beta 27.117132
_cell_angle_gamma 90.000000
_cell_volume 1745.061996
_symmetry_space_group_name_H-M "C 2/C"
_symmetry_group_IT_number 15
_symmetry_cell_setting 'monoclinic'
loop_
_space_group_symop_operation_xyz
x,y,z
-x,y,1/2-z
-x,-y,-z
x,-y,1/2+z
1/2+x,1/2+y,z
1/2-x,1/2+y,1/2-z
1/2-x,1/2-y,-z
1/2+x,1/2-y,1/2+z
loop_
_atom_site_type_symbol
_atom_site_label
_atom_site_fract_x
_atom_site_fract_y
_atom_site_fract_z
Si Si1 0.797475 0.534891 0.047406
Si Si2 0.760513 0.930777 0.547661
Si Si3 0.838611 0.623563 0.756636
Si Si4 0.912444 0.810392 0.389818
O O1 0.500000 0.553676 0.250000
O O2 0.724358 0.486885 0.018654
O O3 0.000000 0.500000 0.000000
O O4 0.965567 0.589031 0.913980
O O5 0.500000 0.936740 0.750000
O O6 0.729273 0.869814 0.512051
O O7 0.066737 0.920078 0.422865
O O8 0.691744 0.680007 0.793157
O O9 0.000000 0.637085 0.750000
O O10 0.750000 0.750000 0.500000
O O11 0.000000 0.811649 0.250000
#
# Coordination Sequence:
#
# PCOD9286455 Si02
#       4
#     8   8   8   8
#     4  12  22  37  60  96 139 172 214 258 315 386
#     4  10  22  38  63  91 129 174 210 252 325 377
#     4  10  24  41  61  98 132 165 219 263 321 379
#     4  10  21  43  69  91 119 166 218 263 321 387
#
# _framework density 18.337457000000001
#
# number of rings (size 3 to 8) (size 9 to 14) (size 15 to 20)
#    1.500    0.000    2.500    3.750    3.500    2.000 
#    0.000    1.250    0.000    0.000    0.000    0.000 
#    0.000    0.000    0.000    0.000    0.000    0.000 
#
# Total GULP energy -89236.728453 kJ/mol
# GULP energy per Si atom -5577.295528 kJ/mol
# Density = 1.829572 g / cm^3
# Si number density = 18.337457 Si / 1000 Ang^3
#
#
#
# Elastic Constant Matrix: (Units=GPa)
#
#
# Indices 1 2 3 4 5 6 
#
# 1 154.9035 33.9379 52.3380 0.0133 -6.0259 0.0149
# 2 33.9379 94.8003 39.0479 0.0331 1.3375 0.0339
# 3 52.3380 39.0479 155.6507 0.0695 6.8360 0.0796
# 4 0.0133 0.0331 0.0695 26.7579 0.0147 -18.3135
# 5 -6.0259 1.3375 6.8360 0.0147 32.2086 -0.0022
# 6 0.0149 0.0339 0.0796 -18.3135 -0.0022 5.8348
#
#
#
# Elastic Compliance Matrix: (Units=1/GPa)
#
#
# Indices 1 2 3 4 5 6 
#
# 1 0.007687 -0.001873 -0.002202 -0.000016 0.001983 -0.000028
# 2 -0.001873 0.012221 -0.002421 0.000027 -0.000344 0.000050
# 3 -0.002202 -0.002421 0.007859 0.000066 -0.001980 0.000119
# 4 -0.000016 0.000027 0.000066 -0.032549 -0.000010 -0.102162
# 5 0.001983 -0.000344 -0.001980 -0.000010 0.031853 0.000004
# 6 -0.000028 0.000050 0.000119 -0.102162 0.000004 -0.149268
#
#
# Mechanical properties :
#
#
# Convention : Reuss Voigt Hill
#
# Bulk Modulus (GPa) = 67.67965 72.88913 70.28439
# Shear Modulus (GPa) = -47.94812 31.62896 -8.15958
#
# Velocity S-wave (km/s) = -5.11902 4.15761 -2.11171
# Velocity P-wave (km/s) = 1.43136 7.92986 5.69787
#
# Compressibility (1/GPa) = 0.01477549
#
# Stress axis : x y z
#
# Youngs Moduli (GPa) = 130.08729 81.82623 127.23779
#
# Poissons Ratio (x) = 0.15325 0.28019
# Poissons Ratio (y) = 0.24364 0.30805
# Poissons Ratio (z) = 0.28646 0.19810
#
# Static dielectric constant tensor:
#      x y z
#    x 1.641430 0.000000 -0.004080 
#    y 0.000000 1.618150 0.000060 
#    z -0.004080 0.000060 1.734980 
# 
# From -- ./inp_files/23004.got.cif
#   From: 2010.05.17/outbox.cif.g08.bks.cpg/sg15_12_cif.got.tgz:23004.got - 2010.06.03 18:47:42.
