data_PCOD9286689
_publ_section_title
;
Structure prediction by ZEFSAII (Michael W. Deem and Ramdas Pophale) SiO2 
 PCOD9286689
Probable space group: C 2/C
;
_chemical_formula_sum "Si O2"
_cell_formula_units_Z 60
_cell_length_a 15.535005
_cell_length_b 11.300635
_cell_length_c 14.725285
_cell_angle_alpha 90.000000
_cell_angle_beta 74.561088
_cell_angle_gamma 90.000000
_cell_volume 2491.819711
_symmetry_space_group_name_H-M "C 2/C"
_symmetry_group_IT_number 15
_symmetry_cell_setting 'monoclinic'
loop_
_space_group_symop_operation_xyz
x,y,z
-x,y,1/2-z
-x,-y,-z
x,-y,1/2+z
1/2+x,1/2+y,z
1/2-x,1/2+y,1/2-z
1/2-x,1/2-y,-z
1/2+x,1/2-y,1/2+z
loop_
_atom_site_type_symbol
_atom_site_label
_atom_site_fract_x
_atom_site_fract_y
_atom_site_fract_z
Si Si1 0.322710 0.732060 0.056095
Si Si2 0.074951 0.368424 0.337237
Si Si3 0.777618 0.327224 0.361623
Si Si4 0.000000 0.426001 0.750000
Si Si5 0.678355 0.774134 0.733041
Si Si6 0.623114 0.508390 0.944111
Si Si7 0.404501 0.535753 0.758694
Si Si8 0.423658 0.324210 0.892571
O O1 0.377166 0.844198 0.079319
O O2 0.266454 0.681826 0.157942
O O3 0.381465 0.620494 0.010459
O O4 0.250000 0.750000 0.000000
O O5 0.151882 0.365038 0.237869
O O6 0.015698 0.483949 0.331053
O O7 0.009444 0.255577 0.348167
O O8 0.705097 0.241518 0.331333
O O9 0.723308 0.436757 0.416603
O O10 0.838603 0.261851 0.417217
O O11 0.090494 0.347395 0.730241
O O12 0.666775 0.637641 0.704301
O O13 0.597060 0.504725 0.846551
O O14 0.568333 0.602500 0.017748
O O15 0.500000 0.593486 0.750000
O O16 0.401028 0.420360 0.821374
#
# Coordination Sequence:
#
# PCOD9286689 Si02
#       8
#     8   8   8   4   8   8   8   8
#     4  11  24  43  62  98 138 187 228 289 365 432
#     4  11  24  42  71  98 131 189 239 291 360 433
#     4  10  21  44  66 100 135 185 233 288 365 423
#     4  12  22  44  68 102 134 178 246 298 354 436
#     4  10  23  40  68  95 132 183 235 282 361 429
#     4  11  25  39  68 101 140 179 238 298 346 433
#     4  11  22  41  66  96 134 177 232 297 353 413
#     4  12  23  42  69 105 138 184 240 298 358 427
#
# _framework density 24.078789
#
# number of rings (size 3 to 8) (size 9 to 14) (size 15 to 20)
#    0.000    1.067    2.000    5.200    0.000    6.400 
#    0.000    0.667    0.000    0.000    0.000    0.000 
#    0.000    0.000    0.000    0.000    0.000    0.000 
#
# Total GULP energy -167680.344465 kJ/mol
# GULP energy per Si atom -5589.344815 kJ/mol
# Density = 2.402398 g / cm^3
# Si number density = 24.078789 Si / 1000 Ang^3
#
#
#
# Elastic Constant Matrix: (Units=GPa)
#
#
# Indices 1 2 3 4 5 6 
#
# 1 122.2084 29.2737 8.4280 0.0000 20.5231 0.0000
# 2 29.2737 83.0420 10.7105 0.0000 7.9361 0.0000
# 3 8.4280 10.7105 60.4649 0.0000 21.1746 0.0000
# 4 0.0000 0.0000 0.0000 23.1917 0.0000 4.9824
# 5 20.5231 7.9361 21.1746 0.0000 52.2216 0.0000
# 6 0.0000 0.0000 0.0000 4.9824 0.0000 48.3115
#
#
#
# Elastic Compliance Matrix: (Units=1/GPa)
#
#
# Indices 1 2 3 4 5 6 
#
# 1 0.009462 -0.003063 0.000423 0.000000 -0.003425 0.000000
# 2 -0.003063 0.013375 -0.001925 0.000000 -0.000048 0.000000
# 3 0.000423 -0.001925 0.019553 0.000000 -0.007802 0.000000
# 4 0.000000 0.000000 0.000000 0.044096 0.000000 -0.004548
# 5 -0.003425 -0.000048 -0.007802 0.000000 0.023666 0.000000
# 6 0.000000 0.000000 0.000000 -0.004548 0.000000 0.021168
#
#
# Mechanical properties :
#
#
# Convention : Reuss Voigt Hill
#
# Bulk Modulus (GPa) = 30.06679 40.28221 35.17450
# Shear Modulus (GPa) = 32.99529 39.23184 36.11357
#
# Velocity S-wave (km/s) = 3.70578 4.04085 3.87694
# Velocity P-wave (km/s) = 5.55197 6.20781 5.88903
#
# Compressibility (1/GPa) = 0.03325929
#
# Stress axis : x y z
#
# Youngs Moduli (GPa) = 105.68142 74.76776 51.14364
#
# Poissons Ratio (x) = 0.22901 -0.02163
# Poissons Ratio (y) = 0.32369 0.09847
# Poissons Ratio (z) = -0.04470 0.14395
#
# Static dielectric constant tensor:
#      x y z
#    x 1.967540 0.000000 0.002080 
#    y 0.000000 1.944250 0.000000 
#    z 0.002080 0.000000 1.980680 
# 
# From -- ./inp_files/243376.got.cif
#   From: 2010.05.17/outbox.cif.g08.bks.cpg/sg15_122_cif.got.tgz:243376.got - 2010.06.03 18:47:42.
