data_PCOD9286552
_publ_section_title
;
Structure prediction by ZEFSAII (Michael W. Deem and Ramdas Pophale) SiO2 
 PCOD9286552
Probable space group: C 2/C
;
_chemical_formula_sum "Si O2"
_cell_formula_units_Z 36
_cell_length_a 7.755940
_cell_length_b 28.014413
_cell_length_c 10.944043
_cell_angle_alpha 90.000000
_cell_angle_beta 41.777793
_cell_angle_gamma 90.000000
_cell_volume 1584.261008
_symmetry_space_group_name_H-M "C 2/C"
_symmetry_group_IT_number 15
_symmetry_cell_setting 'monoclinic'
loop_
_space_group_symop_operation_xyz
x,y,z
-x,y,1/2-z
-x,-y,-z
x,-y,1/2+z
1/2+x,1/2+y,z
1/2-x,1/2+y,1/2-z
1/2-x,1/2-y,-z
1/2+x,1/2-y,1/2+z
loop_
_atom_site_type_symbol
_atom_site_label
_atom_site_fract_x
_atom_site_fract_y
_atom_site_fract_z
Si Si1 0.052085 0.650729 0.093943
Si Si2 0.000000 0.911481 0.250000
Si Si3 0.974132 0.108606 0.132919
Si Si4 0.334035 0.195211 0.959361
Si Si5 0.768216 0.034342 0.662117
O O1 0.000000 0.678729 0.250000
O O2 0.829240 0.610641 0.228753
O O3 0.324150 0.623901 0.926737
O O4 0.982041 0.679699 0.006585
O O5 0.195105 0.946994 0.219260
O O6 0.000000 0.084033 0.250000
O O7 0.080331 0.162287 0.085162
O O8 0.169356 0.082768 0.942304
O O9 0.500000 0.185832 0.750000
O O10 0.250000 0.250000 0.000000
O O11 0.500000 0.015513 0.750000
O O12 0.000000 0.000000 0.500000
#
# Coordination Sequence:
#
# PCOD9286552 Si02
#       5
#     8   4   8   8   8
#     4  11  23  43  77 106 144 191 243 313 378 444
#     4  12  26  48  78 108 152 196 254 312 386 446
#     4  10  21  43  71  97 142 186 240 302 378 440
#     4  11  23  44  74 106 143 194 247 301 380 461
#     4  12  28  45  72 110 149 199 256 309 377 450
#
# _framework density 22.723528999999999
#
# number of rings (size 3 to 8) (size 9 to 14) (size 15 to 20)
#    0.000    0.889    2.222    6.667    4.667    0.889 
#    0.000    4.444    2.444    0.000    0.000    0.000 
#    0.000    0.000    0.000    0.000    0.000    0.000 
#
# Total GULP energy -100394.347767 kJ/mol
# GULP energy per Si atom -5577.463765 kJ/mol
# Density = 2.267181 g / cm^3
# Si number density = 22.723529 Si / 1000 Ang^3
#
#
#
# Elastic Constant Matrix: (Units=GPa)
#
#
# Indices 1 2 3 4 5 6 
#
# 1 136.7014 20.0577 51.7315 0.0000 3.4445 0.0000
# 2 20.0577 78.6765 13.5675 0.0000 -7.6333 0.0000
# 3 51.7315 13.5675 145.0420 0.0000 1.1058 0.0000
# 4 0.0000 0.0000 0.0000 -6.7130 0.0000 -3.4468
# 5 3.4445 -7.6333 1.1058 0.0000 54.6997 0.0000
# 6 0.0000 0.0000 0.0000 -3.4468 0.0000 15.6882
#
#
#
# Elastic Compliance Matrix: (Units=1/GPa)
#
#
# Indices 1 2 3 4 5 6 
#
# 1 0.008705 -0.001785 -0.002932 0.000000 -0.000738 0.000000
# 2 -0.001785 0.013470 -0.000639 0.000000 0.002005 0.000000
# 3 -0.002932 -0.000639 0.008001 0.000000 -0.000066 0.000000
# 4 0.000000 0.000000 0.000000 -0.133864 0.000000 -0.029411
# 5 -0.000738 0.002005 -0.000066 0.000000 0.018609 0.000000
# 6 0.000000 0.000000 0.000000 -0.029411 0.000000 0.057280
#
#
# Mechanical properties :
#
#
# Convention : Reuss Voigt Hill
#
# Bulk Modulus (GPa) = 51.37731 59.01483 55.19607
# Shear Modulus (GPa) = -471.79119 31.07252 -220.35933
#
# Velocity S-wave (km/s) = -14.42474 3.70187 -9.85823
# Velocity P-wave (km/s) = 15.96158 6.65575 10.25848
#
# Compressibility (1/GPa) = 0.01946384
#
# Stress axis : x y z
#
# Youngs Moduli (GPa) = 114.87097 74.23873 124.99000
#
# Poissons Ratio (x) = 0.13254 0.36651
# Poissons Ratio (y) = 0.20508 0.07981
# Poissons Ratio (z) = 0.33684 0.04740
#
# Static dielectric constant tensor:
#      x y z
#    x 2.041930 0.000000 0.080360 
#    y 0.000000 1.942480 0.000000 
#    z 0.080360 0.000000 1.926330 
# 
# From -- ./inp_files/81739.got.cif
#   From: 2010.05.17/outbox.cif.g08.bks.cpg/sg15_41_cif.got.tgz:81739.got - 2010.06.03 18:47:42.
