data_PCOD9286707
_publ_section_title
;
Structure prediction by ZEFSAII (Michael W. Deem and Ramdas Pophale) SiO2 
 PCOD9286707
Probable space group: C 2/C
;
_chemical_formula_sum "Si O2"
_cell_formula_units_Z 56
_cell_length_a 17.200271
_cell_length_b 12.567645
_cell_length_c 14.362916
_cell_angle_alpha 90.000000
_cell_angle_beta 48.580344
_cell_angle_gamma 90.000000
_cell_volume 2328.230593
_symmetry_space_group_name_H-M "C 2/C"
_symmetry_group_IT_number 15
_symmetry_cell_setting 'monoclinic'
loop_
_space_group_symop_operation_xyz
x,y,z
-x,y,1/2-z
-x,-y,-z
x,-y,1/2+z
1/2+x,1/2+y,z
1/2-x,1/2+y,1/2-z
1/2-x,1/2-y,-z
1/2+x,1/2-y,1/2+z
loop_
_atom_site_type_symbol
_atom_site_label
_atom_site_fract_x
_atom_site_fract_y
_atom_site_fract_z
Si Si1 0.507224 0.211870 0.998876
Si Si2 0.628391 0.417327 0.820225
Si Si3 0.910945 0.326927 0.391438
Si Si4 0.424196 0.364225 0.219045
Si Si5 0.777637 0.906409 0.564930
Si Si6 0.318695 0.608169 0.432572
Si Si7 0.814965 0.660261 0.529107
O O1 0.563796 0.313339 0.903403
O O2 0.439611 0.152222 0.975310
O O3 0.595375 0.134324 0.970141
O O4 0.446002 0.264650 0.133624
O O5 0.566214 0.526966 0.849640
O O6 0.714996 0.431150 0.832314
O O7 0.677694 0.395081 0.681094
O O8 0.799177 0.366435 0.446830
O O9 0.896349 0.199301 0.400374
O O10 0.000000 0.359730 0.250000
O O11 0.500000 0.361294 0.250000
O O12 0.301410 0.360804 0.342214
O O13 0.823491 0.788188 0.515003
O O14 0.676622 0.894383 0.578803
O O15 0.843091 0.998486 0.463462
#
# Coordination Sequence:
#
# PCOD9286707 Si02
#       7
#     8   8   8   8   8   8   8
#     4  11  25  40  66 100 131 181 220 274 331 401
#     4  11  23  39  69 100 131 168 221 282 335 395
#     4  11  25  45  67  97 136 176 227 273 338 408
#     4  12  24  39  70 102 133 173 218 279 345 393
#     4  10  21  44  66  93 135 178 215 275 335 389
#     4  11  24  44  68  99 135 177 221 286 338 392
#     4  10  23  44  66  94 142 172 222 277 329 398
#
# _framework density 24.052600000000002
#
# number of rings (size 3 to 8) (size 9 to 14) (size 15 to 20)
#    0.000    1.143    2.857    3.857    6.000    1.143 
#    0.000    2.857    0.000    0.000    0.000    0.000 
#    0.000    0.000    0.000    0.000    0.000    0.000 
#
# Total GULP energy -156384.832112 kJ/mol
# GULP energy per Si atom -5585.172575 kJ/mol
# Density = 2.399786 g / cm^3
# Si number density = 24.052600 Si / 1000 Ang^3
#
#
#
# Elastic Constant Matrix: (Units=GPa)
#
#
# Indices 1 2 3 4 5 6 
#
# 1 178.4881 7.0279 48.8429 0.0000 22.4436 0.0000
# 2 7.0279 57.8360 -3.7850 0.0000 9.5733 0.0000
# 3 48.8429 -3.7850 59.3895 0.0000 2.5436 0.0000
# 4 0.0000 0.0000 0.0000 16.7649 0.0000 3.4167
# 5 22.4436 9.5733 2.5436 0.0000 42.9109 0.0000
# 6 0.0000 0.0000 0.0000 3.4167 0.0000 17.6018
#
#
#
# Elastic Compliance Matrix: (Units=1/GPa)
#
#
# Indices 1 2 3 4 5 6 
#
# 1 0.007807 -0.000777 -0.006319 0.000000 -0.003535 0.000000
# 2 -0.000777 0.018134 0.001956 0.000000 -0.003755 0.000000
# 3 -0.006319 0.001956 0.022092 0.000000 0.001559 0.000000
# 4 0.000000 0.000000 0.000000 0.062105 0.000000 -0.012055
# 5 -0.003535 -0.003755 0.001559 0.000000 0.025899 0.000000
# 6 0.000000 0.000000 0.000000 -0.012055 0.000000 0.059152
#
#
# Mechanical properties :
#
#
# Convention : Reuss Voigt Hill
#
# Bulk Modulus (GPa) = 26.48763 44.43170 35.45967
# Shear Modulus (GPa) = 22.93008 31.69737 27.31372
#
# Velocity S-wave (km/s) = 3.09095 3.63414 3.37350
# Velocity P-wave (km/s) = 4.87596 6.01017 5.47253
#
# Compressibility (1/GPa) = 0.03775347
#
# Stress axis : x y z
#
# Youngs Moduli (GPa) = 128.09345 55.14426 45.26454
#
# Poissons Ratio (x) = 0.04285 0.28601
# Poissons Ratio (y) = 0.09952 -0.08852
# Poissons Ratio (z) = 0.80936 -0.10784
#
# Static dielectric constant tensor:
#      x y z
#    x 1.978160 0.000000 0.002750 
#    y 0.000000 1.973100 0.000000 
#    z 0.002750 0.000000 1.940660 
# 
# From -- ./inp_files/162219.got.cif
#   From: 2010.05.17/outbox.cif.g08.bks.cpg/sg15_82_cif.got.tgz:162219.got - 2010.06.03 18:47:42.
