data_PCOD9286500
_publ_section_title
;
Structure prediction by ZEFSAII (Michael W. Deem and Ramdas Pophale) SiO2 
 PCOD9286500
Probable space group: C 2/C
;
_chemical_formula_sum "Si O2"
_cell_formula_units_Z 44
_cell_length_a 8.783653
_cell_length_b 11.091506
_cell_length_c 26.864012
_cell_angle_alpha 90.000000
_cell_angle_beta 48.936881
_cell_angle_gamma 90.000000
_cell_volume 1973.331578
_symmetry_space_group_name_H-M "C 2/C"
_symmetry_group_IT_number 15
_symmetry_cell_setting 'monoclinic'
loop_
_space_group_symop_operation_xyz
x,y,z
-x,y,1/2-z
-x,-y,-z
x,-y,1/2+z
1/2+x,1/2+y,z
1/2-x,1/2+y,1/2-z
1/2-x,1/2-y,-z
1/2+x,1/2-y,1/2+z
loop_
_atom_site_type_symbol
_atom_site_label
_atom_site_fract_x
_atom_site_fract_y
_atom_site_fract_z
Si Si1 0.447226 0.155438 0.655373
Si Si2 0.475300 0.584246 0.457257
Si Si3 0.500000 0.246537 0.750000
Si Si4 0.845580 0.650510 0.325285
Si Si5 0.343322 0.808420 0.539259
Si Si6 0.905452 0.619587 0.134209
O O1 0.437878 0.165525 0.716749
O O2 0.263728 0.233961 0.674078
O O3 0.656709 0.220038 0.594758
O O4 0.432365 0.021412 0.638635
O O5 0.500000 0.500000 0.500000
O O6 0.661917 0.561703 0.379998
O O7 0.484765 0.721883 0.476285
O O8 0.267588 0.588309 0.469861
O O9 0.318402 0.332920 0.806141
O O10 0.000000 0.605867 0.250000
O O11 0.955885 0.679424 0.353350
O O12 0.445257 0.851546 0.568021
#
# Coordination Sequence:
#
# PCOD9286500 Si02
#       6
#     8   8   4   8   8   8
#     4  10  22  40  62  91 129 168 207 268 319 378
#     4  10  21  43  70  91 132 177 215 271 329 381
#     4  10  22  36  58  90 126 166 212 252 318 390
#     4  11  23  41  63 100 132 160 221 272 317 397
#     4   9  22  43  64  96 125 166 226 260 313 403
#     4  11  23  39  65  93 129 172 210 266 328 379
#
# _framework density 22.297315999999999
#
# number of rings (size 3 to 8) (size 9 to 14) (size 15 to 20)
#    0.000    1.818    1.818    1.091    2.545    2.182 
#    0.000   16.364    0.000    0.000    0.000    0.000 
#    0.000    0.000    0.000    0.000    0.000    0.000 
#
# Total GULP energy -122943.166256 kJ/mol
# GULP energy per Si atom -5588.325739 kJ/mol
# Density = 2.224657 g / cm^3
# Si number density = 22.297316 Si / 1000 Ang^3
#
#
#
# Elastic Constant Matrix: (Units=GPa)
#
#
# Indices 1 2 3 4 5 6 
#
# 1 146.5491 44.3942 42.5518 0.0000 45.9322 0.0000
# 2 44.3942 79.6344 31.9956 0.0000 17.0076 0.0000
# 3 42.5518 31.9956 124.8638 0.0000 18.4983 0.0000
# 4 0.0000 0.0000 0.0000 25.6442 0.0000 12.7905
# 5 45.9322 17.0076 18.4983 0.0000 54.2433 0.0000
# 6 0.0000 0.0000 0.0000 12.7905 0.0000 29.3783
#
#
#
# Elastic Compliance Matrix: (Units=1/GPa)
#
#
# Indices 1 2 3 4 5 6 
#
# 1 0.010740 -0.003770 -0.001603 0.000000 -0.007365 0.000000
# 2 -0.003770 0.015919 -0.002662 0.000000 -0.000891 0.000000
# 3 -0.001603 -0.002662 0.009387 0.000000 -0.001009 0.000000
# 4 0.000000 0.000000 0.000000 0.049812 0.000000 -0.021687
# 5 -0.007365 -0.000891 -0.001009 0.000000 0.025296 0.000000
# 6 0.000000 0.000000 0.000000 -0.021687 0.000000 0.043481
#
#
# Mechanical properties :
#
#
# Convention : Reuss Voigt Hill
#
# Bulk Modulus (GPa) = 50.06253 65.43676 57.74964
# Shear Modulus (GPa) = 28.19091 37.32686 32.75889
#
# Velocity S-wave (km/s) = 3.55958 4.09596 3.83715
# Velocity P-wave (km/s) = 6.27656 7.19585 6.75187
#
# Compressibility (1/GPa) = 0.01997502
#
# Stress axis : x y z
#
# Youngs Moduli (GPa) = 93.11331 62.81764 106.53462
#
# Poissons Ratio (x) = 0.23683 0.17074
# Poissons Ratio (y) = 0.35105 0.28364
# Poissons Ratio (z) = 0.14923 0.16725
#
# Static dielectric constant tensor:
#      x y z
#    x 1.845540 0.000000 0.003690 
#    y 0.000000 1.804440 0.000000 
#    z 0.003690 0.000000 1.890340 
# 
# From -- ./inp_files/262799.got.cif
#   From: 2010.05.17/outbox.cif.g08.bks.cpg/sg15_132_cif.got.tgz:262799.got - 2010.06.03 18:47:42.
