data_PCOD9286553
_publ_section_title
;
Structure prediction by ZEFSAII (Michael W. Deem and Ramdas Pophale) SiO2 
 PCOD9286553
Probable space group: C 2/C
;
_chemical_formula_sum "Si O2"
_cell_formula_units_Z 48
_cell_length_a 17.562078
_cell_length_b 20.244750
_cell_length_c 6.258480
_cell_angle_alpha 90.000000
_cell_angle_beta 118.612181
_cell_angle_gamma 90.000000
_cell_volume 1953.407858
_symmetry_space_group_name_H-M "C 2/C"
_symmetry_group_IT_number 15
_symmetry_cell_setting 'monoclinic'
loop_
_space_group_symop_operation_xyz
x,y,z
-x,y,1/2-z
-x,-y,-z
x,-y,1/2+z
1/2+x,1/2+y,z
1/2-x,1/2+y,1/2-z
1/2-x,1/2-y,-z
1/2+x,1/2-y,1/2+z
loop_
_atom_site_type_symbol
_atom_site_label
_atom_site_fract_x
_atom_site_fract_y
_atom_site_fract_z
Si Si1 0.569260 0.474643 0.978719
Si Si2 0.737866 0.441180 0.674431
Si Si3 0.642258 0.343819 0.234154
Si Si4 0.698610 0.857178 0.358783
Si Si5 0.579684 0.789437 0.517223
Si Si6 0.591430 0.916270 0.836749
O O1 0.547361 0.513669 0.186021
O O2 0.670327 0.499738 0.105271
O O3 0.576170 0.397221 0.045926
O O4 0.682379 0.381117 0.492035
O O5 0.825440 0.452423 0.655170
O O6 0.767525 0.413651 0.939568
O O7 0.723227 0.334586 0.185270
O O8 0.597282 0.273219 0.192376
O O9 0.659299 0.802718 0.463019
O O10 0.625474 0.886202 0.104276
O O11 0.500000 0.778279 0.250000
O O12 0.571777 0.855006 0.650382
O O13 0.500000 0.953061 0.750000
#
# Coordination Sequence:
#
# PCOD9286553 Si02
#       6
#     8   8   8   8   8   8
#     4  12  23  44  67  95 139 182 227 276 328 395
#     4  10  24  41  66  99 133 179 230 277 335 397
#     4  11  24  41  64  98 135 182 222 270 334 402
#     4  10  22  41  67  95 136 175 222 278 340 396
#     4  11  22  39  64 103 135 173 224 271 335 409
#     4  10  21  43  71  98 132 176 221 281 344 404
#
# _framework density 24.572441000000001
#
# number of rings (size 3 to 8) (size 9 to 14) (size 15 to 20)
#    0.000    1.333    3.333    2.000    0.000    7.333 
#    3.000    0.000    0.000    5.000    0.000    0.000 
#    0.000    0.000    0.000    0.000    0.000    0.000 
#
# Total GULP energy -134323.757685 kJ/mol
# GULP energy per Si atom -5596.823237 kJ/mol
# Density = 2.451651 g / cm^3
# Si number density = 24.572441 Si / 1000 Ang^3
#
#
#
# Elastic Constant Matrix: (Units=GPa)
#
#
# Indices 1 2 3 4 5 6 
#
# 1 134.8073 37.7480 26.6246 0.0000 21.3891 0.0000
# 2 37.7480 83.1230 1.9527 0.0000 8.5265 0.0000
# 3 26.6246 1.9527 125.4422 0.0000 11.0978 0.0000
# 4 0.0000 0.0000 0.0000 18.1617 0.0000 2.9500
# 5 21.3891 8.5265 11.0978 0.0000 43.9867 0.0000
# 6 0.0000 0.0000 0.0000 2.9500 0.0000 8.7953
#
#
#
# Elastic Compliance Matrix: (Units=1/GPa)
#
#
# Indices 1 2 3 4 5 6 
#
# 1 0.009359 -0.003864 -0.001626 0.000000 -0.003392 0.000000
# 2 -0.003864 0.013870 0.000691 0.000000 -0.000984 0.000000
# 3 -0.001626 0.000691 0.008436 0.000000 -0.001472 0.000000
# 4 0.000000 0.000000 0.000000 0.058234 0.000000 -0.019532
# 5 -0.003392 -0.000984 -0.001472 0.000000 0.024946 0.000000
# 6 0.000000 0.000000 0.000000 -0.019532 0.000000 0.120248
#
#
# Mechanical properties :
#
#
# Convention : Reuss Voigt Hill
#
# Bulk Modulus (GPa) = 45.31580 52.89147 49.10363
# Shear Modulus (GPa) = 19.83761 32.65854 26.24807
#
# Velocity S-wave (km/s) = 2.84440 3.64960 3.27187
# Velocity P-wave (km/s) = 5.41011 6.27143 5.85663
#
# Compressibility (1/GPa) = 0.02206736
#
# Stress axis : x y z
#
# Youngs Moduli (GPa) = 106.84485 72.09873 118.53391
#
# Poissons Ratio (x) = 0.27860 0.19277
# Poissons Ratio (y) = 0.41287 -0.08194
# Poissons Ratio (z) = 0.17376 -0.04984
#
# Static dielectric constant tensor:
#      x y z
#    x 1.975400 0.000000 0.007690 
#    y 0.000000 1.898920 0.000000 
#    z 0.007690 0.000000 1.944110 
# 
# From -- ./inp_files/10666.got.cif
#   From: 2010.05.17/outbox.cif.g08.bks.cpg/sg15_6_cif.got.tgz:10666.got - 2010.06.03 18:47:42.
