data_PCOD9286246
_publ_section_title
;
Structure prediction by ZEFSAII (Michael W. Deem and Ramdas Pophale) SiO2 
 PCOD9286246
Probable space group: C 2/C
;
_chemical_formula_sum "Si O2"
_cell_formula_units_Z 56
_cell_length_a 28.750589
_cell_length_b 10.344956
_cell_length_c 9.357955
_cell_angle_alpha 90.000000
_cell_angle_beta 128.508340
_cell_angle_gamma 90.000000
_cell_volume 2177.962635
_symmetry_space_group_name_H-M "C 2/C"
_symmetry_group_IT_number 15
_symmetry_cell_setting 'monoclinic'
loop_
_space_group_symop_operation_xyz
x,y,z
-x,y,1/2-z
-x,-y,-z
x,-y,1/2+z
1/2+x,1/2+y,z
1/2-x,1/2+y,1/2-z
1/2-x,1/2-y,-z
1/2+x,1/2-y,1/2+z
loop_
_atom_site_type_symbol
_atom_site_label
_atom_site_fract_x
_atom_site_fract_y
_atom_site_fract_z
Si Si1 0.772336 0.640306 0.841132
Si Si2 0.071327 0.425709 0.393884
Si Si3 0.976522 0.121425 0.367388
Si Si4 0.152861 0.744027 0.252704
Si Si5 0.952515 0.613997 0.942310
Si Si6 0.142824 0.994511 0.390030
Si Si7 0.712560 0.393523 0.781636
O O1 0.708185 0.697650 0.769088
O O2 0.765423 0.484897 0.818777
O O3 0.785986 0.739745 0.738071
O O4 0.817211 0.670097 0.056996
O O5 0.108046 0.339731 0.573926
O O6 0.073346 0.572712 0.455073
O O7 0.093202 0.404032 0.275469
O O8 0.000000 0.500000 0.500000
O O9 0.981478 0.247543 0.477027
O O10 0.000000 0.125410 0.250000
O O11 0.906567 0.101773 0.207549
O O12 0.000000 0.000000 0.500000
O O13 0.121950 0.870292 0.259951
O O14 0.000000 0.608786 0.750000
O O15 0.198970 0.055742 0.413903
O O16 0.158910 0.941403 0.575913
#
# Coordination Sequence:
#
# PCOD9286246 Si02
#       7
#     8   8   8   8   8   8   8
#     4   9  20  39  66  96 135 178 221 283 345 404
#     4  10  22  42  70  93 138 180 229 280 350 410
#     4  12  27  44  70 100 135 188 236 285 355 426
#     4   9  20  41  67  96 134 184 224 278 350 412
#     4  10  24  44  66  98 136 179 227 295 344 404
#     4  10  23  41  66  96 139 172 223 293 349 408
#     4  10  21  43  64  96 137 171 222 288 344 412
#
# _framework density 25.712104
#
# number of rings (size 3 to 8) (size 9 to 14) (size 15 to 20)
#    0.000    2.000    0.000    3.000   10.000    3.429 
#    7.714    0.000    0.000    0.000    0.000    0.000 
#    0.000    0.000    0.000    0.000    0.000    0.000 
#
# Total GULP energy -156501.110401 kJ/mol
# GULP energy per Si atom -5589.325371 kJ/mol
# Density = 2.565358 g / cm^3
# Si number density = 25.712104 Si / 1000 Ang^3
#
#
#
# Elastic Constant Matrix: (Units=GPa)
#
#
# Indices 1 2 3 4 5 6 
#
# 1 49.7101 23.1374 18.3153 0.0000 2.0819 0.0000
# 2 23.1374 164.2234 49.0577 0.0000 3.8382 0.0000
# 3 18.3153 49.0577 101.9675 0.0000 8.0255 0.0000
# 4 0.0000 0.0000 0.0000 44.3488 0.0000 8.4923
# 5 2.0819 3.8382 8.0255 0.0000 32.8925 0.0000
# 6 0.0000 0.0000 0.0000 8.4923 0.0000 23.3892
#
#
#
# Elastic Compliance Matrix: (Units=1/GPa)
#
#
# Indices 1 2 3 4 5 6 
#
# 1 0.022248 -0.002267 -0.002871 0.000000 -0.000443 0.000000
# 2 -0.002267 0.007342 -0.003129 0.000000 0.000050 0.000000
# 3 -0.002871 -0.003129 0.012016 0.000000 -0.002385 0.000000
# 4 0.000000 0.000000 0.000000 0.024233 0.000000 -0.008799
# 5 -0.000443 0.000050 -0.002385 0.000000 0.031006 0.000000
# 6 0.000000 0.000000 0.000000 -0.008799 0.000000 0.045949
#
#
# Mechanical properties :
#
#
# Convention : Reuss Voigt Hill
#
# Bulk Modulus (GPa) = 39.88384 55.21353 47.54868
# Shear Modulus (GPa) = 29.81765 35.15214 32.48490
#
# Velocity S-wave (km/s) = 3.40909 3.70150 3.55830
# Velocity P-wave (km/s) = 5.57147 6.30781 5.95104
#
# Compressibility (1/GPa) = 0.02507281
#
# Stress axis : x y z
#
# Youngs Moduli (GPa) = 44.94807 136.19861 83.22284
#
# Poissons Ratio (x) = 0.30870 0.23892
# Poissons Ratio (y) = 0.10188 0.26043
# Poissons Ratio (z) = 0.12904 0.42620
#
# Static dielectric constant tensor:
#      x y z
#    x 2.177460 0.000000 -0.048590 
#    y 0.000000 2.062530 0.000000 
#    z -0.048590 0.000000 2.043040 
# 
# From -- ./inp_files/69436.got.cif
#   From: 2010.05.17/outbox.cif.g08.bks.cpg/sg15_35_cif.got.tgz:69436.got - 2010.06.03 18:47:42.
