data_PCOD9286741
_publ_section_title
;
Structure prediction by ZEFSAII (Michael W. Deem and Ramdas Pophale) SiO2 
 PCOD9286741
Probable space group: C 2/C
;
_chemical_formula_sum "Si O2"
_cell_formula_units_Z 44
_cell_length_a 7.503873
_cell_length_b 11.990898
_cell_length_c 22.346341
_cell_angle_alpha 90.000000
_cell_angle_beta 60.418484
_cell_angle_gamma 90.000000
_cell_volume 1748.598981
_symmetry_space_group_name_H-M "C 2/C"
_symmetry_group_IT_number 15
_symmetry_cell_setting 'monoclinic'
loop_
_space_group_symop_operation_xyz
x,y,z
-x,y,1/2-z
-x,-y,-z
x,-y,1/2+z
1/2+x,1/2+y,z
1/2-x,1/2+y,1/2-z
1/2-x,1/2-y,-z
1/2+x,1/2-y,1/2+z
loop_
_atom_site_type_symbol
_atom_site_label
_atom_site_fract_x
_atom_site_fract_y
_atom_site_fract_z
Si Si1 0.993916 0.854401 0.448598
Si Si2 0.912161 0.562992 0.892307
Si Si3 0.000000 0.444122 0.250000
Si Si4 0.183266 0.141838 0.299185
Si Si5 0.786097 0.647772 0.148123
Si Si6 0.172982 0.280707 0.417004
O O1 0.167573 0.946177 0.430535
O O2 0.120960 0.745718 0.406357
O O3 0.940255 0.119064 0.338128
O O4 0.875987 0.814334 0.526902
O O5 0.988006 0.614529 0.815824
O O6 0.050649 0.453449 0.877850
O O7 0.972711 0.649091 0.933656
O O8 0.195859 0.525471 0.215666
O O9 0.748024 0.185779 0.277399
O O10 0.244568 0.220593 0.344326
O O11 0.332125 0.634188 0.921633
#
# Coordination Sequence:
#
# PCOD9286741 Si02
#       6
#     8   8   4   8   8   8
#     4  11  25  45  64 101 135 177 234 271 345 418
#     4  11  24  42  67 100 131 177 224 284 331 416
#     4  10  24  42  64 104 126 164 232 266 340 400
#     4  10  21  44  67  94 136 178 216 288 344 403
#     4  10  23  43  69  97 136 179 226 282 350 400
#     4  11  24  43  69  97 133 181 224 277 341 409
#
# _framework density 25.163003
#
# number of rings (size 3 to 8) (size 9 to 14) (size 15 to 20)
#    0.000    1.455    1.818    2.727    5.091    0.727 
#    0.000    2.727    0.000    0.000    0.000    0.000 
#    0.000    0.000    0.000    0.000    0.000    0.000 
#
# Total GULP energy -123215.365222 kJ/mol
# GULP energy per Si atom -5600.698419 kJ/mol
# Density = 2.510573 g / cm^3
# Si number density = 25.163003 Si / 1000 Ang^3
#
#
#
# Elastic Constant Matrix: (Units=GPa)
#
#
# Indices 1 2 3 4 5 6 
#
# 1 179.4161 31.7846 48.5314 0.0000 -0.3147 0.0000
# 2 31.7846 67.2297 32.1951 0.0000 3.4763 0.0000
# 3 48.5314 32.1951 62.2641 0.0000 3.5966 0.0000
# 4 0.0000 0.0000 0.0000 21.1663 0.0000 -15.7061
# 5 -0.3147 3.4763 3.5966 0.0000 39.7535 0.0000
# 6 0.0000 0.0000 0.0000 -15.7061 0.0000 24.6232
#
#
#
# Elastic Compliance Matrix: (Units=1/GPa)
#
#
# Indices 1 2 3 4 5 6 
#
# 1 0.007121 -0.000961 -0.005088 0.000000 0.000601 0.000000
# 2 -0.000961 0.019925 -0.009502 0.000000 -0.000890 0.000000
# 3 -0.005088 -0.009502 0.025025 0.000000 -0.001473 0.000000
# 4 0.000000 0.000000 0.000000 0.089702 0.000000 0.057217
# 5 0.000601 -0.000890 -0.001473 0.000000 0.025371 0.000000
# 6 0.000000 0.000000 0.000000 0.057217 0.000000 0.077108
#
#
# Mechanical properties :
#
#
# Convention : Reuss Voigt Hill
#
# Bulk Modulus (GPa) = 47.69114 59.32577 53.50845
# Shear Modulus (GPa) = 17.70878 30.20186 23.95532
#
# Velocity S-wave (km/s) = 2.65573 3.46822 3.08881
# Velocity P-wave (km/s) = 5.32897 6.29808 5.83368
#
# Compressibility (1/GPa) = 0.02096826
#
# Stress axis : x y z
#
# Youngs Moduli (GPa) = 140.42261 50.18754 39.95964
#
# Poissons Ratio (x) = 0.04824 0.20333
# Poissons Ratio (y) = 0.13496 0.37971
# Poissons Ratio (z) = 0.71453 0.47689
#
# Static dielectric constant tensor:
#      x y z
#    x 2.036100 0.000000 0.027680 
#    y 0.000000 1.967170 0.000000 
#    z 0.027680 0.000000 1.966820 
# 
# From -- ./inp_files/288222.got.cif
#   From: 2010.05.17/outbox.cif.g08.bks.cpg/sg15_145_cif.got.tgz:288222.got - 2010.06.03 18:47:42.
