data_PCOD9286470
_publ_section_title
;
Structure prediction by ZEFSAII (Michael W. Deem and Ramdas Pophale) SiO2 
 PCOD9286470
Probable space group: C 2/C
;
_chemical_formula_sum "Si O2"
_cell_formula_units_Z 44
_cell_length_a 10.304586
_cell_length_b 28.790496
_cell_length_c 10.361908
_cell_angle_alpha 90.000000
_cell_angle_beta 135.572592
_cell_angle_gamma 90.000000
_cell_volume 2151.892596
_symmetry_space_group_name_H-M "C 2/C"
_symmetry_group_IT_number 15
_symmetry_cell_setting 'monoclinic'
loop_
_space_group_symop_operation_xyz
x,y,z
-x,y,1/2-z
-x,-y,-z
x,-y,1/2+z
1/2+x,1/2+y,z
1/2-x,1/2+y,1/2-z
1/2-x,1/2-y,-z
1/2+x,1/2-y,1/2+z
loop_
_atom_site_type_symbol
_atom_site_label
_atom_site_fract_x
_atom_site_fract_y
_atom_site_fract_z
Si Si1 0.723543 0.688029 0.114706
Si Si2 0.907058 0.140555 0.043557
Si Si3 0.000000 0.760719 0.250000
Si Si4 0.000000 0.607177 0.250000
Si Si5 0.964470 0.445341 0.966948
Si Si6 0.000000 0.616892 0.750000
Si Si7 0.037389 0.958892 0.626568
O O1 0.538504 0.676614 0.062921
O O2 0.879583 0.727013 0.259128
O O3 0.838229 0.640971 0.183659
O O4 0.646140 0.706744 0.924690
O O5 0.000000 0.138645 0.250000
O O6 0.923149 0.087037 0.006997
O O7 0.686604 0.147957 0.886818
O O8 0.069067 0.576680 0.419159
O O9 0.749055 0.442945 0.776902
O O10 0.000000 0.500000 0.000000
O O11 0.996401 0.416329 0.120456
O O12 0.000000 0.972345 0.750000
O O13 0.000000 0.000000 0.500000
#
# Coordination Sequence:
#
# PCOD9286470 Si02
#       7
#     8   8   4   4   8   4   8
#     4  10  21  43  69  96 131 163 218 273 353 404
#     4  11  22  44  66  93 134 175 217 275 332 403
#     4   9  22  42  69 100 126 160 208 293 340 419
#     4  11  23  40  66  98 134 180 220 282 328 404
#     4  12  25  39  60  94 136 178 233 275 323 384
#     4  12  23  42  65  92 126 184 224 273 328 387
#     4  11  23  43  61  88 134 179 225 282 328 373
#
# _framework density 20.447118
#
# number of rings (size 3 to 8) (size 9 to 14) (size 15 to 20)
#    0.000    1.091    5.455    1.636    5.091    0.000 
#    4.909    0.909    0.000    0.000    0.000    0.000 
#    0.000    0.000    0.000    0.000    0.000    0.000 
#
# Total GULP energy -122692.416403 kJ/mol
# GULP energy per Si atom -5576.928018 kJ/mol
# Density = 2.040058 g / cm^3
# Si number density = 20.447118 Si / 1000 Ang^3
#
#
#
# Elastic Constant Matrix: (Units=GPa)
#
#
# Indices 1 2 3 4 5 6 
#
# 1 78.4552 23.9602 18.8961 0.0000 21.2627 0.0000
# 2 23.9602 77.5072 21.0271 0.0000 -8.6537 0.0000
# 3 18.8961 21.0271 68.0236 0.0000 13.8169 0.0000
# 4 0.0000 0.0000 0.0000 11.6171 0.0000 0.0732
# 5 21.2627 -8.6537 13.8169 0.0000 49.9636 0.0000
# 6 0.0000 0.0000 0.0000 0.0732 0.0000 23.2250
#
#
#
# Elastic Compliance Matrix: (Units=1/GPa)
#
#
# Indices 1 2 3 4 5 6 
#
# 1 0.016950 -0.005752 -0.001338 0.000000 -0.007839 0.000000
# 2 -0.005752 0.016774 -0.004953 0.000000 0.006723 0.000000
# 3 -0.001338 -0.004953 0.017654 0.000000 -0.005170 0.000000
# 4 0.000000 0.000000 0.000000 0.086082 0.000000 -0.000271
# 5 -0.007839 0.006723 -0.005170 0.000000 0.025945 0.000000
# 6 0.000000 0.000000 0.000000 -0.000271 0.000000 0.043058
#
#
# Mechanical properties :
#
#
# Convention : Reuss Voigt Hill
#
# Bulk Modulus (GPa) = 36.64095 39.08364 37.86230
# Shear Modulus (GPa) = 20.86413 27.63465 24.24939
#
# Velocity S-wave (km/s) = 3.19783 3.68029 3.44751
# Velocity P-wave (km/s) = 5.62082 6.10044 5.86553
#
# Compressibility (1/GPa) = 0.02729187
#
# Stress axis : x y z
#
# Youngs Moduli (GPa) = 58.99821 59.61439 56.64533
#
# Poissons Ratio (x) = 0.34290 0.07579
# Poissons Ratio (y) = 0.33936 0.28056
# Poissons Ratio (z) = 0.07894 0.29527
#
# Static dielectric constant tensor:
#      x y z
#    x 1.898690 0.000000 -0.003630 
#    y 0.000000 1.778370 0.000000 
#    z -0.003630 0.000000 1.683440 
# 
# From -- ./inp_files/26294.got.cif
#   From: 2010.05.17/outbox.cif.g08.bks.cpg/sg15_14_cif.got.tgz:26294.got - 2010.06.03 18:47:42.
