data_PCOD9286826
_publ_section_title
;
Structure prediction by ZEFSAII (Michael W. Deem and Ramdas Pophale) SiO2 
 PCOD9286826
Probable space group: C 2/C
;
_chemical_formula_sum "Si O2"
_cell_formula_units_Z 56
_cell_length_a 8.936325
_cell_length_b 12.216411
_cell_length_c 28.571852
_cell_angle_alpha 90.000000
_cell_angle_beta 126.739714
_cell_angle_gamma 90.000000
_cell_volume 2499.593006
_symmetry_space_group_name_H-M "C 2/C"
_symmetry_group_IT_number 15
_symmetry_cell_setting 'monoclinic'
loop_
_space_group_symop_operation_xyz
x,y,z
-x,y,1/2-z
-x,-y,-z
x,-y,1/2+z
1/2+x,1/2+y,z
1/2-x,1/2+y,1/2-z
1/2-x,1/2-y,-z
1/2+x,1/2-y,1/2+z
loop_
_atom_site_type_symbol
_atom_site_label
_atom_site_fract_x
_atom_site_fract_y
_atom_site_fract_z
Si Si1 0.720458 0.400237 0.620222
Si Si2 0.287376 0.722678 0.707074
Si Si3 0.088012 0.506220 0.653529
Si Si4 0.718038 0.291847 0.790703
Si Si5 0.081469 0.198278 0.000176
Si Si6 0.921310 0.590180 0.950464
Si Si7 0.523080 0.394138 0.114058
O O1 0.738568 0.284582 0.650068
O O2 0.651132 0.381459 0.554086
O O3 0.596587 0.482336 0.627566
O O4 0.921013 0.455331 0.651673
O O5 0.500000 0.686610 0.750000
O O6 0.169369 0.613778 0.692858
O O7 0.262096 0.807314 0.744313
O O8 0.233151 0.405656 0.674423
O O9 0.026733 0.550736 0.591381
O O10 0.500000 0.264100 0.750000
O O11 0.852069 0.194452 0.834766
O O12 0.994521 0.297369 0.013495
O O13 0.250000 0.250000 0.000000
O O14 0.961106 0.141642 0.937679
O O15 0.694495 0.603380 0.911133
O O16 0.000000 0.500000 0.000000
#
# Coordination Sequence:
#
# PCOD9286826 Si02
#       7
#     8   8   8   8   8   8   8
#     4  12  25  46  71 106 146 192 234 309 372 439
#     4  12  26  46  70 103 148 194 248 301 371 436
#     4  12  24  45  70 101 142 191 247 296 365 440
#     4  12  27  45  72 105 142 195 252 305 365 446
#     4  10  21  44  70 101 140 184 234 296 363 438
#     4  11  22  42  72 106 141 188 241 294 367 445
#     4  11  25  45  74 104 150 185 244 307 375 438
#
# _framework density 22.403645999999998
#
# number of rings (size 3 to 8) (size 9 to 14) (size 15 to 20)
#    0.000    0.571    2.857    6.857    4.000    0.571 
#    2.571    1.429    0.000    0.000    0.000    0.000 
#    0.000    0.000    0.000    0.000    0.000    0.000 
#
# Total GULP energy -156504.598032 kJ/mol
# GULP energy per Si atom -5589.449930 kJ/mol
# Density = 2.235265 g / cm^3
# Si number density = 22.403646 Si / 1000 Ang^3
#
#
#
# Elastic Constant Matrix: (Units=GPa)
#
#
# Indices 1 2 3 4 5 6 
#
# 1 45.1747 12.4861 5.1177 0.0000 -0.6683 0.0000
# 2 12.4861 116.2039 19.1146 0.0000 5.0768 0.0000
# 3 5.1177 19.1146 83.1898 0.0000 -10.9732 0.0000
# 4 0.0000 0.0000 0.0000 21.8864 0.0000 -18.3966
# 5 -0.6683 5.0768 -10.9732 0.0000 31.9281 0.0000
# 6 0.0000 0.0000 0.0000 -18.3966 0.0000 21.8498
#
#
#
# Elastic Compliance Matrix: (Units=1/GPa)
#
#
# Indices 1 2 3 4 5 6 
#
# 1 0.022885 -0.002354 -0.000790 0.000000 0.000582 0.000000
# 2 -0.002354 0.009340 -0.002308 0.000000 -0.002328 0.000000
# 3 -0.000790 -0.002308 0.013246 0.000000 0.004903 0.000000
# 4 0.000000 0.000000 0.000000 0.156318 0.000000 0.131613
# 5 0.000582 -0.002328 0.004903 0.000000 0.033388 0.000000
# 6 0.000000 0.000000 0.000000 0.131613 0.000000 0.156579
#
#
# Mechanical properties :
#
#
# Convention : Reuss Voigt Hill
#
# Bulk Modulus (GPa) = 28.93027 35.33391 32.13209
# Shear Modulus (GPa) = 12.07194 28.98953 20.53073
#
# Velocity S-wave (km/s) = 2.32381 3.60107 3.03050
# Velocity P-wave (km/s) = 4.48791 5.75292 5.15933
#
# Compressibility (1/GPa) = 0.03456587
#
# Stress axis : x y z
#
# Youngs Moduli (GPa) = 43.69647 107.06714 75.49207
#
# Poissons Ratio (x) = 0.25208 0.05965
# Poissons Ratio (y) = 0.10288 0.17425
# Poissons Ratio (z) = 0.03453 0.24714
#
# Static dielectric constant tensor:
#      x y z
#    x 1.803750 0.000000 0.057330 
#    y 0.000000 1.852270 0.000000 
#    z 0.057330 0.000000 1.842400 
# 
# From -- ./inp_files/307562.got.cif
#   From: 2010.05.17/outbox.cif.g08.bks.cpg/sg15_154_cif.got.tgz:307562.got - 2010.06.03 18:47:42.
