data_PCOD9286868
_publ_section_title
;
Structure prediction by ZEFSAII (Michael W. Deem and Ramdas Pophale) SiO2 
 PCOD9286868
Probable space group: C 2/C
;
_chemical_formula_sum "Si O2"
_cell_formula_units_Z 60
_cell_length_a 22.718536
_cell_length_b 15.929303
_cell_length_c 19.272793
_cell_angle_alpha 90.000000
_cell_angle_beta 23.638094
_cell_angle_gamma 90.000000
_cell_volume 2796.538959
_symmetry_space_group_name_H-M "C 2/C"
_symmetry_group_IT_number 15
_symmetry_cell_setting 'monoclinic'
loop_
_space_group_symop_operation_xyz
x,y,z
-x,y,1/2-z
-x,-y,-z
x,-y,1/2+z
1/2+x,1/2+y,z
1/2-x,1/2+y,1/2-z
1/2-x,1/2-y,-z
1/2+x,1/2-y,1/2+z
loop_
_atom_site_type_symbol
_atom_site_label
_atom_site_fract_x
_atom_site_fract_y
_atom_site_fract_z
Si Si1 0.500000 0.912984 0.750000
Si Si2 0.571322 0.911126 0.940542
Si Si3 0.165371 0.317746 0.207455
Si Si4 0.970289 0.170730 0.451106
Si Si5 0.523529 0.194433 0.088027
Si Si6 0.161595 0.425355 0.084020
Si Si7 0.823537 0.031644 0.267371
Si Si8 0.353447 0.331152 0.222956
O O1 0.459826 0.857649 0.859042
O O2 0.376405 0.978144 0.855340
O O3 0.562037 0.858218 0.879373
O O4 0.728900 0.929848 0.805706
O O5 0.462957 0.869493 0.114660
O O6 0.500000 0.000000 0.000000
O O7 0.309210 0.310103 0.098354
O O8 0.223880 0.367863 0.077072
O O9 0.089203 0.227162 0.282579
O O10 0.961281 0.188942 0.542427
O O11 0.017526 0.073885 0.397991
O O12 0.432262 0.279595 0.198750
O O13 0.691824 0.205062 0.882840
O O14 0.000000 0.385295 0.250000
O O15 0.240157 0.437259 0.926450
O O16 0.834392 0.931188 0.251529
#
# Coordination Sequence:
#
# PCOD9286868 Si02
#       8
#     4   8   8   8   8   8   8   8
#     4  10  22  48  70 102 130 186 238 284 358 438
#     4  12  20  41  74 100 129 189 238 287 361 418
#     4  12  24  43  70 102 142 189 236 293 353 427
#     4  12  26  44  69 108 144 182 246 297 357 427
#     4  12  25  43  75 100 138 181 238 296 356 432
#     4  10  21  44  71  97 140 183 237 288 346 426
#     4  12  25  45  70 103 146 188 237 302 352 425
#     4  12  24  47  67 107 140 184 235 301 360 416
#
# _framework density 21.455092
#
# number of rings (size 3 to 8) (size 9 to 14) (size 15 to 20)
#    0.400    0.000    6.667    2.000    1.867    1.600 
#    2.400    0.000    0.000    0.000    0.000    0.000 
#    0.000    0.000    0.000    0.000    0.000    0.000 
#
# Total GULP energy -167396.221436 kJ/mol
# GULP energy per Si atom -5579.874048 kJ/mol
# Density = 2.140626 g / cm^3
# Si number density = 21.455092 Si / 1000 Ang^3
#
#
#
# Elastic Constant Matrix: (Units=GPa)
#
#
# Indices 1 2 3 4 5 6 
#
# 1 56.8069 43.7429 20.8804 -0.0004 10.3498 0.0002
# 2 43.7429 116.3163 33.6869 -0.0003 -19.5005 0.0005
# 3 20.8804 33.6869 55.5615 -0.0014 -3.6423 0.0016
# 4 -0.0004 -0.0003 -0.0014 21.1180 0.0005 -2.3645
# 5 10.3498 -19.5005 -3.6423 0.0005 35.1812 -0.0005
# 6 0.0002 0.0005 0.0016 -2.3645 -0.0005 31.7257
#
#
#
# Elastic Compliance Matrix: (Units=1/GPa)
#
#
# Indices 1 2 3 4 5 6 
#
# 1 0.033951 -0.014338 -0.005278 0.000000 -0.018482 0.000000
# 2 -0.014338 0.017505 -0.004342 -0.000001 0.013472 0.000000
# 3 -0.005278 -0.004342 0.022712 0.000001 0.001497 -0.000001
# 4 0.000000 -0.000001 0.000001 0.047751 -0.000001 0.003559
# 5 -0.018482 0.013472 0.001497 -0.000001 0.041483 0.000000
# 6 0.000000 0.000000 -0.000001 0.003559 0.000000 0.031785
#
#
# Mechanical properties :
#
#
# Convention : Reuss Voigt Hill
#
# Bulk Modulus (GPa) = 38.09008 47.25610 42.67309
# Shear Modulus (GPa) = 19.85266 26.29663 23.07464
#
# Velocity S-wave (km/s) = 3.04519 3.50474 3.28302
# Velocity P-wave (km/s) = 5.49147 6.20089 5.85693
#
# Compressibility (1/GPa) = 0.02625355
#
# Stress axis : x y z
#
# Youngs Moduli (GPa) = 29.45399 57.12530 44.02932
#
# Poissons Ratio (x) = 0.81907 0.23237
# Poissons Ratio (y) = 0.42231 0.19118
# Poissons Ratio (z) = 0.15544 0.24804
#
# Static dielectric constant tensor:
#      x y z
#    x 1.862570 0.000000 0.063870 
#    y 0.000000 1.844660 0.000000 
#    z 0.063870 0.000000 1.819660 
# 
# From -- ./inp_files/284740.got.cif
#   From: 2010.05.17/outbox.cif.g08.bks.cpg/sg15_143_cif.got.tgz:284740.got - 2010.06.03 18:47:42.
