data_PCOD9286020
_publ_section_title
;
Structure prediction by ZEFSAII (Michael W. Deem and Ramdas Pophale) SiO2 
 PCOD9286020
Probable space group: C 2/C
;
_chemical_formula_sum "Si O2"
_cell_formula_units_Z 40
_cell_length_a 8.327523
_cell_length_b 16.616865
_cell_length_c 13.672167
_cell_angle_alpha 90.000000
_cell_angle_beta 101.479613
_cell_angle_gamma 90.000000
_cell_volume 1854.071186
_symmetry_space_group_name_H-M "C 2/C"
_symmetry_group_IT_number 15
_symmetry_cell_setting 'monoclinic'
loop_
_space_group_symop_operation_xyz
x,y,z
-x,y,1/2-z
-x,-y,-z
x,-y,1/2+z
1/2+x,1/2+y,z
1/2-x,1/2+y,1/2-z
1/2-x,1/2-y,-z
1/2+x,1/2-y,1/2+z
loop_
_atom_site_type_symbol
_atom_site_label
_atom_site_fract_x
_atom_site_fract_y
_atom_site_fract_z
Si Si1 0.735494 0.907745 0.224016
Si Si2 0.500000 0.454015 0.750000
Si Si3 0.921856 0.384538 0.083713
Si Si4 0.500000 0.271229 0.250000
Si Si5 0.580965 0.581689 0.470533
Si Si6 0.552593 0.746290 0.966478
O O1 0.598433 0.923726 0.125503
O O2 0.655375 0.883697 0.317390
O O3 0.847820 0.831259 0.213369
O O4 0.847555 0.985886 0.248479
O O5 0.469730 0.405286 0.647818
O O6 0.776920 0.423760 0.003812
O O7 0.966505 0.300286 0.038710
O O8 0.506566 0.224519 0.148402
O O9 0.500000 0.500000 0.500000
O O10 0.513251 0.655813 0.526006
O O11 0.750000 0.750000 0.000000
#
# Coordination Sequence:
#
# PCOD9286020 Si02
#       6
#     8   4   8   4   8   8
#     4  10  21  42  70 101 134 190 226 281 367 422
#     4  11  24  44  70 104 140 183 234 292 347 422
#     4  11  23  42  75 100 135 186 238 281 354 417
#     4  11  20  42  68  92 148 177 228 276 361 398
#     4  12  25  45  71 100 142 184 232 291 351 416
#     4  12  26  44  69 106 138 183 236 292 343 416
#
# _framework density 21.574142999999999
#
# number of rings (size 3 to 8) (size 9 to 14) (size 15 to 20)
#    0.000    0.800    6.000    1.800    0.000    4.000 
#    0.000    0.000    0.000    0.000    0.000    0.000 
#    0.000    0.000    0.000    0.000    0.000    0.000 
#
# Total GULP energy -111718.532987 kJ/mol
# GULP energy per Si atom -5585.926649 kJ/mol
# Density = 2.152504 g / cm^3
# Si number density = 21.574143 Si / 1000 Ang^3
#
#
#
# Elastic Constant Matrix: (Units=GPa)
#
#
# Indices 1 2 3 4 5 6 
#
# 1 115.4173 35.0249 35.8030 0.0000 29.9599 0.0000
# 2 35.0249 57.7951 21.5407 0.0000 0.1599 0.0000
# 3 35.8030 21.5407 143.9945 0.0000 17.8829 0.0000
# 4 0.0000 0.0000 0.0000 28.2768 0.0000 8.5538
# 5 29.9599 0.1599 17.8829 0.0000 53.5086 0.0000
# 6 0.0000 0.0000 0.0000 8.5538 0.0000 -111.7322
#
#
#
# Elastic Compliance Matrix: (Units=1/GPa)
#
#
# Indices 1 2 3 4 5 6 
#
# 1 0.013112 -0.007446 -0.001291 0.000000 -0.006888 0.000000
# 2 -0.007446 0.022594 -0.002126 0.000000 0.004812 0.000000
# 3 -0.001291 -0.002126 0.007818 0.000000 -0.001884 0.000000
# 4 0.000000 0.000000 0.000000 0.034564 0.000000 0.002646
# 5 -0.006888 0.004812 -0.001884 0.000000 0.023160 0.000000
# 6 0.000000 0.000000 0.000000 0.002646 0.000000 -0.008747
#
#
# Mechanical properties :
#
#
# Convention : Reuss Voigt Hill
#
# Bulk Modulus (GPa) = 45.87643 55.77154 50.82399
# Shear Modulus (GPa) = 41.15454 8.99986 25.07720
#
# Velocity S-wave (km/s) = 4.37233 2.04466 3.41306
# Velocity P-wave (km/s) = 6.84108 5.61083 6.25627
#
# Compressibility (1/GPa) = 0.02179768
#
# Stress axis : x y z
#
# Youngs Moduli (GPa) = 76.26465 44.25940 127.91530
#
# Poissons Ratio (x) = 0.32956 0.16513
# Poissons Ratio (y) = 0.56787 0.27197
# Poissons Ratio (z) = 0.09845 0.09410
#
# Static dielectric constant tensor:
#      x y z
#    x 1.807630 0.000000 0.016180 
#    y 0.000000 1.729660 0.000000 
#    z 0.016180 0.000000 1.807310 
# 
# From -- ./inp_files/133312.got.cif
#   From: 2010.05.17/outbox.cif.g08.bks.cpg/sg15_67_cif.got.tgz:133312.got - 2010.06.03 18:47:42.
