data_PCOD9286025
_publ_section_title
;
Structure prediction by ZEFSAII (Michael W. Deem and Ramdas Pophale) SiO2 
 PCOD9286025
Probable space group: C 2/C
;
_chemical_formula_sum "Si O2"
_cell_formula_units_Z 56
_cell_length_a 13.197244
_cell_length_b 10.585904
_cell_length_c 26.770297
_cell_angle_alpha 90.000000
_cell_angle_beta 35.996461
_cell_angle_gamma 90.000000
_cell_volume 2198.093430
_symmetry_space_group_name_H-M "C 2/C"
_symmetry_group_IT_number 15
_symmetry_cell_setting 'monoclinic'
loop_
_space_group_symop_operation_xyz
x,y,z
-x,y,1/2-z
-x,-y,-z
x,-y,1/2+z
1/2+x,1/2+y,z
1/2-x,1/2+y,1/2-z
1/2-x,1/2-y,-z
1/2+x,1/2-y,1/2+z
loop_
_atom_site_type_symbol
_atom_site_label
_atom_site_fract_x
_atom_site_fract_y
_atom_site_fract_z
Si Si1 0.906040 0.780766 0.592334
Si Si2 0.134819 0.889960 0.153843
Si Si3 0.247200 0.622517 0.437638
Si Si4 0.627117 0.485602 0.012408
Si Si5 0.470022 0.732593 0.628184
Si Si6 0.596594 0.779162 0.291709
Si Si7 0.948985 0.453576 0.826911
O O1 0.081625 0.710088 0.506294
O O2 0.749558 0.731755 0.621049
O O3 0.860571 0.737885 0.666769
O O4 0.959638 0.926621 0.574255
O O5 0.015045 0.871051 0.153080
O O6 0.000000 0.917866 0.250000
O O7 0.264641 0.005419 0.094934
O O8 0.272859 0.555022 0.481497
O O9 0.422561 0.698193 0.354284
O O10 0.576138 0.338327 0.042237
O O11 0.754563 0.497339 0.915108
O O12 0.272053 0.754389 0.692921
O O13 0.521093 0.857452 0.638581
O O14 0.562419 0.923072 0.291817
O O15 0.000000 0.412661 0.750000
#
# Coordination Sequence:
#
# PCOD9286025 Si02
#       7
#     8   8   8   8   8   8   8
#     4  11  20  43  74 100 147 192 242 307 374 431
#     4  11  23  38  66 110 147 187 241 308 363 434
#     4  10  21  42  70 101 145 191 248 299 367 439
#     4  10  22  46  72 103 138 196 254 297 369 457
#     4  11  26  42  71 104 141 192 244 303 366 445
#     4  11  23  43  73  99 137 198 245 298 371 443
#     4  12  26  46  72 104 149 189 243 312 375 441
#
# _framework density 25.476623
#
# number of rings (size 3 to 8) (size 9 to 14) (size 15 to 20)
#    0.000    1.143    4.286    2.143    6.000    0.571 
#    0.000    5.714    0.000    0.000    0.000    0.000 
#    0.000    0.000    0.000    0.000    0.000    0.000 
#
# Total GULP energy -156631.895490 kJ/mol
# GULP energy per Si atom -5593.996268 kJ/mol
# Density = 2.541864 g / cm^3
# Si number density = 25.476623 Si / 1000 Ang^3
#
#
#
# Elastic Constant Matrix: (Units=GPa)
#
#
# Indices 1 2 3 4 5 6 
#
# 1 67.2848 24.9289 37.8808 0.0000 -9.7127 0.0000
# 2 24.9289 113.0411 24.8335 0.0000 13.4500 0.0000
# 3 37.8808 24.8335 123.6465 0.0000 6.0813 0.0000
# 4 0.0000 0.0000 0.0000 63.0765 -0.0001 8.4968
# 5 -9.7127 13.4500 6.0813 -0.0001 14.1974 0.0000
# 6 0.0000 0.0000 0.0000 8.4968 0.0000 21.8468
#
#
#
# Elastic Compliance Matrix: (Units=1/GPa)
#
#
# Indices 1 2 3 4 5 6 
#
# 1 0.026136 -0.007389 -0.007913 0.000000 0.028269 0.000000
# 2 -0.007389 0.012367 0.000618 0.000000 -0.017035 0.000000
# 3 -0.007913 0.000618 0.010913 0.000000 -0.010673 0.000000
# 4 0.000000 0.000000 0.000000 0.016730 0.000000 -0.006507
# 5 0.028269 -0.017035 -0.010673 0.000000 0.110486 0.000000
# 6 0.000000 0.000000 0.000000 -0.006507 0.000000 0.048304
#
#
# Mechanical properties :
#
#
# Convention : Reuss Voigt Hill
#
# Bulk Modulus (GPa) = 49.88407 53.25097 51.56752
# Shear Modulus (GPa) = 19.15807 34.24608 26.70207
#
# Velocity S-wave (km/s) = 2.74521 3.67033 3.24095
# Velocity P-wave (km/s) = 5.44712 6.23771 5.85577
#
# Compressibility (1/GPa) = 0.02004648
#
# Stress axis : x y z
#
# Youngs Moduli (GPa) = 38.26188 80.86019 91.63523
#
# Poissons Ratio (x) = 0.59746 0.72515
# Poissons Ratio (y) = 0.28271 -0.05660
# Poissons Ratio (z) = 0.30278 -0.04995
#
# Static dielectric constant tensor:
#      x y z
#    x 2.056530 0.000000 0.024740 
#    y 0.000000 2.055690 0.000000 
#    z 0.024740 0.000000 1.946480 
# 
# From -- ./inp_files/313697.got.cif
#   From: 2010.05.17/outbox.cif.g08.bks.cpg/sg15_157_cif.got.tgz:313697.got - 2010.06.03 18:47:42.
