data_PCOD9286052
_publ_section_title
;
Structure prediction by ZEFSAII (Michael W. Deem and Ramdas Pophale) SiO2 
 PCOD9286052
Probable space group: C 2/C
;
_chemical_formula_sum "Si O2"
_cell_formula_units_Z 40
_cell_length_a 11.654620
_cell_length_b 15.085326
_cell_length_c 11.269657
_cell_angle_alpha 90.000000
_cell_angle_beta 67.150320
_cell_angle_gamma 90.000000
_cell_volume 1825.876862
_symmetry_space_group_name_H-M "C 2/C"
_symmetry_group_IT_number 15
_symmetry_cell_setting 'monoclinic'
loop_
_space_group_symop_operation_xyz
x,y,z
-x,y,1/2-z
-x,-y,-z
x,-y,1/2+z
1/2+x,1/2+y,z
1/2-x,1/2+y,1/2-z
1/2-x,1/2-y,-z
1/2+x,1/2-y,1/2+z
loop_
_atom_site_type_symbol
_atom_site_label
_atom_site_fract_x
_atom_site_fract_y
_atom_site_fract_z
Si Si1 0.376033 0.272434 0.108973
Si Si2 0.936287 0.413554 0.657412
Si Si3 0.460746 0.441423 0.399539
Si Si4 0.374998 0.158979 0.872463
Si Si5 0.317807 0.977519 0.035761
O O1 0.387678 0.185542 0.184821
O O2 0.473795 0.347031 0.105502
O O3 0.238396 0.312462 0.165837
O O4 0.391657 0.233476 0.968905
O O5 0.057799 0.417985 0.522601
O O6 0.000000 0.443829 0.750000
O O7 0.827578 0.480093 0.662830
O O8 0.500000 0.474640 0.250000
O O9 0.500000 0.500000 0.500000
O O10 0.310894 0.434927 0.450251
O O11 0.500000 0.150365 0.750000
O O12 0.336199 0.067696 0.952107
#
# Coordination Sequence:
#
# PCOD9286052 Si02
#       5
#     8   8   8   8   8
#     4  10  23  42  63 105 132 178 230 284 346 411
#     4  10  22  40  65  94 135 173 227 286 341 413
#     4  12  27  45  71 102 143 182 234 295 347 411
#     4  10  21  42  70  96 141 183 228 279 346 419
#     4  10  23  42  66  98 130 184 232 275 347 413
#
# _framework density 21.907281000000001
#
# number of rings (size 3 to 8) (size 9 to 14) (size 15 to 20)
#    0.000    1.600    2.000    1.200    2.800    8.000 
#    0.000    0.000    0.000    0.000    0.000    0.000 
#    0.000    0.000    0.000    0.000    0.000    0.000 
#
# Total GULP energy -111665.799791 kJ/mol
# GULP energy per Si atom -5583.289990 kJ/mol
# Density = 2.185742 g / cm^3
# Si number density = 21.907281 Si / 1000 Ang^3
#
#
#
# Elastic Constant Matrix: (Units=GPa)
#
#
# Indices 1 2 3 4 5 6 
#
# 1 190.0167 58.3093 19.5533 0.0000 4.5147 0.0000
# 2 58.3093 91.1091 11.1226 0.0000 5.1063 0.0000
# 3 19.5533 11.1226 56.2858 0.0000 8.0395 0.0000
# 4 0.0000 0.0000 0.0000 8.4553 0.0000 -2.0815
# 5 4.5147 5.1063 8.0395 0.0000 35.4593 0.0000
# 6 0.0000 0.0000 0.0000 -2.0815 0.0000 39.4131
#
#
#
# Elastic Compliance Matrix: (Units=1/GPa)
#
#
# Indices 1 2 3 4 5 6 
#
# 1 0.006672 -0.004089 -0.001522 0.000000 0.000084 0.000000
# 2 -0.004089 0.013799 -0.001134 0.000000 -0.001210 0.000000
# 3 -0.001522 -0.001134 0.019086 0.000000 -0.003970 0.000000
# 4 0.000000 0.000000 0.000000 0.119826 0.000000 0.006328
# 5 0.000084 -0.001210 -0.003970 0.000000 0.029265 0.000000
# 6 0.000000 0.000000 0.000000 0.006328 0.000000 0.025706
#
#
# Mechanical properties :
#
#
# Convention : Reuss Voigt Hill
#
# Bulk Modulus (GPa) = 38.36054 57.26465 47.81260
# Shear Modulus (GPa) = 21.13867 33.22732 27.18299
#
# Velocity S-wave (km/s) = 3.10968 3.89874 3.52635
# Velocity P-wave (km/s) = 5.51742 6.81639 6.20101
#
# Compressibility (1/GPa) = 0.02606845
#
# Stress axis : x y z
#
# Youngs Moduli (GPa) = 149.87856 72.46917 52.39368
#
# Poissons Ratio (x) = 0.29633 0.07974
# Poissons Ratio (y) = 0.61286 0.05939
# Poissons Ratio (z) = 0.22809 0.08215
#
# Static dielectric constant tensor:
#      x y z
#    x 1.782500 0.000000 0.057560 
#    y 0.000000 1.784980 0.000000 
#    z 0.057560 0.000000 2.019990 
# 
# From -- ./inp_files/85978.got.cif
#   From: 2010.05.17/outbox.cif.g08.bks.cpg/sg15_43_cif.got.tgz:85978.got - 2010.06.03 18:47:42.
