data_PCOD9286685
_publ_section_title
;
Structure prediction by ZEFSAII (Michael W. Deem and Ramdas Pophale) SiO2 
 PCOD9286685
Probable space group: C 2/C
;
_chemical_formula_sum "Si O2"
_cell_formula_units_Z 52
_cell_length_a 11.780268
_cell_length_b 16.299761
_cell_length_c 19.095953
_cell_angle_alpha 90.000000
_cell_angle_beta 144.492649
_cell_angle_gamma 90.000000
_cell_volume 2129.658099
_symmetry_space_group_name_H-M "C 2/C"
_symmetry_group_IT_number 15
_symmetry_cell_setting 'monoclinic'
loop_
_space_group_symop_operation_xyz
x,y,z
-x,y,1/2-z
-x,-y,-z
x,-y,1/2+z
1/2+x,1/2+y,z
1/2-x,1/2+y,1/2-z
1/2-x,1/2-y,-z
1/2+x,1/2-y,1/2+z
loop_
_atom_site_type_symbol
_atom_site_label
_atom_site_fract_x
_atom_site_fract_y
_atom_site_fract_z
Si Si1 0.282489 0.013552 0.565986
Si Si2 0.000000 0.141821 0.250000
Si Si3 0.514257 0.689439 0.613041
Si Si4 0.899303 0.761177 0.836800
Si Si5 0.594109 0.878907 0.489210
Si Si6 0.832471 0.633522 0.983770
Si Si7 0.121390 0.087281 0.090298
O O1 0.397672 0.085871 0.585326
O O2 0.054396 0.046663 0.453228
O O3 0.343532 0.937668 0.547186
O O4 0.280609 0.978323 0.644252
O O5 0.964805 0.199048 0.298475
O O6 0.797605 0.096343 0.129480
O O7 0.740417 0.692199 0.742992
O O8 0.390826 0.661971 0.618681
O O9 0.448920 0.782401 0.560345
O O10 0.466452 0.629013 0.524512
O O11 0.799055 0.835112 0.828674
O O12 0.071975 0.719442 0.967438
O O13 0.419501 0.899454 0.454953
#
# Coordination Sequence:
#
# PCOD9286685 Si02
#       7
#     8   4   8   8   8   8   8
#     4  10  23  41  69  94 142 177 223 285 349 401
#     4  12  24  40  68 102 138 178 232 280 344 408
#     4  10  22  42  70  98 134 177 232 283 330 406
#     4  12  23  41  72 102 134 180 233 285 339 405
#     4  12  24  43  69 102 136 182 230 284 337 410
#     4  10  21  44  65  98 137 178 230 279 336 411
#     4  10  21  45  68 100 133 179 227 285 338 404
#
# _framework density 24.417065999999998
#
# number of rings (size 3 to 8) (size 9 to 14) (size 15 to 20)
#    0.000    1.231    4.615    0.923    2.154    0.615 
#    0.000   12.308    0.000    0.000    0.000    0.000 
#    0.000    0.000    0.000    0.000    0.000    0.000 
#
# Total GULP energy -145039.268865 kJ/mol
# GULP energy per Si atom -5578.433418 kJ/mol
# Density = 2.436149 g / cm^3
# Si number density = 24.417066 Si / 1000 Ang^3
#
#
#
# Elastic Constant Matrix: (Units=GPa)
#
#
# Indices 1 2 3 4 5 6 
#
# 1 209.4669 39.0582 22.0946 0.0000 2.9467 -0.0001
# 2 39.0582 82.8958 5.8503 0.0000 3.9830 -0.0001
# 3 22.0946 5.8503 47.9723 0.0000 3.3739 -0.0002
# 4 0.0000 0.0000 0.0000 10.2777 0.0000 -6.3978
# 5 2.9467 3.9830 3.3739 0.0000 28.7028 -0.0001
# 6 -0.0001 -0.0001 -0.0002 -6.3978 -0.0001 47.0899
#
#
#
# Elastic Compliance Matrix: (Units=1/GPa)
#
#
# Indices 1 2 3 4 5 6 
#
# 1 0.005459 -0.002417 -0.002222 0.000000 0.000036 0.000000
# 2 -0.002417 0.013305 -0.000400 0.000000 -0.001551 0.000000
# 3 -0.002222 -0.000400 0.022080 0.000000 -0.002312 0.000000
# 4 0.000000 0.000000 0.000000 0.106287 0.000000 0.014440
# 5 0.000036 -0.001551 -0.002312 0.000000 0.035323 0.000000
# 6 0.000000 0.000000 0.000000 0.014440 0.000000 0.023198
#
#
# Mechanical properties :
#
#
# Convention : Reuss Voigt Hill
#
# Bulk Modulus (GPa) = 32.50401 52.70456 42.60429
# Shear Modulus (GPa) = 22.12538 35.43620 28.78079
#
# Velocity S-wave (km/s) = 3.01349 3.81371 3.43697
# Velocity P-wave (km/s) = 5.04471 6.40504 5.76514
#
# Compressibility (1/GPa) = 0.03076543
#
# Stress axis : x y z
#
# Youngs Moduli (GPa) = 183.19949 75.16046 45.28973
#
# Poissons Ratio (x) = 0.18165 0.10063
# Poissons Ratio (y) = 0.44276 0.01813
# Poissons Ratio (z) = 0.40704 0.03009
#
# Static dielectric constant tensor:
#      x y z
#    x 1.930010 0.000000 -0.002890 
#    y 0.000000 1.960730 0.000000 
#    z -0.002890 0.000000 1.948210 
# 
# From -- ./inp_files/239855.got.cif
#   From: 2010.05.17/outbox.cif.g08.bks.cpg/sg15_120_cif.got.tgz:239855.got - 2010.06.03 18:47:42.
