data_PCOD9286604
_publ_section_title
;
Structure prediction by ZEFSAII (Michael W. Deem and Ramdas Pophale) SiO2 
 PCOD9286604
Probable space group: C 2/C
;
_chemical_formula_sum "Si O2"
_cell_formula_units_Z 56
_cell_length_a 11.444218
_cell_length_b 13.811919
_cell_length_c 27.893177
_cell_angle_alpha 90.000000
_cell_angle_beta 33.105067
_cell_angle_gamma 90.000000
_cell_volume 2408.079244
_symmetry_space_group_name_H-M "C 2/C"
_symmetry_group_IT_number 15
_symmetry_cell_setting 'monoclinic'
loop_
_space_group_symop_operation_xyz
x,y,z
-x,y,1/2-z
-x,-y,-z
x,-y,1/2+z
1/2+x,1/2+y,z
1/2-x,1/2+y,1/2-z
1/2-x,1/2-y,-z
1/2+x,1/2-y,1/2+z
loop_
_atom_site_type_symbol
_atom_site_label
_atom_site_fract_x
_atom_site_fract_y
_atom_site_fract_z
Si Si1 0.714339 0.245205 0.933975
Si Si2 0.375236 0.913131 0.247518
Si Si3 0.917377 0.382922 0.419976
Si Si4 0.471942 0.670844 0.089286
Si Si5 0.601632 0.771390 0.872552
Si Si6 0.799235 0.533447 0.600475
Si Si7 0.374964 0.418714 0.721327
O O1 0.497233 0.230276 0.039979
O O2 0.685187 0.324520 0.902033
O O3 0.774483 0.140403 0.891456
O O4 0.898404 0.277332 0.906975
O O5 0.500000 0.955540 0.250000
O O6 0.535949 0.872260 0.151986
O O7 0.227310 0.827542 0.318524
O O8 0.243447 0.992829 0.264264
O O9 0.667078 0.403669 0.513645
O O10 0.950840 0.282403 0.436608
O O11 0.090424 0.452378 0.385555
O O12 0.392908 0.653938 0.169900
O O13 0.755572 0.858296 0.803547
O O14 0.601190 0.462046 0.660986
O O15 0.000000 0.500000 0.500000
#
# Coordination Sequence:
#
# PCOD9286604 Si02
#       7
#     8   8   8   8   8   8   8
#     4  10  24  46  72 101 150 196 241 306 363 455
#     4  12  27  47  67 106 147 183 246 308 368 441
#     4  10  22  44  69 101 138 189 230 301 360 434
#     4  10  21  43  74  99 137 192 241 283 372 435
#     4  11  25  48  70 103 148 197 247 297 376 435
#     4  11  23  44  72 109 145 179 251 306 367 443
#     4  12  26  44  73 110 142 195 243 308 368 439
#
# _framework density 23.255047999999999
#
# number of rings (size 3 to 8) (size 9 to 14) (size 15 to 20)
#    0.000    1.143    4.286    0.857    4.000    1.714 
#    0.000    1.429    0.000    0.000    0.000    0.000 
#    0.000    0.000    0.000    0.000    0.000    0.000 
#
# Total GULP energy -156509.458155 kJ/mol
# GULP energy per Si atom -5589.623506 kJ/mol
# Density = 2.320212 g / cm^3
# Si number density = 23.255048 Si / 1000 Ang^3
#
#
#
# Elastic Constant Matrix: (Units=GPa)
#
#
# Indices 1 2 3 4 5 6 
#
# 1 149.5273 30.3226 42.9620 0.0008 9.1247 -0.0002
# 2 30.3226 81.1673 24.0865 0.0002 -12.6926 0.0002
# 3 42.9620 24.0865 88.9162 0.0009 2.3581 -0.0012
# 4 0.0008 0.0002 0.0009 31.8925 -0.0012 -2.1173
# 5 9.1247 -12.6926 2.3581 -0.0012 34.2966 0.0004
# 6 -0.0002 0.0002 -0.0012 -2.1173 0.0004 34.0649
#
#
#
# Elastic Compliance Matrix: (Units=1/GPa)
#
#
# Indices 1 2 3 4 5 6 
#
# 1 0.008329 -0.002614 -0.003238 0.000000 -0.002960 0.000000
# 2 -0.002614 0.015219 -0.003033 0.000000 0.006536 0.000000
# 3 -0.003238 -0.003033 0.013664 0.000000 -0.001201 0.000000
# 4 0.000000 0.000000 0.000000 0.031485 0.000001 0.001957
# 5 -0.002960 0.006536 -0.001201 0.000001 0.032447 0.000000
# 6 0.000000 0.000000 0.000000 0.001957 0.000000 0.029477
#
#
# Mechanical properties :
#
#
# Convention : Reuss Voigt Hill
#
# Bulk Modulus (GPa) = 51.43229 57.15031 54.29130
# Shear Modulus (GPa) = 32.28496 34.86678 33.57587
#
# Velocity S-wave (km/s) = 3.73003 3.87631 3.80387
# Velocity P-wave (km/s) = 6.38087 6.68305 6.53371
#
# Compressibility (1/GPa) = 0.01944304
#
# Stress axis : x y z
#
# Youngs Moduli (GPa) = 120.06744 65.70815 73.18289
#
# Poissons Ratio (x) = 0.17173 0.23694
# Poissons Ratio (y) = 0.31381 0.22197
# Poissons Ratio (z) = 0.38874 0.19930
#
# Static dielectric constant tensor:
#      x y z
#    x 1.984280 0.000010 0.040160 
#    y 0.000010 1.880280 0.000010 
#    z 0.040160 0.000010 1.960180 
# 
# From -- ./inp_files/311293.got.cif
#   From: 2010.05.17/outbox.cif.g08.bks.cpg/sg15_156_cif.got.tgz:311293.got - 2010.06.03 18:47:42.
