data_PCOD9286239
_publ_section_title
;
Structure prediction by ZEFSAII (Michael W. Deem and Ramdas Pophale) SiO2 
 PCOD9286239
Probable space group: C 2/C
;
_chemical_formula_sum "Si O2"
_cell_formula_units_Z 36
_cell_length_a 20.451020
_cell_length_b 12.499710
_cell_length_c 15.834143
_cell_angle_alpha 90.000000
_cell_angle_beta 25.561571
_cell_angle_gamma 90.000000
_cell_volume 1746.509410
_symmetry_space_group_name_H-M "C 2/C"
_symmetry_group_IT_number 15
_symmetry_cell_setting 'monoclinic'
loop_
_space_group_symop_operation_xyz
x,y,z
-x,y,1/2-z
-x,-y,-z
x,-y,1/2+z
1/2+x,1/2+y,z
1/2-x,1/2+y,1/2-z
1/2-x,1/2-y,-z
1/2+x,1/2-y,1/2+z
loop_
_atom_site_type_symbol
_atom_site_label
_atom_site_fract_x
_atom_site_fract_y
_atom_site_fract_z
Si Si1 0.000000 0.192000 0.250000
Si Si2 0.268160 0.461483 0.117752
Si Si3 0.483598 0.797263 0.101899
Si Si4 0.824172 0.849656 0.664892
Si Si5 0.673363 0.672204 0.523418
O O1 0.885463 0.117115 0.435606
O O2 0.931591 0.266555 0.256663
O O3 0.119533 0.394197 0.311075
O O4 0.333690 0.527663 0.121547
O O5 0.238315 0.559777 0.088083
O O6 0.449084 0.696504 0.081714
O O7 0.659178 0.828657 0.896621
O O8 0.829041 0.785627 0.570070
O O9 0.500000 0.649452 0.750000
O O10 0.750000 0.750000 0.500000
#
# Coordination Sequence:
#
# PCOD9286239 Si02
#       5
#     4   8   8   8   8
#     4  12  24  44  70  92 140 176 226 272 330 406
#     4  10  23  42  64  97 129 171 223 269 334 387
#     4  12  23  46  63 102 129 179 220 276 331 394
#     4  10  24  40  71  92 136 165 225 275 327 400
#     4  10  21  43  64  95 132 171 215 272 334 395
#
# _framework density 20.612542999999999
#
# number of rings (size 3 to 8) (size 9 to 14) (size 15 to 20)
#    1.333    0.000    3.333    2.667    0.000    0.889 
#    6.000    0.000    0.000    0.000    0.000    0.000 
#    0.000    0.000    0.000    0.000    0.000    0.000 
#
# Total GULP energy -100341.736164 kJ/mol
# GULP energy per Si atom -5574.540898 kJ/mol
# Density = 2.056563 g / cm^3
# Si number density = 20.612543 Si / 1000 Ang^3
#
#
#
# Elastic Constant Matrix: (Units=GPa)
#
#
# Indices 1 2 3 4 5 6 
#
# 1 90.0818 25.5463 -11.6555 0.0000 18.0014 0.0000
# 2 25.5463 85.1465 4.3477 0.0000 3.4196 0.0000
# 3 -11.6555 4.3477 62.2708 0.0000 12.8598 0.0000
# 4 0.0000 0.0000 0.0000 35.8907 0.0000 10.4778
# 5 18.0014 3.4196 12.8598 0.0000 20.6744 0.0000
# 6 0.0000 0.0000 0.0000 10.4778 0.0000 39.0640
#
#
#
# Elastic Compliance Matrix: (Units=1/GPa)
#
#
# Indices 1 2 3 4 5 6 
#
# 1 0.017168 -0.004776 0.007425 0.000000 -0.018777 0.000000
# 2 -0.004776 0.013164 -0.002550 0.000000 0.003567 0.000000
# 3 0.007425 -0.002550 0.021656 0.000000 -0.019514 0.000000
# 4 0.000000 0.000000 0.000000 0.030229 0.000000 -0.008108
# 5 -0.018777 0.003567 -0.019514 0.000000 0.076266 0.000000
# 6 0.000000 0.000000 0.000000 -0.008108 0.000000 0.027774
#
#
# Mechanical properties :
#
#
# Convention : Reuss Voigt Hill
#
# Bulk Modulus (GPa) = 19.16182 30.44181 24.80182
# Shear Modulus (GPa) = 24.57527 33.74318 29.15923
#
# Velocity S-wave (km/s) = 3.45664 4.05040 3.76524
# Velocity P-wave (km/s) = 5.02469 6.05599 5.56428
#
# Compressibility (1/GPa) = 0.05218710
#
# Stress axis : x y z
#
# Youngs Moduli (GPa) = 58.24656 75.96286 46.17553
#
# Poissons Ratio (x) = 0.36280 -0.34284
# Poissons Ratio (y) = 0.27819 0.11773
# Poissons Ratio (z) = -0.43246 0.19368
#
# Static dielectric constant tensor:
#      x y z
#    x 1.747020 0.000000 -0.005640 
#    y 0.000000 1.764530 0.000000 
#    z -0.005640 0.000000 1.746790 
# 
# From -- ./inp_files/55073.got.cif
#   From: 2010.05.17/outbox.cif.g08.bks.cpg/sg15_28_cif.got.tgz:55073.got - 2010.06.03 18:47:42.
