data_PCOD9286504
_publ_section_title
;
Structure prediction by ZEFSAII (Michael W. Deem and Ramdas Pophale) SiO2 
 PCOD9286504
Probable space group: C 2/C
;
_chemical_formula_sum "Si O2"
_cell_formula_units_Z 52
_cell_length_a 19.293674
_cell_length_b 9.123938
_cell_length_c 11.362850
_cell_angle_alpha 90.000000
_cell_angle_beta 80.363297
_cell_angle_gamma 90.000000
_cell_volume 1972.025644
_symmetry_space_group_name_H-M "C 2/C"
_symmetry_group_IT_number 15
_symmetry_cell_setting 'monoclinic'
loop_
_space_group_symop_operation_xyz
x,y,z
-x,y,1/2-z
-x,-y,-z
x,-y,1/2+z
1/2+x,1/2+y,z
1/2-x,1/2+y,1/2-z
1/2-x,1/2-y,-z
1/2+x,1/2-y,1/2+z
loop_
_atom_site_type_symbol
_atom_site_label
_atom_site_fract_x
_atom_site_fract_y
_atom_site_fract_z
Si Si1 0.220681 0.025462 0.897422
Si Si2 0.239629 0.765583 0.744280
Si Si3 0.439614 0.904738 0.451109
Si Si4 0.668425 0.882683 0.472039
Si Si5 0.108347 0.806380 0.196611
Si Si6 0.000000 0.406543 0.750000
Si Si7 0.932556 0.061054 0.450048
O O1 0.231914 0.936844 0.770753
O O2 0.263239 0.178183 0.876124
O O3 0.259564 0.919675 0.979922
O O4 0.140139 0.043355 0.956069
O O5 0.181910 0.697350 0.847226
O O6 0.316879 0.714929 0.764731
O O7 0.445613 0.733555 0.431951
O O8 0.500000 0.000000 0.500000
O O9 0.369223 0.961890 0.532007
O O10 0.445280 0.981478 0.322501
O O11 0.619520 0.779395 0.568315
O O12 0.052265 0.715738 0.291408
O O13 0.082055 0.966516 0.165034
O O14 0.000000 0.000000 0.500000
#
# Coordination Sequence:
#
# PCOD9286504 Si02
#       7
#     8   8   8   8   8   4   8
#     4  11  25  42  69 103 133 178 231 273 342 401
#     4  11  23  42  68 100 133 178 225 282 336 406
#     4  11  27  44  71  99 138 182 222 280 349 405
#     4  10  21  47  67  92 142 173 216 282 344 402
#     4  10  21  43  70  92 135 180 223 280 337 399
#     4  10  24  46  68  98 130 180 230 276 348 402
#     4  12  25  45  68 101 139 180 229 283 337 406
#
# _framework density 26.368824
#
# number of rings (size 3 to 8) (size 9 to 14) (size 15 to 20)
#    0.000    1.231    3.077    2.769    6.462    4.923 
#    0.000    0.000    0.000    0.000    0.000    0.000 
#    0.000    0.000    0.000    0.000    0.000    0.000 
#
# Total GULP energy -145381.883773 kJ/mol
# GULP energy per Si atom -5591.610914 kJ/mol
# Density = 2.630881 g / cm^3
# Si number density = 26.368824 Si / 1000 Ang^3
#
#
#
# Elastic Constant Matrix: (Units=GPa)
#
#
# Indices 1 2 3 4 5 6 
#
# 1 104.1617 45.5512 -3.1790 0.0000 -9.5991 0.0000
# 2 45.5512 218.1821 35.3637 0.0000 -9.0370 0.0000
# 3 -3.1790 35.3637 44.1278 0.0000 -12.9661 0.0000
# 4 0.0000 0.0000 0.0000 41.6839 0.0000 -1.1979
# 5 -9.5991 -9.0370 -12.9661 0.0000 31.4561 0.0000
# 6 0.0000 0.0000 0.0000 -1.1979 0.0000 41.9863
#
#
#
# Elastic Compliance Matrix: (Units=1/GPa)
#
#
# Indices 1 2 3 4 5 6 
#
# 1 0.011433 -0.002929 0.004493 0.000000 0.004499 0.000000
# 2 -0.002929 0.006020 -0.005450 0.000000 -0.001411 0.000000
# 3 0.004493 -0.005450 0.031057 0.000000 0.012607 0.000000
# 4 0.000000 0.000000 0.000000 0.024010 0.000000 0.000685
# 5 0.004499 -0.001411 0.012607 0.000000 0.037955 0.000000
# 6 0.000000 0.000000 0.000000 0.000685 0.000000 0.023837
#
#
# Mechanical properties :
#
#
# Convention : Reuss Voigt Hill
#
# Bulk Modulus (GPa) = 24.54697 57.99369 41.27033
# Shear Modulus (GPa) = 32.12108 42.27432 37.19770
#
# Velocity S-wave (km/s) = 3.49398 4.00833 3.75996
# Velocity P-wave (km/s) = 5.06029 6.59267 5.87664
#
# Compressibility (1/GPa) = 0.04073822
#
# Stress axis : x y z
#
# Youngs Moduli (GPa) = 87.46597 166.12268 32.19919
#
# Poissons Ratio (x) = 0.48654 -0.14467
# Poissons Ratio (y) = 0.25617 0.17547
# Poissons Ratio (z) = -0.39297 0.90530
#
# Static dielectric constant tensor:
#      x y z
#    x 2.063620 0.000000 0.029220 
#    y 0.000000 2.093450 0.000000 
#    z 0.029220 0.000000 2.415790 
# 
# From -- ./inp_files/166211.got.cif
#   From: 2010.05.17/outbox.cif.g08.bks.cpg/sg15_84_cif.got.tgz:166211.got - 2010.06.03 18:47:42.
