data_PCOD9286238
_publ_section_title
;
Structure prediction by ZEFSAII (Michael W. Deem and Ramdas Pophale) SiO2 
 PCOD9286238
Probable space group: C 2/C
;
_chemical_formula_sum "Si O2"
_cell_formula_units_Z 44
_cell_length_a 7.651561
_cell_length_b 8.994738
_cell_length_c 28.469594
_cell_angle_alpha 90.000000
_cell_angle_beta 68.348767
_cell_angle_gamma 90.000000
_cell_volume 1821.144639
_symmetry_space_group_name_H-M "C 2/C"
_symmetry_group_IT_number 15
_symmetry_cell_setting 'monoclinic'
loop_
_space_group_symop_operation_xyz
x,y,z
-x,y,1/2-z
-x,-y,-z
x,-y,1/2+z
1/2+x,1/2+y,z
1/2-x,1/2+y,1/2-z
1/2-x,1/2-y,-z
1/2+x,1/2-y,1/2+z
loop_
_atom_site_type_symbol
_atom_site_label
_atom_site_fract_x
_atom_site_fract_y
_atom_site_fract_z
Si Si1 0.556633 0.343237 0.973879
Si Si2 0.063087 0.650242 0.889719
Si Si3 0.724440 0.797721 0.156309
Si Si4 0.309470 0.495773 0.294618
Si Si5 0.500000 0.990066 0.250000
Si Si6 0.996671 0.341973 0.563867
O O1 0.531797 0.298330 0.922312
O O2 0.780432 0.338428 0.957028
O O3 0.500000 0.500000 0.000000
O O4 0.448792 0.226073 0.018069
O O5 0.227441 0.637216 0.834690
O O6 0.878007 0.626706 0.877319
O O7 0.082313 0.507719 0.921556
O O8 0.640889 0.635477 0.177244
O O9 0.660469 0.895294 0.206618
O O10 0.926566 0.757477 0.115021
O O11 0.500000 0.451491 0.250000
O O12 0.137269 0.553998 0.277655
#
# Coordination Sequence:
#
# PCOD9286238 Si02
#       6
#     8   8   8   8   4   8
#     4  11  24  41  64 101 133 176 229 278 337 406
#     4  10  23  43  66  95 134 179 218 282 337 399
#     4  10  21  43  64  95 132 169 227 279 335 406
#     4  10  22  43  66  99 132 180 226 280 347 407
#     4  10  22  42  64  94 136 170 224 286 336 408
#     4  10  23  41  65  95 133 177 223 272 339 402
#
# _framework density 24.160630000000001
#
# number of rings (size 3 to 8) (size 9 to 14) (size 15 to 20)
#    0.000    1.818    0.909    1.636    2.545    8.727 
#   11.455    0.000    0.000    0.000    0.000    0.000 
#    0.000    0.000    0.000    0.000    0.000    0.000 
#
# Total GULP energy -122716.624627 kJ/mol
# GULP energy per Si atom -5578.028392 kJ/mol
# Density = 2.410564 g / cm^3
# Si number density = 24.160630 Si / 1000 Ang^3
#
#
#
# Elastic Constant Matrix: (Units=GPa)
#
#
# Indices 1 2 3 4 5 6 
#
# 1 48.5622 11.2066 37.1953 0.0000 -20.1062 0.0000
# 2 11.2066 51.9432 39.0182 0.0000 -0.7276 0.0000
# 3 37.1953 39.0182 148.1681 0.0000 -28.4671 0.0000
# 4 0.0000 0.0000 0.0000 7.7245 0.0000 11.9989
# 5 -20.1062 -0.7276 -28.4671 0.0000 50.5270 0.0000
# 6 0.0000 0.0000 0.0000 11.9989 0.0000 18.9668
#
#
#
# Elastic Compliance Matrix: (Units=1/GPa)
#
#
# Indices 1 2 3 4 5 6 
#
# 1 0.028393 -0.002346 -0.004873 0.000000 0.008519 0.000000
# 2 -0.002346 0.024793 -0.006785 0.000000 -0.004399 0.000000
# 3 -0.004873 -0.006785 0.010505 0.000000 0.003882 0.000000
# 4 0.000000 0.000000 0.000000 7.484251 0.000000 -4.734765
# 5 0.008519 -0.004399 0.003882 0.000000 0.025305 0.000000
# 6 0.000000 0.000000 0.000000 -4.734765 0.000000 3.048080
#
#
# Mechanical properties :
#
#
# Convention : Reuss Voigt Hill
#
# Bulk Modulus (GPa) = 28.02474 47.05709 37.54092
# Shear Modulus (GPa) = 0.46899 26.19387 13.33143
#
# Velocity S-wave (km/s) = 0.44106 3.29622 2.35155
# Velocity P-wave (km/s) = 3.44730 5.83145 4.79008
#
# Compressibility (1/GPa) = 0.03568275
#
# Stress axis : x y z
#
# Youngs Moduli (GPa) = 35.21970 40.33361 95.19241
#
# Poissons Ratio (x) = 0.09462 0.46389
# Poissons Ratio (y) = 0.08262 0.64591
# Poissons Ratio (z) = 0.17163 0.27368
#
# Static dielectric constant tensor:
#      x y z
#    x 2.109640 0.000000 0.147480 
#    y 0.000000 1.987280 0.000000 
#    z 0.147480 0.000000 2.043910 
# 
# From -- ./inp_files/306539.got.cif
#   From: 2010.05.17/outbox.cif.g08.bks.cpg/sg15_154_cif.got.tgz:306539.got - 2010.06.03 18:47:42.
