data_PCOD9286008
_publ_section_title
;
Structure prediction by ZEFSAII (Michael W. Deem and Ramdas Pophale) SiO2 
 PCOD9286008
Probable space group: C 2/C
;
_chemical_formula_sum "Si O2"
_cell_formula_units_Z 56
_cell_length_a 24.264304
_cell_length_b 11.242753
_cell_length_c 8.901455
_cell_angle_alpha 90.000000
_cell_angle_beta 80.877264
_cell_angle_gamma 90.000000
_cell_volume 2397.579769
_symmetry_space_group_name_H-M "C 2/C"
_symmetry_group_IT_number 15
_symmetry_cell_setting 'monoclinic'
loop_
_space_group_symop_operation_xyz
x,y,z
-x,y,1/2-z
-x,-y,-z
x,-y,1/2+z
1/2+x,1/2+y,z
1/2-x,1/2+y,1/2-z
1/2-x,1/2-y,-z
1/2+x,1/2-y,1/2+z
loop_
_atom_site_type_symbol
_atom_site_label
_atom_site_fract_x
_atom_site_fract_y
_atom_site_fract_z
Si Si1 0.933760 0.347916 0.297869
Si Si2 0.945483 0.966436 0.311624
Si Si3 0.591752 0.280995 0.382039
Si Si4 0.887418 0.868455 0.631100
Si Si5 0.276894 0.985816 0.103516
Si Si6 0.802836 0.945074 0.109475
Si Si7 0.357022 0.081868 0.319313
O O1 0.928070 0.288567 0.464416
O O2 0.905372 0.261132 0.183797
O O3 0.898239 0.469397 0.314896
O O4 0.000000 0.367895 0.250000
O O5 0.952099 0.869486 0.175354
O O6 0.928425 0.912047 0.477998
O O7 0.000000 0.045067 0.250000
O O8 0.895622 0.049008 0.275449
O O9 0.645135 0.357587 0.408674
O O10 0.608477 0.197028 0.237053
O O11 0.826784 0.917908 0.603912
O O12 0.316316 0.060613 0.195829
O O13 0.234502 0.917650 0.228993
O O14 0.238643 0.065415 0.011991
O O15 0.317804 0.909879 0.981023
#
# Coordination Sequence:
#
# PCOD9286008 Si02
#       7
#     8   8   8   8   8   8   8
#     4  12  26  45  68  93 136 186 222 271 332 389
#     4  11  22  38  65  98 134 173 219 278 335 386
#     4  11  24  43  66  97 133 172 227 278 324 404
#     4  11  22  40  67 100 135 169 222 273 329 408
#     4  10  22  45  64  96 129 171 215 269 338 389
#     4  10  21  42  69  98 130 167 210 276 349 393
#     4  11  25  45  64  94 135 171 230 273 316 405
#
# _framework density 23.356888000000001
#
# number of rings (size 3 to 8) (size 9 to 14) (size 15 to 20)
#    0.000    1.143    1.429    6.000    2.000    2.286 
#   10.286    0.000    0.000    0.000    0.000    0.000 
#    0.000    0.000    0.000    0.000    0.000    0.000 
#
# Total GULP energy -156426.169243 kJ/mol
# GULP energy per Si atom -5586.648902 kJ/mol
# Density = 2.330373 g / cm^3
# Si number density = 23.356888 Si / 1000 Ang^3
#
#
#
# Elastic Constant Matrix: (Units=GPa)
#
#
# Indices 1 2 3 4 5 6 
#
# 1 96.3566 25.3024 35.9887 0.0000 -10.8001 0.0000
# 2 25.3024 45.5657 19.0814 0.0000 -2.7141 0.0000
# 3 35.9887 19.0814 133.5156 0.0000 -12.9298 0.0000
# 4 0.0000 0.0000 0.0000 29.0408 0.0000 -7.5431
# 5 -10.8001 -2.7141 -12.9298 0.0000 43.7135 0.0000
# 6 0.0000 0.0000 0.0000 -7.5431 0.0000 16.5847
#
#
#
# Elastic Compliance Matrix: (Units=1/GPa)
#
#
# Indices 1 2 3 4 5 6 
#
# 1 0.013150 -0.006145 -0.002459 0.000000 0.002140 0.000000
# 2 -0.006145 0.026224 -0.002142 0.000000 -0.000524 0.000000
# 3 -0.002459 -0.002142 0.008634 0.000000 0.001813 0.000000
# 4 0.000000 0.000000 0.000000 0.039047 0.000000 0.017759
# 5 0.002140 -0.000524 0.001813 0.000000 0.023909 0.000000
# 6 0.000000 0.000000 0.000000 0.017759 0.000000 0.068374
#
#
# Mechanical properties :
#
#
# Convention : Reuss Voigt Hill
#
# Bulk Modulus (GPa) = 37.71248 48.46475 43.08862
# Shear Modulus (GPa) = 23.84699 30.87215 27.35957
#
# Velocity S-wave (km/s) = 3.19875 3.63954 3.42624
# Velocity P-wave (km/s) = 5.46113 6.20132 5.84296
#
# Compressibility (1/GPa) = 0.02651642
#
# Stress axis : x y z
#
# Youngs Moduli (GPa) = 76.04543 38.13231 115.81621
#
# Poissons Ratio (x) = 0.23432 0.28480
# Poissons Ratio (y) = 0.46729 0.24811
# Poissons Ratio (z) = 0.18700 0.08169
#
# Static dielectric constant tensor:
#      x y z
#    x 1.883810 0.000000 0.008320 
#    y 0.000000 1.908390 0.000000 
#    z 0.008320 0.000000 1.870110 
# 
# From -- ./inp_files/65425.got.cif
#   From: 2010.05.17/outbox.cif.g08.bks.cpg/sg15_33_cif.got.tgz:65425.got - 2010.06.03 18:47:42.
