data_PCOD9286882
_publ_section_title
;
Structure prediction by ZEFSAII (Michael W. Deem and Ramdas Pophale) SiO2 
 PCOD9286882
Probable space group: C 2/C
;
_chemical_formula_sum "Si O2"
_cell_formula_units_Z 36
_cell_length_a 10.208423
_cell_length_b 34.762077
_cell_length_c 5.390978
_cell_angle_alpha 90.000000
_cell_angle_beta 129.321873
_cell_angle_gamma 90.000000
_cell_volume 1479.951463
_symmetry_space_group_name_H-M "C 2/C"
_symmetry_group_IT_number 15
_symmetry_cell_setting 'monoclinic'
loop_
_space_group_symop_operation_xyz
x,y,z
-x,y,1/2-z
-x,-y,-z
x,-y,1/2+z
1/2+x,1/2+y,z
1/2-x,1/2+y,1/2-z
1/2-x,1/2-y,-z
1/2+x,1/2-y,1/2+z
loop_
_atom_site_type_symbol
_atom_site_label
_atom_site_fract_x
_atom_site_fract_y
_atom_site_fract_z
Si Si1 0.308117 0.514827 0.719270
Si Si2 0.782948 0.670568 0.852617
Si Si3 0.500000 0.713691 0.250000
Si Si4 0.500000 0.236840 0.250000
Si Si5 0.306591 0.093569 0.124155
Si Si6 0.500000 0.875440 0.250000
O O1 0.228203 0.490515 0.395984
O O2 0.297724 0.557977 0.603558
O O3 0.500000 0.500000 0.000000
O O4 0.656260 0.686120 0.495517
O O5 0.941788 0.652674 0.897379
O O6 0.724252 0.633797 0.937696
O O7 0.840212 0.707802 0.074734
O O8 0.479484 0.739266 0.472777
O O9 0.500000 0.087848 0.250000
O O10 0.345743 0.098951 0.462765
#
# Coordination Sequence:
#
# PCOD9286882 Si02
#       6
#     8   8   4   4   8   4
#     4  10  24  45  67 100 139 174 215 276 347 399
#     4  11  24  45  69 101 138 188 239 287 343 418
#     4  12  29  40  70 108 140 178 240 296 358 398
#     4  12  24  46  68  97 144 190 226 294 353 416
#     4  10  23  42  72  96 134 185 232 275 335 417
#     4  10  21  44  72  95 138 184 240 278 339 412
#
# _framework density 24.325122
#
# number of rings (size 3 to 8) (size 9 to 14) (size 15 to 20)
#    0.000    1.333    3.333    2.000    9.333    2.667 
#    4.000    0.000    0.000    0.000    0.000    0.000 
#    0.000    0.000    0.000    0.000    0.000    0.000 
#
# Total GULP energy -100524.949198 kJ/mol
# GULP energy per Si atom -5584.719400 kJ/mol
# Density = 2.426976 g / cm^3
# Si number density = 24.325122 Si / 1000 Ang^3
#
#
#
# Elastic Constant Matrix: (Units=GPa)
#
#
# Indices 1 2 3 4 5 6 
#
# 1 34.5800 21.7360 24.1603 0.0000 -8.4324 0.0000
# 2 21.7360 196.5903 109.6372 0.0000 -5.0064 0.0000
# 3 24.1603 109.6372 195.0659 0.0000 -25.3230 0.0000
# 4 0.0000 0.0000 0.0000 71.9959 0.0000 7.8493
# 5 -8.4324 -5.0064 -25.3230 0.0000 43.8398 0.0000
# 6 0.0000 0.0000 0.0000 7.8493 0.0000 41.8769
#
#
#
# Elastic Compliance Matrix: (Units=1/GPa)
#
#
# Indices 1 2 3 4 5 6 
#
# 1 0.033073 -0.002330 -0.002157 0.000000 0.004849 0.000000
# 2 -0.002330 0.007690 -0.004300 0.000000 -0.002054 0.000000
# 3 -0.002157 -0.004300 0.008317 0.000000 0.003898 0.000000
# 4 0.000000 0.000000 0.000000 0.014179 0.000000 -0.002658
# 5 0.004849 -0.002054 0.003898 0.000000 0.025760 0.000000
# 6 0.000000 0.000000 0.000000 -0.002658 0.000000 0.024378
#
#
# Mechanical properties :
#
#
# Convention : Reuss Voigt Hill
#
# Bulk Modulus (GPa) = 31.74156 81.92257 56.83207
# Shear Modulus (GPa) = 35.34223 49.58938 42.46580
#
# Velocity S-wave (km/s) = 3.81584 4.51999 4.18276
# Velocity P-wave (km/s) = 5.70012 7.80972 6.83678
#
# Compressibility (1/GPa) = 0.03150444
#
# Stress axis : x y z
#
# Youngs Moduli (GPa) = 30.23639 130.03278 120.23966
#
# Poissons Ratio (x) = 0.30300 0.25937
# Poissons Ratio (y) = 0.07046 0.51708
# Poissons Ratio (z) = 0.06522 0.55920
#
# Static dielectric constant tensor:
#      x y z
#    x 2.111060 0.000000 -0.029100 
#    y 0.000000 1.932880 0.000000 
#    z -0.029100 0.000000 2.032530 
# 
# From -- ./inp_files/7922.got.cif
#   From: 2010.05.17/outbox.cif.g08.bks.cpg/sg15_4_cif.got.tgz:7922.got - 2010.06.03 18:47:42.
