data_PCOD9286518
_publ_section_title
;
Structure prediction by ZEFSAII (Michael W. Deem and Ramdas Pophale) SiO2 
 PCOD9286518
Probable space group: C 2/C
;
_chemical_formula_sum "Si O2"
_cell_formula_units_Z 60
_cell_length_a 19.694346
_cell_length_b 14.345233
_cell_length_c 15.864839
_cell_angle_alpha 90.000000
_cell_angle_beta 39.387594
_cell_angle_gamma 90.000000
_cell_volume 2844.197232
_symmetry_space_group_name_H-M "C 2/C"
_symmetry_group_IT_number 15
_symmetry_cell_setting 'monoclinic'
loop_
_space_group_symop_operation_xyz
x,y,z
-x,y,1/2-z
-x,-y,-z
x,-y,1/2+z
1/2+x,1/2+y,z
1/2-x,1/2+y,1/2-z
1/2-x,1/2-y,-z
1/2+x,1/2-y,1/2+z
loop_
_atom_site_type_symbol
_atom_site_label
_atom_site_fract_x
_atom_site_fract_y
_atom_site_fract_z
Si Si1 0.318547 0.144359 0.499265
Si Si2 0.382965 0.990169 0.818803
Si Si3 0.500000 0.724593 0.750000
Si Si4 0.052875 0.763499 0.511833
Si Si5 0.895335 0.875441 0.199870
Si Si6 0.300221 0.159619 0.991392
Si Si7 0.425142 0.580646 0.237286
Si Si8 0.506298 0.909589 0.938637
O O1 0.292408 0.067183 0.454570
O O2 0.392823 0.217107 0.376964
O O3 0.214166 0.162599 0.652970
O O4 0.399715 0.098232 0.486837
O O5 0.500000 0.977796 0.750000
O O6 0.397224 0.937395 0.716904
O O7 0.356562 0.097493 0.864202
O O8 0.518899 0.669010 0.817965
O O9 0.104061 0.837269 0.396071
O O10 0.122696 0.700579 0.509727
O O11 0.010976 0.683949 0.488277
O O12 0.973773 0.829315 0.641776
O O13 0.916955 0.985964 0.189623
O O14 0.198185 0.103519 0.123719
O O15 0.250000 0.250000 0.000000
O O16 0.500000 0.567369 0.250000
O O17 0.500000 0.000000 0.000000
#
# Coordination Sequence:
#
# PCOD9286518 Si02
#       8
#     8   8   4   8   8   8   8   8
#     4  11  21  43  66 101 136 181 244 295 360 437
#     4  10  21  43  70  98 137 179 237 293 359 432
#     4  12  22  44  72  98 146 190 246 308 368 428
#     4  12  27  47  71 109 145 189 247 308 371 429
#     4  12  26  45  72 105 144 198 245 301 370 442
#     4  12  27  45  73 104 137 196 245 293 372 446
#     4  12  27  51  72 102 152 200 245 299 369 454
#     4  11  24  40  69 103 142 177 229 314 361 415
#
# _framework density 21.095583999999999
#
# number of rings (size 3 to 8) (size 9 to 14) (size 15 to 20)
#    0.000    0.533    6.667    2.400    5.600    0.000 
#    0.000    0.000    0.000    0.000    0.000    0.000 
#    0.000    0.000    0.000    0.000    0.000    0.000 
#
# Total GULP energy -167063.277069 kJ/mol
# GULP energy per Si atom -5568.775902 kJ/mol
# Density = 2.104757 g / cm^3
# Si number density = 21.095584 Si / 1000 Ang^3
#
#
#
# Elastic Constant Matrix: (Units=GPa)
#
#
# Indices 1 2 3 4 5 6 
#
# 1 48.2385 17.1625 13.6656 0.0000 6.4925 0.0000
# 2 17.1625 111.8994 29.4146 0.0000 -0.9110 0.0000
# 3 13.6656 29.4146 87.1725 0.0000 -2.3068 0.0000
# 4 0.0000 0.0000 0.0000 40.4761 0.0000 22.1543
# 5 6.4925 -0.9110 -2.3068 0.0000 23.3821 0.0000
# 6 0.0000 0.0000 0.0000 22.1543 0.0000 22.6585
#
#
#
# Elastic Compliance Matrix: (Units=1/GPa)
#
#
# Indices 1 2 3 4 5 6 
#
# 1 0.023514 -0.002903 -0.002890 0.000000 -0.006927 0.000000
# 2 -0.002903 0.010165 -0.002951 0.000000 0.000911 0.000000
# 3 -0.002890 -0.002951 0.012972 0.000000 0.001967 0.000000
# 4 0.000000 0.000000 0.000000 0.053150 0.000000 -0.051967
# 5 -0.006927 0.000911 0.001967 0.000000 0.044921 0.000000
# 6 0.000000 0.000000 0.000000 -0.051967 0.000000 0.094944
#
#
# Mechanical properties :
#
#
# Convention : Reuss Voigt Hill
#
# Bulk Modulus (GPa) = 34.28908 40.86620 37.57764
# Shear Modulus (GPa) = 18.73533 29.77452 24.25492
#
# Velocity S-wave (km/s) = 2.98336 3.76095 3.39449
# Velocity P-wave (km/s) = 5.30629 6.18657 5.76326
#
# Compressibility (1/GPa) = 0.02916380
#
# Stress axis : x y z
#
# Youngs Moduli (GPa) = 42.52726 98.37729 77.08750
#
# Poissons Ratio (x) = 0.28561 0.22278
# Poissons Ratio (y) = 0.12347 0.22746
# Poissons Ratio (z) = 0.12290 0.29028
#
# Static dielectric constant tensor:
#      x y z
#    x 1.747750 0.000000 0.022730 
#    y 0.000000 1.285980 0.000000 
#    z 0.022730 0.000000 1.875910 
# 
# From -- ./inp_files/168600.got.cif
#   From: 2010.05.17/outbox.cif.g08.bks.cpg/sg15_85_cif.got.tgz:168600.got - 2010.06.03 18:47:42.
