data_PCOD9286999
_publ_section_title
;
Structure prediction by ZEFSAII (Michael W. Deem and Ramdas Pophale) SiO2 
 PCOD9286999
Probable space group: C 2/C
;
_chemical_formula_sum "Si O2"
_cell_formula_units_Z 36
_cell_length_a 20.305794
_cell_length_b 7.916771
_cell_length_c 10.651773
_cell_angle_alpha 90.000000
_cell_angle_beta 50.814937
_cell_angle_gamma 90.000000
_cell_volume 1327.250419
_symmetry_space_group_name_H-M "C 2/C"
_symmetry_group_IT_number 15
_symmetry_cell_setting 'monoclinic'
loop_
_space_group_symop_operation_xyz
x,y,z
-x,y,1/2-z
-x,-y,-z
x,-y,1/2+z
1/2+x,1/2+y,z
1/2-x,1/2+y,1/2-z
1/2-x,1/2-y,-z
1/2+x,1/2-y,1/2+z
loop_
_atom_site_type_symbol
_atom_site_label
_atom_site_fract_x
_atom_site_fract_y
_atom_site_fract_z
Si Si1 0.959608 0.773408 0.434590
Si Si2 0.437711 0.344747 0.943363
Si Si3 0.678209 0.039522 0.683303
Si Si4 0.768309 0.635853 0.133433
Si Si5 0.500000 0.000000 0.500000
O O1 0.926637 0.584279 0.486350
O O2 0.000000 0.795454 0.250000
O O3 0.019215 0.742539 0.491249
O O4 0.924910 0.961008 0.500661
O O5 0.500000 0.338246 0.750000
O O6 0.349394 0.259301 0.022931
O O7 0.726785 0.936297 0.733284
O O8 0.579061 0.997795 0.796151
O O9 0.689885 0.238104 0.703920
O O10 0.725490 0.011486 0.492766
#
# Coordination Sequence:
#
# PCOD9286999 Si02
#       5
#     8   8   8   8   4
#     4  10  23  39  69 108 141 191 244 310 373 449
#     4  10  21  45  71 104 148 192 248 308 383 459
#     4  11  28  46  75 108 159 197 263 316 402 449
#     4  11  26  51  71 114 151 209 246 335 382 474
#     4  12  24  42  72 112 144 198 254 320 362 472
#
# _framework density 27.123746000000001
#
# number of rings (size 3 to 8) (size 9 to 14) (size 15 to 20)
#    0.000    1.333    2.222    1.333    6.222    1.778 
#    8.000    0.000    0.000    0.000    0.000    0.000 
#    0.000    0.000    0.000    0.000    0.000    0.000 
#
# Total GULP energy -100365.948313 kJ/mol
# GULP energy per Si atom -5575.886017 kJ/mol
# Density = 2.706201 g / cm^3
# Si number density = 27.123746 Si / 1000 Ang^3
#
#
#
# Elastic Constant Matrix: (Units=GPa)
#
#
# Indices 1 2 3 4 5 6 
#
# 1 125.8833 40.1725 66.7896 0.0000 23.6639 0.0000
# 2 40.1725 149.8678 50.0559 0.0000 15.6874 0.0000
# 3 66.7896 50.0559 107.2589 0.0000 7.4561 0.0000
# 4 0.0000 0.0000 0.0000 54.2830 0.0000 1.6472
# 5 23.6639 15.6874 7.4561 0.0000 56.8325 0.0000
# 6 0.0000 0.0000 0.0000 1.6472 0.0000 45.1650
#
#
#
# Elastic Compliance Matrix: (Units=1/GPa)
#
#
# Indices 1 2 3 4 5 6 
#
# 1 0.012874 -0.000507 -0.007485 0.000000 -0.004238 0.000000
# 2 -0.000507 0.008094 -0.003351 0.000000 -0.001583 0.000000
# 3 -0.007485 -0.003351 0.015408 0.000000 0.002020 0.000000
# 4 0.000000 0.000000 0.000000 0.018442 0.000000 -0.000673
# 5 -0.004238 -0.001583 0.002020 0.000000 0.019532 0.000000
# 6 0.000000 0.000000 0.000000 -0.000673 0.000000 0.022166
#
#
# Mechanical properties :
#
#
# Convention : Reuss Voigt Hill
#
# Bulk Modulus (GPa) = 73.05690 77.44957 75.25324
# Shear Modulus (GPa) = 40.39907 46.32223 43.36065
#
# Velocity S-wave (km/s) = 3.86351 4.13705 4.00262
# Velocity P-wave (km/s) = 6.84802 7.17192 7.01184
#
# Compressibility (1/GPa) = 0.01368796
#
# Stress axis : x y z
#
# Youngs Moduli (GPa) = 77.67686 123.55539 64.90241
#
# Poissons Ratio (x) = 0.06266 0.48581
# Poissons Ratio (y) = 0.03940 0.21750
# Poissons Ratio (z) = 0.58142 0.41407
#
# Static dielectric constant tensor:
#      x y z
#    x 2.140590 0.000000 -0.032040 
#    y 0.000000 2.468120 0.000000 
#    z -0.032040 0.000000 2.271800 
# 
# From -- ./inp_files/116137.got.cif
#   From: 2010.05.17/outbox.cif.g08.bks.cpg/sg15_59_cif.got.tgz:116137.got - 2010.06.03 18:47:42.
