data_PCOD9286339
_publ_section_title
;
Structure prediction by ZEFSAII (Michael W. Deem and Ramdas Pophale) SiO2 
 PCOD9286339
Probable space group: C 2/C
;
_chemical_formula_sum "Si O2"
_cell_formula_units_Z 52
_cell_length_a 14.652699
_cell_length_b 12.083050
_cell_length_c 14.160755
_cell_angle_alpha 90.000000
_cell_angle_beta 73.225728
_cell_angle_gamma 90.000000
_cell_volume 2400.470343
_symmetry_space_group_name_H-M "C 2/C"
_symmetry_group_IT_number 15
_symmetry_cell_setting 'monoclinic'
loop_
_space_group_symop_operation_xyz
x,y,z
-x,y,1/2-z
-x,-y,-z
x,-y,1/2+z
1/2+x,1/2+y,z
1/2-x,1/2+y,1/2-z
1/2-x,1/2-y,-z
1/2+x,1/2-y,1/2+z
loop_
_atom_site_type_symbol
_atom_site_label
_atom_site_fract_x
_atom_site_fract_y
_atom_site_fract_z
Si Si1 0.710047 0.901111 0.476092
Si Si2 0.948411 0.796550 0.664934
Si Si3 0.384455 0.717597 0.881140
Si Si4 0.000000 0.613546 0.250000
Si Si5 0.888684 0.459176 0.164147
Si Si6 0.209421 0.018991 0.347679
Si Si7 0.043157 0.117906 0.956348
O O1 0.653981 0.789293 0.518966
O O2 0.800880 0.867495 0.384773
O O3 0.641522 0.976165 0.434984
O O4 0.751481 0.945784 0.561076
O O5 0.910858 0.670296 0.674682
O O6 0.000000 0.819208 0.750000
O O7 0.023953 0.809769 0.555579
O O8 0.862210 0.884857 0.670577
O O9 0.411443 0.806114 0.794953
O O10 0.479302 0.660293 0.889261
O O11 0.023070 0.534620 0.330393
O O12 0.798919 0.494949 0.254849
O O13 0.147440 0.909002 0.387187
O O14 0.000000 0.000000 0.000000
#
# Coordination Sequence:
#
# PCOD9286339 Si02
#       7
#     8   8   8   4   8   8   8
#     4  11  22  45  69  95 136 181 217 283 336 390
#     4  11  23  44  68  94 140 181 218 283 339 398
#     4  11  22  43  71  94 138 177 226 278 331 412
#     4  12  28  44  64 106 132 182 236 266 344 426
#     4  12  26  44  69  98 140 181 223 280 344 401
#     4  11  25  44  70 106 134 171 240 275 336 411
#     4  10  21  43  67 100 131 174 222 277 338 399
#
# _framework density 21.662420999999998
#
# number of rings (size 3 to 8) (size 9 to 14) (size 15 to 20)
#    0.000    0.923    6.923    0.923    4.308    0.615 
#    4.154    0.769    0.000    0.000    0.000    0.000 
#    0.000    0.000    0.000    0.000    0.000    0.000 
#
# Total GULP energy -145228.256902 kJ/mol
# GULP energy per Si atom -5585.702189 kJ/mol
# Density = 2.161312 g / cm^3
# Si number density = 21.662421 Si / 1000 Ang^3
#
#
#
# Elastic Constant Matrix: (Units=GPa)
#
#
# Indices 1 2 3 4 5 6 
#
# 1 77.7761 26.9113 18.7520 0.0000 31.8607 0.0000
# 2 26.9113 75.7535 24.5502 0.0000 12.0857 0.0000
# 3 18.7520 24.5502 48.8706 0.0000 10.1914 0.0000
# 4 0.0000 0.0000 0.0000 30.7940 0.0000 -1.8282
# 5 31.8607 12.0857 10.1914 0.0000 50.2450 0.0000
# 6 0.0000 0.0000 0.0000 -1.8282 0.0000 40.1366
#
#
#
# Elastic Compliance Matrix: (Units=1/GPa)
#
#
# Indices 1 2 3 4 5 6 
#
# 1 0.019436 -0.004187 -0.003127 0.000000 -0.010683 0.000000
# 2 -0.004187 0.016924 -0.006892 0.000000 -0.000018 0.000000
# 3 -0.003127 -0.006892 0.025441 0.000000 -0.001520 0.000000
# 4 0.000000 0.000000 0.000000 0.032562 0.000000 0.001483
# 5 -0.010683 -0.000018 -0.001520 0.000000 0.026990 0.000000
# 6 0.000000 0.000000 0.000000 0.001483 0.000000 0.024982
#
#
# Mechanical properties :
#
#
# Convention : Reuss Voigt Hill
#
# Bulk Modulus (GPa) = 29.94805 38.09190 34.01998
# Shear Modulus (GPa) = 26.89950 33.04755 29.97353
#
# Velocity S-wave (km/s) = 3.52768 3.91009 3.72380
# Velocity P-wave (km/s) = 5.51794 6.16503 5.85044
#
# Compressibility (1/GPa) = 0.03339115
#
# Stress axis : x y z
#
# Youngs Moduli (GPa) = 51.44968 59.08599 39.30671
#
# Poissons Ratio (x) = 0.24740 0.12290
# Poissons Ratio (y) = 0.21542 0.27089
# Poissons Ratio (z) = 0.16087 0.40720
#
# Static dielectric constant tensor:
#      x y z
#    x 1.845970 0.000000 -0.020600 
#    y 0.000000 1.799720 0.000000 
#    z -0.020600 0.000000 1.820490 
# 
# From -- ./inp_files/152568.got.cif
#   From: 2010.05.17/outbox.cif.g08.bks.cpg/sg15_77_cif.got.tgz:152568.got - 2010.06.03 18:47:42.
