data_PCOD9286461
_publ_section_title
;
Structure prediction by ZEFSAII (Michael W. Deem and Ramdas Pophale) SiO2 
 PCOD9286461
Probable space group: C 2/C
;
_chemical_formula_sum "Si O2"
_cell_formula_units_Z 36
_cell_length_a 12.998330
_cell_length_b 10.855994
_cell_length_c 24.222807
_cell_angle_alpha 90.000000
_cell_angle_beta 156.182082
_cell_angle_gamma 90.000000
_cell_volume 1380.326156
_symmetry_space_group_name_H-M "C 2/C"
_symmetry_group_IT_number 15
_symmetry_cell_setting 'monoclinic'
loop_
_space_group_symop_operation_xyz
x,y,z
-x,y,1/2-z
-x,-y,-z
x,-y,1/2+z
1/2+x,1/2+y,z
1/2-x,1/2+y,1/2-z
1/2-x,1/2-y,-z
1/2+x,1/2-y,1/2+z
loop_
_atom_site_type_symbol
_atom_site_label
_atom_site_fract_x
_atom_site_fract_y
_atom_site_fract_z
Si Si1 0.500000 0.018485 0.750000
Si Si2 0.866630 0.859391 0.595527
Si Si3 0.670736 0.843892 0.747294
Si Si4 0.579100 0.717733 0.541952
Si Si5 0.353052 0.377077 0.119362
O O1 0.261308 0.105784 0.647963
O O2 0.473783 0.934850 0.682029
O O3 0.750000 0.750000 0.500000
O O4 0.768404 0.813806 0.605952
O O5 0.163510 0.871728 0.725296
O O6 0.775422 0.000193 0.549371
O O7 0.546266 0.709890 0.681211
O O8 0.886781 0.834716 0.901101
O O9 0.391981 0.793921 0.488870
O O10 0.500000 0.404165 0.250000
#
# Coordination Sequence:
#
# PCOD9286461 Si02
#       5
#     4   8   8   8   8
#     4  12  22  40  66  94 138 176 230 264 342 386
#     4  10  23  42  65  96 134 171 223 283 330 391
#     4  10  22  41  65  94 132 178 215 281 325 399
#     4  10  22  41  63  96 129 181 221 271 327 402
#     4  10  21  43  69  94 132 179 225 264 340 401
#
# _framework density 26.080794000000001
#
# number of rings (size 3 to 8) (size 9 to 14) (size 15 to 20)
#    0.000    1.778    3.333    1.333    4.667    0.000 
#    0.000    1.111    0.000    0.000    0.000    0.000 
#    0.000    0.000    0.000    0.000    0.000    0.000 
#
# Total GULP energy -100605.135618 kJ/mol
# GULP energy per Si atom -5589.174201 kJ/mol
# Density = 2.602143 g / cm^3
# Si number density = 26.080794 Si / 1000 Ang^3
#
#
#
# Elastic Constant Matrix: (Units=GPa)
#
#
# Indices 1 2 3 4 5 6 
#
# 1 88.2665 41.3279 31.0542 -0.0006 35.0125 0.0005
# 2 41.3279 191.4814 38.2657 0.0008 18.8326 -0.0001
# 3 31.0542 38.2657 97.9628 0.0029 -7.7795 0.0003
# 4 -0.0006 0.0008 0.0029 24.7804 -0.0015 18.0477
# 5 35.0125 18.8326 -7.7795 -0.0015 53.0366 0.0005
# 6 0.0005 -0.0001 0.0003 18.0477 0.0005 37.6705
#
#
#
# Elastic Compliance Matrix: (Units=1/GPa)
#
#
# Indices 1 2 3 4 5 6 
#
# 1 0.019791 -0.001603 -0.006718 0.000001 -0.013482 0.000000
# 2 -0.001603 0.006103 -0.001987 0.000000 -0.001400 0.000000
# 3 -0.006718 -0.001987 0.013681 -0.000002 0.007147 0.000001
# 4 0.000001 0.000000 -0.000002 0.061981 0.000001 -0.029695
# 5 -0.013482 -0.001400 0.007147 0.000001 0.029300 -0.000001
# 6 0.000000 0.000000 0.000001 -0.029695 -0.000001 0.040772
#
#
# Mechanical properties :
#
#
# Convention : Reuss Voigt Hill
#
# Bulk Modulus (GPa) = 52.74492 66.55623 59.65057
# Shear Modulus (GPa) = 25.18049 40.90171 33.04110
#
# Velocity S-wave (km/s) = 3.11059 3.96443 3.56318
# Velocity P-wave (km/s) = 5.75922 6.82131 6.31264
#
# Compressibility (1/GPa) = 0.01895917
#
# Stress axis : x y z
#
# Youngs Moduli (GPa) = 50.52739 163.84693 73.09189
#
# Poissons Ratio (x) = 0.26266 0.49105
# Poissons Ratio (y) = 0.08100 0.14524
# Poissons Ratio (z) = 0.33945 0.32557
#
# Static dielectric constant tensor:
#      x y z
#    x 2.137530 0.000000 -0.075480 
#    y 0.000000 2.047850 0.000000 
#    z -0.075480 0.000000 2.107510 
# 
# From -- ./inp_files/313679.got.cif
#   From: 2010.05.17/outbox.cif.g08.bks.cpg/sg15_157_cif.got.tgz:313679.got - 2010.06.03 18:47:42.
