data_PCOD9286864
_publ_section_title
;
Structure prediction by ZEFSAII (Michael W. Deem and Ramdas Pophale) SiO2 
 PCOD9286864
Probable space group: C 2/C
;
_chemical_formula_sum "Si O2"
_cell_formula_units_Z 56
_cell_length_a 14.161875
_cell_length_b 9.087989
_cell_length_c 22.652461
_cell_angle_alpha 90.000000
_cell_angle_beta 63.131874
_cell_angle_gamma 90.000000
_cell_volume 2600.714580
_symmetry_space_group_name_H-M "C 2/C"
_symmetry_group_IT_number 15
_symmetry_cell_setting 'monoclinic'
loop_
_space_group_symop_operation_xyz
x,y,z
-x,y,1/2-z
-x,-y,-z
x,-y,1/2+z
1/2+x,1/2+y,z
1/2-x,1/2+y,1/2-z
1/2-x,1/2-y,-z
1/2+x,1/2-y,1/2+z
loop_
_atom_site_type_symbol
_atom_site_label
_atom_site_fract_x
_atom_site_fract_y
_atom_site_fract_z
Si Si1 0.960849 0.392135 0.852474
Si Si2 0.608968 0.816307 0.188598
Si Si3 0.690923 0.650221 0.564713
Si Si4 0.643280 0.672398 0.050645
Si Si5 0.715172 0.172270 0.279550
Si Si6 0.010040 0.407761 0.055848
Si Si7 0.784948 0.372672 0.162538
O O1 0.916538 0.509952 0.817005
O O2 0.899181 0.240492 0.875361
O O3 0.086327 0.346950 0.818447
O O4 0.925450 0.480733 0.921336
O O5 0.500000 0.762133 0.250000
O O6 0.621466 0.729032 0.123426
O O7 0.714611 0.782207 0.197750
O O8 0.750000 0.750000 0.500000
O O9 0.648916 0.501604 0.547339
O O10 0.764333 0.606078 0.599097
O O11 0.558518 0.748648 0.031826
O O12 0.750000 0.750000 0.000000
O O13 0.743219 0.227790 0.206278
O O14 0.755835 0.012605 0.289119
O O15 0.911287 0.375971 0.126570
O O16 0.000000 0.500000 0.000000
#
# Coordination Sequence:
#
# PCOD9286864 Si02
#       7
#     8   8   8   8   8   8   8
#     4  10  25  41  68 101 142 187 236 308 375 435
#     4  11  23  45  72 101 144 198 243 303 387 458
#     4  12  25  47  67 106 146 188 246 310 375 459
#     4  11  23  43  70 100 136 190 242 300 377 446
#     4  11  24  45  70 103 147 186 251 304 379 460
#     4  10  21  44  71  96 136 185 245 302 368 449
#     4  11  25  44  69 104 142 190 243 308 378 453
#
# _framework density 21.532544000000001
#
# number of rings (size 3 to 8) (size 9 to 14) (size 15 to 20)
#    0.000    1.143    1.429    6.000    6.000    2.286 
#    0.000    1.429    0.000    0.000    0.000    0.000 
#    0.000    0.000    0.000    0.000    0.000    0.000 
#
# Total GULP energy -155969.053737 kJ/mol
# GULP energy per Si atom -5570.323348 kJ/mol
# Density = 2.148353 g / cm^3
# Si number density = 21.532544 Si / 1000 Ang^3
#
#
#
# Elastic Constant Matrix: (Units=GPa)
#
#
# Indices 1 2 3 4 5 6 
#
# 1 70.7733 44.4344 15.6662 0.0000 -5.4233 0.0000
# 2 44.4344 148.2694 56.1531 0.0000 -6.6927 0.0000
# 3 15.6662 56.1531 107.3435 0.0000 -7.4958 0.0000
# 4 0.0000 0.0000 0.0000 41.5555 0.0000 6.0221
# 5 -5.4233 -6.6927 -7.4958 0.0000 37.2419 0.0000
# 6 0.0000 0.0000 0.0000 6.0221 0.0000 41.0196
#
#
#
# Elastic Compliance Matrix: (Units=1/GPa)
#
#
# Indices 1 2 3 4 5 6 
#
# 1 0.017510 -0.005298 0.000332 0.000000 0.001665 0.000000
# 2 -0.005298 0.010029 -0.004464 0.000000 0.000132 0.000000
# 3 0.000332 -0.004464 0.011714 0.000000 0.001604 0.000000
# 4 0.000000 0.000000 0.000000 0.024587 0.000000 -0.003610
# 5 0.001665 0.000132 0.001604 0.000000 0.027440 0.000000
# 6 0.000000 0.000000 0.000000 -0.003610 0.000000 0.024909
#
#
# Mechanical properties :
#
#
# Convention : Reuss Voigt Hill
#
# Bulk Modulus (GPa) = 49.03398 62.09929 55.56663
# Shear Modulus (GPa) = 35.24924 37.97222 36.61073
#
# Velocity S-wave (km/s) = 4.05040 4.20394 4.12788
# Velocity P-wave (km/s) = 6.68549 7.24337 6.97002
#
# Compressibility (1/GPa) = 0.02039402
#
# Stress axis : x y z
#
# Youngs Moduli (GPa) = 57.10990 99.71287 85.36468
#
# Poissons Ratio (x) = 0.52831 -0.02837
# Poissons Ratio (y) = 0.30258 0.38105
# Poissons Ratio (z) = -0.01898 0.44509
#
# Static dielectric constant tensor:
#      x y z
#    x 1.637240 0.000000 0.034970 
#    y 0.000000 1.848920 0.000000 
#    z 0.034970 0.000000 1.777250 
# 
# From -- ./inp_files/273047.got.cif
#   From: 2010.05.17/outbox.cif.g08.bks.cpg/sg15_137_cif.got.tgz:273047.got - 2010.06.03 18:47:42.
