data_PCOD9286657
_publ_section_title
;
Structure prediction by ZEFSAII (Michael W. Deem and Ramdas Pophale) SiO2 
 PCOD9286657
Probable space group: C 2/C
;
_chemical_formula_sum "Si O2"
_cell_formula_units_Z 48
_cell_length_a 5.848734
_cell_length_b 13.740992
_cell_length_c 30.802218
_cell_angle_alpha 90.000000
_cell_angle_beta 61.660231
_cell_angle_gamma 90.000000
_cell_volume 2178.801630
_symmetry_space_group_name_H-M "C 2/C"
_symmetry_group_IT_number 15
_symmetry_cell_setting 'monoclinic'
loop_
_space_group_symop_operation_xyz
x,y,z
-x,y,1/2-z
-x,-y,-z
x,-y,1/2+z
1/2+x,1/2+y,z
1/2-x,1/2+y,1/2-z
1/2-x,1/2-y,-z
1/2+x,1/2-y,1/2+z
loop_
_atom_site_type_symbol
_atom_site_label
_atom_site_fract_x
_atom_site_fract_y
_atom_site_fract_z
Si Si1 0.401425 0.125000 0.889425
Si Si2 0.105461 0.772364 0.057491
Si Si3 0.642892 0.977632 0.442510
Si Si4 0.136785 0.274995 0.649836
Si Si5 0.182848 0.125005 0.776861
Si Si6 0.864055 0.975006 0.649838
O O1 0.438145 0.045232 0.923672
O O2 0.653654 0.190067 0.858883
O O3 0.193475 0.204774 0.923668
O O4 0.301915 0.059929 0.858883
O O5 0.218112 0.874998 0.062759
O O6 0.134623 0.706576 0.097781
O O7 0.250000 0.750000 0.000000
O O8 0.500000 0.000000 0.500000
O O9 0.873497 0.043418 0.402217
O O10 0.209107 0.374999 0.666364
O O11 0.876744 0.222532 0.689492
O O12 0.500000 0.114857 0.750000
O O13 0.000000 0.135159 0.750000
O O14 0.074211 0.027473 0.810503
#
# Coordination Sequence:
#
# PCOD9286657 Si02
#       6
#     8   8   8   8   8   8
#     4  10  21  44  64  96 160 186 239 306 355 432
#     4  10  23  38  64 102 145 193 242 293 361 439
#     4  10  23  38  64 102 145 193 242 293 361 439
#     4  11  25  46  72 105 139 193 242 301 377 446
#     4  12  27  54  80 106 150 190 252 330 382 448
#     4  11  25  46  72 105 139 193 242 301 377 446
#
# _framework density 22.030460000000001
#
# number of rings (size 3 to 8) (size 9 to 14) (size 15 to 20)
#    0.000    1.333    5.000    1.000    7.000    3.333 
#    0.000    5.000    0.000    0.000    0.000    0.000 
#    0.000    0.000    0.000    0.000    0.000    0.000 
#
# Total GULP energy -133840.549312 kJ/mol
# GULP energy per Si atom -5576.689555 kJ/mol
# Density = 2.198032 g / cm^3
# Si number density = 22.030460 Si / 1000 Ang^3
#
#
#
# Elastic Constant Matrix: (Units=GPa)
#
#
# Indices 1 2 3 4 5 6 
#
# 1 82.5581 13.9153 36.5790 -0.0005 -0.0031 0.0002
# 2 13.9153 100.5693 31.9046 -0.0001 -0.0036 0.0001
# 3 36.5790 31.9046 110.2554 -0.0006 -0.0052 0.0001
# 4 -0.0005 -0.0001 -0.0006 7.0604 0.0007 0.0053
# 5 -0.0031 -0.0036 -0.0052 0.0007 39.2112 -0.0001
# 6 0.0002 0.0001 0.0001 0.0053 -0.0001 31.5170
#
#
#
# Elastic Compliance Matrix: (Units=1/GPa)
#
#
# Indices 1 2 3 4 5 6 
#
# 1 0.014225 -0.000519 -0.004569 0.000001 0.000000 0.000000
# 2 -0.000519 0.010967 -0.003002 0.000000 0.000001 0.000000
# 3 -0.004569 -0.003002 0.011454 0.000001 0.000001 0.000000
# 4 0.000001 0.000000 0.000001 0.141635 -0.000002 -0.000024
# 5 0.000000 0.000001 0.000001 -0.000002 0.025503 0.000000
# 6 0.000000 0.000000 0.000000 -0.000024 0.000000 0.031729
#
#
# Mechanical properties :
#
#
# Convention : Reuss Voigt Hill
#
# Bulk Modulus (GPa) = 48.85797 50.90898 49.88347
# Shear Modulus (GPa) = 19.34128 29.62331 24.48229
#
# Velocity S-wave (km/s) = 2.96621 3.67093 3.33722
# Velocity P-wave (km/s) = 5.82725 6.41297 6.12711
#
# Compressibility (1/GPa) = 0.02046749
#
# Stress axis : x y z
#
# Youngs Moduli (GPa) = 70.30099 91.17951 87.30350
#
# Poissons Ratio (x) = 0.04729 0.39890
# Poissons Ratio (y) = 0.03646 0.26205
# Poissons Ratio (z) = 0.32121 0.27368
#
# Static dielectric constant tensor:
#      x y z
#    x -170.606840 -0.002370 -0.077790 
#    y -0.002370 1.789400 0.000000 
#    z -0.077790 0.000000 1.946760 
# 
# From -- ./inp_files/305308.got.cif
#   From: 2010.05.17/outbox.cif.g08.bks.cpg/sg15_153_cif.got.tgz:305308.got - 2010.06.03 18:47:42.
