data_PCOD9286163
_publ_section_title
;
Structure prediction by ZEFSAII (Michael W. Deem and Ramdas Pophale) SiO2 
 PCOD9286163
Probable space group: C 2/C
;
_chemical_formula_sum "Si O2"
_cell_formula_units_Z 44
_cell_length_a 5.034660
_cell_length_b 29.337285
_cell_length_c 12.747070
_cell_angle_alpha 90.000000
_cell_angle_beta 74.212897
_cell_angle_gamma 90.000000
_cell_volume 1811.763735
_symmetry_space_group_name_H-M "C 2/C"
_symmetry_group_IT_number 15
_symmetry_cell_setting 'monoclinic'
loop_
_space_group_symop_operation_xyz
x,y,z
-x,y,1/2-z
-x,-y,-z
x,-y,1/2+z
1/2+x,1/2+y,z
1/2-x,1/2+y,1/2-z
1/2-x,1/2-y,-z
1/2+x,1/2-y,1/2+z
loop_
_atom_site_type_symbol
_atom_site_label
_atom_site_fract_x
_atom_site_fract_y
_atom_site_fract_z
Si Si1 0.214665 0.534162 0.321781
Si Si2 0.232152 0.193088 0.142826
Si Si3 0.000000 0.052159 0.750000
Si Si4 0.430168 0.111885 0.471512
Si Si5 0.012450 0.780036 0.433301
Si Si6 0.843776 0.122589 0.603470
O O1 0.500000 0.556430 0.250000
O O2 0.312436 0.482877 0.337439
O O3 0.076513 0.565461 0.422362
O O4 0.000000 0.530741 0.250000
O O5 0.336316 0.243670 0.156904
O O6 0.000000 0.179489 0.250000
O O7 0.463795 0.153969 0.111520
O O8 0.134615 0.203218 0.033318
O O9 0.829698 0.084873 0.693804
O O10 0.102430 0.107340 0.502235
O O11 0.557531 0.124285 0.571543
O O12 0.750000 0.750000 0.500000
O O13 0.037287 0.828427 0.372788
#
# Coordination Sequence:
#
# PCOD9286163 Si02
#       6
#     8   8   4   8   8   8
#     4  10  23  43  65  95 129 164 215 276 315 400
#     4  10  22  39  66  94 130 171 215 269 328 386
#     4  10  28  44  64  96 132 172 226 262 336 394
#     4  11  23  43  67  97 129 170 217 275 333 380
#     4  10  21  43  59  97 132 167 219 268 321 396
#     4  11  25  42  68  91 135 175 213 275 326 397
#
# _framework density 24.285727000000001
#
# number of rings (size 3 to 8) (size 9 to 14) (size 15 to 20)
#    0.545    1.091    1.818    1.636    2.545    5.091 
#    0.000    0.000    0.000    0.000    0.000    0.000 
#    0.000    0.000    0.000    0.000    0.000    0.000 
#
# Total GULP energy -122740.837399 kJ/mol
# GULP energy per Si atom -5579.128973 kJ/mol
# Density = 2.423045 g / cm^3
# Si number density = 24.285727 Si / 1000 Ang^3
#
#
#
# Elastic Constant Matrix: (Units=GPa)
#
#
# Indices 1 2 3 4 5 6 
#
# 1 75.6915 0.3419 1.9775 0.0000 -1.0921 0.0000
# 2 0.3419 161.9177 22.5335 0.0000 -2.7764 0.0000
# 3 1.9775 22.5335 49.7078 0.0000 -10.8813 0.0000
# 4 0.0000 0.0000 0.0000 16.7714 0.0000 12.0389
# 5 -1.0921 -2.7764 -10.8813 0.0000 35.1644 0.0000
# 6 0.0000 0.0000 0.0000 12.0389 0.0000 75.0084
#
#
#
# Elastic Compliance Matrix: (Units=1/GPa)
#
#
# Indices 1 2 3 4 5 6 
#
# 1 0.013228 0.000045 -0.000489 0.000000 0.000263 0.000000
# 2 0.000045 0.006598 -0.003088 0.000000 -0.000433 0.000000
# 3 -0.000489 -0.003088 0.023041 0.000000 0.006871 0.000000
# 4 0.000000 0.000000 0.000000 0.067389 0.000000 -0.010816
# 5 0.000263 -0.000433 0.006871 0.000000 0.030538 0.000000
# 6 0.000000 0.000000 0.000000 -0.010816 0.000000 0.015068
#
#
# Mechanical properties :
#
#
# Convention : Reuss Voigt Hill
#
# Bulk Modulus (GPa) = 27.93062 37.44697 32.68879
# Shear Modulus (GPa) = 28.59430 42.88647 35.74039
#
# Velocity S-wave (km/s) = 3.43507 4.20684 3.84039
# Velocity P-wave (km/s) = 5.22099 6.24895 5.75796
#
# Compressibility (1/GPa) = 0.03580300
#
# Stress axis : x y z
#
# Youngs Moduli (GPa) = 75.59786 151.55762 43.40137
#
# Poissons Ratio (x) = -0.00676 0.02122
# Poissons Ratio (y) = -0.00337 0.13401
# Poissons Ratio (z) = 0.03696 0.46796
#
# Static dielectric constant tensor:
#      x y z
#    x 1.976420 0.000000 0.011040 
#    y 0.000000 1.996190 0.000000 
#    z 0.011040 0.000000 1.994760 
# 
# From -- ./inp_files/129714.got.cif
#   From: 2010.05.17/outbox.cif.g08.bks.cpg/sg15_65_cif.got.tgz:129714.got - 2010.06.03 18:47:42.
