data_PCOD9286113
_publ_section_title
;
Structure prediction by ZEFSAII (Michael W. Deem and Ramdas Pophale) SiO2 
 PCOD9286113
Probable space group: C 2/C
;
_chemical_formula_sum "Si O2"
_cell_formula_units_Z 48
_cell_length_a 9.333516
_cell_length_b 20.130479
_cell_length_c 23.616411
_cell_angle_alpha 90.000000
_cell_angle_beta 153.304382
_cell_angle_gamma 90.000000
_cell_volume 1993.434723
_symmetry_space_group_name_H-M "C 2/C"
_symmetry_group_IT_number 15
_symmetry_cell_setting 'monoclinic'
loop_
_space_group_symop_operation_xyz
x,y,z
-x,y,1/2-z
-x,-y,-z
x,-y,1/2+z
1/2+x,1/2+y,z
1/2-x,1/2+y,1/2-z
1/2-x,1/2-y,-z
1/2+x,1/2-y,1/2+z
loop_
_atom_site_type_symbol
_atom_site_label
_atom_site_fract_x
_atom_site_fract_y
_atom_site_fract_z
Si Si1 0.494035 0.702655 0.051613
Si Si2 0.289106 0.097043 0.387719
Si Si3 0.410516 0.003479 0.100196
Si Si4 0.814414 0.209375 0.580179
Si Si5 0.877881 0.937267 0.849088
Si Si6 0.462085 0.129952 0.800153
O O1 0.767923 0.743436 0.117435
O O2 0.276334 0.671312 0.925233
O O3 0.250000 0.750000 0.000000
O O4 0.615486 0.638906 0.128574
O O5 0.552012 0.151546 0.494140
O O6 0.000000 0.129882 0.250000
O O7 0.131530 0.063363 0.386494
O O8 0.440879 0.042874 0.399708
O O9 0.557335 0.930795 0.163088
O O10 0.540149 0.043817 0.201095
O O11 0.045202 0.987215 0.953523
O O12 0.750000 0.250000 0.500000
O O13 0.158028 0.176283 0.698447
O O14 0.500000 0.103888 0.750000
#
# Coordination Sequence:
#
# PCOD9286113 Si02
#       6
#     8   8   8   8   8   8
#     4  11  24  47  69 104 146 186 241 306 363 434
#     4  10  22  41  70 104 146 187 238 304 356 433
#     4  10  22  42  70 105 141 191 243 290 371 424
#     4  12  25  42  73 103 138 195 247 285 377 439
#     4  10  21  42  72 104 149 185 236 310 356 432
#     4  11  25  46  70 100 145 194 240 316 361 432
#
# _framework density 24.079044
#
# number of rings (size 3 to 8) (size 9 to 14) (size 15 to 20)
#    0.000    1.333    3.333    1.500    2.333    3.333 
#    3.000    2.500    0.000    0.000    0.000    0.000 
#    0.000    0.000    0.000    0.000    0.000    0.000 
#
# Total GULP energy -134423.922135 kJ/mol
# GULP energy per Si atom -5600.996756 kJ/mol
# Density = 2.402424 g / cm^3
# Si number density = 24.079044 Si / 1000 Ang^3
#
#
#
# Elastic Constant Matrix: (Units=GPa)
#
#
# Indices 1 2 3 4 5 6 
#
# 1 106.1890 55.1371 58.5878 0.0008 -5.6379 -0.0057
# 2 55.1371 116.7321 66.0899 0.0296 0.2768 -0.0049
# 3 58.5878 66.0899 153.9394 0.0497 -3.2583 -0.0086
# 4 0.0008 0.0296 0.0497 25.8787 0.0124 -5.6695
# 5 -5.6379 0.2768 -3.2583 0.0124 40.1153 -0.0072
# 6 -0.0057 -0.0049 -0.0086 -5.6695 -0.0072 48.4916
#
#
#
# Elastic Compliance Matrix: (Units=1/GPa)
#
#
# Indices 1 2 3 4 5 6 
#
# 1 0.013680 -0.004674 -0.003164 0.000011 0.001698 0.000002
# 2 -0.004674 0.012924 -0.003792 -0.000007 -0.001054 -0.000001
# 3 -0.003164 -0.003792 0.009335 -0.000014 0.000340 -0.000001
# 4 0.000011 -0.000007 -0.000014 0.039658 -0.000011 0.004637
# 5 0.001698 -0.001054 0.000340 -0.000011 0.025202 0.000003
# 6 0.000002 -0.000001 -0.000001 0.004637 0.000003 0.021164
#
#
# Mechanical properties :
#
#
# Convention : Reuss Voigt Hill
#
# Bulk Modulus (GPa) = 78.86912 81.83223 80.35068
# Shear Modulus (GPa) = 33.45632 36.03351 34.74492
#
# Velocity S-wave (km/s) = 3.73156 3.87262 3.80274
# Velocity P-wave (km/s) = 7.16878 7.35220 7.26107
#
# Compressibility (1/GPa) = 0.01267923
#
# Stress axis : x y z
#
# Youngs Moduli (GPa) = 73.09973 77.37659 107.12122
#
# Poissons Ratio (x) = 0.36169 0.33890
# Poissons Ratio (y) = 0.34170 0.40618
# Poissons Ratio (z) = 0.23126 0.29339
#
# Static dielectric constant tensor:
#      x y z
#    x 1.911580 0.000000 -0.039130 
#    y 0.000000 1.876020 -0.000020 
#    z -0.039130 -0.000020 1.910160 
# 
# From -- ./inp_files/266554.got.cif
#   From: 2010.05.17/outbox.cif.g08.bks.cpg/sg15_134_cif.got.tgz:266554.got - 2010.06.03 18:47:42.
