data_PCOD9286435
_publ_section_title
;
Structure prediction by ZEFSAII (Michael W. Deem and Ramdas Pophale) SiO2 
 PCOD9286435
Probable space group: C 2/C
;
_chemical_formula_sum "Si O2"
_cell_formula_units_Z 40
_cell_length_a 16.600187
_cell_length_b 13.428390
_cell_length_c 8.546115
_cell_angle_alpha 90.000000
_cell_angle_beta 119.471070
_cell_angle_gamma 90.000000
_cell_volume 1658.541823
_symmetry_space_group_name_H-M "C 2/C"
_symmetry_group_IT_number 15
_symmetry_cell_setting 'monoclinic'
loop_
_space_group_symop_operation_xyz
x,y,z
-x,y,1/2-z
-x,-y,-z
x,-y,1/2+z
1/2+x,1/2+y,z
1/2-x,1/2+y,1/2-z
1/2-x,1/2-y,-z
1/2+x,1/2-y,1/2+z
loop_
_atom_site_type_symbol
_atom_site_label
_atom_site_fract_x
_atom_site_fract_y
_atom_site_fract_z
Si Si1 0.549781 0.282278 0.430722
Si Si2 0.696253 0.577885 0.247591
Si Si3 0.735638 0.619741 0.647576
Si Si4 0.959647 0.600516 0.883213
Si Si5 0.178973 0.705055 0.305886
O O1 0.500000 0.350099 0.250000
O O2 0.617500 0.352657 0.595463
O O3 0.594519 0.207186 0.343930
O O4 0.504599 0.205161 0.508600
O O5 0.712411 0.601987 0.443858
O O6 0.683669 0.461850 0.204902
O O7 0.787394 0.601042 0.228811
O O8 0.694045 0.722809 0.671937
O O9 0.847172 0.613167 0.778216
O O10 0.000000 0.596947 0.750000
O O11 0.000000 0.500000 0.000000
O O12 0.250000 0.750000 0.500000
#
# Coordination Sequence:
#
# PCOD9286435 Si02
#       5
#     8   8   8   8   8
#     4  11  26  44  66 100 142 180 226 290 352 402
#     4  11  24  42  69 100 136 183 235 279 335 415
#     4  12  24  44  74 102 137 182 241 276 339 417
#     4  12  27  42  67 107 146 178 217 286 359 411
#     4  10  21  43  68  98 134 181 232 276 334 412
#
# _framework density 24.117569
#
# number of rings (size 3 to 8) (size 9 to 14) (size 15 to 20)
#    0.000    0.800    4.000    4.800    8.400    0.000 
#    0.000    4.000    0.000    1.200    0.000    0.000 
#    0.000    0.000    0.000    0.000    0.000    0.000 
#
# Total GULP energy -111558.410525 kJ/mol
# GULP energy per Si atom -5577.920526 kJ/mol
# Density = 2.406268 g / cm^3
# Si number density = 24.117569 Si / 1000 Ang^3
#
#
#
# Elastic Constant Matrix: (Units=GPa)
#
#
# Indices 1 2 3 4 5 6 
#
# 1 103.9237 14.6715 40.1903 0.0000 -9.4611 0.0000
# 2 14.6715 72.7985 20.0163 0.0000 13.2483 0.0000
# 3 40.1903 20.0163 181.7797 0.0000 -16.0348 0.0000
# 4 0.0000 0.0000 0.0000 38.4828 0.0000 -9.4444
# 5 -9.4611 13.2483 -16.0348 0.0000 38.6333 0.0000
# 6 0.0000 0.0000 0.0000 -9.4444 0.0000 -11.7883
#
#
#
# Elastic Compliance Matrix: (Units=1/GPa)
#
#
# Indices 1 2 3 4 5 6 
#
# 1 0.010914 -0.002136 -0.001949 0.000000 0.002597 0.000000
# 2 -0.002136 0.015913 -0.001876 0.000000 -0.006759 0.000000
# 3 -0.001949 -0.001876 0.006387 0.000000 0.002817 0.000000
# 4 0.000000 0.000000 0.000000 0.021716 0.000000 -0.017398
# 5 0.002597 -0.006759 0.002817 0.000000 0.030007 0.000000
# 6 0.000000 0.000000 0.000000 -0.017398 0.000000 -0.070891
#
#
# Mechanical properties :
#
#
# Convention : Reuss Voigt Hill
#
# Bulk Modulus (GPa) = 46.96639 56.47313 51.71976
# Shear Modulus (GPa) = 151.21550 31.97381 91.59465
#
# Velocity S-wave (km/s) = 7.92688 3.64503 6.16935
# Velocity P-wave (km/s) = 10.16350 6.41729 8.49936
#
# Compressibility (1/GPa) = 0.02129182
#
# Stress axis : x y z
#
# Youngs Moduli (GPa) = 91.62492 62.84200 156.56561
#
# Poissons Ratio (x) = 0.13425 0.30511
# Poissons Ratio (y) = 0.19574 0.29373
# Poissons Ratio (z) = 0.17855 0.11790
#
# Static dielectric constant tensor:
#      x y z
#    x 2.067910 0.000000 0.186360 
#    y 0.000000 1.855380 0.000000 
#    z 0.186360 0.000000 2.005760 
# 
# From -- ./inp_files/38977.got.cif
#   From: 2010.05.17/outbox.cif.g08.bks.cpg/sg15_20_cif.got.tgz:38977.got - 2010.06.03 18:47:42.
