data_PCOD9286609
_publ_section_title
;
Structure prediction by ZEFSAII (Michael W. Deem and Ramdas Pophale) SiO2 
 PCOD9286609
Probable space group: C 2/C
;
_chemical_formula_sum "Si O2"
_cell_formula_units_Z 52
_cell_length_a 20.701363
_cell_length_b 14.693910
_cell_length_c 10.614341
_cell_angle_alpha 90.000000
_cell_angle_beta 142.761779
_cell_angle_gamma 90.000000
_cell_volume 1953.791761
_symmetry_space_group_name_H-M "C 2/C"
_symmetry_group_IT_number 15
_symmetry_cell_setting 'monoclinic'
loop_
_space_group_symop_operation_xyz
x,y,z
-x,y,1/2-z
-x,-y,-z
x,-y,1/2+z
1/2+x,1/2+y,z
1/2-x,1/2+y,1/2-z
1/2-x,1/2-y,-z
1/2+x,1/2-y,1/2+z
loop_
_atom_site_type_symbol
_atom_site_label
_atom_site_fract_x
_atom_site_fract_y
_atom_site_fract_z
Si Si1 0.732958 0.302740 0.134307
Si Si2 0.030144 0.669245 0.567604
Si Si3 0.724243 0.096810 0.534183
Si Si4 0.816680 0.620592 0.304576
Si Si5 0.459819 0.637258 0.343650
Si Si6 0.869668 0.984774 0.884703
Si Si7 0.500000 0.908813 0.750000
O O1 0.841547 0.324481 0.224337
O O2 0.748215 0.347106 0.296911
O O3 0.711828 0.197161 0.137255
O O4 0.635944 0.342759 0.901483
O O5 0.018183 0.653720 0.400348
O O6 0.944577 0.600448 0.499036
O O7 0.986476 0.764867 0.552851
O O8 0.709896 0.149348 0.381361
O O9 0.612146 0.045548 0.388549
O O10 0.820595 0.025822 0.678966
O O11 0.734889 0.536975 0.196610
O O12 0.540057 0.555380 0.435942
O O13 0.421200 0.609537 0.423505
#
# Coordination Sequence:
#
# PCOD9286609 Si02
#       7
#     8   8   8   8   8   8   4
#     4  11  23  46  77 106 151 199 260 311 368 456
#     4  10  21  43  75 107 141 195 259 315 362 448
#     4  10  23  45  70 102 148 197 247 312 380 451
#     4  11  24  46  72 111 146 201 257 309 380 453
#     4  11  25  48  67 110 154 201 246 316 381 446
#     4  11  26  46  68 105 158 200 241 311 393 451
#     4   8  20  44  70 100 138 190 248 304 372 442
#
# _framework density 26.614916000000001
#
# number of rings (size 3 to 8) (size 9 to 14) (size 15 to 20)
#    0.000    1.538    1.538    1.846    2.154    4.923 
#    5.538    2.308    0.000    0.000    0.000    0.000 
#    0.000    0.000    0.000    0.000    0.000    0.000 
#
# Total GULP energy -145129.957169 kJ/mol
# GULP energy per Si atom -5581.921430 kJ/mol
# Density = 2.655434 g / cm^3
# Si number density = 26.614916 Si / 1000 Ang^3
#
#
#
# Elastic Constant Matrix: (Units=GPa)
#
#
# Indices 1 2 3 4 5 6 
#
# 1 138.3437 39.4554 73.5652 0.0000 27.7548 0.0000
# 2 39.4554 42.8930 35.2417 0.0000 14.0037 0.0000
# 3 73.5652 35.2417 165.7867 0.0000 25.2950 0.0000
# 4 0.0000 0.0000 0.0000 41.0098 0.0000 9.1112
# 5 27.7548 14.0037 25.2950 0.0000 53.7066 0.0000
# 6 0.0000 0.0000 0.0000 9.1112 0.0000 39.8667
#
#
#
# Elastic Compliance Matrix: (Units=1/GPa)
#
#
# Indices 1 2 3 4 5 6 
#
# 1 0.011459 -0.007082 -0.003187 0.000000 -0.002574 0.000000
# 2 -0.007082 0.033868 -0.003521 0.000000 -0.003513 0.000000
# 3 -0.003187 -0.003521 0.008407 0.000000 -0.001395 0.000000
# 4 0.000000 0.000000 0.000000 0.025689 0.000000 -0.005871
# 5 -0.002574 -0.003513 -0.001395 0.000000 0.021523 0.000000
# 6 0.000000 0.000000 0.000000 -0.005871 0.000000 0.026425
#
#
# Mechanical properties :
#
#
# Convention : Reuss Voigt Hill
#
# Bulk Modulus (GPa) = 38.23343 71.50532 54.86937
# Shear Modulus (GPa) = 30.54952 40.16737 35.35845
#
# Velocity S-wave (km/s) = 3.39165 3.88906 3.64884
# Velocity P-wave (km/s) = 5.45292 6.86232 6.19781
#
# Compressibility (1/GPa) = 0.02615512
#
# Stress axis : x y z
#
# Youngs Moduli (GPa) = 87.26663 29.52643 118.94734
#
# Poissons Ratio (x) = 0.20911 0.37903
# Poissons Ratio (y) = 0.61803 0.41880
# Poissons Ratio (z) = 0.27808 0.10396
#
# Static dielectric constant tensor:
#      x y z
#    x 2.170060 0.000000 0.056630 
#    y 0.000000 2.099530 0.000000 
#    z 0.056630 0.000000 2.057300 
# 
# From -- ./inp_files/113704.got.cif
#   From: 2010.05.17/outbox.cif.g08.bks.cpg/sg15_57_cif.got.tgz:113704.got - 2010.06.03 18:47:42.
