data_PCOD9286075
_publ_section_title
;
Structure prediction by ZEFSAII (Michael W. Deem and Ramdas Pophale) SiO2 
 PCOD9286075
Probable space group: C 2/C
;
_chemical_formula_sum "Si O2"
_cell_formula_units_Z 44
_cell_length_a 13.035589
_cell_length_b 9.941038
_cell_length_c 19.143647
_cell_angle_alpha 90.000000
_cell_angle_beta 136.086707
_cell_angle_gamma 90.000000
_cell_volume 1720.587379
_symmetry_space_group_name_H-M "C 2/C"
_symmetry_group_IT_number 15
_symmetry_cell_setting 'monoclinic'
loop_
_space_group_symop_operation_xyz
x,y,z
-x,y,1/2-z
-x,-y,-z
x,-y,1/2+z
1/2+x,1/2+y,z
1/2-x,1/2+y,1/2-z
1/2-x,1/2-y,-z
1/2+x,1/2-y,1/2+z
loop_
_atom_site_type_symbol
_atom_site_label
_atom_site_fract_x
_atom_site_fract_y
_atom_site_fract_z
Si Si1 0.163349 0.944381 0.359191
Si Si2 0.149112 0.481992 0.790187
Si Si3 0.101120 0.585395 0.105725
Si Si4 0.118236 0.855969 0.942486
Si Si5 0.500000 0.239668 0.750000
Si Si6 0.899425 0.204782 0.461458
O O1 0.243929 0.068684 0.358407
O O2 0.163396 0.992266 0.440660
O O3 0.000000 0.918486 0.250000
O O4 0.268584 0.817519 0.395826
O O5 0.130554 0.472912 0.697437
O O6 0.297019 0.424358 0.896013
O O7 0.000000 0.417883 0.750000
O O8 0.135734 0.635703 0.807698
O O9 0.000000 0.500000 0.000000
O O10 0.012309 0.725832 0.072813
O O11 0.012659 0.819862 0.826342
O O12 0.020739 0.818856 0.960548
O O13 0.250000 0.750000 0.000000
#
# Coordination Sequence:
#
# PCOD9286075 Si02
#       6
#     8   8   8   8   4   8
#     4  11  22  40  71 106 140 192 246 300 366 444
#     4  10  24  43  70 102 148 196 236 315 383 438
#     4  10  21  42  71 103 146 193 243 303 373 450
#     4  12  24  41  71 102 139 190 242 304 370 443
#     4  10  24  44  62  98 144 176 234 308 362 430
#     4  11  24  43  72 106 146 190 248 301 377 455
#
# _framework density 25.572662999999999
#
# number of rings (size 3 to 8) (size 9 to 14) (size 15 to 20)
#    0.545    0.727    2.727    3.818    2.545    0.727 
#    0.000    2.727    0.000    0.000    0.000    0.000 
#    0.000    0.000    0.000    0.000    0.000    0.000 
#
# Total GULP energy -122622.250970 kJ/mol
# GULP energy per Si atom -5573.738680 kJ/mol
# Density = 2.551446 g / cm^3
# Si number density = 25.572663 Si / 1000 Ang^3
#
#
#
# Elastic Constant Matrix: (Units=GPa)
#
#
# Indices 1 2 3 4 5 6 
#
# 1 116.4417 13.9219 51.2398 0.0000 14.4833 0.0000
# 2 13.9219 74.3486 17.8239 0.0000 -3.3800 0.0000
# 3 51.2398 17.8239 119.6976 0.0000 4.1824 0.0000
# 4 0.0000 0.0000 0.0000 35.7815 0.0000 14.4672
# 5 14.4833 -3.3800 4.1824 0.0000 63.6652 0.0000
# 6 0.0000 0.0000 0.0000 14.4672 0.0000 12.6793
#
#
#
# Elastic Compliance Matrix: (Units=1/GPa)
#
#
# Indices 1 2 3 4 5 6 
#
# 1 0.010957 -0.001088 -0.004450 0.000000 -0.002258 0.000000
# 2 -0.001088 0.014105 -0.001673 0.000000 0.001106 0.000000
# 3 -0.004450 -0.001673 0.010500 0.000000 0.000234 0.000000
# 4 0.000000 0.000000 0.000000 0.051882 0.000000 -0.059198
# 5 -0.002258 0.001106 0.000234 0.000000 0.016264 0.000000
# 6 0.000000 0.000000 0.000000 -0.059198 0.000000 0.146414
#
#
# Mechanical properties :
#
#
# Convention : Reuss Voigt Hill
#
# Bulk Modulus (GPa) = 47.30127 52.93991 50.12059
# Shear Modulus (GPa) = 18.41000 37.59204 28.00102
#
# Velocity S-wave (km/s) = 2.68602 3.83823 3.31261
# Velocity P-wave (km/s) = 5.30628 6.35526 5.85431
#
# Compressibility (1/GPa) = 0.02114108
#
# Stress axis : x y z
#
# Youngs Moduli (GPa) = 91.26666 70.89545 95.23662
#
# Poissons Ratio (x) = 0.07711 0.42376
# Poissons Ratio (y) = 0.09927 0.15937
# Poissons Ratio (z) = 0.40610 0.11864
#
# Static dielectric constant tensor:
#      x y z
#    x 2.040660 0.000000 0.004960 
#    y 0.000000 2.256680 0.000000 
#    z 0.004960 0.000000 2.010240 
# 
# From -- ./inp_files/237285.got.cif
#   From: 2010.05.17/outbox.cif.g08.bks.cpg/sg15_119_cif.got.tgz:237285.got - 2010.06.03 18:47:42.
