data_PCOD9286465
_publ_section_title
;
Structure prediction by ZEFSAII (Michael W. Deem and Ramdas Pophale) SiO2 
 PCOD9286465
Probable space group: C 2/C
;
_chemical_formula_sum "Si O2"
_cell_formula_units_Z 44
_cell_length_a 25.771724
_cell_length_b 17.520048
_cell_length_c 7.428835
_cell_angle_alpha 90.000000
_cell_angle_beta 143.160659
_cell_angle_gamma 90.000000
_cell_volume 2011.137361
_symmetry_space_group_name_H-M "C 2/C"
_symmetry_group_IT_number 15
_symmetry_cell_setting 'monoclinic'
loop_
_space_group_symop_operation_xyz
x,y,z
-x,y,1/2-z
-x,-y,-z
x,-y,1/2+z
1/2+x,1/2+y,z
1/2-x,1/2+y,1/2-z
1/2-x,1/2-y,-z
1/2+x,1/2-y,1/2+z
loop_
_atom_site_type_symbol
_atom_site_label
_atom_site_fract_x
_atom_site_fract_y
_atom_site_fract_z
Si Si1 0.812372 0.427793 0.244445
Si Si2 0.743897 0.304983 0.775589
Si Si3 0.000000 0.383433 0.750000
Si Si4 0.110406 0.191489 0.421154
Si Si5 0.740408 0.586977 0.924912
Si Si6 0.941026 0.752540 0.334182
O O1 0.913836 0.432306 0.477282
O O2 0.803198 0.407335 0.428361
O O3 0.771837 0.363251 0.006473
O O4 0.759001 0.505034 0.061822
O O5 0.754531 0.350324 0.617148
O O6 0.644602 0.278031 0.509753
O O7 0.810868 0.235514 0.953779
O O8 0.977338 0.326097 0.852585
O O9 0.145963 0.109534 0.584203
O O10 0.088586 0.241648 0.539538
O O11 0.024154 0.191363 0.063100
#
# Coordination Sequence:
#
# PCOD9286465 Si02
#       6
#     8   8   4   8   8   8
#     4  12  25  42  66  95 138 177 217 267 339 399
#     4  11  22  45  69  93 131 174 221 281 324 387
#     4  12  24  40  64 108 130 170 224 274 334 398
#     4  10  21  43  69  95 131 169 227 278 323 389
#     4  11  24  44  64  96 131 182 214 263 334 392
#     4  10  22  38  68 102 125 166 225 280 327 375
#
# _framework density 21.878167000000001
#
# number of rings (size 3 to 8) (size 9 to 14) (size 15 to 20)
#    0.000    1.091    3.636    4.364    2.545    2.182 
#    0.000    0.909    4.000    0.000    0.000    0.000 
#    0.000    0.000    0.000    0.000    0.000    0.000 
#
# Total GULP energy -122942.744276 kJ/mol
# GULP energy per Si atom -5588.306558 kJ/mol
# Density = 2.182837 g / cm^3
# Si number density = 21.878167 Si / 1000 Ang^3
#
#
#
# Elastic Constant Matrix: (Units=GPa)
#
#
# Indices 1 2 3 4 5 6 
#
# 1 89.7628 27.7051 43.6043 0.0000 4.8597 0.0000
# 2 27.7051 85.9470 46.5141 0.0000 16.5289 0.0000
# 3 43.6043 46.5141 141.3927 0.0000 24.5444 0.0000
# 4 0.0000 0.0000 0.0000 31.7151 0.0000 -0.8394
# 5 4.8597 16.5289 24.5444 0.0000 36.1716 0.0000
# 6 0.0000 0.0000 0.0000 -0.8394 0.0000 27.3506
#
#
#
# Elastic Compliance Matrix: (Units=1/GPa)
#
#
# Indices 1 2 3 4 5 6 
#
# 1 0.013663 -0.002812 -0.003619 0.000000 0.001905 0.000000
# 2 -0.002812 0.015197 -0.003392 0.000000 -0.004265 0.000000
# 3 -0.003619 -0.003392 0.010146 0.000000 -0.004849 0.000000
# 4 0.000000 0.000000 0.000000 0.031556 0.000000 0.000968
# 5 0.001905 -0.004265 -0.004849 0.000000 0.032629 0.000000
# 6 0.000000 0.000000 0.000000 0.000968 0.000000 0.036592
#
#
# Mechanical properties :
#
#
# Convention : Reuss Voigt Hill
#
# Bulk Modulus (GPa) = 51.65162 61.41663 56.53412
# Shear Modulus (GPa) = 30.14144 32.33272 31.23708
#
# Velocity S-wave (km/s) = 3.71576 3.84846 3.78269
# Velocity P-wave (km/s) = 6.48607 6.91958 6.70633
#
# Compressibility (1/GPa) = 0.01936048
#
# Stress axis : x y z
#
# Youngs Moduli (GPa) = 73.18804 65.80034 98.55935
#
# Poissons Ratio (x) = 0.18503 0.35672
# Poissons Ratio (y) = 0.20581 0.33431
# Poissons Ratio (z) = 0.26489 0.22319
#
# Static dielectric constant tensor:
#      x y z
#    x 1.836710 0.000000 -0.016640 
#    y 0.000000 1.792420 0.000000 
#    z -0.016640 0.000000 1.823580 
# 
# From -- ./inp_files/70538.got.cif
#   From: 2010.05.17/outbox.cif.g08.bks.cpg/sg15_36_cif.got.tgz:70538.got - 2010.06.03 18:47:42.
