data_PCOD9286752
_publ_section_title
;
Structure prediction by ZEFSAII (Michael W. Deem and Ramdas Pophale) SiO2 
 PCOD9286752
Probable space group: C 2/C
;
_chemical_formula_sum "Si O2"
_cell_formula_units_Z 36
_cell_length_a 28.569939
_cell_length_b 12.266144
_cell_length_c 14.693321
_cell_angle_alpha 90.000000
_cell_angle_beta 18.794967
_cell_angle_gamma 90.000000
_cell_volume 1658.973073
_symmetry_space_group_name_H-M "C 2/C"
_symmetry_group_IT_number 15
_symmetry_cell_setting 'monoclinic'
loop_
_space_group_symop_operation_xyz
x,y,z
-x,y,1/2-z
-x,-y,-z
x,-y,1/2+z
1/2+x,1/2+y,z
1/2-x,1/2+y,1/2-z
1/2-x,1/2-y,-z
1/2+x,1/2-y,1/2+z
loop_
_atom_site_type_symbol
_atom_site_label
_atom_site_fract_x
_atom_site_fract_y
_atom_site_fract_z
Si Si1 0.002113 0.717228 0.109283
Si Si2 0.736858 0.852412 0.316225
Si Si3 0.867874 0.346246 0.305465
Si Si4 0.500000 0.215087 0.750000
Si Si5 0.371624 0.454416 0.675402
O O1 0.848683 0.705648 0.442491
O O2 0.116173 0.646595 0.959108
O O3 0.009278 0.667358 0.995360
O O4 0.068717 0.840244 0.977746
O O5 0.807419 0.965715 0.217616
O O6 0.870398 0.784489 0.031539
O O7 0.750000 0.250000 0.500000
O O8 0.759371 0.446116 0.509905
O O9 0.931585 0.344501 0.289467
O O10 0.500000 0.500000 0.500000
#
# Coordination Sequence:
#
# PCOD9286752 Si02
#       5
#     8   8   8   4   8
#     4  10  24  49  67 103 155 180 243 310 357 439
#     4  11  24  43  72 107 140 194 239 296 372 435
#     4  10  21  44  67  99 142 183 236 298 359 433
#     4  12  22  40  74  94 140 190 226 302 366 412
#     4  11  24  43  72 105 138 193 249 293 375 440
#
# _framework density 21.700171000000001
#
# number of rings (size 3 to 8) (size 9 to 14) (size 15 to 20)
#    0.000    1.333    4.444    2.667    0.000    8.000 
#    0.000    0.000    0.000    0.000    0.000    0.000 
#    0.000    0.000    0.000    0.000    0.000    0.000 
#
# Total GULP energy -100344.485767 kJ/mol
# GULP energy per Si atom -5574.693654 kJ/mol
# Density = 2.165078 g / cm^3
# Si number density = 21.700171 Si / 1000 Ang^3
#
#
#
# Elastic Constant Matrix: (Units=GPa)
#
#
# Indices 1 2 3 4 5 6 
#
# 1 130.8636 53.6713 45.7949 0.0000 4.8949 0.0000
# 2 53.6713 69.9763 37.1900 0.0000 0.8699 0.0000
# 3 45.7949 37.1900 175.2593 0.0000 24.0632 0.0000
# 4 0.0000 0.0000 0.0000 8.8887 0.0000 5.4071
# 5 4.8949 0.8699 24.0632 0.0000 40.6422 0.0000
# 6 0.0000 0.0000 0.0000 5.4071 0.0000 26.3828
#
#
#
# Elastic Compliance Matrix: (Units=1/GPa)
#
#
# Indices 1 2 3 4 5 6 
#
# 1 0.011401 -0.008105 -0.001191 0.000000 -0.000494 0.000000
# 2 -0.008105 0.021995 -0.002851 0.000000 0.002193 0.000000
# 3 -0.001191 -0.002851 0.007177 0.000000 -0.004045 0.000000
# 4 0.000000 0.000000 0.000000 0.128527 0.000000 -0.026342
# 5 -0.000494 0.002193 -0.004045 0.000000 0.027013 0.000000
# 6 0.000000 0.000000 0.000000 -0.026342 0.000000 0.043302
#
#
# Mechanical properties :
#
#
# Convention : Reuss Voigt Hill
#
# Bulk Modulus (GPa) = 61.42805 72.15685 66.79245
# Shear Modulus (GPa) = 18.57800 31.14561 24.86180
#
# Velocity S-wave (km/s) = 2.92913 3.79261 3.38849
# Velocity P-wave (km/s) = 6.30942 7.24585 6.79379
#
# Compressibility (1/GPa) = 0.01627921
#
# Stress axis : x y z
#
# Youngs Moduli (GPa) = 87.71028 45.46489 139.32657
#
# Poissons Ratio (x) = 0.36851 0.16598
# Poissons Ratio (y) = 0.71092 0.39716
# Poissons Ratio (z) = 0.10449 0.12960
#
# Static dielectric constant tensor:
#      x y z
#    x 1.745010 0.000000 -0.031310 
#    y 0.000000 1.928090 0.000000 
#    z -0.031310 0.000000 2.019150 
# 
# From -- ./inp_files/181676.got.cif
#   From: 2010.05.17/outbox.cif.g08.bks.cpg/sg15_91_cif.got.tgz:181676.got - 2010.06.03 18:47:42.
