data_PCOD9286921
_publ_section_title
;
Structure prediction by ZEFSAII (Michael W. Deem and Ramdas Pophale) SiO2 
 PCOD9286921
Probable space group: C 2/C
;
_chemical_formula_sum "Si O2"
_cell_formula_units_Z 60
_cell_length_a 17.357961
_cell_length_b 12.015475
_cell_length_c 26.345141
_cell_angle_alpha 90.000000
_cell_angle_beta 31.979749
_cell_angle_gamma 90.000000
_cell_volume 2910.074716
_symmetry_space_group_name_H-M "C 2/C"
_symmetry_group_IT_number 15
_symmetry_cell_setting 'monoclinic'
loop_
_space_group_symop_operation_xyz
x,y,z
-x,y,1/2-z
-x,-y,-z
x,-y,1/2+z
1/2+x,1/2+y,z
1/2-x,1/2+y,1/2-z
1/2-x,1/2-y,-z
1/2+x,1/2-y,1/2+z
loop_
_atom_site_type_symbol
_atom_site_label
_atom_site_fract_x
_atom_site_fract_y
_atom_site_fract_z
Si Si1 0.079723 0.379338 0.952527
Si Si2 0.147486 0.983546 0.647065
Si Si3 0.990625 0.550687 0.165832
Si Si4 0.593251 0.153775 0.852801
Si Si5 0.500000 0.909386 0.250000
Si Si6 0.916276 0.772560 0.152775
Si Si7 0.106742 0.238432 0.113499
Si Si8 0.294710 0.622846 0.979136
O O1 0.242599 0.420569 0.876519
O O2 0.080762 0.297619 0.902621
O O3 0.000000 0.500000 0.000000
O O4 0.991604 0.319446 0.047730
O O5 0.216945 0.073323 0.571119
O O6 0.000000 0.036106 0.750000
O O7 0.095074 0.884446 0.640306
O O8 0.955975 0.469593 0.137942
O O9 0.923857 0.488669 0.251457
O O10 0.940308 0.673821 0.180546
O O11 0.164396 0.557449 0.079586
O O12 0.765328 0.168922 0.752645
O O13 0.528652 0.232936 0.845758
O O14 0.604477 0.826232 0.160717
O O15 0.045335 0.864693 0.085921
O O16 0.250000 0.250000 0.000000
O O17 0.250000 0.750000 0.000000
#
# Coordination Sequence:
#
# PCOD9286921 Si02
#       8
#     8   8   8   8   4   8   8   8
#     4  12  23  43  67  94 137 182 214 276 352 394
#     4  12  23  39  70  99 125 173 239 275 320 417
#     4  10  21  45  63  91 135 181 216 281 338 405
#     4  11  23  40  66  97 137 174 219 281 346 395
#     4  10  22  38  70  92 128 172 226 266 348 400
#     4  11  25  40  67 103 138 172 235 285 337 418
#     4  11  21  40  65  96 128 172 223 270 328 409
#     4  10  22  46  63  91 133 177 224 279 333 405
#
# _framework density 20.618027000000001
#
# number of rings (size 3 to 8) (size 9 to 14) (size 15 to 20)
#    0.000    1.067    4.667    2.400    3.733    2.133 
#    4.800    0.000    0.000    5.600    0.000    0.000 
#    0.000    0.000    0.000    0.000    0.000    0.000 
#
# Total GULP energy -167145.220703 kJ/mol
# GULP energy per Si atom -5571.507357 kJ/mol
# Density = 2.057110 g / cm^3
# Si number density = 20.618027 Si / 1000 Ang^3
#
#
#
# Elastic Constant Matrix: (Units=GPa)
#
#
# Indices 1 2 3 4 5 6 
#
# 1 53.8771 2.3817 45.4768 -0.0001 -2.0305 0.0000
# 2 2.3817 65.4552 16.4953 -0.0001 3.7625 0.0000
# 3 45.4768 16.4953 111.7694 -0.0006 -9.3153 0.0001
# 4 -0.0001 -0.0001 -0.0006 22.5834 0.0001 -3.2498
# 5 -2.0305 3.7625 -9.3153 0.0001 47.1804 0.0000
# 6 0.0000 0.0000 0.0001 -3.2498 0.0000 28.2995
#
#
#
# Elastic Compliance Matrix: (Units=1/GPa)
#
#
# Indices 1 2 3 4 5 6 
#
# 1 0.028589 0.002071 -0.012047 0.000000 -0.001313 0.000000
# 2 0.002071 0.016162 -0.003384 0.000000 -0.001868 0.000000
# 3 -0.012047 -0.003384 0.014567 0.000000 0.002627 0.000000
# 4 0.000000 0.000000 0.000000 0.045024 0.000000 0.005170
# 5 -0.001313 -0.001868 0.002627 0.000000 0.021806 0.000000
# 6 0.000000 0.000000 0.000000 0.005170 0.000000 0.035930
#
#
# Mechanical properties :
#
#
# Convention : Reuss Voigt Hill
#
# Bulk Modulus (GPa) = 30.67613 39.97881 35.32747
# Shear Modulus (GPa) = 25.04199 30.72919 27.88559
#
# Velocity S-wave (km/s) = 3.48885 3.86476 3.68161
# Velocity P-wave (km/s) = 5.58032 6.27276 5.93664
#
# Compressibility (1/GPa) = 0.03259864
#
# Stress axis : x y z
#
# Youngs Moduli (GPa) = 34.97899 61.87222 68.64759
#
# Poissons Ratio (x) = -0.12815 0.82702
# Poissons Ratio (y) = -0.07245 0.23228
# Poissons Ratio (z) = 0.42140 0.20936
#
# Static dielectric constant tensor:
#      x y z
#    x 1.814680 0.000000 -0.018330 
#    y 0.000000 1.738440 0.000000 
#    z -0.018330 0.000000 1.867410 
# 
# From -- ./inp_files/298945.got.cif
#   From: 2010.05.17/outbox.cif.g08.bks.cpg/sg15_150_cif.got.tgz:298945.got - 2010.06.03 18:47:42.
