data_PCOD9286331
_publ_section_title
;
Structure prediction by ZEFSAII (Michael W. Deem and Ramdas Pophale) SiO2 
 PCOD9286331
Probable space group: C 2/C
;
_chemical_formula_sum "Si O2"
_cell_formula_units_Z 52
_cell_length_a 8.396886
_cell_length_b 16.403689
_cell_length_c 15.875285
_cell_angle_alpha 90.000000
_cell_angle_beta 63.068577
_cell_angle_gamma 90.000000
_cell_volume 1949.515357
_symmetry_space_group_name_H-M "C 2/C"
_symmetry_group_IT_number 15
_symmetry_cell_setting 'monoclinic'
loop_
_space_group_symop_operation_xyz
x,y,z
-x,y,1/2-z
-x,-y,-z
x,-y,1/2+z
1/2+x,1/2+y,z
1/2-x,1/2+y,1/2-z
1/2-x,1/2-y,-z
1/2+x,1/2-y,1/2+z
loop_
_atom_site_type_symbol
_atom_site_label
_atom_site_fract_x
_atom_site_fract_y
_atom_site_fract_z
Si Si1 0.940681 0.007769 0.417110
Si Si2 0.255732 0.341829 0.037587
Si Si3 0.000000 0.332111 0.250000
Si Si4 0.612161 0.924675 0.508018
Si Si5 0.319226 0.946857 0.808480
Si Si6 0.927523 0.246373 0.010562
Si Si7 0.299185 0.769190 0.770861
O O1 0.825947 0.091595 0.453367
O O2 0.132461 0.013644 0.327860
O O3 0.805939 0.938473 0.418647
O O4 0.000000 0.000000 0.500000
O O5 0.091585 0.364630 0.138773
O O6 0.250000 0.250000 0.000000
O O7 0.435789 0.322551 0.049768
O O8 0.824231 0.279560 0.264355
O O9 0.662557 0.928308 0.595523
O O10 0.514246 0.840666 0.509700
O O11 0.500000 0.000000 0.500000
O O12 0.500000 0.997073 0.750000
O O13 0.332336 0.865485 0.747867
O O14 0.845583 0.225868 0.119715
O O15 0.750000 0.250000 0.000000
O O16 0.500000 0.738813 0.750000
#
# Coordination Sequence:
#
# PCOD9286331 Si02
#       7
#     8   8   4   8   8   8   8
#     4  10  21  44  64  92 134 184 224 277 359 419
#     4  12  23  43  69  99 138 178 236 294 355 422
#     4  12  26  40  70 114 142 182 240 312 362 430
#     4  11  24  40  68  98 134 183 231 283 361 427
#     4  10  21  43  66  97 137 181 235 292 348 427
#     4  12  21  42  70  97 132 185 233 290 353 424
#     4  11  23  42  68 107 141 176 241 305 355 418
#
# _framework density 26.673297000000002
#
# number of rings (size 3 to 8) (size 9 to 14) (size 15 to 20)
#    0.000    0.923    4.615    2.769    2.154    0.000 
#    5.538    1.538    0.000    0.000    0.000    0.000 
#    0.000    0.000    0.000    0.000    0.000    0.000 
#
# Total GULP energy -144915.488493 kJ/mol
# GULP energy per Si atom -5573.672634 kJ/mol
# Density = 2.661259 g / cm^3
# Si number density = 26.673297 Si / 1000 Ang^3
#
#
#
# Elastic Constant Matrix: (Units=GPa)
#
#
# Indices 1 2 3 4 5 6 
#
# 1 107.5012 12.7067 15.8673 0.0000 -48.7929 0.0000
# 2 12.7067 80.5587 8.2684 0.0000 -20.3991 0.0000
# 3 15.8673 8.2684 116.0986 0.0000 -40.4655 0.0000
# 4 0.0000 0.0000 0.0000 14.9996 0.0000 15.8591
# 5 -48.7929 -20.3991 -40.4655 0.0000 58.8573 0.0000
# 6 0.0000 0.0000 0.0000 15.8591 0.0000 31.4150
#
#
#
# Elastic Compliance Matrix: (Units=1/GPa)
#
#
# Indices 1 2 3 4 5 6 
#
# 1 0.015843 0.001161 0.003248 0.000000 0.015770 0.000000
# 2 0.001161 0.013762 0.001130 0.000000 0.006509 0.000000
# 3 0.003248 0.001130 0.012052 0.000000 0.011371 0.000000
# 4 0.000000 0.000000 0.000000 0.142990 0.000000 -0.072185
# 5 0.015770 0.006509 0.011371 0.000000 0.040137 0.000000
# 6 0.000000 0.000000 0.000000 -0.072185 0.000000 0.068273
#
#
# Mechanical properties :
#
#
# Convention : Reuss Voigt Hill
#
# Bulk Modulus (GPa) = 18.96234 41.98259 30.47246
# Shear Modulus (GPa) = 16.69131 38.87545 27.78338
#
# Velocity S-wave (km/s) = 2.50425 3.82182 3.23091
# Velocity P-wave (km/s) = 3.93526 5.93707 5.03662
#
# Compressibility (1/GPa) = 0.05273612
#
# Stress axis : x y z
#
# Youngs Moduli (GPa) = 63.11878 72.66142 82.97307
#
# Poissons Ratio (x) = -0.08435 -0.26954
# Poissons Ratio (y) = -0.07327 -0.09375
# Poissons Ratio (z) = -0.20504 -0.08210
#
# Static dielectric constant tensor:
#      x y z
#    x 2.891920 0.000000 -0.693840 
#    y 0.000000 2.535570 0.000000 
#    z -0.693840 0.000000 4.230810 
# 
# From -- ./inp_files/190829.got.cif
#   From: 2010.05.17/outbox.cif.g08.bks.cpg/sg15_96_cif.got.tgz:190829.got - 2010.06.03 18:47:42.
