data_PCOD9286599
_publ_section_title
;
Structure prediction by ZEFSAII (Michael W. Deem and Ramdas Pophale) SiO2 
 PCOD9286599
Probable space group: C 2/C
;
_chemical_formula_sum "Si O2"
_cell_formula_units_Z 40
_cell_length_a 12.667985
_cell_length_b 6.580526
_cell_length_c 26.079443
_cell_angle_alpha 90.000000
_cell_angle_beta 49.153948
_cell_angle_gamma 90.000000
_cell_volume 1644.591161
_symmetry_space_group_name_H-M "C 2/C"
_symmetry_group_IT_number 15
_symmetry_cell_setting 'monoclinic'
loop_
_space_group_symop_operation_xyz
x,y,z
-x,y,1/2-z
-x,-y,-z
x,-y,1/2+z
1/2+x,1/2+y,z
1/2-x,1/2+y,1/2-z
1/2-x,1/2-y,-z
1/2+x,1/2-y,1/2+z
loop_
_atom_site_type_symbol
_atom_site_label
_atom_site_fract_x
_atom_site_fract_y
_atom_site_fract_z
Si Si1 0.000000 0.000000 0.000000
Si Si2 0.966201 0.302731 0.652869
Si Si3 0.500000 0.919810 0.750000
Si Si4 0.255764 0.690846 0.635237
Si Si5 0.712492 0.496259 0.071761
Si Si6 0.462425 0.834175 0.435291
O O1 0.953689 0.199711 0.050610
O O2 0.850209 0.893392 0.058844
O O3 0.938075 0.296330 0.722025
O O4 0.855501 0.185424 0.652953
O O5 0.961833 0.529149 0.631059
O O6 0.120069 0.204738 0.596631
O O7 0.619689 0.061175 0.688180
O O8 0.221005 0.918013 0.626756
O O9 0.624473 0.664727 0.068030
O O10 0.863086 0.505458 0.997069
#
# Coordination Sequence:
#
# PCOD9286599 Si02
#       6
#     4   8   4   8   8   8
#     4  10  22  44  80 110 142 186 242 306 370 440
#     4  12  26  46  75 103 143 206 242 296 374 445
#     4  12  30  48  70 106 150 194 250 298 358 444
#     4  11  26  47  73 107 144 190 245 309 365 442
#     4  10  22  44  72 110 147 183 241 312 367 437
#     4  10  21  43  74 111 149 182 240 313 367 435
#
# _framework density 24.322156
#
# number of rings (size 3 to 8) (size 9 to 14) (size 15 to 20)
#    0.000    1.200    4.000    0.600    0.000   12.000 
#    0.000    0.000    0.000    0.000    0.000    0.000 
#    0.000    0.000    0.000    0.000    0.000    0.000 
#
# Total GULP energy -111383.095064 kJ/mol
# GULP energy per Si atom -5569.154753 kJ/mol
# Density = 2.426680 g / cm^3
# Si number density = 24.322156 Si / 1000 Ang^3
#
#
#
# Elastic Constant Matrix: (Units=GPa)
#
#
# Indices 1 2 3 4 5 6 
#
# 1 94.9418 31.1296 11.7171 -0.0002 27.8852 -0.0002
# 2 31.1296 72.2132 13.2758 -0.0005 12.6002 -0.0005
# 3 11.7171 13.2758 65.4971 0.0001 13.0136 0.0001
# 4 -0.0002 -0.0005 0.0001 26.9752 -0.0002 -1.5266
# 5 27.8852 12.6002 13.0136 -0.0002 32.0249 -0.0002
# 6 -0.0002 -0.0005 0.0001 -1.5266 -0.0002 29.3414
#
#
#
# Elastic Compliance Matrix: (Units=1/GPa)
#
#
# Indices 1 2 3 4 5 6 
#
# 1 0.015492 -0.004709 0.000539 0.000000 -0.011856 0.000000
# 2 -0.004709 0.016548 -0.002211 0.000000 -0.001512 0.000000
# 3 0.000539 -0.002211 0.016905 0.000000 -0.006468 0.000000
# 4 0.000000 0.000000 0.000000 0.037181 0.000000 0.001934
# 5 -0.011856 -0.001512 -0.006468 0.000000 0.044773 0.000000
# 6 0.000000 0.000000 0.000000 0.001934 0.000000 0.034182
#
#
# Mechanical properties :
#
#
# Convention : Reuss Voigt Hill
#
# Bulk Modulus (GPa) = 27.63777 38.32189 32.97983
# Shear Modulus (GPa) = 26.32900 29.43693 27.88297
#
# Velocity S-wave (km/s) = 3.29372 3.48270 3.38953
# Velocity P-wave (km/s) = 5.08455 5.65353 5.37658
#
# Compressibility (1/GPa) = 0.03618237
#
# Stress axis : x y z
#
# Youngs Moduli (GPa) = 64.54784 60.42982 59.15442
#
# Poissons Ratio (x) = 0.28455 -0.03186
# Poissons Ratio (y) = 0.30394 0.13081
# Poissons Ratio (z) = -0.03476 0.13363
#
# Static dielectric constant tensor:
#      x y z
#    x 1.880440 0.000000 0.005260 
#    y 0.000000 1.707440 0.000000 
#    z 0.005260 0.000000 1.911230 
# 
# From -- ./inp_files/312019.got.cif
#   From: 2010.05.17/outbox.cif.g08.bks.cpg/sg15_157_cif.got.tgz:312019.got - 2010.06.03 18:47:42.
