data_PCOD9286210
_publ_section_title
;
Structure prediction by ZEFSAII (Michael W. Deem and Ramdas Pophale) SiO2 
 PCOD9286210
Probable space group: C 2/C
;
_chemical_formula_sum "Si O2"
_cell_formula_units_Z 48
_cell_length_a 12.319646
_cell_length_b 15.753546
_cell_length_c 11.450580
_cell_angle_alpha 90.000000
_cell_angle_beta 116.169188
_cell_angle_gamma 90.000000
_cell_volume 1994.510840
_symmetry_space_group_name_H-M "C 2/C"
_symmetry_group_IT_number 15
_symmetry_cell_setting 'monoclinic'
loop_
_space_group_symop_operation_xyz
x,y,z
-x,y,1/2-z
-x,-y,-z
x,-y,1/2+z
1/2+x,1/2+y,z
1/2-x,1/2+y,1/2-z
1/2-x,1/2-y,-z
1/2+x,1/2-y,1/2+z
loop_
_atom_site_type_symbol
_atom_site_label
_atom_site_fract_x
_atom_site_fract_y
_atom_site_fract_z
Si Si1 0.495314 0.119759 0.558251
Si Si2 0.548716 0.306095 0.616184
Si Si3 0.674824 0.837210 0.741388
Si Si4 0.650914 0.962814 0.944324
Si Si5 0.929774 0.842777 0.321883
Si Si6 0.111858 0.053266 0.500625
O O1 0.523517 0.208623 0.632590
O O2 0.395655 0.138124 0.409411
O O3 0.611455 0.086172 0.542374
O O4 0.437287 0.043964 0.604073
O O5 0.318157 0.336093 0.791361
O O6 0.529385 0.313302 0.465567
O O7 0.443858 0.371556 0.604194
O O8 0.642159 0.900611 0.830081
O O9 0.634625 0.741565 0.753900
O O10 0.786689 0.998164 0.010243
O O11 0.841007 0.899487 0.358997
O O12 0.000000 0.887082 0.250000
O O13 0.000000 0.000000 0.500000
#
# Coordination Sequence:
#
# PCOD9286210 Si02
#       6
#     8   8   8   8   8   8
#     4  10  24  43  66 102 131 191 216 273 361 392
#     4   9  21  41  66  95 137 173 230 281 334 403
#     4  11  20  43  68  95 137 177 229 283 329 413
#     4  11  22  43  68  92 144 169 229 288 319 416
#     4   9  20  38  65  95 127 177 233 272 344 394
#     4  10  21  43  63  95 133 178 223 294 325 389
#
# _framework density 24.066051999999999
#
# number of rings (size 3 to 8) (size 9 to 14) (size 15 to 20)
#    1.000    1.000    1.667    2.500    0.000    4.667 
#   15.000    0.833    0.000    0.000    0.000    0.000 
#    0.000    0.000    0.000    0.000    0.000    0.000 
#
# Total GULP energy -134196.880874 kJ/mol
# GULP energy per Si atom -5591.536703 kJ/mol
# Density = 2.401128 g / cm^3
# Si number density = 24.066052 Si / 1000 Ang^3
#
#
#
# Elastic Constant Matrix: (Units=GPa)
#
#
# Indices 1 2 3 4 5 6 
#
# 1 151.3499 61.8622 56.3861 0.0000 8.8723 0.0000
# 2 61.8622 152.8414 20.9630 0.0000 2.1500 0.0000
# 3 56.3861 20.9630 66.9548 0.0000 -6.2604 0.0000
# 4 0.0000 0.0000 0.0000 2.6770 0.0000 18.4148
# 5 8.8723 2.1500 -6.2604 0.0000 16.7501 0.0000
# 6 0.0000 0.0000 0.0000 18.4148 0.0000 23.1263
#
#
#
# Elastic Compliance Matrix: (Units=1/GPa)
#
#
# Indices 1 2 3 4 5 6 
#
# 1 0.012480 -0.003490 -0.010355 0.000000 -0.010033 0.000000
# 2 -0.003490 0.007861 0.000576 0.000000 0.001055 0.000000
# 3 -0.010355 0.000576 0.024850 0.000000 0.014699 0.000000
# 4 0.000000 0.000000 0.000000 -0.083429 0.000000 0.066432
# 5 -0.010033 0.001055 0.014699 0.000000 0.070374 0.000000
# 6 0.000000 0.000000 0.000000 0.066432 0.000000 -0.009657
#
#
# Mechanical properties :
#
#
# Convention : Reuss Voigt Hill
#
# Bulk Modulus (GPa) = 53.60920 72.17432 62.89176
# Shear Modulus (GPa) = 90.52503 23.97300 57.24901
#
# Velocity S-wave (km/s) = 6.13978 3.15958 4.88261
# Velocity P-wave (km/s) = 8.51979 6.58527 7.61422
#
# Compressibility (1/GPa) = 0.01865352
#
# Stress axis : x y z
#
# Youngs Moduli (GPa) = 80.13120 127.20529 40.24142
#
# Poissons Ratio (x) = 0.44390 0.41671
# Poissons Ratio (y) = 0.27963 -0.02318
# Poissons Ratio (z) = 0.82977 -0.07329
#
# Static dielectric constant tensor:
#      x y z
#    x 1.894480 0.000000 0.002310 
#    y 0.000000 1.972210 0.000000 
#    z 0.002310 0.000000 1.918520 
# 
# From -- ./inp_files/87488.got.cif
#   From: 2010.05.17/outbox.cif.g08.bks.cpg/sg15_44_cif.got.tgz:87488.got - 2010.06.03 18:47:42.
