data_PCOD9286976
_publ_section_title
;
Structure prediction by ZEFSAII (Michael W. Deem and Ramdas Pophale) SiO2 
 PCOD9286976
Probable space group: C 2/C
;
_chemical_formula_sum "Si O2"
_cell_formula_units_Z 40
_cell_length_a 16.531927
_cell_length_b 8.520125
_cell_length_c 13.082631
_cell_angle_alpha 90.000000
_cell_angle_beta 75.458168
_cell_angle_gamma 90.000000
_cell_volume 1783.708995
_symmetry_space_group_name_H-M "C 2/C"
_symmetry_group_IT_number 15
_symmetry_cell_setting 'monoclinic'
loop_
_space_group_symop_operation_xyz
x,y,z
-x,y,1/2-z
-x,-y,-z
x,-y,1/2+z
1/2+x,1/2+y,z
1/2-x,1/2+y,1/2-z
1/2-x,1/2-y,-z
1/2+x,1/2-y,1/2+z
loop_
_atom_site_type_symbol
_atom_site_label
_atom_site_fract_x
_atom_site_fract_y
_atom_site_fract_z
Si Si1 0.658164 0.735078 0.580305
Si Si2 0.637413 0.615883 0.049105
Si Si3 0.857695 0.256902 0.235041
Si Si4 0.752800 0.509140 0.336143
Si Si5 0.985168 0.319853 0.034084
O O1 0.750000 0.750000 0.500000
O O2 0.633437 0.554255 0.607377
O O3 0.588083 0.777202 0.520895
O O4 0.671391 0.870266 0.660630
O O5 0.643522 0.731326 0.143568
O O6 0.561406 0.694564 0.008709
O O7 0.713080 0.583496 0.945775
O O8 0.789427 0.392615 0.240286
O O9 0.944946 0.304988 0.159246
O O10 0.823145 0.106539 0.187015
O O11 0.000000 0.500000 0.000000
#
# Coordination Sequence:
#
# PCOD9286976 Si02
#       5
#     8   8   8   8   8
#     4  10  21  45  69  97 139 181 234 288 351 421
#     4  11  24  45  72 103 144 187 236 305 356 422
#     4  12  25  43  71 106 143 191 245 285 366 437
#     4  11  25  43  76 106 142 192 244 297 351 438
#     4  12  26  45  70 101 147 182 237 300 367 420
#
# _framework density 22.425184000000002
#
# number of rings (size 3 to 8) (size 9 to 14) (size 15 to 20)
#    0.000    0.800    4.000    4.200    5.600    0.000 
#    0.000    0.000    0.000    0.000    0.000    0.000 
#    0.000    0.000    0.000    0.000    0.000    0.000 
#
# Total GULP energy -111477.616671 kJ/mol
# GULP energy per Si atom -5573.880834 kJ/mol
# Density = 2.237414 g / cm^3
# Si number density = 22.425184 Si / 1000 Ang^3
#
#
#
# Elastic Constant Matrix: (Units=GPa)
#
#
# Indices 1 2 3 4 5 6 
#
# 1 123.3610 58.3547 26.4967 0.0000 8.9051 0.0000
# 2 58.3547 120.6044 36.9444 0.0000 -27.5717 0.0000
# 3 26.4967 36.9444 54.4486 0.0000 -5.2137 0.0000
# 4 0.0000 0.0000 0.0000 35.3543 0.0000 8.4870
# 5 8.9051 -27.5717 -5.2137 0.0000 29.1560 0.0000
# 6 0.0000 0.0000 0.0000 8.4870 0.0000 49.5984
#
#
#
# Elastic Compliance Matrix: (Units=1/GPa)
#
#
# Indices 1 2 3 4 5 6 
#
# 1 0.013742 -0.009110 -0.001763 0.000000 -0.013128 0.000000
# 2 -0.009110 0.019306 -0.006767 0.000000 0.019829 0.000000
# 3 -0.001763 -0.006767 0.023659 0.000000 -0.001630 0.000000
# 4 0.000000 0.000000 0.000000 0.029497 0.000000 -0.005047
# 5 -0.013128 0.019829 -0.001630 0.000000 0.056768 0.000000
# 6 0.000000 0.000000 0.000000 -0.005047 0.000000 0.021026
#
#
# Mechanical properties :
#
#
# Convention : Reuss Voigt Hill
#
# Bulk Modulus (GPa) = 46.67131 60.22285 53.44708
# Shear Modulus (GPa) = 24.22236 34.59629 29.40933
#
# Velocity S-wave (km/s) = 3.29012 3.93204 3.62531
# Velocity P-wave (km/s) = 5.94057 6.89405 6.43499
#
# Compressibility (1/GPa) = 0.02142644
#
# Stress axis : x y z
#
# Youngs Moduli (GPa) = 72.76869 51.79796 42.26645
#
# Poissons Ratio (x) = 0.47190 0.07452
# Poissons Ratio (y) = 0.66295 0.28602
# Poissons Ratio (z) = 0.12829 0.35053
#
# Static dielectric constant tensor:
#      x y z
#    x 1.830150 0.000000 0.033530 
#    y 0.000000 1.975530 0.000000 
#    z 0.033530 0.000000 1.892600 
# 
# From -- ./inp_files/150592.got.cif
#   From: 2010.05.17/outbox.cif.g08.bks.cpg/sg15_76_cif.got.tgz:150592.got - 2010.06.03 18:47:42.
