data_PCOD9286077
_publ_section_title
;
Structure prediction by ZEFSAII (Michael W. Deem and Ramdas Pophale) SiO2 
 PCOD9286077
Probable space group: C 2/C
;
_chemical_formula_sum "Si O2"
_cell_formula_units_Z 24
_cell_length_a 7.431462
_cell_length_b 15.702656
_cell_length_c 13.714857
_cell_angle_alpha 90.000000
_cell_angle_beta 33.442461
_cell_angle_gamma 90.000000
_cell_volume 881.999840
_symmetry_space_group_name_H-M "C 2/C"
_symmetry_group_IT_number 15
_symmetry_cell_setting 'monoclinic'
loop_
_space_group_symop_operation_xyz
x,y,z
-x,y,1/2-z
-x,-y,-z
x,-y,1/2+z
1/2+x,1/2+y,z
1/2-x,1/2+y,1/2-z
1/2-x,1/2-y,-z
1/2+x,1/2-y,1/2+z
loop_
_atom_site_type_symbol
_atom_site_label
_atom_site_fract_x
_atom_site_fract_y
_atom_site_fract_z
Si Si1 0.326931 0.823021 0.542337
Si Si2 0.779670 0.960514 0.252012
Si Si3 0.873071 0.631999 0.404847
O O1 0.250000 0.750000 0.500000
O O2 0.472574 0.901632 0.417224
O O3 0.577429 0.812961 0.519582
O O4 0.000000 0.837999 0.750000
O O5 0.000000 0.967983 0.250000
O O6 0.623686 0.050769 0.296582
O O7 0.013178 0.910168 0.071085
O O8 0.000000 0.676442 0.250000
#
# Coordination Sequence:
#
# PCOD9286077 Si02
#       3
#     8   8   8
#     4  11  25  45  66  93 137 187 226 274 342 409
#     4  10  21  42  71 104 135 175 228 283 340 408
#     4  11  22  41  73 107 135 174 231 287 337 401
#
# _framework density 27.210888000000001
#
# number of rings (size 3 to 8) (size 9 to 14) (size 15 to 20)
#    0.000    1.333    0.000    8.000    0.000    4.000 
#    0.000   21.667    0.000    0.000    0.000    0.000 
#    0.000    0.000    0.000    0.000    0.000    0.000 
#
# Total GULP energy -67292.659408 kJ/mol
# GULP energy per Si atom -5607.721617 kJ/mol
# Density = 2.714895 g / cm^3
# Si number density = 27.210888 Si / 1000 Ang^3
#
#
#
# Elastic Constant Matrix: (Units=GPa)
#
#
# Indices 1 2 3 4 5 6 
#
# 1 118.7980 77.4776 43.9136 -0.0043 19.4020 0.0103
# 2 77.4776 110.8645 72.6411 -0.0050 8.6837 0.0009
# 3 43.9136 72.6411 247.4203 -0.0217 4.2475 -0.0026
# 4 -0.0043 -0.0050 -0.0217 47.2167 0.0099 -5.7664
# 5 19.4020 8.6837 4.2475 0.0099 52.7628 -0.0063
# 6 0.0103 0.0009 -0.0026 -5.7664 -0.0063 33.4107
#
#
#
# Elastic Compliance Matrix: (Units=1/GPa)
#
#
# Indices 1 2 3 4 5 6 
#
# 1 0.016386 -0.011472 0.000532 0.000001 -0.004180 -0.000005
# 2 -0.011472 0.019333 -0.003663 -0.000001 0.001332 0.000003
# 3 0.000532 -0.003663 0.005023 0.000002 0.000003 0.000001
# 4 0.000001 -0.000001 0.000002 0.021635 -0.000004 0.003734
# 5 -0.004180 0.001332 0.000003 -0.000004 0.020270 0.000004
# 6 -0.000005 0.000003 0.000001 0.003734 0.000004 0.030575
#
#
# Mechanical properties :
#
#
# Convention : Reuss Voigt Hill
#
# Bulk Modulus (GPa) = 86.69335 96.12751 91.41043
# Shear Modulus (GPa) = 34.18267 45.54805 39.86536
#
# Velocity S-wave (km/s) = 3.54815 4.09576 3.83175
# Velocity P-wave (km/s) = 6.97960 7.60069 7.29676
#
# Compressibility (1/GPa) = 0.01153491
#
# Stress axis : x y z
#
# Youngs Moduli (GPa) = 61.02902 51.72534 199.09791
#
# Poissons Ratio (x) = 0.59340 -0.10585
# Poissons Ratio (y) = 0.70013 0.72925
# Poissons Ratio (z) = -0.03245 0.18946
#
# Static dielectric constant tensor:
#      x y z
#    x 2.288430 -0.000010 -0.016510 
#    y -0.000010 2.160920 0.000010 
#    z -0.016510 0.000010 2.063620 
# 
# From -- ./inp_files/134112.got.cif
#   From: 2010.05.17/outbox.cif.g08.bks.cpg/sg15_68_cif.got.tgz:134112.got - 2010.06.03 18:47:42.
