data_PCOD9286243
_publ_section_title
;
Structure prediction by ZEFSAII (Michael W. Deem and Ramdas Pophale) SiO2 
 PCOD9286243
Probable space group: C 2/C
;
_chemical_formula_sum "Si O2"
_cell_formula_units_Z 52
_cell_length_a 15.294281
_cell_length_b 15.990745
_cell_length_c 13.077687
_cell_angle_alpha 90.000000
_cell_angle_beta 136.908216
_cell_angle_gamma 90.000000
_cell_volume 2185.027432
_symmetry_space_group_name_H-M "C 2/C"
_symmetry_group_IT_number 15
_symmetry_cell_setting 'monoclinic'
loop_
_space_group_symop_operation_xyz
x,y,z
-x,y,1/2-z
-x,-y,-z
x,-y,1/2+z
1/2+x,1/2+y,z
1/2-x,1/2+y,1/2-z
1/2-x,1/2-y,-z
1/2+x,1/2-y,1/2+z
loop_
_atom_site_type_symbol
_atom_site_label
_atom_site_fract_x
_atom_site_fract_y
_atom_site_fract_z
Si Si1 0.805763 0.764881 0.162880
Si Si2 0.205944 0.027524 0.622764
Si Si3 0.388534 0.834629 0.327600
Si Si4 0.335932 0.306094 0.643113
Si Si5 0.980162 0.915149 0.373156
Si Si6 0.000000 0.947469 0.750000
Si Si7 0.648769 0.116082 0.149990
O O1 0.698204 0.802365 0.149897
O O2 0.925566 0.829955 0.278680
O O3 0.849892 0.677595 0.250488
O O4 0.750000 0.750000 0.000000
O O5 0.306115 0.102273 0.686637
O O6 0.085780 0.074572 0.573934
O O7 0.298958 0.973707 0.775192
O O8 0.127641 0.949451 0.500507
O O9 0.425609 0.755320 0.288083
O O10 0.511785 0.878271 0.479991
O O11 0.250000 0.250000 0.500000
O O12 0.396141 0.380440 0.627172
O O13 0.249243 0.347464 0.655448
O O14 0.924856 0.991430 0.259858
#
# Coordination Sequence:
#
# PCOD9286243 Si02
#       7
#     8   8   8   8   8   4   8
#     4  10  25  43  66 100 137 182 227 283 348 405
#     4  10  21  43  64  96 126 179 226 276 337 403
#     4  10  23  42  66  96 139 177 224 284 343 408
#     4  11  23  40  63  98 135 175 220 277 346 403
#     4  10  23  39  68  93 134 171 232 282 325 405
#     4  12  22  38  66  96 128 170 226 274 330 394
#     4  11  23  40  67  94 136 176 226 277 343 410
#
# _framework density 23.798328000000001
#
# number of rings (size 3 to 8) (size 9 to 14) (size 15 to 20)
#    0.000    1.538    1.538    2.308    6.462    3.077 
#    0.000    0.000    0.000    3.692    0.000    0.000 
#    0.000    0.000    0.000    0.000    0.000    0.000 
#
# Total GULP energy -144792.571672 kJ/mol
# GULP energy per Si atom -5568.945064 kJ/mol
# Density = 2.374416 g / cm^3
# Si number density = 23.798328 Si / 1000 Ang^3
#
#
#
# Elastic Constant Matrix: (Units=GPa)
#
#
# Indices 1 2 3 4 5 6 
#
# 1 59.5043 25.4247 7.4057 0.0000 -13.4976 0.0000
# 2 25.4247 98.0278 17.6820 0.0000 -5.0853 0.0000
# 3 7.4057 17.6820 118.9895 0.0000 -1.1682 0.0000
# 4 0.0000 0.0000 0.0000 27.7983 0.0000 23.6164
# 5 -13.4976 -5.0853 -1.1682 0.0000 37.0588 0.0000
# 6 0.0000 0.0000 0.0000 23.6164 0.0000 28.0765
#
#
#
# Elastic Compliance Matrix: (Units=1/GPa)
#
#
# Indices 1 2 3 4 5 6 
#
# 1 0.020486 -0.004874 -0.000484 0.000000 0.006777 0.000000
# 2 -0.004874 0.011714 -0.001439 0.000000 -0.000213 0.000000
# 3 -0.000484 -0.001439 0.008647 0.000000 -0.000101 0.000000
# 4 0.000000 0.000000 0.000000 0.126047 0.000000 -0.106024
# 5 0.006777 -0.000213 -0.000101 0.000000 0.029420 0.000000
# 6 0.000000 0.000000 0.000000 -0.106024 0.000000 0.124798
#
#
# Mechanical properties :
#
#
# Convention : Reuss Voigt Hill
#
# Bulk Modulus (GPa) = 36.69582 41.94963 39.32272
# Shear Modulus (GPa) = 14.54367 33.65399 24.09883
#
# Velocity S-wave (km/s) = 2.47477 3.76458 3.18563
# Velocity P-wave (km/s) = 4.85993 6.04661 5.48545
#
# Compressibility (1/GPa) = 0.02725106
#
# Stress axis : x y z
#
# Youngs Moduli (GPa) = 48.81445 85.36809 115.64511
#
# Poissons Ratio (x) = 0.41611 0.05599
# Poissons Ratio (y) = 0.23794 0.16646
# Poissons Ratio (z) = 0.02363 0.12288
#
# Static dielectric constant tensor:
#      x y z
#    x 1.949020 0.000000 -0.047870 
#    y 0.000000 1.998030 0.000000 
#    z -0.047870 0.000000 2.031190 
# 
# From -- ./inp_files/162607.got.cif
#   From: 2010.05.17/outbox.cif.g08.bks.cpg/sg15_82_cif.got.tgz:162607.got - 2010.06.03 18:47:42.
