data_PCOD9286722
_publ_section_title
;
Structure prediction by ZEFSAII (Michael W. Deem and Ramdas Pophale) SiO2 
 PCOD9286722
Probable space group: C 2/C
;
_chemical_formula_sum "Si O2"
_cell_formula_units_Z 56
_cell_length_a 14.954736
_cell_length_b 23.483375
_cell_length_c 7.923231
_cell_angle_alpha 90.000000
_cell_angle_beta 113.193287
_cell_angle_gamma 90.000000
_cell_volume 2557.660235
_symmetry_space_group_name_H-M "C 2/C"
_symmetry_group_IT_number 15
_symmetry_cell_setting 'monoclinic'
loop_
_space_group_symop_operation_xyz
x,y,z
-x,y,1/2-z
-x,-y,-z
x,-y,1/2+z
1/2+x,1/2+y,z
1/2-x,1/2+y,1/2-z
1/2-x,1/2-y,-z
1/2+x,1/2-y,1/2+z
loop_
_atom_site_type_symbol
_atom_site_label
_atom_site_fract_x
_atom_site_fract_y
_atom_site_fract_z
Si Si1 0.500000 0.223765 0.250000
Si Si2 0.756417 0.548864 0.591492
Si Si3 0.616009 0.149979 0.856499
Si Si4 0.645756 0.257474 0.114640
Si Si5 0.083374 0.127471 0.448820
Si Si6 0.286568 0.430758 0.050353
Si Si7 0.801405 0.684628 0.946885
Si Si8 0.000000 0.088962 0.750000
O O1 0.538897 0.258796 0.120901
O O2 0.598001 0.192142 0.376812
O O3 0.840305 0.587662 0.571889
O O4 0.654629 0.575709 0.449827
O O5 0.767238 0.481479 0.583846
O O6 0.745214 0.560305 0.780947
O O7 0.500000 0.149626 0.750000
O O8 0.658183 0.164682 0.704739
O O9 0.648273 0.199464 0.010821
O O10 0.726850 0.266300 0.321898
O O11 0.645799 0.314256 0.001685
O O12 0.041250 0.118034 0.607874
O O13 0.000000 0.133028 0.250000
O O14 0.260671 0.364437 0.003915
O O15 0.401659 0.441370 0.115020
#
# Coordination Sequence:
#
# PCOD9286722 Si02
#       8
#     4   8   8   8   8   8   8   4
#     4  12  27  40  68 100 136 182 217 276 362 408
#     4  10  24  42  64  98 133 178 230 286 342 407
#     4  11  22  45  70  94 134 177 230 285 335 409
#     4  12  23  43  70  97 138 177 222 287 338 417
#     4  11  24  39  66 106 136 181 232 272 356 423
#     4  10  23  43  68  94 138 177 228 288 343 403
#     4  11  24  47  63 101 137 171 232 283 343 415
#     4  10  21  44  66  98 146 176 225 298 334 414
#
# _framework density 21.895009999999999
#
# number of rings (size 3 to 8) (size 9 to 14) (size 15 to 20)
#    0.000    1.143    5.714    1.714    3.000    2.286 
#    1.286    1.429    0.000    0.000    0.000    0.000 
#    0.000    0.000    0.000    0.000    0.000    0.000 
#
# Total GULP energy -156031.404417 kJ/mol
# GULP energy per Si atom -5572.550158 kJ/mol
# Density = 2.184518 g / cm^3
# Si number density = 21.895010 Si / 1000 Ang^3
#
#
#
# Elastic Constant Matrix: (Units=GPa)
#
#
# Indices 1 2 3 4 5 6 
#
# 1 103.6060 34.6671 9.8116 0.0000 15.7545 0.0000
# 2 34.6671 102.9429 27.5747 0.0000 16.2859 0.0000
# 3 9.8116 27.5747 88.1558 0.0000 32.5708 0.0000
# 4 0.0000 0.0000 0.0000 28.0648 0.0000 1.6478
# 5 15.7545 16.2859 32.5708 0.0000 30.9607 0.0000
# 6 0.0000 0.0000 0.0000 1.6478 0.0000 10.1696
#
#
#
# Elastic Compliance Matrix: (Units=1/GPa)
#
#
# Indices 1 2 3 4 5 6 
#
# 1 0.011569 -0.003469 0.002124 0.000000 -0.006296 0.000000
# 2 -0.003469 0.011868 -0.002735 0.000000 -0.001601 0.000000
# 3 0.002124 -0.002735 0.019352 0.000000 -0.020001 0.000000
# 4 0.000000 0.000000 0.000000 0.035974 0.000000 -0.005829
# 5 -0.006296 -0.001601 -0.020001 0.000000 0.057386 0.000000
# 6 0.000000 0.000000 0.000000 -0.005829 0.000000 0.099277
#
#
# Mechanical properties :
#
#
# Convention : Reuss Voigt Hill
#
# Bulk Modulus (GPa) = 28.87688 48.75685 38.81686
# Shear Modulus (GPa) = 19.59796 28.68246 24.14021
#
# Velocity S-wave (km/s) = 2.99505 3.62332 3.32406
# Velocity P-wave (km/s) = 5.01775 6.31042 5.70084
#
# Compressibility (1/GPa) = 0.03462978
#
# Stress axis : x y z
#
# Youngs Moduli (GPa) = 86.43842 84.25993 51.67345
#
# Poissons Ratio (x) = 0.29227 -0.10974
# Poissons Ratio (y) = 0.29983 0.14132
# Poissons Ratio (z) = -0.18357 0.23043
#
# Static dielectric constant tensor:
#      x y z
#    x 1.820670 0.000000 -0.016950 
#    y 0.000000 1.943010 0.000000 
#    z -0.016950 0.000000 1.854940 
# 
# From -- ./inp_files/42782.got.cif
#   From: 2010.05.17/outbox.cif.g08.bks.cpg/sg15_22_cif.got.tgz:42782.got - 2010.06.03 18:47:42.
