data_PCOD9286279
_publ_section_title
;
Structure prediction by ZEFSAII (Michael W. Deem and Ramdas Pophale) SiO2 
 PCOD9286279
Probable space group: C 2/C
;
_chemical_formula_sum "Si O2"
_cell_formula_units_Z 52
_cell_length_a 7.986269
_cell_length_b 21.477185
_cell_length_c 18.726046
_cell_angle_alpha 90.000000
_cell_angle_beta 128.350012
_cell_angle_gamma 90.000000
_cell_volume 2518.915767
_symmetry_space_group_name_H-M "C 2/C"
_symmetry_group_IT_number 15
_symmetry_cell_setting 'monoclinic'
loop_
_space_group_symop_operation_xyz
x,y,z
-x,y,1/2-z
-x,-y,-z
x,-y,1/2+z
1/2+x,1/2+y,z
1/2-x,1/2+y,1/2-z
1/2-x,1/2-y,-z
1/2+x,1/2-y,1/2+z
loop_
_atom_site_type_symbol
_atom_site_label
_atom_site_fract_x
_atom_site_fract_y
_atom_site_fract_z
Si Si1 0.905450 0.159960 0.027287
Si Si2 0.706196 0.236929 0.757015
Si Si3 0.052375 0.131987 0.847596
Si Si4 0.046773 0.288392 0.053936
Si Si5 0.000000 0.468890 0.750000
Si Si6 0.872573 0.952817 0.416335
Si Si7 0.675518 0.378285 0.735984
O O1 0.025558 0.217642 0.020040
O O2 0.053865 0.131266 0.128171
O O3 0.693033 0.185994 0.008943
O O4 0.832682 0.108367 0.952615
O O5 0.500000 0.225152 0.750000
O O6 0.629453 0.224899 0.656171
O O7 0.765127 0.309673 0.780205
O O8 0.892281 0.189008 0.822275
O O9 0.285811 0.159976 0.926875
O O10 0.000000 0.118320 0.750000
O O11 0.001302 0.072148 0.881720
O O12 0.837982 0.512823 0.665150
O O13 0.863947 0.426189 0.768740
O O14 0.000000 0.000000 0.500000
O O15 0.500000 0.395753 0.750000
#
# Coordination Sequence:
#
# PCOD9286279 Si02
#       7
#     8   8   8   8   4   8   8
#     4  10  21  43  65  98 138 170 227 285 353 415
#     4   9  18  35  66 101 133 170 218 289 357 414
#     4  10  23  39  67 105 135 176 229 282 356 419
#     4   9  20  37  66  99 133 169 214 300 348 407
#     4  12  28  46  70  92 142 196 232 292 334 418
#     4  12  27  46  65  97 136 189 235 276 340 417
#     4  10  23  44  70  98 134 181 236 288 355 410
#
# _framework density 20.643802999999998
#
# number of rings (size 3 to 8) (size 9 to 14) (size 15 to 20)
#    0.000    1.846    1.538    0.923   10.769    3.692 
#    0.000    1.538    0.000    0.000    0.000    0.000 
#    0.000    0.000    0.000    0.000    0.000    0.000 
#
# Total GULP energy -145221.728803 kJ/mol
# GULP energy per Si atom -5585.451108 kJ/mol
# Density = 2.059682 g / cm^3
# Si number density = 20.643803 Si / 1000 Ang^3
#
#
#
# Elastic Constant Matrix: (Units=GPa)
#
#
# Indices 1 2 3 4 5 6 
#
# 1 86.9251 69.6642 41.3277 0.0000 -0.7060 0.0000
# 2 69.6642 111.8918 54.3614 0.0000 2.8559 0.0000
# 3 41.3277 54.3614 84.9485 0.0000 9.5693 0.0000
# 4 0.0000 0.0000 0.0000 105.7574 0.0000 31.2751
# 5 -0.7060 2.8559 9.5693 0.0000 35.3013 0.0000
# 6 0.0000 0.0000 0.0000 31.2751 0.0000 61.0446
#
#
#
# Elastic Compliance Matrix: (Units=1/GPa)
#
#
# Indices 1 2 3 4 5 6 
#
# 1 0.023680 -0.013169 -0.003369 0.000000 0.002452 0.000000
# 2 -0.013169 0.020346 -0.006600 0.000000 -0.000120 0.000000
# 3 -0.003369 -0.006600 0.018136 0.000000 -0.004450 0.000000
# 4 0.000000 0.000000 0.000000 0.011144 0.000000 -0.005709
# 5 0.002452 -0.000120 -0.004450 0.000000 0.029593 0.000000
# 6 0.000000 0.000000 0.000000 -0.005709 0.000000 0.019307
#
#
# Mechanical properties :
#
#
# Convention : Reuss Voigt Hill
#
# Bulk Modulus (GPa) = 62.95077 68.27469 65.61273
# Shear Modulus (GPa) = 28.77287 48.31481 38.54384
#
# Velocity S-wave (km/s) = 3.73738 4.84302 4.32567
# Velocity P-wave (km/s) = 7.01313 8.02606 7.53663
#
# Compressibility (1/GPa) = 0.01588543
#
# Stress axis : x y z
#
# Youngs Moduli (GPa) = 42.23005 49.15087 55.14003
#
# Poissons Ratio (x) = 0.64725 0.18579
# Poissons Ratio (y) = 0.55612 0.36390
# Poissons Ratio (z) = 0.14229 0.32438
#
# Static dielectric constant tensor:
#      x y z
#    x 1.758860 0.000000 -0.010470 
#    y 0.000000 1.756730 0.000000 
#    z -0.010470 0.000000 1.755190 
# 
# From -- ./inp_files/192626.got.cif
#   From: 2010.05.17/outbox.cif.g08.bks.cpg/sg15_97_cif.got.tgz:192626.got - 2010.06.03 18:47:42.
