data_PCOD9286601
_publ_section_title
;
Structure prediction by ZEFSAII (Michael W. Deem and Ramdas Pophale) SiO2 
 PCOD9286601
Probable space group: C 2/C
;
_chemical_formula_sum "Si O2"
_cell_formula_units_Z 48
_cell_length_a 26.491922
_cell_length_b 10.544275
_cell_length_c 21.484836
_cell_angle_alpha 90.000000
_cell_angle_beta 159.919365
_cell_angle_gamma 90.000000
_cell_volume 2060.580178
_symmetry_space_group_name_H-M "C 2/C"
_symmetry_group_IT_number 15
_symmetry_cell_setting 'monoclinic'
loop_
_space_group_symop_operation_xyz
x,y,z
-x,y,1/2-z
-x,-y,-z
x,-y,1/2+z
1/2+x,1/2+y,z
1/2-x,1/2+y,1/2-z
1/2-x,1/2-y,-z
1/2+x,1/2-y,1/2+z
loop_
_atom_site_type_symbol
_atom_site_label
_atom_site_fract_x
_atom_site_fract_y
_atom_site_fract_z
Si Si1 0.500000 0.907616 0.750000
Si Si2 0.183480 0.002750 0.849733
Si Si3 0.503173 0.866045 0.894486
Si Si4 0.291931 0.265791 0.436574
Si Si5 0.000000 0.941826 0.750000
Si Si6 0.509185 0.846521 0.436985
Si Si7 0.803658 0.224426 0.737140
O O1 0.500427 0.844350 0.817519
O O2 0.343552 0.977657 0.566569
O O3 0.197690 0.857861 0.845320
O O4 0.056928 0.017469 0.755166
O O5 0.169975 0.095955 0.773763
O O6 0.342486 0.831902 0.732161
O O7 0.639104 0.778090 0.072217
O O8 0.545973 0.005143 0.968993
O O9 0.364305 0.350689 0.573719
O O10 0.426335 0.216715 0.550800
O O11 0.165861 0.346136 0.256876
O O12 0.587281 0.766412 0.581612
#
# Coordination Sequence:
#
# PCOD9286601 Si02
#       7
#     4   8   8   8   4   8   8
#     4  10  21  43  74  94 148 179 227 300 356 422
#     4  11  24  44  68 108 141 185 235 300 359 429
#     4  11  25  47  71 104 141 193 239 302 362 424
#     4  12  24  44  71 107 142 188 236 299 362 421
#     4  12  25  41  76 112 144 187 245 294 370 428
#     4  12  25  46  71 103 144 194 238 300 357 426
#     4  11  26  46  69 100 144 190 240 289 361 430
#
# _framework density 23.294409999999999
#
# number of rings (size 3 to 8) (size 9 to 14) (size 15 to 20)
#    0.000    0.667    5.000    3.500    0.000    6.667 
#    3.000    0.000    0.000    0.000    0.000    0.000 
#    0.000    0.000    0.000    0.000    0.000    0.000 
#
# Total GULP energy -133831.579690 kJ/mol
# GULP energy per Si atom -5576.315820 kJ/mol
# Density = 2.324139 g / cm^3
# Si number density = 23.294410 Si / 1000 Ang^3
#
#
#
# Elastic Constant Matrix: (Units=GPa)
#
#
# Indices 1 2 3 4 5 6 
#
# 1 81.1409 27.1922 3.7610 -0.0010 2.2221 -0.0005
# 2 27.1922 75.4906 46.1881 -0.0005 3.2074 -0.0002
# 3 3.7610 46.1881 104.2976 -0.0014 -3.0941 -0.0008
# 4 -0.0010 -0.0005 -0.0014 1.2770 -0.0009 2.3322
# 5 2.2221 3.2074 -3.0941 -0.0009 36.7550 -0.0004
# 6 -0.0005 -0.0002 -0.0008 2.3322 -0.0004 -1.9531
#
#
#
# Elastic Compliance Matrix: (Units=1/GPa)
#
#
# Indices 1 2 3 4 5 6 
#
# 1 0.014458 -0.006699 0.002443 0.000006 -0.000084 0.000003
# 2 -0.006699 0.021464 -0.009331 -0.000005 -0.002254 -0.000002
# 3 0.002443 -0.009331 0.013686 0.000008 0.001819 0.000004
# 4 0.000006 -0.000005 0.000008 0.246202 0.000010 0.293981
# 5 -0.000084 -0.002254 0.001819 0.000010 0.027562 0.000005
# 6 0.000003 -0.000002 0.000004 0.293981 0.000005 -0.160968
#
#
# Mechanical properties :
#
#
# Convention : Reuss Voigt Hill
#
# Bulk Modulus (GPa) = 44.57388 46.13462 45.35425
# Shear Modulus (GPa) = 25.37338 19.46829 22.42083
#
# Velocity S-wave (km/s) = 3.30396 2.89407 3.10578
# Velocity P-wave (km/s) = 5.80787 5.56916 5.68977
#
# Compressibility (1/GPa) = 0.02243466
#
# Stress axis : x y z
#
# Youngs Moduli (GPa) = 69.16439 46.58876 73.06763
#
# Poissons Ratio (x) = 0.31210 -0.17849
# Poissons Ratio (y) = 0.46333 0.68178
# Poissons Ratio (z) = -0.16895 0.43471
#
# Static dielectric constant tensor:
#      x y z
#    x 2.015260 0.000000 -0.039710 
#    y 0.000000 1.915740 0.000000 
#    z -0.039710 0.000000 1.975810 
# 
# From -- ./inp_files/257623.got.cif
#   From: 2010.05.17/outbox.cif.g08.bks.cpg/sg15_129_cif.got.tgz:257623.got - 2010.06.03 18:47:42.
