data_PCOD9286242
_publ_section_title
;
Structure prediction by ZEFSAII (Michael W. Deem and Ramdas Pophale) SiO2 
 PCOD9286242
Probable space group: C 2/C
;
_chemical_formula_sum "Si O2"
_cell_formula_units_Z 52
_cell_length_a 8.732007
_cell_length_b 18.094075
_cell_length_c 18.265814
_cell_angle_alpha 90.000000
_cell_angle_beta 64.153478
_cell_angle_gamma 90.000000
_cell_volume 2597.258358
_symmetry_space_group_name_H-M "C 2/C"
_symmetry_group_IT_number 15
_symmetry_cell_setting 'monoclinic'
loop_
_space_group_symop_operation_xyz
x,y,z
-x,y,1/2-z
-x,-y,-z
x,-y,1/2+z
1/2+x,1/2+y,z
1/2-x,1/2+y,1/2-z
1/2-x,1/2-y,-z
1/2+x,1/2-y,1/2+z
loop_
_atom_site_type_symbol
_atom_site_label
_atom_site_fract_x
_atom_site_fract_y
_atom_site_fract_z
Si Si1 0.000000 0.344561 0.750000
Si Si2 0.173891 0.937476 0.172637
Si Si3 0.693709 0.862590 0.969045
Si Si4 0.649704 0.499711 0.525698
Si Si5 0.267927 0.783751 0.226328
Si Si6 0.663235 0.785909 0.124874
Si Si7 0.505037 0.048490 0.389380
O O1 0.156430 0.288017 0.731063
O O2 0.985879 0.397761 0.823712
O O3 0.215473 0.854410 0.189429
O O4 0.000000 0.961370 0.250000
O O5 0.140246 0.941395 0.092794
O O6 0.337565 0.990860 0.153966
O O7 0.847810 0.920488 0.934414
O O8 0.735283 0.785480 0.923128
O O9 0.549259 0.902912 0.952285
O O10 0.665464 0.845763 0.060076
O O11 0.500000 0.500000 0.500000
O O12 0.828142 0.509555 0.446123
O O13 0.465770 0.765556 0.174196
O O14 0.258233 0.807920 0.313660
#
# Coordination Sequence:
#
# PCOD9286242 Si02
#       7
#     4   8   8   8   8   8   8
#     4  12  26  40  68 100 140 168 232 280 348 390
#     4  11  25  45  71  97 137 179 230 279 340 408
#     4  10  21  43  64  96 125 174 221 270 336 410
#     4  11  26  43  68  99 135 176 229 277 338 409
#     4  11  23  43  63 101 133 174 220 284 335 409
#     4  10  22  39  71  89 132 172 218 272 345 404
#     4  11  25  45  66  96 139 183 221 283 339 408
#
# _framework density 20.021111999999999
#
# number of rings (size 3 to 8) (size 9 to 14) (size 15 to 20)
#    0.000    1.231    2.308    3.692    6.462    2.462 
#    0.000    1.538    0.000    0.000    0.000    0.000 
#    0.000    0.000    0.000    0.000    0.000    0.000 
#
# Total GULP energy -145160.051766 kJ/mol
# GULP energy per Si atom -5583.078914 kJ/mol
# Density = 1.997554 g / cm^3
# Si number density = 20.021112 Si / 1000 Ang^3
#
#
#
# Elastic Constant Matrix: (Units=GPa)
#
#
# Indices 1 2 3 4 5 6 
#
# 1 129.4885 44.2337 49.9069 0.0000 9.4144 0.0000
# 2 44.2337 99.7493 40.1854 0.0000 8.6971 0.0000
# 3 49.9069 40.1854 80.0155 0.0000 8.7348 0.0000
# 4 0.0000 0.0000 0.0000 28.2101 0.0000 -1.1110
# 5 9.4144 8.6971 8.7348 0.0000 45.9981 0.0000
# 6 0.0000 0.0000 0.0000 -1.1110 0.0000 4.4924
#
#
#
# Elastic Compliance Matrix: (Units=1/GPa)
#
#
# Indices 1 2 3 4 5 6 
#
# 1 0.010689 -0.002537 -0.005317 0.000000 -0.000698 0.000000
# 2 -0.002537 0.013236 -0.004951 0.000000 -0.001043 0.000000
# 3 -0.005317 -0.004951 0.018462 0.000000 -0.001482 0.000000
# 4 0.000000 0.000000 0.000000 0.035797 0.000000 0.008853
# 5 -0.000698 -0.001043 -0.001482 0.000000 0.022362 0.000000
# 6 0.000000 0.000000 0.000000 0.008853 0.000000 0.224790
#
#
# Mechanical properties :
#
#
# Convention : Reuss Voigt Hill
#
# Bulk Modulus (GPa) = 59.60412 64.21170 61.90791
# Shear Modulus (GPa) = 14.02378 27.40192 20.71285
#
# Velocity S-wave (km/s) = 2.64947 3.70354 3.21993
# Velocity P-wave (km/s) = 6.26058 7.10140 6.69421
#
# Compressibility (1/GPa) = 0.01677736
#
# Stress axis : x y z
#
# Youngs Moduli (GPa) = 93.55113 75.55267 54.16624
#
# Poissons Ratio (x) = 0.19171 0.28798
# Poissons Ratio (y) = 0.23738 0.26816
# Poissons Ratio (z) = 0.49737 0.37404
#
# Static dielectric constant tensor:
#      x y z
#    x 1.696280 0.000000 0.002900 
#    y 0.000000 1.699630 0.000000 
#    z 0.002900 0.000000 1.741810 
# 
# From -- ./inp_files/190571.got.cif
#   From: 2010.05.17/outbox.cif.g08.bks.cpg/sg15_96_cif.got.tgz:190571.got - 2010.06.03 18:47:42.
