data_PCOD9286949
_publ_section_title
;
Structure prediction by ZEFSAII (Michael W. Deem and Ramdas Pophale) SiO2 
 PCOD9286949
Probable space group: C 2/C
;
_chemical_formula_sum "Si O2"
_cell_formula_units_Z 56
_cell_length_a 23.136573
_cell_length_b 7.584309
_cell_length_c 12.939662
_cell_angle_alpha 90.000000
_cell_angle_beta 73.437586
_cell_angle_gamma 90.000000
_cell_volume 2176.379020
_symmetry_space_group_name_H-M "C 2/C"
_symmetry_group_IT_number 15
_symmetry_cell_setting 'monoclinic'
loop_
_space_group_symop_operation_xyz
x,y,z
-x,y,1/2-z
-x,-y,-z
x,-y,1/2+z
1/2+x,1/2+y,z
1/2-x,1/2+y,1/2-z
1/2-x,1/2-y,-z
1/2+x,1/2-y,1/2+z
loop_
_atom_site_type_symbol
_atom_site_label
_atom_site_fract_x
_atom_site_fract_y
_atom_site_fract_z
Si Si1 0.535513 0.127560 0.905024
Si Si2 0.944924 0.122142 0.488208
Si Si3 0.394022 0.702337 0.940530
Si Si4 0.210975 0.520337 0.041834
Si Si5 0.886736 0.128719 0.726583
Si Si6 0.641747 0.215147 0.726425
Si Si7 0.250028 0.696662 0.832756
O O1 0.584564 0.094792 0.791249
O O2 0.479159 0.246445 0.894748
O O3 0.574853 0.223595 0.973973
O O4 0.500000 0.000000 0.000000
O O5 0.918921 0.195589 0.607563
O O6 0.892608 0.005328 0.465525
O O7 0.000000 0.000000 0.500000
O O8 0.336297 0.822134 0.955772
O O9 0.420446 0.701676 0.811301
O O10 0.172737 0.355918 0.104233
O O11 0.252277 0.612310 0.108103
O O12 0.245440 0.529128 0.914993
O O13 0.817419 0.189353 0.754718
O O14 0.882070 0.915708 0.744453
O O15 0.696208 0.188356 0.779946
#
# Coordination Sequence:
#
# PCOD9286949 Si02
#       7
#     8   8   8   8   8   8   8
#     4  11  25  43  68  95 135 177 220 282 337 385
#     4  10  21  45  67  93 132 178 224 269 331 410
#     4  10  22  45  68  90 137 173 216 275 331 406
#     4  10  22  41  69  99 131 177 219 274 344 389
#     4  11  23  40  72 103 123 185 226 264 345 404
#     4  12  23  44  65 101 139 169 230 279 327 405
#     4  10  22  42  68  93 139 176 214 278 337 400
#
# _framework density 25.730813000000001
#
# number of rings (size 3 to 8) (size 9 to 14) (size 15 to 20)
#    0.000    1.429    4.286    0.857    4.000    6.286 
#    0.000    1.429    0.000    0.000    0.000    0.000 
#    0.000    0.000    0.000    0.000    0.000    0.000 
#
# Total GULP energy -156108.357223 kJ/mol
# GULP energy per Si atom -5575.298472 kJ/mol
# Density = 2.567225 g / cm^3
# Si number density = 25.730813 Si / 1000 Ang^3
#
#
#
# Elastic Constant Matrix: (Units=GPa)
#
#
# Indices 1 2 3 4 5 6 
#
# 1 43.9149 14.1455 32.0031 0.0000 -20.4579 0.0000
# 2 14.1455 43.1232 -16.3541 0.0000 -0.2645 0.0000
# 3 32.0031 -16.3541 108.4654 0.0000 -13.0357 0.0000
# 4 0.0000 0.0000 0.0000 36.4743 0.0000 -6.1407
# 5 -20.4579 -0.2645 -13.0357 0.0000 42.4419 0.0000
# 6 0.0000 0.0000 0.0000 -6.1407 0.0000 31.1261
#
#
#
# Elastic Compliance Matrix: (Units=1/GPa)
#
#
# Indices 1 2 3 4 5 6 
#
# 1 0.050837 -0.022655 -0.016081 0.000000 0.019424 0.000000
# 2 -0.022655 0.034766 0.011048 0.000000 -0.007310 0.000000
# 3 -0.016081 0.011048 0.015270 0.000000 -0.002992 0.000000
# 4 0.000000 0.000000 0.000000 0.028359 0.000000 0.005595
# 5 0.019424 -0.007310 -0.002992 0.000000 0.031960 0.000000
# 6 0.000000 0.000000 0.000000 0.005595 0.000000 0.033231
#
#
# Mechanical properties :
#
#
# Convention : Reuss Voigt Hill
#
# Bulk Modulus (GPa) = 21.97987 28.34361 25.16174
# Shear Modulus (GPa) = 18.87049 33.05571 25.96310
#
# Velocity S-wave (km/s) = 2.71104 3.58812 3.17997
# Velocity P-wave (km/s) = 4.28491 5.31089 4.82524
#
# Compressibility (1/GPa) = 0.04549617
#
# Stress axis : x y z
#
# Youngs Moduli (GPa) = 19.67089 28.76395 65.48621
#
# Poissons Ratio (x) = 0.65165 1.05308
# Poissons Ratio (y) = 0.44565 -0.72348
# Poissons Ratio (z) = 0.31633 -0.31778
#
# Static dielectric constant tensor:
#      x y z
#    x 2.034350 0.000000 -0.014680 
#    y 0.000000 2.175620 0.000000 
#    z -0.014680 0.000000 2.141170 
# 
# From -- ./inp_files/176152.got.cif
#   From: 2010.05.17/outbox.cif.g08.bks.cpg/sg15_89_cif.got.tgz:176152.got - 2010.06.03 18:47:42.
