data_PCOD9286012
_publ_section_title
;
Structure prediction by ZEFSAII (Michael W. Deem and Ramdas Pophale) SiO2 
 PCOD9286012
Probable space group: C 2/C
;
_chemical_formula_sum "Si O2"
_cell_formula_units_Z 48
_cell_length_a 17.938539
_cell_length_b 7.858690
_cell_length_c 31.314829
_cell_angle_alpha 90.000000
_cell_angle_beta 150.568160
_cell_angle_gamma 90.000000
_cell_volume 2169.260263
_symmetry_space_group_name_H-M "C 2/C"
_symmetry_group_IT_number 15
_symmetry_cell_setting 'monoclinic'
loop_
_space_group_symop_operation_xyz
x,y,z
-x,y,1/2-z
-x,-y,-z
x,-y,1/2+z
1/2+x,1/2+y,z
1/2-x,1/2+y,1/2-z
1/2-x,1/2-y,-z
1/2+x,1/2-y,1/2+z
loop_
_atom_site_type_symbol
_atom_site_label
_atom_site_fract_x
_atom_site_fract_y
_atom_site_fract_z
Si Si1 0.226683 0.768000 0.683556
Si Si2 0.101874 0.436038 0.192398
Si Si3 0.499302 0.838584 0.563157
Si Si4 0.063126 0.037368 0.484395
Si Si5 0.603584 0.191814 0.840137
Si Si6 0.761204 0.495766 0.879032
O O1 0.226671 0.668401 0.728262
O O2 0.316954 0.940441 0.733706
O O3 0.127411 0.577494 0.530465
O O4 0.049061 0.814869 0.588066
O O5 0.018577 0.553841 0.115819
O O6 0.286550 0.350431 0.175634
O O7 0.989400 0.317690 0.162552
O O8 0.460078 0.641758 0.551175
O O9 0.650224 0.867471 0.609372
O O10 0.236802 0.095280 0.573660
O O11 0.000000 0.000000 0.500000
O O12 0.500000 0.119681 0.750000
O O13 0.642979 0.382805 0.845457
#
# Coordination Sequence:
#
# PCOD9286012 Si02
#       6
#     8   8   8   8   8   8
#     4  11  24  44  77 100 139 192 235 287 361 428
#     4  11  26  44  70 107 140 180 243 298 352 416
#     4  10  21  42  72 101 130 186 237 280 349 429
#     4  12  21  42  74  98 138 189 233 283 352 429
#     4  12  27  43  66 103 142 179 237 298 354 411
#     4  10  21  42  69  98 135 186 229 282 357 421
#
# _framework density 22.127358000000001
#
# number of rings (size 3 to 8) (size 9 to 14) (size 15 to 20)
#    0.000    1.000    3.333    4.000    4.667    3.333 
#    3.000    0.000    0.000    0.000    0.000    0.000 
#    0.000    0.000    0.000    0.000    0.000    0.000 
#
# Total GULP energy -134252.897464 kJ/mol
# GULP energy per Si atom -5593.870728 kJ/mol
# Density = 2.207699 g / cm^3
# Si number density = 22.127358 Si / 1000 Ang^3
#
#
#
# Elastic Constant Matrix: (Units=GPa)
#
#
# Indices 1 2 3 4 5 6 
#
# 1 98.2311 34.7301 29.1325 0.0000 -9.4069 0.0001
# 2 34.7301 111.4183 31.9172 0.0004 6.4800 0.0000
# 3 29.1325 31.9172 59.4726 0.0001 -4.6275 0.0000
# 4 0.0000 0.0004 0.0001 35.0061 0.0000 -2.4695
# 5 -9.4069 6.4800 -4.6275 0.0000 16.2265 0.0000
# 6 0.0001 0.0000 0.0000 -2.4695 0.0000 43.9363
#
#
#
# Elastic Compliance Matrix: (Units=1/GPa)
#
#
# Indices 1 2 3 4 5 6 
#
# 1 0.013378 -0.003468 -0.004071 0.000000 0.007979 0.000000
# 2 -0.003468 0.012106 -0.005452 0.000000 -0.008400 0.000000
# 3 -0.004071 -0.005452 0.022213 0.000000 0.006152 0.000000
# 4 0.000000 0.000000 0.000000 0.028680 0.000000 0.001612
# 5 0.007979 -0.008400 0.006152 0.000000 0.071362 0.000000
# 6 0.000000 0.000000 0.000000 0.001612 0.000000 0.022851
#
#
# Mechanical properties :
#
#
# Convention : Reuss Voigt Hill
#
# Bulk Modulus (GPa) = 46.05003 51.18684 48.61844
# Shear Modulus (GPa) = 24.53257 30.58994 27.56125
#
# Velocity S-wave (km/s) = 3.33332 3.72216 3.53310
# Velocity P-wave (km/s) = 5.97254 6.45412 6.21800
#
# Compressibility (1/GPa) = 0.02171551
#
# Stress axis : x y z
#
# Youngs Moduli (GPa) = 74.75182 82.60042 45.01808
#
# Poissons Ratio (x) = 0.28644 0.18327
# Poissons Ratio (y) = 0.25922 0.24544
# Poissons Ratio (z) = 0.30432 0.45034
#
# Static dielectric constant tensor:
#      x y z
#    x 1.786240 0.000000 -0.000310 
#    y 0.000000 1.859700 0.000000 
#    z -0.000310 0.000000 1.871080 
# 
# From -- ./inp_files/315792.got.cif
#   From: 2010.05.17/outbox.cif.g08.bks.cpg/sg15_158_cif.got.tgz:315792.got - 2010.06.03 18:47:42.
