data_PCOD9286663
_publ_section_title
;
Structure prediction by ZEFSAII (Michael W. Deem and Ramdas Pophale) SiO2 
 PCOD9286663
Probable space group: C 2/C
;
_chemical_formula_sum "Si O2"
_cell_formula_units_Z 48
_cell_length_a 14.429715
_cell_length_b 28.422398
_cell_length_c 5.365654
_cell_angle_alpha 90.000000
_cell_angle_beta 105.529651
_cell_angle_gamma 90.000000
_cell_volume 2120.260678
_symmetry_space_group_name_H-M "C 2/C"
_symmetry_group_IT_number 15
_symmetry_cell_setting 'monoclinic'
loop_
_space_group_symop_operation_xyz
x,y,z
-x,y,1/2-z
-x,-y,-z
x,-y,1/2+z
1/2+x,1/2+y,z
1/2-x,1/2+y,1/2-z
1/2-x,1/2-y,-z
1/2+x,1/2-y,1/2+z
loop_
_atom_site_type_symbol
_atom_site_label
_atom_site_fract_x
_atom_site_fract_y
_atom_site_fract_z
Si Si1 0.788188 0.712582 0.233610
Si Si2 0.107501 0.018919 0.573740
Si Si3 0.601270 0.709966 0.458977
Si Si4 0.661781 0.382862 0.230732
Si Si5 0.041044 0.446104 0.531604
Si Si6 0.774844 0.608981 0.304027
O O1 0.693543 0.706938 0.340828
O O2 0.880328 0.739265 0.410114
O O3 0.817754 0.658173 0.222965
O O4 0.750000 0.750000 0.000000
O O5 0.097123 0.074509 0.590030
O O6 0.156382 0.002834 0.353701
O O7 0.000000 0.000000 0.500000
O O8 0.500000 0.705070 0.250000
O O9 0.614416 0.668177 0.669700
O O10 0.692213 0.396327 0.533649
O O11 0.743345 0.383806 0.070451
O O12 0.153408 0.435208 0.635129
O O13 0.000000 0.423486 0.750000
O O14 0.000000 0.500000 0.500000
O O15 0.000000 0.424315 0.250000
#
# Coordination Sequence:
#
# PCOD9286663 Si02
#       6
#     8   8   8   8   8   8
#     4  10  21  44  64  98 142 173 231 286 345 419
#     4  10  22  41  59  89 129 171 208 274 319 387
#     4  10  23  41  69  99 136 183 226 285 346 420
#     4  11  23  43  66  99 131 175 225 268 346 411
#     4  10  22  44  66  94 129 169 224 284 337 406
#     4  11  23  43  71  94 134 179 217 285 343 403
#
# _framework density 22.638725999999998
#
# number of rings (size 3 to 8) (size 9 to 14) (size 15 to 20)
#    0.000    1.667    1.667    2.000    2.333    1.333 
#   24.000    0.000    0.000    0.000    0.000    0.000 
#    0.000    0.000    0.000    0.000    0.000    0.000 
#
# Total GULP energy -133628.017256 kJ/mol
# GULP energy per Si atom -5567.834052 kJ/mol
# Density = 2.258720 g / cm^3
# Si number density = 22.638726 Si / 1000 Ang^3
#
#
#
# Elastic Constant Matrix: (Units=GPa)
#
#
# Indices 1 2 3 4 5 6 
#
# 1 40.2893 17.9850 19.4802 0.0000 10.6090 0.0000
# 2 17.9850 119.5983 4.1067 0.0000 21.0646 0.0000
# 3 19.4802 4.1067 126.0490 0.0000 -7.1248 0.0000
# 4 0.0000 0.0000 0.0000 22.5451 0.0000 10.2812
# 5 10.6090 21.0646 -7.1248 0.0000 41.9370 0.0000
# 6 0.0000 0.0000 0.0000 10.2812 0.0000 19.6635
#
#
#
# Elastic Compliance Matrix: (Units=1/GPa)
#
#
# Indices 1 2 3 4 5 6 
#
# 1 0.030496 -0.003188 -0.005003 0.000000 -0.006964 0.000000
# 2 -0.003188 0.009546 -0.000044 0.000000 -0.003996 0.000000
# 3 -0.005003 -0.000044 0.008866 0.000000 0.002794 0.000000
# 4 0.000000 0.000000 0.000000 0.058243 0.000000 -0.030453
# 5 -0.006964 -0.003996 0.002794 0.000000 0.028089 0.000000
# 6 0.000000 0.000000 0.000000 -0.030453 0.000000 0.066778
#
#
# Mechanical properties :
#
#
# Convention : Reuss Voigt Hill
#
# Bulk Modulus (GPa) = 30.82750 41.00895 35.91822
# Shear Modulus (GPa) = 21.80554 33.12009 27.46282
#
# Velocity S-wave (km/s) = 3.10691 3.82905 3.48672
# Velocity P-wave (km/s) = 5.14949 6.14025 5.66656
#
# Compressibility (1/GPa) = 0.03243857
#
# Stress axis : x y z
#
# Youngs Moduli (GPa) = 32.79124 104.75582 112.79121
#
# Poissons Ratio (x) = 0.33393 0.56426
# Poissons Ratio (y) = 0.10453 0.00499
# Poissons Ratio (z) = 0.16405 0.00463
#
# Static dielectric constant tensor:
#      x y z
#    x 1.875060 0.000000 -0.084310 
#    y 0.000000 1.902660 0.000000 
#    z -0.084310 0.000000 1.987220 
# 
# From -- ./inp_files/9163.got.cif
#   From: 2010.05.17/outbox.cif.g08.bks.cpg/sg15_5_cif.got.tgz:9163.got - 2010.06.03 18:47:42.
