data_PCOD9286841
_publ_section_title
;
Structure prediction by ZEFSAII (Michael W. Deem and Ramdas Pophale) SiO2 
 PCOD9286841
Probable space group: C 2/C
;
_chemical_formula_sum "Si O2"
_cell_formula_units_Z 32
_cell_length_a 10.044528
_cell_length_b 11.170151
_cell_length_c 14.487802
_cell_angle_alpha 90.000000
_cell_angle_beta 64.252477
_cell_angle_gamma 90.000000
_cell_volume 1464.129359
_symmetry_space_group_name_H-M "C 2/C"
_symmetry_group_IT_number 15
_symmetry_cell_setting 'monoclinic'
loop_
_space_group_symop_operation_xyz
x,y,z
-x,y,1/2-z
-x,-y,-z
x,-y,1/2+z
1/2+x,1/2+y,z
1/2-x,1/2+y,1/2-z
1/2-x,1/2-y,-z
1/2+x,1/2-y,1/2+z
loop_
_atom_site_type_symbol
_atom_site_label
_atom_site_fract_x
_atom_site_fract_y
_atom_site_fract_z
Si Si1 0.877003 0.966090 0.853655
Si Si2 0.877368 0.813855 0.021279
Si Si3 0.334428 0.784969 0.269814
Si Si4 0.832289 0.678311 0.555527
O O1 0.829049 0.851543 0.807496
O O2 0.000000 0.027003 0.750000
O O3 0.737617 0.046376 0.923666
O O4 0.939274 0.913219 0.931920
O O5 0.791431 0.857458 0.137629
O O6 0.750000 0.750000 0.000000
O O7 0.997517 0.714004 0.010379
O O8 0.500000 0.827002 0.250000
O O9 0.308887 0.785586 0.169255
O O10 0.750000 0.750000 0.500000
#
# Coordination Sequence:
#
# PCOD9286841 Si02
#       4
#     8   8   8   8
#     4  10  22  44  72  97 142 194 226 281 372 408
#     4  10  21  44  70  92 139 183 231 283 348 421
#     4  10  21  46  68  95 139 192 230 283 357 425
#     4  12  26  39  67 109 134 175 246 294 339 421
#
# _framework density 21.855993000000002
#
# number of rings (size 3 to 8) (size 9 to 14) (size 15 to 20)
#    0.000    1.500    7.500    0.000    3.500    7.000 
#    0.000    0.000    0.000    0.000    0.000    0.000 
#    0.000    0.000    0.000    0.000    0.000    0.000 
#
# Total GULP energy -89164.553186 kJ/mol
# GULP energy per Si atom -5572.784574 kJ/mol
# Density = 2.180625 g / cm^3
# Si number density = 21.855993 Si / 1000 Ang^3
#
#
#
# Elastic Constant Matrix: (Units=GPa)
#
#
# Indices 1 2 3 4 5 6 
#
# 1 108.9278 19.2340 37.3975 0.0000 -9.5042 0.0000
# 2 19.2340 40.8062 6.3780 0.0000 -6.1060 0.0000
# 3 37.3975 6.3780 157.9104 0.0000 0.9608 0.0000
# 4 0.0000 0.0000 0.0000 -15.6057 0.0000 -14.2874
# 5 -9.5042 -6.1060 0.9608 0.0000 51.4323 0.0000
# 6 0.0000 0.0000 0.0000 -14.2874 0.0000 27.9143
#
#
#
# Elastic Compliance Matrix: (Units=1/GPa)
#
#
# Indices 1 2 3 4 5 6 
#
# 1 0.010948 -0.004554 -0.002418 0.000000 0.001528 0.000000
# 2 -0.004554 0.027011 -0.000027 0.000000 0.002366 0.000000
# 3 -0.002418 -0.000027 0.006910 0.000000 -0.000579 0.000000
# 4 0.000000 0.000000 0.000000 -0.043633 0.000000 -0.022333
# 5 0.001528 0.002366 -0.000579 0.000000 0.020017 0.000000
# 6 0.000000 0.000000 0.000000 -0.022333 0.000000 0.024393
#
#
# Mechanical properties :
#
#
# Convention : Reuss Voigt Hill
#
# Bulk Modulus (GPa) = 32.39284 48.18481 40.28883
# Shear Modulus (GPa) = 71.49595 29.05718 50.27657
#
# Velocity S-wave (km/s) = 5.72567 3.65016 4.80141
# Velocity P-wave (km/s) = 7.65273 6.31342 7.01511
#
# Compressibility (1/GPa) = 0.03087102
#
# Stress axis : x y z
#
# Youngs Moduli (GPa) = 91.34113 37.02239 144.71783
#
# Poissons Ratio (x) = 0.16859 0.34995
# Poissons Ratio (y) = 0.41595 0.00389
# Poissons Ratio (z) = 0.22088 0.00100
#
# Static dielectric constant tensor:
#      x y z
#    x 1.830390 0.000000 -0.052090 
#    y 0.000000 1.835650 0.000000 
#    z -0.052090 0.000000 1.906860 
# 
# From -- ./inp_files/131950.got.cif
#   From: 2010.05.17/outbox.cif.g08.bks.cpg/sg15_66_cif.got.tgz:131950.got - 2010.06.03 18:47:42.
