data_PCOD9286346
_publ_section_title
;
Structure prediction by ZEFSAII (Michael W. Deem and Ramdas Pophale) SiO2 
 PCOD9286346
Probable space group: C 2/C
;
_chemical_formula_sum "Si O2"
_cell_formula_units_Z 40
_cell_length_a 18.054133
_cell_length_b 13.518989
_cell_length_c 9.394392
_cell_angle_alpha 90.000000
_cell_angle_beta 133.936529
_cell_angle_gamma 90.000000
_cell_volume 1651.154453
_symmetry_space_group_name_H-M "C 2/C"
_symmetry_group_IT_number 15
_symmetry_cell_setting 'monoclinic'
loop_
_space_group_symop_operation_xyz
x,y,z
-x,y,1/2-z
-x,-y,-z
x,-y,1/2+z
1/2+x,1/2+y,z
1/2-x,1/2+y,1/2-z
1/2-x,1/2-y,-z
1/2+x,1/2-y,1/2+z
loop_
_atom_site_type_symbol
_atom_site_label
_atom_site_fract_x
_atom_site_fract_y
_atom_site_fract_z
Si Si1 0.410131 0.588558 0.223466
Si Si2 0.187140 0.759664 0.127377
Si Si3 0.315677 0.957058 0.999495
Si Si4 0.474507 0.296689 0.379209
Si Si5 0.108430 0.380127 0.112482
O O1 0.500000 0.537723 0.250000
O O2 0.623070 0.682442 0.419246
O O3 0.461399 0.628018 0.436135
O O4 0.304227 0.530721 0.112158
O O5 0.301953 0.797775 0.263826
O O6 0.183211 0.643744 0.091477
O O7 0.384166 0.937462 0.229660
O O8 0.358753 0.296669 0.284159
O O9 0.361072 0.046074 0.971187
O O10 0.500000 0.313169 0.250000
O O11 0.507773 0.183824 0.457836
#
# Coordination Sequence:
#
# PCOD9286346 Si02
#       5
#     8   8   8   8   8
#     4   9  18  41  68  88 119 171 214 245 313 372
#     4  10  21  43  67  84 128 173 204 253 312 374
#     4  11  22  41  67  92 127 165 205 262 309 372
#     4  11  23  38  63  95 125 163 209 258 306 365
#     4  11  24  42  63  97 124 164 213 251 316 369
#
# _framework density 24.225472
#
# number of rings (size 3 to 8) (size 9 to 14) (size 15 to 20)
#    0.000    1.600    4.000    1.200    2.800    3.200 
#    0.000   10.000    0.000    0.000    0.000    0.000 
#    0.000    0.000    0.000    0.000    0.000    0.000 
#
# Total GULP energy -112045.942998 kJ/mol
# GULP energy per Si atom -5602.297150 kJ/mol
# Density = 2.417033 g / cm^3
# Si number density = 24.225472 Si / 1000 Ang^3
#
#
#
# Elastic Constant Matrix: (Units=GPa)
#
#
# Indices 1 2 3 4 5 6 
#
# 1 83.2999 16.9374 30.4141 0.0000 -23.6795 0.0000
# 2 16.9374 85.7021 22.5578 0.0000 -5.6879 0.0000
# 3 30.4141 22.5578 81.6434 0.0000 -42.8952 0.0000
# 4 0.0000 0.0000 0.0000 10.2897 0.0000 -18.9854
# 5 -23.6795 -5.6879 -42.8952 0.0000 39.0910 0.0000
# 6 0.0000 0.0000 0.0000 -18.9854 0.0000 14.6312
#
#
#
# Elastic Compliance Matrix: (Units=1/GPa)
#
#
# Indices 1 2 3 4 5 6 
#
# 1 0.014992 -0.002215 -0.000876 0.000000 0.007798 0.000000
# 2 -0.002215 0.013285 -0.005986 0.000000 -0.005977 0.000000
# 3 -0.000876 -0.005986 0.031861 0.000000 0.033560 0.000000
# 4 0.000000 0.000000 0.000000 -0.069708 0.000000 -0.090453
# 5 0.007798 -0.005977 0.033560 0.000000 0.066261 0.000000
# 6 0.000000 0.000000 0.000000 -0.090453 0.000000 -0.049024
#
#
# Mechanical properties :
#
#
# Convention : Reuss Voigt Hill
#
# Bulk Modulus (GPa) = 23.81820 43.38489 33.60155
# Shear Modulus (GPa) = 125.58388 24.85146 75.21767
#
# Velocity S-wave (km/s) = 7.20778 3.20635 5.57821
# Velocity P-wave (km/s) = 8.89510 5.62630 7.44238
#
# Compressibility (1/GPa) = 0.04198470
#
# Stress axis : x y z
#
# Youngs Moduli (GPa) = 66.70390 75.27356 31.38653
#
# Poissons Ratio (x) = 0.16671 0.02749
# Poissons Ratio (y) = 0.14773 0.18787
# Poissons Ratio (z) = 0.05842 0.45057
#
# Static dielectric constant tensor:
#      x y z
#    x 1.933380 0.000000 0.026020 
#    y 0.000000 1.927370 0.000000 
#    z 0.026020 0.000000 1.926860 
# 
# From -- ./inp_files/54755.got.cif
#   From: 2010.05.17/outbox.cif.g08.bks.cpg/sg15_28_cif.got.tgz:54755.got - 2010.06.03 18:47:42.
