data_PCOD9286011
_publ_section_title
;
Structure prediction by ZEFSAII (Michael W. Deem and Ramdas Pophale) SiO2 
 PCOD9286011
Probable space group: C 2/C
;
_chemical_formula_sum "Si O2"
_cell_formula_units_Z 44
_cell_length_a 5.648337
_cell_length_b 24.481266
_cell_length_c 12.133163
_cell_angle_alpha 90.000000
_cell_angle_beta 90.099512
_cell_angle_gamma 90.000000
_cell_volume 1677.752328
_symmetry_space_group_name_H-M "C 2/C"
_symmetry_group_IT_number 15
_symmetry_cell_setting 'monoclinic'
loop_
_space_group_symop_operation_xyz
x,y,z
-x,y,1/2-z
-x,-y,-z
x,-y,1/2+z
1/2+x,1/2+y,z
1/2-x,1/2+y,1/2-z
1/2-x,1/2-y,-z
1/2+x,1/2-y,1/2+z
loop_
_atom_site_type_symbol
_atom_site_label
_atom_site_fract_x
_atom_site_fract_y
_atom_site_fract_z
Si Si1 0.761861 0.039950 0.561134
Si Si2 0.654692 0.690094 0.530942
Si Si3 0.190486 0.193450 0.159636
Si Si4 0.731779 0.073474 0.955342
Si Si5 0.254310 0.069268 0.198047
Si Si6 0.000000 0.783214 0.250000
O O1 0.514171 0.062304 0.607963
O O2 0.753919 0.057130 0.431801
O O3 0.012431 0.063761 0.603581
O O4 0.748806 0.974487 0.547310
O O5 0.750000 0.750000 0.500000
O O6 0.412075 0.686210 0.462044
O O7 0.784576 0.634224 0.493701
O O8 0.651686 0.683243 0.663247
O O9 0.263136 0.134927 0.204797
O O10 0.376813 0.241521 0.165575
O O11 0.000000 0.213116 0.250000
O O12 0.500000 0.048077 0.250000
O O13 0.000000 0.052223 0.250000
#
# Coordination Sequence:
#
# PCOD9286011 Si02
#       6
#     8   8   8   8   8   4
#     4  10  21  42  69  98 135 179 234 288 356 415
#     4  12  26  45  72 102 144 191 241 297 365 434
#     4  11  23  42  66 102 134 185 240 297 348 418
#     4  10  23  42  69  99 131 185 231 288 355 426
#     4  11  22  36  67 102 134 174 234 297 347 408
#     4  12  26  44  66 102 140 196 236 292 368 434
#
# _framework density 26.225563999999999
#
# number of rings (size 3 to 8) (size 9 to 14) (size 15 to 20)
#    0.000    1.091    4.545    1.636    5.091    1.455 
#    1.636    0.000    4.000    0.000    0.000    0.000 
#    0.000    0.000    0.000    0.000    0.000    0.000 
#
# Total GULP energy -122875.857001 kJ/mol
# GULP energy per Si atom -5585.266227 kJ/mol
# Density = 2.616587 g / cm^3
# Si number density = 26.225564 Si / 1000 Ang^3
#
#
#
# Elastic Constant Matrix: (Units=GPa)
#
#
# Indices 1 2 3 4 5 6 
#
# 1 181.6958 34.0583 34.5975 0.0000 13.4093 0.0000
# 2 34.0583 152.7525 7.7052 0.0000 4.6046 0.0000
# 3 34.5975 7.7052 100.3573 0.0000 -11.5080 0.0000
# 4 0.0000 0.0000 0.0000 18.8361 0.0000 9.1688
# 5 13.4093 4.6046 -11.5080 0.0000 28.5649 0.0000
# 6 0.0000 0.0000 0.0000 9.1688 0.0000 24.8214
#
#
#
# Elastic Compliance Matrix: (Units=1/GPa)
#
#
# Indices 1 2 3 4 5 6 
#
# 1 0.006513 -0.001203 -0.002602 0.000000 -0.003912 0.000000
# 2 -0.001203 0.006842 -0.000181 0.000000 -0.000611 0.000000
# 3 -0.002602 -0.000181 0.011552 0.000000 0.005904 0.000000
# 4 0.000000 0.000000 0.000000 0.064728 0.000000 -0.023910
# 5 -0.003912 -0.000611 0.005904 0.000000 0.039321 0.000000
# 6 0.000000 0.000000 0.000000 -0.023910 0.000000 0.049120
#
#
# Mechanical properties :
#
#
# Convention : Reuss Voigt Hill
#
# Bulk Modulus (GPa) = 59.04178 65.28085 62.16131
# Shear Modulus (GPa) = 26.08330 38.34081 32.21206
#
# Velocity S-wave (km/s) = 3.15711 3.82771 3.50847
# Velocity P-wave (km/s) = 5.98763 6.66943 6.33770
#
# Compressibility (1/GPa) = 0.01693716
#
# Stress axis : x y z
#
# Youngs Moduli (GPa) = 153.53234 146.14949 86.56351
#
# Poissons Ratio (x) = 0.17583 0.22520
# Poissons Ratio (y) = 0.18471 0.01564
# Poissons Ratio (z) = 0.39943 0.02640
#
# Static dielectric constant tensor:
#      x y z
#    x 2.279500 0.000000 -0.062410 
#    y 0.000000 2.052950 0.000000 
#    z -0.062410 0.000000 2.052190 
# 
# From -- ./inp_files/129491.got.cif
#   From: 2010.05.17/outbox.cif.g08.bks.cpg/sg15_65_cif.got.tgz:129491.got - 2010.06.03 18:47:42.
