data_PCOD9286796
_publ_section_title
;
Structure prediction by ZEFSAII (Michael W. Deem and Ramdas Pophale) SiO2 
 PCOD9286796
Probable space group: C 2/C
;
_chemical_formula_sum "Si O2"
_cell_formula_units_Z 48
_cell_length_a 11.740115
_cell_length_b 13.706502
_cell_length_c 14.067001
_cell_angle_alpha 90.000000
_cell_angle_beta 63.844569
_cell_angle_gamma 90.000000
_cell_volume 2031.814661
_symmetry_space_group_name_H-M "C 2/C"
_symmetry_group_IT_number 15
_symmetry_cell_setting 'monoclinic'
loop_
_space_group_symop_operation_xyz
x,y,z
-x,y,1/2-z
-x,-y,-z
x,-y,1/2+z
1/2+x,1/2+y,z
1/2-x,1/2+y,1/2-z
1/2-x,1/2-y,-z
1/2+x,1/2-y,1/2+z
loop_
_atom_site_type_symbol
_atom_site_label
_atom_site_fract_x
_atom_site_fract_y
_atom_site_fract_z
Si Si1 0.321908 0.797292 0.088360
Si Si2 0.121833 0.890828 0.044475
Si Si3 0.069137 0.598849 0.502835
Si Si4 0.267988 0.316698 0.789837
Si Si5 0.141744 0.617930 0.673332
Si Si6 0.868076 0.998789 0.163029
O O1 0.238648 0.885414 0.075574
O O2 0.247445 0.734013 0.194305
O O3 0.372960 0.722678 0.988989
O O4 0.453959 0.834078 0.083035
O O5 0.131407 0.950796 0.942256
O O6 0.990678 0.931765 0.133920
O O7 0.141491 0.648377 0.388929
O O8 0.164508 0.588347 0.555664
O O9 0.000000 0.500000 0.500000
O O10 0.336521 0.233493 0.825839
O O11 0.352419 0.412298 0.741095
O O12 0.242562 0.566979 0.704971
O O13 0.000000 0.585526 0.750000
#
# Coordination Sequence:
#
# PCOD9286796 Si02
#       6
#     8   8   8   8   8   8
#     4  10  21  44  69 106 138 189 240 291 361 425
#     4   9  20  42  74  97 145 183 238 300 347 427
#     4  12  25  45  73 105 145 188 242 293 359 431
#     4  11  25  44  73 105 144 189 240 294 364 428
#     4  12  24  46  72 101 145 185 236 299 354 427
#     4  10  22  44  70 106 138 189 240 290 362 421
#
# _framework density 23.624202
#
# number of rings (size 3 to 8) (size 9 to 14) (size 15 to 20)
#    0.000    1.333    1.667    3.500    0.000    0.000 
#    6.000   17.500    3.667    0.000    0.000    0.000 
#    0.000    0.000    0.000    0.000    0.000    0.000 
#
# Total GULP energy -134151.172383 kJ/mol
# GULP energy per Si atom -5589.632183 kJ/mol
# Density = 2.357043 g / cm^3
# Si number density = 23.624202 Si / 1000 Ang^3
#
#
#
# Elastic Constant Matrix: (Units=GPa)
#
#
# Indices 1 2 3 4 5 6 
#
# 1 94.4531 51.7116 26.4219 0.0000 -7.4863 0.0000
# 2 51.7116 122.4311 42.9411 0.0000 -12.5094 0.0000
# 3 26.4219 42.9411 107.9577 0.0000 -11.0680 0.0000
# 4 0.0000 0.0000 0.0000 33.8212 0.0000 -0.4174
# 5 -7.4863 -12.5094 -11.0680 0.0000 41.0472 0.0000
# 6 0.0000 0.0000 0.0000 -0.4174 0.0000 46.5385
#
#
#
# Elastic Compliance Matrix: (Units=1/GPa)
#
#
# Indices 1 2 3 4 5 6 
#
# 1 0.013926 -0.005403 -0.001201 0.000000 0.000570 0.000000
# 2 -0.005403 0.011739 -0.003169 0.000000 0.001738 0.000000
# 3 -0.001201 -0.003169 0.011000 0.000000 0.001781 0.000000
# 4 0.000000 0.000000 0.000000 0.029571 0.000000 0.000265
# 5 0.000570 0.001738 0.001781 0.000000 0.025476 0.000000
# 6 0.000000 0.000000 0.000000 0.000265 0.000000 0.021490
#
#
# Mechanical properties :
#
#
# Convention : Reuss Voigt Hill
#
# Bulk Modulus (GPa) = 58.41127 62.99901 60.70514
# Shear Modulus (GPa) = 36.11339 37.86586 36.98963
#
# Velocity S-wave (km/s) = 3.91405 4.00789 3.96125
# Velocity P-wave (km/s) = 6.72348 6.93849 6.83183
#
# Compressibility (1/GPa) = 0.01711998
#
# Stress axis : x y z
#
# Youngs Moduli (GPa) = 71.80690 85.18798 90.91024
#
# Poissons Ratio (x) = 0.46024 0.10918
# Poissons Ratio (y) = 0.38795 0.28808
# Poissons Ratio (z) = 0.08624 0.26994
#
# Static dielectric constant tensor:
#      x y z
#    x 1.909560 0.000000 0.050430 
#    y 0.000000 1.874990 0.000000 
#    z 0.050430 0.000000 1.959680 
# 
# From -- ./inp_files/144060.got.cif
#   From: 2010.05.17/outbox.cif.g08.bks.cpg/sg15_73_cif.got.tgz:144060.got - 2010.06.03 18:47:42.
