data_PCOD9286139
_publ_section_title
;
Structure prediction by ZEFSAII (Michael W. Deem and Ramdas Pophale) SiO2 
 PCOD9286139
Probable space group: C 2/C
;
_chemical_formula_sum "Si O2"
_cell_formula_units_Z 40
_cell_length_a 12.018010
_cell_length_b 15.092024
_cell_length_c 11.316972
_cell_angle_alpha 90.000000
_cell_angle_beta 62.393836
_cell_angle_gamma 90.000000
_cell_volume 1818.944133
_symmetry_space_group_name_H-M "C 2/C"
_symmetry_group_IT_number 15
_symmetry_cell_setting 'monoclinic'
loop_
_space_group_symop_operation_xyz
x,y,z
-x,y,1/2-z
-x,-y,-z
x,-y,1/2+z
1/2+x,1/2+y,z
1/2-x,1/2+y,1/2-z
1/2-x,1/2-y,-z
1/2+x,1/2-y,1/2+z
loop_
_atom_site_type_symbol
_atom_site_label
_atom_site_fract_x
_atom_site_fract_y
_atom_site_fract_z
Si Si1 0.999797 0.106570 0.558952
Si Si2 0.424211 0.002722 0.913939
Si Si3 0.213455 0.852941 0.520831
Si Si4 0.500000 0.758288 0.750000
Si Si5 0.000000 0.950177 0.750000
Si Si6 0.235052 0.342282 0.579857
O O1 0.137051 0.118185 0.431628
O O2 0.875087 0.121999 0.546518
O O3 0.010201 0.190917 0.638450
O O4 0.994144 0.017961 0.641017
O O5 0.500000 0.000082 0.750000
O O6 0.327061 0.919897 0.967169
O O7 0.339607 0.090391 0.955159
O O8 0.500000 0.000000 0.000000
O O9 0.250000 0.750000 0.500000
O O10 0.121636 0.888246 0.670421
O O11 0.620644 0.817348 0.721707
O O12 0.250000 0.250000 0.500000
#
# Coordination Sequence:
#
# PCOD9286139 Si02
#       6
#     8   8   8   4   4   8
#     4  10  23  45  71 107 138 193 252 304 375 443
#     4  12  30  50  75 111 155 204 253 315 388 458
#     4  12  30  47  73 109 153 199 248 324 383 449
#     4   9  20  38  75 104 142 186 243 310 363 458
#     4  11  24  48  75 100 146 196 255 312 371 462
#     4  10  21  42  73 111 140 194 251 310 369 456
#
# _framework density 21.990780999999998
#
# number of rings (size 3 to 8) (size 9 to 14) (size 15 to 20)
#    0.000    1.200    3.000    0.600    9.800    1.600 
#    0.000    0.000    0.000    0.000    0.000    0.000 
#    0.000    0.000    0.000    0.000    0.000    0.000 
#
# Total GULP energy -111471.668093 kJ/mol
# GULP energy per Si atom -5573.583405 kJ/mol
# Density = 2.194073 g / cm^3
# Si number density = 21.990781 Si / 1000 Ang^3
#
#
#
# Elastic Constant Matrix: (Units=GPa)
#
#
# Indices 1 2 3 4 5 6 
#
# 1 175.0125 84.9842 65.5666 0.0000 3.2160 0.0000
# 2 84.9842 216.4965 52.5413 0.0000 -14.0227 0.0000
# 3 65.5666 52.5413 105.2978 0.0000 -3.3980 0.0000
# 4 0.0000 0.0000 0.0000 -3.3541 0.0000 -23.1012
# 5 3.2160 -14.0227 -3.3980 0.0000 38.8354 0.0000
# 6 0.0000 0.0000 0.0000 -23.1012 0.0000 47.3218
#
#
#
# Elastic Compliance Matrix: (Units=1/GPa)
#
#
# Indices 1 2 3 4 5 6 
#
# 1 0.008487 -0.002458 -0.004121 0.000000 -0.001951 0.000000
# 2 -0.002458 0.006078 -0.001429 0.000000 0.002273 0.000000
# 3 -0.004121 -0.001429 0.012807 0.000000 0.000946 0.000000
# 4 0.000000 0.000000 0.000000 -0.068346 0.000000 -0.033365
# 5 -0.001951 0.002273 0.000946 0.000000 0.026815 0.000000
# 6 0.000000 0.000000 0.000000 -0.033365 0.000000 0.004844
#
#
# Mechanical properties :
#
#
# Convention : Reuss Voigt Hill
#
# Bulk Modulus (GPa) = 88.06271 100.33234 94.19752
# Shear Modulus (GPa) = 476.80646 36.14160 256.47403
#
# Velocity S-wave (km/s) = 14.74082 4.05839 10.81116
# Velocity P-wave (km/s) = 18.16190 8.22706 14.09857
#
# Compressibility (1/GPa) = 0.01135554
#
# Stress axis : x y z
#
# Youngs Moduli (GPa) = 117.82422 164.53305 78.08403
#
# Poissons Ratio (x) = 0.40438 0.32182
# Poissons Ratio (y) = 0.28958 0.11158
# Poissons Ratio (z) = 0.48560 0.23511
#
# Static dielectric constant tensor:
#      x y z
#    x 1.831450 0.000000 -0.044830 
#    y 0.000000 1.806210 0.000000 
#    z -0.044830 0.000000 1.950280 
# 
# From -- ./inp_files/86011.got.cif
#   From: 2010.05.17/outbox.cif.g08.bks.cpg/sg15_44_cif.got.tgz:86011.got - 2010.06.03 18:47:42.
