data_PCOD9286250
_publ_section_title
;
Structure prediction by ZEFSAII (Michael W. Deem and Ramdas Pophale) SiO2 
 PCOD9286250
Probable space group: C 2/C
;
_chemical_formula_sum "Si O2"
_cell_formula_units_Z 44
_cell_length_a 17.431528
_cell_length_b 5.591966
_cell_length_c 18.554773
_cell_angle_alpha 90.000000
_cell_angle_beta 67.948651
_cell_angle_gamma 90.000000
_cell_volume 1676.347413
_symmetry_space_group_name_H-M "C 2/C"
_symmetry_group_IT_number 15
_symmetry_cell_setting 'monoclinic'
loop_
_space_group_symop_operation_xyz
x,y,z
-x,y,1/2-z
-x,-y,-z
x,-y,1/2+z
1/2+x,1/2+y,z
1/2-x,1/2+y,1/2-z
1/2-x,1/2-y,-z
1/2+x,1/2-y,1/2+z
loop_
_atom_site_type_symbol
_atom_site_label
_atom_site_fract_x
_atom_site_fract_y
_atom_site_fract_z
Si Si1 0.849987 0.745614 0.178784
Si Si2 0.656413 0.995491 0.959175
Si Si3 0.500000 0.885998 0.250000
Si Si4 0.666664 0.385953 0.565405
Si Si5 0.172977 0.421688 0.193658
Si Si6 0.468294 0.254047 0.391660
O O1 0.848120 0.513828 0.125460
O O2 0.848791 0.673719 0.262966
O O3 0.763125 0.869488 0.193976
O O4 0.939325 0.847572 0.126575
O O5 0.751808 0.044469 0.948092
O O6 0.648566 0.723363 0.993253
O O7 0.584672 0.148382 0.022361
O O8 0.477173 0.050480 0.327455
O O9 0.588392 0.772981 0.241848
O O10 0.681859 0.147470 0.607499
O O11 0.587283 0.530866 0.616239
#
# Coordination Sequence:
#
# PCOD9286250 Si02
#       6
#     8   8   4   8   8   8
#     4  10  24  42  65  97 139 168 216 272 338 376
#     4  10  21  43  64  99 133 168 218 272 319 390
#     4  10  22  40  68  90 132 166 224 268 312 394
#     4  10  22  40  71  93 129 173 223 261 323 396
#     4  10  22  43  61  96 129 174 214 271 316 392
#     4  11  22  41  66 100 126 173 216 271 326 385
#
# _framework density 26.247541999999999
#
# number of rings (size 3 to 8) (size 9 to 14) (size 15 to 20)
#    0.000    1.818    1.818    1.091    0.000    8.727 
#    9.818    0.000    0.000    0.000    0.000    0.000 
#    0.000    0.000    0.000    0.000    0.000    0.000 
#
# Total GULP energy -122628.808999 kJ/mol
# GULP energy per Si atom -5574.036773 kJ/mol
# Density = 2.618780 g / cm^3
# Si number density = 26.247542 Si / 1000 Ang^3
#
#
#
# Elastic Constant Matrix: (Units=GPa)
#
#
# Indices 1 2 3 4 5 6 
#
# 1 225.7148 29.7128 51.4636 -0.0009 -64.6645 -0.0016
# 2 29.7128 31.5501 14.3218 -0.0049 -6.3245 -0.0015
# 3 51.4636 14.3218 80.4370 -0.0026 -3.4309 -0.0011
# 4 -0.0009 -0.0049 -0.0026 34.2845 0.0005 -3.4535
# 5 -64.6645 -6.3245 -3.4309 0.0005 51.4008 -0.0008
# 6 -0.0016 -0.0015 -0.0011 -3.4535 -0.0008 20.5449
#
#
#
# Elastic Compliance Matrix: (Units=1/GPa)
#
#
# Indices 1 2 3 4 5 6 
#
# 1 0.009079 -0.004349 -0.004583 -0.000001 0.010581 0.000000
# 2 -0.004349 0.037340 -0.003915 0.000005 -0.001138 0.000003
# 3 -0.004583 -0.003915 0.015840 0.000001 -0.005190 0.000000
# 4 -0.000001 0.000005 0.000001 0.029670 -0.000001 0.004987
# 5 0.010581 -0.001138 -0.005190 -0.000001 0.032280 0.000002
# 6 0.000000 0.000003 0.000000 0.004987 0.000002 0.049512
#
#
# Mechanical properties :
#
#
# Convention : Reuss Voigt Hill
#
# Bulk Modulus (GPa) = 27.34777 58.74424 43.04600
# Shear Modulus (GPa) = 23.62910 37.39295 30.51102
#
# Velocity S-wave (km/s) = 3.00366 3.77852 3.41315
# Velocity P-wave (km/s) = 4.74036 6.43939 5.65406
#
# Compressibility (1/GPa) = 0.03656606
#
# Stress axis : x y z
#
# Youngs Moduli (GPa) = 110.14232 26.78083 63.13113
#
# Poissons Ratio (x) = 0.11647 0.28934
# Poissons Ratio (y) = 0.47900 0.24713
# Poissons Ratio (z) = 0.50481 0.10483
#
# Static dielectric constant tensor:
#      x y z
#    x 2.133860 0.000000 -0.009180 
#    y 0.000000 2.097400 0.000000 
#    z -0.009180 0.000000 2.060600 
# 
# From -- ./inp_files/246408.got.cif
#   From: 2010.05.17/outbox.cif.g08.bks.cpg/sg15_124_cif.got.tgz:246408.got - 2010.06.03 18:47:42.
