data_PCOD9286913
_publ_section_title
;
Structure prediction by ZEFSAII (Michael W. Deem and Ramdas Pophale) SiO2 
 PCOD9286913
Probable space group: C 2/C
;
_chemical_formula_sum "Si O2"
_cell_formula_units_Z 24
_cell_length_a 8.920552
_cell_length_b 11.378089
_cell_length_c 15.552854
_cell_angle_alpha 90.000000
_cell_angle_beta 32.734047
_cell_angle_gamma 90.000000
_cell_volume 853.610740
_symmetry_space_group_name_H-M "C 2/C"
_symmetry_group_IT_number 15
_symmetry_cell_setting 'monoclinic'
loop_
_space_group_symop_operation_xyz
x,y,z
-x,y,1/2-z
-x,-y,-z
x,-y,1/2+z
1/2+x,1/2+y,z
1/2-x,1/2+y,1/2-z
1/2-x,1/2-y,-z
1/2+x,1/2-y,1/2+z
loop_
_atom_site_type_symbol
_atom_site_label
_atom_site_fract_x
_atom_site_fract_y
_atom_site_fract_z
Si Si1 0.500000 0.769322 0.750000
Si Si2 0.000000 0.093925 0.250000
Si Si3 0.229987 0.015994 0.465366
Si Si4 0.062078 0.703881 0.832261
O O1 0.654745 0.855596 0.608176
O O2 0.262452 0.700552 0.815535
O O3 0.184326 0.194861 0.210385
O O4 0.887847 0.015382 0.382744
O O5 0.492343 0.926799 0.336378
O O6 0.000000 0.000000 0.500000
O O7 0.750000 0.750000 0.000000
#
# Coordination Sequence:
#
# PCOD9286913 Si02
#       4
#     4   4   8   8
#     4  12  23  46  91 114 168 220 253 353 410 466
#     4  10  21  44  79 118 162 210 273 331 402 490
#     4  11  23  47  83 119 168 215 270 340 405 483
#     4  10  22  45  77 123 162 207 277 327 403 489
#
# _framework density 28.115860999999999
#
# number of rings (size 3 to 8) (size 9 to 14) (size 15 to 20)
#    0.000    1.333    6.667    1.000    0.000    1.333 
#    0.000    8.333    0.000    2.000    0.000    0.000 
#    0.000    0.000    0.000    0.000    0.000    0.000 
#
# Total GULP energy -67079.602019 kJ/mol
# GULP energy per Si atom -5589.966835 kJ/mol
# Density = 2.805187 g / cm^3
# Si number density = 28.115861 Si / 1000 Ang^3
#
#
#
# Elastic Constant Matrix: (Units=GPa)
#
#
# Indices 1 2 3 4 5 6 
#
# 1 318.8960 104.0440 105.8974 -0.0048 -7.8105 0.0000
# 2 104.0440 153.0667 65.8361 -0.0033 2.2537 -0.0015
# 3 105.8974 65.8361 170.1791 -0.0196 34.3334 0.0106
# 4 -0.0048 -0.0033 -0.0196 13.9414 0.0095 20.1068
# 5 -7.8105 2.2537 34.3334 0.0095 62.8210 -0.0041
# 6 0.0000 -0.0015 0.0106 20.1068 -0.0041 23.8487
#
#
#
# Elastic Compliance Matrix: (Units=1/GPa)
#
#
# Indices 1 2 3 4 5 6 
#
# 1 0.004726 -0.002160 -0.002517 0.000027 0.002041 -0.000021
# 2 -0.002160 0.008960 -0.002251 0.000021 0.000640 -0.000016
# 3 -0.002517 -0.002251 0.009396 -0.000107 -0.005368 0.000085
# 4 0.000027 0.000021 -0.000107 -0.332155 0.000129 0.280039
# 5 0.002041 0.000640 -0.005368 0.000129 0.019083 -0.000103
# 6 -0.000021 -0.000016 0.000085 0.280039 -0.000103 -0.194170
#
#
# Mechanical properties :
#
#
# Convention : Reuss Voigt Hill
#
# Bulk Modulus (GPa) = 108.39298 132.63298 120.51298
# Shear Modulus (GPa) = -10.70146 44.54652 16.92253
#
# Velocity S-wave (km/s) = -1.95307 3.98476 2.45600
# Velocity P-wave (km/s) = 5.79224 8.27328 7.14133
#
# Compressibility (1/GPa) = 0.00922569
#
# Stress axis : x y z
#
# Youngs Moduli (GPa) = 211.57467 111.60301 106.42310
#
# Poissons Ratio (x) = 0.24107 0.26789
# Poissons Ratio (y) = 0.45702 0.23961
# Poissons Ratio (z) = 0.53258 0.25127
#
# Static dielectric constant tensor:
#      x y z
#    x 2.165790 0.000000 0.133030 
#    y 0.000000 2.253070 0.000000 
#    z 0.133030 0.000000 2.399240 
# 
# From -- ./inp_files/132532.got.cif
#   From: 2010.05.17/outbox.cif.g08.bks.cpg/sg15_67_cif.got.tgz:132532.got - 2010.06.03 18:47:42.
