data_PCOD9286793
_publ_section_title
;
Structure prediction by ZEFSAII (Michael W. Deem and Ramdas Pophale) SiO2 
 PCOD9286793
Probable space group: C 2/C
;
_chemical_formula_sum "Si O2"
_cell_formula_units_Z 40
_cell_length_a 21.815597
_cell_length_b 7.219441
_cell_length_c 14.459700
_cell_angle_alpha 90.000000
_cell_angle_beta 56.479163
_cell_angle_gamma 90.000000
_cell_volume 1898.593395
_symmetry_space_group_name_H-M "C 2/C"
_symmetry_group_IT_number 15
_symmetry_cell_setting 'monoclinic'
loop_
_space_group_symop_operation_xyz
x,y,z
-x,y,1/2-z
-x,-y,-z
x,-y,1/2+z
1/2+x,1/2+y,z
1/2-x,1/2+y,1/2-z
1/2-x,1/2-y,-z
1/2+x,1/2-y,1/2+z
loop_
_atom_site_type_symbol
_atom_site_label
_atom_site_fract_x
_atom_site_fract_y
_atom_site_fract_z
Si Si1 0.083837 0.492766 0.189315
Si Si2 0.219446 0.733871 0.629439
Si Si3 0.898623 0.630287 0.528244
Si Si4 0.684591 0.469190 0.821835
Si Si5 0.066710 0.274214 0.878257
O O1 0.135930 0.336188 0.187497
O O2 0.080916 0.665909 0.261071
O O3 0.000000 0.424198 0.250000
O O4 0.112241 0.560861 0.066947
O O5 0.250000 0.750000 0.500000
O O6 0.263610 0.579804 0.651017
O O7 0.220322 0.916223 0.693125
O O8 0.839449 0.775665 0.612709
O O9 0.904034 0.446868 0.585745
O O10 0.979081 0.728684 0.465921
O O11 0.887362 0.094435 0.634656
#
# Coordination Sequence:
#
# PCOD9286793 Si02
#       5
#     8   8   8   8   8
#     4  10  22  44  69  97 133 177 223 286 345 406
#     4  12  28  45  68 103 140 184 232 288 341 419
#     4  10  22  42  73  99 135 178 220 290 345 409
#     4  12  26  45  69  99 138 185 233 281 352 411
#     4  10  21  44  69 103 135 170 232 278 345 412
#
# _framework density 21.068228999999999
#
# number of rings (size 3 to 8) (size 9 to 14) (size 15 to 20)
#    0.000    1.200    2.000    3.000    5.600    0.800 
#    3.600    0.000    0.000    0.000    0.000    0.000 
#    0.000    0.000    0.000    0.000    0.000    0.000 
#
# Total GULP energy -111891.929454 kJ/mol
# GULP energy per Si atom -5594.596473 kJ/mol
# Density = 2.102028 g / cm^3
# Si number density = 21.068229 Si / 1000 Ang^3
#
#
#
# Elastic Constant Matrix: (Units=GPa)
#
#
# Indices 1 2 3 4 5 6 
#
# 1 99.2936 43.5634 29.5276 0.0000 18.4953 0.0000
# 2 43.5634 79.8580 38.6742 0.0001 8.8851 0.0000
# 3 29.5276 38.6742 108.4140 0.0000 33.3975 0.0000
# 4 0.0000 0.0001 0.0000 30.7285 0.0000 -8.4537
# 5 18.4953 8.8851 33.3975 0.0000 34.0421 0.0000
# 6 0.0000 0.0000 0.0000 -8.4537 0.0000 45.7338
#
#
#
# Elastic Compliance Matrix: (Units=1/GPa)
#
#
# Indices 1 2 3 4 5 6 
#
# 1 0.014349 -0.007478 0.000802 0.000000 -0.006631 0.000000
# 2 -0.007478 0.019124 -0.006448 0.000000 0.005397 0.000000
# 3 0.000802 -0.006448 0.015652 0.000000 -0.014108 0.000000
# 4 0.000000 0.000000 0.000000 0.034287 0.000000 0.006338
# 5 -0.006631 0.005397 -0.014108 0.000000 0.045410 0.000000
# 6 0.000000 0.000000 0.000000 0.006338 0.000000 0.023037
#
#
# Mechanical properties :
#
#
# Convention : Reuss Voigt Hill
#
# Bulk Modulus (GPa) = 43.71256 56.78845 50.25051
# Shear Modulus (GPa) = 26.92067 33.82093 30.37080
#
# Velocity S-wave (km/s) = 3.57849 4.01097 3.80089
# Velocity P-wave (km/s) = 6.15364 6.96158 6.57004
#
# Compressibility (1/GPa) = 0.02287672
#
# Stress axis : x y z
#
# Youngs Moduli (GPa) = 69.69330 52.29106 63.89120
#
# Poissons Ratio (x) = 0.39104 -0.05127
# Poissons Ratio (y) = 0.52118 0.41196
# Poissons Ratio (z) = -0.05592 0.33717
#
# Static dielectric constant tensor:
#      x y z
#    x 1.759670 0.000000 -0.010600 
#    y 0.000000 1.715670 0.000000 
#    z -0.010600 0.000000 1.791420 
# 
# From -- ./inp_files/165870.got.cif
#   From: 2010.05.17/outbox.cif.g08.bks.cpg/sg15_83_cif.got.tgz:165870.got - 2010.06.03 18:47:42.
