data_PCOD9286323
_publ_section_title
;
Structure prediction by ZEFSAII (Michael W. Deem and Ramdas Pophale) SiO2 
 PCOD9286323
Probable space group: C 2/C
;
_chemical_formula_sum "Si O2"
_cell_formula_units_Z 56
_cell_length_a 22.866683
_cell_length_b 4.849259
_cell_length_c 18.869552
_cell_angle_alpha 90.000000
_cell_angle_beta 87.068506
_cell_angle_gamma 90.000000
_cell_volume 2089.639888
_symmetry_space_group_name_H-M "C 2/C"
_symmetry_group_IT_number 15
_symmetry_cell_setting 'monoclinic'
loop_
_space_group_symop_operation_xyz
x,y,z
-x,y,1/2-z
-x,-y,-z
x,-y,1/2+z
1/2+x,1/2+y,z
1/2-x,1/2+y,1/2-z
1/2-x,1/2-y,-z
1/2+x,1/2-y,1/2+z
loop_
_atom_site_type_symbol
_atom_site_label
_atom_site_fract_x
_atom_site_fract_y
_atom_site_fract_z
Si Si1 0.618184 0.519650 0.992293
Si Si2 0.716164 0.248444 0.648478
Si Si3 0.330000 0.960574 0.705978
Si Si4 0.561432 0.134843 0.373329
Si Si5 0.887293 0.901973 0.311879
Si Si6 0.500000 0.543510 0.750000
Si Si7 0.565459 0.986003 0.572361
Si Si8 0.250000 0.250000 0.000000
O O1 0.593570 0.639181 0.919780
O O2 0.686997 0.585538 0.991693
O O3 0.596757 0.211381 0.011628
O O4 0.583332 0.707458 0.051489
O O5 0.777996 0.402154 0.655071
O O6 0.665112 0.466297 0.642764
O O7 0.722626 0.095597 0.573870
O O8 0.699212 0.105962 0.723802
O O9 0.387295 0.065178 0.660326
O O10 0.355379 0.685347 0.741000
O O11 0.530583 0.270872 0.307172
O O12 0.504843 0.025402 0.418713
O O13 0.943945 0.090680 0.290974
O O14 0.909270 0.640012 0.355554
#
# Coordination Sequence:
#
# PCOD9286323 Si02
#       8
#     8   8   8   8   8   4   8   4
#     4  12  25  47  73 108 150 195 244 301 374 449
#     4  12  23  44  66 101 145 192 247 311 374 452
#     4  11  23  43  68 102 141 188 253 305 376 441
#     4  10  22  46  71 103 142 187 249 304 372 442
#     4  10  21  43  66  96 138 182 237 298 365 434
#     4   8  20  42  66  94 132 176 238 294 360 424
#     4  11  25  47  74 106 149 191 242 307 373 449
#     4  12  26  46  68 110 152 200 250 308 378 460
#
# _framework density 26.798877999999998
#
# number of rings (size 3 to 8) (size 9 to 14) (size 15 to 20)
#    0.000    1.143    4.286    1.714    0.000    0.571 
#   18.000    0.714    0.000    0.000    0.000    0.000 
#    0.000    0.000    0.000    0.000    0.000    0.000 
#
# Total GULP energy -156096.636552 kJ/mol
# GULP energy per Si atom -5574.879877 kJ/mol
# Density = 2.673788 g / cm^3
# Si number density = 26.798878 Si / 1000 Ang^3
#
#
#
# Elastic Constant Matrix: (Units=GPa)
#
#
# Indices 1 2 3 4 5 6 
#
# 1 223.7031 26.2247 39.9026 0.0000 -30.5038 0.0000
# 2 26.2247 46.7889 9.7577 0.0000 -3.8739 0.0000
# 3 39.9026 9.7577 118.6464 0.0000 -18.4693 0.0000
# 4 0.0000 0.0000 0.0000 38.7381 0.0000 4.5961
# 5 -30.5038 -3.8739 -18.4693 0.0000 66.1645 0.0000
# 6 0.0000 0.0000 0.0000 4.5961 0.0000 15.0999
#
#
#
# Elastic Compliance Matrix: (Units=1/GPa)
#
#
# Indices 1 2 3 4 5 6 
#
# 1 0.005253 -0.002522 -0.001260 0.000000 0.001922 0.000000
# 2 -0.002522 0.022998 -0.001061 0.000000 -0.000112 0.000000
# 3 -0.001260 -0.001061 0.009241 0.000000 0.001937 0.000000
# 4 0.000000 0.000000 0.000000 0.026782 0.000000 -0.008152
# 5 0.001922 -0.000112 0.001937 0.000000 0.016534 0.000000
# 6 0.000000 0.000000 0.000000 -0.008152 0.000000 0.068707
#
#
# Mechanical properties :
#
#
# Convention : Reuss Voigt Hill
#
# Bulk Modulus (GPa) = 35.96319 60.10094 48.03207
# Shear Modulus (GPa) = 29.67915 44.88405 37.28160
#
# Velocity S-wave (km/s) = 3.33149 4.09693 3.73388
# Velocity P-wave (km/s) = 5.31481 6.69740 6.04576
#
# Compressibility (1/GPa) = 0.02780621
#
# Stress axis : x y z
#
# Youngs Moduli (GPa) = 190.37666 43.48171 108.21548
#
# Poissons Ratio (x) = 0.10967 0.13634
# Poissons Ratio (y) = 0.48017 0.11478
# Poissons Ratio (z) = 0.23986 0.04612
#
# Static dielectric constant tensor:
#      x y z
#    x 2.069290 0.000000 -0.082750 
#    y 0.000000 2.142710 0.000000 
#    z -0.082750 0.000000 2.464380 
# 
# From -- ./inp_files/254035.got.cif
#   From: 2010.05.17/outbox.cif.g08.bks.cpg/sg15_128_cif.got.tgz:254035.got - 2010.06.03 18:47:42.
