data_PCOD9286982
_publ_section_title
;
Structure prediction by ZEFSAII (Michael W. Deem and Ramdas Pophale) SiO2 
 PCOD9286982
Probable space group: C 2/C
;
_chemical_formula_sum "Si O2"
_cell_formula_units_Z 32
_cell_length_a 15.474538
_cell_length_b 8.064676
_cell_length_c 11.847599
_cell_angle_alpha 90.000000
_cell_angle_beta 94.060550
_cell_angle_gamma 90.000000
_cell_volume 1474.834930
_symmetry_space_group_name_H-M "C 2/C"
_symmetry_group_IT_number 15
_symmetry_cell_setting 'monoclinic'
loop_
_space_group_symop_operation_xyz
x,y,z
-x,y,1/2-z
-x,-y,-z
x,-y,1/2+z
1/2+x,1/2+y,z
1/2-x,1/2+y,1/2-z
1/2-x,1/2-y,-z
1/2+x,1/2-y,1/2+z
loop_
_atom_site_type_symbol
_atom_site_label
_atom_site_fract_x
_atom_site_fract_y
_atom_site_fract_z
Si Si1 0.149633 0.192217 0.479365
Si Si2 0.158154 0.807600 0.447838
Si Si3 0.908624 0.324738 0.785432
Si Si4 0.021721 0.637817 0.594056
O O1 0.250000 0.250000 0.500000
O O2 0.117396 0.227382 0.604521
O O3 0.072935 0.278335 0.396526
O O4 0.153623 0.004615 0.437080
O O5 0.250000 0.750000 0.500000
O O6 0.149055 0.711571 0.328276
O O7 0.085909 0.760551 0.534615
O O8 0.924994 0.520428 0.813716
O O9 0.000000 0.257256 0.750000
O O10 0.000000 0.500000 0.500000
#
# Coordination Sequence:
#
# PCOD9286982 Si02
#       4
#     8   8   8   8
#     4  11  25  46  74 109 145 184 241 304 361 427
#     4  12  25  45  74 109 149 185 246 300 355 437
#     4  11  24  46  74 100 144 193 239 287 377 415
#     4  10  21  45  70 100 144 180 232 296 351 429
#
# _framework density 21.697344000000001
#
# number of rings (size 3 to 8) (size 9 to 14) (size 15 to 20)
#    0.000    1.000    5.000    3.750    0.000    4.000 
#    4.500    0.000    0.000    0.000    0.000    0.000 
#    0.000    0.000    0.000    0.000    0.000    0.000 
#
# Total GULP energy -89129.656649 kJ/mol
# GULP energy per Si atom -5570.603541 kJ/mol
# Density = 2.164796 g / cm^3
# Si number density = 21.697344 Si / 1000 Ang^3
#
#
#
# Elastic Constant Matrix: (Units=GPa)
#
#
# Indices 1 2 3 4 5 6 
#
# 1 125.0763 51.6307 37.2753 0.0000 14.7391 0.0000
# 2 51.6307 156.4339 42.2643 0.0000 25.3312 0.0000
# 3 37.2753 42.2643 136.3366 0.0000 24.2718 0.0000
# 4 0.0000 0.0000 0.0000 37.1159 0.0000 -1.5115
# 5 14.7391 25.3312 24.2718 0.0000 52.4212 0.0000
# 6 0.0000 0.0000 0.0000 -1.5115 0.0000 44.0051
#
#
#
# Elastic Compliance Matrix: (Units=1/GPa)
#
#
# Indices 1 2 3 4 5 6 
#
# 1 0.009665 -0.002621 -0.001713 0.000000 -0.000658 0.000000
# 2 -0.002621 0.008024 -0.001321 0.000000 -0.002529 0.000000
# 3 -0.001713 -0.001321 0.008733 0.000000 -0.002924 0.000000
# 4 0.000000 0.000000 0.000000 0.026980 0.000000 0.000927
# 5 -0.000658 -0.002529 -0.002924 0.000000 0.021837 0.000000
# 6 0.000000 0.000000 0.000000 0.000927 0.000000 0.022756
#
#
# Mechanical properties :
#
#
# Convention : Reuss Voigt Hill
#
# Bulk Modulus (GPa) = 66.16653 75.57639 70.87146
# Shear Modulus (GPa) = 43.72864 45.82020 44.77442
#
# Velocity S-wave (km/s) = 4.49418 4.60041 4.54760
# Velocity P-wave (km/s) = 7.58232 7.94519 7.76588
#
# Compressibility (1/GPa) = 0.01511338
#
# Stress axis : x y z
#
# Youngs Moduli (GPa) = 103.46728 124.63090 114.50795
#
# Poissons Ratio (x) = 0.32660 0.19614
# Poissons Ratio (y) = 0.27114 0.15122
# Poissons Ratio (z) = 0.17723 0.16459
#
# Static dielectric constant tensor:
#      x y z
#    x 1.886070 0.000000 0.103870 
#    y 0.000000 1.881330 0.000000 
#    z 0.103870 0.000000 1.971120 
# 
# From -- ./inp_files/93250.got.cif
#   From: 2010.05.17/outbox.cif.g08.bks.cpg/sg15_47_cif.got.tgz:93250.got - 2010.06.03 18:47:42.
