data_PCOD9286945
_publ_section_title
;
Structure prediction by ZEFSAII (Michael W. Deem and Ramdas Pophale) SiO2 
 PCOD9286945
Probable space group: C 2/C
;
_chemical_formula_sum "Si O2"
_cell_formula_units_Z 44
_cell_length_a 9.255491
_cell_length_b 24.761899
_cell_length_c 11.880648
_cell_angle_alpha 90.000000
_cell_angle_beta 137.917955
_cell_angle_gamma 90.000000
_cell_volume 1824.837178
_symmetry_space_group_name_H-M "C 2/C"
_symmetry_group_IT_number 15
_symmetry_cell_setting 'monoclinic'
loop_
_space_group_symop_operation_xyz
x,y,z
-x,y,1/2-z
-x,-y,-z
x,-y,1/2+z
1/2+x,1/2+y,z
1/2-x,1/2+y,1/2-z
1/2-x,1/2-y,-z
1/2+x,1/2-y,1/2+z
loop_
_atom_site_type_symbol
_atom_site_label
_atom_site_fract_x
_atom_site_fract_y
_atom_site_fract_z
Si Si1 0.396982 0.698398 0.571564
Si Si2 0.859184 0.894525 0.769687
Si Si3 0.263411 0.916161 0.573023
Si Si4 0.081756 0.439609 0.061361
Si Si5 0.500000 0.108406 0.750000
Si Si6 0.149306 0.197489 0.499526
O O1 0.500000 0.683683 0.750000
O O2 0.250000 0.750000 0.500000
O O3 0.254909 0.648496 0.447059
O O4 0.585263 0.709783 0.590809
O O5 0.000000 0.918757 0.750000
O O6 0.887949 0.925663 0.905595
O O7 0.390127 0.900064 0.906929
O O8 0.936647 0.832309 0.827074
O O9 0.500000 0.934807 0.750000
O O10 0.234369 0.935048 0.428094
O O11 0.102829 0.424829 0.205141
O O12 0.000000 0.500000 0.000000
O O13 0.319481 0.148691 0.597495
O O14 0.250000 0.250000 0.500000
#
# Coordination Sequence:
#
# PCOD9286945 Si02
#       6
#     8   8   8   8   4   8
#     4  11  24  40  63  96 134 181 235 283 352 426
#     4  10  21  45  67 100 141 181 236 291 356 425
#     4   9  21  41  67  92 134 178 227 293 347 419
#     4  11  25  45  73 101 139 185 238 301 365 421
#     4  12  26  44  72 104 144 184 248 294 356 444
#     4  11  27  42  71 103 144 190 231 293 363 435
#
# _framework density 24.111740000000001
#
# number of rings (size 3 to 8) (size 9 to 14) (size 15 to 20)
#    0.000    1.455    1.818    1.636   10.182    1.455 
#    0.000    6.364    0.000    0.000    0.000    0.000 
#    0.000    0.000    0.000    0.000    0.000    0.000 
#
# Total GULP energy -122818.252923 kJ/mol
# GULP energy per Si atom -5582.647860 kJ/mol
# Density = 2.405686 g / cm^3
# Si number density = 24.111740 Si / 1000 Ang^3
#
#
#
# Elastic Constant Matrix: (Units=GPa)
#
#
# Indices 1 2 3 4 5 6 
#
# 1 185.9871 34.9001 44.3405 0.0000 -77.4255 0.0000
# 2 34.9001 103.9896 25.6918 0.0000 -17.1387 0.0000
# 3 44.3405 25.6918 94.0438 0.0000 -18.7931 0.0000
# 4 0.0000 0.0000 0.0000 18.6131 0.0000 -6.1925
# 5 -77.4255 -17.1387 -18.7931 0.0000 69.0184 0.0000
# 6 0.0000 0.0000 0.0000 -6.1925 0.0000 24.3373
#
#
#
# Elastic Compliance Matrix: (Units=1/GPa)
#
#
# Indices 1 2 3 4 5 6 
#
# 1 0.010875 -0.001168 -0.002568 0.000000 0.011210 0.000000
# 2 -0.001168 0.010678 -0.002219 0.000000 0.000737 0.000000
# 3 -0.002568 -0.002219 0.012442 0.000000 -0.000044 0.000000
# 4 0.000000 0.000000 0.000000 0.058694 0.000000 0.014935
# 5 0.011210 0.000737 -0.000044 0.000000 0.027236 0.000000
# 6 0.000000 0.000000 0.000000 0.014935 0.000000 0.044889
#
#
# Mechanical properties :
#
#
# Convention : Reuss Voigt Hill
#
# Bulk Modulus (GPa) = 45.28081 65.98726 55.63403
# Shear Modulus (GPa) = 27.16126 40.99961 34.08043
#
# Velocity S-wave (km/s) = 3.35994 4.12806 3.76365
# Velocity P-wave (km/s) = 5.82002 7.08152 6.48153
#
# Compressibility (1/GPa) = 0.02208441
#
# Stress axis : x y z
#
# Youngs Moduli (GPa) = 91.95475 93.65005 80.37539
#
# Poissons Ratio (x) = 0.10935 0.20642
# Poissons Ratio (y) = 0.10737 0.17837
# Poissons Ratio (z) = 0.23616 0.20783
#
# Static dielectric constant tensor:
#      x y z
#    x 1.986670 0.000000 -0.047660 
#    y 0.000000 1.930910 0.000000 
#    z -0.047660 0.000000 2.043890 
# 
# From -- ./inp_files/79973.got.cif
#   From: 2010.05.17/outbox.cif.g08.bks.cpg/sg15_40_cif.got.tgz:79973.got - 2010.06.03 18:47:42.
