data_PCOD9286459
_publ_section_title
;
Structure prediction by ZEFSAII (Michael W. Deem and Ramdas Pophale) SiO2 
 PCOD9286459
Probable space group: C 2/C
;
_chemical_formula_sum "Si O2"
_cell_formula_units_Z 64
_cell_length_a 24.104517
_cell_length_b 11.658308
_cell_length_c 10.567986
_cell_angle_alpha 90.000000
_cell_angle_beta 75.733970
_cell_angle_gamma 90.000000
_cell_volume 2878.210591
_symmetry_space_group_name_H-M "C 2/C"
_symmetry_group_IT_number 15
_symmetry_cell_setting 'monoclinic'
loop_
_space_group_symop_operation_xyz
x,y,z
-x,y,1/2-z
-x,-y,-z
x,-y,1/2+z
1/2+x,1/2+y,z
1/2-x,1/2+y,1/2-z
1/2-x,1/2-y,-z
1/2+x,1/2-y,1/2+z
loop_
_atom_site_type_symbol
_atom_site_label
_atom_site_fract_x
_atom_site_fract_y
_atom_site_fract_z
Si Si1 0.905608 0.235154 0.628825
Si Si2 0.440624 0.854050 0.356895
Si Si3 0.635231 0.054180 0.182194
Si Si4 0.791284 0.369725 0.237158
Si Si5 0.694349 0.398429 0.466959
Si Si6 0.752478 0.114734 0.988559
Si Si7 0.462611 0.503678 0.648380
Si Si8 0.363252 0.672436 0.247148
O O1 0.940224 0.302705 0.498822
O O2 0.884913 0.329375 0.740701
O O3 0.853334 0.167292 0.588844
O O4 0.941627 0.134370 0.673398
O O5 0.500000 0.856603 0.250000
O O6 0.401034 0.766906 0.300487
O O7 0.412442 0.979980 0.363192
O O8 0.662681 0.970012 0.272455
O O9 0.688668 0.076326 0.061686
O O10 0.756224 0.352080 0.387228
O O11 0.743592 0.406538 0.163562
O O12 0.823331 0.252576 0.183337
O O13 0.703864 0.536690 0.456185
O O14 0.676479 0.380364 0.621607
O O15 0.750000 0.250000 0.000000
O O16 0.500000 0.469191 0.750000
O O17 0.500000 0.500000 0.500000
O O18 0.407715 0.420000 0.668798
#
# Coordination Sequence:
#
# PCOD9286459 Si02
#       8
#     8   8   8   8   8   8   8   8
#     4  11  24  43  70  96 138 183 233 295 364 434
#     4  10  21  43  69  93 131 177 234 298 365 420
#     4  10  23  41  63  97 130 172 229 286 347 428
#     4  10  22  40  63  95 134 177 224 282 348 426
#     4  10  23  41  63  98 135 185 227 281 354 432
#     4  11  24  37  61  94 139 172 223 278 341 422
#     4  12  27  47  71 103 142 188 249 306 362 433
#     4  10  22  40  69  94 131 183 232 285 353 427
#
# _framework density 22.236039000000002
#
# number of rings (size 3 to 8) (size 9 to 14) (size 15 to 20)
#    0.000    1.500    0.000    4.500    5.250    6.000 
#    0.000    0.000    0.000    0.000    0.000    0.000 
#    0.000    0.000    0.000    0.000    0.000    0.000 
#
# Total GULP energy -178675.935947 kJ/mol
# GULP energy per Si atom -5583.622998 kJ/mol
# Density = 2.218543 g / cm^3
# Si number density = 22.236039 Si / 1000 Ang^3
#
#
#
# Elastic Constant Matrix: (Units=GPa)
#
#
# Indices 1 2 3 4 5 6 
#
# 1 70.8511 45.9241 25.0362 0.0000 -12.1375 0.0000
# 2 45.9241 151.8813 35.9094 0.0000 -14.3213 0.0000
# 3 25.0362 35.9094 89.5586 0.0000 -21.2714 0.0000
# 4 0.0000 0.0000 0.0000 35.4550 0.0000 -3.5316
# 5 -12.1375 -14.3213 -21.2714 0.0000 32.3985 0.0000
# 6 0.0000 0.0000 0.0000 -3.5316 0.0000 36.3805
#
#
#
# Elastic Compliance Matrix: (Units=1/GPa)
#
#
# Indices 1 2 3 4 5 6 
#
# 1 0.018630 -0.004727 -0.002549 0.000000 0.003216 0.000000
# 2 -0.004727 0.008539 -0.001927 0.000000 0.000738 0.000000
# 3 -0.002549 -0.001927 0.014480 0.000000 0.007700 0.000000
# 4 0.000000 0.000000 0.000000 0.028480 0.000000 0.002765
# 5 0.003216 0.000738 0.007700 0.000000 0.037453 0.000000
# 6 0.000000 0.000000 0.000000 0.002765 0.000000 0.027756
#
#
# Mechanical properties :
#
#
# Convention : Reuss Voigt Hill
#
# Bulk Modulus (GPa) = 43.02370 58.44782 50.73576
# Shear Modulus (GPa) = 30.96180 34.54157 32.75169
#
# Velocity S-wave (km/s) = 3.73556 3.94560 3.84201
# Velocity P-wave (km/s) = 6.16413 6.86289 6.52287
#
# Compressibility (1/GPa) = 0.02324300
#
# Stress axis : x y z
#
# Youngs Moduli (GPa) = 53.67759 117.11511 69.06164
#
# Poissons Ratio (x) = 0.55363 0.17601
# Poissons Ratio (y) = 0.25374 0.13307
# Poissons Ratio (z) = 0.13680 0.22565
#
# Static dielectric constant tensor:
#      x y z
#    x 1.817810 0.000000 0.058640 
#    y 0.000000 1.839500 0.000000 
#    z 0.058640 0.000000 1.859020 
# 
# From -- ./inp_files/117978.got.cif
#   From: 2010.05.17/outbox.cif.g08.bks.cpg/sg15_59_cif.got.tgz:117978.got - 2010.06.03 18:47:42.
