data_PCOD9286105
_publ_section_title
;
Structure prediction by ZEFSAII (Michael W. Deem and Ramdas Pophale) SiO2 
 PCOD9286105
Probable space group: C 2/C
;
_chemical_formula_sum "Si O2"
_cell_formula_units_Z 32
_cell_length_a 13.449898
_cell_length_b 5.140015
_cell_length_c 17.482126
_cell_angle_alpha 90.000000
_cell_angle_beta 72.645613
_cell_angle_gamma 90.000000
_cell_volume 1153.569029
_symmetry_space_group_name_H-M "C 2/C"
_symmetry_group_IT_number 15
_symmetry_cell_setting 'monoclinic'
loop_
_space_group_symop_operation_xyz
x,y,z
-x,y,1/2-z
-x,-y,-z
x,-y,1/2+z
1/2+x,1/2+y,z
1/2-x,1/2+y,1/2-z
1/2-x,1/2-y,-z
1/2+x,1/2-y,1/2+z
loop_
_atom_site_type_symbol
_atom_site_label
_atom_site_fract_x
_atom_site_fract_y
_atom_site_fract_z
Si Si1 0.265209 0.883537 0.337373
Si Si2 0.096484 0.759640 0.548279
Si Si3 0.666934 0.238304 0.953217
Si Si4 0.077955 0.053806 0.297297
O O1 0.310094 0.770480 0.408653
O O2 0.352442 0.769381 0.262064
O O3 0.238665 0.188068 0.363645
O O4 0.153698 0.839914 0.319768
O O5 0.106099 0.520410 0.487494
O O6 0.992717 0.798311 0.623157
O O7 0.104484 0.007670 0.492455
O O8 0.750000 0.250000 0.000000
O O9 0.000000 0.940722 0.250000
#
# Coordination Sequence:
#
# PCOD9286105 Si02
#       4
#     8   8   8   8
#     4  10  22  41  68  98 139 185 225 286 350 406
#     4  10  23  44  70 104 138 178 235 292 347 419
#     4  10  21  42  72 102 137 180 232 290 351 415
#     4  10  24  43  66 104 144 188 239 288 350 426
#
# _framework density 27.739996000000001
#
# number of rings (size 3 to 8) (size 9 to 14) (size 15 to 20)
#    0.000    2.000    0.000    3.000    0.000   14.000 
#    0.000   10.000    0.000    0.000    0.000    0.000 
#    0.000    0.000    0.000    0.000    0.000    0.000 
#
# Total GULP energy -89190.108022 kJ/mol
# GULP energy per Si atom -5574.381751 kJ/mol
# Density = 2.767686 g / cm^3
# Si number density = 27.739996 Si / 1000 Ang^3
#
#
#
# Elastic Constant Matrix: (Units=GPa)
#
#
# Indices 1 2 3 4 5 6 
#
# 1 216.5598 42.2359 50.3041 0.0001 -0.4604 -0.0003
# 2 42.2359 157.9464 59.7770 0.0003 -16.3893 -0.0003
# 3 50.3041 59.7770 192.5359 -0.0001 2.4053 0.0001
# 4 0.0001 0.0003 -0.0001 39.0162 0.0001 12.0185
# 5 -0.4604 -16.3893 2.4053 0.0001 62.7936 -0.0001
# 6 -0.0003 -0.0003 0.0001 12.0185 -0.0001 4.8917
#
#
#
# Elastic Compliance Matrix: (Units=1/GPa)
#
#
# Indices 1 2 3 4 5 6 
#
# 1 0.005044 -0.000986 -0.001010 0.000000 -0.000182 0.000001
# 2 -0.000986 0.007616 -0.002133 -0.000001 0.002062 0.000003
# 3 -0.001010 -0.002133 0.006130 0.000001 -0.000799 -0.000002
# 4 0.000000 -0.000001 0.000001 0.105398 -0.000001 -0.258953
# 5 -0.000182 0.002062 -0.000799 -0.000001 0.016493 0.000002
# 6 0.000001 0.000003 -0.000002 -0.258953 0.000002 0.840649
#
#
# Mechanical properties :
#
#
# Convention : Reuss Voigt Hill
#
# Bulk Modulus (GPa) = 94.93214 96.85290 95.89252
# Shear Modulus (GPa) = 5.03475 48.98863 27.01169
#
# Velocity S-wave (km/s) = 1.34867 4.20693 3.12387
# Velocity P-wave (km/s) = 6.05984 7.65428 6.90325
#
# Compressibility (1/GPa) = 0.01053384
#
# Stress axis : x y z
#
# Youngs Moduli (GPa) = 198.25511 131.30270 163.13800
#
# Poissons Ratio (x) = 0.12940 0.16470
# Poissons Ratio (y) = 0.19539 0.34794
# Poissons Ratio (z) = 0.20016 0.28005
#
# Static dielectric constant tensor:
#      x y z
#    x 0.776340 0.000010 0.959240 
#    y 0.000010 2.518240 -0.000010 
#    z 0.959240 -0.000010 1.714630 
# 
# From -- ./inp_files/241406.got.cif
#   From: 2010.05.17/outbox.cif.g08.bks.cpg/sg15_121_cif.got.tgz:241406.got - 2010.06.03 18:47:42.
