data_PCOD9286842
_publ_section_title
;
Structure prediction by ZEFSAII (Michael W. Deem and Ramdas Pophale) SiO2 
 PCOD9286842
Probable space group: C 2/C
;
_chemical_formula_sum "Si O2"
_cell_formula_units_Z 56
_cell_length_a 20.427658
_cell_length_b 29.130416
_cell_length_c 5.429194
_cell_angle_alpha 90.000000
_cell_angle_beta 57.971298
_cell_angle_gamma 90.000000
_cell_volume 2738.956206
_symmetry_space_group_name_H-M "C 2/C"
_symmetry_group_IT_number 15
_symmetry_cell_setting 'monoclinic'
loop_
_space_group_symop_operation_xyz
x,y,z
-x,y,1/2-z
-x,-y,-z
x,-y,1/2+z
1/2+x,1/2+y,z
1/2-x,1/2+y,1/2-z
1/2-x,1/2-y,-z
1/2+x,1/2-y,1/2+z
loop_
_atom_site_type_symbol
_atom_site_label
_atom_site_fract_x
_atom_site_fract_y
_atom_site_fract_z
Si Si1 0.414393 0.819243 0.932992
Si Si2 0.162756 0.147975 0.337740
Si Si3 0.660630 0.744429 0.139841
Si Si4 0.000000 0.855635 0.250000
Si Si5 0.000000 0.470058 0.750000
Si Si6 0.329075 0.969686 0.059060
Si Si7 0.757039 0.373102 0.149593
Si Si8 0.436133 0.272747 0.078907
O O1 0.500000 0.842269 0.750000
O O2 0.429325 0.772471 0.753903
O O3 0.381010 0.793825 0.245587
O O4 0.341045 0.847820 0.982490
O O5 0.139064 0.202306 0.365644
O O6 0.211401 0.138167 0.487559
O O7 0.080118 0.121340 0.505825
O O8 0.211606 0.139040 0.993022
O O9 0.750000 0.750000 0.000000
O O10 0.643493 0.724367 0.907097
O O11 0.030794 0.821224 0.398803
O O12 0.915771 0.447740 0.904130
O O13 0.000000 0.500000 0.500000
O O14 0.321484 0.001972 0.830882
O O15 0.271906 0.927521 0.139632
O O16 0.500000 0.259570 0.750000
#
# Coordination Sequence:
#
# PCOD9286842 Si02
#       8
#     8   8   8   4   4   8   8   8
#     4  12  24  38  56  89 130 182 224 261 316 374
#     4  12  25  43  61  99 127 168 226 270 326 377
#     4  12  23  37  58  79 124 181 219 271 311 368
#     4  12  24  38  67  86 128 182 222 280 316 381
#     4   8  16  32  63  94 116 154 210 244 288 385
#     4  10  21  44  70  93 127 169 209 259 334 405
#     4  12  28  41  65 100 133 161 218 279 324 387
#     4  12  20  38  57  82 117 178 242 252 314 377
#
# _framework density 20.445744999999999
#
# number of rings (size 3 to 8) (size 9 to 14) (size 15 to 20)
#    0.000    0.571    6.429    2.571    1.000    1.143 
#    0.000    0.000    1.571    0.000    0.000   10.000 
#    0.000    0.000    0.000    0.000    0.000    0.000 
#
# Total GULP energy -155900.675187 kJ/mol
# GULP energy per Si atom -5567.881257 kJ/mol
# Density = 2.039921 g / cm^3
# Si number density = 20.445745 Si / 1000 Ang^3
#
#
#
# Elastic Constant Matrix: (Units=GPa)
#
#
# Indices 1 2 3 4 5 6 
#
# 1 148.5807 15.3223 40.6660 0.0000 3.9948 0.0000
# 2 15.3223 57.4657 15.4509 0.0000 4.0694 0.0000
# 3 40.6660 15.4509 93.1944 0.0000 -2.4013 0.0000
# 4 0.0000 0.0000 0.0000 -14.1636 0.0000 -30.6404
# 5 3.9948 4.0694 -2.4013 0.0000 48.5540 0.0000
# 6 0.0000 0.0000 0.0000 -30.6404 0.0000 -1.0226
#
#
#
# Elastic Compliance Matrix: (Units=1/GPa)
#
#
# Indices 1 2 3 4 5 6 
#
# 1 0.007746 -0.001154 -0.003207 0.000000 -0.000699 0.000000
# 2 -0.001154 0.018523 -0.002608 0.000000 -0.001587 0.000000
# 3 -0.003207 -0.002608 0.012590 0.000000 0.001105 0.000000
# 4 0.000000 0.000000 0.000000 0.001106 0.000000 -0.033148
# 5 -0.000699 -0.001587 0.001105 0.000000 0.020841 0.000000
# 6 0.000000 0.000000 0.000000 -0.033148 0.000000 0.015323
#
#
# Mechanical properties :
#
#
# Convention : Reuss Voigt Hill
#
# Bulk Modulus (GPa) = 40.12563 49.12436 44.62499
# Shear Modulus (GPa) = 50.82659 21.86033 36.34346
#
# Velocity S-wave (km/s) = 4.99131 3.27339 4.22068
# Velocity P-wave (km/s) = 7.27225 6.19400 6.75468
#
# Compressibility (1/GPa) = 0.02492173
#
# Stress axis : x y z
#
# Youngs Moduli (GPa) = 129.10274 53.98699 79.42528
#
# Poissons Ratio (x) = 0.06228 0.25469
# Poissons Ratio (y) = 0.14893 0.20718
# Poissons Ratio (z) = 0.41399 0.14082
#
# Static dielectric constant tensor:
#      x y z
#    x 2.000190 0.000000 0.045060 
#    y 0.000000 1.703050 0.000000 
#    z 0.045060 0.000000 1.987930 
# 
# From -- ./inp_files/14241.got.cif
#   From: 2010.05.17/outbox.cif.g08.bks.cpg/sg15_8_cif.got.tgz:14241.got - 2010.06.03 18:47:42.
