data_PCOD9286345
_publ_section_title
;
Structure prediction by ZEFSAII (Michael W. Deem and Ramdas Pophale) SiO2 
 PCOD9286345
Probable space group: C 2/C
;
_chemical_formula_sum "Si O2"
_cell_formula_units_Z 32
_cell_length_a 9.142743
_cell_length_b 7.154068
_cell_length_c 21.944851
_cell_angle_alpha 90.000000
_cell_angle_beta 69.750024
_cell_angle_gamma 90.000000
_cell_volume 1346.646781
_symmetry_space_group_name_H-M "C 2/C"
_symmetry_group_IT_number 15
_symmetry_cell_setting 'monoclinic'
loop_
_space_group_symop_operation_xyz
x,y,z
-x,y,1/2-z
-x,-y,-z
x,-y,1/2+z
1/2+x,1/2+y,z
1/2-x,1/2+y,1/2-z
1/2-x,1/2-y,-z
1/2+x,1/2-y,1/2+z
loop_
_atom_site_type_symbol
_atom_site_label
_atom_site_fract_x
_atom_site_fract_y
_atom_site_fract_z
Si Si1 0.353397 0.006695 0.810438
Si Si2 0.425540 0.292430 0.501510
Si Si3 0.332695 0.418073 0.270080
Si Si4 0.048455 0.507025 0.894503
O O1 0.500000 0.077846 0.750000
O O2 0.654540 0.785652 0.701880
O O3 0.207661 0.088459 0.795529
O O4 0.395309 0.034496 0.874338
O O5 0.500000 0.500000 0.500000
O O6 0.250000 0.250000 0.500000
O O7 0.431462 0.186007 0.565259
O O8 0.531675 0.173035 0.439564
O O9 0.500000 0.511911 0.250000
O O10 0.194651 0.511046 0.328136
#
# Coordination Sequence:
#
# PCOD9286345 Si02
#       4
#     8   8   8   8
#     4   9  20  42  62 103 143 188 237 292 378 453
#     4  11  26  53  76 111 147 202 267 323 389 458
#     4  10  21  43  67 108 148 187 239 304 382 466
#     4  10  23  47  76 107 148 196 251 316 384 466
#
# _framework density 23.762727999999999
#
# number of rings (size 3 to 8) (size 9 to 14) (size 15 to 20)
#    0.000    2.000    0.000    1.500    0.000    7.000 
#   58.500    0.000    0.000    0.000    0.000    0.000 
#    0.000    0.000    0.000    0.000    0.000    0.000 
#
# Total GULP energy -89387.753804 kJ/mol
# GULP energy per Si atom -5586.734613 kJ/mol
# Density = 2.370864 g / cm^3
# Si number density = 23.762728 Si / 1000 Ang^3
#
#
#
# Elastic Constant Matrix: (Units=GPa)
#
#
# Indices 1 2 3 4 5 6 
#
# 1 169.5703 57.2490 57.9848 0.0000 23.3397 0.0000
# 2 57.2490 177.2930 53.5347 0.0000 2.2815 0.0000
# 3 57.9848 53.5347 116.5898 0.0000 20.6295 0.0000
# 4 0.0000 0.0000 0.0000 18.9610 0.0000 11.1437
# 5 23.3397 2.2815 20.6295 0.0000 47.2782 0.0000
# 6 0.0000 0.0000 0.0000 11.1437 0.0000 24.6527
#
#
#
# Elastic Compliance Matrix: (Units=1/GPa)
#
#
# Indices 1 2 3 4 5 6 
#
# 1 0.007709 -0.001668 -0.002611 0.000000 -0.002586 0.000000
# 2 -0.001668 0.006960 -0.002658 0.000000 0.001647 0.000000
# 3 -0.002611 -0.002658 0.011753 0.000000 -0.003711 0.000000
# 4 0.000000 0.000000 0.000000 0.071820 0.000000 -0.032465
# 5 -0.002586 0.001647 -0.003711 0.000000 0.023968 0.000000
# 6 0.000000 0.000000 0.000000 -0.032465 0.000000 0.055238
#
#
# Mechanical properties :
#
#
# Convention : Reuss Voigt Hill
#
# Bulk Modulus (GPa) = 79.68674 88.99889 84.34282
# Shear Modulus (GPa) = 25.57494 37.82400 31.69947
#
# Velocity S-wave (km/s) = 3.28420 3.99399 3.65636
# Velocity P-wave (km/s) = 6.92737 7.66836 7.30726
#
# Compressibility (1/GPa) = 0.01254914
#
# Stress axis : x y z
#
# Youngs Moduli (GPa) = 129.71939 143.67203 85.08766
#
# Poissons Ratio (x) = 0.23960 0.22213
# Poissons Ratio (y) = 0.21633 0.22616
# Poissons Ratio (z) = 0.33865 0.38188
#
# Static dielectric constant tensor:
#      x y z
#    x 1.991350 0.000000 -0.032560 
#    y 0.000000 1.925790 0.000000 
#    z -0.032560 0.000000 1.931840 
# 
# From -- ./inp_files/290405.got.cif
#   From: 2010.05.17/outbox.cif.g08.bks.cpg/sg15_146_cif.got.tgz:290405.got - 2010.06.03 18:47:42.
