data_PCOD9286258
_publ_section_title
;
Structure prediction by ZEFSAII (Michael W. Deem and Ramdas Pophale) SiO2 
 PCOD9286258
Probable space group: C 2/C
;
_chemical_formula_sum "Si O2"
_cell_formula_units_Z 36
_cell_length_a 10.352980
_cell_length_b 11.330800
_cell_length_c 14.623270
_cell_angle_alpha 90.000000
_cell_angle_beta 108.851283
_cell_angle_gamma 90.000000
_cell_volume 1623.405537
_symmetry_space_group_name_H-M "C 2/C"
_symmetry_group_IT_number 15
_symmetry_cell_setting 'monoclinic'
loop_
_space_group_symop_operation_xyz
x,y,z
-x,y,1/2-z
-x,-y,-z
x,-y,1/2+z
1/2+x,1/2+y,z
1/2-x,1/2+y,1/2-z
1/2-x,1/2-y,-z
1/2+x,1/2-y,1/2+z
loop_
_atom_site_type_symbol
_atom_site_label
_atom_site_fract_x
_atom_site_fract_y
_atom_site_fract_z
Si Si1 0.000000 0.584022 0.750000
Si Si2 0.637303 0.427700 0.534654
Si Si3 0.653731 0.136591 0.961924
Si Si4 0.997299 0.288655 0.595825
Si Si5 0.317962 0.128124 0.225175
O O1 0.928280 0.650658 0.651259
O O2 0.881969 0.498742 0.766678
O O3 0.500000 0.500000 0.500000
O O4 0.754044 0.518300 0.525375
O O5 0.595150 0.316709 0.463535
O O6 0.670772 0.388305 0.646928
O O7 0.750000 0.250000 0.000000
O O8 0.546759 0.136388 0.020767
O O9 0.139487 0.277671 0.687761
O O10 0.901823 0.341512 0.652207
#
# Coordination Sequence:
#
# PCOD9286258 Si02
#       5
#     4   8   8   8   8
#     4   8  20  38  60  86 126 162 212 262 318 386
#     4  11  22  42  62  95 133 166 217 272 319 399
#     4  11  22  40  63  94 130 174 209 270 331 382
#     4  10  21  43  65  90 127 169 218 265 327 384
#     4   9  22  43  63  93 122 168 221 269 323 391
#
# _framework density 22.175605999999998
#
# number of rings (size 3 to 8) (size 9 to 14) (size 15 to 20)
#    0.000    2.222    2.222    0.667    0.000    9.778 
#    8.000    0.000    0.000    0.000    0.000    0.000 
#    0.000    0.000    0.000    0.000    0.000    0.000 
#
# Total GULP energy -100211.810949 kJ/mol
# GULP energy per Si atom -5567.322831 kJ/mol
# Density = 2.212513 g / cm^3
# Si number density = 22.175606 Si / 1000 Ang^3
#
#
#
# Elastic Constant Matrix: (Units=GPa)
#
#
# Indices 1 2 3 4 5 6 
#
# 1 62.1028 26.7847 49.5613 0.0000 10.7456 0.0000
# 2 26.7847 97.6788 73.5032 0.0000 22.7148 0.0000
# 3 49.5613 73.5032 196.0386 0.0000 45.7364 0.0000
# 4 0.0000 0.0000 0.0000 43.1370 0.0000 21.8500
# 5 10.7456 22.7148 45.7364 0.0000 48.5989 0.0000
# 6 0.0000 0.0000 0.0000 21.8500 0.0000 33.8029
#
#
#
# Elastic Compliance Matrix: (Units=1/GPa)
#
#
# Indices 1 2 3 4 5 6 
#
# 1 0.020595 -0.002473 -0.004468 0.000000 0.000807 0.000000
# 2 -0.002473 0.014726 -0.004380 0.000000 -0.002215 0.000000
# 3 -0.004468 -0.004380 0.009180 0.000000 -0.005605 0.000000
# 4 0.000000 0.000000 0.000000 0.034467 0.000000 -0.022279
# 5 0.000807 -0.002215 -0.005605 0.000000 0.026708 0.000000
# 6 0.000000 0.000000 0.000000 -0.022279 0.000000 0.043984
#
#
# Mechanical properties :
#
#
# Convention : Reuss Voigt Hill
#
# Bulk Modulus (GPa) = 45.74411 72.83540 59.28976
# Shear Modulus (GPa) = 27.84145 38.83914 33.34030
#
# Velocity S-wave (km/s) = 3.54715 4.18956 3.88166
# Velocity P-wave (km/s) = 6.11958 7.50462 6.84721
#
# Compressibility (1/GPa) = 0.02186074
#
# Stress axis : x y z
#
# Youngs Moduli (GPa) = 48.55610 67.90491 108.92994
#
# Poissons Ratio (x) = 0.16793 0.48665
# Poissons Ratio (y) = 0.12008 0.47708
# Poissons Ratio (z) = 0.21693 0.29740
#
# Static dielectric constant tensor:
#      x y z
#    x 1.852080 0.000000 -0.022830 
#    y 0.000000 1.299720 0.000000 
#    z -0.022830 0.000000 1.724030 
# 
# From -- ./inp_files/141975.got.cif
#   From: 2010.05.17/outbox.cif.g08.bks.cpg/sg15_71_cif.got.tgz:141975.got - 2010.06.03 18:47:42.
