data_PCOD9286213
_publ_section_title
;
Structure prediction by ZEFSAII (Michael W. Deem and Ramdas Pophale) SiO2 
 PCOD9286213
Probable space group: C 2/C
;
_chemical_formula_sum "Si O2"
_cell_formula_units_Z 44
_cell_length_a 5.439217
_cell_length_b 26.212096
_cell_length_c 12.941721
_cell_angle_alpha 90.000000
_cell_angle_beta 90.776101
_cell_angle_gamma 90.000000
_cell_volume 1844.974316
_symmetry_space_group_name_H-M "C 2/C"
_symmetry_group_IT_number 15
_symmetry_cell_setting 'monoclinic'
loop_
_space_group_symop_operation_xyz
x,y,z
-x,y,1/2-z
-x,-y,-z
x,-y,1/2+z
1/2+x,1/2+y,z
1/2-x,1/2+y,1/2-z
1/2-x,1/2-y,-z
1/2+x,1/2-y,1/2+z
loop_
_atom_site_type_symbol
_atom_site_label
_atom_site_fract_x
_atom_site_fract_y
_atom_site_fract_z
Si Si1 0.773719 0.604845 0.380694
Si Si2 0.000000 0.483708 0.750000
Si Si3 0.275632 0.392894 0.009536
Si Si4 0.742692 0.078398 0.721558
Si Si5 0.207015 0.213898 0.333184
Si Si6 0.046274 0.214388 0.948457
O O1 0.508195 0.598084 0.435268
O O2 0.764784 0.654918 0.306631
O O3 0.850730 0.553821 0.322243
O O4 0.011662 0.613863 0.454978
O O5 0.800057 0.526240 0.712565
O O6 0.247622 0.433908 0.100227
O O7 0.336716 0.340378 0.070519
O O8 0.500000 0.109864 0.750000
O O9 0.000000 0.101737 0.750000
O O10 0.417005 0.255779 0.354594
O O11 0.000000 0.230904 0.250000
O O12 0.126902 0.205948 0.452655
O O13 0.250000 0.250000 0.000000
#
# Coordination Sequence:
#
# PCOD9286213 Si02
#       6
#     8   4   8   8   8   8
#     4  11  25  40  72 101 137 187 230 293 350 421
#     4  10  28  42  70 102 144 168 244 292 352 420
#     4  11  24  45  70  98 141 188 233 285 358 411
#     4  10  24  47  67  97 140 177 233 296 345 422
#     4  10  23  41  66 100 141 185 233 286 355 412
#     4  10  21  43  63  98 141 179 235 288 336 429
#
# _framework density 23.848571
#
# number of rings (size 3 to 8) (size 9 to 14) (size 15 to 20)
#    0.545    1.091    1.818    1.091    7.636    2.182 
#    3.273    0.000    0.000    0.000    0.000    0.000 
#    0.000    0.000    0.000    0.000    0.000    0.000 
#
# Total GULP energy -122561.783177 kJ/mol
# GULP energy per Si atom -5570.990144 kJ/mol
# Density = 2.379429 g / cm^3
# Si number density = 23.848571 Si / 1000 Ang^3
#
#
#
# Elastic Constant Matrix: (Units=GPa)
#
#
# Indices 1 2 3 4 5 6 
#
# 1 166.5007 13.3258 46.6498 0.0000 10.1717 0.0000
# 2 13.3258 69.5487 12.2213 0.0000 0.5567 0.0000
# 3 46.6498 12.2213 75.5976 0.0000 16.9187 0.0000
# 4 0.0000 0.0000 0.0000 -42.8537 0.0000 58.6213
# 5 10.1717 0.5567 16.9187 0.0000 57.8668 0.0000
# 6 0.0000 0.0000 0.0000 58.6213 0.0000 -57.6183
#
#
#
# Elastic Compliance Matrix: (Units=1/GPa)
#
#
# Indices 1 2 3 4 5 6 
#
# 1 0.007288 -0.000623 -0.004399 0.000000 0.000011 0.000000
# 2 -0.000623 0.014871 -0.002153 0.000000 0.000596 0.000000
# 3 -0.004399 -0.002153 0.017241 0.000000 -0.004247 0.000000
# 4 0.000000 0.000000 0.000000 0.059566 0.000000 0.060603
# 5 0.000011 0.000596 -0.004247 0.000000 0.018515 0.000000
# 6 0.000000 0.000000 0.000000 0.060603 0.000000 0.044302
#
#
# Mechanical properties :
#
#
# Convention : Reuss Voigt Hill
#
# Bulk Modulus (GPa) = 39.92046 50.67120 45.29583
# Shear Modulus (GPa) = 27.10272 7.44231 17.27251
#
# Velocity S-wave (km/s) = 3.37479 1.76845 2.69412
# Velocity P-wave (km/s) = 5.65341 5.04610 5.35836
#
# Compressibility (1/GPa) = 0.02504981
#
# Stress axis : x y z
#
# Youngs Moduli (GPa) = 137.21872 67.24320 58.00203
#
# Poissons Ratio (x) = 0.04192 0.25514
# Poissons Ratio (y) = 0.08555 0.12487
# Poissons Ratio (z) = 0.60359 0.14476
#
# Static dielectric constant tensor:
#      x y z
#    x 1.863320 0.000000 0.266910 
#    y 0.000000 2.071280 0.000000 
#    z 0.266910 0.000000 1.285200 
# 
# From -- ./inp_files/129855.got.cif
#   From: 2010.05.17/outbox.cif.g08.bks.cpg/sg15_65_cif.got.tgz:129855.got - 2010.06.03 18:47:42.
