data_PCOD9286448
_publ_section_title
;
Structure prediction by ZEFSAII (Michael W. Deem and Ramdas Pophale) SiO2 
 PCOD9286448
Probable space group: C 2/C
;
_chemical_formula_sum "Si O2"
_cell_formula_units_Z 48
_cell_length_a 6.657691
_cell_length_b 21.279939
_cell_length_c 18.741456
_cell_angle_alpha 90.000000
_cell_angle_beta 138.245950
_cell_angle_gamma 90.000000
_cell_volume 1768.189432
_symmetry_space_group_name_H-M "C 2/C"
_symmetry_group_IT_number 15
_symmetry_cell_setting 'monoclinic'
loop_
_space_group_symop_operation_xyz
x,y,z
-x,y,1/2-z
-x,-y,-z
x,-y,1/2+z
1/2+x,1/2+y,z
1/2-x,1/2+y,1/2-z
1/2-x,1/2-y,-z
1/2+x,1/2-y,1/2+z
loop_
_atom_site_type_symbol
_atom_site_label
_atom_site_fract_x
_atom_site_fract_y
_atom_site_fract_z
Si Si1 0.543813 0.381789 0.624200
Si Si2 0.435424 0.243735 0.622657
Si Si3 0.290169 0.940438 0.096224
Si Si4 0.000000 0.851081 0.250000
Si Si5 0.704507 0.063849 0.544642
Si Si6 0.557993 0.079197 0.159249
Si Si7 0.000000 0.341286 0.250000
O O1 0.511793 0.315587 0.654443
O O2 0.302418 0.408597 0.503547
O O3 0.828926 0.379135 0.645205
O O4 0.639690 0.426510 0.714626
O O5 0.736540 0.201483 0.697274
O O6 0.280367 0.207365 0.648798
O O7 0.250000 0.250000 0.500000
O O8 0.525872 0.894430 0.195518
O O9 0.001299 0.946258 0.072358
O O10 0.432692 0.008333 0.128599
O O11 0.156210 0.895913 0.352948
O O12 0.483215 0.102597 0.432479
O O13 0.500000 0.000000 0.500000
#
# Coordination Sequence:
#
# PCOD9286448 Si02
#       7
#     8   8   8   4   8   8   4
#     4  10  21  43  69 105 140 184 254 308 369 453
#     4  12  27  49  76 105 149 208 263 318 379 466
#     4  11  23  45  74 108 143 196 250 311 385 466
#     4  12  28  48  71 107 164 204 254 324 388 462
#     4  11  26  43  68 111 152 194 246 314 389 453
#     4  10  23  42  73 104 148 192 245 311 382 464
#     4  12  24  46  79 111 140 202 270 310 386 466
#
# _framework density 27.146414
#
# number of rings (size 3 to 8) (size 9 to 14) (size 15 to 20)
#    0.000    1.000    3.333    4.000    2.333    8.000 
#    0.000    3.333    0.000    0.000    0.000    0.000 
#    0.000    0.000    0.000    0.000    0.000    0.000 
#
# Total GULP energy -133738.097531 kJ/mol
# GULP energy per Si atom -5572.420730 kJ/mol
# Density = 2.708463 g / cm^3
# Si number density = 27.146414 Si / 1000 Ang^3
#
#
#
# Elastic Constant Matrix: (Units=GPa)
#
#
# Indices 1 2 3 4 5 6 
#
# 1 105.7082 54.9674 72.0936 0.0000 -10.6154 0.0000
# 2 54.9674 188.5113 79.8009 0.0000 -7.5803 0.0000
# 3 72.0936 79.8009 289.4408 0.0000 -27.3363 0.0000
# 4 0.0000 0.0000 0.0000 47.9034 0.0000 -17.0750
# 5 -10.6154 -7.5803 -27.3363 0.0000 66.9459 0.0000
# 6 0.0000 0.0000 0.0000 -17.0750 0.0000 33.9267
#
#
#
# Elastic Compliance Matrix: (Units=1/GPa)
#
#
# Indices 1 2 3 4 5 6 
#
# 1 0.012479 -0.002630 -0.002314 0.000000 0.000736 0.000000
# 2 -0.002630 0.006560 -0.001168 0.000000 -0.000151 0.000000
# 3 -0.002314 -0.001168 0.004479 0.000000 0.001330 0.000000
# 4 0.000000 0.000000 0.000000 0.025439 0.000000 0.012803
# 5 0.000736 -0.000151 0.001330 0.000000 0.015580 0.000000
# 6 0.000000 0.000000 0.000000 0.012803 0.000000 0.035919
#
#
# Mechanical properties :
#
#
# Convention : Reuss Voigt Hill
#
# Bulk Modulus (GPa) = 88.53242 110.82046 99.67644
# Shear Modulus (GPa) = 42.93911 54.87510 48.90710
#
# Velocity S-wave (km/s) = 3.98145 4.50093 4.24914
# Velocity P-wave (km/s) = 7.33619 8.24154 7.80201
#
# Compressibility (1/GPa) = 0.01129530
#
# Stress axis : x y z
#
# Youngs Moduli (GPa) = 80.13203 152.44324 223.27301
#
# Poissons Ratio (x) = 0.40089 0.51660
# Poissons Ratio (y) = 0.21073 0.26075
# Poissons Ratio (z) = 0.18541 0.17803
#
# Static dielectric constant tensor:
#      x y z
#    x 4.656770 0.000000 -0.057080 
#    y 0.000000 2.122770 0.000000 
#    z -0.057080 0.000000 2.249480 
# 
# From -- ./inp_files/234008.got.cif
#   From: 2010.05.17/outbox.cif.g08.bks.cpg/sg15_118_cif.got.tgz:234008.got - 2010.06.03 18:47:42.
