data_PCOD9286229
_publ_section_title
;
Structure prediction by ZEFSAII (Michael W. Deem and Ramdas Pophale) SiO2 
 PCOD9286229
Probable space group: C 2/C
;
_chemical_formula_sum "Si O2"
_cell_formula_units_Z 32
_cell_length_a 14.564967
_cell_length_b 6.974673
_cell_length_c 14.751034
_cell_angle_alpha 90.000000
_cell_angle_beta 62.477955
_cell_angle_gamma 90.000000
_cell_volume 1328.916572
_symmetry_space_group_name_H-M "C 2/C"
_symmetry_group_IT_number 15
_symmetry_cell_setting 'monoclinic'
loop_
_space_group_symop_operation_xyz
x,y,z
-x,y,1/2-z
-x,-y,-z
x,-y,1/2+z
1/2+x,1/2+y,z
1/2-x,1/2+y,1/2-z
1/2-x,1/2-y,-z
1/2+x,1/2-y,1/2+z
loop_
_atom_site_type_symbol
_atom_site_label
_atom_site_fract_x
_atom_site_fract_y
_atom_site_fract_z
Si Si1 0.433957 0.180920 0.153425
Si Si2 0.912102 0.373571 0.465182
Si Si3 0.802035 0.410485 0.334372
Si Si4 0.389479 0.395409 0.655745
O O1 0.432303 0.404390 0.175214
O O2 0.542418 0.084113 0.077497
O O3 0.383667 0.066188 0.258197
O O4 0.372683 0.137814 0.085950
O O5 0.835954 0.339049 0.417065
O O6 0.009921 0.227418 0.416953
O O7 0.692830 0.523779 0.380301
O O8 0.823276 0.238193 0.253221
#
# Coordination Sequence:
#
# PCOD9286229 Si02
#       4
#     8   8   8   8
#     4  10  21  43  64  92 131 163 220 265 318 397
#     4  10  24  41  66  94 127 175 211 268 329 380
#     4  11  23  41  65  94 131 169 214 270 322 382
#     4  11  21  41  62  92 130 167 216 265 317 388
#
# _framework density 24.079764999999998
#
# number of rings (size 3 to 8) (size 9 to 14) (size 15 to 20)
#    0.000    1.500    2.500    3.750    0.000    5.000 
#    0.000   11.250    0.000    0.000    0.000    0.000 
#    0.000    0.000    0.000    0.000    0.000    0.000 
#
# Total GULP energy -89338.529964 kJ/mol
# GULP energy per Si atom -5583.658123 kJ/mol
# Density = 2.402496 g / cm^3
# Si number density = 24.079765 Si / 1000 Ang^3
#
#
#
# Elastic Constant Matrix: (Units=GPa)
#
#
# Indices 1 2 3 4 5 6 
#
# 1 118.4064 38.8471 60.1046 0.0000 17.3578 0.0000
# 2 38.8471 143.3491 33.6513 0.0001 -12.7272 0.0000
# 3 60.1046 33.6513 115.2630 0.0000 10.5382 0.0000
# 4 0.0000 0.0001 0.0000 0.6982 0.0000 -14.6439
# 5 17.3578 -12.7272 10.5382 0.0000 47.2287 0.0000
# 6 0.0000 0.0000 0.0000 -14.6439 0.0000 32.7651
#
#
#
# Elastic Compliance Matrix: (Units=1/GPa)
#
#
# Indices 1 2 3 4 5 6 
#
# 1 0.012657 -0.002504 -0.005494 0.000000 -0.004101 0.000000
# 2 -0.002504 0.008300 -0.001435 0.000000 0.003477 0.000000
# 3 -0.005494 -0.001435 0.012056 0.000000 -0.001058 0.000000
# 4 0.000000 0.000000 0.000000 -0.171035 0.000000 -0.076442
# 5 -0.004101 0.003477 -0.001058 0.000000 0.023854 0.000000
# 6 0.000000 0.000000 0.000000 -0.076442 0.000000 -0.003644
#
#
# Mechanical properties :
#
#
# Convention : Reuss Voigt Hill
#
# Bulk Modulus (GPa) = 70.68918 71.35829 71.02374
# Shear Modulus (GPa) = -53.06245 32.43276 -10.31484
#
# Velocity S-wave (km/s) = -4.69936 3.67398 -2.07193
# Velocity P-wave (km/s) = 0.15900 6.90623 4.88215
#
# Compressibility (1/GPa) = 0.01414644
#
# Stress axis : x y z
#
# Youngs Moduli (GPa) = 79.00671 120.47687 82.94304
#
# Poissons Ratio (x) = 0.30172 0.45569
# Poissons Ratio (y) = 0.19786 0.11905
# Poissons Ratio (z) = 0.43407 0.17292
#
# Static dielectric constant tensor:
#      x y z
#    x 2.067540 0.000000 -0.014420 
#    y 0.000000 1.922330 0.000000 
#    z -0.014420 0.000000 1.871850 
# 
# From -- ./inp_files/201984.got.cif
#   From: 2010.05.17/outbox.cif.g08.bks.cpg/sg15_101_cif.got.tgz:201984.got - 2010.06.03 18:47:42.
