data_PCOD9286257
_publ_section_title
;
Structure prediction by ZEFSAII (Michael W. Deem and Ramdas Pophale) SiO2 
 PCOD9286257
Probable space group: C 2/C
;
_chemical_formula_sum "Si O2"
_cell_formula_units_Z 56
_cell_length_a 4.922141
_cell_length_b 15.984321
_cell_length_c 31.586244
_cell_angle_alpha 90.000000
_cell_angle_beta 76.268031
_cell_angle_gamma 90.000000
_cell_volume 2414.081059
_symmetry_space_group_name_H-M "C 2/C"
_symmetry_group_IT_number 15
_symmetry_cell_setting 'monoclinic'
loop_
_space_group_symop_operation_xyz
x,y,z
-x,y,1/2-z
-x,-y,-z
x,-y,1/2+z
1/2+x,1/2+y,z
1/2-x,1/2+y,1/2-z
1/2-x,1/2-y,-z
1/2+x,1/2-y,1/2+z
loop_
_atom_site_type_symbol
_atom_site_label
_atom_site_fract_x
_atom_site_fract_y
_atom_site_fract_z
Si Si1 0.223706 0.883709 0.779241
Si Si2 0.181118 0.427817 0.516424
Si Si3 0.690919 0.308388 0.202696
Si Si4 0.410837 0.427575 0.870431
Si Si5 0.960154 0.058542 0.569338
Si Si6 0.303040 0.331467 0.144607
Si Si7 0.608253 0.165080 0.100850
O O1 0.500000 0.924570 0.750000
O O2 0.320293 0.793944 0.795470
O O3 0.086412 0.936876 0.821496
O O4 0.000000 0.867419 0.750000
O O5 0.341310 0.485566 0.544345
O O6 0.358701 0.389759 0.471066
O O7 0.075948 0.355779 0.551887
O O8 0.000000 0.500000 0.500000
O O9 0.500000 0.333138 0.250000
O O10 0.538197 0.354883 0.169932
O O11 0.021768 0.320728 0.182476
O O12 0.372219 0.507104 0.901628
O O13 0.584649 0.356711 0.891642
O O14 0.103122 0.399562 0.869186
O O15 0.750059 0.110481 0.605938
O O16 0.462765 0.251565 0.118234
#
# Coordination Sequence:
#
# PCOD9286257 Si02
#       7
#     8   8   8   8   8   8   8
#     4  11  20  35  62  90 118 156 212 255 299 364
#     4  10  21  43  65  89 124 175 211 256 323 388
#     4  11  23  40  64  93 130 168 207 253 317 377
#     4  11  21  40  60  92 121 169 204 258 308 381
#     4  10  25  40  66  90 130 167 212 255 328 382
#     4  12  23  41  64 101 125 167 212 265 312 375
#     4  11  21  38  65  91 128 159 215 260 307 372
#
# _framework density 23.197230999999999
#
# number of rings (size 3 to 8) (size 9 to 14) (size 15 to 20)
#    0.000    1.143    4.286    3.000    2.000    0.571 
#    0.000    2.857    0.000    0.000    0.000    0.000 
#    0.000    0.000    0.000    0.000    0.000    0.000 
#
# Total GULP energy -155953.529692 kJ/mol
# GULP energy per Si atom -5569.768918 kJ/mol
# Density = 2.314443 g / cm^3
# Si number density = 23.197231 Si / 1000 Ang^3
#
#
#
# Elastic Constant Matrix: (Units=GPa)
#
#
# Indices 1 2 3 4 5 6 
#
# 1 83.6645 1.1446 28.7279 0.0000 -6.1129 0.0000
# 2 1.1446 26.9863 29.9975 0.0000 0.8451 0.0000
# 3 28.7279 29.9975 147.4014 0.0000 -4.5404 0.0000
# 4 0.0000 0.0000 0.0000 29.0301 0.0000 -9.1729
# 5 -6.1129 0.8451 -4.5404 0.0000 35.6317 0.0000
# 6 0.0000 0.0000 0.0000 -9.1729 0.0000 6.7053
#
#
#
# Elastic Compliance Matrix: (Units=1/GPa)
#
#
# Indices 1 2 3 4 5 6 
#
# 1 0.013098 0.002798 -0.003067 0.000000 0.001790 0.000000
# 2 0.002798 0.048690 -0.010516 0.000000 -0.002015 0.000000
# 3 -0.003067 -0.010516 0.009551 0.000000 0.000940 0.000000
# 4 0.000000 0.000000 0.000000 0.060674 0.000000 0.083002
# 5 0.001790 -0.002015 0.000940 0.000000 0.028540 0.000000
# 6 0.000000 0.000000 0.000000 0.083002 0.000000 0.262681
#
#
# Mechanical properties :
#
#
# Convention : Reuss Voigt Hill
#
# Bulk Modulus (GPa) = 20.09326 41.97692 31.03509
# Shear Modulus (GPa) = 10.83673 27.48556 19.16115
#
# Velocity S-wave (km/s) = 2.16372 3.44592 2.87716
# Velocity P-wave (km/s) = 3.86303 5.82816 4.94421
#
# Compressibility (1/GPa) = 0.04976793
#
# Stress axis : x y z
#
# Youngs Moduli (GPa) = 76.34688 20.53822 104.70087
#
# Poissons Ratio (x) = -0.05746 0.32111
# Poissons Ratio (y) = -0.21359 1.10104
# Poissons Ratio (z) = 0.23415 0.21598
#
# Static dielectric constant tensor:
#      x y z
#    x 1.911550 0.000000 -0.022100 
#    y 0.000000 1.979710 0.000000 
#    z -0.022100 0.000000 1.977770 
# 
# From -- ./inp_files/286017.got.cif
#   From: 2010.05.17/outbox.cif.g08.bks.cpg/sg15_144_cif.got.tgz:286017.got - 2010.06.03 18:47:42.
