data_PCOD9286538
_publ_section_title
;
Structure prediction by ZEFSAII (Michael W. Deem and Ramdas Pophale) SiO2 
 PCOD9286538
Probable space group: C 2/C
;
_chemical_formula_sum "Si O2"
_cell_formula_units_Z 40
_cell_length_a 14.990944
_cell_length_b 16.227459
_cell_length_c 9.519830
_cell_angle_alpha 90.000000
_cell_angle_beta 140.307543
_cell_angle_gamma 90.000000
_cell_volume 1479.049967
_symmetry_space_group_name_H-M "C 2/C"
_symmetry_group_IT_number 15
_symmetry_cell_setting 'monoclinic'
loop_
_space_group_symop_operation_xyz
x,y,z
-x,y,1/2-z
-x,-y,-z
x,-y,1/2+z
1/2+x,1/2+y,z
1/2-x,1/2+y,1/2-z
1/2-x,1/2-y,-z
1/2+x,1/2-y,1/2+z
loop_
_atom_site_type_symbol
_atom_site_label
_atom_site_fract_x
_atom_site_fract_y
_atom_site_fract_z
Si Si1 0.478985 0.874790 0.535110
Si Si2 0.370155 0.696963 0.465913
Si Si3 0.124223 0.094343 0.293980
Si Si4 0.255514 0.916323 0.459194
Si Si5 0.873890 0.691073 0.526326
O O1 0.462018 0.778385 0.560061
O O2 0.327217 0.907364 0.393308
O O3 0.605628 0.915425 0.774592
O O4 0.533681 0.878046 0.442712
O O5 0.415984 0.625597 0.411679
O O6 0.336910 0.655278 0.576093
O O7 0.221548 0.724891 0.215256
O O8 0.177510 0.001688 0.361534
O O9 0.000000 0.097481 0.250000
O O10 0.256453 0.154621 0.486347
O O11 0.000000 0.740184 0.750000
#
# Coordination Sequence:
#
# PCOD9286538 Si02
#       5
#     8   8   8   8   8
#     4  10  21  43  71 108 139 187 236 299 349 431
#     4   9  22  44  69 102 146 184 236 288 363 418
#     4  10  24  46  65 105 144 192 231 298 352 427
#     4  10  22  42  75 100 142 185 242 290 358 422
#     4   9  22  42  69 102 141 185 240 284 357 417
#
# _framework density 27.044387
#
# number of rings (size 3 to 8) (size 9 to 14) (size 15 to 20)
#    1.200    1.200    0.000    0.600    2.800    4.800 
#   18.000    0.000    0.000    0.000    0.000    0.000 
#    0.000    0.000    0.000    0.000    0.000    0.000 
#
# Total GULP energy -111730.226015 kJ/mol
# GULP energy per Si atom -5586.511301 kJ/mol
# Density = 2.698283 g / cm^3
# Si number density = 27.044387 Si / 1000 Ang^3
#
#
#
# Elastic Constant Matrix: (Units=GPa)
#
#
# Indices 1 2 3 4 5 6 
#
# 1 228.7773 64.4138 61.6906 0.0000 48.1912 0.0000
# 2 64.4138 159.0056 53.1290 0.0000 22.0830 0.0000
# 3 61.6906 53.1290 111.0554 0.0000 6.0938 0.0000
# 4 0.0000 0.0000 0.0000 19.4671 0.0000 1.6076
# 5 48.1912 22.0830 6.0938 0.0000 48.1979 0.0000
# 6 0.0000 0.0000 0.0000 1.6076 0.0000 26.5323
#
#
#
# Elastic Compliance Matrix: (Units=1/GPa)
#
#
# Indices 1 2 3 4 5 6 
#
# 1 0.006654 -0.000896 -0.002946 0.000000 -0.005870 0.000000
# 2 -0.000896 0.008063 -0.003228 0.000000 -0.002390 0.000000
# 3 -0.002946 -0.003228 0.012026 0.000000 0.002904 0.000000
# 4 0.000000 0.000000 0.000000 0.051627 0.000000 -0.003128
# 5 -0.005870 -0.002390 0.002904 0.000000 0.027345 0.000000
# 6 0.000000 0.000000 0.000000 -0.003128 0.000000 0.037879
#
#
# Mechanical properties :
#
#
# Convention : Reuss Voigt Hill
#
# Bulk Modulus (GPa) = 79.34733 95.25611 87.30172
# Shear Modulus (GPa) = 30.87653 40.14644 35.51148
#
# Velocity S-wave (km/s) = 3.38257 3.85705 3.62758
# Velocity P-wave (km/s) = 6.68274 7.42526 7.06376
#
# Compressibility (1/GPa) = 0.01260282
#
# Stress axis : x y z
#
# Youngs Moduli (GPa) = 150.28066 124.02777 83.15449
#
# Poissons Ratio (x) = 0.11115 0.24493
# Poissons Ratio (y) = 0.13468 0.26844
# Poissons Ratio (z) = 0.44266 0.40039
#
# Static dielectric constant tensor:
#      x y z
#    x 2.185410 0.000000 -0.061540 
#    y 0.000000 2.074770 0.000000 
#    z -0.061540 0.000000 2.272110 
# 
# From -- ./inp_files/98534.got.cif
#   From: 2010.05.17/outbox.cif.g08.bks.cpg/sg15_50_cif.got.tgz:98534.got - 2010.06.03 18:47:42.
