data_PCOD9286397
_publ_section_title
;
Structure prediction by ZEFSAII (Michael W. Deem and Ramdas Pophale) SiO2 
 PCOD9286397
Probable space group: C 2/C
;
_chemical_formula_sum "Si O2"
_cell_formula_units_Z 48
_cell_length_a 9.270328
_cell_length_b 9.210349
_cell_length_c 25.326014
_cell_angle_alpha 90.000000
_cell_angle_beta 113.284120
_cell_angle_gamma 90.000000
_cell_volume 1986.294575
_symmetry_space_group_name_H-M "C 2/C"
_symmetry_group_IT_number 15
_symmetry_cell_setting 'monoclinic'
loop_
_space_group_symop_operation_xyz
x,y,z
-x,y,1/2-z
-x,-y,-z
x,-y,1/2+z
1/2+x,1/2+y,z
1/2-x,1/2+y,1/2-z
1/2-x,1/2-y,-z
1/2+x,1/2-y,1/2+z
loop_
_atom_site_type_symbol
_atom_site_label
_atom_site_fract_x
_atom_site_fract_y
_atom_site_fract_z
Si Si1 0.831881 0.309589 0.856120
Si Si2 0.302447 0.661893 0.956604
Si Si3 0.188723 0.659480 0.267793
Si Si4 0.041080 0.986562 0.143223
Si Si5 0.125582 0.147836 0.049919
Si Si6 0.230992 0.599756 0.636159
O O1 0.746006 0.234141 0.893969
O O2 0.768620 0.322003 0.787200
O O3 0.962122 0.185440 0.866133
O O4 0.895126 0.470896 0.877987
O O5 0.269974 0.489164 0.953189
O O6 0.250000 0.750000 0.000000
O O7 0.492323 0.675394 0.987689
O O8 0.295753 0.529220 0.305557
O O9 0.245553 0.798012 0.310147
O O10 0.000000 0.641412 0.250000
O O11 0.884614 0.003503 0.154202
O O12 0.040623 0.078741 0.089712
O O13 0.198675 0.295977 0.082003
#
# Coordination Sequence:
#
# PCOD9286397 Si02
#       6
#     8   8   8   8   8   8
#     4  11  23  39  67  98 126 176 222 263 335 398
#     4  10  21  43  67  99 137 176 224 277 327 394
#     4  11  23  44  65  93 135 170 216 278 334 402
#     4  10  22  44  65  94 131 171 219 271 340 396
#     4   9  22  42  67  96 136 175 219 274 329 392
#     4  11  23  43  69  99 133 173 219 275 332 399
#
# _framework density 24.165600000000001
#
# number of rings (size 3 to 8) (size 9 to 14) (size 15 to 20)
#    0.000    1.667    1.667    2.000    0.000    2.000 
#   12.000   11.667    0.000    0.000    0.000    0.000 
#    0.000    0.000    0.000    0.000    0.000    0.000 
#
# Total GULP energy -133825.878572 kJ/mol
# GULP energy per Si atom -5576.078274 kJ/mol
# Density = 2.411060 g / cm^3
# Si number density = 24.165600 Si / 1000 Ang^3
#
#
#
# Elastic Constant Matrix: (Units=GPa)
#
#
# Indices 1 2 3 4 5 6 
#
# 1 48.8727 27.8699 32.9387 0.0000 5.0609 0.0000
# 2 27.8699 160.3920 40.9978 0.0000 23.9916 0.0000
# 3 32.9387 40.9978 122.4719 0.0000 -4.4250 0.0000
# 4 0.0000 0.0000 0.0000 26.5176 0.0000 -2.3455
# 5 5.0609 23.9916 -4.4250 0.0000 33.8832 0.0000
# 6 0.0000 0.0000 0.0000 -2.3455 0.0000 23.4226
#
#
#
# Elastic Compliance Matrix: (Units=1/GPa)
#
#
# Indices 1 2 3 4 5 6 
#
# 1 0.026524 -0.002523 -0.006398 0.000000 -0.003011 0.000000
# 2 -0.002523 0.008088 -0.002233 0.000000 -0.005641 0.000000
# 3 -0.006398 -0.002233 0.010776 0.000000 0.003944 0.000000
# 4 0.000000 0.000000 0.000000 0.038048 0.000000 0.003810
# 5 -0.003011 -0.005641 0.003944 0.000000 0.034472 0.000000
# 6 0.000000 0.000000 0.000000 0.003810 0.000000 0.043075
#
#
# Mechanical properties :
#
#
# Convention : Reuss Voigt Hill
#
# Bulk Modulus (GPa) = 43.32716 59.48327 51.40522
# Shear Modulus (GPa) = 26.18037 32.09336 29.13686
#
# Velocity S-wave (km/s) = 3.29503 3.64821 3.47611
# Velocity P-wave (km/s) = 5.69601 6.51262 6.11795
#
# Compressibility (1/GPa) = 0.02308021
#
# Stress axis : x y z
#
# Youngs Moduli (GPa) = 37.70200 123.64520 92.80189
#
# Poissons Ratio (x) = 0.31198 0.59372
# Poissons Ratio (y) = 0.09513 0.20719
# Poissons Ratio (z) = 0.24121 0.27605
#
# Static dielectric constant tensor:
#      x y z
#    x 2.012850 0.000000 -0.075300 
#    y 0.000000 1.983130 0.000000 
#    z -0.075300 0.000000 1.910360 
# 
# From -- ./inp_files/291307.got.cif
#   From: 2010.05.17/outbox.cif.g08.bks.cpg/sg15_146_cif.got.tgz:291307.got - 2010.06.03 18:47:42.
