data_PCOD9286197
_publ_section_title
;
Structure prediction by ZEFSAII (Michael W. Deem and Ramdas Pophale) SiO2 
 PCOD9286197
Probable space group: C 2/C
;
_chemical_formula_sum "Si O2"
_cell_formula_units_Z 52
_cell_length_a 19.468862
_cell_length_b 15.938778
_cell_length_c 14.158489
_cell_angle_alpha 90.000000
_cell_angle_beta 145.769041
_cell_angle_gamma 90.000000
_cell_volume 2471.487039
_symmetry_space_group_name_H-M "C 2/C"
_symmetry_group_IT_number 15
_symmetry_cell_setting 'monoclinic'
loop_
_space_group_symop_operation_xyz
x,y,z
-x,y,1/2-z
-x,-y,-z
x,-y,1/2+z
1/2+x,1/2+y,z
1/2-x,1/2+y,1/2-z
1/2-x,1/2-y,-z
1/2+x,1/2-y,1/2+z
loop_
_atom_site_type_symbol
_atom_site_label
_atom_site_fract_x
_atom_site_fract_y
_atom_site_fract_z
Si Si1 0.788163 0.808491 0.131227
Si Si2 0.185895 0.975761 0.638943
Si Si3 0.356362 0.867408 0.357599
Si Si4 0.198647 0.242334 0.547344
Si Si5 0.911481 0.984199 0.264395
Si Si6 0.000000 0.875733 0.750000
Si Si7 0.628685 0.165012 0.140524
O O1 0.679483 0.841890 0.075974
O O2 0.856794 0.893562 0.177307
O O3 0.867440 0.751502 0.294691
O O4 0.750000 0.750000 0.000000
O O5 0.259500 0.892237 0.699747
O O6 0.057761 0.976272 0.439827
O O7 0.278336 0.053317 0.733056
O O8 0.144908 0.986679 0.700878
O O9 0.308646 0.793237 0.235907
O O10 0.499724 0.878353 0.510860
O O11 0.250000 0.250000 0.500000
O O12 0.150583 0.320414 0.553761
O O13 0.079799 0.181852 0.409693
O O14 0.899892 0.064539 0.184672
#
# Coordination Sequence:
#
# PCOD9286197 Si02
#       7
#     8   8   8   8   8   4   8
#     4  10  25  41  63  95 128 168 218 267 324 381
#     4  10  21  43  63  90 125 170 213 263 319 386
#     4  10  22  42  60  94 127 168 215 260 321 390
#     4  11  23  39  62  97 130 164 214 261 325 379
#     4  10  23  39  67  91 125 164 222 265 310 390
#     4  12  22  38  66  92 122 168 212 264 314 386
#     4  11  24  39  66  90 133 168 207 270 326 379
#
# _framework density 21.039964000000001
#
# number of rings (size 3 to 8) (size 9 to 14) (size 15 to 20)
#    0.000    1.538    1.538    2.308    8.615    0.615 
#    0.000    0.000    0.000    3.692    0.000    0.000 
#    0.000    0.000    0.000    0.000    0.000    0.000 
#
# Total GULP energy -145090.080469 kJ/mol
# GULP energy per Si atom -5580.387710 kJ/mol
# Density = 2.099208 g / cm^3
# Si number density = 21.039964 Si / 1000 Ang^3
#
#
#
# Elastic Constant Matrix: (Units=GPa)
#
#
# Indices 1 2 3 4 5 6 
#
# 1 90.8883 22.6523 29.0020 0.0000 2.5169 0.0000
# 2 22.6523 62.7950 13.0346 0.0000 7.7194 0.0000
# 3 29.0020 13.0346 65.9895 0.0000 11.6062 0.0000
# 4 0.0000 0.0000 0.0000 38.1021 0.0000 0.5669
# 5 2.5169 7.7194 11.6062 0.0000 37.4038 0.0000
# 6 0.0000 0.0000 0.0000 0.5669 0.0000 28.7657
#
#
#
# Elastic Compliance Matrix: (Units=1/GPa)
#
#
# Indices 1 2 3 4 5 6 
#
# 1 0.013717 -0.004001 -0.005523 0.000000 0.001616 0.000000
# 2 -0.004001 0.018005 -0.001261 0.000000 -0.003056 0.000000
# 3 -0.005523 -0.001261 0.018742 0.000000 -0.005184 0.000000
# 4 0.000000 0.000000 0.000000 0.026253 0.000000 -0.000517
# 5 0.001616 -0.003056 -0.005184 0.000000 0.028866 0.000000
# 6 0.000000 0.000000 0.000000 -0.000517 0.000000 0.034774
#
#
# Mechanical properties :
#
#
# Convention : Reuss Voigt Hill
#
# Bulk Modulus (GPa) = 34.60673 38.78338 36.69505
# Shear Modulus (GPa) = 29.14489 31.18658 30.16573
#
# Velocity S-wave (km/s) = 3.72589 3.85418 3.79058
# Velocity P-wave (km/s) = 5.91553 6.18704 6.05281
#
# Compressibility (1/GPa) = 0.02889612
#
# Stress axis : x y z
#
# Youngs Moduli (GPa) = 72.90193 55.53915 53.35658
#
# Poissons Ratio (x) = 0.22219 0.29467
# Poissons Ratio (y) = 0.29165 0.06728
# Poissons Ratio (z) = 0.40261 0.07003
#
# Static dielectric constant tensor:
#      x y z
#    x 1.787070 0.000000 -0.023290 
#    y 0.000000 1.788020 0.000000 
#    z -0.023290 0.000000 1.724960 
# 
# From -- ./inp_files/162608.got.cif
#   From: 2010.05.17/outbox.cif.g08.bks.cpg/sg15_82_cif.got.tgz:162608.got - 2010.06.03 18:47:42.
