data_PCOD9286790
_publ_section_title
;
Structure prediction by ZEFSAII (Michael W. Deem and Ramdas Pophale) SiO2 
 PCOD9286790
Probable space group: C 2/C
;
_chemical_formula_sum "Si O2"
_cell_formula_units_Z 48
_cell_length_a 11.811181
_cell_length_b 20.301386
_cell_length_c 13.069774
_cell_angle_alpha 90.000000
_cell_angle_beta 38.314150
_cell_angle_gamma 90.000000
_cell_volume 1942.941590
_symmetry_space_group_name_H-M "C 2/C"
_symmetry_group_IT_number 15
_symmetry_cell_setting 'monoclinic'
loop_
_space_group_symop_operation_xyz
x,y,z
-x,y,1/2-z
-x,-y,-z
x,-y,1/2+z
1/2+x,1/2+y,z
1/2-x,1/2+y,1/2-z
1/2-x,1/2-y,-z
1/2+x,1/2-y,1/2+z
loop_
_atom_site_type_symbol
_atom_site_label
_atom_site_fract_x
_atom_site_fract_y
_atom_site_fract_z
Si Si1 0.029866 0.329125 0.063321
Si Si2 0.191207 0.625705 0.072409
Si Si3 0.647927 0.941235 0.397223
Si Si4 0.183317 0.197789 0.325064
Si Si5 0.868919 0.137376 0.438445
Si Si6 0.460173 0.507477 0.910496
O O1 0.165420 0.326150 0.865650
O O2 0.176518 0.328273 0.052151
O O3 0.914512 0.396591 0.153689
O O4 0.886794 0.270099 0.154182
O O5 0.240463 0.687066 0.112902
O O6 0.000000 0.599876 0.250000
O O7 0.162061 0.618175 0.971837
O O8 0.344271 0.572521 0.982957
O O9 0.838980 0.978187 0.274481
O O10 0.500000 0.000000 0.500000
O O11 0.994022 0.157270 0.445744
O O12 0.000000 0.156108 0.250000
O O13 0.860289 0.058369 0.444340
O O14 0.500000 0.500000 0.000000
#
# Coordination Sequence:
#
# PCOD9286790 Si02
#       6
#     8   8   8   8   8   8
#     4  11  25  44  73 101 146 193 246 301 370 453
#     4  12  24  45  68 100 146 187 239 304 366 441
#     4  12  25  46  71 106 145 193 244 303 377 442
#     4  11  24  45  68 104 143 190 247 302 373 438
#     4  10  21  44  69 101 141 189 233 306 364 437
#     4  12  24  42  73 107 144 184 246 305 370 447
#
# _framework density 24.704809000000001
#
# number of rings (size 3 to 8) (size 9 to 14) (size 15 to 20)
#    0.000    0.667    3.333    6.000    2.333    0.667 
#    0.000    1.667    0.000    0.000    0.000    0.000 
#    0.000    0.000    0.000    0.000    0.000    0.000 
#
# Total GULP energy -133907.459285 kJ/mol
# GULP energy per Si atom -5579.477470 kJ/mol
# Density = 2.464858 g / cm^3
# Si number density = 24.704809 Si / 1000 Ang^3
#
#
#
# Elastic Constant Matrix: (Units=GPa)
#
#
# Indices 1 2 3 4 5 6 
#
# 1 127.4145 22.9968 32.3053 0.0004 -15.0031 0.0001
# 2 22.9968 115.6066 23.0941 0.0003 -26.8974 0.0002
# 3 32.3053 23.0941 59.5288 -0.0089 -24.3930 0.0029
# 4 0.0004 0.0003 -0.0089 31.5762 0.0023 -9.5789
# 5 -15.0031 -26.8974 -24.3930 0.0023 47.5694 -0.0005
# 6 0.0001 0.0002 0.0029 -9.5789 -0.0005 35.0530
#
#
#
# Elastic Compliance Matrix: (Units=1/GPa)
#
#
# Indices 1 2 3 4 5 6 
#
# 1 0.009186 -0.000899 -0.004631 -0.000001 0.000014 0.000000
# 2 -0.000899 0.010234 -0.001554 -0.000001 0.004706 0.000000
# 3 -0.004631 -0.001554 0.023999 0.000006 0.009967 0.000000
# 4 -0.000001 -0.000001 0.000006 0.034532 0.000001 0.009437
# 5 0.000014 0.004706 0.009967 0.000001 0.028799 0.000000
# 6 0.000000 0.000000 0.000000 0.009437 0.000000 0.031107
#
#
# Mechanical properties :
#
#
# Convention : Reuss Voigt Hill
#
# Bulk Modulus (GPa) = 34.18547 51.03803 42.61175
# Shear Modulus (GPa) = 30.90712 37.78329 34.34521
#
# Velocity S-wave (km/s) = 3.54087 3.91498 3.73262
# Velocity P-wave (km/s) = 5.53033 6.41406 5.98852
#
# Compressibility (1/GPa) = 0.02925219
#
# Stress axis : x y z
#
# Youngs Moduli (GPa) = 108.85606 97.71068 41.66907
#
# Poissons Ratio (x) = 0.08784 0.19295
# Poissons Ratio (y) = 0.09786 0.06475
# Poissons Ratio (z) = 0.50407 0.15184
#
# Static dielectric constant tensor:
#      x y z
#    x 2.122830 0.000000 0.144950 
#    y 0.000000 1.940860 0.000000 
#    z 0.144950 0.000000 2.047990 
# 
# From -- ./inp_files/147372.got.cif
#   From: 2010.05.17/outbox.cif.g08.bks.cpg/sg15_74_cif.got.tgz:147372.got - 2010.06.03 18:47:42.
