data_PCOD9286516
_publ_section_title
;
Structure prediction by ZEFSAII (Michael W. Deem and Ramdas Pophale) SiO2 
 PCOD9286516
Probable space group: C 2/C
;
_chemical_formula_sum "Si O2"
_cell_formula_units_Z 36
_cell_length_a 9.334861
_cell_length_b 21.989089
_cell_length_c 8.513879
_cell_angle_alpha 90.000000
_cell_angle_beta 67.521035
_cell_angle_gamma 90.000000
_cell_volume 1614.819262
_symmetry_space_group_name_H-M "C 2/C"
_symmetry_group_IT_number 15
_symmetry_cell_setting 'monoclinic'
loop_
_space_group_symop_operation_xyz
x,y,z
-x,y,1/2-z
-x,-y,-z
x,-y,1/2+z
1/2+x,1/2+y,z
1/2-x,1/2+y,1/2-z
1/2-x,1/2-y,-z
1/2+x,1/2-y,1/2+z
loop_
_atom_site_type_symbol
_atom_site_label
_atom_site_fract_x
_atom_site_fract_y
_atom_site_fract_z
Si Si1 0.500000 0.641839 0.750000
Si Si2 0.961525 0.630164 0.942152
Si Si3 0.230407 0.440307 0.480527
Si Si4 0.065919 0.256646 0.562240
Si Si5 0.816062 0.071311 0.309505
O O1 0.650055 0.600760 0.670252
O O2 0.496153 0.688850 0.604826
O O3 0.000000 0.610759 0.750000
O O4 0.061671 0.585755 0.012351
O O5 0.783511 0.623591 0.065236
O O6 0.019476 0.698917 0.943970
O O7 0.259185 0.509140 0.416371
O O8 0.273624 0.432272 0.643915
O O9 0.250000 0.250000 0.500000
O O10 0.000000 0.286995 0.750000
O O11 0.000000 0.077288 0.250000
#
# Coordination Sequence:
#
# PCOD9286516 Si02
#       5
#     4   8   8   8   8
#     4  10  24  40  80  94 144 190 240 284 372 410
#     4  12  26  45  73 109 148 191 243 300 361 433
#     4  12  24  48  72 104 150 193 242 300 358 439
#     4  10  21  43  70  98 133 187 236 287 355 415
#     4  12  27  43  75 109 146 190 244 297 373 426
#
# _framework density 22.293517000000001
#
# number of rings (size 3 to 8) (size 9 to 14) (size 15 to 20)
#    0.667    0.000    3.333    4.667    3.111    0.000 
#    0.000    5.556    0.000    0.000    0.000    0.000 
#    0.000    0.000    0.000    0.000    0.000    0.000 
#
# Total GULP energy -100689.800114 kJ/mol
# GULP energy per Si atom -5593.877784 kJ/mol
# Density = 2.224278 g / cm^3
# Si number density = 22.293517 Si / 1000 Ang^3
#
#
#
# Elastic Constant Matrix: (Units=GPa)
#
#
# Indices 1 2 3 4 5 6 
#
# 1 98.1070 32.0749 53.7805 0.0000 -4.9876 0.0000
# 2 32.0749 76.3990 2.9747 0.0000 -10.1162 0.0000
# 3 53.7805 2.9747 98.6157 0.0000 0.7906 0.0000
# 4 0.0000 0.0000 0.0000 13.1807 0.0000 -12.5398
# 5 -4.9876 -10.1162 0.7906 0.0000 44.4163 0.0000
# 6 0.0000 0.0000 0.0000 -12.5398 0.0000 35.5108
#
#
#
# Elastic Compliance Matrix: (Units=1/GPa)
#
#
# Indices 1 2 3 4 5 6 
#
# 1 0.017674 -0.006978 -0.009432 0.000000 0.000563 0.000000
# 2 -0.006978 0.016270 0.003292 0.000000 0.002863 0.000000
# 3 -0.009432 0.003292 0.015190 0.000000 -0.000580 0.000000
# 4 0.000000 0.000000 0.000000 0.114252 0.000000 0.040346
# 5 0.000563 0.002863 -0.000580 0.000000 0.023240 0.000000
# 6 0.000000 0.000000 0.000000 0.040346 0.000000 0.042408
#
#
# Mechanical properties :
#
#
# Convention : Reuss Voigt Hill
#
# Bulk Modulus (GPa) = 43.67629 50.08688 46.88158
# Shear Modulus (GPa) = 19.01844 30.90767 24.96305
#
# Velocity S-wave (km/s) = 2.92394 3.72747 3.34989
# Velocity P-wave (km/s) = 5.57075 6.40634 6.00310
#
# Compressibility (1/GPa) = 0.02289572
#
# Stress axis : x y z
#
# Youngs Moduli (GPa) = 56.58114 61.46348 65.83380
#
# Poissons Ratio (x) = 0.42890 0.62098
# Poissons Ratio (y) = 0.39483 -0.21672
# Poissons Ratio (z) = 0.53370 -0.20233
#
# Static dielectric constant tensor:
#      x y z
#    x 1.815580 0.000000 -0.021870 
#    y 0.000000 1.819130 0.000000 
#    z -0.021870 0.000000 1.831750 
# 
# From -- ./inp_files/23347.got.cif
#   From: 2010.05.17/outbox.cif.g08.bks.cpg/sg15_12_cif.got.tgz:23347.got - 2010.06.03 18:47:42.
