data_PCOD9286575
_publ_section_title
;
Structure prediction by ZEFSAII (Michael W. Deem and Ramdas Pophale) SiO2 
 PCOD9286575
Probable space group: C 2/C
;
_chemical_formula_sum "Si O2"
_cell_formula_units_Z 60
_cell_length_a 30.392424
_cell_length_b 8.483010
_cell_length_c 24.692920
_cell_angle_alpha 90.000000
_cell_angle_beta 28.128762
_cell_angle_gamma 90.000000
_cell_volume 3001.426302
_symmetry_space_group_name_H-M "C 2/C"
_symmetry_group_IT_number 15
_symmetry_cell_setting 'monoclinic'
loop_
_space_group_symop_operation_xyz
x,y,z
-x,y,1/2-z
-x,-y,-z
x,-y,1/2+z
1/2+x,1/2+y,z
1/2-x,1/2+y,1/2-z
1/2-x,1/2-y,-z
1/2+x,1/2-y,1/2+z
loop_
_atom_site_type_symbol
_atom_site_label
_atom_site_fract_x
_atom_site_fract_y
_atom_site_fract_z
Si Si1 0.216891 0.225840 0.321705
Si Si2 0.375309 0.122760 0.217632
Si Si3 0.393559 0.416547 0.753873
Si Si4 0.722763 0.909094 0.856064
Si Si5 0.000000 0.589247 0.250000
Si Si6 0.487006 0.109679 0.872551
Si Si7 0.657564 0.709801 0.631703
Si Si8 0.005712 0.886356 0.044972
O O1 0.279737 0.104868 0.288805
O O2 0.249871 0.200145 0.224376
O O3 0.228421 0.405598 0.330976
O O4 0.109104 0.177126 0.442176
O O5 0.346659 0.211164 0.304239
O O6 0.436845 0.238711 0.113569
O O7 0.444582 0.984041 0.160162
O O8 0.301504 0.384955 0.817004
O O9 0.453436 0.265365 0.704561
O O10 0.360835 0.525739 0.838814
O O11 0.464877 0.518929 0.640049
O O12 0.616971 0.873365 0.990122
O O13 0.976287 0.486585 0.328425
O O14 0.919008 0.704737 0.320428
O O15 0.750000 0.750000 0.500000
O O16 0.000000 0.000000 0.000000
#
# Coordination Sequence:
#
# PCOD9286575 Si02
#       8
#     8   8   8   8   4   8   8   8
#     4  12  24  40  66  96 141 184 234 269 337 405
#     4  10  23  40  63  99 133 182 232 273 347 409
#     4  11  25  43  67 103 138 172 236 281 345 413
#     4  12  26  42  67  99 141 185 229 274 341 406
#     4  10  24  46  70  96 130 176 230 276 372 412
#     4  11  26  45  68  99 142 174 223 300 348 410
#     4  10  21  43  72  95 126 173 228 294 338 412
#     4  11  21  40  63  94 140 184 231 281 319 410
#
# _framework density 19.990496
#
# number of rings (size 3 to 8) (size 9 to 14) (size 15 to 20)
#    0.000    1.067    5.333    0.800    5.600    1.067 
#    0.000    7.333    0.000    0.000    0.000    0.000 
#    0.000    0.000    0.000    0.000    0.000    0.000 
#
# Total GULP energy -167578.249512 kJ/mol
# GULP energy per Si atom -5585.941650 kJ/mol
# Density = 1.994500 g / cm^3
# Si number density = 19.990496 Si / 1000 Ang^3
#
#
#
# Elastic Constant Matrix: (Units=GPa)
#
#
# Indices 1 2 3 4 5 6 
#
# 1 95.3289 44.4214 56.6025 0.0006 -18.7719 0.0015
# 2 44.4214 76.5922 40.7075 0.0080 5.5868 -0.0024
# 3 56.6025 40.7075 155.1663 0.0096 -18.5702 -0.0043
# 4 0.0006 0.0080 0.0096 21.8449 -0.0046 6.0254
# 5 -18.7719 5.5868 -18.5702 -0.0046 17.5768 -0.0004
# 6 0.0015 -0.0024 -0.0043 6.0254 -0.0004 2.7063
#
#
#
# Elastic Compliance Matrix: (Units=1/GPa)
#
#
# Indices 1 2 3 4 5 6 
#
# 1 0.024347 -0.015631 -0.001229 0.000048 0.029672 -0.000130
# 2 -0.015631 0.027046 -0.005060 -0.000049 -0.030637 0.000128
# 3 -0.001229 -0.005060 0.009451 -0.000009 0.010280 0.000034
# 4 0.000048 -0.000049 -0.000009 0.118629 0.000081 -0.264122
# 5 0.029672 -0.030637 0.010280 0.000081 0.109182 -0.000190
# 6 -0.000130 0.000128 0.000034 -0.264122 -0.000190 0.957562
#
#
# Mechanical properties :
#
#
# Convention : Reuss Voigt Hill
#
# Bulk Modulus (GPa) = 58.81564 67.83891 63.32728
# Shear Modulus (GPa) = 3.85884 20.78266 12.32075
#
# Velocity S-wave (km/s) = 1.39087 3.22782 2.48529
# Velocity P-wave (km/s) = 5.66260 6.92106 6.32321
#
# Compressibility (1/GPa) = 0.01700228
#
# Stress axis : x y z
#
# Youngs Moduli (GPa) = 41.07314 36.97415 105.80926
#
# Poissons Ratio (x) = 0.57796 0.13008
# Poissons Ratio (y) = 0.64203 0.53538
# Poissons Ratio (z) = 0.05050 0.18708
#
# Static dielectric constant tensor:
#      x y z
#    x 1.620620 0.000010 -0.022370 
#    y 0.000010 1.752750 0.000010 
#    z -0.022370 0.000010 1.659950 
# 
# From -- ./inp_files/284307.got.cif
#   From: 2010.05.17/outbox.cif.g08.bks.cpg/sg15_143_cif.got.tgz:284307.got - 2010.06.03 18:47:42.
