data_PCOD9286078
_publ_section_title
;
Structure prediction by ZEFSAII (Michael W. Deem and Ramdas Pophale) SiO2 
 PCOD9286078
Probable space group: C 2/C
;
_chemical_formula_sum "Si O2"
_cell_formula_units_Z 60
_cell_length_a 17.438825
_cell_length_b 6.927325
_cell_length_c 21.027806
_cell_angle_alpha 90.000000
_cell_angle_beta 58.584619
_cell_angle_gamma 90.000000
_cell_volume 2167.878463
_symmetry_space_group_name_H-M "C 2/C"
_symmetry_group_IT_number 15
_symmetry_cell_setting 'monoclinic'
loop_
_space_group_symop_operation_xyz
x,y,z
-x,y,1/2-z
-x,-y,-z
x,-y,1/2+z
1/2+x,1/2+y,z
1/2-x,1/2+y,1/2-z
1/2-x,1/2-y,-z
1/2+x,1/2-y,1/2+z
loop_
_atom_site_type_symbol
_atom_site_label
_atom_site_fract_x
_atom_site_fract_y
_atom_site_fract_z
Si Si1 0.000000 0.493297 0.750000
Si Si2 0.367143 0.863808 0.412233
Si Si3 0.666370 0.149285 0.245574
Si Si4 0.872714 0.864865 0.421116
Si Si5 0.160757 0.874406 0.472634
Si Si6 0.929791 0.916180 0.123008
Si Si7 0.327556 0.107027 0.529101
Si Si8 0.142313 0.697661 0.850728
O O1 0.953059 0.616345 0.827263
O O2 0.915489 0.359036 0.767909
O O3 0.270210 0.862152 0.417050
O O4 0.373064 0.618133 0.432914
O O5 0.347530 0.866690 0.502278
O O6 0.648616 0.320482 0.302601
O O7 0.766021 0.182605 0.178970
O O8 0.654808 0.952875 0.289756
O O9 0.781528 0.886771 0.417806
O O10 0.859692 0.615270 0.437218
O O11 0.980717 0.842659 0.381538
O O12 0.842289 0.867799 0.512486
O O13 0.093344 0.875528 0.440843
O O14 0.931279 0.144302 0.130383
O O15 0.378035 0.096908 0.574458
#
# Coordination Sequence:
#
# PCOD9286078 Si02
#       8
#     4   8   8   8   8   8   8   8
#     4  12  28  48  74 108 158 186 252 322 376 446
#     4  10  23  43  72 105 142 197 247 311 381 442
#     4  12  29  48  71 106 151 201 245 303 390 443
#     4  10  22  38  68 107 136 185 239 306 368 436
#     4  10  21  42  71 104 146 190 246 307 371 445
#     4  12  24  45  74 108 147 188 255 311 370 446
#     4  10  22  43  72 101 141 191 252 298 375 441
#     4  12  26  49  73 106 151 202 245 310 374 455
#
# _framework density 27.676828
#
# number of rings (size 3 to 8) (size 9 to 14) (size 15 to 20)
#    0.000    1.067    2.667    2.800    7.467    0.000 
#    0.000    3.333    0.000    0.000    0.000    0.000 
#    0.000    0.000    0.000    0.000    0.000    0.000 
#
# Total GULP energy -167368.335092 kJ/mol
# GULP energy per Si atom -5578.944503 kJ/mol
# Density = 2.761383 g / cm^3
# Si number density = 27.676828 Si / 1000 Ang^3
#
#
#
# Elastic Constant Matrix: (Units=GPa)
#
#
# Indices 1 2 3 4 5 6 
#
# 1 108.0587 26.3815 29.2903 -0.0005 -1.2037 0.0024
# 2 26.3815 189.4244 29.5990 -0.0018 11.4698 0.0064
# 3 29.2903 29.5990 99.3426 -0.0002 -15.6505 0.0000
# 4 -0.0005 -0.0018 -0.0002 45.7123 -0.0002 0.5717
# 5 -1.2037 11.4698 -15.6505 -0.0002 38.3597 -0.0004
# 6 0.0024 0.0064 0.0000 0.5717 -0.0004 49.9083
#
#
#
# Elastic Compliance Matrix: (Units=1/GPa)
#
#
# Indices 1 2 3 4 5 6 
#
# 1 0.010246 -0.000953 -0.002823 0.000000 -0.000545 0.000000
# 2 -0.000953 0.005857 -0.001865 0.000000 -0.002542 -0.000001
# 3 -0.002823 -0.001865 0.012320 0.000000 0.005495 0.000000
# 4 0.000000 0.000000 0.000000 0.021879 0.000000 -0.000251
# 5 -0.000545 -0.002542 0.005495 0.000000 0.029054 0.000001
# 6 0.000000 -0.000001 0.000000 -0.000251 0.000001 0.020040
#
#
# Mechanical properties :
#
#
# Convention : Reuss Voigt Hill
#
# Bulk Modulus (GPa) = 58.33617 63.04081 60.68849
# Shear Modulus (GPa) = 42.95879 47.56639 45.26259
#
# Velocity S-wave (km/s) = 3.94402 4.15014 4.04839
# Velocity P-wave (km/s) = 6.47022 6.76696 6.62025
#
# Compressibility (1/GPa) = 0.01714202
#
# Stress axis : x y z
#
# Youngs Moduli (GPa) = 97.59937 170.73169 81.17008
#
# Poissons Ratio (x) = 0.16268 0.22914
# Poissons Ratio (y) = 0.09300 0.15135
# Poissons Ratio (z) = 0.27552 0.31836
#
# Static dielectric constant tensor:
#      x y z
#    x 1.938010 0.000000 0.052350 
#    y 0.000000 2.619130 0.000000 
#    z 0.052350 0.000000 2.112380 
# 
# From -- ./inp_files/247812.got.cif
#   From: 2010.05.17/outbox.cif.g08.bks.cpg/sg15_124_cif.got.tgz:247812.got - 2010.06.03 18:47:42.
