data_PCOD9286860
_publ_section_title
;
Structure prediction by ZEFSAII (Michael W. Deem and Ramdas Pophale) SiO2 
 PCOD9286860
Probable space group: C 2/C
;
_chemical_formula_sum "Si O2"
_cell_formula_units_Z 40
_cell_length_a 11.142555
_cell_length_b 18.047933
_cell_length_c 9.016356
_cell_angle_alpha 90.000000
_cell_angle_beta 91.978138
_cell_angle_gamma 90.000000
_cell_volume 1812.109435
_symmetry_space_group_name_H-M "C 2/C"
_symmetry_group_IT_number 15
_symmetry_cell_setting 'monoclinic'
loop_
_space_group_symop_operation_xyz
x,y,z
-x,y,1/2-z
-x,-y,-z
x,-y,1/2+z
1/2+x,1/2+y,z
1/2-x,1/2+y,1/2-z
1/2-x,1/2-y,-z
1/2+x,1/2-y,1/2+z
loop_
_atom_site_type_symbol
_atom_site_label
_atom_site_fract_x
_atom_site_fract_y
_atom_site_fract_z
Si Si1 0.357973 0.557822 0.751778
Si Si2 0.861095 0.763932 0.614399
Si Si3 0.711078 0.179987 0.596097
Si Si4 0.010164 0.338595 0.577453
Si Si5 0.733540 0.416604 0.918441
O O1 0.500000 0.545008 0.750000
O O2 0.320564 0.629063 0.652935
O O3 0.286861 0.488476 0.680703
O O4 0.316157 0.570689 0.918449
O O5 0.750000 0.750000 0.500000
O O6 0.846809 0.711562 0.754798
O O7 0.968826 0.736422 0.516443
O O8 0.845717 0.849317 0.654022
O O9 0.750000 0.250000 0.500000
O O10 0.614059 0.132843 0.497287
O O11 0.127163 0.390577 0.565560
O O12 0.000000 0.321911 0.750000
#
# Coordination Sequence:
#
# PCOD9286860 Si02
#       5
#     8   8   8   8   8
#     4  12  29  49  72 108 149 200 249 308 373 453
#     4  10  21  44  71 106 143 184 239 308 356 441
#     4  12  26  43  78 109 147 195 249 307 382 433
#     4  11  25  46  76 110 147 192 249 310 372 439
#     4  11  27  49  73 106 154 192 252 300 377 447
#
# _framework density 22.073720999999999
#
# number of rings (size 3 to 8) (size 9 to 14) (size 15 to 20)
#    0.000    0.800    4.000    3.600    8.400    2.400 
#    0.000    0.000    0.000    0.000    0.000    0.000 
#    0.000    0.000    0.000    0.000    0.000    0.000 
#
# Total GULP energy -111836.372570 kJ/mol
# GULP energy per Si atom -5591.818628 kJ/mol
# Density = 2.202348 g / cm^3
# Si number density = 22.073721 Si / 1000 Ang^3
#
#
#
# Elastic Constant Matrix: (Units=GPa)
#
#
# Indices 1 2 3 4 5 6 
#
# 1 114.7831 14.6296 33.9261 0.0000 10.3849 0.0000
# 2 14.6296 93.2334 11.3376 0.0000 4.6409 0.0000
# 3 33.9261 11.3376 91.1536 0.0000 6.8377 0.0000
# 4 0.0000 0.0000 0.0000 28.0174 0.0000 6.8679
# 5 10.3849 4.6409 6.8377 0.0000 40.7758 0.0000
# 6 0.0000 0.0000 0.0000 6.8679 0.0000 28.0943
#
#
#
# Elastic Compliance Matrix: (Units=1/GPa)
#
#
# Indices 1 2 3 4 5 6 
#
# 1 0.010039 -0.001062 -0.003465 0.000000 -0.001855 0.000000
# 2 -0.001062 0.011045 -0.000916 0.000000 -0.000833 0.000000
# 3 -0.003465 -0.000916 0.012457 0.000000 -0.001102 0.000000
# 4 0.000000 0.000000 0.000000 0.037967 0.000000 -0.009281
# 5 -0.001855 -0.000833 -0.001102 0.000000 0.025276 0.000000
# 6 0.000000 0.000000 0.000000 -0.009281 0.000000 0.037863
#
#
# Mechanical properties :
#
#
# Convention : Reuss Voigt Hill
#
# Bulk Modulus (GPa) = 44.13983 46.55074 45.34529
# Shear Modulus (GPa) = 32.66126 35.32930 33.99528
#
# Velocity S-wave (km/s) = 3.85079 4.00498 3.92864
# Velocity P-wave (km/s) = 6.30963 6.52082 6.41609
#
# Compressibility (1/GPa) = 0.02265527
#
# Stress axis : x y z
#
# Youngs Moduli (GPa) = 99.60698 90.53678 80.27693
#
# Poissons Ratio (x) = 0.09611 0.27819
# Poissons Ratio (y) = 0.10574 0.07355
# Poissons Ratio (z) = 0.34517 0.08295
#
# Static dielectric constant tensor:
#      x y z
#    x 1.905870 0.000000 0.016880 
#    y 0.000000 1.844050 0.000000 
#    z 0.016880 0.000000 1.769300 
# 
# From -- ./inp_files/29234.got.cif
#   From: 2010.05.17/outbox.cif.g08.bks.cpg/sg15_15_cif.got.tgz:29234.got - 2010.06.03 18:47:42.
