data_PCOD9286972
_publ_section_title
;
Structure prediction by ZEFSAII (Michael W. Deem and Ramdas Pophale) SiO2 
 PCOD9286972
Probable space group: C 2/C
;
_chemical_formula_sum "Si O2"
_cell_formula_units_Z 60
_cell_length_a 11.003157
_cell_length_b 9.078287
_cell_length_c 26.739058
_cell_angle_alpha 90.000000
_cell_angle_beta 80.227500
_cell_angle_gamma 90.000000
_cell_volume 2632.202601
_symmetry_space_group_name_H-M "C 2/C"
_symmetry_group_IT_number 15
_symmetry_cell_setting 'monoclinic'
loop_
_space_group_symop_operation_xyz
x,y,z
-x,y,1/2-z
-x,-y,-z
x,-y,1/2+z
1/2+x,1/2+y,z
1/2-x,1/2+y,1/2-z
1/2-x,1/2-y,-z
1/2+x,1/2-y,1/2+z
loop_
_atom_site_type_symbol
_atom_site_label
_atom_site_fract_x
_atom_site_fract_y
_atom_site_fract_z
Si Si1 0.799477 0.168792 0.932288
Si Si2 0.925037 0.152523 0.818186
Si Si3 0.451278 0.627573 0.539050
Si Si4 0.220570 0.938996 0.885186
Si Si5 0.489087 0.042524 0.147250
Si Si6 0.891686 0.568736 0.039965
Si Si7 0.676521 0.778975 0.296305
Si Si8 0.000000 0.105550 0.250000
O O1 0.846724 0.125716 0.873762
O O2 0.721788 0.315816 0.929172
O O3 0.922735 0.204841 0.952558
O O4 0.725971 0.034138 0.959637
O O5 0.003719 0.300030 0.823917
O O6 0.819908 0.177749 0.783141
O O7 0.989598 0.004098 0.797362
O O8 0.500000 0.500000 0.500000
O O9 0.376059 0.560091 0.590796
O O10 0.372779 0.763417 0.524549
O O11 0.363179 0.992158 0.869233
O O12 0.181289 0.846288 0.839328
O O13 0.427407 0.059571 0.096696
O O14 0.410935 0.915364 0.180622
O O15 0.000000 0.500000 0.000000
O O16 0.617790 0.708317 0.251119
#
# Coordination Sequence:
#
# PCOD9286972 Si02
#       8
#     8   8   8   8   8   8   8   4
#     4  10  22  46  66  87 138 172 210 272 324 377
#     4  10  23  45  66  96 129 175 212 261 334 389
#     4  12  26  38  61  97 131 171 220 269 321 376
#     4  10  22  42  67  91 126 176 216 257 329 390
#     4  10  21  45  69  89 134 177 208 262 330 380
#     4  12  24  41  69  96 129 176 221 266 316 381
#     4  10  23  43  66  98 126 166 211 270 326 383
#     4  12  26  40  70 100 130 156 222 274 312 398
#
# _framework density 22.794597
#
# number of rings (size 3 to 8) (size 9 to 14) (size 15 to 20)
#    0.000    1.600    5.333    1.600    1.867    7.467 
#    0.000    0.000    0.000    0.000    0.000    0.000 
#    0.000    0.000    0.000    0.000    0.000    0.000 
#
# Total GULP energy -167532.797381 kJ/mol
# GULP energy per Si atom -5584.426579 kJ/mol
# Density = 2.274272 g / cm^3
# Si number density = 22.794597 Si / 1000 Ang^3
#
#
#
# Elastic Constant Matrix: (Units=GPa)
#
#
# Indices 1 2 3 4 5 6 
#
# 1 83.9611 30.1209 2.9381 0.0000 19.6226 0.0000
# 2 30.1209 97.3619 13.9467 0.0000 -5.1663 0.0000
# 3 2.9381 13.9467 40.6341 0.0000 -4.4355 0.0000
# 4 0.0000 0.0000 0.0000 30.2076 0.0000 2.3839
# 5 19.6226 -5.1663 -4.4355 0.0000 29.5533 0.0000
# 6 0.0000 0.0000 0.0000 2.3839 0.0000 36.8436
#
#
#
# Elastic Compliance Matrix: (Units=1/GPa)
#
#
# Indices 1 2 3 4 5 6 
#
# 1 0.016887 -0.005795 -0.000576 0.000000 -0.012312 0.000000
# 2 -0.005795 0.012844 -0.003380 0.000000 0.005586 0.000000
# 3 -0.000576 -0.003380 0.026218 0.000000 0.003727 0.000000
# 4 0.000000 0.000000 0.000000 0.033274 0.000000 -0.002153
# 5 -0.012312 0.005586 0.003727 0.000000 0.043548 0.000000
# 6 0.000000 0.000000 0.000000 -0.002153 0.000000 0.027281
#
#
# Mechanical properties :
#
#
# Convention : Reuss Voigt Hill
#
# Bulk Modulus (GPa) = 27.43639 35.10761 31.27200
# Shear Modulus (GPa) = 26.08198 30.98432 28.53315
#
# Velocity S-wave (km/s) = 3.38630 3.69085 3.54185
# Velocity P-wave (km/s) = 5.22990 5.79640 5.52042
#
# Compressibility (1/GPa) = 0.03644794
#
# Stress axis : x y z
#
# Youngs Moduli (GPa) = 59.21778 77.85530 38.14127
#
# Poissons Ratio (x) = 0.45118 0.02197
# Poissons Ratio (y) = 0.34317 0.12891
# Poissons Ratio (z) = 0.03410 0.26313
#
# Static dielectric constant tensor:
#      x y z
#    x 1.860450 0.000000 0.039830 
#    y 0.000000 1.831950 0.000000 
#    z 0.039830 0.000000 1.873150 
# 
# From -- ./inp_files/309964.got.cif
#   From: 2010.05.17/outbox.cif.g08.bks.cpg/sg15_155_cif.got.tgz:309964.got - 2010.06.03 18:47:42.
