data_PCOD9286360
_publ_section_title
;
Structure prediction by ZEFSAII (Michael W. Deem and Ramdas Pophale) SiO2 
 PCOD9286360
Probable space group: C 2/C
;
_chemical_formula_sum "Si O2"
_cell_formula_units_Z 60
_cell_length_a 10.218609
_cell_length_b 23.156607
_cell_length_c 19.201305
_cell_angle_alpha 90.000000
_cell_angle_beta 145.006140
_cell_angle_gamma 90.000000
_cell_volume 2605.687204
_symmetry_space_group_name_H-M "C 2/C"
_symmetry_group_IT_number 15
_symmetry_cell_setting 'monoclinic'
loop_
_space_group_symop_operation_xyz
x,y,z
-x,y,1/2-z
-x,-y,-z
x,-y,1/2+z
1/2+x,1/2+y,z
1/2-x,1/2+y,1/2-z
1/2-x,1/2-y,-z
1/2+x,1/2-y,1/2+z
loop_
_atom_site_type_symbol
_atom_site_label
_atom_site_fract_x
_atom_site_fract_y
_atom_site_fract_z
Si Si1 0.312994 0.913377 0.973063
Si Si2 0.556248 0.870855 0.944423
Si Si3 0.141896 0.255265 0.639928
Si Si4 0.217478 0.587912 0.300058
Si Si5 0.097882 0.790035 0.886413
Si Si6 0.318126 0.041600 0.767254
Si Si7 0.499887 0.623881 0.947948
Si Si8 0.000000 0.001040 0.750000
O O1 0.500842 0.892887 0.997445
O O2 0.158765 0.857414 0.922569
O O3 0.160638 0.960815 0.867828
O O4 0.438392 0.940996 0.094216
O O5 0.559245 0.801530 0.941901
O O6 0.338829 0.888704 0.801788
O O7 0.786841 0.893353 0.009556
O O8 0.337565 0.267524 0.783302
O O9 0.289285 0.276561 0.638809
O O10 0.058213 0.190975 0.589927
O O11 0.201733 0.519275 0.281169
O O12 0.421564 0.607189 0.439853
O O13 0.000000 0.608233 0.250000
O O14 0.250000 0.750000 0.000000
O O15 0.220012 0.089271 0.673020
O O16 0.155082 0.036191 0.763956
#
# Coordination Sequence:
#
# PCOD9286360 Si02
#       8
#     8   8   8   8   8   8   8   4
#     4  11  23  42  68  98 127 176 220 278 339 390
#     4  10  21  43  67  92 130 170 224 268 336 403
#     4  10  22  40  65  94 121 170 215 266 333 399
#     4  10  24  43  64  89 136 180 215 266 327 401
#     4  10  22  40  63  92 130 161 210 277 333 392
#     4  12  25  41  65  99 133 169 232 270 334 398
#     4  11  24  42  63  99 131 176 217 277 331 395
#     4  12  24  38  70  94 130 180 214 286 326 382
#
# _framework density 23.026554000000001
#
# number of rings (size 3 to 8) (size 9 to 14) (size 15 to 20)
#    0.000    1.333    1.333    4.400    5.600    0.000 
#    4.800    0.000    1.467    0.000    0.000    0.000 
#    0.000    0.000    0.000    0.000    0.000    0.000 
#
# Total GULP energy -167605.580401 kJ/mol
# GULP energy per Si atom -5586.852680 kJ/mol
# Density = 2.297414 g / cm^3
# Si number density = 23.026554 Si / 1000 Ang^3
#
#
#
# Elastic Constant Matrix: (Units=GPa)
#
#
# Indices 1 2 3 4 5 6 
#
# 1 65.1947 -1.5760 18.4953 0.0003 1.2731 0.0028
# 2 -1.5760 122.3591 53.7874 -0.0002 -14.0425 -0.0010
# 3 18.4953 53.7874 150.0236 -0.0067 -9.6014 -0.0206
# 4 0.0003 -0.0002 -0.0067 34.9418 -0.0006 3.4518
# 5 1.2731 -14.0425 -9.6014 -0.0006 23.0366 0.0002
# 6 0.0028 -0.0010 -0.0206 3.4518 0.0002 40.3745
#
#
#
# Elastic Compliance Matrix: (Units=1/GPa)
#
#
# Indices 1 2 3 4 5 6 
#
# 1 0.016093 0.001156 -0.002476 0.000000 -0.001217 -0.000002
# 2 0.001156 0.010281 -0.003525 0.000000 0.004733 -0.000002
# 3 -0.002476 -0.003525 0.008328 0.000001 0.001459 0.000004
# 4 0.000000 0.000000 0.000001 0.028863 0.000001 -0.002468
# 5 -0.001217 0.004733 0.001459 0.000001 0.046970 0.000001
# 6 -0.000002 -0.000002 0.000004 -0.002468 0.000001 0.024979
#
#
# Mechanical properties :
#
#
# Convention : Reuss Voigt Hill
#
# Bulk Modulus (GPa) = 39.98320 53.22120 46.60220
# Shear Modulus (GPa) = 32.56448 37.46196 35.01322
#
# Velocity S-wave (km/s) = 3.76468 4.03786 3.90366
# Velocity P-wave (km/s) = 6.02485 6.70092 6.37185
#
# Compressibility (1/GPa) = 0.02501050
#
# Stress axis : x y z
#
# Youngs Moduli (GPa) = 62.13911 97.27125 120.07332
#
# Poissons Ratio (x) = -0.11247 0.29735
# Poissons Ratio (y) = -0.07185 0.42331
# Poissons Ratio (z) = 0.15388 0.34292
#
# Static dielectric constant tensor:
#      x y z
#    x 1.902160 0.000000 -0.008000 
#    y 0.000000 1.883960 0.000000 
#    z -0.008000 0.000000 1.973520 
# 
# From -- ./inp_files/240873.got.cif
#   From: 2010.05.17/outbox.cif.g08.bks.cpg/sg15_121_cif.got.tgz:240873.got - 2010.06.03 18:47:42.
