data_PCOD9286271
_publ_section_title
;
Structure prediction by ZEFSAII (Michael W. Deem and Ramdas Pophale) SiO2 
 PCOD9286271
Probable space group: C 2/C
;
_chemical_formula_sum "Si O2"
_cell_formula_units_Z 52
_cell_length_a 28.436803
_cell_length_b 7.481103
_cell_length_c 14.040952
_cell_angle_alpha 90.000000
_cell_angle_beta 53.509034
_cell_angle_gamma 90.000000
_cell_volume 2401.443330
_symmetry_space_group_name_H-M "C 2/C"
_symmetry_group_IT_number 15
_symmetry_cell_setting 'monoclinic'
loop_
_space_group_symop_operation_xyz
x,y,z
-x,y,1/2-z
-x,-y,-z
x,-y,1/2+z
1/2+x,1/2+y,z
1/2-x,1/2+y,1/2-z
1/2-x,1/2-y,-z
1/2+x,1/2-y,1/2+z
loop_
_atom_site_type_symbol
_atom_site_label
_atom_site_fract_x
_atom_site_fract_y
_atom_site_fract_z
Si Si1 0.384456 0.190013 0.797993
Si Si2 0.933599 0.455992 0.053005
Si Si3 0.756235 0.707081 0.723480
Si Si4 0.837262 0.389280 0.553297
Si Si5 0.947947 0.954675 0.491043
Si Si6 0.666889 0.496694 0.767620
Si Si7 0.500000 0.647712 0.250000
O O1 0.395699 0.061429 0.695130
O O2 0.351744 0.366729 0.796076
O O3 0.449356 0.242468 0.756920
O O4 0.347599 0.108171 0.928409
O O5 0.901891 0.594157 0.021251
O O6 0.935566 0.257269 0.005516
O O7 0.000000 0.500000 0.000000
O O8 0.804643 0.557542 0.641904
O O9 0.707581 0.728482 0.867247
O O10 0.708908 0.665424 0.696352
O O11 0.795685 0.877242 0.702060
O O12 0.892059 0.044016 0.607454
O O13 0.000000 0.000000 0.500000
O O14 0.965532 0.027354 0.367677
#
# Coordination Sequence:
#
# PCOD9286271 Si02
#       7
#     8   8   8   8   8   8   4
#     4  11  23  41  69  99 131 179 228 267 350 407
#     4  11  24  43  65  96 140 171 216 286 342 392
#     4  10  22  40  68  88 136 176 221 273 327 388
#     4  11  23  43  67  97 133 181 222 278 335 404
#     4  11  22  41  66  98 133 167 222 275 333 403
#     4  10  21  43  65  97 130 178 223 277 331 394
#     4  12  22  38  72 104 128 178 218 272 344 416
#
# _framework density 21.653642000000001
#
# number of rings (size 3 to 8) (size 9 to 14) (size 15 to 20)
#    0.000    1.231    6.154    1.846    2.154    3.692 
#    0.000    0.769    0.000    0.000    0.000    0.000 
#    0.000    0.000    0.000    0.000    0.000    0.000 
#
# Total GULP energy -144779.222356 kJ/mol
# GULP energy per Si atom -5568.431629 kJ/mol
# Density = 2.160436 g / cm^3
# Si number density = 21.653642 Si / 1000 Ang^3
#
#
#
# Elastic Constant Matrix: (Units=GPa)
#
#
# Indices 1 2 3 4 5 6 
#
# 1 111.2951 16.8320 35.6299 0.0000 -22.3561 0.0000
# 2 16.8320 58.8086 23.0955 0.0000 6.5625 0.0000
# 3 35.6299 23.0955 127.1531 0.0000 8.1958 0.0000
# 4 0.0000 0.0000 0.0000 26.4473 0.0000 -7.1337
# 5 -22.3561 6.5625 8.1958 0.0000 35.9656 0.0000
# 6 0.0000 0.0000 0.0000 -7.1337 0.0000 47.0650
#
#
#
# Elastic Compliance Matrix: (Units=1/GPa)
#
#
# Indices 1 2 3 4 5 6 
#
# 1 0.012410 -0.003199 -0.003482 0.000000 0.009091 0.000000
# 2 -0.003199 0.019382 -0.002302 0.000000 -0.005000 0.000000
# 3 -0.003482 -0.002302 0.009511 0.000000 -0.003912 0.000000
# 4 0.000000 0.000000 0.000000 0.039423 0.000000 0.005975
# 5 0.009091 -0.005000 -0.003912 0.000000 0.035259 0.000000
# 6 0.000000 0.000000 0.000000 0.005975 0.000000 0.022153
#
#
# Mechanical properties :
#
#
# Convention : Reuss Voigt Hill
#
# Bulk Modulus (GPa) = 42.85154 49.81907 46.33530
# Shear Modulus (GPa) = 30.50977 36.67555 33.59266
#
# Velocity S-wave (km/s) = 3.75772 4.11997 3.94301
# Velocity P-wave (km/s) = 6.21770 6.75939 6.49420
#
# Compressibility (1/GPa) = 0.02333638
#
# Stress axis : x y z
#
# Youngs Moduli (GPa) = 80.58071 51.59470 105.14609
#
# Poissons Ratio (x) = 0.16504 0.36616
# Poissons Ratio (y) = 0.25776 0.24202
# Poissons Ratio (z) = 0.28061 0.11876
#
# Static dielectric constant tensor:
#      x y z
#    x 1.851020 0.000000 -0.029850 
#    y 0.000000 1.929320 0.000000 
#    z -0.029850 0.000000 1.767650 
# 
# From -- ./inp_files/121807.got.cif
#   From: 2010.05.17/outbox.cif.g08.bks.cpg/sg15_61_cif.got.tgz:121807.got - 2010.06.03 18:47:42.
