data_PCOD9286453
_publ_section_title
;
Structure prediction by ZEFSAII (Michael W. Deem and Ramdas Pophale) SiO2 
 PCOD9286453
Probable space group: C 2/C
;
_chemical_formula_sum "Si O2"
_cell_formula_units_Z 40
_cell_length_a 8.351805
_cell_length_b 12.048125
_cell_length_c 17.955377
_cell_angle_alpha 90.000000
_cell_angle_beta 81.115998
_cell_angle_gamma 90.000000
_cell_volume 1785.059156
_symmetry_space_group_name_H-M "C 2/C"
_symmetry_group_IT_number 15
_symmetry_cell_setting 'monoclinic'
loop_
_space_group_symop_operation_xyz
x,y,z
-x,y,1/2-z
-x,-y,-z
x,-y,1/2+z
1/2+x,1/2+y,z
1/2-x,1/2+y,1/2-z
1/2-x,1/2-y,-z
1/2+x,1/2-y,1/2+z
loop_
_atom_site_type_symbol
_atom_site_label
_atom_site_fract_x
_atom_site_fract_y
_atom_site_fract_z
Si Si1 0.389695 0.330754 0.395124
Si Si2 0.829331 0.671788 0.258922
Si Si3 0.130890 0.678631 0.671574
Si Si4 0.438464 0.737115 0.043930
Si Si5 0.366877 0.479306 0.634907
O O1 0.365436 0.260638 0.321954
O O2 0.491359 0.272204 0.454538
O O3 0.207510 0.325890 0.440554
O O4 0.471137 0.448088 0.372941
O O5 0.772592 0.742152 0.193065
O O6 0.679793 0.593665 0.290210
O O7 0.000000 0.607360 0.250000
O O8 0.217720 0.564753 0.641492
O O9 0.000000 0.668386 0.750000
O O10 0.055301 0.730647 0.602774
O O11 0.379235 0.612001 0.069151
#
# Coordination Sequence:
#
# PCOD9286453 Si02
#       5
#     8   8   8   8   8
#     4  10  21  43  69  87 134 170 205 263 321 373
#     4  11  23  44  66  94 129 170 213 269 319 378
#     4  12  23  42  66  94 127 163 215 267 313 381
#     4  10  24  44  63  97 128 166 215 261 311 387
#     4  11  23  41  67  91 128 168 213 256 326 378
#
# _framework density 22.408221000000001
#
# number of rings (size 3 to 8) (size 9 to 14) (size 15 to 20)
#    0.000    1.200    6.000    1.200    0.000    4.000 
#    3.600    9.000    0.000    0.000    0.000    0.000 
#    0.000    0.000    0.000    0.000    0.000    0.000 
#
# Total GULP energy -111541.676995 kJ/mol
# GULP energy per Si atom -5577.083850 kJ/mol
# Density = 2.235722 g / cm^3
# Si number density = 22.408221 Si / 1000 Ang^3
#
#
#
# Elastic Constant Matrix: (Units=GPa)
#
#
# Indices 1 2 3 4 5 6 
#
# 1 103.0352 64.3019 55.2301 0.0000 9.7368 0.0000
# 2 64.3019 121.6882 51.1421 0.0000 6.8416 0.0000
# 3 55.2301 51.1421 141.8828 0.0000 32.5754 0.0000
# 4 0.0000 0.0000 0.0000 17.9057 0.0000 -21.5714
# 5 9.7368 6.8416 32.5754 0.0000 43.9792 0.0000
# 6 0.0000 0.0000 0.0000 -21.5714 0.0000 36.9334
#
#
#
# Elastic Compliance Matrix: (Units=1/GPa)
#
#
# Indices 1 2 3 4 5 6 
#
# 1 0.016018 -0.006869 -0.003844 0.000000 0.000370 0.000000
# 2 -0.006869 0.012693 -0.002165 0.000000 0.001150 0.000000
# 3 -0.003844 -0.002165 0.010907 0.000000 -0.006891 0.000000
# 4 0.000000 0.000000 0.000000 0.188438 0.000000 0.110059
# 5 0.000370 0.001150 -0.006891 0.000000 0.027581 0.000000
# 6 0.000000 0.000000 0.000000 0.110059 0.000000 0.091357
#
#
# Mechanical properties :
#
#
# Convention : Reuss Voigt Hill
#
# Bulk Modulus (GPa) = 72.14674 78.66158 75.40416
# Shear Modulus (GPa) = 13.24952 32.82583 23.03767
#
# Velocity S-wave (km/s) = 2.43426 3.83156 3.20986
# Velocity P-wave (km/s) = 6.33777 7.39963 6.88919
#
# Compressibility (1/GPa) = 0.01386064
#
# Stress axis : x y z
#
# Youngs Moduli (GPa) = 62.42955 78.78381 91.68423
#
# Poissons Ratio (x) = 0.54120 0.35244
# Poissons Ratio (y) = 0.42886 0.19852
# Poissons Ratio (z) = 0.23998 0.17059
#
# Static dielectric constant tensor:
#      x y z
#    x 1.956630 0.000000 -0.072850 
#    y 0.000000 1.814060 0.000000 
#    z -0.072850 0.000000 1.867670 
# 
# From -- ./inp_files/229855.got.cif
#   From: 2010.05.17/outbox.cif.g08.bks.cpg/sg15_115_cif.got.tgz:229855.got - 2010.06.03 18:47:42.
