data_PCOD9286083
_publ_section_title
;
Structure prediction by ZEFSAII (Michael W. Deem and Ramdas Pophale) SiO2 
 PCOD9286083
Probable space group: C 2/C
;
_chemical_formula_sum "Si O2"
_cell_formula_units_Z 36
_cell_length_a 26.680800
_cell_length_b 4.782001
_cell_length_c 20.401747
_cell_angle_alpha 90.000000
_cell_angle_beta 148.192306
_cell_angle_gamma 90.000000
_cell_volume 1371.968368
_symmetry_space_group_name_H-M "C 2/C"
_symmetry_group_IT_number 15
_symmetry_cell_setting 'monoclinic'
loop_
_space_group_symop_operation_xyz
x,y,z
-x,y,1/2-z
-x,-y,-z
x,-y,1/2+z
1/2+x,1/2+y,z
1/2-x,1/2+y,1/2-z
1/2-x,1/2-y,-z
1/2+x,1/2-y,1/2+z
loop_
_atom_site_type_symbol
_atom_site_label
_atom_site_fract_x
_atom_site_fract_y
_atom_site_fract_z
Si Si1 0.090468 0.214551 0.097063
Si Si2 0.532539 0.858221 0.646009
Si Si3 0.296735 0.437814 0.993378
Si Si4 0.291788 0.527210 0.174278
Si Si5 0.000000 0.250824 0.750000
O O1 0.079052 0.439983 0.143258
O O2 0.190973 0.092132 0.230074
O O3 0.069658 0.326440 0.002052
O O4 0.000000 0.000000 0.000000
O O5 0.602481 0.588689 0.728347
O O6 0.521559 0.936324 0.709496
O O7 0.252449 0.770841 0.082385
O O8 0.408545 0.437483 0.130778
O O9 0.250000 0.250000 0.000000
O O10 0.273623 0.238004 0.907422
#
# Coordination Sequence:
#
# PCOD9286083 Si02
#       5
#     8   8   8   8   4
#     4   9  19  40  74 101 137 193 243 296 379 449
#     4  10  21  42  71 107 143 191 247 310 373 452
#     4  12  25  43  68 100 148 195 242 310 380 444
#     4  11  21  44  69  97 136 195 243 297 370 440
#     4  12  26  44  68 112 148 190 258 316 372 448
#
# _framework density 26.239671999999999
#
# number of rings (size 3 to 8) (size 9 to 14) (size 15 to 20)
#    0.000    1.333    4.444    0.667    0.000    0.889 
#    8.000    2.222    0.000    0.000    0.000    0.000 
#    0.000    0.000    0.000    0.000    0.000    0.000 
#
# Total GULP energy -100344.861479 kJ/mol
# GULP energy per Si atom -5574.714527 kJ/mol
# Density = 2.617995 g / cm^3
# Si number density = 26.239672 Si / 1000 Ang^3
#
#
#
# Elastic Constant Matrix: (Units=GPa)
#
#
# Indices 1 2 3 4 5 6 
#
# 1 84.7661 24.4434 46.8640 0.0027 -14.2341 0.0019
# 2 24.4434 145.6850 64.2857 0.0131 -2.7308 0.0048
# 3 46.8640 64.2857 254.4567 0.0040 -20.4787 0.0011
# 4 0.0027 0.0131 0.0040 47.1956 0.0009 -12.4483
# 5 -14.2341 -2.7308 -20.4787 0.0009 46.4438 0.0008
# 6 0.0019 0.0048 0.0011 -12.4483 0.0008 2.9766
#
#
#
# Elastic Compliance Matrix: (Units=1/GPa)
#
#
# Indices 1 2 3 4 5 6 
#
# 1 0.013822 -0.001408 -0.001924 0.000020 0.003305 0.000076
# 2 -0.001408 0.007877 -0.001792 0.000047 -0.000758 0.000185
# 3 -0.001924 -0.001792 0.004853 -0.000006 0.001445 -0.000025
# 4 0.000020 0.000047 -0.000006 -0.205562 0.000025 -0.859685
# 5 0.003305 -0.000758 0.001445 0.000025 0.023137 0.000096
# 6 0.000076 0.000185 -0.000025 -0.859685 0.000096 -3.259343
#
#
# Mechanical properties :
#
#
# Convention : Reuss Voigt Hill
#
# Bulk Modulus (GPa) = 61.33321 84.01046 72.67183
# Shear Modulus (GPa) = -1.47079 42.61085 20.57003
#
# Velocity S-wave (km/s) = -0.74949 4.03415 2.80291
# Velocity P-wave (km/s) = 4.76193 7.33384 6.18309
#
# Compressibility (1/GPa) = 0.01630438
#
# Stress axis : x y z
#
# Youngs Moduli (GPa) = 72.34927 126.95560 206.04957
#
# Poissons Ratio (x) = 0.17878 0.39641
# Poissons Ratio (y) = 0.10188 0.36917
# Poissons Ratio (z) = 0.13919 0.22746
#
# Static dielectric constant tensor:
#      x y z
#    x 2.204350 0.000010 -0.017130 
#    y 0.000010 2.325090 0.000010 
#    z -0.017130 0.000010 2.113220 
# 
# From -- ./inp_files/223360.got.cif
#   From: 2010.05.17/outbox.cif.g08.bks.cpg/sg15_112_cif.got.tgz:223360.got - 2010.06.03 18:47:42.
