data_PCOD9286120
_publ_section_title
;
Structure prediction by ZEFSAII (Michael W. Deem and Ramdas Pophale) SiO2 
 PCOD9286120
Probable space group: C 2/C
;
_chemical_formula_sum "Si O2"
_cell_formula_units_Z 24
_cell_length_a 13.120211
_cell_length_b 8.257970
_cell_length_c 12.301275
_cell_angle_alpha 90.000000
_cell_angle_beta 138.003104
_cell_angle_gamma 90.000000
_cell_volume 891.762100
_symmetry_space_group_name_H-M "C 2/C"
_symmetry_group_IT_number 15
_symmetry_cell_setting 'monoclinic'
loop_
_space_group_symop_operation_xyz
x,y,z
-x,y,1/2-z
-x,-y,-z
x,-y,1/2+z
1/2+x,1/2+y,z
1/2-x,1/2+y,1/2-z
1/2-x,1/2-y,-z
1/2+x,1/2-y,1/2+z
loop_
_atom_site_type_symbol
_atom_site_label
_atom_site_fract_x
_atom_site_fract_y
_atom_site_fract_z
Si Si1 0.837013 0.553655 0.172097
Si Si2 0.812978 0.135658 0.775069
Si Si3 0.442988 0.362801 0.597228
O O1 0.775975 0.730440 0.157984
O O2 0.827722 0.449416 0.276256
O O3 0.000000 0.575525 0.250000
O O4 0.713750 0.459437 0.001263
O O5 0.928518 0.997247 0.826433
O O6 0.900923 0.216747 0.948988
O O7 0.500000 0.272338 0.750000
#
# Coordination Sequence:
#
# PCOD9286120 Si02
#       3
#     8   8   8
#     4  10  21  42  72  96 127 178 225 266 328 401
#     4   9  21  40  68  97 132 174 221 267 335 396
#     4   9  20  42  67  93 135 179 209 273 344 385
#
# _framework density 26.913008000000001
#
# number of rings (size 3 to 8) (size 9 to 14) (size 15 to 20)
#    2.000    0.667    0.000    1.000    0.000    5.333 
#    0.000   11.667    0.000    2.000    0.000    0.000 
#    0.000    0.000    0.000    0.000    0.000    0.000 
#
# Total GULP energy -67081.638364 kJ/mol
# GULP energy per Si atom -5590.136530 kJ/mol
# Density = 2.685175 g / cm^3
# Si number density = 26.913008 Si / 1000 Ang^3
#
#
#
# Elastic Constant Matrix: (Units=GPa)
#
#
# Indices 1 2 3 4 5 6 
#
# 1 177.9454 15.7768 -3.9552 0.0000 28.1782 0.0000
# 2 15.7768 62.4512 5.2725 0.0000 -7.5977 0.0000
# 3 -3.9552 5.2725 102.9603 0.0000 -20.1494 0.0000
# 4 0.0000 0.0000 0.0000 28.5666 0.0000 9.0379
# 5 28.1782 -7.5977 -20.1494 0.0000 20.7728 0.0000
# 6 0.0000 0.0000 0.0000 9.0379 0.0000 22.9908
#
#
#
# Elastic Compliance Matrix: (Units=1/GPa)
#
#
# Indices 1 2 3 4 5 6 
#
# 1 0.008248 -0.003690 -0.002404 0.000000 -0.014870 0.000000
# 2 -0.003690 0.018424 0.001497 0.000000 0.013196 0.000000
# 3 -0.002404 0.001497 0.012700 0.000000 0.016128 0.000000
# 4 0.000000 0.000000 0.000000 0.039978 0.000000 -0.015716
# 5 -0.014870 0.013196 0.016128 0.000000 0.088781 0.000000
# 6 0.000000 0.000000 0.000000 -0.015716 0.000000 0.049674
#
#
# Mechanical properties :
#
#
# Convention : Reuss Voigt Hill
#
# Bulk Modulus (GPa) = 33.13707 41.94945 37.54326
# Shear Modulus (GPa) = 21.09194 36.21691 28.65443
#
# Velocity S-wave (km/s) = 2.80252 3.67236 3.26652
# Velocity P-wave (km/s) = 4.77614 5.79677 5.31103
#
# Compressibility (1/GPa) = 0.03017768
#
# Stress axis : x y z
#
# Youngs Moduli (GPa) = 121.23915 54.27811 78.74266
#
# Poissons Ratio (x) = 0.20028 0.18932
# Poissons Ratio (y) = 0.44735 -0.11790
# Poissons Ratio (z) = 0.29150 -0.08127
#
# Static dielectric constant tensor:
#      x y z
#    x 2.065530 0.000000 -0.047380 
#    y 0.000000 2.090190 0.000000 
#    z -0.047380 0.000000 2.068830 
# 
# From -- ./inp_files/45596.got.cif
#   From: 2010.05.17/outbox.cif.g08.bks.cpg/sg15_23_cif.got.tgz:45596.got - 2010.06.03 18:47:42.
