data_PCOD9286212
_publ_section_title
;
Structure prediction by ZEFSAII (Michael W. Deem and Ramdas Pophale) SiO2 
 PCOD9286212
Probable space group: C 2/C
;
_chemical_formula_sum "Si O2"
_cell_formula_units_Z 52
_cell_length_a 19.433346
_cell_length_b 18.949860
_cell_length_c 14.484148
_cell_angle_alpha 90.000000
_cell_angle_beta 27.188314
_cell_angle_gamma 90.000000
_cell_volume 2437.156379
_symmetry_space_group_name_H-M "C 2/C"
_symmetry_group_IT_number 15
_symmetry_cell_setting 'monoclinic'
loop_
_space_group_symop_operation_xyz
x,y,z
-x,y,1/2-z
-x,-y,-z
x,-y,1/2+z
1/2+x,1/2+y,z
1/2-x,1/2+y,1/2-z
1/2-x,1/2-y,-z
1/2+x,1/2-y,1/2+z
loop_
_atom_site_type_symbol
_atom_site_label
_atom_site_fract_x
_atom_site_fract_y
_atom_site_fract_z
Si Si1 0.000000 0.349206 0.750000
Si Si2 0.024838 0.259686 0.907102
Si Si3 0.203078 0.125467 0.894466
Si Si4 0.208473 0.883605 0.183577
Si Si5 0.545119 0.497194 0.794421
Si Si6 0.303346 0.217277 0.126424
Si Si7 0.833261 0.400184 0.433628
O O1 0.989798 0.300942 0.670935
O O2 0.154683 0.392071 0.551104
O O3 0.135077 0.193227 0.759551
O O4 0.100344 0.305088 0.899197
O O5 0.866597 0.230526 0.135166
O O6 0.273660 0.113583 0.709514
O O7 0.136072 0.204679 0.973802
O O8 0.309824 0.122379 0.855413
O O9 0.078219 0.064313 0.048391
O O10 0.074707 0.940165 0.330599
O O11 0.500000 0.531167 0.750000
O O12 0.702879 0.456288 0.606068
O O13 0.312195 0.164412 0.030435
O O14 0.000000 0.428652 0.250000
#
# Coordination Sequence:
#
# PCOD9286212 Si02
#       7
#     4   8   8   8   8   8   8
#     4  12  24  42  66 100 134 164 226 286 332 382
#     4  11  23  41  65 100 130 173 224 275 329 400
#     4  10  21  43  63  97 133 172 224 269 325 404
#     4  11  24  41  70  93 138 175 225 272 339 390
#     4  10  24  43  66  94 134 182 223 267 329 409
#     4  11  22  39  66  97 133 172 219 272 340 382
#     4  11  23  38  65  96 135 168 222 273 335 392
#
# _framework density 21.336341000000001
#
# number of rings (size 3 to 8) (size 9 to 14) (size 15 to 20)
#    0.000    1.231    3.077    4.154    2.154    1.846 
#    0.000    2.308    0.000    0.000    0.000    0.000 
#    0.000    0.000    0.000    0.000    0.000    0.000 
#
# Total GULP energy -145194.509820 kJ/mol
# GULP energy per Si atom -5584.404224 kJ/mol
# Density = 2.128778 g / cm^3
# Si number density = 21.336341 Si / 1000 Ang^3
#
#
#
# Elastic Constant Matrix: (Units=GPa)
#
#
# Indices 1 2 3 4 5 6 
#
# 1 176.2247 41.2221 36.2574 -0.0002 -5.3039 0.0007
# 2 41.2221 66.2132 8.7865 0.0011 3.7646 0.0008
# 3 36.2574 8.7865 105.5792 0.0003 -8.2278 0.0010
# 4 -0.0002 0.0011 0.0003 16.7404 -0.0004 -7.0055
# 5 -5.3039 3.7646 -8.2278 -0.0004 28.4302 0.0002
# 6 0.0007 0.0008 0.0010 -7.0055 0.0002 22.3462
#
#
#
# Elastic Compliance Matrix: (Units=1/GPa)
#
#
# Indices 1 2 3 4 5 6 
#
# 1 0.007115 -0.004240 -0.001988 0.000000 0.001314 0.000000
# 2 -0.004240 0.017967 -0.000293 -0.000002 -0.003255 -0.000001
# 3 -0.001988 -0.000293 0.010387 0.000000 0.002674 0.000000
# 4 0.000000 -0.000002 0.000000 0.068756 0.000001 0.021555
# 5 0.001314 -0.003255 0.002674 0.000001 0.036624 0.000000
# 6 0.000000 -0.000001 0.000000 0.021555 0.000000 0.051508
#
#
# Mechanical properties :
#
#
# Convention : Reuss Voigt Hill
#
# Bulk Modulus (GPa) = 44.59066 57.83879 51.21472
# Shear Modulus (GPa) = 23.48807 30.95342 27.22075
#
# Velocity S-wave (km/s) = 3.32150 3.81299 3.57570
# Velocity P-wave (km/s) = 5.97111 6.82291 6.41117
#
# Compressibility (1/GPa) = 0.02242622
#
# Stress axis : x y z
#
# Youngs Moduli (GPa) = 140.54649 55.65886 96.27366
#
# Poissons Ratio (x) = 0.23602 0.19141
# Poissons Ratio (y) = 0.59598 0.02817
# Poissons Ratio (z) = 0.27943 0.01629
#
# Static dielectric constant tensor:
#      x y z
#    x 1.789290 0.000000 0.012890 
#    y 0.000000 1.784650 0.000000 
#    z 0.012890 0.000000 1.798950 
# 
# From -- ./inp_files/163609.got.cif
#   From: 2010.05.17/outbox.cif.g08.bks.cpg/sg15_82_cif.got.tgz:163609.got - 2010.06.03 18:47:42.
