data_PCOD9286728
_publ_section_title
;
Structure prediction by ZEFSAII (Michael W. Deem and Ramdas Pophale) SiO2 
 PCOD9286728
Probable space group: C 2/C
;
_chemical_formula_sum "Si O2"
_cell_formula_units_Z 60
_cell_length_a 19.299455
_cell_length_b 13.326619
_cell_length_c 10.834019
_cell_angle_alpha 90.000000
_cell_angle_beta 99.740333
_cell_angle_gamma 90.000000
_cell_volume 2746.303538
_symmetry_space_group_name_H-M "C 2/C"
_symmetry_group_IT_number 15
_symmetry_cell_setting 'monoclinic'
loop_
_space_group_symop_operation_xyz
x,y,z
-x,y,1/2-z
-x,-y,-z
x,-y,1/2+z
1/2+x,1/2+y,z
1/2-x,1/2+y,1/2-z
1/2-x,1/2-y,-z
1/2+x,1/2-y,1/2+z
loop_
_atom_site_type_symbol
_atom_site_label
_atom_site_fract_x
_atom_site_fract_y
_atom_site_fract_z
Si Si1 0.349985 0.899798 0.873726
Si Si2 0.642603 0.930915 0.334900
Si Si3 0.500000 0.811402 0.250000
Si Si4 0.863602 0.043695 0.820469
Si Si5 0.520009 0.624558 0.086151
Si Si6 0.041827 0.766641 0.147325
Si Si7 0.223392 0.240268 0.353165
Si Si8 0.138428 0.066205 0.408659
O O1 0.417023 0.824577 0.903682
O O2 0.284174 0.828190 0.814401
O O3 0.357631 0.978105 0.763354
O O4 0.341378 0.944694 0.011601
O O5 0.565624 0.880244 0.305871
O O6 0.698469 0.847869 0.300467
O O7 0.523474 0.731532 0.153774
O O8 0.899155 0.150361 0.806092
O O9 0.919491 0.953065 0.862133
O O10 0.830865 0.011314 0.680875
O O11 0.829026 0.053718 0.945113
O O12 0.445895 0.569601 0.096853
O O13 0.512481 0.663172 0.944684
O O14 0.000000 0.725474 0.250000
O O15 0.250000 0.250000 0.500000
O O16 0.154948 0.172797 0.353092
#
# Coordination Sequence:
#
# PCOD9286728 Si02
#       8
#     8   8   4   8   8   8   8   8
#     4  11  26  44  67  93 129 168 226 266 330 391
#     4  11  24  45  67  98 124 177 213 273 323 387
#     4  12  20  38  68  86 134 164 226 258 314 388
#     4  11  20  33  57  92 131 160 201 254 315 389
#     4  11  18  34  57  92 121 167 204 253 310 383
#     4  11  22  37  56  91 127 164 203 266 325 374
#     4  10  21  44  67  89 123 167 220 263 317 394
#     4  11  20  33  57  89 120 163 203 248 319 371
#
# _framework density 21.847546999999999
#
# number of rings (size 3 to 8) (size 9 to 14) (size 15 to 20)
#    0.000    1.067    4.000    5.600    0.933    4.800 
#    0.000    2.000    0.000    0.000    0.000    0.000 
#    0.000    0.000    0.000    0.000    0.000    0.000 
#
# Total GULP energy -167174.996072 kJ/mol
# GULP energy per Si atom -5572.499869 kJ/mol
# Density = 2.179782 g / cm^3
# Si number density = 21.847547 Si / 1000 Ang^3
#
#
#
# Elastic Constant Matrix: (Units=GPa)
#
#
# Indices 1 2 3 4 5 6 
#
# 1 66.4862 40.0579 33.5153 0.0000 0.3616 0.0000
# 2 40.0579 118.1049 42.5716 0.0000 -9.9290 0.0000
# 3 33.5153 42.5716 104.2948 0.0000 -18.7357 0.0000
# 4 0.0000 0.0000 0.0000 42.6697 0.0000 -4.0286
# 5 0.3616 -9.9290 -18.7357 0.0000 23.6172 0.0000
# 6 0.0000 0.0000 0.0000 -4.0286 0.0000 23.8893
#
#
#
# Elastic Compliance Matrix: (Units=1/GPa)
#
#
# Indices 1 2 3 4 5 6 
#
# 1 0.021553 -0.005813 -0.005891 0.000000 -0.007447 0.000000
# 2 -0.005813 0.011521 -0.002272 0.000000 0.003130 0.000000
# 3 -0.005891 -0.002272 0.014290 0.000000 0.010471 0.000000
# 4 0.000000 0.000000 0.000000 0.023815 0.000000 0.004016
# 5 -0.007447 0.003130 0.010471 0.000000 0.052079 0.000000
# 6 0.000000 0.000000 0.000000 0.004016 0.000000 0.042537
#
#
# Mechanical properties :
#
#
# Convention : Reuss Voigt Hill
#
# Bulk Modulus (GPa) = 51.51730 57.90838 54.71284
# Shear Modulus (GPa) = 24.97274 29.55131 27.26202
#
# Velocity S-wave (km/s) = 3.38456 3.68178 3.53630
# Velocity P-wave (km/s) = 6.23741 6.68111 6.46307
#
# Compressibility (1/GPa) = 0.01941096
#
# Stress axis : x y z
#
# Youngs Moduli (GPa) = 46.39689 86.79944 69.97880
#
# Poissons Ratio (x) = 0.50454 0.41227
# Poissons Ratio (y) = 0.26969 0.15902
# Poissons Ratio (z) = 0.27334 0.19725
#
# Static dielectric constant tensor:
#      x y z
#    x 1.911520 0.000000 0.042370 
#    y 0.000000 1.833920 0.000000 
#    z 0.042370 0.000000 1.899450 
# 
# From -- ./inp_files/111650.got.cif
#   From: 2010.05.17/outbox.cif.g08.bks.cpg/sg15_56_cif.got.tgz:111650.got - 2010.06.03 18:47:42.
