data_PCOD9286131
_publ_section_title
;
Structure prediction by ZEFSAII (Michael W. Deem and Ramdas Pophale) SiO2 
 PCOD9286131
Probable space group: C 2/C
;
_chemical_formula_sum "Si O2"
_cell_formula_units_Z 40
_cell_length_a 14.509235
_cell_length_b 14.171395
_cell_length_c 9.455033
_cell_angle_alpha 90.000000
_cell_angle_beta 115.378007
_cell_angle_gamma 90.000000
_cell_volume 1756.500441
_symmetry_space_group_name_H-M "C 2/C"
_symmetry_group_IT_number 15
_symmetry_cell_setting 'monoclinic'
loop_
_space_group_symop_operation_xyz
x,y,z
-x,y,1/2-z
-x,-y,-z
x,-y,1/2+z
1/2+x,1/2+y,z
1/2-x,1/2+y,1/2-z
1/2-x,1/2-y,-z
1/2+x,1/2-y,1/2+z
loop_
_atom_site_type_symbol
_atom_site_label
_atom_site_fract_x
_atom_site_fract_y
_atom_site_fract_z
Si Si1 0.983858 0.760746 0.468979
Si Si2 0.847078 0.799363 0.133504
Si Si3 0.100588 0.923482 0.894056
Si Si4 0.441148 0.932249 0.357037
Si Si5 0.710995 0.488699 0.238208
O O1 0.897504 0.737597 0.294063
O O2 0.933009 0.824158 0.557820
O O3 0.067694 0.814932 0.430257
O O4 0.044529 0.672457 0.571451
O O5 0.817039 0.897279 0.185987
O O6 0.750000 0.750000 0.000000
O O7 0.000000 0.962231 0.750000
O O8 0.185256 0.924155 0.825062
O O9 0.142047 0.983120 0.053325
O O10 0.500000 0.934190 0.250000
O O11 0.326859 0.971121 0.269710
O O12 0.500000 0.000000 0.500000
#
# Coordination Sequence:
#
# PCOD9286131 Si02
#       5
#     8   8   8   8   8
#     4  10  24  44  71 105 140 186 230 295 346 416
#     4  10  21  42  73 102 142 184 233 280 358 421
#     4  11  25  45  70 106 147 182 234 292 350 420
#     4  12  27  49  71 101 143 183 239 292 351 419
#     4  11  25  44  71 106 138 189 231 284 358 417
#
# _framework density 22.772555000000001
#
# number of rings (size 3 to 8) (size 9 to 14) (size 15 to 20)
#    0.000    1.200    2.000    2.400   11.200    1.600 
#    3.600    6.000    0.000    0.000    0.000    0.000 
#    0.000    0.000    0.000    0.000    0.000    0.000 
#
# Total GULP energy -111887.892554 kJ/mol
# GULP energy per Si atom -5594.394628 kJ/mol
# Density = 2.272072 g / cm^3
# Si number density = 22.772555 Si / 1000 Ang^3
#
#
#
# Elastic Constant Matrix: (Units=GPa)
#
#
# Indices 1 2 3 4 5 6 
#
# 1 154.9394 41.0823 68.4675 0.0000 1.1448 0.0000
# 2 41.0823 58.7478 47.1877 0.0000 -2.2658 0.0000
# 3 68.4675 47.1877 169.6401 0.0000 15.9646 0.0000
# 4 0.0000 0.0000 0.0000 24.6789 0.0000 -9.1319
# 5 1.1448 -2.2658 15.9646 0.0000 41.6837 0.0000
# 6 0.0000 0.0000 0.0000 -9.1319 0.0000 29.8208
#
#
#
# Elastic Compliance Matrix: (Units=1/GPa)
#
#
# Indices 1 2 3 4 5 6 
#
# 1 0.008580 -0.004078 -0.002371 0.000000 0.000451 0.000000
# 2 -0.004078 0.024409 -0.005477 0.000000 0.003536 0.000000
# 3 -0.002371 -0.005477 0.008711 0.000000 -0.003569 0.000000
# 4 0.000000 0.000000 0.000000 0.045699 0.000000 0.013994
# 5 0.000451 0.003536 -0.003569 0.000000 0.025537 0.000000
# 6 0.000000 0.000000 0.000000 0.013994 0.000000 0.037819
#
#
# Mechanical properties :
#
#
# Convention : Reuss Voigt Hill
#
# Bulk Modulus (GPa) = 56.02653 77.42249 66.72451
# Shear Modulus (GPa) = 27.69236 34.34265 31.01751
#
# Velocity S-wave (km/s) = 3.49096 3.88760 3.69461
# Velocity P-wave (km/s) = 6.39571 7.36364 6.89668
#
# Compressibility (1/GPa) = 0.01784869
#
# Stress axis : x y z
#
# Youngs Moduli (GPa) = 116.55265 40.96845 114.79785
#
# Poissons Ratio (x) = 0.16707 0.27217
# Poissons Ratio (y) = 0.47532 0.62870
# Poissons Ratio (z) = 0.27633 0.22437
#
# Static dielectric constant tensor:
#      x y z
#    x 1.850520 0.000000 0.017330 
#    y 0.000000 1.866710 0.000000 
#    z 0.017330 0.000000 1.821330 
# 
# From -- ./inp_files/38049.got.cif
#   From: 2010.05.17/outbox.cif.g08.bks.cpg/sg15_20_cif.got.tgz:38049.got - 2010.06.03 18:47:42.
