data_PCOD9286564
_publ_section_title
;
Structure prediction by ZEFSAII (Michael W. Deem and Ramdas Pophale) SiO2 
 PCOD9286564
Probable space group: C 2/C
;
_chemical_formula_sum "Si O2"
_cell_formula_units_Z 48
_cell_length_a 15.011512
_cell_length_b 16.165319
_cell_length_c 9.361504
_cell_angle_alpha 90.000000
_cell_angle_beta 68.662678
_cell_angle_gamma 90.000000
_cell_volume 2116.001386
_symmetry_space_group_name_H-M "C 2/C"
_symmetry_group_IT_number 15
_symmetry_cell_setting 'monoclinic'
loop_
_space_group_symop_operation_xyz
x,y,z
-x,y,1/2-z
-x,-y,-z
x,-y,1/2+z
1/2+x,1/2+y,z
1/2-x,1/2+y,1/2-z
1/2-x,1/2-y,-z
1/2+x,1/2-y,1/2+z
loop_
_atom_site_type_symbol
_atom_site_label
_atom_site_fract_x
_atom_site_fract_y
_atom_site_fract_z
Si Si1 0.509781 0.352713 0.907972
Si Si2 0.270116 0.906958 0.095177
Si Si3 0.027648 0.318971 0.565389
Si Si4 0.706838 0.565274 0.314255
Si Si5 0.689324 0.652195 0.896813
Si Si6 0.835705 0.661005 0.036665
O O1 0.500000 0.322826 0.750000
O O2 0.595573 0.417922 0.857180
O O3 0.535235 0.274468 0.995983
O O4 0.409433 0.394494 0.014841
O O5 0.209299 0.839017 0.218012
O O6 0.250611 0.985249 0.210162
O O7 0.376146 0.871167 0.014986
O O8 0.230081 0.931169 0.966296
O O9 0.000000 0.315956 0.750000
O O10 0.941307 0.362304 0.526195
O O11 0.762405 0.639812 0.204838
O O12 0.662617 0.740637 0.978508
O O13 0.785596 0.625698 0.923914
#
# Coordination Sequence:
#
# PCOD9286564 Si02
#       6
#     8   8   8   8   8   8
#     4  11  25  45  76 110 140 186 240 301 358 425
#     4  12  28  46  67 102 146 198 240 293 355 430
#     4  11  25  45  73 111 141 185 242 301 358 416
#     4  12  26  46  68  99 146 193 241 292 356 425
#     4  10  23  43  72 106 139 187 238 297 361 419
#     4  10  21  43  72 102 139 182 240 296 356 419
#
# _framework density 22.684296
#
# number of rings (size 3 to 8) (size 9 to 14) (size 15 to 20)
#    0.000    1.000    3.333    2.000    9.333    2.667 
#    0.000    0.000    0.000    0.000    0.000    0.000 
#    0.000    0.000    0.000    0.000    0.000    0.000 
#
# Total GULP energy -134032.963495 kJ/mol
# GULP energy per Si atom -5584.706812 kJ/mol
# Density = 2.263267 g / cm^3
# Si number density = 22.684296 Si / 1000 Ang^3
#
#
#
# Elastic Constant Matrix: (Units=GPa)
#
#
# Indices 1 2 3 4 5 6 
#
# 1 109.2324 43.5710 49.8286 0.0000 -0.2421 0.0000
# 2 43.5710 66.6240 35.9544 0.0000 2.6950 0.0000
# 3 49.8286 35.9544 161.9002 0.0000 13.6521 0.0000
# 4 0.0000 0.0000 0.0000 33.2924 0.0000 3.5518
# 5 -0.2421 2.6950 13.6521 0.0000 43.7546 0.0000
# 6 0.0000 0.0000 0.0000 3.5518 0.0000 7.9608
#
#
#
# Elastic Compliance Matrix: (Units=1/GPa)
#
#
# Indices 1 2 3 4 5 6 
#
# 1 0.013253 -0.007339 -0.002561 0.000000 0.001324 0.000000
# 2 -0.007339 0.021118 -0.002381 0.000000 -0.000599 0.000000
# 3 -0.002561 -0.002381 0.007685 0.000000 -0.002265 0.000000
# 4 0.000000 0.000000 0.000000 0.031538 0.000000 -0.014071
# 5 0.001324 -0.000599 -0.002265 0.000000 0.023606 0.000000
# 6 0.000000 0.000000 0.000000 -0.014071 0.000000 0.131894
#
#
# Mechanical properties :
#
#
# Convention : Reuss Voigt Hill
#
# Bulk Modulus (GPa) = 57.15943 66.27385 61.71664
# Shear Modulus (GPa) = 19.26880 30.89505 25.08192
#
# Velocity S-wave (km/s) = 2.91767 3.69447 3.32881
# Velocity P-wave (km/s) = 6.05003 6.89043 6.48386
#
# Compressibility (1/GPa) = 0.01749493
#
# Stress axis : x y z
#
# Youngs Moduli (GPa) = 75.45267 47.35256 130.13188
#
# Poissons Ratio (x) = 0.34752 0.33325
# Poissons Ratio (y) = 0.55375 0.30980
# Poissons Ratio (z) = 0.19322 0.11273
#
# Static dielectric constant tensor:
#      x y z
#    x 1.894850 0.000000 0.000030 
#    y 0.000000 2.031340 0.000000 
#    z 0.000030 0.000000 1.839110 
# 
# From -- ./inp_files/40680.got.cif
#   From: 2010.05.17/outbox.cif.g08.bks.cpg/sg15_21_cif.got.tgz:40680.got - 2010.06.03 18:47:42.
