data_PCOD9286506
_publ_section_title
;
Structure prediction by ZEFSAII (Michael W. Deem and Ramdas Pophale) SiO2 
 PCOD9286506
Probable space group: C 2/C
;
_chemical_formula_sum "Si O2"
_cell_formula_units_Z 56
_cell_length_a 9.204866
_cell_length_b 16.600896
_cell_length_c 26.485389
_cell_angle_alpha 90.000000
_cell_angle_beta 138.740527
_cell_angle_gamma 90.000000
_cell_volume 2669.011670
_symmetry_space_group_name_H-M "C 2/C"
_symmetry_group_IT_number 15
_symmetry_cell_setting 'monoclinic'
loop_
_space_group_symop_operation_xyz
x,y,z
-x,y,1/2-z
-x,-y,-z
x,-y,1/2+z
1/2+x,1/2+y,z
1/2-x,1/2+y,1/2-z
1/2-x,1/2-y,-z
1/2+x,1/2-y,1/2+z
loop_
_atom_site_type_symbol
_atom_site_label
_atom_site_fract_x
_atom_site_fract_y
_atom_site_fract_z
Si Si1 0.948469 0.468584 0.613761
Si Si2 0.709832 0.924537 0.823247
Si Si3 0.683579 0.507202 0.453386
Si Si4 0.238429 0.374909 0.183738
Si Si5 0.684398 0.823392 0.626611
Si Si6 0.188185 0.785900 0.730576
Si Si7 0.439664 0.864276 0.472832
O O1 0.851436 0.416035 0.634056
O O2 0.741017 0.496640 0.526894
O O3 0.097565 0.546866 0.663002
O O4 0.106409 0.413831 0.620059
O O5 0.500000 0.975150 0.750000
O O6 0.723757 0.847603 0.789533
O O7 0.936480 0.970355 0.877927
O O8 0.754802 0.424503 0.445797
O O9 0.844247 0.579424 0.478157
O O10 0.500000 0.393080 0.250000
O O11 0.198036 0.302815 0.211414
O O12 0.146733 0.342700 0.105332
O O13 0.682909 0.784806 0.682219
O O14 0.520009 0.801397 0.537041
O O15 0.936544 0.813575 0.675241
#
# Coordination Sequence:
#
# PCOD9286506 Si02
#       7
#     8   8   8   8   8   8   8
#     4  10  23  41  69  93 130 171 225 265 328 379
#     4  12  22  36  67 100 129 170 216 267 321 391
#     4   9  19  38  63 100 130 165 220 280 305 390
#     4  11  26  42  64  99 135 172 211 285 330 388
#     4  10  21  43  70  94 120 180 225 262 315 405
#     4  11  24  42  66  92 138 165 220 270 328 388
#     4   9  19  40  69  93 127 174 227 263 327 377
#
# _framework density 20.981549000000001
#
# number of rings (size 3 to 8) (size 9 to 14) (size 15 to 20)
#    0.000    1.714    2.857    1.714    4.000    0.571 
#    2.571    0.714    0.000    0.000    0.000    0.000 
#    0.000    0.000    0.000    0.000    0.000    0.000 
#
# Total GULP energy -156028.047673 kJ/mol
# GULP energy per Si atom -5572.430274 kJ/mol
# Density = 2.093379 g / cm^3
# Si number density = 20.981549 Si / 1000 Ang^3
#
#
#
# Elastic Constant Matrix: (Units=GPa)
#
#
# Indices 1 2 3 4 5 6 
#
# 1 109.8539 23.2303 29.4761 0.0000 -7.3864 0.0000
# 2 23.2303 44.3941 18.7116 0.0000 -6.6015 0.0000
# 3 29.4761 18.7116 90.5046 0.0001 -9.7554 0.0000
# 4 0.0000 0.0000 0.0001 15.1408 0.0000 -13.2436
# 5 -7.3864 -6.6015 -9.7554 0.0000 52.8878 0.0000
# 6 0.0000 0.0000 0.0000 -13.2436 0.0000 13.8548
#
#
#
# Elastic Compliance Matrix: (Units=1/GPa)
#
#
# Indices 1 2 3 4 5 6 
#
# 1 0.010763 -0.004497 -0.002524 0.000000 0.000476 0.000000
# 2 -0.004497 0.026804 -0.003861 0.000000 0.002005 0.000000
# 3 -0.002524 -0.003861 0.012835 0.000000 0.001533 0.000000
# 4 0.000000 0.000000 0.000000 0.402988 0.000000 0.385211
# 5 0.000476 0.002005 0.001533 0.000000 0.019508 0.000000
# 6 0.000000 0.000000 0.000000 0.385211 0.000000 0.440395
#
#
# Mechanical properties :
#
#
# Convention : Reuss Voigt Hill
#
# Bulk Modulus (GPa) = 34.91933 43.06538 38.99235
# Shear Modulus (GPa) = 5.29322 27.93235 16.61278
#
# Velocity S-wave (km/s) = 1.59006 3.65263 2.81691
# Velocity P-wave (km/s) = 4.47773 6.19345 5.40411
#
# Compressibility (1/GPa) = 0.02863743
#
# Stress axis : x y z
#
# Youngs Moduli (GPa) = 92.90750 37.30727 77.91353
#
# Poissons Ratio (x) = 0.16779 0.19668
# Poissons Ratio (y) = 0.41784 0.30081
# Poissons Ratio (z) = 0.23453 0.14404
#
# Static dielectric constant tensor:
#      x y z
#    x 1.794640 0.000000 -0.067970 
#    y 0.000000 1.716460 0.000000 
#    z -0.067970 0.000000 1.846810 
# 
# From -- ./inp_files/289759.got.cif
#   From: 2010.05.17/outbox.cif.g08.bks.cpg/sg15_145_cif.got.tgz:289759.got - 2010.06.03 18:47:42.
