data_PCOD9286202
_publ_section_title
;
Structure prediction by ZEFSAII (Michael W. Deem and Ramdas Pophale) SiO2 
 PCOD9286202
Probable space group: C 2/C
;
_chemical_formula_sum "Si O2"
_cell_formula_units_Z 32
_cell_length_a 10.371518
_cell_length_b 10.736884
_cell_length_c 23.434966
_cell_angle_alpha 90.000000
_cell_angle_beta 152.240411
_cell_angle_gamma 90.000000
_cell_volume 1215.484850
_symmetry_space_group_name_H-M "C 2/C"
_symmetry_group_IT_number 15
_symmetry_cell_setting 'monoclinic'
loop_
_space_group_symop_operation_xyz
x,y,z
-x,y,1/2-z
-x,-y,-z
x,-y,1/2+z
1/2+x,1/2+y,z
1/2-x,1/2+y,1/2-z
1/2-x,1/2-y,-z
1/2+x,1/2-y,1/2+z
loop_
_atom_site_type_symbol
_atom_site_label
_atom_site_fract_x
_atom_site_fract_y
_atom_site_fract_z
Si Si1 0.817473 0.855180 0.370502
Si Si2 0.324534 0.653308 0.375329
Si Si3 0.588270 0.566776 0.878023
Si Si4 0.419172 0.906928 0.389969
O O1 0.500000 0.809812 0.250000
O O2 0.990314 0.832367 0.495071
O O3 0.990497 0.821764 0.381561
O O4 0.811062 0.005502 0.359978
O O5 0.438917 0.762797 0.379240
O O6 0.000000 0.686319 0.250000
O O7 0.298647 0.522813 0.735990
O O8 0.778292 0.595672 0.897420
O O9 0.789283 0.474254 0.991475
#
# Coordination Sequence:
#
# PCOD9286202 Si02
#       4
#     8   8   8   8
#     4  10  24  42  63  93 126 164 208 256 307 369
#     4  10  21  43  63  92 125 163 210 254 314 360
#     4  10  22  42  65  90 128 161 209 254 310 365
#     4  10  22  44  63  94 122 168 204 259 311 361
#
# _framework density 26.326941000000001
#
# number of rings (size 3 to 8) (size 9 to 14) (size 15 to 20)
#    0.000    2.000    2.500    0.000   10.500    2.000 
#    9.000    0.000    0.000    0.000    0.000    0.000 
#    0.000    0.000    0.000    0.000    0.000    0.000 
#
# Total GULP energy -89294.440321 kJ/mol
# GULP energy per Si atom -5580.902520 kJ/mol
# Density = 2.626702 g / cm^3
# Si number density = 26.326941 Si / 1000 Ang^3
#
#
#
# Elastic Constant Matrix: (Units=GPa)
#
#
# Indices 1 2 3 4 5 6 
#
# 1 102.3673 -20.8162 49.9309 0.0002 5.4647 0.0001
# 2 -20.8162 65.2824 79.0586 0.0001 -2.7305 0.0001
# 3 49.9309 79.0586 172.9519 0.0008 40.8291 -0.0002
# 4 0.0002 0.0001 0.0008 41.5097 0.0004 4.9817
# 5 5.4647 -2.7305 40.8291 0.0004 31.7410 -0.0001
# 6 0.0001 0.0001 -0.0002 4.9817 -0.0001 9.7820
#
#
#
# Elastic Compliance Matrix: (Units=1/GPa)
#
#
# Indices 1 2 3 4 5 6 
#
# 1 -0.004822 -0.028443 0.021219 0.000000 -0.028911 0.000001
# 2 -0.028443 -0.049241 0.043893 0.000000 -0.055799 0.000001
# 3 0.021219 0.043893 -0.029349 0.000000 0.037875 -0.000001
# 4 0.000000 0.000000 0.000000 0.025659 -0.000001 -0.013067
# 5 -0.028911 -0.055799 0.037875 -0.000001 -0.017037 0.000002
# 6 0.000001 0.000001 -0.000001 -0.013067 0.000002 0.108883
#
#
# Mechanical properties :
#
#
# Convention : Reuss Voigt Hill
#
# Bulk Modulus (GPa) = -99.25652 61.88313 -18.68670
# Shear Modulus (GPa) = -117.36951 32.10176 -42.63388
#
# Velocity S-wave (km/s) = -6.68418 3.49571 -4.02854
# Velocity P-wave (km/s) = 9.86683 6.31268 5.36211
#
# Compressibility (1/GPa) = -0.01007490
#
# Stress axis : x y z
#
# Youngs Moduli (GPa) = -207.39777 -20.30846 -34.07263
#
# Poissons Ratio (x) = -0.57764 0.72299
# Poissons Ratio (y) = -5.89911 1.49554
# Poissons Ratio (z) = 4.40077 0.89139
#
# Static dielectric constant tensor:
#      x y z
#    x 2.189370 0.000000 0.006710 
#    y 0.000000 2.100490 0.000000 
#    z 0.006710 0.000000 1.981390 
# 
# From -- ./inp_files/84058.got.cif
#   From: 2010.05.17/outbox.cif.g08.bks.cpg/sg15_43_cif.got.tgz:84058.got - 2010.06.03 18:47:42.
