data_PCOD9286644
_publ_section_title
;
Structure prediction by ZEFSAII (Michael W. Deem and Ramdas Pophale) SiO2 
 PCOD9286644
Probable space group: C 2/C
;
_chemical_formula_sum "Si O2"
_cell_formula_units_Z 60
_cell_length_a 12.084473
_cell_length_b 29.817562
_cell_length_c 13.337041
_cell_angle_alpha 90.000000
_cell_angle_beta 146.199126
_cell_angle_gamma 90.000000
_cell_volume 2673.467234
_symmetry_space_group_name_H-M "C 2/C"
_symmetry_group_IT_number 15
_symmetry_cell_setting 'monoclinic'
loop_
_space_group_symop_operation_xyz
x,y,z
-x,y,1/2-z
-x,-y,-z
x,-y,1/2+z
1/2+x,1/2+y,z
1/2-x,1/2+y,1/2-z
1/2-x,1/2-y,-z
1/2+x,1/2-y,1/2+z
loop_
_atom_site_type_symbol
_atom_site_label
_atom_site_fract_x
_atom_site_fract_y
_atom_site_fract_z
Si Si1 0.970601 0.224568 0.839763
Si Si2 0.478453 0.423172 0.353583
Si Si3 0.039498 0.685852 0.493713
Si Si4 0.742141 0.348948 0.638501
Si Si5 0.500000 0.956992 0.250000
Si Si6 0.942925 0.020704 0.090418
Si Si7 0.971375 0.125134 0.110123
Si Si8 0.381612 0.881192 0.295274
O O1 0.772383 0.195541 0.681611
O O2 0.000000 0.243093 0.750000
O O3 0.950824 0.265014 0.903483
O O4 0.149677 0.191706 0.005026
O O5 0.500000 0.422719 0.250000
O O6 0.668698 0.395122 0.535305
O O7 0.466710 0.474575 0.382958
O O8 0.280913 0.398791 0.246107
O O9 0.992470 0.657405 0.557485
O O10 0.968263 0.657104 0.343824
O O11 0.622830 0.347405 0.655247
O O12 0.704747 0.983234 0.399770
O O13 0.505724 0.923681 0.350220
O O14 0.000000 0.019564 0.250000
O O15 0.998698 0.071834 0.104530
O O16 0.000000 0.131315 0.250000
O O17 0.751987 0.135077 0.899577
#
# Coordination Sequence:
#
# PCOD9286644 Si02
#       8
#     8   8   8   8   4   8   8   8
#     4  12  25  45  66  96 134 167 215 274 336 405
#     4  10  21  44  63  95 140 174 216 286 325 391
#     4  12  25  41  66  97 125 171 217 270 327 402
#     4  11  24  38  66  95 130 167 220 262 335 396
#     4  10  22  42  64  98 128 178 228 270 324 396
#     4   9  20  39  65  90 132 175 223 269 330 379
#     4   9  19  39  66  92 123 175 219 269 319 380
#     4  10  23  39  68  97 133 169 228 276 324 396
#
# _framework density 22.442765000000001
#
# number of rings (size 3 to 8) (size 9 to 14) (size 15 to 20)
#    0.000    1.600    4.000    0.800    5.600    4.800 
#    4.800    2.667    1.467    2.400    0.000    0.000 
#    0.000    0.000    0.000    0.000    0.000    0.000 
#
# Total GULP energy -167494.053721 kJ/mol
# GULP energy per Si atom -5583.135124 kJ/mol
# Density = 2.239168 g / cm^3
# Si number density = 22.442765 Si / 1000 Ang^3
#
#
#
# Elastic Constant Matrix: (Units=GPa)
#
#
# Indices 1 2 3 4 5 6 
#
# 1 64.7619 15.6403 19.4902 0.0000 -15.1420 0.0000
# 2 15.6403 107.9741 43.4226 0.0000 -14.6546 0.0000
# 3 19.4902 43.4226 129.7782 -0.0001 -19.9499 0.0001
# 4 0.0000 0.0000 -0.0001 -39.0816 -0.0001 103.7969
# 5 -15.1420 -14.6546 -19.9499 -0.0001 41.5593 0.0001
# 6 0.0000 0.0000 0.0001 103.7969 0.0001 -134.6021
#
#
#
# Elastic Compliance Matrix: (Units=1/GPa)
#
#
# Indices 1 2 3 4 5 6 
#
# 1 0.017383 -0.001250 -0.001389 0.000000 0.005226 0.000000
# 2 -0.001250 0.010984 -0.003198 0.000000 0.001883 0.000000
# 3 -0.001389 -0.003198 0.009429 0.000000 0.002892 0.000000
# 4 0.000000 0.000000 0.000000 0.024414 0.000000 0.018827
# 5 0.005226 0.001883 0.002892 0.000000 0.028018 0.000000
# 6 0.000000 0.000000 0.000000 0.018827 0.000000 0.007089
#
#
# Mechanical properties :
#
#
# Convention : Reuss Voigt Hill
#
# Bulk Modulus (GPa) = 38.28253 51.06894 44.67573
# Shear Modulus (GPa) = 42.48150 -11.49416 15.49367
#
# Velocity S-wave (km/s) = 4.35545 -2.26554 2.63033
# Velocity P-wave (km/s) = 6.51061 3.99513 5.40135
#
# Compressibility (1/GPa) = 0.02612158
#
# Stress axis : x y z
#
# Youngs Moduli (GPa) = 57.52755 91.03987 106.05893
#
# Poissons Ratio (x) = 0.11381 0.14731
# Poissons Ratio (y) = 0.07192 0.33918
# Poissons Ratio (z) = 0.07990 0.29115
#
# Static dielectric constant tensor:
#      x y z
#    x 1.852170 0.000000 -0.011400 
#    y 0.000000 1.826710 0.000000 
#    z -0.011400 0.000000 1.853450 
# 
# From -- ./inp_files/157548.got.cif
#   From: 2010.05.17/outbox.cif.g08.bks.cpg/sg15_79_cif.got.tgz:157548.got - 2010.06.03 18:47:42.
