data_PCOD9286827
_publ_section_title
;
Structure prediction by ZEFSAII (Michael W. Deem and Ramdas Pophale) SiO2 
 PCOD9286827
Probable space group: C 2/C
;
_chemical_formula_sum "Si O2"
_cell_formula_units_Z 60
_cell_length_a 19.502144
_cell_length_b 26.219768
_cell_length_c 5.443421
_cell_angle_alpha 90.000000
_cell_angle_beta 59.140482
_cell_angle_gamma 90.000000
_cell_volume 2389.388480
_symmetry_space_group_name_H-M "C 2/C"
_symmetry_group_IT_number 15
_symmetry_cell_setting 'monoclinic'
loop_
_space_group_symop_operation_xyz
x,y,z
-x,y,1/2-z
-x,-y,-z
x,-y,1/2+z
1/2+x,1/2+y,z
1/2-x,1/2+y,1/2-z
1/2-x,1/2-y,-z
1/2+x,1/2-y,1/2+z
loop_
_atom_site_type_symbol
_atom_site_label
_atom_site_fract_x
_atom_site_fract_y
_atom_site_fract_z
Si Si1 0.590116 0.467898 0.773476
Si Si2 0.736688 0.398554 0.434665
Si Si3 0.890077 0.374813 0.434346
Si Si4 0.909824 0.479117 0.641746
Si Si5 0.359628 0.685621 0.082216
Si Si6 0.421511 0.788258 0.057840
Si Si7 0.722646 0.177151 0.003231
Si Si8 0.500000 0.386056 0.250000
O O1 0.580401 0.493697 0.523258
O O2 0.679518 0.445463 0.593504
O O3 0.532609 0.421323 0.967435
O O4 0.824039 0.402799 0.388202
O O5 0.745950 0.379096 0.138758
O O6 0.692347 0.350887 0.649151
O O7 0.918117 0.419351 0.563245
O O8 0.944225 0.339345 0.165274
O O9 0.842247 0.331638 0.668328
O O10 0.872232 0.507568 0.474201
O O11 0.000000 0.500000 0.500000
O O12 0.298969 0.704718 0.980020
O O13 0.426290 0.651004 0.828424
O O14 0.400316 0.729995 0.169744
O O15 0.334130 0.803168 0.108506
O O16 0.500000 0.780625 0.750000
#
# Coordination Sequence:
#
# PCOD9286827 Si02
#       8
#     8   8   8   8   8   8   8   4
#     4  11  25  43  71 109 153 199 253 310 382 442
#     4   9  23  42  68 100 141 195 243 315 369 457
#     4  10  24  44  68 102 145 182 251 313 381 449
#     4  10  24  44  69 101 135 190 247 299 378 448
#     4  10  21  44  70 101 143 190 252 298 384 463
#     4  11  24  42  71 106 143 188 243 318 385 458
#     4  10  23  43  69  99 144 192 242 307 389 447
#     4  10  22  44  70 104 150 202 248 316 374 466
#
# _framework density 25.111025999999999
#
# number of rings (size 3 to 8) (size 9 to 14) (size 15 to 20)
#    0.000    1.867    0.667    0.800    9.333    9.600 
#    2.400    0.000    0.000    0.000    0.000    0.000 
#    0.000    0.000    0.000    0.000    0.000    0.000 
#
# Total GULP energy -167381.393234 kJ/mol
# GULP energy per Si atom -5579.379774 kJ/mol
# Density = 2.505387 g / cm^3
# Si number density = 25.111026 Si / 1000 Ang^3
#
#
#
# Elastic Constant Matrix: (Units=GPa)
#
#
# Indices 1 2 3 4 5 6 
#
# 1 88.1553 44.2698 6.9373 0.0000 2.1989 0.0000
# 2 44.2698 118.7257 10.9160 0.0000 6.1125 0.0000
# 3 6.9373 10.9160 60.9013 0.0000 10.5283 0.0000
# 4 0.0000 0.0000 0.0000 21.7842 0.0000 -8.5465
# 5 2.1989 6.1125 10.5283 0.0000 37.6381 0.0000
# 6 0.0000 0.0000 0.0000 -8.5465 0.0000 46.4665
#
#
#
# Elastic Compliance Matrix: (Units=1/GPa)
#
#
# Indices 1 2 3 4 5 6 
#
# 1 0.013986 -0.005161 -0.000706 0.000000 0.000219 0.000000
# 2 -0.005161 0.010505 -0.001106 0.000000 -0.001095 0.000000
# 3 -0.000706 -0.001106 0.017507 0.000000 -0.004676 0.000000
# 4 0.000000 0.000000 0.000000 0.049475 0.000000 0.009100
# 5 0.000219 -0.001095 -0.004676 0.000000 0.028042 0.000000
# 6 0.000000 0.000000 0.000000 0.009100 0.000000 0.023195
#
#
# Mechanical properties :
#
#
# Convention : Reuss Voigt Hill
#
# Bulk Modulus (GPa) = 35.64750 43.55873 39.60311
# Shear Modulus (GPa) = 30.11946 34.88837 32.50391
#
# Velocity S-wave (km/s) = 3.46707 3.73146 3.60169
# Velocity P-wave (km/s) = 5.50038 5.99576 5.75341
#
# Compressibility (1/GPa) = 0.02805246
#
# Stress axis : x y z
#
# Youngs Moduli (GPa) = 71.50230 95.18989 57.11990
#
# Poissons Ratio (x) = 0.49130 0.04031
# Poissons Ratio (y) = 0.36904 0.06316
# Poissons Ratio (z) = 0.05046 0.10525
#
# Static dielectric constant tensor:
#      x y z
#    x 2.039270 0.000000 0.068630 
#    y 0.000000 2.020610 0.000000 
#    z 0.068630 0.000000 2.070430 
# 
# From -- ./inp_files/14397.got.cif
#   From: 2010.05.17/outbox.cif.g08.bks.cpg/sg15_8_cif.got.tgz:14397.got - 2010.06.03 18:47:42.
