data_PCOD9286095
_publ_section_title
;
Structure prediction by ZEFSAII (Michael W. Deem and Ramdas Pophale) SiO2 
 PCOD9286095
Probable space group: C 2/C
;
_chemical_formula_sum "Si O2"
_cell_formula_units_Z 60
_cell_length_a 16.638314
_cell_length_b 20.617298
_cell_length_c 8.177316
_cell_angle_alpha 90.000000
_cell_angle_beta 107.111664
_cell_angle_gamma 90.000000
_cell_volume 2680.948605
_symmetry_space_group_name_H-M "C 2/C"
_symmetry_group_IT_number 15
_symmetry_cell_setting 'monoclinic'
loop_
_space_group_symop_operation_xyz
x,y,z
-x,y,1/2-z
-x,-y,-z
x,-y,1/2+z
1/2+x,1/2+y,z
1/2-x,1/2+y,1/2-z
1/2-x,1/2-y,-z
1/2+x,1/2-y,1/2+z
loop_
_atom_site_type_symbol
_atom_site_label
_atom_site_fract_x
_atom_site_fract_y
_atom_site_fract_z
Si Si1 0.500000 0.593564 0.750000
Si Si2 0.434190 0.188034 0.860546
Si Si3 0.684338 0.427000 0.330589
Si Si4 0.763941 0.800094 0.312648
Si Si5 0.227034 0.159118 0.314298
Si Si6 0.276468 0.028869 0.199437
Si Si7 0.055885 0.549503 0.628737
Si Si8 0.539918 0.329342 0.590566
O O1 0.411065 0.558445 0.677526
O O2 0.505599 0.632550 0.581613
O O3 0.500000 0.189941 0.750000
O O4 0.337741 0.193668 0.742771
O O5 0.434152 0.119120 0.951557
O O6 0.456805 0.254265 0.963979
O O7 0.697824 0.351991 0.289198
O O8 0.705452 0.476190 0.198149
O O9 0.753301 0.443639 0.509029
O O10 0.793331 0.822160 0.510277
O O11 0.777344 0.723631 0.284795
O O12 0.274976 0.091182 0.319375
O O13 0.138155 0.150968 0.168233
O O14 0.360701 0.987229 0.264786
O O15 0.000000 0.565715 0.750000
O O16 0.000000 0.500000 0.500000
O O17 0.500000 0.335593 0.750000
#
# Coordination Sequence:
#
# PCOD9286095 Si02
#       8
#     4   8   8   8   8   8   8   8
#     4  12  26  48  68 108 142 180 246 300 354 426
#     4   9  20  39  69  96 134 179 222 280 349 427
#     4  12  26  45  68 100 137 185 231 296 350 422
#     4  10  21  42  71  97 135 178 231 290 354 425
#     4  10  22  42  70 100 126 186 233 279 360 423
#     4  12  25  45  69  95 139 182 230 287 354 418
#     4  11  24  42  63  96 134 176 227 275 343 425
#     4  10  21  45  71 101 139 179 232 295 358 417
#
# _framework density 22.380137999999999
#
# number of rings (size 3 to 8) (size 9 to 14) (size 15 to 20)
#    0.000    1.333    2.667    2.400    3.733    2.133 
#    2.400    0.000    0.000    0.000    0.000    0.000 
#    0.000    0.000    0.000    0.000    0.000    0.000 
#
# Total GULP energy -167439.030475 kJ/mol
# GULP energy per Si atom -5581.301016 kJ/mol
# Density = 2.232920 g / cm^3
# Si number density = 22.380138 Si / 1000 Ang^3
#
#
#
# Elastic Constant Matrix: (Units=GPa)
#
#
# Indices 1 2 3 4 5 6 
#
# 1 88.9004 19.6048 -5.8295 0.0000 13.5518 0.0000
# 2 19.6048 82.9869 -14.7928 0.0000 -3.4479 0.0000
# 3 -5.8295 -14.7928 57.7830 0.0000 0.1627 0.0000
# 4 0.0000 0.0000 0.0000 21.7952 0.0000 -4.4697
# 5 13.5518 -3.4479 0.1627 0.0000 21.7950 0.0000
# 6 0.0000 0.0000 0.0000 -4.4697 0.0000 34.5779
#
#
#
# Elastic Compliance Matrix: (Units=1/GPa)
#
#
# Indices 1 2 3 4 5 6 
#
# 1 0.013394 -0.003445 0.000494 0.000000 -0.008877 0.000000
# 2 -0.003445 0.013598 0.003122 0.000000 0.004270 0.000000
# 3 0.000494 0.003122 0.018155 0.000000 0.000051 0.000000
# 4 0.000000 0.000000 0.000000 0.047131 0.000000 0.006092
# 5 -0.008877 0.004270 0.000051 0.000000 0.052077 0.000000
# 6 0.000000 0.000000 0.000000 0.006092 0.000000 0.029708
#
#
# Mechanical properties :
#
#
# Convention : Reuss Voigt Hill
#
# Bulk Modulus (GPa) = 21.98353 25.29281 23.63817
# Shear Modulus (GPa) = 26.47146 31.01280 28.74213
#
# Velocity S-wave (km/s) = 3.44293 3.72658 3.58756
# Velocity P-wave (km/s) = 5.06450 5.46283 5.26743
#
# Compressibility (1/GPa) = 0.04548861
#
# Stress axis : x y z
#
# Youngs Moduli (GPa) = 74.66157 73.54175 55.08126
#
# Poissons Ratio (x) = 0.25334 -0.02723
# Poissons Ratio (y) = 0.25720 -0.17194
# Poissons Ratio (z) = -0.03691 -0.22956
#
# Static dielectric constant tensor:
#      x y z
#    x 1.859820 0.000000 -0.030260 
#    y 0.000000 1.939930 0.000000 
#    z -0.030260 0.000000 1.807750 
# 
# From -- ./inp_files/50672.got.cif
#   From: 2010.05.17/outbox.cif.g08.bks.cpg/sg15_26_cif.got.tgz:50672.got - 2010.06.03 18:47:42.
