data_PCOD9286157
_publ_section_title
;
Structure prediction by ZEFSAII (Michael W. Deem and Ramdas Pophale) SiO2 
 PCOD9286157
Probable space group: C 2/C
;
_chemical_formula_sum "Si O2"
_cell_formula_units_Z 36
_cell_length_a 8.095191
_cell_length_b 14.758654
_cell_length_c 13.534407
_cell_angle_alpha 90.000000
_cell_angle_beta 54.387258
_cell_angle_gamma 90.000000
_cell_volume 1314.583838
_symmetry_space_group_name_H-M "C 2/C"
_symmetry_group_IT_number 15
_symmetry_cell_setting 'monoclinic'
loop_
_space_group_symop_operation_xyz
x,y,z
-x,y,1/2-z
-x,-y,-z
x,-y,1/2+z
1/2+x,1/2+y,z
1/2-x,1/2+y,1/2-z
1/2-x,1/2-y,-z
1/2+x,1/2-y,1/2+z
loop_
_atom_site_type_symbol
_atom_site_label
_atom_site_fract_x
_atom_site_fract_y
_atom_site_fract_z
Si Si1 0.500000 0.614710 0.750000
Si Si2 0.765267 0.526721 0.082290
Si Si3 0.336242 0.071670 0.375685
Si Si4 0.597288 0.241796 0.372589
Si Si5 0.487121 0.687601 0.126181
O O1 0.320004 0.542438 0.807586
O O2 0.516738 0.679122 0.649875
O O3 0.660802 0.625488 0.120349
O O4 0.714161 0.491557 0.991163
O O5 0.000000 0.500000 0.000000
O O6 0.500000 0.021747 0.250000
O O7 0.470948 0.150935 0.384607
O O8 0.175797 0.118267 0.361189
O O9 0.572283 0.263510 0.497676
O O10 0.827799 0.248362 0.246346
#
# Coordination Sequence:
#
# PCOD9286157 Si02
#       5
#     4   8   8   8   8
#     4  12  24  46  76 110 160 206 252 324 402 456
#     4  12  29  45  70 112 161 204 261 324 390 465
#     4  10  21  42  76 109 150 197 256 316 391 469
#     4  11  22  45  84 114 152 207 265 322 393 471
#     4  11  23  46  78 116 152 206 263 322 392 472
#
# _framework density 27.385093000000001
#
# number of rings (size 3 to 8) (size 9 to 14) (size 15 to 20)
#    0.000    0.889    5.556    2.667    6.222    0.000 
#    0.000    6.667    0.000    0.000    0.000    0.000 
#    0.000    0.000    0.000    0.000    0.000    0.000 
#
# Total GULP energy -100586.086166 kJ/mol
# GULP energy per Si atom -5588.115898 kJ/mol
# Density = 2.732276 g / cm^3
# Si number density = 27.385093 Si / 1000 Ang^3
#
#
#
# Elastic Constant Matrix: (Units=GPa)
#
#
# Indices 1 2 3 4 5 6 
#
# 1 134.6526 5.5850 15.2542 0.0000 -19.9452 0.0000
# 2 5.5850 103.5365 71.8953 0.0000 -5.6439 0.0000
# 3 15.2542 71.8953 171.5869 0.0000 -7.6832 0.0000
# 4 0.0000 0.0000 0.0000 52.3774 0.0000 8.2388
# 5 -19.9452 -5.6439 -7.6832 0.0000 45.3887 0.0000
# 6 0.0000 0.0000 0.0000 8.2388 0.0000 32.6402
#
#
#
# Elastic Compliance Matrix: (Units=1/GPa)
#
#
# Indices 1 2 3 4 5 6 
#
# 1 0.007999 0.000201 -0.000642 0.000000 0.003431 0.000000
# 2 0.000201 0.013651 -0.005701 0.000000 0.000821 0.000000
# 3 -0.000642 -0.005701 0.008292 0.000000 0.000413 0.000000
# 4 0.000000 0.000000 0.000000 0.019882 0.000000 -0.005018
# 5 0.003431 0.000821 0.000413 0.000000 0.023712 0.000000
# 6 0.000000 0.000000 0.000000 -0.005018 0.000000 0.031904
#
#
# Mechanical properties :
#
#
# Convention : Reuss Voigt Hill
#
# Bulk Modulus (GPa) = 56.62722 66.13833 61.38277
# Shear Modulus (GPa) = 40.45014 47.21736 43.83375
#
# Velocity S-wave (km/s) = 3.84746 4.15685 4.00514
# Velocity P-wave (km/s) = 6.36084 6.87335 6.62205
#
# Compressibility (1/GPa) = 0.01765935
#
# Stress axis : x y z
#
# Youngs Moduli (GPa) = 125.01318 73.25448 120.59523
#
# Poissons Ratio (x) = -0.01474 0.07740
# Poissons Ratio (y) = -0.02516 0.68751
# Poissons Ratio (z) = 0.08023 0.41762
#
# Static dielectric constant tensor:
#      x y z
#    x 2.246970 0.000000 -0.111280 
#    y 0.000000 2.159890 0.000000 
#    z -0.111280 0.000000 2.038270 
# 
# From -- ./inp_files/134171.got.cif
#   From: 2010.05.17/outbox.cif.g08.bks.cpg/sg15_68_cif.got.tgz:134171.got - 2010.06.03 18:47:42.
