data_PCOD9286952
_publ_section_title
;
Structure prediction by ZEFSAII (Michael W. Deem and Ramdas Pophale) SiO2 
 PCOD9286952
Probable space group: C 2/C
;
_chemical_formula_sum "Si O2"
_cell_formula_units_Z 44
_cell_length_a 21.524481
_cell_length_b 17.118417
_cell_length_c 15.760050
_cell_angle_alpha 90.000000
_cell_angle_beta 158.414283
_cell_angle_gamma 90.000000
_cell_volume 2136.363375
_symmetry_space_group_name_H-M "C 2/C"
_symmetry_group_IT_number 15
_symmetry_cell_setting 'monoclinic'
loop_
_space_group_symop_operation_xyz
x,y,z
-x,y,1/2-z
-x,-y,-z
x,-y,1/2+z
1/2+x,1/2+y,z
1/2-x,1/2+y,1/2-z
1/2-x,1/2-y,-z
1/2+x,1/2-y,1/2+z
loop_
_atom_site_type_symbol
_atom_site_label
_atom_site_fract_x
_atom_site_fract_y
_atom_site_fract_z
Si Si1 0.000000 0.753800 0.250000
Si Si2 0.065442 0.363451 0.490438
Si Si3 0.146294 0.508344 0.865420
Si Si4 0.066235 0.790166 0.747572
Si Si5 0.613431 0.565773 0.189796
Si Si6 0.151862 0.656510 0.288899
O O1 0.950686 0.701408 0.268210
O O2 0.163435 0.804885 0.480461
O O3 0.235627 0.409708 0.682238
O O4 0.061984 0.342045 0.584237
O O5 0.913050 0.418506 0.266029
O O6 0.053700 0.283619 0.423499
O O7 0.167407 0.432853 0.835937
O O8 0.000000 0.495432 0.750000
O O9 0.308371 0.526109 0.127269
O O10 0.051676 0.851327 0.651161
O O11 0.000000 0.828772 0.750000
O O12 0.250000 0.750000 0.000000
O O13 0.500000 0.500000 0.000000
#
# Coordination Sequence:
#
# PCOD9286952 Si02
#       6
#     4   8   8   8   8   8
#     4  10  26  44  64  98 138 192 234 308 354 454
#     4  11  24  43  73 105 141 190 246 297 371 444
#     4  10  21  45  67  96 143 180 232 304 364 427
#     4  12  23  47  75 103 148 192 242 305 364 433
#     4  11  26  44  72 112 145 185 243 306 365 437
#     4  11  24  43  69  95 141 183 244 290 373 428
#
# _framework density 20.595748
#
# number of rings (size 3 to 8) (size 9 to 14) (size 15 to 20)
#    0.000    1.091    4.545    1.091    5.091    2.909 
#    6.545    0.000    0.000    0.000    0.000    0.000 
#    0.000    0.000    0.000    0.000    0.000    0.000 
#
# Total GULP energy -122889.261047 kJ/mol
# GULP energy per Si atom -5585.875502 kJ/mol
# Density = 2.054887 g / cm^3
# Si number density = 20.595748 Si / 1000 Ang^3
#
#
#
# Elastic Constant Matrix: (Units=GPa)
#
#
# Indices 1 2 3 4 5 6 
#
# 1 102.6351 34.6907 51.0863 0.0000 -22.0950 0.0000
# 2 34.6907 123.1478 53.0308 0.0000 -13.1968 0.0000
# 3 51.0863 53.0308 101.9192 0.0000 -17.0850 0.0000
# 4 0.0000 0.0000 0.0000 39.4157 0.0000 -11.9151
# 5 -22.0950 -13.1968 -17.0850 0.0000 28.9244 0.0000
# 6 0.0000 0.0000 0.0000 -11.9151 0.0000 16.0284
#
#
#
# Elastic Compliance Matrix: (Units=1/GPa)
#
#
# Indices 1 2 3 4 5 6 
#
# 1 0.014360 -0.000889 -0.005510 0.000000 0.007309 0.000000
# 2 -0.000889 0.010599 -0.004853 0.000000 0.001290 0.000000
# 3 -0.005510 -0.004853 0.015563 0.000000 0.002770 0.000000
# 4 0.000000 0.000000 0.000000 0.032724 0.000000 0.024326
# 5 0.007309 0.001290 0.002770 0.000000 0.042381 0.000000
# 6 0.000000 0.000000 0.000000 0.024326 0.000000 0.080473
#
#
# Mechanical properties :
#
#
# Convention : Reuss Voigt Hill
#
# Bulk Modulus (GPa) = 55.50131 67.25751 61.37941
# Shear Modulus (GPa) = 22.26097 29.46667 25.86382
#
# Velocity S-wave (km/s) = 3.29120 3.78658 3.54755
# Velocity P-wave (km/s) = 6.43810 7.20032 6.82985
#
# Compressibility (1/GPa) = 0.01801759
#
# Stress axis : x y z
#
# Youngs Moduli (GPa) = 69.63900 94.35014 64.25592
#
# Poissons Ratio (x) = 0.08390 0.35404
# Poissons Ratio (y) = 0.06192 0.31182
# Poissons Ratio (z) = 0.38370 0.45787
#
# Static dielectric constant tensor:
#      x y z
#    x 1.680820 0.000000 0.016770 
#    y 0.000000 1.753810 0.000000 
#    z 0.016770 0.000000 1.737460 
# 
# From -- ./inp_files/219759.got.cif
#   From: 2010.05.17/outbox.cif.g08.bks.cpg/sg15_110_cif.got.tgz:219759.got - 2010.06.03 18:47:42.
