data_PCOD9286673
_publ_section_title
;
Structure prediction by ZEFSAII (Michael W. Deem and Ramdas Pophale) SiO2 
 PCOD9286673
Probable space group: C 2/C
;
_chemical_formula_sum "Si O2"
_cell_formula_units_Z 52
_cell_length_a 28.456758
_cell_length_b 6.664715
_cell_length_c 13.603426
_cell_angle_alpha 90.000000
_cell_angle_beta 66.424315
_cell_angle_gamma 90.000000
_cell_volume 2364.629988
_symmetry_space_group_name_H-M "C 2/C"
_symmetry_group_IT_number 15
_symmetry_cell_setting 'monoclinic'
loop_
_space_group_symop_operation_xyz
x,y,z
-x,y,1/2-z
-x,-y,-z
x,-y,1/2+z
1/2+x,1/2+y,z
1/2-x,1/2+y,1/2-z
1/2-x,1/2-y,-z
1/2+x,1/2-y,1/2+z
loop_
_atom_site_type_symbol
_atom_site_label
_atom_site_fract_x
_atom_site_fract_y
_atom_site_fract_z
Si Si1 0.927018 0.721056 0.969456
Si Si2 0.623923 0.836887 0.407823
Si Si3 0.300290 0.579075 0.841252
Si Si4 0.216741 0.637706 0.292177
Si Si5 0.829665 0.041525 0.521238
Si Si6 0.415559 0.479421 0.178090
Si Si7 0.500000 0.608567 0.250000
O O1 0.973613 0.759851 0.857481
O O2 0.877752 0.815096 0.954521
O O3 0.914360 0.492884 0.008027
O O4 0.930619 0.847944 0.069080
O O5 0.646428 0.665029 0.459506
O O6 0.595065 0.708263 0.348665
O O7 0.672474 0.970600 0.333630
O O8 0.268444 0.424050 0.802295
O O9 0.276736 0.789449 0.824815
O O10 0.296118 0.509366 0.955505
O O11 0.360390 0.592049 0.764279
O O12 0.197014 0.827675 0.372126
O O13 0.457913 0.477341 0.227172
#
# Coordination Sequence:
#
# PCOD9286673 Si02
#       7
#     8   8   8   8   8   8   4
#     4  10  22  44  66  98 130 172 219 282 331 385
#     4  10  21  44  65  92 142 167 213 283 320 391
#     4  12  22  42  68  96 132 178 217 264 329 395
#     4  11  24  42  65 101 134 175 220 264 334 390
#     4  10  22  43  66  96 132 174 218 271 330 390
#     4  11  23  44  67  95 137 170 222 276 326 389
#     4  12  24  42  74  96 124 184 222 270 346 392
#
# _framework density 21.990756000000001
#
# number of rings (size 3 to 8) (size 9 to 14) (size 15 to 20)
#    0.000    1.231    6.154    1.846    0.000    2.462 
#    5.538    3.846    0.000    0.000    0.000    0.000 
#    0.000    0.000    0.000    0.000    0.000    0.000 
#
# Total GULP energy -145284.949451 kJ/mol
# GULP energy per Si atom -5587.882671 kJ/mol
# Density = 2.194070 g / cm^3
# Si number density = 21.990756 Si / 1000 Ang^3
#
#
#
# Elastic Constant Matrix: (Units=GPa)
#
#
# Indices 1 2 3 4 5 6 
#
# 1 136.8024 27.1688 35.9401 0.0000 24.7448 0.0000
# 2 27.1688 106.5481 25.1044 0.0000 5.0573 0.0000
# 3 35.9401 25.1044 82.9620 0.0000 -10.9675 0.0000
# 4 0.0000 0.0000 0.0000 12.2841 0.0000 -0.6546
# 5 24.7448 5.0573 -10.9675 0.0000 32.7338 0.0000
# 6 0.0000 0.0000 0.0000 -0.6546 0.0000 8.6461
#
#
#
# Elastic Compliance Matrix: (Units=1/GPa)
#
#
# Indices 1 2 3 4 5 6 
#
# 1 0.010788 -0.000937 -0.005702 0.000000 -0.009921 0.000000
# 2 -0.000937 0.010422 -0.003000 0.000000 -0.001907 0.000000
# 3 -0.005702 -0.003000 0.016807 0.000000 0.010405 0.000000
# 4 0.000000 0.000000 0.000000 0.081736 0.000000 0.006188
# 5 -0.009921 -0.001907 0.010405 0.000000 0.041830 0.000000
# 6 0.000000 0.000000 0.000000 0.006188 0.000000 0.116128
#
#
# Mechanical properties :
#
#
# Convention : Reuss Voigt Hill
#
# Bulk Modulus (GPa) = 53.36080 55.85990 54.61035
# Shear Modulus (GPa) = 16.48895 26.60609 21.54752
#
# Velocity S-wave (km/s) = 2.74124 3.48210 3.13364
# Velocity P-wave (km/s) = 5.85978 6.45162 6.16281
#
# Compressibility (1/GPa) = 0.01874035
#
# Stress axis : x y z
#
# Youngs Moduli (GPa) = 92.69355 95.95427 59.49878
#
# Poissons Ratio (x) = 0.08987 0.33924
# Poissons Ratio (y) = 0.08682 0.17850
# Poissons Ratio (z) = 0.52851 0.28786
#
# Static dielectric constant tensor:
#      x y z
#    x 1.831100 0.000000 -0.029100 
#    y 0.000000 1.812010 0.000000 
#    z -0.029100 0.000000 1.846850 
# 
# From -- ./inp_files/180037.got.cif
#   From: 2010.05.17/outbox.cif.g08.bks.cpg/sg15_91_cif.got.tgz:180037.got - 2010.06.03 18:47:42.
