data_PCOD9286794
_publ_section_title
;
Structure prediction by ZEFSAII (Michael W. Deem and Ramdas Pophale) SiO2 
 PCOD9286794
Probable space group: C 2/C
;
_chemical_formula_sum "Si O2"
_cell_formula_units_Z 44
_cell_length_a 7.702646
_cell_length_b 12.103312
_cell_length_c 26.202680
_cell_angle_alpha 90.000000
_cell_angle_beta 50.557381
_cell_angle_gamma 90.000000
_cell_volume 1886.488264
_symmetry_space_group_name_H-M "C 2/C"
_symmetry_group_IT_number 15
_symmetry_cell_setting 'monoclinic'
loop_
_space_group_symop_operation_xyz
x,y,z
-x,y,1/2-z
-x,-y,-z
x,-y,1/2+z
1/2+x,1/2+y,z
1/2-x,1/2+y,1/2-z
1/2-x,1/2-y,-z
1/2+x,1/2-y,1/2+z
loop_
_atom_site_type_symbol
_atom_site_label
_atom_site_fract_x
_atom_site_fract_y
_atom_site_fract_z
Si Si1 0.265131 0.874798 0.706256
Si Si2 0.000000 0.501383 0.250000
Si Si3 0.056120 0.229828 0.078607
Si Si4 0.631624 0.502229 0.544801
Si Si5 0.790840 0.178596 0.633981
Si Si6 0.082577 0.538584 0.907896
O O1 0.367196 0.761793 0.664393
O O2 0.000000 0.857062 0.750000
O O3 0.339777 0.917848 0.747328
O O4 0.333043 0.973196 0.656013
O O5 0.861309 0.417599 0.312484
O O6 0.161506 0.250118 0.115039
O O7 0.887280 0.330565 0.103393
O O8 0.977876 0.106420 0.080661
O O9 0.250000 0.250000 0.000000
O O10 0.493968 0.614423 0.568694
O O11 0.779971 0.501645 0.568500
O O12 0.817509 0.487255 0.466121
#
# Coordination Sequence:
#
# PCOD9286794 Si02
#       6
#     8   4   8   8   8   8
#     4  12  26  50  71  99 146 188 243 305 346 430
#     4  12  28  48  70 104 136 204 248 278 376 428
#     4  10  22  43  69 103 142 178 227 290 356 432
#     4  10  23  42  71 103 141 180 226 298 360 426
#     4  12  25  47  70 102 144 186 239 299 358 433
#     4  10  21  44  69 104 138 181 233 287 365 420
#
# _framework density 23.32376
#
# number of rings (size 3 to 8) (size 9 to 14) (size 15 to 20)
#    0.000    1.091    4.545    1.091    0.000    5.091 
#    4.909    0.000    0.000    0.000    0.000    0.000 
#    0.000    0.000    0.000    0.000    0.000    0.000 
#
# Total GULP energy -123072.301565 kJ/mol
# GULP energy per Si atom -5594.195526 kJ/mol
# Density = 2.327067 g / cm^3
# Si number density = 23.323760 Si / 1000 Ang^3
#
#
#
# Elastic Constant Matrix: (Units=GPa)
#
#
# Indices 1 2 3 4 5 6 
#
# 1 59.9835 18.4923 20.7538 0.0004 21.0028 -0.0005
# 2 18.4923 124.5479 0.5391 0.0032 -2.5438 -0.0043
# 3 20.7538 0.5391 46.1083 0.0259 12.2152 -0.0346
# 4 0.0004 0.0032 0.0259-1375.1228 -0.0068 1880.9995
# 5 21.0028 -2.5438 12.2152 -0.0068 28.3931 0.0090
# 6 -0.0005 -0.0043 -0.0346 1880.9995 0.0090-2461.2779
#
#
#
# Elastic Compliance Matrix: (Units=1/GPa)
#
#
# Indices 1 2 3 4 5 6 
#
# 1 0.026387 -0.004227 -0.007400 0.000000 -0.016714 0.000000
# 2 -0.004227 0.008725 0.000864 0.000000 0.003537 0.000000
# 3 -0.007400 0.000864 0.026566 0.000000 -0.005878 0.000000
# 4 0.000000 0.000000 0.000000 0.016024 0.000000 0.012246
# 5 -0.016714 0.003537 -0.005878 0.000000 0.050429 0.000000
# 6 0.000000 0.000000 0.000000 0.012246 0.000000 0.008953
#
#
# Mechanical properties :
#
#
# Convention : Reuss Voigt Hill
#
# Bulk Modulus (GPa) = 24.90560 34.46781 29.68670
# Shear Modulus (GPa) = 29.07077 -748.87789 -359.90356
#
# Velocity S-wave (km/s) = 3.53427 -17.93813 -12.43554
# Velocity P-wave (km/s) = 5.23031 20.35252 13.90807
#
# Compressibility (1/GPa) = 0.04015161
#
# Stress axis : x y z
#
# Youngs Moduli (GPa) = 37.89748 114.61098 37.64225
#
# Poissons Ratio (x) = 0.48448 0.27854
# Poissons Ratio (y) = 0.16020 -0.03251
# Poissons Ratio (z) = 0.28043 -0.09898
#
# Static dielectric constant tensor:
#      x y z
#    x 1.887680 0.000000 -0.006530 
#    y 0.000000 1.868080 0.000000 
#    z -0.006530 0.000000 1.872040 
# 
# From -- ./inp_files/230246.got.cif
#   From: 2010.05.17/outbox.cif.g08.bks.cpg/sg15_116_cif.got.tgz:230246.got - 2010.06.03 18:47:42.
