data_PCOD9286725
_publ_section_title
;
Structure prediction by ZEFSAII (Michael W. Deem and Ramdas Pophale) SiO2 
 PCOD9286725
Probable space group: C 2/C
;
_chemical_formula_sum "Si O2"
_cell_formula_units_Z 40
_cell_length_a 30.276311
_cell_length_b 4.725011
_cell_length_c 11.147660
_cell_angle_alpha 90.000000
_cell_angle_beta 66.567810
_cell_angle_gamma 90.000000
_cell_volume 1463.222633
_symmetry_space_group_name_H-M "C 2/C"
_symmetry_group_IT_number 15
_symmetry_cell_setting 'monoclinic'
loop_
_space_group_symop_operation_xyz
x,y,z
-x,y,1/2-z
-x,-y,-z
x,-y,1/2+z
1/2+x,1/2+y,z
1/2-x,1/2+y,1/2-z
1/2-x,1/2-y,-z
1/2+x,1/2-y,1/2+z
loop_
_atom_site_type_symbol
_atom_site_label
_atom_site_fract_x
_atom_site_fract_y
_atom_site_fract_z
Si Si1 0.753058 0.958701 0.660250
Si Si2 0.411680 0.016172 0.981189
Si Si3 0.674096 0.227395 0.587493
Si Si4 0.893096 0.024378 0.157617
Si Si5 0.492555 0.639883 0.136370
O O1 0.741807 0.148087 0.790856
O O2 0.710955 0.006548 0.608265
O O3 0.799255 0.083966 0.541667
O O4 0.398689 0.199260 0.114985
O O5 0.402703 0.690895 0.023132
O O6 0.371528 0.087899 0.927497
O O7 0.467433 0.109950 0.898511
O O8 0.655205 0.412029 0.720136
O O9 0.935315 0.160796 0.192805
O O10 0.500000 0.466742 0.250000
O O11 0.500000 0.500000 0.000000
#
# Coordination Sequence:
#
# PCOD9286725 Si02
#       5
#     8   8   8   8   8
#     4  11  26  45  66  96 130 167 218 275 344 406
#     4  11  24  42  65  98 133 176 223 274 330 401
#     4  11  24  43  70  94 130 173 218 279 334 406
#     4  11  24  42  65  98 133 176 223 274 330 401
#     4  10  21  44  67 102 142 186 228 280 334 400
#
# _framework density 27.336924
#
# number of rings (size 3 to 8) (size 9 to 14) (size 15 to 20)
#    0.000    1.200    2.000    3.000    0.000    8.000 
#    3.600    2.000    0.000    0.000    0.000    0.000 
#    0.000    0.000    0.000    0.000    0.000    0.000 
#
# Total GULP energy -112021.243427 kJ/mol
# GULP energy per Si atom -5601.062171 kJ/mol
# Density = 2.727470 g / cm^3
# Si number density = 27.336924 Si / 1000 Ang^3
#
#
#
# Elastic Constant Matrix: (Units=GPa)
#
#
# Indices 1 2 3 4 5 6 
#
# 1 157.1243 17.9235 30.7074 0.0000 16.9866 0.0000
# 2 17.9235 90.0011 16.7939 0.0000 9.2751 0.0000
# 3 30.7074 16.7939 131.1470 0.0000 4.8069 0.0000
# 4 0.0000 0.0000 0.0000 17.8147 0.0000 -10.5104
# 5 16.9866 9.2751 4.8069 0.0000 41.0697 0.0000
# 6 0.0000 0.0000 0.0000 -10.5104 0.0000 13.9171
#
#
#
# Elastic Compliance Matrix: (Units=1/GPa)
#
#
# Indices 1 2 3 4 5 6 
#
# 1 0.007019 -0.000868 -0.001439 0.000000 -0.002539 0.000000
# 2 -0.000868 0.011733 -0.001221 0.000000 -0.002148 0.000000
# 3 -0.001439 -0.001221 0.008121 0.000000 -0.000080 0.000000
# 4 0.000000 0.000000 0.000000 0.101245 0.000000 0.076461
# 5 -0.002539 -0.002148 -0.000080 0.000000 0.025893 0.000000
# 6 0.000000 0.000000 0.000000 0.076461 0.000000 0.129599
#
#
# Mechanical properties :
#
#
# Convention : Reuss Voigt Hill
#
# Bulk Modulus (GPa) = 50.45869 56.56911 53.51390
# Shear Modulus (GPa) = 16.81967 35.41681 26.11824
#
# Velocity S-wave (km/s) = 2.48316 3.60330 3.09434
# Velocity P-wave (km/s) = 5.16910 6.16846 5.69076
#
# Compressibility (1/GPa) = 0.01981819
#
# Stress axis : x y z
#
# Youngs Moduli (GPa) = 142.46805 85.23058 123.13366
#
# Poissons Ratio (x) = 0.07395 0.17723
# Poissons Ratio (y) = 0.12361 0.15029
# Poissons Ratio (z) = 0.20506 0.10403
#
# Static dielectric constant tensor:
#      x y z
#    x 2.166060 0.000000 -0.010310 
#    y 0.000000 2.071530 0.000000 
#    z -0.010310 0.000000 2.102070 
# 
# From -- ./inp_files/124908.got.cif
#   From: 2010.05.17/outbox.cif.g08.bks.cpg/sg15_63_cif.got.tgz:124908.got - 2010.06.03 18:47:42.
