data_PCOD9286861
_publ_section_title
;
Structure prediction by ZEFSAII (Michael W. Deem and Ramdas Pophale) SiO2 
 PCOD9286861
Probable space group: C 2/C
;
_chemical_formula_sum "Si O2"
_cell_formula_units_Z 64
_cell_length_a 23.787631
_cell_length_b 17.858244
_cell_length_c 14.172051
_cell_angle_alpha 90.000000
_cell_angle_beta 148.253423
_cell_angle_gamma 90.000000
_cell_volume 3167.692793
_symmetry_space_group_name_H-M "C 2/C"
_symmetry_group_IT_number 15
_symmetry_cell_setting 'monoclinic'
loop_
_space_group_symop_operation_xyz
x,y,z
-x,y,1/2-z
-x,-y,-z
x,-y,1/2+z
1/2+x,1/2+y,z
1/2-x,1/2+y,1/2-z
1/2-x,1/2-y,-z
1/2+x,1/2-y,1/2+z
loop_
_atom_site_type_symbol
_atom_site_label
_atom_site_fract_x
_atom_site_fract_y
_atom_site_fract_z
Si Si1 0.239612 0.061040 0.177361
Si Si2 0.202580 0.186139 0.367024
Si Si3 0.212875 0.985054 0.940342
Si Si4 0.057391 0.675536 0.429226
Si Si5 0.500822 0.576984 0.638298
Si Si6 0.607808 0.992188 0.953274
Si Si7 0.475059 0.281168 0.461213
Si Si8 0.765256 0.275875 0.747275
O O1 0.250404 0.148402 0.165550
O O2 0.239775 0.009434 0.085380
O O3 0.334577 0.040217 0.383817
O O4 0.121904 0.053306 0.058017
O O5 0.250000 0.250000 0.500000
O O6 0.217242 0.103739 0.430149
O O7 0.257932 0.194640 0.343922
O O8 0.078049 0.202133 0.171321
O O9 0.301553 0.019759 0.997202
O O10 0.093120 0.016255 0.750706
O O11 0.075337 0.587118 0.452096
O O12 0.167470 0.720430 0.591358
O O13 0.000000 0.695953 0.250000
O O14 0.992318 0.705745 0.425415
O O15 0.500000 0.591892 0.750000
O O16 0.529248 0.650747 0.619644
O O17 0.500000 0.023678 0.750000
O O18 0.371150 0.268791 0.374454
#
# Coordination Sequence:
#
# PCOD9286861 Si02
#       8
#     8   8   8   8   8   8   8   8
#     4  11  24  44  70 100 138 174 230 283 345 404
#     4  11  26  49  65  97 138 175 232 280 330 414
#     4  11  25  44  73 100 134 182 223 292 346 395
#     4  10  23  40  64  98 136 170 223 273 331 415
#     4  10  21  44  71 107 136 167 223 290 348 402
#     4  11  25  44  62  98 136 181 233 274 331 413
#     4  11  23  41  71  97 137 180 219 277 343 398
#     4  11  24  44  68  98 132 178 220 278 341 404
#
# _framework density 20.203979
#
# number of rings (size 3 to 8) (size 9 to 14) (size 15 to 20)
#    0.000    1.250    3.750    1.125    8.750    5.500 
#    4.500    0.000    0.000    0.000    0.000    0.000 
#    0.000    0.000    0.000    0.000    0.000    0.000 
#
# Total GULP energy -178869.728931 kJ/mol
# GULP energy per Si atom -5589.679029 kJ/mol
# Density = 2.015799 g / cm^3
# Si number density = 20.203979 Si / 1000 Ang^3
#
#
#
# Elastic Constant Matrix: (Units=GPa)
#
#
# Indices 1 2 3 4 5 6 
#
# 1 43.0744 -4.7458 4.9469 0.0000 17.4509 0.0000
# 2 -4.7458 49.7192 8.0308 0.0000 -0.3502 0.0000
# 3 4.9469 8.0308 64.1171 0.0000 -4.7307 0.0000
# 4 0.0000 0.0000 0.0000 20.6085 0.0000 -9.9959
# 5 17.4509 -0.3502 -4.7307 0.0000 21.1213 0.0000
# 6 0.0000 0.0000 0.0000 -9.9959 0.0000 21.5194
#
#
#
# Elastic Compliance Matrix: (Units=1/GPa)
#
#
# Indices 1 2 3 4 5 6 
#
# 1 0.037348 0.004273 -0.005784 0.000000 -0.032083 0.000000
# 2 0.004273 0.021018 -0.003251 0.000000 -0.003910 0.000000
# 3 -0.005784 -0.003251 0.017081 0.000000 0.008551 0.000000
# 4 0.000000 0.000000 0.000000 0.062635 0.000000 0.029094
# 5 -0.032083 -0.003910 0.008551 0.000000 0.075703 0.000000
# 6 0.000000 0.000000 0.000000 0.029094 0.000000 0.059984
#
#
# Mechanical properties :
#
#
# Convention : Reuss Voigt Hill
#
# Bulk Modulus (GPa) = 15.16884 19.26384 17.21634
# Shear Modulus (GPa) = 16.37902 22.56177 19.47040
#
# Velocity S-wave (km/s) = 2.85034 3.34533 3.10771
# Velocity P-wave (km/s) = 4.28447 4.94743 4.62784
#
# Compressibility (1/GPa) = 0.06592462
#
# Stress axis : x y z
#
# Youngs Moduli (GPa) = 26.77486 47.57743 58.54541
#
# Poissons Ratio (x) = -0.20331 0.33862
# Poissons Ratio (y) = -0.11442 0.19032
# Poissons Ratio (z) = 0.15486 0.15466
#
# Static dielectric constant tensor:
#      x y z
#    x 1.707740 0.000000 -0.002880 
#    y 0.000000 1.710910 0.000000 
#    z -0.002880 0.000000 1.722750 
# 
# From -- ./inp_files/174252.got.cif
#   From: 2010.05.17/outbox.cif.g08.bks.cpg/sg15_88_cif.got.tgz:174252.got - 2010.06.03 18:47:42.
