data_PCOD9286853
_publ_section_title
;
Structure prediction by ZEFSAII (Michael W. Deem and Ramdas Pophale) SiO2 
 PCOD9286853
Probable space group: C 2/C
;
_chemical_formula_sum "Si O2"
_cell_formula_units_Z 60
_cell_length_a 21.317818
_cell_length_b 8.016910
_cell_length_c 14.321450
_cell_angle_alpha 90.000000
_cell_angle_beta 80.861679
_cell_angle_gamma 90.000000
_cell_volume 2416.514024
_symmetry_space_group_name_H-M "C 2/C"
_symmetry_group_IT_number 15
_symmetry_cell_setting 'monoclinic'
loop_
_space_group_symop_operation_xyz
x,y,z
-x,y,1/2-z
-x,-y,-z
x,-y,1/2+z
1/2+x,1/2+y,z
1/2-x,1/2+y,1/2-z
1/2-x,1/2-y,-z
1/2+x,1/2-y,1/2+z
loop_
_atom_site_type_symbol
_atom_site_label
_atom_site_fract_x
_atom_site_fract_y
_atom_site_fract_z
Si Si1 0.307779 0.295854 0.917665
Si Si2 0.933550 0.303368 0.145854
Si Si3 0.393966 0.446677 0.181361
Si Si4 0.430906 0.682495 0.873719
Si Si5 0.300497 0.303794 0.413544
Si Si6 0.700546 0.717254 0.296573
Si Si7 0.940752 0.175290 0.470808
Si Si8 0.000000 0.438894 0.750000
O O1 0.308174 0.497257 0.913459
O O2 0.298895 0.240635 0.812973
O O3 0.378394 0.246526 0.936186
O O4 0.250000 0.250000 0.000000
O O5 0.858165 0.318598 0.140732
O O6 0.947627 0.439102 0.220411
O O7 0.994183 0.281417 0.061060
O O8 0.933121 0.117735 0.189427
O O9 0.405096 0.352792 0.274481
O O10 0.324093 0.526160 0.184421
O O11 0.417890 0.358617 0.082212
O O12 0.368291 0.763568 0.930766
O O13 0.448412 0.512631 0.923483
O O14 0.482025 0.821093 0.840542
O O15 0.250000 0.250000 0.500000
O O16 0.268508 0.243704 0.325714
#
# Coordination Sequence:
#
# PCOD9286853 Si02
#       8
#     8   8   8   8   8   8   8   4
#     4  11  25  41  69 102 132 183 228 279 337 397
#     4  10  22  40  68  99 133 176 211 287 341 382
#     4  10  21  44  70  98 124 181 235 275 329 408
#     4  11  24  42  68 100 128 186 227 272 338 409
#     4  11  24  44  68  98 137 178 221 283 335 404
#     4  10  22  42  71  96 135 175 228 271 340 401
#     4  11  21  45  74  98 132 178 240 275 330 417
#     4  12  24  42  66 102 146 174 218 280 356 406
#
# _framework density 24.829155
#
# number of rings (size 3 to 8) (size 9 to 14) (size 15 to 20)
#    0.800    0.533    2.667    4.400    1.867    4.267 
#    0.000    2.667    0.000    0.000    0.000    0.000 
#    0.000    0.000    0.000    0.000    0.000    0.000 
#
# Total GULP energy -167465.387502 kJ/mol
# GULP energy per Si atom -5582.179583 kJ/mol
# Density = 2.477264 g / cm^3
# Si number density = 24.829155 Si / 1000 Ang^3
#
#
#
# Elastic Constant Matrix: (Units=GPa)
#
#
# Indices 1 2 3 4 5 6 
#
# 1 108.3280 18.7416 21.4828 0.0000 -19.3990 0.0000
# 2 18.7416 34.6136 18.1960 0.0000 0.8002 0.0000
# 3 21.4828 18.1960 143.4391 0.0000 -9.0129 0.0000
# 4 0.0000 0.0000 0.0000 28.0807 0.0000 2.0178
# 5 -19.3990 0.8002 -9.0129 0.0000 42.9282 0.0000
# 6 0.0000 0.0000 0.0000 2.0178 0.0000 25.9301
#
#
#
# Elastic Compliance Matrix: (Units=1/GPa)
#
#
# Indices 1 2 3 4 5 6 
#
# 1 0.011285 -0.005900 -0.000623 0.000000 0.005079 0.000000
# 2 -0.005900 0.034125 -0.003702 0.000000 -0.004080 0.000000
# 3 -0.000623 -0.003702 0.007622 0.000000 0.001388 0.000000
# 4 0.000000 0.000000 0.000000 0.035812 0.000000 -0.002787
# 5 0.005079 -0.004080 0.001388 0.000000 0.025957 0.000000
# 6 0.000000 0.000000 0.000000 -0.002787 0.000000 0.038782
#
#
# Mechanical properties :
#
#
# Convention : Reuss Voigt Hill
#
# Bulk Modulus (GPa) = 30.69103 44.80241 37.74672
# Shear Modulus (GPa) = 27.04261 34.58515 30.81388
#
# Velocity S-wave (km/s) = 3.30380 3.73624 3.52666
# Velocity P-wave (km/s) = 5.19049 6.05773 5.64080
#
# Compressibility (1/GPa) = 0.03258281
#
# Stress axis : x y z
#
# Youngs Moduli (GPa) = 88.61300 29.30371 131.20585
#
# Poissons Ratio (x) = 0.17291 0.08168
# Poissons Ratio (y) = 0.52286 0.48567
# Poissons Ratio (z) = 0.05516 0.10847
#
# Static dielectric constant tensor:
#      x y z
#    x 2.176790 0.000000 -0.011750 
#    y 0.000000 1.934610 0.000000 
#    z -0.011750 0.000000 2.034430 
# 
# From -- ./inp_files/171869.got.cif
#   From: 2010.05.17/outbox.cif.g08.bks.cpg/sg15_86_cif.got.tgz:171869.got - 2010.06.03 18:47:42.
