data_PCOD9286947
_publ_section_title
;
Structure prediction by ZEFSAII (Michael W. Deem and Ramdas Pophale) SiO2 
 PCOD9286947
Probable space group: C 2/C
;
_chemical_formula_sum "Si O2"
_cell_formula_units_Z 52
_cell_length_a 21.969674
_cell_length_b 15.889334
_cell_length_c 11.408961
_cell_angle_alpha 90.000000
_cell_angle_beta 147.316639
_cell_angle_gamma 90.000000
_cell_volume 2150.630891
_symmetry_space_group_name_H-M "C 2/C"
_symmetry_group_IT_number 15
_symmetry_cell_setting 'monoclinic'
loop_
_space_group_symop_operation_xyz
x,y,z
-x,y,1/2-z
-x,-y,-z
x,-y,1/2+z
1/2+x,1/2+y,z
1/2-x,1/2+y,1/2-z
1/2-x,1/2-y,-z
1/2+x,1/2-y,1/2+z
loop_
_atom_site_type_symbol
_atom_site_label
_atom_site_fract_x
_atom_site_fract_y
_atom_site_fract_z
Si Si1 0.088386 0.177043 0.805868
Si Si2 0.778980 0.407841 0.019968
Si Si3 0.078437 0.369942 0.739096
Si Si4 0.181394 0.667862 0.171621
Si Si5 0.632809 0.346142 0.981734
Si Si6 0.687618 0.431544 0.282267
Si Si7 0.500000 0.000000 0.000000
O O1 0.053142 0.272885 0.718885
O O2 0.097520 0.125795 0.702368
O O3 0.000000 0.137921 0.750000
O O4 0.206219 0.175023 0.067239
O O5 0.810953 0.373770 0.942907
O O6 0.714246 0.343327 0.000921
O O7 0.687027 0.478936 0.841291
O O8 0.885248 0.453374 0.252165
O O9 0.098890 0.383120 0.628496
O O10 0.984015 0.439484 0.594040
O O11 0.191992 0.389833 0.990941
O O12 0.149356 0.763160 0.088432
O O13 0.500000 0.351967 0.750000
O O14 0.670851 0.427373 0.117706
#
# Coordination Sequence:
#
# PCOD9286947 Si02
#       7
#     8   8   8   8   8   8   4
#     4  11  23  41  76 100 135 197 247 298 365 446
#     4  11  28  45  73 107 144 189 248 307 378 442
#     4  10  21  45  67 102 140 188 231 301 363 436
#     4  11  24  46  69 103 147 185 248 304 363 446
#     4  12  27  45  71  99 146 193 238 302 373 449
#     4  10  23  47  64  97 140 184 239 299 360 439
#     4  10  26  44  74 108 146 184 240 306 382 430
#
# _framework density 24.178951000000001
#
# number of rings (size 3 to 8) (size 9 to 14) (size 15 to 20)
#    0.000    1.231    3.077    1.385   12.923    1.231 
#    5.538    0.000    0.000    0.000    0.000    0.000 
#    0.000    0.000    0.000    0.000    0.000    0.000 
#
# Total GULP energy -144877.069052 kJ/mol
# GULP energy per Si atom -5572.194964 kJ/mol
# Density = 2.412392 g / cm^3
# Si number density = 24.178951 Si / 1000 Ang^3
#
#
#
# Elastic Constant Matrix: (Units=GPa)
#
#
# Indices 1 2 3 4 5 6 
#
# 1 130.3239 3.2672 37.2961 0.0000 -25.7196 0.0000
# 2 3.2672 35.6492 13.4954 0.0000 -1.4760 0.0000
# 3 37.2961 13.4954 99.3882 0.0000 -14.4143 0.0000
# 4 0.0000 0.0000 0.0000 7.5625 0.0000 -24.5254
# 5 -25.7196 -1.4760 -14.4143 0.0000 31.7865 0.0000
# 6 0.0000 0.0000 0.0000 -24.5254 0.0000 4.2899
#
#
#
# Elastic Compliance Matrix: (Units=1/GPa)
#
#
# Indices 1 2 3 4 5 6 
#
# 1 0.009768 0.000424 -0.002755 0.000000 0.006674 0.000000
# 2 0.000424 0.029596 -0.004205 0.000000 -0.000190 0.000000
# 3 -0.002755 -0.004205 0.012111 0.000000 0.003068 0.000000
# 4 0.000000 0.000000 0.000000 -0.007539 0.000000 -0.043099
# 5 0.006674 -0.000190 0.003068 0.000000 0.038242 0.000000
# 6 0.000000 0.000000 0.000000 -0.043099 0.000000 -0.013290
#
#
# Mechanical properties :
#
#
# Convention : Reuss Voigt Hill
#
# Bulk Modulus (GPa) = 26.03967 41.49765 33.76866
# Shear Modulus (GPa) = 52.76265 22.81463 37.78864
#
# Velocity S-wave (km/s) = 4.67644 3.07510 3.95761
# Velocity P-wave (km/s) = 6.32074 5.45970 5.90593
#
# Compressibility (1/GPa) = 0.03840295
#
# Stress axis : x y z
#
# Youngs Moduli (GPa) = 102.37323 33.78792 82.56691
#
# Poissons Ratio (x) = -0.01433 0.22749
# Poissons Ratio (y) = -0.04342 0.34723
# Poissons Ratio (z) = 0.28206 0.14209
#
# Static dielectric constant tensor:
#      x y z
#    x 1.984870 0.000000 -0.081720 
#    y 0.000000 1.795510 0.000000 
#    z -0.081720 0.000000 1.780470 
# 
# From -- ./inp_files/123926.got.cif
#   From: 2010.05.17/outbox.cif.g08.bks.cpg/sg15_62_cif.got.tgz:123926.got - 2010.06.03 18:47:42.
