data_PCOD9286754
_publ_section_title
;
Structure prediction by ZEFSAII (Michael W. Deem and Ramdas Pophale) SiO2 
 PCOD9286754
Probable space group: C 2/C
;
_chemical_formula_sum "Si O2"
_cell_formula_units_Z 40
_cell_length_a 19.738388
_cell_length_b 14.380356
_cell_length_c 5.678184
_cell_angle_alpha 90.000000
_cell_angle_beta 99.109491
_cell_angle_gamma 90.000000
_cell_volume 1591.396679
_symmetry_space_group_name_H-M "C 2/C"
_symmetry_group_IT_number 15
_symmetry_cell_setting 'monoclinic'
loop_
_space_group_symop_operation_xyz
x,y,z
-x,y,1/2-z
-x,-y,-z
x,-y,1/2+z
1/2+x,1/2+y,z
1/2-x,1/2+y,1/2-z
1/2-x,1/2-y,-z
1/2+x,1/2-y,1/2+z
loop_
_atom_site_type_symbol
_atom_site_label
_atom_site_fract_x
_atom_site_fract_y
_atom_site_fract_z
Si Si1 0.734317 0.883397 0.076585
Si Si2 0.500000 0.303254 0.250000
Si Si3 0.000000 0.552135 0.750000
Si Si4 0.903192 0.701817 0.842852
Si Si5 0.283064 0.587031 0.103712
Si Si6 0.074700 0.890255 0.905566
O O1 0.661090 0.834256 0.046932
O O2 0.768699 0.860271 0.349583
O O3 0.734036 0.996286 0.080062
O O4 0.770719 0.862297 0.846525
O O5 0.536255 0.237307 0.455191
O O6 0.443746 0.369612 0.336540
O O7 0.067478 0.616485 0.788211
O O8 0.000000 0.500000 0.500000
O O9 0.895681 0.791859 0.675363
O O10 0.360772 0.546986 0.121651
O O11 0.000000 0.911821 0.750000
#
# Coordination Sequence:
#
# PCOD9286754 Si02
#       6
#     8   4   4   8   8   8
#     4  10  25  43  68  93 144 178 225 277 340 410
#     4  10  21  44  68 100 137 174 232 282 337 402
#     4  12  27  38  66  96 137 180 226 270 325 400
#     4  11  24  43  67 102 137 183 224 283 338 401
#     4  10  24  46  66 100 136 182 226 279 338 410
#     4  10  23  43  73  99 135 176 229 286 340 400
#
# _framework density 25.135152000000001
#
# number of rings (size 3 to 8) (size 9 to 14) (size 15 to 20)
#    0.000    1.600    3.000    0.600   14.000    1.600 
#    0.000    4.000    0.000    0.000    0.000    0.000 
#    0.000    0.000    0.000    0.000    0.000    0.000 
#
# Total GULP energy -111746.722474 kJ/mol
# GULP energy per Si atom -5587.336124 kJ/mol
# Density = 2.507794 g / cm^3
# Si number density = 25.135152 Si / 1000 Ang^3
#
#
#
# Elastic Constant Matrix: (Units=GPa)
#
#
# Indices 1 2 3 4 5 6 
#
# 1 134.3495 28.3492 39.2187 0.0000 -38.8252 0.0000
# 2 28.3492 83.8424 26.5173 0.0000 -7.1604 0.0000
# 3 39.2187 26.5173 171.8643 0.0000 -40.4454 0.0000
# 4 0.0000 0.0000 0.0000 17.6119 0.0000 -7.9071
# 5 -38.8252 -7.1604 -40.4454 0.0000 44.3838 0.0000
# 6 0.0000 0.0000 0.0000 -7.9071 0.0000 34.9184
#
#
#
# Elastic Compliance Matrix: (Units=1/GPa)
#
#
# Indices 1 2 3 4 5 6 
#
# 1 0.010585 -0.002857 0.000122 0.000000 0.008910 0.000000
# 2 -0.002857 0.013314 -0.001890 0.000000 -0.002074 0.000000
# 3 0.000122 -0.001890 0.007683 0.000000 0.006803 0.000000
# 4 0.000000 0.000000 0.000000 0.063206 0.000000 0.014313
# 5 0.008910 -0.002074 0.006803 0.000000 0.036190 0.000000
# 6 0.000000 0.000000 0.000000 0.014313 0.000000 0.031879
#
#
# Mechanical properties :
#
#
# Convention : Reuss Voigt Hill
#
# Bulk Modulus (GPa) = 44.77790 64.24740 54.51265
# Shear Modulus (GPa) = 27.84711 39.11424 33.48067
#
# Velocity S-wave (km/s) = 3.33212 3.94909 3.65365
# Velocity P-wave (km/s) = 5.71468 6.81249 6.28759
#
# Compressibility (1/GPa) = 0.02233244
#
# Stress axis : x y z
#
# Youngs Moduli (GPa) = 94.47050 75.10971 130.15029
#
# Poissons Ratio (x) = 0.21458 -0.01589
# Poissons Ratio (y) = 0.26989 0.24603
# Poissons Ratio (z) = -0.01153 0.14198
#
# Static dielectric constant tensor:
#      x y z
#    x 2.248020 0.000000 -0.020130 
#    y 0.000000 2.039120 0.000000 
#    z -0.020130 0.000000 2.078240 
# 
# From -- ./inp_files/9886.got.cif
#   From: 2010.05.17/outbox.cif.g08.bks.cpg/sg15_5_cif.got.tgz:9886.got - 2010.06.03 18:47:42.
