data_PCOD9286893
_publ_section_title
;
Structure prediction by ZEFSAII (Michael W. Deem and Ramdas Pophale) SiO2 
 PCOD9286893
Probable space group: C 2/C
;
_chemical_formula_sum "Si O2"
_cell_formula_units_Z 48
_cell_length_a 10.657472
_cell_length_b 11.846513
_cell_length_c 18.335316
_cell_angle_alpha 90.000000
_cell_angle_beta 74.194575
_cell_angle_gamma 90.000000
_cell_volume 2227.383359
_symmetry_space_group_name_H-M "C 2/C"
_symmetry_group_IT_number 15
_symmetry_cell_setting 'monoclinic'
loop_
_space_group_symop_operation_xyz
x,y,z
-x,y,1/2-z
-x,-y,-z
x,-y,1/2+z
1/2+x,1/2+y,z
1/2-x,1/2+y,1/2-z
1/2-x,1/2-y,-z
1/2+x,1/2-y,1/2+z
loop_
_atom_site_type_symbol
_atom_site_label
_atom_site_fract_x
_atom_site_fract_y
_atom_site_fract_z
Si Si1 0.542801 0.825371 0.327396
Si Si2 0.477461 0.247837 0.366077
Si Si3 0.171359 0.142041 0.750755
Si Si4 0.113678 0.952592 0.033893
Si Si5 0.088686 0.490582 0.558908
Si Si6 0.030569 0.076967 0.327717
O O1 0.500000 0.826975 0.250000
O O2 0.685347 0.878384 0.300796
O O3 0.565988 0.698195 0.354473
O O4 0.442275 0.896617 0.390777
O O5 0.401188 0.305841 0.309580
O O6 0.629348 0.267526 0.319756
O O7 0.425551 0.323932 0.441165
O O8 0.451930 0.118330 0.386741
O O9 0.128546 0.027141 0.799510
O O10 0.091580 0.025379 0.110739
O O11 0.258880 0.971821 0.982852
O O12 0.000000 0.000000 0.000000
O O13 0.000000 0.500000 0.500000
O O14 0.000000 0.104569 0.250000
#
# Coordination Sequence:
#
# PCOD9286893 Si02
#       6
#     8   8   8   8   8   8
#     4  11  28  40  68 105 141 175 228 305 349 403
#     4  10  23  44  74  95 132 191 234 281 333 431
#     4  10  21  44  73  99 127 183 241 280 344 414
#     4  11  25  44  72  99 137 186 236 279 353 414
#     4  12  29  45  66 107 149 183 230 290 352 412
#     4  10  22  46  69  94 134 180 228 285 349 421
#
# _framework density 21.549949000000002
#
# number of rings (size 3 to 8) (size 9 to 14) (size 15 to 20)
#    0.000    1.333    3.333    1.500   14.000    2.000 
#    0.000    0.000    0.000    0.000    0.000    0.000 
#    0.000    0.000    0.000    0.000    0.000    0.000 
#
# Total GULP energy -133663.877548 kJ/mol
# GULP energy per Si atom -5569.328231 kJ/mol
# Density = 2.150090 g / cm^3
# Si number density = 21.549949 Si / 1000 Ang^3
#
#
#
# Elastic Constant Matrix: (Units=GPa)
#
#
# Indices 1 2 3 4 5 6 
#
# 1 48.6724 -3.2569 8.1237 0.0000 -4.3159 0.0000
# 2 -3.2569 135.4578 34.1924 0.0000 -11.9122 0.0000
# 3 8.1237 34.1924 71.7659 0.0000 -10.8724 0.0000
# 4 0.0000 0.0000 0.0000 34.0658 0.0000 -7.2511
# 5 -4.3159 -11.9122 -10.8724 0.0000 38.5765 0.0000
# 6 0.0000 0.0000 0.0000 -7.2511 0.0000 11.0099
#
#
#
# Elastic Compliance Matrix: (Units=1/GPa)
#
#
# Indices 1 2 3 4 5 6 
#
# 1 0.021279 0.001387 -0.002762 0.000000 0.002031 0.000000
# 2 0.001387 0.008569 -0.003986 0.000000 0.001678 0.000000
# 3 -0.002762 -0.003986 0.016622 0.000000 0.003145 0.000000
# 4 0.000000 0.000000 0.000000 0.034141 0.000000 0.022485
# 5 0.002031 0.001678 0.003145 0.000000 0.027554 0.000000
# 6 0.000000 0.000000 0.000000 0.022485 0.000000 0.105636
#
#
# Mechanical properties :
#
#
# Convention : Reuss Voigt Hill
#
# Bulk Modulus (GPa) = 27.97177 37.11273 32.54225
# Shear Modulus (GPa) = 21.14702 31.18624 26.16663
#
# Velocity S-wave (km/s) = 3.13597 3.80828 3.48836
# Velocity P-wave (km/s) = 5.11083 6.04950 5.59987
#
# Compressibility (1/GPa) = 0.03575032
#
# Stress axis : x y z
#
# Youngs Moduli (GPa) = 46.99375 116.69472 60.16025
#
# Poissons Ratio (x) = -0.16191 0.16617
# Poissons Ratio (y) = -0.06520 0.23978
# Poissons Ratio (z) = 0.12980 0.46510
#
# Static dielectric constant tensor:
#      x y z
#    x 1.956390 0.000000 0.045380 
#    y 0.000000 1.918810 0.000000 
#    z 0.045380 0.000000 1.824450 
# 
# From -- ./inp_files/196532.got.cif
#   From: 2010.05.17/outbox.cif.g08.bks.cpg/sg15_99_cif.got.tgz:196532.got - 2010.06.03 18:47:42.
