data_PCOD9286410
_publ_section_title
;
Structure prediction by ZEFSAII (Michael W. Deem and Ramdas Pophale) SiO2 
 PCOD9286410
Probable space group: C 2/C
;
_chemical_formula_sum "Si O2"
_cell_formula_units_Z 52
_cell_length_a 18.295715
_cell_length_b 9.003460
_cell_length_c 14.374248
_cell_angle_alpha 90.000000
_cell_angle_beta 107.486663
_cell_angle_gamma 90.000000
_cell_volume 2258.371177
_symmetry_space_group_name_H-M "C 2/C"
_symmetry_group_IT_number 15
_symmetry_cell_setting 'monoclinic'
loop_
_space_group_symop_operation_xyz
x,y,z
-x,y,1/2-z
-x,-y,-z
x,-y,1/2+z
1/2+x,1/2+y,z
1/2-x,1/2+y,1/2-z
1/2-x,1/2-y,-z
1/2+x,1/2-y,1/2+z
loop_
_atom_site_type_symbol
_atom_site_label
_atom_site_fract_x
_atom_site_fract_y
_atom_site_fract_z
Si Si1 0.175546 0.152670 0.448240
Si Si2 0.916249 0.158690 0.389874
Si Si3 0.000000 0.911198 0.750000
Si Si4 0.412214 0.899840 0.734399
Si Si5 0.309663 0.815765 0.229840
Si Si6 0.872149 0.820388 0.374775
Si Si7 0.105142 0.863060 0.409751
O O1 0.250000 0.250000 0.500000
O O2 0.160735 0.201052 0.337562
O O3 0.120020 0.200135 0.511268
O O4 0.177885 0.973093 0.456556
O O5 0.840539 0.254676 0.339338
O O6 0.934188 0.169044 0.505645
O O7 0.973249 0.192300 0.326496
O O8 0.900425 0.985280 0.365791
O O9 0.055459 0.027433 0.825689
O O10 0.500000 0.947149 0.750000
O O11 0.412261 0.802566 0.828562
O O12 0.384801 0.787565 0.642707
O O13 0.350963 0.029983 0.723424
O O14 0.218213 0.820338 0.187145
#
# Coordination Sequence:
#
# PCOD9286410 Si02
#       7
#     8   8   4   8   8   8   8
#     4   9  20  40  68  97 127 173 232 282 335 406
#     4  11  23  40  67  97 122 176 228 275 330 405
#     4  12  20  40  70  92 130 176 230 274 330 416
#     4  12  25  42  64  98 141 178 220 285 345 403
#     4  11  23  41  64  97 138 174 223 286 344 401
#     4  10  21  43  68  91 126 183 226 273 336 417
#     4  11  22  41  66  96 132 177 228 275 337 412
#
# _framework density 23.025444
#
# number of rings (size 3 to 8) (size 9 to 14) (size 15 to 20)
#    0.000    1.231    3.846    1.385    1.077    3.692 
#    0.000   13.846    0.000    0.000    0.000    0.000 
#    0.000    0.000    0.000    0.000    0.000    0.000 
#
# Total GULP energy -145146.233873 kJ/mol
# GULP energy per Si atom -5582.547457 kJ/mol
# Density = 2.297304 g / cm^3
# Si number density = 23.025444 Si / 1000 Ang^3
#
#
#
# Elastic Constant Matrix: (Units=GPa)
#
#
# Indices 1 2 3 4 5 6 
#
# 1 63.9066 12.9589 16.9556 0.0000 1.2317 0.0000
# 2 12.9589 55.3027 6.5037 0.0000 -1.9659 0.0000
# 3 16.9556 6.5037 124.7031 0.0000 -11.4985 0.0000
# 4 0.0000 0.0000 0.0000 18.9879 0.0000 -4.3228
# 5 1.2317 -1.9659 -11.4985 0.0000 38.3855 0.0000
# 6 0.0000 0.0000 0.0000 -4.3228 0.0000 19.3821
#
#
#
# Elastic Compliance Matrix: (Units=1/GPa)
#
#
# Indices 1 2 3 4 5 6 
#
# 1 0.017038 -0.003778 -0.002250 0.000000 -0.001414 0.000000
# 2 -0.003778 0.019048 -0.000389 0.000000 0.000980 0.000000
# 3 -0.002250 -0.000389 0.008587 0.000000 0.002625 0.000000
# 4 0.000000 0.000000 0.000000 0.055482 0.000000 0.012374
# 5 -0.001414 0.000980 0.002625 0.000000 0.026933 0.000000
# 6 0.000000 0.000000 0.000000 0.012374 0.000000 0.054354
#
#
# Mechanical properties :
#
#
# Convention : Reuss Voigt Hill
#
# Bulk Modulus (GPa) = 31.40831 35.19431 33.30131
# Shear Modulus (GPa) = 24.40323 29.18405 26.79364
#
# Velocity S-wave (km/s) = 3.25905 3.56402 3.41494
# Velocity P-wave (km/s) = 5.27562 5.67930 5.48118
#
# Compressibility (1/GPa) = 0.03183871
#
# Stress axis : x y z
#
# Youngs Moduli (GPa) = 58.69166 52.49822 116.45118
#
# Poissons Ratio (x) = 0.19835 0.26202
# Poissons Ratio (y) = 0.22175 0.04534
# Poissons Ratio (z) = 0.13206 0.02044
#
# Static dielectric constant tensor:
#      x y z
#    x 2.064530 0.000000 0.028430 
#    y 0.000000 1.831200 0.000000 
#    z 0.028430 0.000000 1.904910 
# 
# From -- ./inp_files/166351.got.cif
#   From: 2010.05.17/outbox.cif.g08.bks.cpg/sg15_84_cif.got.tgz:166351.got - 2010.06.03 18:47:42.
