data_PCOD9286995
_publ_section_title
;
Structure prediction by ZEFSAII (Michael W. Deem and Ramdas Pophale) SiO2 
 PCOD9286995
Probable space group: C 2/C
;
_chemical_formula_sum "Si O2"
_cell_formula_units_Z 44
_cell_length_a 7.753742
_cell_length_b 17.721892
_cell_length_c 14.008327
_cell_angle_alpha 90.000000
_cell_angle_beta 109.526955
_cell_angle_gamma 90.000000
_cell_volume 1814.186155
_symmetry_space_group_name_H-M "C 2/C"
_symmetry_group_IT_number 15
_symmetry_cell_setting 'monoclinic'
loop_
_space_group_symop_operation_xyz
x,y,z
-x,y,1/2-z
-x,-y,-z
x,-y,1/2+z
1/2+x,1/2+y,z
1/2-x,1/2+y,1/2-z
1/2-x,1/2-y,-z
1/2+x,1/2-y,1/2+z
loop_
_atom_site_type_symbol
_atom_site_label
_atom_site_fract_x
_atom_site_fract_y
_atom_site_fract_z
Si Si1 0.054464 0.390939 0.866800
Si Si2 0.243914 0.201056 0.402282
Si Si3 0.500000 0.589540 0.250000
Si Si4 0.662235 0.665529 0.703043
Si Si5 0.903636 0.072987 0.524071
Si Si6 0.810683 0.474486 0.326259
O O1 0.000000 0.366317 0.750000
O O2 0.931001 0.346229 0.920385
O O3 0.997371 0.479408 0.863464
O O4 0.265269 0.383531 0.929550
O O5 0.250000 0.250000 0.500000
O O6 0.241049 0.260016 0.314494
O O7 0.083752 0.141078 0.349690
O O8 0.665000 0.533205 0.252224
O O9 0.500000 0.678882 0.750000
O O10 0.556163 0.627757 0.594975
O O11 0.801073 0.603792 0.769688
O O12 0.774546 0.043818 0.586748
O O13 0.000000 0.000000 0.500000
#
# Coordination Sequence:
#
# PCOD9286995 Si02
#       6
#     8   8   4   8   8   8
#     4  11  25  43  66 104 141 186 235 292 356 429
#     4  11  27  43  67 103 142 186 232 290 365 421
#     4  10  22  46  68  94 142 178 230 284 352 420
#     4  10  22  42  66 100 133 180 232 286 350 418
#     4  11  23  39  71 102 137 177 235 293 347 424
#     4  10  21  45  70  99 135 186 235 287 350 421
#
# _framework density 24.253299999999999
#
# number of rings (size 3 to 8) (size 9 to 14) (size 15 to 20)
#    0.000    1.455    2.727    2.182    7.636    3.636 
#    8.182    0.000    0.000    0.000    0.000    0.000 
#    0.000    0.000    0.000    0.000    0.000    0.000 
#
# Total GULP energy -123221.460827 kJ/mol
# GULP energy per Si atom -5600.975492 kJ/mol
# Density = 2.419810 g / cm^3
# Si number density = 24.253300 Si / 1000 Ang^3
#
#
#
# Elastic Constant Matrix: (Units=GPa)
#
#
# Indices 1 2 3 4 5 6 
#
# 1 72.5773 18.3934 19.6839 0.0000 -4.3607 0.0000
# 2 18.3934 104.6320 13.1771 0.0000 -11.6860 0.0000
# 3 19.6839 13.1771 86.4768 0.0000 -1.7046 0.0000
# 4 0.0000 0.0000 0.0000 25.1176 0.0000 -5.7781
# 5 -4.3607 -11.6860 -1.7046 0.0000 29.1195 0.0000
# 6 0.0000 0.0000 0.0000 -5.7781 0.0000 37.0588
#
#
#
# Elastic Compliance Matrix: (Units=1/GPa)
#
#
# Indices 1 2 3 4 5 6 
#
# 1 0.015243 -0.002149 -0.003118 0.000000 0.001238 0.000000
# 2 -0.002149 0.010493 -0.001034 0.000000 0.003829 0.000000
# 3 -0.003118 -0.001034 0.012428 0.000000 -0.000154 0.000000
# 4 0.000000 0.000000 0.000000 0.041294 0.000000 0.006438
# 5 0.001238 0.003829 -0.000154 0.000000 0.036054 0.000000
# 6 0.000000 0.000000 0.000000 0.006438 0.000000 0.027988
#
#
# Mechanical properties :
#
#
# Convention : Reuss Voigt Hill
#
# Bulk Modulus (GPa) = 39.12020 40.68834 39.90427
# Shear Modulus (GPa) = 30.37259 32.42128 31.39694
#
# Velocity S-wave (km/s) = 3.54264 3.66016 3.60188
# Velocity P-wave (km/s) = 5.73573 5.88857 5.81265
#
# Compressibility (1/GPa) = 0.02556224
#
# Stress axis : x y z
#
# Youngs Moduli (GPa) = 65.60419 95.30259 80.46321
#
# Poissons Ratio (x) = 0.20477 0.25087
# Poissons Ratio (y) = 0.14096 0.08323
# Poissons Ratio (z) = 0.20454 0.09857
#
# Static dielectric constant tensor:
#      x y z
#    x 1.953830 0.000000 -0.040100 
#    y 0.000000 1.891350 0.000000 
#    z -0.040100 0.000000 2.005690 
# 
# From -- ./inp_files/134571.got.cif
#   From: 2010.05.17/outbox.cif.g08.bks.cpg/sg15_68_cif.got.tgz:134571.got - 2010.06.03 18:47:42.
