data_PCOD9286776
_publ_section_title
;
Structure prediction by ZEFSAII (Michael W. Deem and Ramdas Pophale) SiO2 
 PCOD9286776
Probable space group: C 2/C
;
_chemical_formula_sum "Si O2"
_cell_formula_units_Z 48
_cell_length_a 8.816767
_cell_length_b 11.291045
_cell_length_c 23.429602
_cell_angle_alpha 90.000000
_cell_angle_beta 125.012529
_cell_angle_gamma 90.000000
_cell_volume 1910.321308
_symmetry_space_group_name_H-M "C 2/C"
_symmetry_group_IT_number 15
_symmetry_cell_setting 'monoclinic'
loop_
_space_group_symop_operation_xyz
x,y,z
-x,y,1/2-z
-x,-y,-z
x,-y,1/2+z
1/2+x,1/2+y,z
1/2-x,1/2+y,1/2-z
1/2-x,1/2-y,-z
1/2+x,1/2-y,1/2+z
loop_
_atom_site_type_symbol
_atom_site_label
_atom_site_fract_x
_atom_site_fract_y
_atom_site_fract_z
Si Si1 0.535459 0.301448 0.115158
Si Si2 0.468165 0.075368 0.176391
Si Si3 0.618347 0.659343 0.135081
Si Si4 0.160273 0.980902 0.238233
Si Si5 0.796196 0.648435 0.439700
Si Si6 0.678838 0.111002 0.583477
O O1 0.516818 0.177312 0.143421
O O2 0.628682 0.388618 0.180544
O O3 0.650792 0.265461 0.084602
O O4 0.325735 0.351850 0.065352
O O5 0.500000 0.109799 0.250000
O O6 0.245591 0.067344 0.126343
O O7 0.621194 0.975212 0.199493
O O8 0.630177 0.611502 0.202671
O O9 0.402476 0.659244 0.073950
O O10 0.700911 0.787834 0.136672
O O11 0.000000 0.962148 0.250000
O O12 0.781404 0.527562 0.398600
O O13 0.968906 0.622234 0.517548
#
# Coordination Sequence:
#
# PCOD9286776 Si02
#       6
#     8   8   8   8   8   8
#     4  11  22  42  69  98 138 174 225 282 335 407
#     4   9  21  40  61  96 129 176 224 271 333 402
#     4  10  21  44  68  96 137 175 224 277 337 405
#     4  11  22  42  70  97 134 183 228 280 342 397
#     4  11  22  43  72 102 133 182 220 272 353 402
#     4  10  23  43  71 100 140 172 224 284 333 411
#
# _framework density 25.126662
#
# number of rings (size 3 to 8) (size 9 to 14) (size 15 to 20)
#    0.000    1.667    1.667    2.500    0.000    0.000 
#    9.000    8.333    0.000    0.000    0.000    0.000 
#    0.000    0.000    0.000    0.000    0.000    0.000 
#
# Total GULP energy -133929.223788 kJ/mol
# GULP energy per Si atom -5580.384324 kJ/mol
# Density = 2.506947 g / cm^3
# Si number density = 25.126662 Si / 1000 Ang^3
#
#
#
# Elastic Constant Matrix: (Units=GPa)
#
#
# Indices 1 2 3 4 5 6 
#
# 1 190.3093 64.8320 46.8385 0.0000 49.6794 0.0000
# 2 64.8320 107.1461 5.0084 0.0000 -6.2152 0.0000
# 3 46.8385 5.0084 24.6131 0.0000 22.4279 0.0000
# 4 0.0000 0.0000 0.0000 38.1517 0.0000 2.5327
# 5 49.6794 -6.2152 22.4279 0.0000 52.2484 0.0000
# 6 0.0000 0.0000 0.0000 2.5327 0.0000 11.5273
#
#
#
# Elastic Compliance Matrix: (Units=1/GPa)
#
#
# Indices 1 2 3 4 5 6 
#
# 1 0.014886 -0.008378 -0.021052 0.000000 -0.006114 0.000000
# 2 -0.008378 0.014473 0.006849 0.000000 0.006747 0.000000
# 3 -0.021052 0.006849 0.099062 0.000000 -0.021692 0.000000
# 4 0.000000 0.000000 0.000000 0.026599 0.000000 -0.005844
# 5 -0.006114 0.006747 -0.021692 0.000000 0.035067 0.000000
# 6 0.000000 0.000000 0.000000 -0.005844 0.000000 0.088035
#
#
# Mechanical properties :
#
#
# Convention : Reuss Voigt Hill
#
# Bulk Modulus (GPa) = 12.01045 61.71405 36.86225
# Shear Modulus (GPa) = 14.24355 34.07811 24.16083
#
# Velocity S-wave (km/s) = 2.38349 3.68673 3.10427
# Velocity P-wave (km/s) = 3.51639 6.53736 5.24891
#
# Compressibility (1/GPa) = 0.08326083
#
# Stress axis : x y z
#
# Youngs Moduli (GPa) = 67.17793 69.09181 10.09468
#
# Poissons Ratio (x) = 0.57883 0.21251
# Poissons Ratio (y) = 0.56280 -0.06914
# Poissons Ratio (z) = 1.41421 -0.47323
#
# Static dielectric constant tensor:
#      x y z
#    x 2.046810 0.000000 0.012800 
#    y 0.000000 1.993680 0.000000 
#    z 0.012800 0.000000 2.095670 
# 
# From -- ./inp_files/287767.got.cif
#   From: 2010.05.17/outbox.cif.g08.bks.cpg/sg15_144_cif.got.tgz:287767.got - 2010.06.03 18:47:42.
