data_PCOD9286005
_publ_section_title
;
Structure prediction by ZEFSAII (Michael W. Deem and Ramdas Pophale) SiO2 
 PCOD9286005
Probable space group: C 2/C
;
_chemical_formula_sum "Si O2"
_cell_formula_units_Z 60
_cell_length_a 27.376176
_cell_length_b 11.917527
_cell_length_c 32.255573
_cell_angle_alpha 90.000000
_cell_angle_beta 163.584608
_cell_angle_gamma 90.000000
_cell_volume 2973.956099
_symmetry_space_group_name_H-M "C 2/C"
_symmetry_group_IT_number 15
_symmetry_cell_setting 'monoclinic'
loop_
_space_group_symop_operation_xyz
x,y,z
-x,y,1/2-z
-x,-y,-z
x,-y,1/2+z
1/2+x,1/2+y,z
1/2-x,1/2+y,1/2-z
1/2-x,1/2-y,-z
1/2+x,1/2-y,1/2+z
loop_
_atom_site_type_symbol
_atom_site_label
_atom_site_fract_x
_atom_site_fract_y
_atom_site_fract_z
Si Si1 0.913887 0.070227 0.370510
Si Si2 0.133496 0.724255 0.020053
Si Si3 0.250233 0.062686 0.175388
Si Si4 0.000000 0.499879 0.250000
Si Si5 0.848322 0.496257 0.909804
Si Si6 0.706768 0.312846 0.507601
Si Si7 0.467891 0.874324 0.309225
Si Si8 0.303322 0.296624 0.171820
O O1 0.781911 0.073511 0.301727
O O2 0.824108 0.018996 0.257564
O O3 0.983871 0.193080 0.415322
O O4 0.074060 0.992337 0.514154
O O5 0.104172 0.692612 0.948212
O O6 0.131728 0.610974 0.044883
O O7 0.309553 0.790934 0.171080
O O8 0.282354 0.182790 0.181122
O O9 0.396933 0.976078 0.280260
O O10 0.169536 0.579362 0.385590
O O11 0.979322 0.427129 0.191589
O O12 0.827165 0.609653 0.918143
O O13 0.000000 0.500000 0.000000
O O14 0.750000 0.250000 0.500000
O O15 0.501918 0.336081 0.338947
O O16 0.756360 0.233264 0.586433
#
# Coordination Sequence:
#
# PCOD9286005 Si02
#       8
#     8   8   8   4   8   8   8   8
#     4  10  22  43  65  96 139 187 230 274 340 411
#     4  11  24  45  68  96 139 181 229 281 333 416
#     4  10  21  42  69  97 135 185 227 279 349 409
#     4  12  26  46  76  98 134 180 236 292 358 412
#     4  12  26  41  65 106 144 180 234 279 335 419
#     4  12  24  46  69 104 135 176 229 291 358 421
#     4  11  24  45  72  96 135 181 230 286 344 406
#     4  12  26  42  73 101 141 179 226 291 355 409
#
# _framework density 20.175145000000001
#
# number of rings (size 3 to 8) (size 9 to 14) (size 15 to 20)
#    0.000    0.800    4.000    2.400    7.467    0.533 
#    4.800    0.000    0.000    0.000    0.000    0.000 
#    0.000    0.000    0.000    0.000    0.000    0.000 
#
# Total GULP energy -167826.137196 kJ/mol
# GULP energy per Si atom -5594.204573 kJ/mol
# Density = 2.012923 g / cm^3
# Si number density = 20.175145 Si / 1000 Ang^3
#
#
#
# Elastic Constant Matrix: (Units=GPa)
#
#
# Indices 1 2 3 4 5 6 
#
# 1 126.6761 59.1464 41.8160 0.0396 -20.2027 0.0111
# 2 59.1464 126.3655 21.6942 0.0108 -4.3873 0.0033
# 3 41.8160 21.6942 58.3278 0.0597 -12.5542 -0.0124
# 4 0.0396 0.0108 0.0597 17.7043 -0.0004 -8.2268
# 5 -20.2027 -4.3873 -12.5542 -0.0004 39.4772 -0.0011
# 6 0.0111 0.0033 -0.0124 -8.2268 -0.0011 47.0720
#
#
#
# Elastic Compliance Matrix: (Units=1/GPa)
#
#
# Indices 1 2 3 4 5 6 
#
# 1 0.012961 -0.004786 -0.006654 -0.000006 0.003985 -0.000005
# 2 -0.004786 0.010221 -0.000701 0.000008 -0.001536 0.000002
# 3 -0.006654 -0.000701 0.023000 -0.000064 0.003831 -0.000003
# 4 -0.000006 0.000008 -0.000064 0.061476 -0.000022 0.010744
# 5 0.003985 -0.001536 0.003831 -0.000022 0.028418 -0.000003
# 6 -0.000005 0.000002 -0.000003 0.010744 -0.000003 0.023122
#
#
# Mechanical properties :
#
#
# Convention : Reuss Voigt Hill
#
# Bulk Modulus (GPa) = 45.66240 61.85361 53.75801
# Shear Modulus (GPa) = 26.20832 33.43155 29.81993
#
# Velocity S-wave (km/s) = 3.60813 4.07512 3.84872
# Velocity P-wave (km/s) = 6.32774 7.27097 6.81569
#
# Compressibility (1/GPa) = 0.02189986
#
# Stress axis : x y z
#
# Youngs Moduli (GPa) = 77.15682 97.84222 43.47765
#
# Poissons Ratio (x) = 0.46824 0.28930
# Poissons Ratio (y) = 0.36924 0.03048
# Poissons Ratio (z) = 0.51341 0.06860
#
# Static dielectric constant tensor:
#      x y z
#    x 1.698840 0.000030 0.001310 
#    y 0.000030 1.681630 -0.000030 
#    z 0.001310 -0.000030 1.733320 
# 
# From -- ./inp_files/319580.got.cif
#   From: 2010.05.17/outbox.cif.g08.bks.cpg/sg15_160_cif.got.tgz:319580.got - 2010.06.03 18:47:42.
