data_PCOD9286262
_publ_section_title
;
Structure prediction by ZEFSAII (Michael W. Deem and Ramdas Pophale) SiO2 
 PCOD9286262
Probable space group: C 2/C
;
_chemical_formula_sum "Si O2"
_cell_formula_units_Z 44
_cell_length_a 27.039525
_cell_length_b 12.951285
_cell_length_c 5.360978
_cell_angle_alpha 90.000000
_cell_angle_beta 68.024475
_cell_angle_gamma 90.000000
_cell_volume 1740.991744
_symmetry_space_group_name_H-M "C 2/C"
_symmetry_group_IT_number 15
_symmetry_cell_setting 'monoclinic'
loop_
_space_group_symop_operation_xyz
x,y,z
-x,y,1/2-z
-x,-y,-z
x,-y,1/2+z
1/2+x,1/2+y,z
1/2-x,1/2+y,1/2-z
1/2-x,1/2-y,-z
1/2+x,1/2-y,1/2+z
loop_
_atom_site_type_symbol
_atom_site_label
_atom_site_fract_x
_atom_site_fract_y
_atom_site_fract_z
Si Si1 0.500000 0.762448 0.750000
Si Si2 0.785156 0.435562 0.211457
Si Si3 0.383052 0.403477 0.009303
Si Si4 0.341410 0.367696 0.589028
Si Si5 0.250000 0.250000 0.500000
Si Si6 0.500000 0.374989 0.750000
Si Si7 0.591682 0.068478 0.061605
O O1 0.500218 0.694132 0.499224
O O2 0.449225 0.838243 0.855133
O O3 0.779485 0.517213 0.994930
O O4 0.846354 0.397033 0.061544
O O5 0.746913 0.342851 0.213768
O O6 0.365667 0.335358 0.807064
O O7 0.347532 0.507237 0.091374
O O8 0.444425 0.436193 0.857525
O O9 0.376346 0.342340 0.278280
O O10 0.285068 0.320997 0.628526
O O11 0.583845 0.999876 0.326265
#
# Coordination Sequence:
#
# PCOD9286262 Si02
#       7
#     4   8   8   8   4   4   8
#     4  12  24  39  69 108 132 180 234 289 342 439
#     4  10  26  45  69 104 141 184 239 296 361 427
#     4  10  24  47  69 104 143 191 221 302 345 438
#     4  10  25  44  72  98 138 182 248 272 361 407
#     4  12  28  46  78 106 140 198 240 310 354 438
#     4  12  26  39  71 106 148 178 234 275 368 423
#     4  10  21  43  65  93 134 181 229 291 352 413
#
# _framework density 25.272950999999999
#
# number of rings (size 3 to 8) (size 9 to 14) (size 15 to 20)
#    0.000    1.455    0.000    2.727   10.182    5.818 
#    0.000    0.000    0.000    0.000    0.000    0.000 
#    0.000    0.000    0.000    0.000    0.000    0.000 
#
# Total GULP energy -122700.371792 kJ/mol
# GULP energy per Si atom -5577.289627 kJ/mol
# Density = 2.521543 g / cm^3
# Si number density = 25.272951 Si / 1000 Ang^3
#
#
#
# Elastic Constant Matrix: (Units=GPa)
#
#
# Indices 1 2 3 4 5 6 
#
# 1 87.7356 41.9840 41.7785 0.0000 5.4078 0.0000
# 2 41.9840 59.9836 24.2041 0.0000 -1.1859 0.0000
# 3 41.7785 24.2041 183.2059 0.0000 23.1958 0.0000
# 4 0.0000 0.0000 0.0000 23.1843 0.0000 -1.7142
# 5 5.4078 -1.1859 23.1958 0.0000 30.2371 0.0000
# 6 0.0000 0.0000 0.0000 -1.7142 0.0000 0.2120
#
#
#
# Elastic Compliance Matrix: (Units=1/GPa)
#
#
# Indices 1 2 3 4 5 6 
#
# 1 0.018351 -0.011929 -0.002364 0.000000 -0.001937 0.000000
# 2 -0.011929 0.025572 -0.001169 0.000000 0.004033 0.000000
# 3 -0.002364 -0.001169 0.006761 0.000000 -0.004809 0.000000
# 4 0.000000 0.000000 0.000000 0.107278 0.000000 0.867555
# 5 -0.001937 0.004033 -0.004809 0.000000 0.037266 0.000000
# 6 0.000000 0.000000 0.000000 0.867555 0.000000 11.733558
#
#
# Mechanical properties :
#
#
# Convention : Reuss Voigt Hill
#
# Bulk Modulus (GPa) = 50.60448 60.76204 55.68326
# Shear Modulus (GPa) = 0.41784 25.59059 13.00421
#
# Velocity S-wave (km/s) = 0.40705 3.18554 2.27083
# Velocity P-wave (km/s) = 4.50417 6.13390 5.38109
#
# Compressibility (1/GPa) = 0.01976110
#
# Stress axis : x y z
#
# Youngs Moduli (GPa) = 54.49263 39.10544 147.91424
#
# Poissons Ratio (x) = 0.46649 0.34961
# Poissons Ratio (y) = 0.65004 0.17287
# Poissons Ratio (z) = 0.12880 0.04570
#
# Static dielectric constant tensor:
#      x y z
#    x 2.032480 0.000000 -0.028270 
#    y 0.000000 2.056290 0.000000 
#    z -0.028270 0.000000 1.998540 
# 
# From -- ./inp_files/15128.got.cif
#   From: 2010.05.17/outbox.cif.g08.bks.cpg/sg15_8_cif.got.tgz:15128.got - 2010.06.03 18:47:42.
