data_PCOD9286591
_publ_section_title
;
Structure prediction by ZEFSAII (Michael W. Deem and Ramdas Pophale) SiO2 
 PCOD9286591
Probable space group: C 2/C
;
_chemical_formula_sum "Si O2"
_cell_formula_units_Z 40
_cell_length_a 10.821307
_cell_length_b 18.581506
_cell_length_c 16.339099
_cell_angle_alpha 90.000000
_cell_angle_beta 148.487698
_cell_angle_gamma 90.000000
_cell_volume 1717.220101
_symmetry_space_group_name_H-M "C 2/C"
_symmetry_group_IT_number 15
_symmetry_cell_setting 'monoclinic'
loop_
_space_group_symop_operation_xyz
x,y,z
-x,y,1/2-z
-x,-y,-z
x,-y,1/2+z
1/2+x,1/2+y,z
1/2-x,1/2+y,1/2-z
1/2-x,1/2-y,-z
1/2+x,1/2-y,1/2+z
loop_
_atom_site_type_symbol
_atom_site_label
_atom_site_fract_x
_atom_site_fract_y
_atom_site_fract_z
Si Si1 0.356865 0.928212 0.394923
Si Si2 0.162352 0.402547 0.419935
Si Si3 0.081338 0.297426 0.962612
Si Si4 0.108920 0.827943 0.596984
Si Si5 0.907760 0.957525 0.028167
O O1 0.522211 0.886323 0.422887
O O2 0.312336 0.872272 0.443279
O O3 0.118725 0.949066 0.212173
O O4 0.500000 0.000000 0.500000
O O5 0.407818 0.362217 0.541540
O O6 0.210042 0.488661 0.449507
O O7 0.000000 0.387202 0.250000
O O8 0.844555 0.315454 0.780606
O O9 0.250000 0.250000 0.000000
O O10 0.027622 0.245437 0.008846
O O11 0.161718 0.882312 0.551341
O O12 0.000000 0.000000 0.000000
#
# Coordination Sequence:
#
# PCOD9286591 Si02
#       5
#     8   8   8   8   8
#     4  12  26  47  77 116 151 201 259 313 392 459
#     4  11  24  46  78 108 151 200 257 324 378 462
#     4  12  29  50  74 110 153 202 255 317 388 471
#     4  11  25  48  74 107 149 201 256 312 395 451
#     4  10  21  43  73 111 150 195 252 315 388 453
#
# _framework density 23.293461000000001
#
# number of rings (size 3 to 8) (size 9 to 14) (size 15 to 20)
#    0.000    0.800    4.000    4.200    2.800    4.000 
#    0.000    0.000    0.000    0.000    0.000    0.000 
#    0.000    0.000    0.000    0.000    0.000    0.000 
#
# Total GULP energy -112025.550443 kJ/mol
# GULP energy per Si atom -5601.277522 kJ/mol
# Density = 2.324044 g / cm^3
# Si number density = 23.293461 Si / 1000 Ang^3
#
#
#
# Elastic Constant Matrix: (Units=GPa)
#
#
# Indices 1 2 3 4 5 6 
#
# 1 116.5012 28.5580 33.1710 -0.0012 1.1565 0.0009
# 2 28.5580 136.8175 56.6598 -0.0028 -18.7477 0.0023
# 3 33.1710 56.6598 206.6797 -0.0335 -19.1328 -0.0017
# 4 -0.0012 -0.0028 -0.0335 40.8388 -0.0067 -10.4132
# 5 1.1565 -18.7477 -19.1328 -0.0067 36.4303 0.0010
# 6 0.0009 0.0023 -0.0017 -10.4132 0.0010 51.8785
#
#
#
# Elastic Compliance Matrix: (Units=1/GPa)
#
#
# Indices 1 2 3 4 5 6 
#
# 1 0.009361 -0.001703 -0.001203 -0.000001 -0.001805 0.000000
# 2 -0.001703 0.008929 -0.001833 0.000000 0.003686 -0.000001
# 3 -0.001203 -0.001833 0.005729 0.000005 0.002103 0.000001
# 4 -0.000001 0.000000 0.000005 0.025807 0.000007 0.005180
# 5 -0.001805 0.003686 0.002103 0.000007 0.030509 0.000001
# 6 0.000000 -0.000001 0.000001 0.005180 0.000001 0.020316
#
#
# Mechanical properties :
#
#
# Convention : Reuss Voigt Hill
#
# Bulk Modulus (GPa) = 68.77248 77.41955 73.09602
# Shear Modulus (GPa) = 43.48738 48.60350 46.04544
#
# Velocity S-wave (km/s) = 4.32549 4.57286 4.45089
# Velocity P-wave (km/s) = 7.38478 7.82241 7.60674
#
# Compressibility (1/GPa) = 0.01454070
#
# Stress axis : x y z
#
# Youngs Moduli (GPa) = 106.82058 111.99683 174.56004
#
# Poissons Ratio (x) = 0.19077 0.20993
# Poissons Ratio (y) = 0.18196 0.31999
# Poissons Ratio (z) = 0.12847 0.20531
#
# Static dielectric constant tensor:
#      x y z
#    x 1.822600 -0.000010 0.029370 
#    y -0.000010 1.946290 0.000010 
#    z 0.029370 0.000010 1.770700 
# 
# From -- ./inp_files/199749.got.cif
#   From: 2010.05.17/outbox.cif.g08.bks.cpg/sg15_100_cif.got.tgz:199749.got - 2010.06.03 18:47:42.
