data_PCOD9286456
_publ_section_title
;
Structure prediction by ZEFSAII (Michael W. Deem and Ramdas Pophale) SiO2 
 PCOD9286456
Probable space group: C 2/C
;
_chemical_formula_sum "Si O2"
_cell_formula_units_Z 36
_cell_length_a 17.464517
_cell_length_b 22.133734
_cell_length_c 8.883827
_cell_angle_alpha 90.000000
_cell_angle_beta 149.025221
_cell_angle_gamma 90.000000
_cell_volume 1767.389914
_symmetry_space_group_name_H-M "C 2/C"
_symmetry_group_IT_number 15
_symmetry_cell_setting 'monoclinic'
loop_
_space_group_symop_operation_xyz
x,y,z
-x,y,1/2-z
-x,-y,-z
x,-y,1/2+z
1/2+x,1/2+y,z
1/2-x,1/2+y,1/2-z
1/2-x,1/2-y,-z
1/2+x,1/2-y,1/2+z
loop_
_atom_site_type_symbol
_atom_site_label
_atom_site_fract_x
_atom_site_fract_y
_atom_site_fract_z
Si Si1 0.969360 0.436365 0.870445
Si Si2 0.000000 0.985740 0.750000
Si Si3 0.595341 0.827463 0.258028
Si Si4 0.364356 0.581308 0.753130
Si Si5 0.551697 0.307288 0.660354
O O1 0.801382 0.411759 0.586267
O O2 0.000000 0.447406 0.750000
O O3 0.000000 0.500000 0.000000
O O4 0.068722 0.384279 0.107937
O O5 0.927383 0.029926 0.749066
O O6 0.886096 0.944897 0.460254
O O7 0.500000 0.837645 0.250000
O O8 0.536324 0.763445 0.093861
O O9 0.773883 0.821462 0.573968
O O10 0.454754 0.643884 0.906976
O O11 0.500000 0.311275 0.750000
#
# Coordination Sequence:
#
# PCOD9286456 Si02
#       5
#     8   4   8   8   8
#     4  12  26  41  64  97 134 168 208 271 329 388
#     4  10  24  38  62  94 124 162 216 262 310 376
#     4  10  24  43  66  95 131 173 215 268 328 381
#     4  11  23  40  65  91 127 169 214 262 317 387
#     4  10  21  43  69  91 128 177 218 264 320 390
#
# _framework density 20.369019999999999
#
# number of rings (size 3 to 8) (size 9 to 14) (size 15 to 20)
#    0.000    1.333    1.111    3.333    9.333    0.889 
#    2.000    0.000    0.000    0.000    0.000    0.000 
#    0.000    0.000    0.000    0.000    0.000    0.000 
#
# Total GULP energy -100460.029178 kJ/mol
# GULP energy per Si atom -5581.112732 kJ/mol
# Density = 2.032266 g / cm^3
# Si number density = 20.369020 Si / 1000 Ang^3
#
#
#
# Elastic Constant Matrix: (Units=GPa)
#
#
# Indices 1 2 3 4 5 6 
#
# 1 92.1108 31.7112 18.9373 0.0000 -1.8020 0.0000
# 2 31.7112 173.3761 61.4153 0.0000 -13.7909 0.0000
# 3 18.9373 61.4153 73.3194 0.0000 5.3028 0.0000
# 4 0.0000 0.0000 0.0000 70.3675 0.0000 -30.1667
# 5 -1.8020 -13.7909 5.3028 0.0000 33.1885 0.0000
# 6 0.0000 0.0000 0.0000 -30.1667 0.0000 45.5365
#
#
#
# Elastic Compliance Matrix: (Units=1/GPa)
#
#
# Indices 1 2 3 4 5 6 
#
# 1 0.011746 -0.001480 -0.001817 0.000000 0.000313 0.000000
# 2 -0.001480 0.009131 -0.007623 0.000000 0.004932 0.000000
# 3 -0.001817 -0.007623 0.020972 0.000000 -0.006617 0.000000
# 4 0.000000 0.000000 0.000000 0.019848 0.000000 0.013149
# 5 0.000313 0.004932 -0.006617 0.000000 0.033255 0.000000
# 6 0.000000 0.000000 0.000000 0.013149 0.000000 0.030671
#
#
# Mechanical properties :
#
#
# Convention : Reuss Voigt Hill
#
# Bulk Modulus (GPa) = 49.97624 62.54821 56.26222
# Shear Modulus (GPa) = 32.43975 44.93467 38.68721
#
# Velocity S-wave (km/s) = 3.99507 4.70193 4.36284
# Velocity P-wave (km/s) = 6.77270 7.76220 7.28427
#
# Compressibility (1/GPa) = 0.02000951
#
# Stress axis : x y z
#
# Youngs Moduli (GPa) = 85.13826 109.51562 47.68218
#
# Poissons Ratio (x) = 0.16207 0.08663
# Poissons Ratio (y) = 0.12599 0.36348
# Poissons Ratio (z) = 0.15468 0.83485
#
# Static dielectric constant tensor:
#      x y z
#    x 1.609320 0.000000 -0.132570 
#    y 0.000000 1.695020 0.000000 
#    z -0.132570 0.000000 1.545060 
# 
# From -- ./inp_files/22552.got.cif
#   From: 2010.05.17/outbox.cif.g08.bks.cpg/sg15_12_cif.got.tgz:22552.got - 2010.06.03 18:47:42.
