data_PCOD9286325
_publ_section_title
;
Structure prediction by ZEFSAII (Michael W. Deem and Ramdas Pophale) SiO2 
 PCOD9286325
Probable space group: C 2/C
;
_chemical_formula_sum "Si O2"
_cell_formula_units_Z 60
_cell_length_a 20.259316
_cell_length_b 20.024843
_cell_length_c 8.870684
_cell_angle_alpha 90.000000
_cell_angle_beta 50.302124
_cell_angle_gamma 90.000000
_cell_volume 2768.957586
_symmetry_space_group_name_H-M "C 2/C"
_symmetry_group_IT_number 15
_symmetry_cell_setting 'monoclinic'
loop_
_space_group_symop_operation_xyz
x,y,z
-x,y,1/2-z
-x,-y,-z
x,-y,1/2+z
1/2+x,1/2+y,z
1/2-x,1/2+y,1/2-z
1/2-x,1/2-y,-z
1/2+x,1/2-y,1/2+z
loop_
_atom_site_type_symbol
_atom_site_label
_atom_site_fract_x
_atom_site_fract_y
_atom_site_fract_z
Si Si1 0.782537 0.894308 0.275036
Si Si2 0.731935 0.245109 0.845562
Si Si3 0.069271 0.004737 0.026778
Si Si4 0.121645 0.567664 0.537051
Si Si5 0.100524 0.557581 0.913167
Si Si6 0.542705 0.798701 0.526777
Si Si7 0.209843 0.102572 0.374322
Si Si8 0.500000 0.808546 0.250000
O O1 0.793015 0.816581 0.209070
O O2 0.688174 0.919933 0.368580
O O3 0.785477 0.898311 0.451803
O O4 0.856545 0.940730 0.101497
O O5 0.728817 0.321309 0.796783
O O6 0.750000 0.250000 0.000000
O O7 0.640354 0.219564 0.920282
O O8 0.000000 0.024667 0.250000
O O9 0.120545 0.934466 0.968398
O O10 0.000000 0.000000 0.000000
O O11 0.128228 0.548390 0.700791
O O12 0.067476 0.511426 0.529718
O O13 0.212296 0.565486 0.320777
O O14 0.079310 0.640890 0.601303
O O15 0.036931 0.620520 0.022380
O O16 0.500000 0.777537 0.750000
O O17 0.516022 0.774965 0.394102
#
# Coordination Sequence:
#
# PCOD9286325 Si02
#       8
#     8   8   8   8   8   8   8   4
#     4  10  21  43  66  97 130 173 233 281 348 428
#     4   9  22  44  74 101 127 186 245 287 357 441
#     4  12  25  41  66 100 140 177 229 296 357 416
#     4  11  23  37  63  93 136 172 221 276 338 413
#     4  10  22  36  61  97 125 173 219 268 333 413
#     4  10  23  42  68  94 141 177 223 286 350 416
#     4  11  23  42  71  96 131 184 230 289 348 429
#     4  10  26  40  60 104 138 176 228 282 356 416
#
# _framework density 21.668804000000002
#
# number of rings (size 3 to 8) (size 9 to 14) (size 15 to 20)
#    0.000    1.600    2.667    0.800   10.267    1.600 
#    0.000    6.000    2.933    0.000    0.000    0.000 
#    0.000    0.000    0.000    0.000    0.000    0.000 
#
# Total GULP energy -167054.437488 kJ/mol
# GULP energy per Si atom -5568.481250 kJ/mol
# Density = 2.161949 g / cm^3
# Si number density = 21.668804 Si / 1000 Ang^3
#
#
#
# Elastic Constant Matrix: (Units=GPa)
#
#
# Indices 1 2 3 4 5 6 
#
# 1 128.1392 18.7107 36.1486 0.0000 17.9957 0.0000
# 2 18.7107 102.1380 10.4729 0.0000 2.6271 0.0000
# 3 36.1486 10.4729 104.0883 0.0000 3.8299 0.0000
# 4 0.0000 0.0000 0.0000 6.9328 0.0000 -8.1801
# 5 17.9957 2.6271 3.8299 0.0000 35.5721 0.0000
# 6 0.0000 0.0000 0.0000 -8.1801 0.0000 -3.7875
#
#
#
# Elastic Compliance Matrix: (Units=1/GPa)
#
#
# Indices 1 2 3 4 5 6 
#
# 1 0.009452 -0.001313 -0.002990 0.000000 -0.004363 0.000000
# 2 -0.001313 0.010089 -0.000558 0.000000 -0.000021 0.000000
# 3 -0.002990 -0.000558 0.010687 0.000000 0.000403 0.000000
# 4 0.000000 0.000000 0.000000 0.040651 0.000000 -0.087796
# 5 -0.004363 -0.000021 0.000403 0.000000 0.030277 0.000000
# 6 0.000000 0.000000 0.000000 -0.087796 0.000000 -0.074409
#
#
# Mechanical properties :
#
#
# Convention : Reuss Voigt Hill
#
# Bulk Modulus (GPa) = 48.76708 51.66997 50.21853
# Shear Modulus (GPa) = 115.46290 25.67904 70.57097
#
# Velocity S-wave (km/s) = 7.30760 3.44622 5.71303
# Velocity P-wave (km/s) = 9.68276 6.30336 8.16971
#
# Compressibility (1/GPa) = 0.02050564
#
# Stress axis : x y z
#
# Youngs Moduli (GPa) = 105.79927 99.11835 93.57212
#
# Poissons Ratio (x) = 0.13011 0.27977
# Poissons Ratio (y) = 0.13888 0.05226
# Poissons Ratio (z) = 0.31633 0.05535
#
# Static dielectric constant tensor:
#      x y z
#    x 1.784170 0.000000 -0.001760 
#    y 0.000000 0.696900 0.000000 
#    z -0.001760 0.000000 1.779930 
# 
# From -- ./inp_files/58067.got.cif
#   From: 2010.05.17/outbox.cif.g08.bks.cpg/sg15_30_cif.got.tgz:58067.got - 2010.06.03 18:47:42.
