data_PCOD9286201
_publ_section_title
;
Structure prediction by ZEFSAII (Michael W. Deem and Ramdas Pophale) SiO2 
 PCOD9286201
Probable space group: C 2/C
;
_chemical_formula_sum "Si O2"
_cell_formula_units_Z 64
_cell_length_a 12.966504
_cell_length_b 14.040124
_cell_length_c 21.180854
_cell_angle_alpha 90.000000
_cell_angle_beta 137.691539
_cell_angle_gamma 90.000000
_cell_volume 2595.559080
_symmetry_space_group_name_H-M "C 2/C"
_symmetry_group_IT_number 15
_symmetry_cell_setting 'monoclinic'
loop_
_space_group_symop_operation_xyz
x,y,z
-x,y,1/2-z
-x,-y,-z
x,-y,1/2+z
1/2+x,1/2+y,z
1/2-x,1/2+y,1/2-z
1/2-x,1/2-y,-z
1/2+x,1/2-y,1/2+z
loop_
_atom_site_type_symbol
_atom_site_label
_atom_site_fract_x
_atom_site_fract_y
_atom_site_fract_z
Si Si1 0.857319 0.533698 0.658030
Si Si2 0.915737 0.940788 0.018424
Si Si3 0.181305 0.062866 0.846557
Si Si4 0.176662 0.371018 0.602336
Si Si5 0.857979 0.263205 0.442075
Si Si6 0.122509 0.259239 0.387350
Si Si7 0.283177 0.702008 0.270112
Si Si8 0.186569 0.091480 0.709181
O O1 0.753896 0.479769 0.561404
O O2 0.904720 0.632052 0.645735
O O3 0.769120 0.558041 0.683033
O O4 0.000000 0.476453 0.750000
O O5 0.907353 0.828069 0.004486
O O6 0.018992 0.956171 0.126373
O O7 0.000000 0.000000 0.000000
O O8 0.229124 0.159908 0.903850
O O9 0.253016 0.076772 0.808342
O O10 0.000000 0.054315 0.750000
O O11 0.268471 0.967593 0.907188
O O12 0.302324 0.294119 0.637320
O O13 0.204257 0.378124 0.690950
O O14 0.012121 0.328914 0.507408
O O15 0.791893 0.208673 0.349730
O O16 0.250000 0.250000 0.500000
O O17 0.962959 0.212781 0.334865
O O18 0.188749 0.794857 0.206711
#
# Coordination Sequence:
#
# PCOD9286201 Si02
#       8
#     8   8   8   8   8   8   8   8
#     4  11  21  38  61 101 139 169 223 280 345 419
#     4  10  22  39  66  95 132 176 230 277 333 412
#     4  11  27  45  68  94 138 185 239 276 338 415
#     4  12  22  42  68 102 136 176 229 289 349 413
#     4  11  24  45  67  97 137 181 229 285 344 403
#     4  12  22  36  66 105 144 168 213 291 357 406
#     4  11  21  37  68  95 135 174 212 282 357 396
#     4  10  21  43  63  91 132 178 217 282 333 406
#
# _framework density 24.657499999999999
#
# number of rings (size 3 to 8) (size 9 to 14) (size 15 to 20)
#    0.000    1.000    5.000    2.250    3.500    1.500 
#    0.000    1.875    0.000    0.000    0.000    0.000 
#    0.000    0.000    0.000    0.000    0.000    0.000 
#
# Total GULP energy -178608.259028 kJ/mol
# GULP energy per Si atom -5581.508095 kJ/mol
# Density = 2.460138 g / cm^3
# Si number density = 24.657500 Si / 1000 Ang^3
#
#
#
# Elastic Constant Matrix: (Units=GPa)
#
#
# Indices 1 2 3 4 5 6 
#
# 1 21.8888 4.2312 9.6391 0.0000 -7.4765 0.0000
# 2 4.2312 104.9001 9.9949 0.0000 15.8088 0.0000
# 3 9.6391 9.9949 134.1402 0.0000 -4.4992 0.0000
# 4 0.0000 0.0000 0.0000 40.3436 0.0000 5.1725
# 5 -7.4765 15.8088 -4.4992 0.0000 30.6149 0.0000
# 6 0.0000 0.0000 0.0000 5.1725 0.0000 6.8440
#
#
#
# Elastic Compliance Matrix: (Units=1/GPa)
#
#
# Indices 1 2 3 4 5 6 
#
# 1 0.052747 -0.004030 -0.003003 0.000000 0.014521 0.000000
# 2 -0.004030 0.010768 -0.000736 0.000000 -0.006653 0.000000
# 3 -0.003003 -0.000736 0.007752 0.000000 0.000786 0.000000
# 4 0.000000 0.000000 0.000000 0.027447 0.000000 -0.020744
# 5 0.014521 -0.006653 0.000786 0.000000 0.039761 0.000000
# 6 0.000000 0.000000 0.000000 -0.020744 0.000000 0.161791
#
#
# Mechanical properties :
#
#
# Convention : Reuss Voigt Hill
#
# Bulk Modulus (GPa) = 17.94388 34.29549 26.11969
# Shear Modulus (GPa) = 14.95309 31.36475 23.15892
#
# Velocity S-wave (km/s) = 2.46526 3.57040 3.06800
# Velocity P-wave (km/s) = 3.92382 5.56201 4.81313
#
# Compressibility (1/GPa) = 0.05572930
#
# Stress axis : x y z
#
# Youngs Moduli (GPa) = 18.95857 92.86676 129.00119
#
# Poissons Ratio (x) = 0.37423 0.38739
# Poissons Ratio (y) = 0.07640 0.09493
# Poissons Ratio (z) = 0.05693 0.06834
#
# Static dielectric constant tensor:
#      x y z
#    x 2.002170 0.000000 0.021110 
#    y 0.000000 1.991420 0.000000 
#    z 0.021110 0.000000 1.975340 
# 
# From -- ./inp_files/274341.got.cif
#   From: 2010.05.17/outbox.cif.g08.bks.cpg/sg15_138_cif.got.tgz:274341.got - 2010.06.03 18:47:42.
