data_PCOD9286040
_publ_section_title
;
Structure prediction by ZEFSAII (Michael W. Deem and Ramdas Pophale) SiO2 
 PCOD9286040
Probable space group: C 2/C
;
_chemical_formula_sum "Si O2"
_cell_formula_units_Z 48
_cell_length_a 10.101370
_cell_length_b 21.210886
_cell_length_c 18.533210
_cell_angle_alpha 90.000000
_cell_angle_beta 141.035725
_cell_angle_gamma 90.000000
_cell_volume 2497.048211
_symmetry_space_group_name_H-M "C 2/C"
_symmetry_group_IT_number 15
_symmetry_cell_setting 'monoclinic'
loop_
_space_group_symop_operation_xyz
x,y,z
-x,y,1/2-z
-x,-y,-z
x,-y,1/2+z
1/2+x,1/2+y,z
1/2-x,1/2+y,1/2-z
1/2-x,1/2-y,-z
1/2+x,1/2-y,1/2+z
loop_
_atom_site_type_symbol
_atom_site_label
_atom_site_fract_x
_atom_site_fract_y
_atom_site_fract_z
Si Si1 0.689644 0.502968 0.782097
Si Si2 0.044705 0.286665 0.440979
Si Si3 0.727494 0.826450 0.811964
Si Si4 0.483455 0.905549 0.156965
Si Si5 0.751233 0.365961 0.844661
Si Si6 0.493976 0.555447 0.055551
O O1 0.500000 0.530923 0.750000
O O2 0.788933 0.441540 0.863467
O O3 0.575609 0.472835 0.664580
O O4 0.861905 0.550187 0.823599
O O5 0.250000 0.250000 0.500000
O O6 0.970469 0.334119 0.346796
O O7 0.116571 0.328512 0.539794
O O8 0.866977 0.235615 0.382354
O O9 0.500000 0.820841 0.750000
O O10 0.704254 0.840794 0.716775
O O11 0.854149 0.886129 0.898413
O O12 0.500000 0.915866 0.250000
O O13 0.241592 0.919491 0.035317
O O14 0.500000 0.356979 0.750000
O O15 0.500000 0.500000 0.000000
#
# Coordination Sequence:
#
# PCOD9286040 Si02
#       6
#     8   8   8   8   8   8
#     4  10  23  42  65 100 138 169 219 276 338 391
#     4  12  24  43  67  98 129 178 234 262 324 402
#     4  11  26  44  67  99 137 175 219 279 337 393
#     4  12  25  42  71 100 133 179 224 280 325 398
#     4  10  21  42  70  93 133 185 215 265 334 406
#     4  11  23  42  67 100 133 176 223 266 339 399
#
# _framework density 19.222697
#
# number of rings (size 3 to 8) (size 9 to 14) (size 15 to 20)
#    0.000    1.000    5.000    2.000    7.000    4.000 
#    0.000    0.000    0.000    0.000    0.000    0.000 
#    0.000    0.000    0.000    0.000    0.000    0.000 
#
# Total GULP energy -134159.450593 kJ/mol
# GULP energy per Si atom -5589.977108 kJ/mol
# Density = 1.917895 g / cm^3
# Si number density = 19.222697 Si / 1000 Ang^3
#
#
#
# Elastic Constant Matrix: (Units=GPa)
#
#
# Indices 1 2 3 4 5 6 
#
# 1 149.4759 78.6693 52.1287 0.0001 30.7277 0.0002
# 2 78.6693 129.5407 54.5549 0.0000 21.2070 -0.0003
# 3 52.1287 54.5549 79.5765 -0.0004 26.8182 -0.0011
# 4 0.0001 0.0000 -0.0004 41.8488 0.0000 0.1224
# 5 30.7277 21.2070 26.8182 0.0000 43.2503 -0.0001
# 6 0.0002 -0.0003 -0.0011 0.1224 -0.0001 27.3897
#
#
#
# Elastic Compliance Matrix: (Units=1/GPa)
#
#
# Indices 1 2 3 4 5 6 
#
# 1 0.010963 -0.004992 -0.002477 0.000000 -0.003805 0.000000
# 2 -0.004992 0.013153 -0.006029 0.000000 0.000835 0.000000
# 3 -0.002477 -0.006029 0.021154 0.000000 -0.008401 0.000001
# 4 0.000000 0.000000 0.000000 0.023896 0.000000 -0.000107
# 5 -0.003805 0.000835 -0.008401 0.000000 0.030624 0.000000
# 6 0.000000 0.000000 0.000001 -0.000107 0.000000 0.036511
#
#
# Mechanical properties :
#
#
# Convention : Reuss Voigt Hill
#
# Bulk Modulus (GPa) = 54.72135 81.03321 67.87728
# Shear Modulus (GPa) = 29.51794 34.04711 31.78253
#
# Velocity S-wave (km/s) = 3.92290 4.21312 4.07060
# Velocity P-wave (km/s) = 7.00340 8.11872 7.58160
#
# Compressibility (1/GPa) = 0.01827440
#
# Stress axis : x y z
#
# Youngs Moduli (GPa) = 91.21251 76.02614 47.27317
#
# Poissons Ratio (x) = 0.37951 0.11711
# Poissons Ratio (y) = 0.45531 0.28501
# Poissons Ratio (z) = 0.22595 0.45836
#
# Static dielectric constant tensor:
#      x y z
#    x 1.683450 0.000000 -0.030700 
#    y 0.000000 1.689330 0.000000 
#    z -0.030700 0.000000 1.662450 
# 
# From -- ./inp_files/191963.got.cif
#   From: 2010.05.17/outbox.cif.g08.bks.cpg/sg15_96_cif.got.tgz:191963.got - 2010.06.03 18:47:42.
