data_PCOD9286616
_publ_section_title
;
Structure prediction by ZEFSAII (Michael W. Deem and Ramdas Pophale) SiO2 
 PCOD9286616
Probable space group: C 2/C
;
_chemical_formula_sum "Si O2"
_cell_formula_units_Z 64
_cell_length_a 14.961141
_cell_length_b 29.920249
_cell_length_c 9.601909
_cell_angle_alpha 90.000000
_cell_angle_beta 42.377075
_cell_angle_gamma 90.000000
_cell_volume 2897.022214
_symmetry_space_group_name_H-M "C 2/C"
_symmetry_group_IT_number 15
_symmetry_cell_setting 'monoclinic'
loop_
_space_group_symop_operation_xyz
x,y,z
-x,y,1/2-z
-x,-y,-z
x,-y,1/2+z
1/2+x,1/2+y,z
1/2-x,1/2+y,1/2-z
1/2-x,1/2-y,-z
1/2+x,1/2-y,1/2+z
loop_
_atom_site_type_symbol
_atom_site_label
_atom_site_fract_x
_atom_site_fract_y
_atom_site_fract_z
Si Si1 0.183567 0.531339 0.662220
Si Si2 0.781547 0.415769 0.636673
Si Si3 0.848125 0.310780 0.971055
Si Si4 0.127290 0.210064 0.503133
Si Si5 0.920457 0.978353 0.464862
Si Si6 0.771309 0.101850 0.783698
Si Si7 0.878971 0.569458 0.290680
Si Si8 0.458271 0.355550 0.642582
O O1 0.147764 0.555718 0.561805
O O2 0.338393 0.516315 0.477042
O O3 0.193210 0.566647 0.775721
O O4 0.110425 0.483679 0.757527
O O5 0.878302 0.401928 0.649776
O O6 0.681336 0.381541 0.683040
O O7 0.684447 0.447333 0.838103
O O8 0.836632 0.262183 0.056575
O O9 0.000000 0.316223 0.750000
O O10 0.750171 0.310665 0.948809
O O11 0.798172 0.350027 0.127934
O O12 0.079517 0.183653 0.421787
O O13 0.000000 0.208685 0.750000
O O14 0.000000 0.955295 0.250000
O O15 0.000000 0.000000 0.500000
O O16 0.922672 0.112978 0.559384
O O17 0.747151 0.080878 0.965346
O O18 0.000000 0.580896 0.250000
O O19 0.500000 0.341688 0.750000
#
# Coordination Sequence:
#
# PCOD9286616 Si02
#       8
#     8   8   8   8   8   8   8   8
#     4  11  24  40  58  93 131 180 231 282 348 403
#     4  11  24  37  61  94 128 172 226 285 348 410
#     4  10  22  43  77 109 139 176 235 295 349 434
#     4  10  21  43  76 109 139 177 230 293 364 419
#     4  11  21  33  54  85 128 167 215 284 344 400
#     4  12  24  42  69 100 138 186 235 288 353 422
#     4  11  26  45  66  91 130 187 247 296 342 413
#     4  12  25  42  67 104 146 179 222 292 363 432
#
# _framework density 22.091650000000001
#
# number of rings (size 3 to 8) (size 9 to 14) (size 15 to 20)
#    0.000    1.000    3.750    3.375    5.250    2.000 
#    0.000    0.625    2.750    0.000    0.000    0.000 
#    0.000    0.000    0.000    0.000    0.000    0.000 
#
# Total GULP energy -178689.522550 kJ/mol
# GULP energy per Si atom -5584.047580 kJ/mol
# Density = 2.204137 g / cm^3
# Si number density = 22.091650 Si / 1000 Ang^3
#
#
#
# Elastic Constant Matrix: (Units=GPa)
#
#
# Indices 1 2 3 4 5 6 
#
# 1 147.6038 28.0589 27.2595 0.0000 8.9223 0.0000
# 2 28.0589 105.9192 17.1564 0.0000 9.6646 0.0000
# 3 27.2595 17.1564 53.9289 0.0000 2.0673 0.0000
# 4 0.0000 0.0000 0.0000 21.7646 0.0000 9.9115
# 5 8.9223 9.6646 2.0673 0.0000 47.2659 0.0000
# 6 0.0000 0.0000 0.0000 9.9115 0.0000 31.6472
#
#
#
# Elastic Compliance Matrix: (Units=1/GPa)
#
#
# Indices 1 2 3 4 5 6 
#
# 1 0.007736 -0.001401 -0.003425 0.000000 -0.001024 0.000000
# 2 -0.001401 0.010381 -0.002527 0.000000 -0.001748 0.000000
# 3 -0.003425 -0.002527 0.021069 0.000000 0.000242 0.000000
# 4 0.000000 0.000000 0.000000 0.053589 0.000000 -0.016784
# 5 -0.001024 -0.001748 0.000242 0.000000 0.021697 0.000000
# 6 0.000000 0.000000 0.000000 -0.016784 0.000000 0.036855
#
#
# Mechanical properties :
#
#
# Convention : Reuss Voigt Hill
#
# Bulk Modulus (GPa) = 40.85193 50.26684 45.55938
# Shear Modulus (GPa) = 28.70367 35.80067 32.25217
#
# Velocity S-wave (km/s) = 3.60849 4.02998 3.82504
# Velocity P-wave (km/s) = 5.99114 6.66764 6.33842
#
# Compressibility (1/GPa) = 0.02447865
#
# Stress axis : x y z
#
# Youngs Moduli (GPa) = 129.27102 96.32850 47.46297
#
# Poissons Ratio (x) = 0.13496 0.16257
# Poissons Ratio (y) = 0.18111 0.11996
# Poissons Ratio (z) = 0.44278 0.24346
#
# Static dielectric constant tensor:
#      x y z
#    x 1.979690 0.000000 -0.046450 
#    y 0.000000 1.833770 0.000000 
#    z -0.046450 0.000000 1.871800 
# 
# From -- ./inp_files/44827.got.cif
#   From: 2010.05.17/outbox.cif.g08.bks.cpg/sg15_23_cif.got.tgz:44827.got - 2010.06.03 18:47:42.
