data_PCOD9286334
_publ_section_title
;
Structure prediction by ZEFSAII (Michael W. Deem and Ramdas Pophale) SiO2 
 PCOD9286334
Probable space group: C 2/C
;
_chemical_formula_sum "Si O2"
_cell_formula_units_Z 64
_cell_length_a 19.458327
_cell_length_b 19.372580
_cell_length_c 24.917468
_cell_angle_alpha 90.000000
_cell_angle_beta 18.362703
_cell_angle_gamma 90.000000
_cell_volume 2959.038167
_symmetry_space_group_name_H-M "C 2/C"
_symmetry_group_IT_number 15
_symmetry_cell_setting 'monoclinic'
loop_
_space_group_symop_operation_xyz
x,y,z
-x,y,1/2-z
-x,-y,-z
x,-y,1/2+z
1/2+x,1/2+y,z
1/2-x,1/2+y,1/2-z
1/2-x,1/2-y,-z
1/2+x,1/2-y,1/2+z
loop_
_atom_site_type_symbol
_atom_site_label
_atom_site_fract_x
_atom_site_fract_y
_atom_site_fract_z
Si Si1 0.236423 0.090561 0.801150
Si Si2 0.245124 0.582992 0.953685
Si Si3 0.255824 0.271408 0.416569
Si Si4 0.742434 0.812785 0.046025
Si Si5 0.092274 0.159560 0.373319
Si Si6 0.115417 0.538192 0.365490
Si Si7 0.181976 0.796445 0.252065
Si Si8 0.109803 0.550652 0.610680
O O1 0.268842 0.146475 0.729332
O O2 0.435763 0.077956 0.695264
O O3 0.221149 0.016955 0.783255
O O4 0.034464 0.117821 0.986074
O O5 0.500000 0.581346 0.750000
O O6 0.195070 0.663891 0.000226
O O7 0.206956 0.523857 0.025626
O O8 0.078255 0.558697 0.031323
O O9 0.500000 0.249545 0.250000
O O10 0.257203 0.303816 0.355377
O O11 0.079380 0.211187 0.550095
O O12 0.500000 0.814199 0.250000
O O13 0.780344 0.886649 0.989437
O O14 0.750000 0.750000 0.000000
O O15 0.913883 0.807406 0.966547
O O16 0.246589 0.107015 0.226688
O O17 0.229169 0.221794 0.296306
O O18 0.000000 0.500000 0.500000
O O19 0.000000 0.544052 0.750000
#
# Coordination Sequence:
#
# PCOD9286334 Si02
#       8
#     8   8   8   8   8   8   8   8
#     4  11  23  43  70  97 138 177 226 278 335 407
#     4  10  23  42  65  97 133 170 223 278 337 401
#     4  11  24  46  68  96 135 171 228 286 342 407
#     4  11  24  44  66 101 140 180 229 277 337 411
#     4  12  24  43  70  97 139 181 227 276 344 411
#     4  11  25  43  67 101 134 174 229 287 341 409
#     4  12  24  44  72  99 132 181 226 282 345 402
#     4  10  21  43  66  98 138 179 222 269 332 407
#
# _framework density 21.62865
#
# number of rings (size 3 to 8) (size 9 to 14) (size 15 to 20)
#    0.000    1.000    5.000    2.250    1.750    0.500 
#    2.250    3.125    0.000    0.000    0.000    0.000 
#    0.000    0.000    0.000    0.000    0.000    0.000 
#
# Total GULP energy -178806.446018 kJ/mol
# GULP energy per Si atom -5587.701438 kJ/mol
# Density = 2.157942 g / cm^3
# Si number density = 21.628650 Si / 1000 Ang^3
#
#
#
# Elastic Constant Matrix: (Units=GPa)
#
#
# Indices 1 2 3 4 5 6 
#
# 1 83.3573 28.7472 26.2672 0.0666 2.9527 -0.0059
# 2 28.7472 94.5312 26.1721 -0.0356 -1.1799 0.0020
# 3 26.2672 26.1721 59.0504 -0.0313 -11.8239 -0.0223
# 4 0.0666 -0.0356 -0.0313 18.6548 -0.0879 11.4748
# 5 2.9527 -1.1799 -11.8239 -0.0879 30.3757 0.0031
# 6 -0.0059 0.0020 -0.0223 11.4748 0.0031 32.2171
#
#
#
# Elastic Compliance Matrix: (Units=1/GPa)
#
#
# Indices 1 2 3 4 5 6 
#
# 1 0.015108 -0.002920 -0.006229 -0.000113 -0.004007 0.000039
# 2 -0.002920 0.012709 -0.004531 0.000032 -0.000986 -0.000016
# 3 -0.006229 -0.004531 0.023643 0.000115 0.009633 -0.000026
# 4 -0.000113 0.000032 0.000115 0.068647 0.000258 -0.024450
# 5 -0.004007 -0.000986 0.009633 0.000258 0.037023 -0.000089
# 6 0.000039 -0.000016 -0.000026 -0.024450 -0.000089 0.039748
#
#
# Mechanical properties :
#
#
# Convention : Reuss Voigt Hill
#
# Bulk Modulus (GPa) = 41.49453 44.36799 42.93126
# Shear Modulus (GPa) = 21.52662 26.63302 24.07982
#
# Velocity S-wave (km/s) = 3.15823 3.51291 3.34028
# Velocity P-wave (km/s) = 5.70315 6.08375 5.89652
#
# Compressibility (1/GPa) = 0.02409956
#
# Stress axis : x y z
#
# Youngs Moduli (GPa) = 66.18839 78.68590 42.29649
#
# Poissons Ratio (x) = 0.22977 0.26345
# Poissons Ratio (y) = 0.19327 0.19166
# Poissons Ratio (z) = 0.41227 0.35655
#
# Static dielectric constant tensor:
#      x y z
#    x 1.803330 0.000230 -0.003870 
#    y 0.000230 1.812090 -0.000310 
#    z -0.003870 -0.000310 1.793760 
# 
# From -- ./inp_files/278105.got.cif
#   From: 2010.05.17/outbox.cif.g08.bks.cpg/sg15_140_cif.got.tgz:278105.got - 2010.06.03 18:47:42.
