data_PCOD9286100
_publ_section_title
;
Structure prediction by ZEFSAII (Michael W. Deem and Ramdas Pophale) SiO2 
 PCOD9286100
Probable space group: C 2/C
;
_chemical_formula_sum "Si O2"
_cell_formula_units_Z 56
_cell_length_a 11.053001
_cell_length_b 19.332438
_cell_length_c 12.027956
_cell_angle_alpha 90.000000
_cell_angle_beta 76.323281
_cell_angle_gamma 90.000000
_cell_volume 2497.275226
_symmetry_space_group_name_H-M "C 2/C"
_symmetry_group_IT_number 15
_symmetry_cell_setting 'monoclinic'
loop_
_space_group_symop_operation_xyz
x,y,z
-x,y,1/2-z
-x,-y,-z
x,-y,1/2+z
1/2+x,1/2+y,z
1/2-x,1/2+y,1/2-z
1/2-x,1/2-y,-z
1/2+x,1/2-y,1/2+z
loop_
_atom_site_type_symbol
_atom_site_label
_atom_site_fract_x
_atom_site_fract_y
_atom_site_fract_z
Si Si1 0.455301 0.136089 0.937561
Si Si2 0.303296 0.875026 0.966912
Si Si3 0.722640 0.351307 0.631450
Si Si4 0.148841 0.114644 0.724470
Si Si5 0.647157 0.766429 0.718920
Si Si6 0.751206 0.028849 0.229745
Si Si7 0.000000 0.523094 0.750000
Si Si8 0.500000 0.749834 0.250000
O O1 0.444685 0.071799 0.856824
O O2 0.516923 0.198363 0.851481
O O3 0.556881 0.118610 0.011813
O O4 0.312661 0.151458 0.005478
O O5 0.302398 0.799933 0.906075
O O6 0.255673 0.929942 0.884857
O O7 0.210343 0.885766 0.089335
O O8 0.819006 0.324227 0.701568
O O9 0.687398 0.427523 0.683403
O O10 0.606617 0.300815 0.677702
O O11 0.191016 0.191531 0.753004
O O12 0.000000 0.112244 0.750000
O O13 0.193537 0.048258 0.783161
O O14 0.500000 0.760880 0.750000
O O15 0.605618 0.020075 0.286993
#
# Coordination Sequence:
#
# PCOD9286100 Si02
#       8
#     8   8   8   8   8   8   4   4
#     4  11  23  43  76  99 135 175 229 293 339 395
#     4  11  22  44  71 102 129 181 229 290 337 388
#     4  11  24  44  69 100 139 178 221 285 345 401
#     4  11  25  44  66  99 145 184 225 277 340 417
#     4  10  21  42  72 100 127 173 236 284 331 398
#     4  11  26  42  68 101 141 178 229 278 338 418
#     4  11  24  42  68 106 131 174 236 282 341 398
#     4  11  26  44  66 106 139 178 228 280 347 420
#
# _framework density 22.424441999999999
#
# number of rings (size 3 to 8) (size 9 to 14) (size 15 to 20)
#    0.000    1.143    2.857    2.571    7.000    2.857 
#    0.000    0.000    0.000    0.000    0.000    0.000 
#    0.000    0.000    0.000    0.000    0.000    0.000 
#
# Total GULP energy -156075.628304 kJ/mol
# GULP energy per Si atom -5574.129582 kJ/mol
# Density = 2.237340 g / cm^3
# Si number density = 22.424442 Si / 1000 Ang^3
#
#
#
# Elastic Constant Matrix: (Units=GPa)
#
#
# Indices 1 2 3 4 5 6 
#
# 1 62.3077 21.8119 16.2406 0.0000 -22.2151 0.0000
# 2 21.8119 122.5741 25.1341 0.0000 3.3582 0.0000
# 3 16.2406 25.1341 94.3982 0.0000 -24.3782 0.0000
# 4 0.0000 0.0000 0.0000 14.0198 0.0000 -7.8564
# 5 -22.2151 3.3582 -24.3782 0.0000 37.6970 0.0000
# 6 0.0000 0.0000 0.0000 -7.8564 0.0000 45.9831
#
#
#
# Elastic Compliance Matrix: (Units=1/GPa)
#
#
# Indices 1 2 3 4 5 6 
#
# 1 0.022510 -0.004618 0.001067 0.000000 0.014367 0.000000
# 2 -0.004618 0.009813 -0.003298 0.000000 -0.005728 0.000000
# 3 0.001067 -0.003298 0.013837 0.000000 0.009871 0.000000
# 4 0.000000 0.000000 0.000000 0.078880 0.000000 0.013477
# 5 0.014367 -0.005728 0.009871 0.000000 0.041888 0.000000
# 6 0.000000 0.000000 0.000000 0.013477 0.000000 0.024050
#
#
# Mechanical properties :
#
#
# Convention : Reuss Voigt Hill
#
# Bulk Modulus (GPa) = 30.80406 45.07256 37.93831
# Shear Modulus (GPa) = 23.20230 33.94620 28.57425
#
# Velocity S-wave (km/s) = 3.22015 3.89498 3.57353
# Velocity P-wave (km/s) = 5.25285 6.35384 5.82939
#
# Compressibility (1/GPa) = 0.03246325
#
# Stress axis : x y z
#
# Youngs Moduli (GPa) = 44.42412 101.90309 72.27009
#
# Poissons Ratio (x) = 0.47060 -0.07712
# Poissons Ratio (y) = 0.20516 0.23832
# Poissons Ratio (z) = -0.04741 0.33604
#
# Static dielectric constant tensor:
#      x y z
#    x 1.838350 0.000000 -0.000130 
#    y 0.000000 1.890690 0.000000 
#    z -0.000130 0.000000 1.781680 
# 
# From -- ./inp_files/89577.got.cif
#   From: 2010.05.17/outbox.cif.g08.bks.cpg/sg15_45_cif.got.tgz:89577.got - 2010.06.03 18:47:42.
