data_PCOD9286873
_publ_section_title
;
Structure prediction by ZEFSAII (Michael W. Deem and Ramdas Pophale) SiO2 
 PCOD9286873
Probable space group: C 2/C
;
_chemical_formula_sum "Si O2"
_cell_formula_units_Z 48
_cell_length_a 9.382793
_cell_length_b 29.081657
_cell_length_c 15.894230
_cell_angle_alpha 90.000000
_cell_angle_beta 33.653194
_cell_angle_gamma 90.000000
_cell_volume 2403.419379
_symmetry_space_group_name_H-M "C 2/C"
_symmetry_group_IT_number 15
_symmetry_cell_setting 'monoclinic'
loop_
_space_group_symop_operation_xyz
x,y,z
-x,y,1/2-z
-x,-y,-z
x,-y,1/2+z
1/2+x,1/2+y,z
1/2-x,1/2+y,1/2-z
1/2-x,1/2-y,-z
1/2+x,1/2-y,1/2+z
loop_
_atom_site_type_symbol
_atom_site_label
_atom_site_fract_x
_atom_site_fract_y
_atom_site_fract_z
Si Si1 0.194028 0.881435 0.387549
Si Si2 0.877612 0.122030 0.218253
Si Si3 0.979856 0.808897 0.165299
Si Si4 0.446086 0.527271 0.942453
Si Si5 0.549709 0.205133 0.320349
Si Si6 0.895676 0.475421 0.634913
O O1 0.500000 0.889136 0.250000
O O2 0.046368 0.921532 0.409515
O O3 0.065978 0.881262 0.544017
O O4 0.145399 0.837779 0.349384
O O5 0.735247 0.170031 0.274320
O O6 0.689505 0.077855 0.316766
O O7 0.000000 0.122823 0.250000
O O8 0.000000 0.829818 0.250000
O O9 0.854776 0.757848 0.231305
O O10 0.274888 0.798808 0.998670
O O11 0.637231 0.503386 0.782924
O O12 0.500000 0.500000 0.000000
O O13 0.145774 0.522113 0.071353
O O14 0.500000 0.188666 0.250000
O O15 0.000000 0.500000 0.500000
#
# Coordination Sequence:
#
# PCOD9286873 Si02
#       6
#     8   8   8   8   8   8
#     4  12  27  45  68 102 142 184 233 288 347 417
#     4  12  27  45  69  99 141 188 232 284 349 416
#     4  10  23  42  71 104 137 178 232 293 349 419
#     4  12  25  44  71  98 136 179 228 282 348 410
#     4  10  21  44  72 100 135 182 235 287 353 415
#     4  12  27  46  70 103 136 179 230 288 345 414
#
# _framework density 19.971546
#
# number of rings (size 3 to 8) (size 9 to 14) (size 15 to 20)
#    0.000    0.667    3.333    4.000    4.667    2.000 
#    0.000    1.667    0.000    0.000    0.000    0.000 
#    0.000    0.000    0.000    0.000    0.000    0.000 
#
# Total GULP energy -133870.315720 kJ/mol
# GULP energy per Si atom -5577.929822 kJ/mol
# Density = 1.992609 g / cm^3
# Si number density = 19.971546 Si / 1000 Ang^3
#
#
#
# Elastic Constant Matrix: (Units=GPa)
#
#
# Indices 1 2 3 4 5 6 
#
# 1 126.8427 44.3202 16.3755 0.0000 -2.6021 0.0000
# 2 44.3202 76.0071 11.1121 0.0000 -0.7746 0.0000
# 3 16.3755 11.1121 77.2556 0.0000 9.6431 0.0000
# 4 0.0000 0.0000 0.0000 24.7514 0.0000 4.9521
# 5 -2.6021 -0.7746 9.6431 0.0000 36.9530 0.0000
# 6 0.0000 0.0000 0.0000 4.9521 0.0000 27.7953
#
#
#
# Elastic Compliance Matrix: (Units=1/GPa)
#
#
# Indices 1 2 3 4 5 6 
#
# 1 0.010063 -0.005647 -0.001441 0.000000 0.000966 0.000000
# 2 -0.005647 0.016632 -0.001229 0.000000 0.000272 0.000000
# 3 -0.001441 -0.001229 0.013895 0.000000 -0.003753 0.000000
# 4 0.000000 0.000000 0.000000 0.041895 0.000000 -0.007464
# 5 0.000966 0.000272 -0.003753 0.000000 0.028115 0.000000
# 6 0.000000 0.000000 0.000000 -0.007464 0.000000 0.037307
#
#
# Mechanical properties :
#
#
# Convention : Reuss Voigt Hill
#
# Bulk Modulus (GPa) = 41.74604 47.08013 44.41309
# Shear Modulus (GPa) = 28.98102 31.78644 30.38373
#
# Velocity S-wave (km/s) = 3.81348 3.99380 3.90468
# Velocity P-wave (km/s) = 6.35125 6.70015 6.52803
#
# Compressibility (1/GPa) = 0.02395437
#
# Stress axis : x y z
#
# Youngs Moduli (GPa) = 99.37541 60.12494 71.96909
#
# Poissons Ratio (x) = 0.33953 0.10373
# Poissons Ratio (y) = 0.56119 0.08847
# Poissons Ratio (z) = 0.14323 0.07391
#
# Static dielectric constant tensor:
#      x y z
#    x 1.695580 0.000000 0.029760 
#    y 0.000000 1.874630 0.000000 
#    z 0.029760 0.000000 1.741220 
# 
# From -- ./inp_files/138933.got.cif
#   From: 2010.05.17/outbox.cif.g08.bks.cpg/sg15_70_cif.got.tgz:138933.got - 2010.06.03 18:47:42.
