data_PCOD9286009
_publ_section_title
;
Structure prediction by ZEFSAII (Michael W. Deem and Ramdas Pophale) SiO2 
 PCOD9286009
Probable space group: C 2/C
;
_chemical_formula_sum "Si O2"
_cell_formula_units_Z 56
_cell_length_a 28.848067
_cell_length_b 11.464650
_cell_length_c 15.735776
_cell_angle_alpha 90.000000
_cell_angle_beta 31.322817
_cell_angle_gamma 90.000000
_cell_volume 2705.524914
_symmetry_space_group_name_H-M "C 2/C"
_symmetry_group_IT_number 15
_symmetry_cell_setting 'monoclinic'
loop_
_space_group_symop_operation_xyz
x,y,z
-x,y,1/2-z
-x,-y,-z
x,-y,1/2+z
1/2+x,1/2+y,z
1/2-x,1/2+y,1/2-z
1/2-x,1/2-y,-z
1/2+x,1/2-y,1/2+z
loop_
_atom_site_type_symbol
_atom_site_label
_atom_site_fract_x
_atom_site_fract_y
_atom_site_fract_z
Si Si1 0.216932 0.625144 0.944327
Si Si2 0.310097 0.398691 0.858282
Si Si3 0.032333 0.696554 0.296269
Si Si4 0.492209 0.636746 0.997624
Si Si5 0.133897 0.551542 0.894389
Si Si6 0.709014 0.694304 0.939782
Si Si7 0.359976 0.775547 0.632909
O O1 0.283473 0.530232 0.879265
O O2 0.173552 0.569160 0.927334
O O3 0.274566 0.734625 0.822062
O O4 0.134978 0.657445 0.133724
O O5 0.388523 0.346738 0.678213
O O6 0.228395 0.315876 0.958440
O O7 0.335324 0.383213 0.917170
O O8 0.019161 0.819574 0.362703
O O9 0.000000 0.702854 0.250000
O O10 0.964709 0.608208 0.449861
O O11 0.554185 0.711394 0.963051
O O12 0.500000 0.500000 0.000000
O O13 0.202635 0.622080 0.726853
O O14 0.131092 0.414548 0.879690
O O15 0.657220 0.727016 0.935281
#
# Coordination Sequence:
#
# PCOD9286009 Si02
#       7
#     8   8   8   8   8   8   8
#     4  10  22  42  69  98 131 174 225 273 323 402
#     4  11  22  44  67  95 138 172 221 269 335 392
#     4  10  24  45  70  98 132 175 222 276 334 392
#     4  12  26  45  64  97 136 172 218 282 331 390
#     4  10  21  42  69  98 130 172 222 278 330 388
#     4  10  23  41  68  98 127 181 216 273 333 394
#     4  11  24  42  67  98 136 173 223 275 332 395
#
# _framework density 20.698385999999999
#
# number of rings (size 3 to 8) (size 9 to 14) (size 15 to 20)
#    0.000    1.429    4.286    0.000    2.000    5.143 
#    5.143    0.000    0.000    0.000    0.000    0.000 
#    0.000    0.000    0.000    0.000    0.000    0.000 
#
# Total GULP energy -156371.427007 kJ/mol
# GULP energy per Si atom -5584.693822 kJ/mol
# Density = 2.065128 g / cm^3
# Si number density = 20.698386 Si / 1000 Ang^3
#
#
#
# Elastic Constant Matrix: (Units=GPa)
#
#
# Indices 1 2 3 4 5 6 
#
# 1 41.1108 21.4860 -3.8088 0.0000 -0.4228 0.0000
# 2 21.4860 153.1367 32.2668 0.0000 0.7892 0.0000
# 3 -3.8088 32.2668 59.2705 0.0000 -1.7762 0.0000
# 4 0.0000 0.0000 0.0000 25.4248 0.0000 -1.1585
# 5 -0.4228 0.7892 -1.7762 0.0000 27.1148 0.0000
# 6 0.0000 0.0000 0.0000 -1.1585 0.0000 28.6086
#
#
#
# Elastic Compliance Matrix: (Units=1/GPa)
#
#
# Indices 1 2 3 4 5 6 
#
# 1 0.027214 -0.004740 0.004355 0.000000 0.000848 0.000000
# 2 -0.004740 0.008208 -0.004792 0.000000 -0.000627 0.000000
# 3 0.004355 -0.004792 0.019805 0.000000 0.001505 0.000000
# 4 0.000000 0.000000 0.000000 0.039404 0.000000 0.001596
# 5 0.000848 -0.000627 0.001505 0.000000 0.037010 0.000000
# 6 0.000000 0.000000 0.000000 0.001596 0.000000 0.035019
#
#
# Mechanical properties :
#
#
# Convention : Reuss Voigt Hill
#
# Bulk Modulus (GPa) = 22.28514 39.26732 30.77623
# Shear Modulus (GPa) = 26.04522 29.80123 27.92323
#
# Velocity S-wave (km/s) = 3.55113 3.79857 3.67693
# Velocity P-wave (km/s) = 5.25395 6.18476 5.73826
#
# Compressibility (1/GPa) = 0.04487295
#
# Stress axis : x y z
#
# Youngs Moduli (GPa) = 36.74566 121.83086 50.49125
#
# Poissons Ratio (x) = 0.57751 -0.21988
# Poissons Ratio (y) = 0.17418 0.24195
# Poissons Ratio (z) = -0.16002 0.58380
#
# Static dielectric constant tensor:
#      x y z
#    x 1.751360 0.000000 -0.010540 
#    y 0.000000 1.738550 0.000000 
#    z -0.010540 0.000000 1.774870 
# 
# From -- ./inp_files/181893.got.cif
#   From: 2010.05.17/outbox.cif.g08.bks.cpg/sg15_91_cif.got.tgz:181893.got - 2010.06.03 18:47:42.
