data_PCOD9286384
_publ_section_title
;
Structure prediction by ZEFSAII (Michael W. Deem and Ramdas Pophale) SiO2 
 PCOD9286384
Probable space group: C 2/C
;
_chemical_formula_sum "Si O2"
_cell_formula_units_Z 40
_cell_length_a 17.435092
_cell_length_b 7.472657
_cell_length_c 12.551592
_cell_angle_alpha 90.000000
_cell_angle_beta 102.700993
_cell_angle_gamma 90.000000
_cell_volume 1595.287865
_symmetry_space_group_name_H-M "C 2/C"
_symmetry_group_IT_number 15
_symmetry_cell_setting 'monoclinic'
loop_
_space_group_symop_operation_xyz
x,y,z
-x,y,1/2-z
-x,-y,-z
x,-y,1/2+z
1/2+x,1/2+y,z
1/2-x,1/2+y,1/2-z
1/2-x,1/2-y,-z
1/2+x,1/2-y,1/2+z
loop_
_atom_site_type_symbol
_atom_site_label
_atom_site_fract_x
_atom_site_fract_y
_atom_site_fract_z
Si Si1 0.583101 0.947500 0.085998
Si Si2 0.907220 0.267994 0.213992
Si Si3 0.385255 0.520977 0.512709
Si Si4 0.714497 0.055284 0.962858
Si Si5 0.476284 0.296138 0.360245
O O1 0.604650 0.771488 0.162189
O O2 0.570111 0.112465 0.166507
O O3 0.500000 0.000000 0.000000
O O4 0.658418 0.995721 0.040157
O O5 0.896830 0.109147 0.122402
O O6 0.844910 0.411970 0.151806
O O7 0.000000 0.307798 0.250000
O O8 0.293362 0.557625 0.471227
O O9 0.422663 0.413544 0.424296
O O10 0.438913 0.693937 0.554161
O O11 0.750000 0.250000 0.000000
O O12 0.500000 0.361271 0.250000
#
# Coordination Sequence:
#
# PCOD9286384 Si02
#       5
#     8   8   8   8   8
#     4  12  23  41  69 102 135 182 237 276 349 430
#     4  11  20  39  69  93 135 187 223 281 350 414
#     4  10  23  45  65 100 144 181 230 293 362 407
#     4  10  21  43  67  96 141 177 229 294 346 412
#     4  11  23  39  71  99 134 180 233 291 344 423
#
# _framework density 25.073843
#
# number of rings (size 3 to 8) (size 9 to 14) (size 15 to 20)
#    0.000    1.200    6.000    1.200    0.000    3.200 
#    0.000    5.000    0.000    0.000    0.000    0.000 
#    0.000    0.000    0.000    0.000    0.000    0.000 
#
# Total GULP energy -111399.594117 kJ/mol
# GULP energy per Si atom -5569.979706 kJ/mol
# Density = 2.501677 g / cm^3
# Si number density = 25.073843 Si / 1000 Ang^3
#
#
#
# Elastic Constant Matrix: (Units=GPa)
#
#
# Indices 1 2 3 4 5 6 
#
# 1 237.7992 36.7378 47.8901 0.0000 6.3999 0.0000
# 2 36.7378 73.1156 5.1490 0.0000 0.2953 0.0000
# 3 47.8901 5.1490 151.6445 0.0000 2.8723 0.0000
# 4 0.0000 0.0000 0.0000 -27.5645 0.0000 56.9151
# 5 6.3999 0.2953 2.8723 0.0000 52.5599 0.0000
# 6 0.0000 0.0000 0.0000 56.9151 0.0000 -10.1673
#
#
#
# Elastic Compliance Matrix: (Units=1/GPa)
#
#
# Indices 1 2 3 4 5 6 
#
# 1 0.004873 -0.002344 -0.001450 0.000000 -0.000501 0.000000
# 2 -0.002344 0.014838 0.000233 0.000000 0.000189 0.000000
# 3 -0.001450 0.000233 0.007048 0.000000 -0.000210 0.000000
# 4 0.000000 0.000000 0.000000 0.003436 0.000000 0.019234
# 5 -0.000501 0.000189 -0.000210 0.000000 0.019097 0.000000
# 6 0.000000 0.000000 0.000000 0.019234 0.000000 0.009315
#
#
# Mechanical properties :
#
#
# Convention : Reuss Voigt Hill
#
# Bulk Modulus (GPa) = 50.92533 71.34590 61.13562
# Shear Modulus (GPa) = 69.17998 27.81777 48.49888
#
# Velocity S-wave (km/s) = 5.25836 3.33443 4.40277
# Velocity P-wave (km/s) = 7.56448 6.58336 7.09091
#
# Compressibility (1/GPa) = 0.01963659
#
# Stress axis : x y z
#
# Youngs Moduli (GPa) = 205.21854 67.39576 141.87841
#
# Poissons Ratio (x) = 0.15800 0.20569
# Poissons Ratio (y) = 0.48109 -0.03305
# Poissons Ratio (z) = 0.29752 -0.01570
#
# Static dielectric constant tensor:
#      x y z
#    x 1.911140 0.000000 0.002560 
#    y 0.000000 2.244670 0.000000 
#    z 0.002560 0.000000 2.251390 
# 
# From -- ./inp_files/102789.got.cif
#   From: 2010.05.17/outbox.cif.g08.bks.cpg/sg15_52_cif.got.tgz:102789.got - 2010.06.03 18:47:42.
