data_PCOD9286704
_publ_section_title
;
Structure prediction by ZEFSAII (Michael W. Deem and Ramdas Pophale) SiO2 
 PCOD9286704
Probable space group: C 2/C
;
_chemical_formula_sum "Si O2"
_cell_formula_units_Z 48
_cell_length_a 11.456121
_cell_length_b 10.553203
_cell_length_c 19.056633
_cell_angle_alpha 90.000000
_cell_angle_beta 109.834099
_cell_angle_gamma 90.000000
_cell_volume 2167.252467
_symmetry_space_group_name_H-M "C 2/C"
_symmetry_group_IT_number 15
_symmetry_cell_setting 'monoclinic'
loop_
_space_group_symop_operation_xyz
x,y,z
-x,y,1/2-z
-x,-y,-z
x,-y,1/2+z
1/2+x,1/2+y,z
1/2-x,1/2+y,1/2-z
1/2-x,1/2-y,-z
1/2+x,1/2-y,1/2+z
loop_
_atom_site_type_symbol
_atom_site_label
_atom_site_fract_x
_atom_site_fract_y
_atom_site_fract_z
Si Si1 0.596616 0.480517 0.179063
Si Si2 0.060776 0.277067 0.830708
Si Si3 0.726762 0.633743 0.574258
Si Si4 0.640841 0.618443 0.405176
Si Si5 0.978043 0.496034 0.077924
Si Si6 0.757346 0.410558 0.343108
O O1 0.514883 0.353153 0.173931
O O2 0.669476 0.453337 0.122437
O O3 0.497521 0.594272 0.152332
O O4 0.688962 0.479842 0.263832
O O5 0.039708 0.365290 0.892531
O O6 0.199651 0.229497 0.840907
O O7 0.000000 0.341704 0.750000
O O8 0.638104 0.643799 0.488187
O O9 0.772739 0.771438 0.609782
O O10 0.853318 0.575459 0.571451
O O11 0.714648 0.489514 0.402844
O O12 0.096642 0.424318 0.134646
O O13 0.000000 0.500000 0.000000
#
# Coordination Sequence:
#
# PCOD9286704 Si02
#       6
#     8   8   8   8   8   8
#     4  10  22  43  69  92 122 170 218 263 321 381
#     4   9  22  43  67  90 124 168 211 265 321 377
#     4  11  24  39  64  99 129 165 210 264 323 386
#     4  10  21  44  66  91 130 165 212 263 319 383
#     4  12  25  42  62  94 135 167 208 269 322 385
#     4  10  22  45  66  92 125 170 215 262 322 385
#
# _framework density 22.147856000000001
#
# number of rings (size 3 to 8) (size 9 to 14) (size 15 to 20)
#    0.000    1.667    1.667    3.000    4.667    2.000 
#    9.000    0.000    0.000    0.000    0.000    0.000 
#    0.000    0.000    0.000    0.000    0.000    0.000 
#
# Total GULP energy -134090.908716 kJ/mol
# GULP energy per Si atom -5587.121197 kJ/mol
# Density = 2.209745 g / cm^3
# Si number density = 22.147856 Si / 1000 Ang^3
#
#
#
# Elastic Constant Matrix: (Units=GPa)
#
#
# Indices 1 2 3 4 5 6 
#
# 1 95.3440 -4.3931 36.3757 0.0000 10.5561 0.0000
# 2 -4.3931 49.7618 23.9543 0.0000 6.8569 0.0000
# 3 36.3757 23.9543 99.6737 0.0000 14.0936 0.0000
# 4 0.0000 0.0000 0.0000 25.6913 0.0000 -9.2842
# 5 10.5561 6.8569 14.0936 0.0000 37.2390 0.0000
# 6 0.0000 0.0000 0.0000 -9.2842 0.0000 18.1983
#
#
#
# Elastic Compliance Matrix: (Units=1/GPa)
#
#
# Indices 1 2 3 4 5 6 
#
# 1 0.012994 0.004068 -0.005381 0.000000 -0.002396 0.000000
# 2 0.004068 0.024176 -0.006870 0.000000 -0.003005 0.000000
# 3 -0.005381 -0.006870 0.014002 0.000000 -0.002509 0.000000
# 4 0.000000 0.000000 0.000000 0.047722 0.000000 0.024346
# 5 -0.002396 -0.003005 -0.002509 0.000000 0.029036 0.000000
# 6 0.000000 0.000000 0.000000 0.024346 0.000000 0.067371
#
#
# Mechanical properties :
#
#
# Convention : Reuss Voigt Hill
#
# Bulk Modulus (GPa) = 28.73077 39.62813 34.17945
# Shear Modulus (GPa) = 22.39459 28.81524 25.60491
#
# Velocity S-wave (km/s) = 3.18329 3.61091 3.40382
# Velocity P-wave (km/s) = 5.14894 5.94275 5.56003
#
# Compressibility (1/GPa) = 0.03480588
#
# Stress axis : x y z
#
# Youngs Moduli (GPa) = 76.95901 41.36368 71.41724
#
# Poissons Ratio (x) = -0.16825 0.38429
# Poissons Ratio (y) = -0.31303 0.49061
# Poissons Ratio (z) = 0.41411 0.28416
#
# Static dielectric constant tensor:
#      x y z
#    x 1.833490 0.000000 0.005550 
#    y 0.000000 1.900060 0.000000 
#    z 0.005550 0.000000 1.854220 
# 
# From -- ./inp_files/196207.got.cif
#   From: 2010.05.17/outbox.cif.g08.bks.cpg/sg15_99_cif.got.tgz:196207.got - 2010.06.03 18:47:42.
