data_PCOD9286584
_publ_section_title
;
Structure prediction by ZEFSAII (Michael W. Deem and Ramdas Pophale) SiO2 
 PCOD9286584
Probable space group: C 2/C
;
_chemical_formula_sum "Si O2"
_cell_formula_units_Z 40
_cell_length_a 10.097269
_cell_length_b 12.194172
_cell_length_c 23.175534
_cell_angle_alpha 90.000000
_cell_angle_beta 144.246441
_cell_angle_gamma 90.000000
_cell_volume 1667.331426
_symmetry_space_group_name_H-M "C 2/C"
_symmetry_group_IT_number 15
_symmetry_cell_setting 'monoclinic'
loop_
_space_group_symop_operation_xyz
x,y,z
-x,y,1/2-z
-x,-y,-z
x,-y,1/2+z
1/2+x,1/2+y,z
1/2-x,1/2+y,1/2-z
1/2-x,1/2-y,-z
1/2+x,1/2-y,1/2+z
loop_
_atom_site_type_symbol
_atom_site_label
_atom_site_fract_x
_atom_site_fract_y
_atom_site_fract_z
Si Si1 0.249317 0.981252 0.937126
Si Si2 0.786955 0.870017 0.881979
Si Si3 0.589591 0.303620 0.703801
Si Si4 0.561743 0.717171 0.887339
Si Si5 0.712054 0.090955 0.916323
O O1 0.103750 0.892519 0.849440
O O2 0.088829 0.087985 0.886764
O O3 0.296299 0.943465 0.019512
O O4 0.500000 0.000000 0.000000
O O5 0.833042 0.850133 0.831400
O O6 0.638511 0.774066 0.855391
O O7 0.683255 0.986472 0.864713
O O8 0.030838 0.867313 0.000190
O O9 0.461603 0.188138 0.653820
O O10 0.820350 0.270564 0.817893
O O11 0.750000 0.750000 0.000000
#
# Coordination Sequence:
#
# PCOD9286584 Si02
#       5
#     8   8   8   8   8
#     4  11  23  44  74 103 147 189 233 310 379 428
#     4  10  21  43  72  99 136 189 232 296 368 429
#     4  11  25  44  72 107 140 192 250 292 366 453
#     4  12  25  43  66 103 151 182 240 308 361 436
#     4  10  21  43  73 100 141 179 246 300 360 439
#
# _framework density 23.990431999999998
#
# number of rings (size 3 to 8) (size 9 to 14) (size 15 to 20)
#    0.000    1.200    2.000    5.400    2.800    0.000 
#    0.000    6.000    0.000    0.000    0.000    0.000 
#    0.000    0.000    0.000    0.000    0.000    0.000 
#
# Total GULP energy -111914.208231 kJ/mol
# GULP energy per Si atom -5595.710412 kJ/mol
# Density = 2.393583 g / cm^3
# Si number density = 23.990432 Si / 1000 Ang^3
#
#
#
# Elastic Constant Matrix: (Units=GPa)
#
#
# Indices 1 2 3 4 5 6 
#
# 1 108.5125 41.5824 44.8143 0.0000 15.4503 0.0000
# 2 41.5824 142.7764 77.4278 0.0000 17.4190 0.0000
# 3 44.8143 77.4278 174.8243 0.0000 25.6524 0.0000
# 4 0.0000 0.0000 0.0000 -11.9568 0.0000 8.3506
# 5 15.4503 17.4190 25.6524 0.0000 30.4754 0.0000
# 6 0.0000 0.0000 0.0000 8.3506 0.0000 30.6969
#
#
#
# Elastic Compliance Matrix: (Units=1/GPa)
#
#
# Indices 1 2 3 4 5 6 
#
# 1 0.011056 -0.002036 -0.001461 0.000000 -0.003212 0.000000
# 2 -0.002036 0.009711 -0.003555 0.000000 -0.001526 0.000000
# 3 -0.001461 -0.003555 0.008286 0.000000 -0.004201 0.000000
# 4 0.000000 0.000000 0.000000 -0.070282 0.000000 0.019119
# 5 -0.003212 -0.001526 -0.004201 0.000000 0.038850 0.000000
# 6 0.000000 0.000000 0.000000 0.019119 0.000000 0.027376
#
#
# Mechanical properties :
#
#
# Convention : Reuss Voigt Hill
#
# Bulk Modulus (GPa) = 66.89587 83.75137 75.32362
# Shear Modulus (GPa) = 113.41867 27.32901 70.37384
#
# Velocity S-wave (km/s) = 6.88326 3.37881 5.42197
# Velocity P-wave (km/s) = 9.54554 7.08575 8.40610
#
# Compressibility (1/GPa) = 0.01494861
#
# Stress axis : x y z
#
# Youngs Moduli (GPa) = 90.44493 102.97609 120.69063
#
# Poissons Ratio (x) = 0.20964 0.17637
# Poissons Ratio (y) = 0.18413 0.42907
# Poissons Ratio (z) = 0.13217 0.36609
#
# Static dielectric constant tensor:
#      x y z
#    x 1.960430 0.000000 0.010360 
#    y 0.000000 1.919570 0.000000 
#    z 0.010360 0.000000 1.932600 
# 
# From -- ./inp_files/141830.got.cif
#   From: 2010.05.17/outbox.cif.g08.bks.cpg/sg15_71_cif.got.tgz:141830.got - 2010.06.03 18:47:42.
