data_PCOD9286674
_publ_section_title
;
Structure prediction by ZEFSAII (Michael W. Deem and Ramdas Pophale) SiO2 
 PCOD9286674
Probable space group: C 2/C
;
_chemical_formula_sum "Si O2"
_cell_formula_units_Z 52
_cell_length_a 5.868486
_cell_length_b 24.296597
_cell_length_c 21.866083
_cell_angle_alpha 90.000000
_cell_angle_beta 52.410459
_cell_angle_gamma 90.000000
_cell_volume 2470.515227
_symmetry_space_group_name_H-M "C 2/C"
_symmetry_group_IT_number 15
_symmetry_cell_setting 'monoclinic'
loop_
_space_group_symop_operation_xyz
x,y,z
-x,y,1/2-z
-x,-y,-z
x,-y,1/2+z
1/2+x,1/2+y,z
1/2-x,1/2+y,1/2-z
1/2-x,1/2-y,-z
1/2+x,1/2-y,1/2+z
loop_
_atom_site_type_symbol
_atom_site_label
_atom_site_fract_x
_atom_site_fract_y
_atom_site_fract_z
Si Si1 0.370209 0.718837 0.398710
Si Si2 0.500000 0.235070 0.750000
Si Si3 0.214433 0.532974 0.325676
Si Si4 0.448419 0.884835 0.966775
Si Si5 0.411503 0.292216 0.518705
Si Si6 0.500000 0.036437 0.750000
Si Si7 0.500000 0.327277 0.250000
Si Si8 0.117980 0.080952 0.639398
O O1 0.387237 0.727583 0.324147
O O2 0.640771 0.714526 0.400249
O O3 0.184222 0.663362 0.440518
O O4 0.231631 0.775206 0.448057
O O5 0.234226 0.203710 0.756730
O O6 0.500000 0.560251 0.250000
O O7 0.032224 0.505864 0.301193
O O8 0.316898 0.478322 0.343390
O O9 0.063817 0.572952 0.397884
O O10 0.176394 0.852588 0.984081
O O11 0.322855 0.911696 0.048087
O O12 0.250000 0.250000 0.500000
O O13 0.771471 0.075539 0.689694
O O14 0.328854 0.368528 0.323220
#
# Coordination Sequence:
#
# PCOD9286674 Si02
#       8
#     8   4   8   8   8   4   4   8
#     4  10  24  44  64  98 143 178 236 295 344 428
#     4  12  29  42  73 104 141 192 244 297 364 430
#     4  10  23  43  65  97 141 175 225 289 348 427
#     4  11  24  40  69  99 134 185 229 281 367 422
#     4   9  21  41  64  92 131 178 230 288 340 413
#     4  10  21  44  65  92 142 171 232 297 340 410
#     4  12  26  44  74 104 137 193 242 300 362 426
#     4  11  23  42  69 100 135 175 236 292 350 425
#
# _framework density 21.048241000000001
#
# number of rings (size 3 to 8) (size 9 to 14) (size 15 to 20)
#    0.000    1.538    2.308    1.846   11.846    4.308 
#    0.000    0.000    0.000    0.000    0.000    0.000 
#    0.000    0.000    0.000    0.000    0.000    0.000 
#
# Total GULP energy -144754.463992 kJ/mol
# GULP energy per Si atom -5567.479384 kJ/mol
# Density = 2.100033 g / cm^3
# Si number density = 21.048241 Si / 1000 Ang^3
#
#
#
# Elastic Constant Matrix: (Units=GPa)
#
#
# Indices 1 2 3 4 5 6 
#
# 1 54.9925 22.5113 35.0088 0.0000 19.7312 0.0000
# 2 22.5113 60.5596 49.1887 0.0000 -3.6512 0.0000
# 3 35.0088 49.1887 174.9508 0.0000 20.6879 0.0000
# 4 0.0000 0.0000 0.0000 43.7061 0.0000 -15.6661
# 5 19.7312 -3.6512 20.6879 0.0000 27.5412 0.0000
# 6 0.0000 0.0000 0.0000 -15.6661 0.0000 8.8399
#
#
#
# Elastic Compliance Matrix: (Units=1/GPa)
#
#
# Indices 1 2 3 4 5 6 
#
# 1 0.032975 -0.014173 0.000441 0.000000 -0.025834 0.000000
# 2 -0.014173 0.029263 -0.007738 0.000000 0.019846 0.000000
# 3 0.000441 -0.007738 0.008738 0.000000 -0.007906 0.000000
# 4 0.000000 0.000000 0.000000 0.062725 0.000000 0.111161
# 5 -0.025834 0.019846 -0.007906 0.000000 0.063387 0.000000
# 6 0.000000 0.000000 0.000000 0.111161 0.000000 0.310123
#
#
# Mechanical properties :
#
#
# Convention : Reuss Voigt Hill
#
# Bulk Modulus (GPa) = 35.66936 55.99117 45.83027
# Shear Modulus (GPa) = 8.93660 28.27038 18.60349
#
# Velocity S-wave (km/s) = 2.06276 3.66884 2.97619
# Velocity P-wave (km/s) = 4.75989 6.67879 5.79926
#
# Compressibility (1/GPa) = 0.02803527
#
# Stress axis : x y z
#
# Youngs Moduli (GPa) = 30.32646 34.17286 114.44220
#
# Poissons Ratio (x) = 0.48435 -0.05052
# Poissons Ratio (y) = 0.42983 0.88557
# Poissons Ratio (z) = -0.01339 0.26443
#
# Static dielectric constant tensor:
#      x y z
#    x 1.998960 0.000000 -0.103740 
#    y 0.000000 1.720380 0.000000 
#    z -0.103740 0.000000 1.829170 
# 
# From -- ./inp_files/228085.got.cif
#   From: 2010.05.17/outbox.cif.g08.bks.cpg/sg15_115_cif.got.tgz:228085.got - 2010.06.03 18:47:42.
