data_PCOD9286464
_publ_section_title
;
Structure prediction by ZEFSAII (Michael W. Deem and Ramdas Pophale) SiO2 
 PCOD9286464
Probable space group: C 2/C
;
_chemical_formula_sum "Si O2"
_cell_formula_units_Z 48
_cell_length_a 7.780343
_cell_length_b 21.941416
_cell_length_c 16.411793
_cell_angle_alpha 90.000000
_cell_angle_beta 53.552916
_cell_angle_gamma 90.000000
_cell_volume 2253.692490
_symmetry_space_group_name_H-M "C 2/C"
_symmetry_group_IT_number 15
_symmetry_cell_setting 'monoclinic'
loop_
_space_group_symop_operation_xyz
x,y,z
-x,y,1/2-z
-x,-y,-z
x,-y,1/2+z
1/2+x,1/2+y,z
1/2-x,1/2+y,1/2-z
1/2-x,1/2-y,-z
1/2+x,1/2-y,1/2+z
loop_
_atom_site_type_symbol
_atom_site_label
_atom_site_fract_x
_atom_site_fract_y
_atom_site_fract_z
Si Si1 0.169320 0.353347 0.821694
Si Si2 0.140245 0.056886 0.484054
Si Si3 0.444445 0.786618 0.487138
Si Si4 0.691900 0.328852 0.888390
Si Si5 0.412172 0.013883 0.116739
Si Si6 0.284696 0.608549 0.852975
O O1 0.310798 0.328803 0.708210
O O2 0.215746 0.422966 0.835861
O O3 0.927236 0.345982 0.854858
O O4 0.163077 0.312315 0.902084
O O5 0.056186 0.113724 0.455825
O O6 0.373934 0.030368 0.395031
O O7 0.159923 0.084268 0.570659
O O8 0.000000 0.000000 0.500000
O O9 0.250000 0.750000 0.500000
O O10 0.619065 0.733599 0.448059
O O11 0.587266 0.843413 0.411574
O O12 0.287214 0.952876 0.174404
O O13 0.500000 0.000000 0.000000
O O14 0.500000 0.633643 0.750000
#
# Coordination Sequence:
#
# PCOD9286464 Si02
#       6
#     8   8   8   8   8   8
#     4  10  21  43  69  95 127 181 230 279 350 425
#     4  10  22  40  68 102 133 176 227 288 348 414
#     4  12  26  43  67  96 139 180 234 289 347 416
#     4  10  23  40  70  92 132 179 226 282 344 423
#     4   9  18  41  66  92 135 170 224 281 350 407
#     4  11  25  43  66 100 140 186 224 293 358 426
#
# _framework density 21.298380999999999
#
# number of rings (size 3 to 8) (size 9 to 14) (size 15 to 20)
#    0.000    1.667    5.000    0.500    7.000    0.667 
#    0.000    0.000    0.000    0.000    0.000    0.000 
#    0.000    0.000    0.000    0.000    0.000    0.000 
#
# Total GULP energy -133650.439501 kJ/mol
# GULP energy per Si atom -5568.768313 kJ/mol
# Density = 2.124990 g / cm^3
# Si number density = 21.298381 Si / 1000 Ang^3
#
#
#
# Elastic Constant Matrix: (Units=GPa)
#
#
# Indices 1 2 3 4 5 6 
#
# 1 61.9473 51.7301 43.8020 0.0000 -2.9785 0.0000
# 2 51.7301 174.6264 46.3101 0.0000 9.5354 0.0000
# 3 43.8020 46.3101 75.9516 0.0000 4.7985 0.0000
# 4 0.0000 0.0000 0.0000 14.9024 0.0000 -3.4351
# 5 -2.9785 9.5354 4.7985 0.0000 18.6064 0.0000
# 6 0.0000 0.0000 0.0000 -3.4351 0.0000 42.8943
#
#
#
# Elastic Compliance Matrix: (Units=1/GPa)
#
#
# Indices 1 2 3 4 5 6 
#
# 1 0.033576 -0.006318 -0.016321 0.000000 0.012822 0.000000
# 2 -0.006318 0.008133 -0.001005 0.000000 -0.004920 0.000000
# 3 -0.016321 -0.001005 0.023710 0.000000 -0.008213 0.000000
# 4 0.000000 0.000000 0.000000 0.068365 0.000000 0.005475
# 5 0.012822 -0.004920 -0.008213 0.000000 0.060437 0.000000
# 6 0.000000 0.000000 0.000000 0.005475 0.000000 0.023752
#
#
# Mechanical properties :
#
#
# Convention : Reuss Voigt Hill
#
# Bulk Modulus (GPa) = 55.15231 66.24553 60.69892
# Shear Modulus (GPa) = 18.42948 26.65949 22.54449
#
# Velocity S-wave (km/s) = 2.94479 3.54180 3.25700
# Velocity P-wave (km/s) = 6.12484 6.92075 6.53493
#
# Compressibility (1/GPa) = 0.01813161
#
# Stress axis : x y z
#
# Youngs Moduli (GPa) = 29.78339 122.95276 42.17589
#
# Poissons Ratio (x) = 0.77683 0.68836
# Poissons Ratio (y) = 0.18817 0.04237
# Poissons Ratio (z) = 0.48610 0.12351
#
# Static dielectric constant tensor:
#      x y z
#    x 2.021620 0.000000 0.071900 
#    y 0.000000 1.827070 0.000000 
#    z 0.071900 0.000000 2.189760 
# 
# From -- ./inp_files/191966.got.cif
#   From: 2010.05.17/outbox.cif.g08.bks.cpg/sg15_96_cif.got.tgz:191966.got - 2010.06.03 18:47:42.
