data_PCOD9286057
_publ_section_title
;
Structure prediction by ZEFSAII (Michael W. Deem and Ramdas Pophale) SiO2 
 PCOD9286057
Probable space group: C 2/C
;
_chemical_formula_sum "Si O2"
_cell_formula_units_Z 40
_cell_length_a 6.787907
_cell_length_b 21.772044
_cell_length_c 11.494173
_cell_angle_alpha 90.000000
_cell_angle_beta 67.354582
_cell_angle_gamma 90.000000
_cell_volume 1567.725259
_symmetry_space_group_name_H-M "C 2/C"
_symmetry_group_IT_number 15
_symmetry_cell_setting 'monoclinic'
loop_
_space_group_symop_operation_xyz
x,y,z
-x,y,1/2-z
-x,-y,-z
x,-y,1/2+z
1/2+x,1/2+y,z
1/2-x,1/2+y,1/2-z
1/2-x,1/2-y,-z
1/2+x,1/2-y,1/2+z
loop_
_atom_site_type_symbol
_atom_site_label
_atom_site_fract_x
_atom_site_fract_y
_atom_site_fract_z
Si Si1 0.715276 0.816834 0.346872
Si Si2 0.770406 0.014657 0.603808
Si Si3 0.734216 0.150268 0.566955
Si Si4 0.000000 0.410872 0.750000
Si Si5 0.500000 0.421693 0.250000
Si Si6 0.858247 0.812841 0.671140
O O1 0.471653 0.819204 0.444599
O O2 0.726288 0.830651 0.204830
O O3 0.857695 0.873640 0.358895
O O4 0.771729 0.745641 0.348467
O O5 0.689432 0.077767 0.568262
O O6 0.833888 0.035292 0.720640
O O7 0.608887 0.958526 0.635479
O O8 0.000000 0.000000 0.500000
O O9 0.958940 0.165913 0.459432
O O10 0.804420 0.366976 0.758816
O O11 0.000000 0.793645 0.750000
#
# Coordination Sequence:
#
# PCOD9286057 Si02
#       6
#     8   8   8   4   4   8
#     4  10  21  42  70  98 132 179 230 284 342 421
#     4  11  23  45  66  95 140 179 232 287 331 411
#     4  10  21  44  67  95 139 178 225 290 342 403
#     4  12  27  44  66 102 143 176 230 290 338 418
#     4  10  23  42  72  98 127 186 238 270 352 410
#     4  12  25  43  69 104 142 180 226 291 357 410
#
# _framework density 25.514672999999998
#
# number of rings (size 3 to 8) (size 9 to 14) (size 15 to 20)
#    0.000    1.200    4.000    3.600    1.400    1.600 
#    0.000    6.000    0.000    0.000    0.000    0.000 
#    0.000    0.000    0.000    0.000    0.000    0.000 
#
# Total GULP energy -111783.046050 kJ/mol
# GULP energy per Si atom -5589.152303 kJ/mol
# Density = 2.545660 g / cm^3
# Si number density = 25.514673 Si / 1000 Ang^3
#
#
#
# Elastic Constant Matrix: (Units=GPa)
#
#
# Indices 1 2 3 4 5 6 
#
# 1 73.7036 25.8066 37.6439 0.0000 -30.9530 0.0000
# 2 25.8066 171.0186 33.1197 0.0000 -25.8849 0.0000
# 3 37.6439 33.1197 106.1281 0.0000 -35.0883 0.0000
# 4 0.0000 0.0000 0.0000 21.8622 0.0000 -13.3200
# 5 -30.9530 -25.8849 -35.0883 0.0000 52.0627 0.0000
# 6 0.0000 0.0000 0.0000 -13.3200 0.0000 41.1110
#
#
#
# Elastic Compliance Matrix: (Units=1/GPa)
#
#
# Indices 1 2 3 4 5 6 
#
# 1 0.019399 -0.000904 -0.003775 0.000000 0.008539 0.000000
# 2 -0.000904 0.006487 -0.001049 0.000000 0.001981 0.000000
# 3 -0.003775 -0.001049 0.013092 0.000000 0.006057 0.000000
# 4 0.000000 0.000000 0.000000 0.056991 0.000000 0.018465
# 5 0.008539 0.001981 0.006057 0.000000 0.029352 0.000000
# 6 0.000000 0.000000 0.000000 0.018465 0.000000 0.030307
#
#
# Mechanical properties :
#
#
# Convention : Reuss Voigt Hill
#
# Bulk Modulus (GPa) = 36.33543 60.44340 48.38942
# Shear Modulus (GPa) = 28.36763 39.95920 34.16342
#
# Velocity S-wave (km/s) = 3.33801 3.96172 3.66317
# Velocity P-wave (km/s) = 5.39707 6.68342 6.07439
#
# Compressibility (1/GPa) = 0.02752134
#
# Stress axis : x y z
#
# Youngs Moduli (GPa) = 51.54942 154.16342 76.38416
#
# Poissons Ratio (x) = 0.13930 0.28839
# Poissons Ratio (y) = 0.04658 0.08011
# Poissons Ratio (z) = 0.19462 0.16169
#
# Static dielectric constant tensor:
#      x y z
#    x 2.066480 0.000000 0.042010 
#    y 0.000000 1.993780 0.000000 
#    z 0.042010 0.000000 2.052920 
# 
# From -- ./inp_files/77783.got.cif
#   From: 2010.05.17/outbox.cif.g08.bks.cpg/sg15_39_cif.got.tgz:77783.got - 2010.06.03 18:47:42.
