data_PCOD9286508
_publ_section_title
;
Structure prediction by ZEFSAII (Michael W. Deem and Ramdas Pophale) SiO2 
 PCOD9286508
Probable space group: C 2/C
;
_chemical_formula_sum "Si O2"
_cell_formula_units_Z 44
_cell_length_a 25.119221
_cell_length_b 5.815779
_cell_length_c 21.925401
_cell_angle_alpha 90.000000
_cell_angle_beta 148.123507
_cell_angle_gamma 90.000000
_cell_volume 1691.490384
_symmetry_space_group_name_H-M "C 2/C"
_symmetry_group_IT_number 15
_symmetry_cell_setting 'monoclinic'
loop_
_space_group_symop_operation_xyz
x,y,z
-x,y,1/2-z
-x,-y,-z
x,-y,1/2+z
1/2+x,1/2+y,z
1/2-x,1/2+y,1/2-z
1/2-x,1/2-y,-z
1/2+x,1/2-y,1/2+z
loop_
_atom_site_type_symbol
_atom_site_label
_atom_site_fract_x
_atom_site_fract_y
_atom_site_fract_z
Si Si1 0.526600 0.204698 0.167130
Si Si2 0.845002 0.084800 0.166741
Si Si3 0.000000 0.633251 0.750000
Si Si4 0.655228 0.327278 0.591612
Si Si5 0.553355 0.812938 0.116788
Si Si6 0.314910 0.178221 0.407654
O O1 0.616658 0.324906 0.292323
O O2 0.486686 0.021086 0.177319
O O3 0.572466 0.079948 0.152072
O O4 0.427322 0.332479 0.044344
O O5 0.897197 0.174700 0.280111
O O6 0.730977 0.156026 0.068881
O O7 0.904004 0.207173 0.170292
O O8 0.593696 0.294909 0.594347
O O9 0.715494 0.568056 0.647000
O O10 0.712752 0.080964 0.642645
O O11 0.432920 0.809351 0.006577
#
# Coordination Sequence:
#
# PCOD9286508 Si02
#       6
#     8   8   4   8   8   8
#     4  10  21  43  70  94 134 186 223 286 341 406
#     4  11  24  42  71  97 136 181 236 282 345 405
#     4  10  24  44  68  96 132 184 232 292 352 400
#     4  11  24  44  71 101 145 180 221 279 347 407
#     4  10  23  43  70 100 145 179 221 272 351 404
#     4  11  24  41  68 106 140 179 231 274 334 419
#
# _framework density 26.012561999999999
#
# number of rings (size 3 to 8) (size 9 to 14) (size 15 to 20)
#    0.000    1.455    1.818    3.273    7.636    1.455 
#    0.000    9.091    0.000    0.000    0.000    0.000 
#    0.000    0.000    0.000    0.000    0.000    0.000 
#
# Total GULP energy -122710.420275 kJ/mol
# GULP energy per Si atom -5577.746376 kJ/mol
# Density = 2.595336 g / cm^3
# Si number density = 26.012562 Si / 1000 Ang^3
#
#
#
# Elastic Constant Matrix: (Units=GPa)
#
#
# Indices 1 2 3 4 5 6 
#
# 1 179.1487 64.2508 36.9022 -0.0003 30.8811 -0.0001
# 2 64.2508 174.4784 22.1182 -0.0013 13.6182 -0.0005
# 3 36.9022 22.1182 73.2409 -0.0003 7.1706 -0.0001
# 4 -0.0003 -0.0013 -0.0003 17.2759 -0.0001 8.9207
# 5 30.8811 13.6182 7.1706 -0.0001 38.0739 0.0000
# 6 -0.0001 -0.0005 -0.0001 8.9207 0.0000 35.2459
#
#
#
# Elastic Compliance Matrix: (Units=1/GPa)
#
#
# Indices 1 2 3 4 5 6 
#
# 1 0.007784 -0.002120 -0.002789 0.000000 -0.005030 0.000000
# 2 -0.002120 0.006664 -0.000896 0.000000 -0.000495 0.000000
# 3 -0.002789 -0.000896 0.015360 0.000000 -0.000310 0.000000
# 4 0.000000 0.000000 0.000000 0.066587 0.000000 -0.016853
# 5 -0.005030 -0.000495 -0.000310 0.000000 0.030580 0.000000
# 6 0.000000 0.000000 0.000000 -0.016853 0.000000 0.032638
#
#
# Mechanical properties :
#
#
# Convention : Reuss Voigt Hill
#
# Bulk Modulus (GPa) = 54.95228 74.82336 64.88782
# Shear Modulus (GPa) = 28.20267 38.35892 33.28080
#
# Velocity S-wave (km/s) = 3.29628 3.84426 3.58077
# Velocity P-wave (km/s) = 5.97147 6.96643 6.48805
#
# Compressibility (1/GPa) = 0.01819761
#
# Stress axis : x y z
#
# Youngs Moduli (GPa) = 128.47027 150.05212 65.10507
#
# Poissons Ratio (x) = 0.31815 0.18159
# Poissons Ratio (y) = 0.27239 0.05832
# Poissons Ratio (z) = 0.35832 0.13442
#
# Static dielectric constant tensor:
#      x y z
#    x 2.022230 0.000000 0.037290 
#    y 0.000000 2.213850 0.000000 
#    z 0.037290 0.000000 2.108560 
# 
# From -- ./inp_files/281252.got.cif
#   From: 2010.05.17/outbox.cif.g08.bks.cpg/sg15_141_cif.got.tgz:281252.got - 2010.06.03 18:47:42.
