data_PCOD9286871
_publ_section_title
;
Structure prediction by ZEFSAII (Michael W. Deem and Ramdas Pophale) SiO2 
 PCOD9286871
Probable space group: C 2/C
;
_chemical_formula_sum "Si O2"
_cell_formula_units_Z 48
_cell_length_a 8.051143
_cell_length_b 26.562348
_cell_length_c 9.052582
_cell_angle_alpha 90.000000
_cell_angle_beta 82.628400
_cell_angle_gamma 90.000000
_cell_volume 1919.959459
_symmetry_space_group_name_H-M "C 2/C"
_symmetry_group_IT_number 15
_symmetry_cell_setting 'monoclinic'
loop_
_space_group_symop_operation_xyz
x,y,z
-x,y,1/2-z
-x,-y,-z
x,-y,1/2+z
1/2+x,1/2+y,z
1/2-x,1/2+y,1/2-z
1/2-x,1/2-y,-z
1/2+x,1/2-y,1/2+z
loop_
_atom_site_type_symbol
_atom_site_label
_atom_site_fract_x
_atom_site_fract_y
_atom_site_fract_z
Si Si1 0.159455 0.114326 0.330468
Si Si2 0.175496 0.021224 0.540854
Si Si3 0.725279 0.691970 0.541858
Si Si4 0.424861 0.174844 0.118044
Si Si5 0.685265 0.943646 0.170111
Si Si6 0.815561 0.324509 0.337668
O O1 0.209050 0.069523 0.434076
O O2 0.108663 0.162077 0.441026
O O3 0.312109 0.132256 0.208368
O O4 0.000000 0.099796 0.250000
O O5 0.196126 0.037089 0.708758
O O6 0.295021 0.975645 0.480299
O O7 0.000000 0.000000 0.500000
O O8 0.750000 0.750000 0.500000
O O9 0.693137 0.688959 0.718830
O O10 0.902826 0.662499 0.488233
O O11 0.500000 0.204622 0.250000
O O12 0.312019 0.197887 0.002255
O O13 0.500000 0.950993 0.250000
O O14 0.706452 0.884491 0.140047
O O15 0.000000 0.311437 0.250000
#
# Coordination Sequence:
#
# PCOD9286871 Si02
#       6
#     8   8   8   8   8   8
#     4  11  24  43  64  97 136 188 231 284 355 432
#     4  12  26  45  64  99 147 186 234 296 369 433
#     4  10  21  44  71  99 136 177 230 296 360 424
#     4   9  21  40  69  95 131 177 227 285 351 416
#     4  11  24  41  68 101 132 181 242 290 351 432
#     4   9  19  39  65 100 133 172 226 289 346 415
#
# _framework density 25.000527999999999
#
# number of rings (size 3 to 8) (size 9 to 14) (size 15 to 20)
#    0.000    1.667    1.667    2.000    7.000    4.000 
#    0.000   10.000    0.000    0.000    0.000    0.000 
#    0.000    0.000    0.000    0.000    0.000    0.000 
#
# Total GULP energy -133973.717133 kJ/mol
# GULP energy per Si atom -5582.238214 kJ/mol
# Density = 2.494363 g / cm^3
# Si number density = 25.000528 Si / 1000 Ang^3
#
#
#
# Elastic Constant Matrix: (Units=GPa)
#
#
# Indices 1 2 3 4 5 6 
#
# 1 77.9690 24.5069 17.7411 0.0000 2.6280 0.0000
# 2 24.5069 75.5046 -6.3269 0.0000 -12.4824 0.0000
# 3 17.7411 -6.3269 157.5223 0.0000 24.7760 0.0000
# 4 0.0000 0.0000 0.0000 -39.3082 0.0000 -28.6271
# 5 2.6280 -12.4824 24.7760 0.0000 24.3126 0.0000
# 6 0.0000 0.0000 0.0000 -28.6271 0.0000 7.2268
#
#
#
# Elastic Compliance Matrix: (Units=1/GPa)
#
#
# Indices 1 2 3 4 5 6 
#
# 1 0.014972 -0.005469 -0.001441 0.000000 -0.002958 0.000000
# 2 -0.005469 0.016536 -0.000176 0.000000 0.009261 0.000000
# 3 -0.001441 -0.000176 0.007733 0.000000 -0.007815 0.000000
# 4 0.000000 0.000000 0.000000 -0.006548 0.000000 -0.025940
# 5 -0.002958 0.009261 -0.007815 0.000000 0.054169 0.000000
# 6 0.000000 0.000000 0.000000 -0.025940 0.000000 0.035619
#
#
# Mechanical properties :
#
#
# Convention : Reuss Voigt Hill
#
# Bulk Modulus (GPa) = 39.89208 42.53757 41.21482
# Shear Modulus (GPa) = 34.48071 16.78455 25.63263
#
# Velocity S-wave (km/s) = 3.71779 2.59389 3.20548
# Velocity P-wave (km/s) = 5.86689 5.10124 5.49741
#
# Compressibility (1/GPa) = 0.02506763
#
# Stress axis : x y z
#
# Youngs Moduli (GPa) = 66.79020 60.47540 129.32197
#
# Poissons Ratio (x) = 0.33077 0.18630
# Poissons Ratio (y) = 0.36530 0.02281
# Poissons Ratio (z) = 0.09622 0.01067
#
# Static dielectric constant tensor:
#      x y z
#    x 2.089570 0.000000 0.026740 
#    y 0.000000 1.956230 0.000000 
#    z 0.026740 0.000000 2.040810 
# 
# From -- ./inp_files/26140.got.cif
#   From: 2010.05.17/outbox.cif.g08.bks.cpg/sg15_14_cif.got.tgz:26140.got - 2010.06.03 18:47:42.
