data_PCOD9286311
_publ_section_title
;
Structure prediction by ZEFSAII (Michael W. Deem and Ramdas Pophale) SiO2 
 PCOD9286311
Probable space group: C 2/C
;
_chemical_formula_sum "Si O2"
_cell_formula_units_Z 44
_cell_length_a 20.635606
_cell_length_b 11.727835
_cell_length_c 11.670729
_cell_angle_alpha 90.000000
_cell_angle_beta 42.788974
_cell_angle_gamma 90.000000
_cell_volume 1918.645471
_symmetry_space_group_name_H-M "C 2/C"
_symmetry_group_IT_number 15
_symmetry_cell_setting 'monoclinic'
loop_
_space_group_symop_operation_xyz
x,y,z
-x,y,1/2-z
-x,-y,-z
x,-y,1/2+z
1/2+x,1/2+y,z
1/2-x,1/2+y,1/2-z
1/2-x,1/2-y,-z
1/2+x,1/2-y,1/2+z
loop_
_atom_site_type_symbol
_atom_site_label
_atom_site_fract_x
_atom_site_fract_y
_atom_site_fract_z
Si Si1 0.167069 0.713831 0.517807
Si Si2 0.000000 0.110094 0.250000
Si Si3 0.377422 0.473458 0.224532
Si Si4 0.898665 0.239349 0.822879
Si Si5 0.174371 0.509015 0.115383
Si Si6 0.280908 0.395119 0.665355
O O1 0.250000 0.750000 0.500000
O O2 0.121421 0.602332 0.638822
O O3 0.220267 0.678620 0.332673
O O4 0.087934 0.808925 0.600247
O O5 0.047870 0.035564 0.288616
O O6 0.396416 0.339106 0.212182
O O7 0.271057 0.488827 0.414638
O O8 0.365866 0.539661 0.120623
O O9 0.878776 0.371612 0.829264
O O10 0.000000 0.225841 0.750000
O O11 0.822542 0.184568 0.010675
O O12 0.213089 0.509817 0.194985
#
# Coordination Sequence:
#
# PCOD9286311 Si02
#       6
#     8   4   8   8   8   8
#     4  11  24  44  69  96 135 173 223 280 320 399
#     4  12  22  44  68  98 134 162 232 284 316 382
#     4  10  21  43  66  95 125 171 219 276 317 393
#     4  11  24  43  66 100 138 167 223 278 330 405
#     4  10  23  44  62  96 140 173 208 277 339 388
#     4  10  22  43  70  94 130 184 212 270 348 381
#
# _framework density 22.932845
#
# number of rings (size 3 to 8) (size 9 to 14) (size 15 to 20)
#    0.000    1.455    4.545    2.182    1.273    6.545 
#    0.000    0.909    0.000    0.000    0.000    0.000 
#    0.000    0.000    0.000    0.000    0.000    0.000 
#
# Total GULP energy -123015.011908 kJ/mol
# GULP energy per Si atom -5591.591450 kJ/mol
# Density = 2.288065 g / cm^3
# Si number density = 22.932845 Si / 1000 Ang^3
#
#
#
# Elastic Constant Matrix: (Units=GPa)
#
#
# Indices 1 2 3 4 5 6 
#
# 1 88.9038 38.5634 5.7731 0.0000 8.6660 0.0000
# 2 38.5634 151.5261 14.8756 0.0000 5.5248 0.0000
# 3 5.7731 14.8756 57.8063 0.0000 -1.5089 0.0000
# 4 0.0000 0.0000 0.0000 27.6353 0.0000 -0.7862
# 5 8.6660 5.5248 -1.5089 0.0000 34.6117 0.0000
# 6 0.0000 0.0000 0.0000 -0.7862 0.0000 135.1067
#
#
#
# Elastic Compliance Matrix: (Units=1/GPa)
#
#
# Indices 1 2 3 4 5 6 
#
# 1 0.012911 -0.003131 -0.000556 0.000000 -0.002757 0.000000
# 2 -0.003131 0.007576 -0.001650 0.000000 -0.000497 0.000000
# 3 -0.000556 -0.001650 0.017810 0.000000 0.001179 0.000000
# 4 0.000000 0.000000 0.000000 0.036192 0.000000 0.000211
# 5 -0.002757 -0.000497 0.001179 0.000000 0.029713 0.000000
# 6 0.000000 0.000000 0.000000 0.000211 0.000000 0.007403
#
#
# Mechanical properties :
#
#
# Convention : Reuss Voigt Hill
#
# Bulk Modulus (GPa) = 36.19982 46.29559 41.24770
# Shear Modulus (GPa) = 38.02686 55.40568 46.71627
#
# Velocity S-wave (km/s) = 4.07650 4.92061 4.51831
# Velocity P-wave (km/s) = 6.16251 7.24669 6.72648
#
# Compressibility (1/GPa) = 0.02762445
#
# Stress axis : x y z
#
# Youngs Moduli (GPa) = 77.45350 131.98841 56.14811
#
# Poissons Ratio (x) = 0.41322 0.03120
# Poissons Ratio (y) = 0.24249 0.09264
# Poissons Ratio (z) = 0.04304 0.21778
#
# Static dielectric constant tensor:
#      x y z
#    x 1.872840 0.000000 0.026390 
#    y 0.000000 1.905570 0.000000 
#    z 0.026390 0.000000 1.908980 
# 
# From -- ./inp_files/117882.got.cif
#   From: 2010.05.17/outbox.cif.g08.bks.cpg/sg15_59_cif.got.tgz:117882.got - 2010.06.03 18:47:42.
