data_PCOD9286344
_publ_section_title
;
Structure prediction by ZEFSAII (Michael W. Deem and Ramdas Pophale) SiO2 
 PCOD9286344
Probable space group: C 2/C
;
_chemical_formula_sum "Si O2"
_cell_formula_units_Z 40
_cell_length_a 19.282286
_cell_length_b 5.272279
_cell_length_c 24.126936
_cell_angle_alpha 90.000000
_cell_angle_beta 41.632056
_cell_angle_gamma 90.000000
_cell_volume 1629.492678
_symmetry_space_group_name_H-M "C 2/C"
_symmetry_group_IT_number 15
_symmetry_cell_setting 'monoclinic'
loop_
_space_group_symop_operation_xyz
x,y,z
-x,y,1/2-z
-x,-y,-z
x,-y,1/2+z
1/2+x,1/2+y,z
1/2-x,1/2+y,1/2-z
1/2-x,1/2-y,-z
1/2+x,1/2-y,1/2+z
loop_
_atom_site_type_symbol
_atom_site_label
_atom_site_fract_x
_atom_site_fract_y
_atom_site_fract_z
Si Si1 0.160270 0.016232 0.087302
Si Si2 0.154727 0.818939 0.976761
Si Si3 0.824129 0.641375 0.827626
Si Si4 0.500000 0.175241 0.250000
Si Si5 0.226608 0.476712 0.799843
Si Si6 0.500000 0.000000 0.500000
O O1 0.271440 0.890445 0.037674
O O2 0.075237 0.847025 0.168846
O O3 0.159071 0.284344 0.118099
O O4 0.133729 0.016050 0.038797
O O5 0.222089 0.965955 0.890186
O O6 0.053487 0.696617 0.011695
O O7 0.803507 0.888055 0.803803
O O8 0.928176 0.491576 0.752010
O O9 0.262527 0.734546 0.748171
O O10 0.112576 0.500173 0.895926
#
# Coordination Sequence:
#
# PCOD9286344 Si02
#       6
#     8   8   8   4   8   4
#     4  10  21  43  67 103 145 197 266 334 402 492
#     4  10  23  42  71 103 148 204 266 330 411 494
#     4  11  23  46  71 109 153 202 275 341 406 510
#     4  10  24  38  72 104 146 198 256 342 416 476
#     4  12  30  51  81 118 165 216 277 342 415 512
#     4  12  26  52  78 116 164 220 268 342 424 496
#
# _framework density 24.547519999999999
#
# number of rings (size 3 to 8) (size 9 to 14) (size 15 to 20)
#    0.000    1.200    2.000    2.400    5.600    4.800 
#    0.000    0.000    0.000    0.000    0.000    0.000 
#    0.000    0.000    0.000    0.000    0.000    0.000 
#
# Total GULP energy -111444.467529 kJ/mol
# GULP energy per Si atom -5572.223376 kJ/mol
# Density = 2.449165 g / cm^3
# Si number density = 24.547520 Si / 1000 Ang^3
#
#
#
# Elastic Constant Matrix: (Units=GPa)
#
#
# Indices 1 2 3 4 5 6 
#
# 1 80.1673 33.0563 41.6661 0.0413 9.0917 -0.0313
# 2 33.0563 85.9028 45.0694 0.0163 3.2317 0.1808
# 3 41.6661 45.0694 127.9737 -0.0482 -8.0452 0.0278
# 4 0.0413 0.0163 -0.0482 26.4100 -0.0364 10.7318
# 5 9.0917 3.2317 -8.0452 -0.0364 36.6613 -0.0109
# 6 -0.0313 0.1808 0.0278 10.7318 -0.0109 39.3694
#
#
#
# Elastic Compliance Matrix: (Units=1/GPa)
#
#
# Indices 1 2 3 4 5 6 
#
# 1 0.016977 -0.004039 -0.004408 -0.000059 -0.004822 0.000050
# 2 -0.004039 0.015451 -0.004207 0.000018 -0.001284 -0.000077
# 3 -0.004408 -0.004207 0.010974 0.000035 0.003872 0.000000
# 4 -0.000059 0.000018 0.000035 0.042581 0.000059 -0.011607
# 5 -0.004822 -0.001284 0.003872 0.000059 0.029435 -0.000009
# 6 0.000050 -0.000077 0.000000 -0.011607 -0.000009 0.028565
#
#
# Mechanical properties :
#
#
# Convention : Reuss Voigt Hill
#
# Bulk Modulus (GPa) = 55.26652 59.29194 57.27923
# Shear Modulus (GPa) = 28.51849 32.10494 30.31171
#
# Velocity S-wave (km/s) = 3.41217 3.62037 3.51781
# Velocity P-wave (km/s) = 6.17145 6.45620 6.31543
#
# Compressibility (1/GPa) = 0.01809414
#
# Stress axis : x y z
#
# Youngs Moduli (GPa) = 58.90204 64.72046 91.12036
#
# Poissons Ratio (x) = 0.26140 0.40168
# Poissons Ratio (y) = 0.23790 0.38336
# Poissons Ratio (z) = 0.25966 0.27229
#
# Static dielectric constant tensor:
#      x y z
#    x 1.946890 -0.000020 0.046360 
#    y -0.000020 1.959090 0.000080 
#    z 0.046360 0.000080 1.984700 
# 
# From -- ./inp_files/278798.got.cif
#   From: 2010.05.17/outbox.cif.g08.bks.cpg/sg15_140_cif.got.tgz:278798.got - 2010.06.03 18:47:42.
