data_PCOD9286818
_publ_section_title
;
Structure prediction by ZEFSAII (Michael W. Deem and Ramdas Pophale) SiO2 
 PCOD9286818
Probable space group: C 2/C
;
_chemical_formula_sum "Si O2"
_cell_formula_units_Z 48
_cell_length_a 8.541462
_cell_length_b 29.577685
_cell_length_c 14.459046
_cell_angle_alpha 90.000000
_cell_angle_beta 140.979446
_cell_angle_gamma 90.000000
_cell_volume 2299.853424
_symmetry_space_group_name_H-M "C 2/C"
_symmetry_group_IT_number 15
_symmetry_cell_setting 'monoclinic'
loop_
_space_group_symop_operation_xyz
x,y,z
-x,y,1/2-z
-x,-y,-z
x,-y,1/2+z
1/2+x,1/2+y,z
1/2-x,1/2+y,1/2-z
1/2-x,1/2-y,-z
1/2+x,1/2-y,1/2+z
loop_
_atom_site_type_symbol
_atom_site_label
_atom_site_fract_x
_atom_site_fract_y
_atom_site_fract_z
Si Si1 0.460921 0.197077 0.840824
Si Si2 0.982062 0.198483 0.352053
Si Si3 0.973858 0.036982 0.349451
Si Si4 0.293142 0.381703 0.878866
Si Si5 0.144999 0.109881 0.722202
Si Si6 0.980003 0.521555 0.886627
O O1 0.500000 0.195040 0.750000
O O2 0.414753 0.249398 0.844304
O O3 0.265071 0.159766 0.782067
O O4 0.735182 0.185742 0.998311
O O5 0.000000 0.193857 0.250000
O O6 0.817477 0.167442 0.342978
O O7 0.923015 0.086182 0.363992
O O8 0.000000 0.037127 0.250000
O O9 0.233013 0.019890 0.511237
O O10 0.729932 0.007953 0.259267
O O11 0.000000 0.392706 0.750000
O O12 0.450481 0.389050 0.046355
O O13 0.366439 0.072254 0.822755
O O14 0.000000 0.099279 0.750000
O O15 0.000000 0.500000 0.000000
#
# Coordination Sequence:
#
# PCOD9286818 Si02
#       6
#     8   8   8   8   8   8
#     4  10  21  44  70 100 132 178 239 280 348 415
#     4  10  22  42  72  99 136 180 225 292 345 417
#     4  10  23  44  72  97 137 179 226 282 344 411
#     4  12  28  43  65 105 142 177 236 283 346 416
#     4  12  27  44  68  96 142 185 225 287 346 410
#     4  10  23  44  74 101 134 179 232 279 346 407
#
# _framework density 20.870895999999998
#
# number of rings (size 3 to 8) (size 9 to 14) (size 15 to 20)
#    0.000    1.333    1.667    3.000    9.333    1.333 
#    0.000    1.667    0.000    0.000    0.000    0.000 
#    0.000    0.000    0.000    0.000    0.000    0.000 
#
# Total GULP energy -133819.343844 kJ/mol
# GULP energy per Si atom -5575.805993 kJ/mol
# Density = 2.082339 g / cm^3
# Si number density = 20.870896 Si / 1000 Ang^3
#
#
#
# Elastic Constant Matrix: (Units=GPa)
#
#
# Indices 1 2 3 4 5 6 
#
# 1 31.4018 13.0175 44.7298 0.0000 5.3964 0.0000
# 2 13.0175 87.5165 54.3098 0.0000 -1.9519 0.0000
# 3 44.7298 54.3098 197.6995 0.0000 -8.6476 0.0000
# 4 0.0000 0.0000 0.0000 29.7828 0.0000 0.9286
# 5 5.3964 -1.9519 -8.6476 0.0000 59.7512 0.0000
# 6 0.0000 0.0000 0.0000 0.9286 0.0000 36.5134
#
#
#
# Elastic Compliance Matrix: (Units=1/GPa)
#
#
# Indices 1 2 3 4 5 6 
#
# 1 0.049105 -0.000458 -0.011250 0.000000 -0.006078 0.000000
# 2 -0.000458 0.013780 -0.003684 0.000000 -0.000042 0.000000
# 3 -0.011250 -0.003684 0.008710 0.000000 0.002156 0.000000
# 4 0.000000 0.000000 0.000000 0.033603 0.000000 -0.000855
# 5 -0.006078 -0.000042 0.002156 0.000000 0.017596 0.000000
# 6 0.000000 0.000000 0.000000 -0.000855 0.000000 0.027409
#
#
# Mechanical properties :
#
#
# Convention : Reuss Voigt Hill
#
# Bulk Modulus (GPa) = 24.50352 60.08133 42.29242
# Shear Modulus (GPa) = 25.69529 38.84686 32.27107
#
# Velocity S-wave (km/s) = 3.51259 4.31895 3.93647
# Velocity P-wave (km/s) = 5.31197 7.32944 6.40069
#
# Compressibility (1/GPa) = 0.04081046
#
# Stress axis : x y z
#
# Youngs Moduli (GPa) = 20.36473 72.57156 114.81442
#
# Poissons Ratio (x) = 0.03325 1.29166
# Poissons Ratio (y) = 0.00933 0.42292
# Poissons Ratio (z) = 0.22910 0.26732
#
# Static dielectric constant tensor:
#      x y z
#    x 1.743030 0.000000 -0.008050 
#    y 0.000000 1.805960 0.000000 
#    z -0.008050 0.000000 1.757560 
# 
# From -- ./inp_files/139056.got.cif
#   From: 2010.05.17/outbox.cif.g08.bks.cpg/sg15_70_cif.got.tgz:139056.got - 2010.06.03 18:47:42.
