data_PCOD9286829
_publ_section_title
;
Structure prediction by ZEFSAII (Michael W. Deem and Ramdas Pophale) SiO2 
 PCOD9286829
Probable space group: C 2/C
;
_chemical_formula_sum "Si O2"
_cell_formula_units_Z 44
_cell_length_a 15.327501
_cell_length_b 11.595002
_cell_length_c 13.026366
_cell_angle_alpha 90.000000
_cell_angle_beta 57.220966
_cell_angle_gamma 90.000000
_cell_volume 1946.435263
_symmetry_space_group_name_H-M "C 2/C"
_symmetry_group_IT_number 15
_symmetry_cell_setting 'monoclinic'
loop_
_space_group_symop_operation_xyz
x,y,z
-x,y,1/2-z
-x,-y,-z
x,-y,1/2+z
1/2+x,1/2+y,z
1/2-x,1/2+y,1/2-z
1/2-x,1/2-y,-z
1/2+x,1/2-y,1/2+z
loop_
_atom_site_type_symbol
_atom_site_label
_atom_site_fract_x
_atom_site_fract_y
_atom_site_fract_z
Si Si1 0.068149 0.469365 0.556393
Si Si2 0.000000 0.957198 0.250000
Si Si3 0.474903 0.727751 0.599617
Si Si4 0.738326 0.306325 0.349243
Si Si5 0.216210 0.063610 0.069741
Si Si6 0.527446 0.798709 0.337905
O O1 0.192092 0.470854 0.469964
O O2 0.000000 0.500000 0.500000
O O3 0.020701 0.346629 0.617075
O O4 0.045475 0.588837 0.628789
O O5 0.984025 0.877510 0.360698
O O6 0.109059 0.022799 0.186779
O O7 0.350676 0.713293 0.677561
O O8 0.502179 0.733935 0.460233
O O9 0.748930 0.182511 0.398320
O O10 0.708216 0.401507 0.454292
O O11 0.852201 0.332819 0.233725
O O12 0.500000 0.733208 0.250000
#
# Coordination Sequence:
#
# PCOD9286829 Si02
#       6
#     8   4   8   8   8   8
#     4  10  21  44  70 102 137 192 248 285 355 433
#     4  12  32  46  64 114 168 182 224 310 396 444
#     4  11  27  47  67 108 147 195 238 293 380 435
#     4  11  23  43  76 103 135 190 254 302 348 428
#     4  11  24  47  71 104 143 191 246 301 361 430
#     4  11  21  43  77 109 136 185 256 307 335 432
#
# _framework density 22.605426999999999
#
# number of rings (size 3 to 8) (size 9 to 14) (size 15 to 20)
#    0.000    1.091    5.455    1.091   10.182    1.455 
#    3.273    0.000    0.000    0.000    0.000    0.000 
#    0.000    0.000    0.000    0.000    0.000    0.000 
#
# Total GULP energy -122782.976763 kJ/mol
# GULP energy per Si atom -5581.044398 kJ/mol
# Density = 2.255398 g / cm^3
# Si number density = 22.605427 Si / 1000 Ang^3
#
#
#
# Elastic Constant Matrix: (Units=GPa)
#
#
# Indices 1 2 3 4 5 6 
#
# 1 100.2780 42.7087 24.3042 0.0000 -20.3189 0.0000
# 2 42.7087 73.1747 19.0769 0.0000 -6.2058 0.0000
# 3 24.3042 19.0769 94.5655 0.0000 -4.5006 0.0000
# 4 0.0000 0.0000 0.0000 15.3421 0.0000 -12.2577
# 5 -20.3189 -6.2058 -4.5006 0.0000 46.4628 0.0000
# 6 0.0000 0.0000 0.0000 -12.2577 0.0000 26.7751
#
#
#
# Elastic Compliance Matrix: (Units=1/GPa)
#
#
# Indices 1 2 3 4 5 6 
#
# 1 0.014784 -0.007661 -0.002004 0.000000 0.005248 0.000000
# 2 -0.007661 0.018522 -0.001818 0.000000 -0.001053 0.000000
# 3 -0.002004 -0.001818 0.011456 0.000000 -0.000010 0.000000
# 4 0.000000 0.000000 0.000000 0.102770 0.000000 0.047049
# 5 0.005248 -0.001053 -0.000010 0.000000 0.023676 0.000000
# 6 0.000000 0.000000 0.000000 0.047049 0.000000 0.058887
#
#
# Mechanical properties :
#
#
# Convention : Reuss Voigt Hill
#
# Bulk Modulus (GPa) = 45.88025 48.91088 47.39556
# Shear Modulus (GPa) = 19.20652 29.84454 24.52553
#
# Velocity S-wave (km/s) = 2.91802 3.63745 3.29742
# Velocity P-wave (km/s) = 5.62968 6.27098 5.95896
#
# Compressibility (1/GPa) = 0.02179587
#
# Stress axis : x y z
#
# Youngs Moduli (GPa) = 67.63841 53.98950 87.29019
#
# Poissons Ratio (x) = 0.41364 0.17497
# Poissons Ratio (y) = 0.51821 0.15866
# Poissons Ratio (z) = 0.13558 0.09813
#
# Static dielectric constant tensor:
#      x y z
#    x 1.825640 0.000000 0.023640 
#    y 0.000000 1.916610 0.000000 
#    z 0.023640 0.000000 1.960150 
# 
# From -- ./inp_files/151721.got.cif
#   From: 2010.05.17/outbox.cif.g08.bks.cpg/sg15_76_cif.got.tgz:151721.got - 2010.06.03 18:47:42.
