data_PCOD9286792
_publ_section_title
;
Structure prediction by ZEFSAII (Michael W. Deem and Ramdas Pophale) SiO2 
 PCOD9286792
Probable space group: C 2/C
;
_chemical_formula_sum "Si O2"
_cell_formula_units_Z 40
_cell_length_a 26.164353
_cell_length_b 9.149407
_cell_length_c 10.367258
_cell_angle_alpha 90.000000
_cell_angle_beta 140.882010
_cell_angle_gamma 90.000000
_cell_volume 1565.816138
_symmetry_space_group_name_H-M "C 2/C"
_symmetry_group_IT_number 15
_symmetry_cell_setting 'monoclinic'
loop_
_space_group_symop_operation_xyz
x,y,z
-x,y,1/2-z
-x,-y,-z
x,-y,1/2+z
1/2+x,1/2+y,z
1/2-x,1/2+y,1/2-z
1/2-x,1/2-y,-z
1/2+x,1/2-y,1/2+z
loop_
_atom_site_type_symbol
_atom_site_label
_atom_site_fract_x
_atom_site_fract_y
_atom_site_fract_z
Si Si1 0.691950 0.246692 0.258388
Si Si2 0.306993 0.559602 0.337962
Si Si3 0.449094 0.068190 0.779170
Si Si4 0.084871 0.737248 0.273736
Si Si5 0.436483 0.360491 0.893442
O O1 0.750000 0.250000 0.500000
O O2 0.697665 0.387830 0.181165
O O3 0.722139 0.119181 0.225020
O O4 0.606115 0.244949 0.161722
O O5 0.368255 0.634589 0.560107
O O6 0.349964 0.598916 0.285360
O O7 0.500000 0.077163 0.750000
O O8 0.421583 0.233734 0.757755
O O9 0.390198 0.927545 0.641220
O O10 0.500000 0.000000 0.000000
O O11 0.989844 0.767803 0.099259
O O12 0.500000 0.500000 0.000000
#
# Coordination Sequence:
#
# PCOD9286792 Si02
#       5
#     8   8   8   8   8
#     4  10  24  45  67 101 139 187 245 292 368 452
#     4  11  23  44  72  96 147 191 233 310 364 441
#     4  10  22  41  68 105 147 187 230 300 368 439
#     4  10  21  44  69 102 140 182 246 298 364 438
#     4  11  22  41  68 106 138 180 245 297 367 421
#
# _framework density 25.545784000000001
#
# number of rings (size 3 to 8) (size 9 to 14) (size 15 to 20)
#    0.000    1.600    2.000    3.000    2.800    1.600 
#    3.600    4.000    0.000    0.000    0.000    0.000 
#    0.000    0.000    0.000    0.000    0.000    0.000 
#
# Total GULP energy -111440.889974 kJ/mol
# GULP energy per Si atom -5572.044499 kJ/mol
# Density = 2.548764 g / cm^3
# Si number density = 25.545784 Si / 1000 Ang^3
#
#
#
# Elastic Constant Matrix: (Units=GPa)
#
#
# Indices 1 2 3 4 5 6 
#
# 1 125.3743 37.4223 -3.4804 0.0000 -30.3585 0.0000
# 2 37.4223 171.7233 39.1982 0.0000 -33.7778 0.0000
# 3 -3.4804 39.1982 74.3980 0.0000 -11.0549 0.0000
# 4 0.0000 0.0000 0.0000 34.2267 0.0000 -11.0026
# 5 -30.3585 -33.7778 -11.0549 0.0000 26.0811 0.0000
# 6 0.0000 0.0000 0.0000 -11.0026 0.0000 62.7179
#
#
#
# Elastic Compliance Matrix: (Units=1/GPa)
#
#
# Indices 1 2 3 4 5 6 
#
# 1 0.011618 -0.000384 0.002862 0.000000 0.014239 0.000000
# 2 -0.000384 0.008409 -0.003091 0.000000 0.009133 0.000000
# 3 0.002862 -0.003091 0.016119 0.000000 0.006160 0.000000
# 4 0.000000 0.000000 0.000000 0.030963 0.000000 0.005432
# 5 0.014239 0.009133 0.006160 0.000000 0.069355 0.000000
# 6 0.000000 0.000000 0.000000 0.005432 0.000000 0.016897
#
#
# Mechanical properties :
#
#
# Convention : Reuss Voigt Hill
#
# Bulk Modulus (GPa) = 28.63820 57.53064 43.08442
# Shear Modulus (GPa) = 30.07889 44.49552 37.28721
#
# Velocity S-wave (km/s) = 3.43512 4.17801 3.82465
# Velocity P-wave (km/s) = 5.19310 6.77081 6.03374
#
# Compressibility (1/GPa) = 0.03491839
#
# Stress axis : x y z
#
# Youngs Moduli (GPa) = 86.07271 118.91721 62.03799
#
# Poissons Ratio (x) = 0.04570 -0.17754
# Poissons Ratio (y) = 0.03308 0.19179
# Poissons Ratio (z) = -0.24632 0.36763
#
# Static dielectric constant tensor:
#      x y z
#    x 2.056060 0.000000 0.039810 
#    y 0.000000 2.090900 0.000000 
#    z 0.039810 0.000000 2.223990 
# 
# From -- ./inp_files/121686.got.cif
#   From: 2010.05.17/outbox.cif.g08.bks.cpg/sg15_61_cif.got.tgz:121686.got - 2010.06.03 18:47:42.
