data_PCOD9286347
_publ_section_title
;
Structure prediction by ZEFSAII (Michael W. Deem and Ramdas Pophale) SiO2 
 PCOD9286347
Probable space group: C 2/C
;
_chemical_formula_sum "Si O2"
_cell_formula_units_Z 48
_cell_length_a 18.441378
_cell_length_b 8.727593
_cell_length_c 19.441228
_cell_angle_alpha 90.000000
_cell_angle_beta 136.798574
_cell_angle_gamma 90.000000
_cell_volume 2142.034185
_symmetry_space_group_name_H-M "C 2/C"
_symmetry_group_IT_number 15
_symmetry_cell_setting 'monoclinic'
loop_
_space_group_symop_operation_xyz
x,y,z
-x,y,1/2-z
-x,-y,-z
x,-y,1/2+z
1/2+x,1/2+y,z
1/2-x,1/2+y,1/2-z
1/2-x,1/2-y,-z
1/2+x,1/2-y,1/2+z
loop_
_atom_site_type_symbol
_atom_site_label
_atom_site_fract_x
_atom_site_fract_y
_atom_site_fract_z
Si Si1 0.801994 0.112563 0.995789
Si Si2 0.346394 0.873026 0.421405
Si Si3 0.891714 0.537580 0.201929
Si Si4 0.895740 0.187815 0.594727
Si Si5 0.065894 0.711839 0.012841
Si Si6 0.378524 0.716000 0.795655
O O1 0.904345 0.173585 0.027047
O O2 0.712530 0.059412 0.880297
O O3 0.750000 0.250000 0.000000
O O4 0.829570 0.965184 0.060464
O O5 0.358062 0.769618 0.498084
O O6 0.441541 0.817649 0.437266
O O7 0.232302 0.848286 0.308077
O O8 0.375163 0.049165 0.458065
O O9 0.885590 0.686374 0.147110
O O10 0.893870 0.608017 0.279380
O O11 0.000000 0.459483 0.250000
O O12 0.017696 0.140559 0.666631
O O13 0.109070 0.781769 0.114253
#
# Coordination Sequence:
#
# PCOD9286347 Si02
#       6
#     8   8   8   8   8   8
#     4  12  25  42  64  95 133 168 208 274 316 372
#     4  10  21  43  67  86 131 168 208 263 314 387
#     4  10  22  43  66  92 125 172 218 257 321 382
#     4  10  22  42  69  92 122 173 219 251 320 389
#     4  10  25  40  62  99 123 165 214 259 330 372
#     4  10  22  39  70  91 121 167 215 261 312 381
#
# _framework density 22.408605000000001
#
# number of rings (size 3 to 8) (size 9 to 14) (size 15 to 20)
#    0.000    1.667    1.667    1.500    4.667    5.333 
#    3.000    0.000    0.000    0.000    0.000    0.000 
#    0.000    0.000    0.000    0.000    0.000    0.000 
#
# Total GULP energy -134252.859228 kJ/mol
# GULP energy per Si atom -5593.869135 kJ/mol
# Density = 2.235760 g / cm^3
# Si number density = 22.408605 Si / 1000 Ang^3
#
#
#
# Elastic Constant Matrix: (Units=GPa)
#
#
# Indices 1 2 3 4 5 6 
#
# 1 84.5895 28.9422 24.2961 0.0000 13.7440 0.0000
# 2 28.9422 58.7531 6.7767 0.0000 8.7812 0.0000
# 3 24.2961 6.7767 78.4183 0.0000 31.9583 0.0000
# 4 0.0000 0.0000 0.0000 22.4606 0.0000 5.2267
# 5 13.7440 8.7812 31.9583 0.0000 45.2459 0.0000
# 6 0.0000 0.0000 0.0000 5.2267 0.0000 33.7202
#
#
#
# Elastic Compliance Matrix: (Units=1/GPa)
#
#
# Indices 1 2 3 4 5 6 
#
# 1 0.015471 -0.007085 -0.003968 0.000000 -0.000521 0.000000
# 2 -0.007085 0.020776 0.001637 0.000000 -0.003036 0.000000
# 3 -0.003968 0.001637 0.018926 0.000000 -0.012481 0.000000
# 4 0.000000 0.000000 0.000000 0.046188 0.000000 -0.007159
# 5 -0.000521 -0.003036 -0.012481 0.000000 0.031664 0.000000
# 6 0.000000 0.000000 0.000000 -0.007159 0.000000 0.030766
#
#
# Mechanical properties :
#
#
# Convention : Reuss Voigt Hill
#
# Bulk Modulus (GPa) = 27.51824 37.97675 32.74749
# Shear Modulus (GPa) = 25.67563 31.06839 28.37201
#
# Velocity S-wave (km/s) = 3.38863 3.72754 3.56212
# Velocity P-wave (km/s) = 5.25521 5.95905 5.61817
#
# Compressibility (1/GPa) = 0.03633954
#
# Stress axis : x y z
#
# Youngs Moduli (GPa) = 64.63894 48.13347 52.83609
#
# Poissons Ratio (x) = 0.34104 0.20968
# Poissons Ratio (y) = 0.45798 -0.08650
# Poissons Ratio (z) = 0.25652 -0.07881
#
# Static dielectric constant tensor:
#      x y z
#    x 1.849450 0.000000 0.018720 
#    y 0.000000 1.815190 0.000000 
#    z 0.018720 0.000000 1.867400 
# 
# From -- ./inp_files/247643.got.cif
#   From: 2010.05.17/outbox.cif.g08.bks.cpg/sg15_124_cif.got.tgz:247643.got - 2010.06.03 18:47:42.
