data_PCOD9286732
_publ_section_title
;
Structure prediction by ZEFSAII (Michael W. Deem and Ramdas Pophale) SiO2 
 PCOD9286732
Probable space group: C 2/C
;
_chemical_formula_sum "Si O2"
_cell_formula_units_Z 48
_cell_length_a 11.519045
_cell_length_b 25.256306
_cell_length_c 8.121257
_cell_angle_alpha 90.000000
_cell_angle_beta 110.574892
_cell_angle_gamma 90.000000
_cell_volume 2211.996925
_symmetry_space_group_name_H-M "C 2/C"
_symmetry_group_IT_number 15
_symmetry_cell_setting 'monoclinic'
loop_
_space_group_symop_operation_xyz
x,y,z
-x,y,1/2-z
-x,-y,-z
x,-y,1/2+z
1/2+x,1/2+y,z
1/2-x,1/2+y,1/2-z
1/2-x,1/2-y,-z
1/2+x,1/2-y,1/2+z
loop_
_atom_site_type_symbol
_atom_site_label
_atom_site_fract_x
_atom_site_fract_y
_atom_site_fract_z
Si Si1 0.739166 0.920091 0.375534
Si Si2 0.070335 0.172531 0.531859
Si Si3 0.585273 0.847734 0.087249
Si Si4 0.500000 0.249940 0.750000
Si Si5 0.141580 0.514995 0.130902
Si Si6 0.182034 0.805047 0.434677
Si Si7 0.500000 0.909940 0.750000
O O1 0.863517 0.884546 0.446661
O O2 0.629660 0.879166 0.271056
O O3 0.708832 0.949973 0.528198
O O4 0.722265 0.964595 0.225897
O O5 0.094777 0.210316 0.388296
O O6 0.123367 0.198638 0.723680
O O7 0.922399 0.174780 0.491606
O O8 0.548545 0.789783 0.132885
O O9 0.707523 0.846066 0.033872
O O10 0.494567 0.875639 0.914219
O O11 0.115844 0.550548 0.280602
O O12 0.000000 0.500000 0.000000
O O13 0.250000 0.750000 0.500000
#
# Coordination Sequence:
#
# PCOD9286732 Si02
#       7
#     8   8   8   4   8   8   4
#     4  11  23  43  69 103 140 179 234 300 364 413
#     4  10  25  43  67  99 143 187 237 291 348 434
#     4  11  24  38  67 103 141 183 226 290 353 426
#     4  12  24  41  64 102 150 181 232 286 358 418
#     4  12  21  41  70 102 137 176 233 305 350 423
#     4  10  21  44  67  91 135 190 240 279 339 417
#     4  12  24  37  70 104 136 177 240 292 358 412
#
# _framework density 21.699847999999999
#
# number of rings (size 3 to 8) (size 9 to 14) (size 15 to 20)
#    0.000    1.000    5.000    1.000    2.333    4.000 
#    0.000    1.667    0.000   32.000    0.000    0.000 
#    0.000    0.000    0.000    0.000    0.000    0.000 
#
# Total GULP energy -133804.249995 kJ/mol
# GULP energy per Si atom -5575.177083 kJ/mol
# Density = 2.165046 g / cm^3
# Si number density = 21.699848 Si / 1000 Ang^3
#
#
#
# Elastic Constant Matrix: (Units=GPa)
#
#
# Indices 1 2 3 4 5 6 
#
# 1 108.1340 68.1365 25.0385 0.0000 -7.9881 0.0000
# 2 68.1365 154.2727 68.6232 0.0000 -5.7239 0.0000
# 3 25.0385 68.6232 85.5476 0.0000 -18.5787 0.0000
# 4 0.0000 0.0000 0.0000 60.2894 0.0000 6.3398
# 5 -7.9881 -5.7239 -18.5787 0.0000 19.2347 0.0000
# 6 0.0000 0.0000 0.0000 6.3398 0.0000 32.2422
#
#
#
# Elastic Compliance Matrix: (Units=1/GPa)
#
#
# Indices 1 2 3 4 5 6 
#
# 1 0.013491 -0.007141 0.003208 0.000000 0.006576 0.000000
# 2 -0.007141 0.014455 -0.011661 0.000000 -0.009928 0.000000
# 3 0.003208 -0.011661 0.024854 0.000000 0.021868 0.000000
# 4 0.000000 0.000000 0.000000 0.016937 0.000000 -0.003330
# 5 0.006576 -0.009928 0.021868 0.000000 0.072889 0.000000
# 6 0.000000 0.000000 0.000000 -0.003330 0.000000 0.031670
#
#
# Mechanical properties :
#
#
# Convention : Reuss Voigt Hill
#
# Bulk Modulus (GPa) = 46.27295 74.61674 60.44485
# Shear Modulus (GPa) = 23.50878 34.76367 29.13623
#
# Velocity S-wave (km/s) = 3.29502 4.00687 3.66825
# Velocity P-wave (km/s) = 5.98720 7.47443 6.77177
#
# Compressibility (1/GPa) = 0.02161090
#
# Stress axis : x y z
#
# Youngs Moduli (GPa) = 74.12575 69.18132 40.23559
#
# Poissons Ratio (x) = 0.49405 -0.12909
# Poissons Ratio (y) = 0.52936 0.46918
# Poissons Ratio (z) = -0.23782 0.80672
#
# Static dielectric constant tensor:
#      x y z
#    x 1.880710 0.000000 0.051300 
#    y 0.000000 1.842050 0.000000 
#    z 0.051300 0.000000 1.860070 
# 
# From -- ./inp_files/32184.got.cif
#   From: 2010.05.17/outbox.cif.g08.bks.cpg/sg15_17_cif.got.tgz:32184.got - 2010.06.03 18:47:42.
