data_PCOD9286659
_publ_section_title
;
Structure prediction by ZEFSAII (Michael W. Deem and Ramdas Pophale) SiO2 
 PCOD9286659
Probable space group: C 2/C
;
_chemical_formula_sum "Si O2"
_cell_formula_units_Z 56
_cell_length_a 6.038768
_cell_length_b 21.751155
_cell_length_c 20.073260
_cell_angle_alpha 90.000000
_cell_angle_beta 66.078977
_cell_angle_gamma 90.000000
_cell_volume 2410.153904
_symmetry_space_group_name_H-M "C 2/C"
_symmetry_group_IT_number 15
_symmetry_cell_setting 'monoclinic'
loop_
_space_group_symop_operation_xyz
x,y,z
-x,y,1/2-z
-x,-y,-z
x,-y,1/2+z
1/2+x,1/2+y,z
1/2-x,1/2+y,1/2-z
1/2-x,1/2-y,-z
1/2+x,1/2-y,1/2+z
loop_
_atom_site_type_symbol
_atom_site_label
_atom_site_fract_x
_atom_site_fract_y
_atom_site_fract_z
Si Si1 0.202118 0.167796 0.356316
Si Si2 0.000000 0.329025 0.250000
Si Si3 0.451050 0.930647 0.616324
Si Si4 0.475883 0.411722 0.180402
Si Si5 0.000000 0.886466 0.750000
Si Si6 0.660968 0.798297 0.373557
Si Si7 0.181503 0.964884 0.429653
Si Si8 0.296900 0.143334 0.008614
O O1 0.363243 0.113895 0.367287
O O2 0.150174 0.153525 0.285419
O O3 0.311204 0.235058 0.358087
O O4 0.941001 0.167083 0.424872
O O5 0.769357 0.372271 0.288026
O O6 0.963471 0.294320 0.184386
O O7 0.425157 0.902800 0.545370
O O8 0.194685 0.924671 0.684017
O O9 0.568076 0.997897 0.603344
O O10 0.500000 0.440275 0.250000
O O11 0.683822 0.360843 0.144250
O O12 0.446845 0.460021 0.125606
O O13 0.475816 0.805683 0.457326
O O14 0.220725 0.897408 0.454402
O O15 0.000000 0.000000 0.500000
#
# Coordination Sequence:
#
# PCOD9286659 Si02
#       8
#     8   4   8   8   4   8   8   8
#     4  11  24  45  68 104 139 181 226 284 352 412
#     4  10  21  44  64  98 132 182 227 280 344 394
#     4  11  25  45  70 102 136 187 227 288 351 408
#     4  10  24  44  67 103 133 180 232 286 345 407
#     4  10  25  48  66 104 138 180 241 278 354 426
#     4  11  23  41  72 101 140 177 230 287 344 419
#     4  12  23  48  73  96 140 181 232 288 346 413
#     4  11  24  44  69 103 134 181 233 281 349 411
#
# _framework density 23.235029999999998
#
# number of rings (size 3 to 8) (size 9 to 14) (size 15 to 20)
#    0.000    1.143    2.857    2.571    0.000    6.286 
#    3.857    0.000    0.000    0.000    0.000    0.000 
#    0.000    0.000    0.000    0.000    0.000    0.000 
#
# Total GULP energy -156783.389909 kJ/mol
# GULP energy per Si atom -5599.406782 kJ/mol
# Density = 2.318215 g / cm^3
# Si number density = 23.235030 Si / 1000 Ang^3
#
#
#
# Elastic Constant Matrix: (Units=GPa)
#
#
# Indices 1 2 3 4 5 6 
#
# 1 48.6758 -10.0367 20.0879 0.0000 12.8990 0.0000
# 2 -10.0367 60.4970 16.4379 0.0000 6.7765 0.0000
# 3 20.0879 16.4379 123.4328 0.0000 13.9425 0.0000
# 4 0.0000 0.0000 0.0000 18.4611 0.0000 -0.7986
# 5 12.8990 6.7765 13.9425 0.0000 42.4660 0.0000
# 6 0.0000 0.0000 0.0000 -0.7986 0.0000 15.2509
#
#
#
# Elastic Compliance Matrix: (Units=1/GPa)
#
#
# Indices 1 2 3 4 5 6 
#
# 1 0.025477 0.006176 -0.004137 0.000000 -0.007366 0.000000
# 2 0.006176 0.018823 -0.003075 0.000000 -0.003870 0.000000
# 3 -0.004137 -0.003075 0.009333 0.000000 -0.001317 0.000000
# 4 0.000000 0.000000 0.000000 0.054291 0.000000 0.002843
# 5 -0.007366 -0.003870 -0.001317 0.000000 0.026836 0.000000
# 6 0.000000 0.000000 0.000000 0.002843 0.000000 0.065719
#
#
# Mechanical properties :
#
#
# Convention : Reuss Voigt Hill
#
# Bulk Modulus (GPa) = 19.39420 31.73152 25.56286
# Shear Modulus (GPa) = 22.75452 28.97668 25.86560
#
# Velocity S-wave (km/s) = 3.13280 3.53528 3.34011
# Velocity P-wave (km/s) = 4.63153 5.50914 5.08929
#
# Compressibility (1/GPa) = 0.05156180
#
# Stress axis : x y z
#
# Youngs Moduli (GPa) = 39.25176 53.12579 107.14654
#
# Poissons Ratio (x) = -0.32809 0.44322
# Poissons Ratio (y) = -0.24241 0.32944
# Poissons Ratio (z) = 0.16237 0.16334
#
# Static dielectric constant tensor:
#      x y z
#    x 1.890870 0.000000 -0.012320 
#    y 0.000000 1.862360 0.000000 
#    z -0.012320 0.000000 1.866470 
# 
# From -- ./inp_files/228124.got.cif
#   From: 2010.05.17/outbox.cif.g08.bks.cpg/sg15_115_cif.got.tgz:228124.got - 2010.06.03 18:47:42.
