data_PCOD9286994
_publ_section_title
;
Structure prediction by ZEFSAII (Michael W. Deem and Ramdas Pophale) SiO2 
 PCOD9286994
Probable space group: C 2/C
;
_chemical_formula_sum "Si O2"
_cell_formula_units_Z 44
_cell_length_a 11.541377
_cell_length_b 20.159453
_cell_length_c 8.270734
_cell_angle_alpha 90.000000
_cell_angle_beta 92.170484
_cell_angle_gamma 90.000000
_cell_volume 1922.953279
_symmetry_space_group_name_H-M "C 2/C"
_symmetry_group_IT_number 15
_symmetry_cell_setting 'monoclinic'
loop_
_space_group_symop_operation_xyz
x,y,z
-x,y,1/2-z
-x,-y,-z
x,-y,1/2+z
1/2+x,1/2+y,z
1/2-x,1/2+y,1/2-z
1/2-x,1/2-y,-z
1/2+x,1/2-y,1/2+z
loop_
_atom_site_type_symbol
_atom_site_label
_atom_site_fract_x
_atom_site_fract_y
_atom_site_fract_z
Si Si1 0.189809 0.943440 0.708047
Si Si2 0.126725 0.838626 0.480091
Si Si3 0.844054 0.533239 0.513461
Si Si4 0.000000 0.406991 0.750000
Si Si5 0.000000 0.390093 0.250000
Si Si6 0.610081 0.190030 0.477078
Si Si7 0.000000 0.054012 0.750000
O O1 0.134343 0.873838 0.654870
O O2 0.290079 0.965392 0.582996
O O3 0.097258 0.003316 0.689060
O O4 0.240946 0.941276 0.891375
O O5 0.260380 0.820109 0.448296
O O6 0.071713 0.766230 0.461339
O O7 0.066666 0.895637 0.372258
O O8 0.950841 0.546550 0.391929
O O9 0.888256 0.569259 0.679228
O O10 0.904543 0.353319 0.685635
O O11 0.970844 0.344930 0.398784
#
# Coordination Sequence:
#
# PCOD9286994 Si02
#       7
#     8   8   8   4   4   8   4
#     4  12  25  44  65 101 131 177 217 272 325 394
#     4  11  23  42  67  95 130 179 215 271 320 392
#     4  11  25  42  69  98 136 165 221 270 336 389
#     4  10  21  45  70  98 126 178 212 274 336 390
#     4  10  24  44  66 103 127 170 214 278 330 394
#     4  10  22  44  68  95 133 166 226 267 330 388
#     4  12  25  45  68  95 137 176 224 268 328 380
#
# _framework density 22.881471000000001
#
# number of rings (size 3 to 8) (size 9 to 14) (size 15 to 20)
#    0.000    1.091    3.636    2.182    0.000    2.909 
#    0.000    0.909    0.000    0.000    0.000    0.000 
#    0.000    0.000    0.000    0.000    0.000    0.000 
#
# Total GULP energy -122675.797206 kJ/mol
# GULP energy per Si atom -5576.172600 kJ/mol
# Density = 2.282939 g / cm^3
# Si number density = 22.881471 Si / 1000 Ang^3
#
#
#
# Elastic Constant Matrix: (Units=GPa)
#
#
# Indices 1 2 3 4 5 6 
#
# 1 72.4964 35.9953 3.3868 0.0000 8.3547 0.0000
# 2 35.9953 187.4550 55.2414 0.0000 9.1589 0.0000
# 3 3.3868 55.2414 71.5311 0.0000 12.0422 0.0000
# 4 0.0000 0.0000 0.0000 18.3661 0.0000 2.0475
# 5 8.3547 9.1589 12.0422 0.0000 30.6809 0.0000
# 6 0.0000 0.0000 0.0000 2.0475 0.0000 33.3328
#
#
#
# Elastic Compliance Matrix: (Units=1/GPa)
#
#
# Indices 1 2 3 4 5 6 
#
# 1 0.015998 -0.003692 0.002829 0.000000 -0.004364 0.000000
# 2 -0.003692 0.007759 -0.005992 0.000000 0.001041 0.000000
# 3 0.002829 -0.005992 0.019597 0.000000 -0.006673 0.000000
# 4 0.000000 0.000000 0.000000 0.054824 0.000000 -0.003368
# 5 -0.004364 0.001041 -0.006673 0.000000 0.036090 0.000000
# 6 0.000000 0.000000 0.000000 -0.003368 0.000000 0.030207
#
#
# Mechanical properties :
#
#
# Convention : Reuss Voigt Hill
#
# Bulk Modulus (GPa) = 33.73592 57.85882 45.79737
# Shear Modulus (GPa) = 26.58625 32.26656 29.42640
#
# Velocity S-wave (km/s) = 3.41238 3.75929 3.59003
# Velocity P-wave (km/s) = 5.50469 6.64712 6.10269
#
# Compressibility (1/GPa) = 0.02964199
#
# Stress axis : x y z
#
# Youngs Moduli (GPa) = 62.50833 128.88950 51.02812
#
# Poissons Ratio (x) = 0.47590 -0.14435
# Poissons Ratio (y) = 0.23080 0.30577
# Poissons Ratio (z) = -0.17682 0.77233
#
# Static dielectric constant tensor:
#      x y z
#    x 2.021170 0.000000 0.067970 
#    y 0.000000 1.851230 0.000000 
#    z 0.067970 0.000000 1.901610 
# 
# From -- ./inp_files/30894.got.cif
#   From: 2010.05.17/outbox.cif.g08.bks.cpg/sg15_16_cif.got.tgz:30894.got - 2010.06.03 18:47:42.
