data_PCOD9286024
_publ_section_title
;
Structure prediction by ZEFSAII (Michael W. Deem and Ramdas Pophale) SiO2 
 PCOD9286024
Probable space group: C 2/C
;
_chemical_formula_sum "Si O2"
_cell_formula_units_Z 44
_cell_length_a 8.626488
_cell_length_b 22.709812
_cell_length_c 10.045520
_cell_angle_alpha 90.000000
_cell_angle_beta 99.740982
_cell_angle_gamma 90.000000
_cell_volume 1939.603935
_symmetry_space_group_name_H-M "C 2/C"
_symmetry_group_IT_number 15
_symmetry_cell_setting 'monoclinic'
loop_
_space_group_symop_operation_xyz
x,y,z
-x,y,1/2-z
-x,-y,-z
x,-y,1/2+z
1/2+x,1/2+y,z
1/2-x,1/2+y,1/2-z
1/2-x,1/2-y,-z
1/2+x,1/2-y,1/2+z
loop_
_atom_site_type_symbol
_atom_site_label
_atom_site_fract_x
_atom_site_fract_y
_atom_site_fract_z
Si Si1 0.153928 0.279609 0.660064
Si Si2 0.964457 0.834519 0.044880
Si Si3 0.000000 0.195278 0.250000
Si Si4 0.130962 0.658618 0.446575
Si Si5 0.580312 0.463230 0.126533
Si Si6 0.896734 0.523990 0.106139
O O1 0.069221 0.218402 0.615963
O O2 0.341818 0.271698 0.679018
O O3 0.144922 0.308868 0.805846
O O4 0.051978 0.324917 0.550357
O O5 0.035692 0.895123 0.106541
O O6 0.964628 0.839009 0.882703
O O7 0.781068 0.820903 0.054600
O O8 0.160922 0.588971 0.442860
O O9 0.500000 0.484919 0.250000
O O10 0.762484 0.478884 0.133846
O O11 0.500000 0.500000 0.000000
O O12 0.000000 0.535312 0.250000
O O13 0.000000 0.500000 0.000000
#
# Coordination Sequence:
#
# PCOD9286024 Si02
#       6
#     8   8   4   8   8   8
#     4  10  21  42  70 101 142 186 248 299 377 454
#     4  11  24  43  71 105 145 191 250 314 376 452
#     4  10  24  42  68 104 142 196 234 308 384 448
#     4  10  22  43  73 100 138 198 245 303 381 442
#     4  12  28  48  76 111 149 197 257 315 380 452
#     4  12  26  48  75 110 150 203 253 310 383 457
#
# _framework density 22.685044000000001
#
# number of rings (size 3 to 8) (size 9 to 14) (size 15 to 20)
#    0.000    1.091    3.636    2.182    6.364    0.000 
#    1.636    0.000    0.000    0.000    0.000    0.000 
#    0.000    0.000    0.000    0.000    0.000    0.000 
#
# Total GULP energy -122685.905845 kJ/mol
# GULP energy per Si atom -5576.632084 kJ/mol
# Density = 2.263341 g / cm^3
# Si number density = 22.685044 Si / 1000 Ang^3
#
#
#
# Elastic Constant Matrix: (Units=GPa)
#
#
# Indices 1 2 3 4 5 6 
#
# 1 156.4821 41.6943 42.0939 0.0000 32.5927 0.0000
# 2 41.6943 129.6322 28.9611 0.0000 9.6287 0.0000
# 3 42.0939 28.9611 77.7260 0.0000 -16.0168 0.0000
# 4 0.0000 0.0000 0.0000 33.2589 0.0000 11.3577
# 5 32.5927 9.6287 -16.0168 0.0000 59.6427 0.0000
# 6 0.0000 0.0000 0.0000 11.3577 0.0000 28.8159
#
#
#
# Elastic Compliance Matrix: (Units=1/GPa)
#
#
# Indices 1 2 3 4 5 6 
#
# 1 0.009842 -0.001254 -0.006277 0.000000 -0.006862 0.000000
# 2 -0.001254 0.008891 -0.002952 0.000000 -0.001543 0.000000
# 3 -0.006277 -0.002952 0.019235 0.000000 0.009072 0.000000
# 4 0.000000 0.000000 0.000000 0.034744 0.000000 -0.013694
# 5 -0.006862 -0.001543 0.009072 0.000000 0.023202 0.000000
# 6 0.000000 0.000000 0.000000 -0.013694 0.000000 0.040100
#
#
# Mechanical properties :
#
#
# Convention : Reuss Voigt Hill
#
# Bulk Modulus (GPa) = 58.81405 65.48210 62.14807
# Shear Modulus (GPa) = 30.74133 41.08292 35.91213
#
# Velocity S-wave (km/s) = 3.68521 4.26022 3.98310
# Velocity P-wave (km/s) = 6.64006 7.28887 6.97202
#
# Compressibility (1/GPa) = 0.01700274
#
# Stress axis : x y z
#
# Youngs Moduli (GPa) = 101.60242 112.46725 51.98938
#
# Poissons Ratio (x) = 0.14099 0.32635
# Poissons Ratio (y) = 0.12737 0.15348
# Poissons Ratio (z) = 0.63778 0.33202
#
# Static dielectric constant tensor:
#      x y z
#    x 2.114760 0.000000 -0.027280 
#    y 0.000000 1.419180 0.000000 
#    z -0.027280 0.000000 1.840000 
# 
# From -- ./inp_files/79471.got.cif
#   From: 2010.05.17/outbox.cif.g08.bks.cpg/sg15_40_cif.got.tgz:79471.got - 2010.06.03 18:47:42.
