data_PCOD9286721
_publ_section_title
;
Structure prediction by ZEFSAII (Michael W. Deem and Ramdas Pophale) SiO2 
 PCOD9286721
Probable space group: C 2/C
;
_chemical_formula_sum "Si O2"
_cell_formula_units_Z 56
_cell_length_a 5.956207
_cell_length_b 25.933855
_cell_length_c 16.842238
_cell_angle_alpha 90.000000
_cell_angle_beta 110.050629
_cell_angle_gamma 90.000000
_cell_volume 2443.895366
_symmetry_space_group_name_H-M "C 2/C"
_symmetry_group_IT_number 15
_symmetry_cell_setting 'monoclinic'
loop_
_space_group_symop_operation_xyz
x,y,z
-x,y,1/2-z
-x,-y,-z
x,-y,1/2+z
1/2+x,1/2+y,z
1/2-x,1/2+y,1/2-z
1/2-x,1/2-y,-z
1/2+x,1/2-y,1/2+z
loop_
_atom_site_type_symbol
_atom_site_label
_atom_site_fract_x
_atom_site_fract_y
_atom_site_fract_z
Si Si1 0.791772 0.751208 0.664632
Si Si2 0.457408 0.843516 0.389251
Si Si3 0.500000 0.682098 0.750000
Si Si4 0.737780 0.060087 0.965901
Si Si5 0.000000 0.939900 0.750000
Si Si6 0.154427 0.889665 0.608196
Si Si7 0.463968 0.964203 0.883190
Si Si8 0.642687 0.196404 0.456465
O O1 0.598327 0.718643 0.692267
O O2 0.628916 0.794326 0.604760
O O3 0.000000 0.768776 0.750000
O O4 0.913298 0.709968 0.619704
O O5 0.226995 0.849475 0.306423
O O6 0.631172 0.891463 0.406502
O O7 0.369089 0.839897 0.468643
O O8 0.662493 0.009378 0.907847
O O9 0.613033 0.048964 0.036106
O O10 0.001053 0.078717 0.023600
O O11 0.951067 0.903626 0.819684
O O12 0.772866 0.974383 0.696927
O O13 0.418111 0.913222 0.637837
O O14 0.186934 0.830292 0.587814
O O15 0.750000 0.250000 0.500000
#
# Coordination Sequence:
#
# PCOD9286721 Si02
#       8
#     8   8   4   8   4   8   8   8
#     4  10  23  43  62  93 135 174 227 283 338 403
#     4  11  22  42  67  97 131 170 229 282 341 405
#     4  10  22  43  60  92 134 168 216 287 338 396
#     4  10  22  39  70  99 127 173 223 276 340 408
#     4  10  24  45  66 100 146 174 228 283 346 416
#     4  11  23  44  67 100 140 178 227 286 336 411
#     4  10  21  44  66  98 133 174 219 278 342 409
#     4  12  23  43  70  95 130 183 231 277 340 407
#
# _framework density 22.914237
#
# number of rings (size 3 to 8) (size 9 to 14) (size 15 to 20)
#    0.000    1.429    2.857    2.143    0.000    0.571 
#    3.857    4.286    0.000    0.000    0.000    0.000 
#    0.000    0.000    0.000    0.000    0.000    0.000 
#
# Total GULP energy -156523.790115 kJ/mol
# GULP energy per Si atom -5590.135361 kJ/mol
# Density = 2.286208 g / cm^3
# Si number density = 22.914237 Si / 1000 Ang^3
#
#
#
# Elastic Constant Matrix: (Units=GPa)
#
#
# Indices 1 2 3 4 5 6 
#
# 1 68.5685 15.0238 25.1471 0.0000 20.8472 0.0000
# 2 15.0238 87.3027 35.8698 0.0000 22.1225 0.0000
# 3 25.1471 35.8698 96.7036 0.0000 23.5117 0.0000
# 4 0.0000 0.0000 0.0000 11.5595 0.0000 1.1817
# 5 20.8472 22.1225 23.5117 0.0000 43.0293 0.0000
# 6 0.0000 0.0000 0.0000 1.1817 0.0000 28.8181
#
#
#
# Elastic Compliance Matrix: (Units=1/GPa)
#
#
# Indices 1 2 3 4 5 6 
#
# 1 0.017791 -0.000104 -0.002889 0.000000 -0.006987 0.000000
# 2 -0.000104 0.014455 -0.004082 0.000000 -0.005151 0.000000
# 3 -0.002889 -0.004082 0.013557 0.000000 -0.003909 0.000000
# 4 0.000000 0.000000 0.000000 0.086873 0.000000 -0.003562
# 5 -0.006987 -0.005151 -0.003909 0.000000 0.031409 0.000000
# 6 0.000000 0.000000 0.000000 -0.003562 0.000000 0.034847
#
#
# Mechanical properties :
#
#
# Convention : Reuss Voigt Hill
#
# Bulk Modulus (GPa) = 31.59390 44.96179 38.27784
# Shear Modulus (GPa) = 22.35818 28.45032 25.40425
#
# Velocity S-wave (km/s) = 3.12706 3.52746 3.33328
# Velocity P-wave (km/s) = 5.18226 6.02121 5.61742
#
# Compressibility (1/GPa) = 0.03165168
#
# Stress axis : x y z
#
# Youngs Moduli (GPa) = 56.20940 69.18148 73.76386
#
# Poissons Ratio (x) = 0.00720 0.21310
# Poissons Ratio (y) = 0.00585 0.30113
# Poissons Ratio (z) = 0.16238 0.28242
#
# Static dielectric constant tensor:
#      x y z
#    x 1.871710 0.000000 0.024680 
#    y 0.000000 1.864090 0.000000 
#    z 0.024680 0.000000 1.871980 
# 
# From -- ./inp_files/186588.got.cif
#   From: 2010.05.17/outbox.cif.g08.bks.cpg/sg15_94_cif.got.tgz:186588.got - 2010.06.03 18:47:42.
