data_PCOD9286743
_publ_section_title
;
Structure prediction by ZEFSAII (Michael W. Deem and Ramdas Pophale) SiO2 
 PCOD9286743
Probable space group: C 2/C
;
_chemical_formula_sum "Si O2"
_cell_formula_units_Z 52
_cell_length_a 24.179133
_cell_length_b 7.784857
_cell_length_c 21.959433
_cell_angle_alpha 90.000000
_cell_angle_beta 146.823650
_cell_angle_gamma 90.000000
_cell_volume 2261.896299
_symmetry_space_group_name_H-M "C 2/C"
_symmetry_group_IT_number 15
_symmetry_cell_setting 'monoclinic'
loop_
_space_group_symop_operation_xyz
x,y,z
-x,y,1/2-z
-x,-y,-z
x,-y,1/2+z
1/2+x,1/2+y,z
1/2-x,1/2+y,1/2-z
1/2-x,1/2-y,-z
1/2+x,1/2-y,1/2+z
loop_
_atom_site_type_symbol
_atom_site_label
_atom_site_fract_x
_atom_site_fract_y
_atom_site_fract_z
Si Si1 0.501789 0.929706 0.625131
Si Si2 0.795279 0.061629 0.553243
Si Si3 0.583118 0.717619 0.178343
Si Si4 0.631858 0.553043 0.506462
Si Si5 0.500000 0.270883 0.250000
Si Si6 0.711240 0.906312 0.594849
Si Si7 0.461401 0.679873 0.494104
O O1 0.482577 0.841909 0.673064
O O2 0.535494 0.788783 0.605864
O O3 0.574115 0.094853 0.702032
O O4 0.394610 0.992718 0.496608
O O5 0.750000 0.250000 0.500000
O O6 0.906554 0.107290 0.678852
O O7 0.809924 0.973569 0.502083
O O8 0.736768 0.946852 0.547678
O O9 0.678479 0.590213 0.272604
O O10 0.572781 0.773281 0.098173
O O11 0.484001 0.613960 0.109696
O O12 0.681888 0.712676 0.585276
O O13 0.627088 0.382781 0.542147
O O14 0.500000 0.500000 0.500000
#
# Coordination Sequence:
#
# PCOD9286743 Si02
#       7
#     8   8   8   8   4   8   8
#     4  11  24  45  67 103 141 171 238 278 339 418
#     4  12  23  40  64  95 135 180 221 278 343 402
#     4  10  24  41  69  92 130 186 214 283 345 390
#     4  10  22  42  61  93 131 168 224 284 324 410
#     4  12  24  40  70  96 136 184 216 280 354 392
#     4  11  24  41  66 101 133 174 229 279 341 407
#     4  10  21  44  67  96 133 178 225 283 340 399
#
# _framework density 22.989560999999998
#
# number of rings (size 3 to 8) (size 9 to 14) (size 15 to 20)
#    0.000    1.231    3.077    1.846    4.308    3.692 
#    0.000    0.000    0.000    0.000    0.000    0.000 
#    0.000    0.000    0.000    0.000    0.000    0.000 
#
# Total GULP energy -144871.221317 kJ/mol
# GULP energy per Si atom -5571.970051 kJ/mol
# Density = 2.293724 g / cm^3
# Si number density = 22.989561 Si / 1000 Ang^3
#
#
#
# Elastic Constant Matrix: (Units=GPa)
#
#
# Indices 1 2 3 4 5 6 
#
# 1 34.8532 26.8085 27.5797 0.0000 -28.8755 0.0000
# 2 26.8085 24.9893 -47.4426 0.0001 16.7757 0.0001
# 3 27.5797 -47.4426 10.8033 0.0000 29.1491 0.0000
# 4 0.0000 0.0001 0.0000 25.1495 0.0000 0.2270
# 5 -28.8755 16.7757 29.1491 0.0000 32.7311 0.0000
# 6 0.0000 0.0001 0.0000 0.2270 0.0000 36.4071
#
#
#
# Elastic Compliance Matrix: (Units=1/GPa)
#
#
# Indices 1 2 3 4 5 6 
#
# 1 0.012328 0.008022 0.010331 0.000000 -0.002436 0.000000
# 2 0.008022 0.008881 -0.008346 0.000000 0.009958 0.000000
# 3 0.010331 -0.008346 0.004698 0.000000 0.009208 0.000000
# 4 0.000000 0.000000 0.000000 0.039764 0.000000 -0.000248
# 5 -0.002436 0.009958 0.009208 0.000000 0.015099 0.000000
# 6 0.000000 0.000000 0.000000 -0.000248 0.000000 0.027469
#
#
# Mechanical properties :
#
#
# Convention : Reuss Voigt Hill
#
# Bulk Modulus (GPa) = 21.77606 9.39300 15.58453
# Shear Modulus (GPa) = 48.29424 23.10421 35.69922
#
# Velocity S-wave (km/s) = 4.58831 3.17359 3.94489
# Velocity P-wave (km/s) = 6.12886 4.18611 5.24816
#
# Compressibility (1/GPa) = 0.04592199
#
# Stress axis : x y z
#
# Youngs Moduli (GPa) = 81.11507 112.59464 212.87871
#
# Poissons Ratio (x) = -0.90329 -2.19917
# Poissons Ratio (y) = -0.65074 1.77661
# Poissons Ratio (z) = -0.83797 0.93968
#
# Static dielectric constant tensor:
#      x y z
#    x 1.846690 0.000000 -0.012150 
#    y 0.000000 1.934690 0.000000 
#    z -0.012150 0.000000 1.892400 
# 
# From -- ./inp_files/283328.got.cif
#   From: 2010.05.17/outbox.cif.g08.bks.cpg/sg15_142_cif.got.tgz:283328.got - 2010.06.03 18:47:42.
