data_PCOD9286761
_publ_section_title
;
Structure prediction by ZEFSAII (Michael W. Deem and Ramdas Pophale) SiO2 
 PCOD9286761
Probable space group: C 2/C
;
_chemical_formula_sum "Si O2"
_cell_formula_units_Z 56
_cell_length_a 11.692731
_cell_length_b 26.711459
_cell_length_c 8.642131
_cell_angle_alpha 90.000000
_cell_angle_beta 63.121379
_cell_angle_gamma 90.000000
_cell_volume 2407.591789
_symmetry_space_group_name_H-M "C 2/C"
_symmetry_group_IT_number 15
_symmetry_cell_setting 'monoclinic'
loop_
_space_group_symop_operation_xyz
x,y,z
-x,y,1/2-z
-x,-y,-z
x,-y,1/2+z
1/2+x,1/2+y,z
1/2-x,1/2+y,1/2-z
1/2-x,1/2-y,-z
1/2+x,1/2-y,1/2+z
loop_
_atom_site_type_symbol
_atom_site_label
_atom_site_fract_x
_atom_site_fract_y
_atom_site_fract_z
Si Si1 0.161899 0.654400 0.280438
Si Si2 0.939859 0.822367 0.539634
Si Si3 0.249031 0.554898 0.366439
Si Si4 0.500000 0.398396 0.250000
Si Si5 0.247213 0.055617 0.760543
Si Si6 0.500000 0.388408 0.750000
Si Si7 0.369067 0.780211 0.996913
Si Si8 0.431723 0.143850 0.633366
O O1 0.305171 0.675755 0.216957
O O2 0.167223 0.595314 0.319049
O O3 0.047849 0.669345 0.464680
O O4 0.126612 0.674857 0.133321
O O5 0.965554 0.766557 0.466127
O O6 0.923103 0.860783 0.408805
O O7 0.040815 0.850652 0.587902
O O8 0.239493 0.557077 0.559898
O O9 0.226111 0.499750 0.318217
O O10 0.392637 0.574855 0.250026
O O11 0.394554 0.429567 0.217143
O O12 0.351928 0.095248 0.634390
O O13 0.336961 0.808750 0.177111
O O14 0.250000 0.750000 0.000000
O O15 0.500000 0.131796 0.750000
#
# Coordination Sequence:
#
# PCOD9286761 Si02
#       8
#     8   8   8   4   8   4   8   8
#     4  10  23  48  69  99 144 185 235 298 352 428
#     4  10  23  42  72 107 139 187 232 290 368 430
#     4  11  25  44  71 103 146 193 245 301 368 425
#     4  12  25  44  74 108 148 180 247 310 352 448
#     4  12  27  45  70 107 141 196 247 301 365 426
#     4  10  21  44  68 106 152 182 235 302 364 426
#     4  10  23  45  71 102 138 189 238 287 365 431
#     4  12  26  48  70 102 149 187 245 302 349 429
#
# _framework density 23.259758000000001
#
# number of rings (size 3 to 8) (size 9 to 14) (size 15 to 20)
#    0.000    1.143    2.857    2.571    9.000    1.714 
#    0.000    2.857    0.000    0.000    0.000    0.000 
#    0.000    0.000    0.000    0.000    0.000    0.000 
#
# Total GULP energy -155905.619009 kJ/mol
# GULP energy per Si atom -5568.057822 kJ/mol
# Density = 2.320682 g / cm^3
# Si number density = 23.259758 Si / 1000 Ang^3
#
#
#
# Elastic Constant Matrix: (Units=GPa)
#
#
# Indices 1 2 3 4 5 6 
#
# 1 66.6625 35.9714 19.0744 0.0000 14.5326 0.0000
# 2 35.9714 197.5310 45.2252 0.0000 22.3708 0.0000
# 3 19.0744 45.2252 78.3496 0.0000 5.2052 0.0000
# 4 0.0000 0.0000 0.0000 25.5560 0.0000 18.3502
# 5 14.5326 22.3708 5.2052 0.0000 25.5930 0.0000
# 6 0.0000 0.0000 0.0000 18.3502 0.0000 37.2491
#
#
#
# Elastic Compliance Matrix: (Units=1/GPa)
#
#
# Indices 1 2 3 4 5 6 
#
# 1 0.018638 -0.001760 -0.002961 0.000000 -0.008443 0.000000
# 2 -0.001760 0.006553 -0.003082 0.000000 -0.004102 0.000000
# 3 -0.002961 -0.003082 0.015177 0.000000 0.001288 0.000000
# 4 0.000000 0.000000 0.000000 0.060547 0.000000 -0.029827
# 5 -0.008443 -0.004102 0.001288 0.000000 0.047191 0.000000
# 6 0.000000 0.000000 0.000000 -0.029827 0.000000 0.041540
#
#
# Mechanical properties :
#
#
# Convention : Reuss Voigt Hill
#
# Bulk Modulus (GPa) = 40.38111 60.34278 50.36194
# Shear Modulus (GPa) = 23.41854 33.83112 28.62483
#
# Velocity S-wave (km/s) = 3.17650 3.81792 3.51188
# Velocity P-wave (km/s) = 5.55447 6.74052 6.17603
#
# Compressibility (1/GPa) = 0.02476405
#
# Stress axis : x y z
#
# Youngs Moduli (GPa) = 53.65262 152.59943 65.88791
#
# Poissons Ratio (x) = 0.26859 0.19507
# Poissons Ratio (y) = 0.09444 0.20304
# Poissons Ratio (z) = 0.15885 0.47025
#
# Static dielectric constant tensor:
#      x y z
#    x 1.663180 0.000000 0.164880 
#    y 0.000000 2.432090 0.000000 
#    z 0.164880 0.000000 1.969160 
# 
# From -- ./inp_files/34229.got.cif
#   From: 2010.05.17/outbox.cif.g08.bks.cpg/sg15_18_cif.got.tgz:34229.got - 2010.06.03 18:47:42.
