data_PCOD9286390
_publ_section_title
;
Structure prediction by ZEFSAII (Michael W. Deem and Ramdas Pophale) SiO2 
 PCOD9286390
Probable space group: C 2/C
;
_chemical_formula_sum "Si O2"
_cell_formula_units_Z 64
_cell_length_a 14.250969
_cell_length_b 22.620772
_cell_length_c 11.597020
_cell_angle_alpha 90.000000
_cell_angle_beta 41.068174
_cell_angle_gamma 90.000000
_cell_volume 2456.036858
_symmetry_space_group_name_H-M "C 2/C"
_symmetry_group_IT_number 15
_symmetry_cell_setting 'monoclinic'
loop_
_space_group_symop_operation_xyz
x,y,z
-x,y,1/2-z
-x,-y,-z
x,-y,1/2+z
1/2+x,1/2+y,z
1/2-x,1/2+y,1/2-z
1/2-x,1/2-y,-z
1/2+x,1/2-y,1/2+z
loop_
_atom_site_type_symbol
_atom_site_label
_atom_site_fract_x
_atom_site_fract_y
_atom_site_fract_z
Si Si1 0.609687 0.431756 0.226675
Si Si2 0.296413 0.863668 0.731817
Si Si3 0.617388 0.304853 0.340116
Si Si4 0.559916 0.077785 0.043103
Si Si5 0.399490 0.045139 0.743531
Si Si6 0.118961 0.726706 0.547234
Si Si7 0.121911 0.020854 0.445935
Si Si8 0.650488 0.742926 0.482867
O O1 0.594199 0.368937 0.309311
O O2 0.784085 0.430098 0.051210
O O3 0.574413 0.482086 0.365891
O O4 0.582056 0.442291 0.108894
O O5 0.437649 0.874375 0.679335
O O6 0.337092 0.827215 0.578594
O O7 0.215055 0.926774 0.795396
O O8 0.189458 0.821003 0.896576
O O9 0.576888 0.283411 0.505415
O O10 0.518449 0.260070 0.357373
O O11 0.783905 0.289796 0.167267
O O12 0.584285 0.083914 0.884393
O O13 0.479528 0.016534 0.142911
O O14 0.500000 0.070726 0.750000
O O15 0.231132 0.027977 0.903762
O O16 0.250000 0.750000 0.500000
O O17 0.000000 0.710716 0.750000
O O18 0.750000 0.750000 0.500000
#
# Coordination Sequence:
#
# PCOD9286390 Si02
#       8
#     8   8   8   8   8   8   8   8
#     4  12  24  41  70 101 140 186 232 286 365 430
#     4  10  24  44  70 103 142 180 245 290 355 444
#     4  11  25  42  65 100 138 172 234 287 347 431
#     4  10  23  41  67  96 138 180 233 292 345 426
#     4  10  21  43  67  98 134 184 236 291 355 418
#     4  11  25  46  73  96 137 189 237 303 364 419
#     4  11  22  44  72 100 149 188 233 300 358 423
#     4  11  22  42  65 100 137 179 215 286 352 429
#
# _framework density 26.058242
#
# number of rings (size 3 to 8) (size 9 to 14) (size 15 to 20)
#    0.000    1.250    2.500    3.375    5.250    0.500 
#    2.250    0.000    2.750    0.000    0.000    0.000 
#    0.000    0.000    0.000    0.000    0.000    0.000 
#
# Total GULP energy -178622.972676 kJ/mol
# GULP energy per Si atom -5581.967896 kJ/mol
# Density = 2.599893 g / cm^3
# Si number density = 26.058242 Si / 1000 Ang^3
#
#
#
# Elastic Constant Matrix: (Units=GPa)
#
#
# Indices 1 2 3 4 5 6 
#
# 1 241.3978 60.8162 52.2668 0.0000 -13.0116 -0.0001
# 2 60.8162 145.6102 51.9095 0.0000 -7.3555 0.0000
# 3 52.2668 51.9095 155.0461 0.0000 -14.5723 0.0000
# 4 0.0000 0.0000 0.0000 22.3467 0.0000 -17.3066
# 5 -13.0116 -7.3555 -14.5723 0.0000 55.9289 0.0001
# 6 -0.0001 0.0000 0.0000 -17.3066 0.0001 25.2720
#
#
#
# Elastic Compliance Matrix: (Units=1/GPa)
#
#
# Indices 1 2 3 4 5 6 
#
# 1 0.004804 -0.001610 -0.001020 0.000000 0.000640 0.000000
# 2 -0.001610 0.008345 -0.002238 0.000000 0.000140 0.000000
# 3 -0.001020 -0.002238 0.007681 0.000000 0.001470 0.000000
# 4 0.000000 0.000000 0.000000 0.095285 0.000000 0.065252
# 5 0.000640 0.000140 0.001470 0.000000 0.018430 0.000000
# 6 0.000000 0.000000 0.000000 0.065252 0.000000 0.084255
#
#
# Mechanical properties :
#
#
# Convention : Reuss Voigt Hill
#
# Bulk Modulus (GPa) = 90.14674 96.89323 93.51998
# Shear Modulus (GPa) = 21.53003 45.84697 33.68850
#
# Velocity S-wave (km/s) = 2.87754 4.19908 3.59948
# Velocity P-wave (km/s) = 6.76090 7.79575 7.29669
#
# Compressibility (1/GPa) = 0.01109302
#
# Stress axis : x y z
#
# Youngs Moduli (GPa) = 208.17802 119.83058 130.19222
#
# Poissons Ratio (x) = 0.19297 0.13280
# Poissons Ratio (y) = 0.33523 0.29137
# Poissons Ratio (z) = 0.21235 0.26818
#
# Static dielectric constant tensor:
#      x y z
#    x 2.164690 0.000000 -0.003710 
#    y 0.000000 2.015570 0.000000 
#    z -0.003710 0.000000 2.036020 
# 
# From -- ./inp_files/101325.got.cif
#   From: 2010.05.17/outbox.cif.g08.bks.cpg/sg15_51_cif.got.tgz:101325.got - 2010.06.03 18:47:42.
