data_PCOD9286062
_publ_section_title
;
Structure prediction by ZEFSAII (Michael W. Deem and Ramdas Pophale) SiO2 
 PCOD9286062
Probable space group: C 2/C
;
_chemical_formula_sum "Si O2"
_cell_formula_units_Z 52
_cell_length_a 24.499488
_cell_length_b 5.189564
_cell_length_c 23.090448
_cell_angle_alpha 90.000000
_cell_angle_beta 137.455244
_cell_angle_gamma 90.000000
_cell_volume 1985.059442
_symmetry_space_group_name_H-M "C 2/C"
_symmetry_group_IT_number 15
_symmetry_cell_setting 'monoclinic'
loop_
_space_group_symop_operation_xyz
x,y,z
-x,y,1/2-z
-x,-y,-z
x,-y,1/2+z
1/2+x,1/2+y,z
1/2-x,1/2+y,1/2-z
1/2-x,1/2-y,-z
1/2+x,1/2-y,1/2+z
loop_
_atom_site_type_symbol
_atom_site_label
_atom_site_fract_x
_atom_site_fract_y
_atom_site_fract_z
Si Si1 0.280249 0.292260 0.308187
Si Si2 0.699395 0.118663 0.326417
Si Si3 0.149257 0.873549 0.393563
Si Si4 0.566178 0.694122 0.630643
Si Si5 0.976870 0.677356 0.600159
Si Si6 0.814690 0.543053 0.976053
Si Si7 0.000000 0.769033 0.750000
O O1 0.249885 0.536502 0.246583
O O2 0.232525 0.347244 0.330241
O O3 0.377201 0.310100 0.382066
O O4 0.660553 0.129043 0.359395
O O5 0.632414 0.236795 0.231953
O O6 0.777683 0.306404 0.392365
O O7 0.140417 0.761110 0.450118
O O8 0.234277 0.015945 0.450005
O O9 0.077160 0.045589 0.315646
O O10 0.522015 0.430137 0.612177
O O11 0.506119 0.933479 0.585815
O O12 0.879961 0.677323 0.520366
O O13 0.000111 0.635227 0.686707
#
# Coordination Sequence:
#
# PCOD9286062 Si02
#       7
#     8   8   8   8   8   8   4
#     4  10  21  42  70  99 129 172 234 283 334 389
#     4   9  19  42  67  95 132 178 218 282 334 393
#     4   9  20  42  64 102 133 175 228 271 334 409
#     4  11  23  42  67  99 129 172 228 278 318 398
#     4  12  25  40  64  96 137 171 221 270 336 391
#     4   9  21  38  66  96 143 174 217 274 343 409
#     4  12  24  38  70  96 136 186 226 276 330 408
#
# _framework density 26.195687
#
# number of rings (size 3 to 8) (size 9 to 14) (size 15 to 20)
#    0.923    0.923    1.538    2.769    2.154    1.231 
#    0.000   12.308    0.000    0.000    0.000    0.000 
#    0.000    0.000    0.000    0.000    0.000    0.000 
#
# Total GULP energy -145519.754769 kJ/mol
# GULP energy per Si atom -5596.913645 kJ/mol
# Density = 2.613606 g / cm^3
# Si number density = 26.195687 Si / 1000 Ang^3
#
#
#
# Elastic Constant Matrix: (Units=GPa)
#
#
# Indices 1 2 3 4 5 6 
#
# 1 95.0513 44.6277 7.3537 0.0028 20.3642 -0.0002
# 2 44.6277 118.3057 16.8306 0.0120 11.1735 0.0087
# 3 7.3537 16.8306 106.5030 -0.0020 22.0053 -0.0031
# 4 0.0028 0.0120 -0.0020 16.1146 -0.0004 -5.3009
# 5 20.3642 11.1735 22.0053 -0.0004 49.1744 -0.0007
# 6 -0.0002 0.0087 -0.0031 -5.3009 -0.0007 40.6075
#
#
#
# Elastic Compliance Matrix: (Units=1/GPa)
#
#
# Indices 1 2 3 4 5 6 
#
# 1 0.013805 -0.004856 0.000846 0.000002 -0.004992 0.000001
# 2 -0.004856 0.010456 -0.001368 -0.000008 0.000248 -0.000003
# 3 0.000846 -0.001368 0.010529 0.000003 -0.004751 0.000001
# 4 0.000002 -0.000008 0.000003 0.064840 0.000001 0.008464
# 5 -0.004992 0.000248 -0.004751 0.000001 0.024473 0.000000
# 6 0.000001 -0.000003 0.000001 0.008464 0.000000 0.025731
#
#
# Mechanical properties :
#
#
# Convention : Reuss Voigt Hill
#
# Bulk Modulus (GPa) = 41.61151 50.83156 46.22154
# Shear Modulus (GPa) = 29.65575 37.91582 33.78578
#
# Velocity S-wave (km/s) = 3.36830 3.80861 3.59520
# Velocity P-wave (km/s) = 5.57195 6.22795 5.90906
#
# Compressibility (1/GPa) = 0.02403181
#
# Stress axis : x y z
#
# Youngs Moduli (GPa) = 72.43859 95.64010 94.97715
#
# Poissons Ratio (x) = 0.46446 -0.08032
# Poissons Ratio (y) = 0.35179 0.12995
# Poissons Ratio (z) = -0.06126 0.13085
#
# Static dielectric constant tensor:
#      x y z
#    x 2.149280 -0.000010 -0.049310 
#    y -0.000010 2.031020 0.000000 
#    z -0.049310 0.000000 2.050020 
# 
# From -- ./inp_files/302854.got.cif
#   From: 2010.05.17/outbox.cif.g08.bks.cpg/sg15_152_cif.got.tgz:302854.got - 2010.06.03 18:47:42.
