data_PCOD9286937
_publ_section_title
;
Structure prediction by ZEFSAII (Michael W. Deem and Ramdas Pophale) SiO2 
 PCOD9286937
Probable space group: C 2/C
;
_chemical_formula_sum "Si O2"
_cell_formula_units_Z 48
_cell_length_a 13.214169
_cell_length_b 29.284513
_cell_length_c 5.373306
_cell_angle_alpha 90.000000
_cell_angle_beta 100.181953
_cell_angle_gamma 90.000000
_cell_volume 2046.564564
_symmetry_space_group_name_H-M "C 2/C"
_symmetry_group_IT_number 15
_symmetry_cell_setting 'monoclinic'
loop_
_space_group_symop_operation_xyz
x,y,z
-x,y,1/2-z
-x,-y,-z
x,-y,1/2+z
1/2+x,1/2+y,z
1/2-x,1/2+y,1/2-z
1/2-x,1/2-y,-z
1/2+x,1/2-y,1/2+z
loop_
_atom_site_type_symbol
_atom_site_label
_atom_site_fract_x
_atom_site_fract_y
_atom_site_fract_z
Si Si1 0.803673 0.716797 0.226823
Si Si2 0.115255 0.018412 0.564225
Si Si3 0.598517 0.705305 0.468917
Si Si4 0.675873 0.383999 0.216476
Si Si5 0.115210 0.481345 0.596852
Si Si6 0.805283 0.615705 0.266455
O O1 0.704657 0.706923 0.358080
O O2 0.893990 0.746902 0.384784
O O3 0.846192 0.665745 0.199687
O O4 0.750000 0.750000 0.000000
O O5 0.111913 0.071435 0.622587
O O6 0.161939 0.009366 0.314637
O O7 0.000000 0.000000 0.500000
O O8 0.500000 0.700769 0.250000
O O9 0.612077 0.662646 0.660201
O O10 0.720248 0.391131 0.512075
O O11 0.760560 0.381789 0.029538
O O12 0.158221 0.486481 0.335591
O O13 0.123809 0.429261 0.695237
O O14 0.000000 0.500000 0.500000
#
# Coordination Sequence:
#
# PCOD9286937 Si02
#       6
#     8   8   8   8   8   8
#     4  10  21  45  66 100 138 171 234 286 348 423
#     4  10  22  38  54  84 124 167 206 270 310 374
#     4  10  23  42  68  98 137 179 221 287 352 423
#     4  11  23  40  65  96 128 174 222 265 340 407
#     4  10  22  42  64  94 131 173 222 280 333 402
#     4  11  23  41  70  95 129 177 216 280 337 398
#
# _framework density 23.453939999999999
#
# number of rings (size 3 to 8) (size 9 to 14) (size 15 to 20)
#    0.000    1.667    1.667    2.000    2.333    4.667 
#    6.000    1.667    0.000    0.000    0.000    0.000 
#    0.000    0.000    0.000    0.000    0.000    0.000 
#
# Total GULP energy -133945.002326 kJ/mol
# GULP energy per Si atom -5581.041764 kJ/mol
# Density = 2.340056 g / cm^3
# Si number density = 23.453940 Si / 1000 Ang^3
#
#
#
# Elastic Constant Matrix: (Units=GPa)
#
#
# Indices 1 2 3 4 5 6 
#
# 1 51.1688 17.3708 23.5240 0.0000 7.3318 0.0000
# 2 17.3708 233.9551 46.3781 0.0000 26.1365 0.0000
# 3 23.5240 46.3781 155.3219 0.0000 11.1663 0.0000
# 4 0.0000 0.0000 0.0000 52.7884 0.0000 8.0545
# 5 7.3318 26.1365 11.1663 0.0000 42.8807 0.0000
# 6 0.0000 0.0000 0.0000 8.0545 0.0000 12.7167
#
#
#
# Elastic Compliance Matrix: (Units=1/GPa)
#
#
# Indices 1 2 3 4 5 6 
#
# 1 0.021462 -0.000753 -0.002848 0.000000 -0.002469 0.000000
# 2 -0.000753 0.004840 -0.001150 0.000000 -0.002522 0.000000
# 3 -0.002848 -0.001150 0.007264 0.000000 -0.000704 0.000000
# 4 0.000000 0.000000 0.000000 0.020970 0.000000 -0.013282
# 5 -0.002469 -0.002522 -0.000704 0.000000 0.025463 0.000000
# 6 0.000000 0.000000 0.000000 -0.013282 0.000000 0.087049
#
#
# Mechanical properties :
#
#
# Convention : Reuss Voigt Hill
#
# Bulk Modulus (GPa) = 41.55701 68.33241 54.94471
# Shear Modulus (GPa) = 27.08988 45.22201 36.15594
#
# Velocity S-wave (km/s) = 3.40225 4.39580 3.93055
# Velocity P-wave (km/s) = 5.76114 7.41364 6.63901
#
# Compressibility (1/GPa) = 0.02406333
#
# Stress axis : x y z
#
# Youngs Moduli (GPa) = 46.59403 206.61587 137.67440
#
# Poissons Ratio (x) = 0.15560 0.39211
# Poissons Ratio (y) = 0.03509 0.15830
# Poissons Ratio (z) = 0.13271 0.23757
#
# Static dielectric constant tensor:
#      x y z
#    x 1.961200 0.000000 -0.098670 
#    y 0.000000 1.911060 0.000000 
#    z -0.098670 0.000000 1.947930 
# 
# From -- ./inp_files/9165.got.cif
#   From: 2010.05.17/outbox.cif.g08.bks.cpg/sg15_5_cif.got.tgz:9165.got - 2010.06.03 18:47:42.
