data_PCOD9286294
_publ_section_title
;
Structure prediction by ZEFSAII (Michael W. Deem and Ramdas Pophale) SiO2 
 PCOD9286294
Probable space group: C 2/C
;
_chemical_formula_sum "Si O2"
_cell_formula_units_Z 48
_cell_length_a 22.662953
_cell_length_b 10.683237
_cell_length_c 8.316705
_cell_angle_alpha 90.000000
_cell_angle_beta 90.123435
_cell_angle_gamma 90.000000
_cell_volume 2013.583530
_symmetry_space_group_name_H-M "C 2/C"
_symmetry_group_IT_number 15
_symmetry_cell_setting 'monoclinic'
loop_
_space_group_symop_operation_xyz
x,y,z
-x,y,1/2-z
-x,-y,-z
x,-y,1/2+z
1/2+x,1/2+y,z
1/2-x,1/2+y,1/2-z
1/2-x,1/2-y,-z
1/2+x,1/2-y,1/2+z
loop_
_atom_site_type_symbol
_atom_site_label
_atom_site_fract_x
_atom_site_fract_y
_atom_site_fract_z
Si Si1 0.054004 0.687658 0.004106
Si Si2 0.469886 0.380480 0.081636
Si Si3 0.860345 0.121679 0.802771
Si Si4 0.196777 0.890907 0.513295
Si Si5 0.093666 0.485117 0.761408
Si Si6 0.830210 0.376752 0.475016
O O1 0.993627 0.764589 0.977342
O O2 0.106188 0.778978 0.079106
O O3 0.048819 0.580687 0.140011
O O4 0.072592 0.610415 0.848445
O O5 0.500000 0.349020 0.250000
O O6 0.406226 0.408504 0.155598
O O7 0.500000 0.500000 0.000000
O O8 0.806232 0.145022 0.679010
O O9 0.838451 0.007384 0.912182
O O10 0.172905 0.763452 0.592758
O O11 0.266183 0.908899 0.544238
O O12 0.150080 0.523736 0.655969
O O13 0.118223 0.386899 0.891572
#
# Coordination Sequence:
#
# PCOD9286294 Si02
#       6
#     8   8   8   8   8   8
#     4  10  22  42  67  96 128 174 218 270 324 389
#     4  10  22  41  63  95 127 163 216 269 322 384
#     4  11  22  40  61  93 130 164 216 275 322 379
#     4  11  23  38  64  95 133 171 216 274 328 386
#     4  10  21  43  66  89 136 174 217 268 321 389
#     4  10  22  40  63  96 128 175 223 260 327 397
#
# _framework density 23.838096
#
# number of rings (size 3 to 8) (size 9 to 14) (size 15 to 20)
#    0.000    1.667    1.667    3.000    4.667    0.000 
#    0.000   10.000    0.000    0.000    0.000    0.000 
#    0.000    0.000    0.000    0.000    0.000    0.000 
#
# Total GULP energy -133768.816100 kJ/mol
# GULP energy per Si atom -5573.700671 kJ/mol
# Density = 2.378384 g / cm^3
# Si number density = 23.838096 Si / 1000 Ang^3
#
#
#
# Elastic Constant Matrix: (Units=GPa)
#
#
# Indices 1 2 3 4 5 6 
#
# 1 48.6609 34.5994 20.8677 0.0000 -14.0869 0.0000
# 2 34.5994 132.5245 38.7963 0.0000 -33.0820 0.0000
# 3 20.8677 38.7963 48.0558 0.0000 -9.3511 0.0000
# 4 0.0000 0.0000 0.0000 51.1117 0.0000 -6.9041
# 5 -14.0869 -33.0820 -9.3511 0.0000 31.4333 0.0000
# 6 0.0000 0.0000 0.0000 -6.9041 0.0000 40.0419
#
#
#
# Elastic Compliance Matrix: (Units=1/GPa)
#
#
# Indices 1 2 3 4 5 6 
#
# 1 0.028444 -0.003271 -0.008385 0.000000 0.006810 0.000000
# 2 -0.003271 0.013004 -0.007112 0.000000 0.010105 0.000000
# 3 -0.008385 -0.007112 0.029725 0.000000 -0.002400 0.000000
# 4 0.000000 0.000000 0.000000 0.020032 0.000000 0.003454
# 5 0.006810 0.010105 -0.002400 0.000000 0.044786 0.000000
# 6 0.000000 0.000000 0.000000 0.003454 0.000000 0.025569
#
#
# Mechanical properties :
#
#
# Convention : Reuss Voigt Hill
#
# Bulk Modulus (GPa) = 29.73007 46.41865 38.07436
# Shear Modulus (GPa) = 23.77464 33.51590 28.64527
#
# Velocity S-wave (km/s) = 3.16149 3.75371 3.47026
# Velocity P-wave (km/s) = 5.08187 6.18885 5.66248
#
# Compressibility (1/GPa) = 0.03363598
#
# Stress axis : x y z
#
# Youngs Moduli (GPa) = 35.15714 76.89818 33.64192
#
# Poissons Ratio (x) = 0.25157 0.28210
# Poissons Ratio (y) = 0.11501 0.23925
# Poissons Ratio (z) = 0.29480 0.54688
#
# Static dielectric constant tensor:
#      x y z
#    x 2.227790 0.000000 0.078840 
#    y 0.000000 1.878310 0.000000 
#    z 0.078840 0.000000 1.948130 
# 
# From -- ./inp_files/64845.got.cif
#   From: 2010.05.17/outbox.cif.g08.bks.cpg/sg15_33_cif.got.tgz:64845.got - 2010.06.03 18:47:42.
