data_PCOD9286166
_publ_section_title
;
Structure prediction by ZEFSAII (Michael W. Deem and Ramdas Pophale) SiO2 
 PCOD9286166
Probable space group: C 2/C
;
_chemical_formula_sum "Si O2"
_cell_formula_units_Z 60
_cell_length_a 15.415812
_cell_length_b 16.235321
_cell_length_c 26.492372
_cell_angle_alpha 90.000000
_cell_angle_beta 28.778353
_cell_angle_gamma 90.000000
_cell_volume 3192.085892
_symmetry_space_group_name_H-M "C 2/C"
_symmetry_group_IT_number 15
_symmetry_cell_setting 'monoclinic'
loop_
_space_group_symop_operation_xyz
x,y,z
-x,y,1/2-z
-x,-y,-z
x,-y,1/2+z
1/2+x,1/2+y,z
1/2-x,1/2+y,1/2-z
1/2-x,1/2-y,-z
1/2+x,1/2-y,1/2+z
loop_
_atom_site_type_symbol
_atom_site_label
_atom_site_fract_x
_atom_site_fract_y
_atom_site_fract_z
Si Si1 0.500000 0.964078 0.250000
Si Si2 0.505989 0.725141 0.086884
Si Si3 0.527065 0.257641 0.007527
Si Si4 0.321370 0.052669 0.465916
Si Si5 0.888464 0.834188 0.356421
Si Si6 0.838716 0.943066 0.564591
Si Si7 0.097649 0.294991 0.822560
Si Si8 0.356420 0.877415 0.422267
O O1 0.432270 0.906372 0.329586
O O2 0.338331 0.024928 0.315755
O O3 0.543918 0.763112 0.011872
O O4 0.299782 0.696576 0.198708
O O5 0.541497 0.798491 0.108143
O O6 0.649018 0.652015 0.022910
O O7 0.708115 0.209351 0.928769
O O8 0.589843 0.351257 0.967995
O O9 0.403635 0.241148 0.119440
O O10 0.176999 0.087555 0.578772
O O11 0.224059 0.049275 0.461301
O O12 0.482848 0.119912 0.381313
O O13 0.378325 0.958547 0.445885
O O14 0.000000 0.854749 0.250000
O O15 0.992000 0.770182 0.340514
O O16 0.000000 0.000000 0.500000
#
# Coordination Sequence:
#
# PCOD9286166 Si02
#       8
#     4   8   8   8   8   8   8   8
#     4  10  24  40  64  92 128 168 200 284 322 380
#     4  11  25  42  65  91 123 179 217 256 327 394
#     4  11  21  37  61  96 125 162 212 255 327 391
#     4  10  21  43  60  93 132 160 208 273 320 375
#     4  11  20  37  63  94 131 165 202 266 325 381
#     4  11  22  35  62  95 127 162 204 260 335 382
#     4  11  22  40  67  93 131 169 207 273 324 384
#     4  10  25  46  60  89 134 166 218 270 313 391
#
# _framework density 18.796486000000002
#
# number of rings (size 3 to 8) (size 9 to 14) (size 15 to 20)
#    0.000    1.333    4.000    2.400    8.400    0.000 
#    2.400    4.000    0.000    0.000    0.000    0.000 
#    0.000    0.000    0.000    0.000    0.000    0.000 
#
# Total GULP energy -167375.418577 kJ/mol
# GULP energy per Si atom -5579.180619 kJ/mol
# Density = 1.875370 g / cm^3
# Si number density = 18.796486 Si / 1000 Ang^3
#
#
#
# Elastic Constant Matrix: (Units=GPa)
#
#
# Indices 1 2 3 4 5 6 
#
# 1 61.3482 27.7550 33.7838 -0.0012 12.0137 0.0000
# 2 27.7550 112.8437 45.9166 0.0031 10.6540 -0.0008
# 3 33.7838 45.9166 104.6089 0.0102 13.5861 -0.0040
# 4 -0.0012 0.0031 0.0102 37.6631 -0.0014 -9.6562
# 5 12.0137 10.6540 13.5861 -0.0014 36.4806 0.0019
# 6 0.0000 -0.0008 -0.0040 -9.6562 0.0019 54.5331
#
#
#
# Elastic Compliance Matrix: (Units=1/GPa)
#
#
# Indices 1 2 3 4 5 6 
#
# 1 0.021175 -0.002736 -0.005081 0.000002 -0.004282 0.000000
# 2 -0.002736 0.011217 -0.003921 0.000000 -0.000914 0.000000
# 3 -0.005081 -0.003921 0.013194 -0.000003 -0.002095 0.000000
# 4 0.000002 0.000000 -0.000003 0.027814 0.000001 0.004925
# 5 -0.004282 -0.000914 -0.002095 0.000001 0.029869 -0.000001
# 6 0.000000 0.000000 0.000000 0.004925 -0.000001 0.019210
#
#
# Mechanical properties :
#
#
# Convention : Reuss Voigt Hill
#
# Bulk Modulus (GPa) = 45.23237 54.85684 50.04461
# Shear Modulus (GPa) = 32.61055 37.15838 34.88446
#
# Velocity S-wave (km/s) = 4.16977 4.45103 4.31269
# Velocity P-wave (km/s) = 6.87743 7.46080 7.17505
#
# Compressibility (1/GPa) = 0.02210806
#
# Stress axis : x y z
#
# Youngs Moduli (GPa) = 47.22519 89.15350 75.79432
#
# Poissons Ratio (x) = 0.24395 0.38514
# Poissons Ratio (y) = 0.12922 0.29718
# Poissons Ratio (z) = 0.23997 0.34956
#
# Static dielectric constant tensor:
#      x y z
#    x 1.656070 0.000010 0.031110 
#    y 0.000010 1.821530 -0.000010 
#    z 0.031110 -0.000010 1.678210 
# 
# From -- ./inp_files/296810.got.cif
#   From: 2010.05.17/outbox.cif.g08.bks.cpg/sg15_149_cif.got.tgz:296810.got - 2010.06.03 18:47:42.
