data_PCOD9286425
_publ_section_title
;
Structure prediction by ZEFSAII (Michael W. Deem and Ramdas Pophale) SiO2 
 PCOD9286425
Probable space group: C 2/C
;
_chemical_formula_sum "Si O2"
_cell_formula_units_Z 64
_cell_length_a 11.449819
_cell_length_b 9.526150
_cell_length_c 29.423366
_cell_angle_alpha 90.000000
_cell_angle_beta 96.244251
_cell_angle_gamma 90.000000
_cell_volume 3190.245906
_symmetry_space_group_name_H-M "C 2/C"
_symmetry_group_IT_number 15
_symmetry_cell_setting 'monoclinic'
loop_
_space_group_symop_operation_xyz
x,y,z
-x,y,1/2-z
-x,-y,-z
x,-y,1/2+z
1/2+x,1/2+y,z
1/2-x,1/2+y,1/2-z
1/2-x,1/2-y,-z
1/2+x,1/2-y,1/2+z
loop_
_atom_site_type_symbol
_atom_site_label
_atom_site_fract_x
_atom_site_fract_y
_atom_site_fract_z
Si Si1 0.110667 0.846691 0.129836
Si Si2 0.611038 0.210950 0.223789
Si Si3 0.887512 0.504201 0.028295
Si Si4 0.010730 0.892348 0.674212
Si Si5 0.673812 0.518137 0.260529
Si Si6 0.033356 0.199825 0.963934
Si Si7 0.370333 0.188734 0.610744
Si Si8 0.348382 0.599992 0.029340
O O1 0.078274 0.750022 0.171065
O O2 0.054762 0.786147 0.082003
O O3 0.251345 0.855173 0.131256
O O4 0.058098 0.000216 0.138310
O O5 0.500000 0.181404 0.250000
O O6 0.667626 0.356273 0.245370
O O7 0.699285 0.082427 0.228374
O O8 0.910466 0.433540 0.078155
O O9 0.875485 0.672001 0.032022
O O10 0.773676 0.425394 0.002710
O O11 0.000000 0.500000 0.000000
O O12 0.109197 0.892805 0.717736
O O13 0.899970 0.958918 0.696503
O O14 0.967610 0.749094 0.649298
O O15 0.947976 0.181224 0.004011
O O16 0.101375 0.054750 0.961242
O O17 0.335462 0.317703 0.575772
#
# Coordination Sequence:
#
# PCOD9286425 Si02
#       8
#     8   8   8   8   8   8   8   8
#     4  11  21  41  68  93 128 170 217 263 322 385
#     4  11  22  44  68  97 130 172 207 263 325 390
#     4  12  24  41  61  96 129 167 220 273 321 384
#     4  10  21  43  68  95 128 174 212 265 328 388
#     4  10  21  44  71  93 134 168 211 267 328 386
#     4  11  23  42  65  92 129 168 219 268 325 383
#     4  12  22  41  69  93 131 173 221 270 324 386
#     4  11  23  42  68  87 127 178 210 267 332 383
#
# _framework density 20.061149
#
# number of rings (size 3 to 8) (size 9 to 14) (size 15 to 20)
#    0.000    1.000    7.500    1.500    0.000    0.000 
#   11.250    0.000    0.000    0.000    0.000    0.000 
#    0.000    0.000    0.000    0.000    0.000    0.000 
#
# Total GULP energy -178726.033271 kJ/mol
# GULP energy per Si atom -5585.188540 kJ/mol
# Density = 2.001549 g / cm^3
# Si number density = 20.061149 Si / 1000 Ang^3
#
#
#
# Elastic Constant Matrix: (Units=GPa)
#
#
# Indices 1 2 3 4 5 6 
#
# 1 61.5991 15.9919 3.3095 0.0000 -10.0244 0.0000
# 2 15.9919 71.1024 3.8565 0.0000 -2.9792 0.0000
# 3 3.3095 3.8565 43.4142 0.0000 -23.7386 0.0000
# 4 0.0000 0.0000 0.0000 16.6085 0.0000 -6.3168
# 5 -10.0244 -2.9792 -23.7386 0.0000 24.8199 0.0000
# 6 0.0000 0.0000 0.0000 -6.3168 0.0000 37.8620
#
#
#
# Elastic Compliance Matrix: (Units=1/GPa)
#
#
# Indices 1 2 3 4 5 6 
#
# 1 0.019075 -0.004073 0.005981 0.000000 0.012935 0.000000
# 2 -0.004073 0.015015 -0.001965 0.000000 -0.001722 0.000000
# 3 0.005981 -0.001965 0.050195 0.000000 0.050188 0.000000
# 4 0.000000 0.000000 0.000000 0.064290 0.000000 0.010726
# 5 0.012935 -0.001722 0.050188 0.000000 0.093309 0.000000
# 6 0.000000 0.000000 0.000000 0.010726 0.000000 0.028201
#
#
# Mechanical properties :
#
#
# Convention : Reuss Voigt Hill
#
# Bulk Modulus (GPa) = 11.88054 24.71460 18.29757
# Shear Modulus (GPa) = 16.76416 26.05526 21.40971
#
# Velocity S-wave (km/s) = 2.89390 3.60779 3.27038
# Velocity P-wave (km/s) = 4.13537 5.44988 4.83748
#
# Compressibility (1/GPa) = 0.08417124
#
# Stress axis : x y z
#
# Youngs Moduli (GPa) = 52.42443 66.60169 19.92232
#
# Poissons Ratio (x) = 0.27124 -0.11915
# Poissons Ratio (y) = 0.21351 0.03914
# Poissons Ratio (z) = -0.31354 0.13086
#
# Static dielectric constant tensor:
#      x y z
#    x 1.711620 0.000000 0.010840 
#    y 0.000000 1.746740 0.000000 
#    z 0.010840 0.000000 1.708810 
# 
# From -- ./inp_files/310303.got.cif
#   From: 2010.05.17/outbox.cif.g08.bks.cpg/sg15_156_cif.got.tgz:310303.got - 2010.06.03 18:47:42.
