data_PCOD9286986
_publ_section_title
;
Structure prediction by ZEFSAII (Michael W. Deem and Ramdas Pophale) SiO2 
 PCOD9286986
Probable space group: C 2/C
;
_chemical_formula_sum "Si O2"
_cell_formula_units_Z 48
_cell_length_a 9.579914
_cell_length_b 27.847157
_cell_length_c 17.354244
_cell_angle_alpha 90.000000
_cell_angle_beta 147.601486
_cell_angle_gamma 90.000000
_cell_volume 2480.589216
_symmetry_space_group_name_H-M "C 2/C"
_symmetry_group_IT_number 15
_symmetry_cell_setting 'monoclinic'
loop_
_space_group_symop_operation_xyz
x,y,z
-x,y,1/2-z
-x,-y,-z
x,-y,1/2+z
1/2+x,1/2+y,z
1/2-x,1/2+y,1/2-z
1/2-x,1/2-y,-z
1/2+x,1/2-y,1/2+z
loop_
_atom_site_type_symbol
_atom_site_label
_atom_site_fract_x
_atom_site_fract_y
_atom_site_fract_z
Si Si1 0.554680 0.803347 0.684977
Si Si2 0.002789 0.806854 0.159966
Si Si3 0.822926 0.442071 0.071592
Si Si4 0.631606 0.391851 0.731562
Si Si5 0.334078 0.400498 0.335683
Si Si6 0.896660 0.444262 0.614810
O O1 0.500000 0.811046 0.750000
O O2 0.290691 0.809214 0.511451
O O3 0.616712 0.746856 0.705023
O O4 0.769391 0.842397 0.761283
O O5 0.000000 0.818733 0.250000
O O6 0.165013 0.845032 0.186386
O O7 0.746615 0.416064 0.116130
O O8 0.837628 0.499116 0.088172
O O9 0.111190 0.425666 0.180957
O O10 0.594480 0.423553 0.911948
O O11 0.500000 0.378155 0.750000
O O12 0.884184 0.426331 0.842457
O O13 0.628532 0.418772 0.466925
O O14 0.000000 0.431809 0.750000
#
# Coordination Sequence:
#
# PCOD9286986 Si02
#       6
#     8   8   8   8   8   8
#     4  10  21  45  70  94 127 182 230 265 335 423
#     4  10  22  39  71  99 128 171 226 281 337 403
#     4  11  24  39  64  99 132 168 232 271 330 399
#     4  12  26  41  63  98 137 174 221 283 337 390
#     4  11  21  38  66  99 127 167 221 280 324 398
#     4  12  21  43  71  91 127 187 229 270 327 414
#
# _framework density 19.350241
#
# number of rings (size 3 to 8) (size 9 to 14) (size 15 to 20)
#    0.000    1.000    5.000    3.000    2.333    0.667 
#    3.000    2.500    0.000    0.000    0.000    0.000 
#    0.000    0.000    0.000    0.000    0.000    0.000 
#
# Total GULP energy -133821.427336 kJ/mol
# GULP energy per Si atom -5575.892806 kJ/mol
# Density = 1.930620 g / cm^3
# Si number density = 19.350241 Si / 1000 Ang^3
#
#
#
# Elastic Constant Matrix: (Units=GPa)
#
#
# Indices 1 2 3 4 5 6 
#
# 1 100.1143 67.5552 34.7456 0.0000 8.0958 0.0000
# 2 67.5552 166.2486 30.8444 0.0000 6.8157 0.0000
# 3 34.7456 30.8444 125.3942 0.0000 19.3379 0.0001
# 4 0.0000 0.0000 0.0000 23.8125 0.0000 -13.4669
# 5 8.0958 6.8157 19.3379 0.0000 21.1291 0.0000
# 6 0.0000 0.0000 0.0001 -13.4669 0.0000 11.9833
#
#
#
# Elastic Compliance Matrix: (Units=1/GPa)
#
#
# Indices 1 2 3 4 5 6 
#
# 1 0.014636 -0.005423 -0.002476 0.000000 -0.001593 0.000000
# 2 -0.005423 0.008321 -0.000525 0.000000 -0.000126 0.000000
# 3 -0.002476 -0.000525 0.010034 0.000000 -0.008065 0.000000
# 4 0.000000 0.000000 0.000000 0.115232 0.000000 0.129499
# 5 -0.001593 -0.000126 -0.008065 0.000000 0.055361 0.000000
# 6 0.000000 0.000000 0.000000 0.129499 0.000000 0.228982
#
#
# Mechanical properties :
#
#
# Convention : Reuss Voigt Hill
#
# Bulk Modulus (GPa) = 61.94302 73.11640 67.52971
# Shear Modulus (GPa) = 10.99402 28.62574 19.80988
#
# Velocity S-wave (km/s) = 2.38619 3.85040 3.20309
# Velocity P-wave (km/s) = 6.29864 7.59179 6.97525
#
# Compressibility (1/GPa) = 0.01614387
#
# Stress axis : x y z
#
# Youngs Moduli (GPa) = 68.32589 120.17644 99.66293
#
# Poissons Ratio (x) = 0.65167 0.24676
# Poissons Ratio (y) = 0.37050 0.05231
# Poissons Ratio (z) = 0.16917 0.06307
#
# Static dielectric constant tensor:
#      x y z
#    x 1.638670 0.000000 0.037500 
#    y 0.000000 1.690240 0.000000 
#    z 0.037500 0.000000 1.674250 
# 
# From -- ./inp_files/80535.got.cif
#   From: 2010.05.17/outbox.cif.g08.bks.cpg/sg15_41_cif.got.tgz:80535.got - 2010.06.03 18:47:42.
