data_PCOD9286096
_publ_section_title
;
Structure prediction by ZEFSAII (Michael W. Deem and Ramdas Pophale) SiO2 
 PCOD9286096
Probable space group: C 2/C
;
_chemical_formula_sum "Si O2"
_cell_formula_units_Z 60
_cell_length_a 20.385554
_cell_length_b 19.474523
_cell_length_c 8.544932
_cell_angle_alpha 90.000000
_cell_angle_beta 129.084767
_cell_angle_gamma 90.000000
_cell_volume 2633.173409
_symmetry_space_group_name_H-M "C 2/C"
_symmetry_group_IT_number 15
_symmetry_cell_setting 'monoclinic'
loop_
_space_group_symop_operation_xyz
x,y,z
-x,y,1/2-z
-x,-y,-z
x,-y,1/2+z
1/2+x,1/2+y,z
1/2-x,1/2+y,1/2-z
1/2-x,1/2-y,-z
1/2+x,1/2-y,1/2+z
loop_
_atom_site_type_symbol
_atom_site_label
_atom_site_fract_x
_atom_site_fract_y
_atom_site_fract_z
Si Si1 0.434370 0.287739 0.420558
Si Si2 0.500000 0.495469 0.750000
Si Si3 0.324074 0.923206 0.667747
Si Si4 0.498904 0.140850 0.058693
Si Si5 0.178987 0.425933 0.210879
Si Si6 0.929227 0.096717 0.381358
Si Si7 0.318663 0.316481 0.943184
Si Si8 0.726858 0.291867 0.118740
O O1 0.487616 0.218108 0.481270
O O2 0.494865 0.351261 0.537621
O O3 0.367375 0.282051 0.459928
O O4 0.384035 0.304280 0.182998
O O5 0.456220 0.543823 0.557432
O O6 0.572574 0.450038 0.775617
O O7 0.417850 0.901583 0.863442
O O8 0.322678 0.927755 0.478932
O O9 0.258467 0.864449 0.618948
O O10 0.303927 0.998235 0.702422
O O11 0.500000 0.144095 0.250000
O O12 0.412606 0.104407 0.875818
O O13 0.248577 0.370608 0.365084
O O14 0.858377 0.144046 0.353899
O O15 0.285760 0.242099 0.841401
O O16 0.750000 0.250000 0.000000
#
# Coordination Sequence:
#
# PCOD9286096 Si02
#       8
#     8   4   8   8   8   8   8   8
#     4  12  22  45  72 100 134 182 236 281 350 418
#     4  10  24  44  60  98 140 172 232 282 338 418
#     4  11  24  42  70 103 138 185 226 291 344 423
#     4  10  21  42  71  98 132 176 233 285 338 414
#     4  11  25  45  69 104 140 183 230 281 360 415
#     4  11  24  42  69  99 135 187 228 284 347 419
#     4  12  23  45  72  99 137 185 236 284 350 418
#     4  12  28  45  67 106 141 176 233 296 346 416
#
# _framework density 22.786193000000001
#
# number of rings (size 3 to 8) (size 9 to 14) (size 15 to 20)
#    0.000    0.800    4.000    4.000    3.733    3.200 
#    0.000    1.333    0.000    0.000    0.000    0.000 
#    0.000    0.000    0.000    0.000    0.000    0.000 
#
# Total GULP energy -168069.597789 kJ/mol
# GULP energy per Si atom -5602.319926 kJ/mol
# Density = 2.273433 g / cm^3
# Si number density = 22.786193 Si / 1000 Ang^3
#
#
#
# Elastic Constant Matrix: (Units=GPa)
#
#
# Indices 1 2 3 4 5 6 
#
# 1 96.9490 20.1121 9.5970 0.0000 -14.6580 0.0000
# 2 20.1121 124.5281 20.2129 0.0000 -14.1815 0.0000
# 3 9.5970 20.2129 37.2923 0.0000 -7.7500 0.0000
# 4 0.0000 0.0000 0.0000 9.3232 0.0000 1.1189
# 5 -14.6580 -14.1815 -7.7500 0.0000 19.9758 0.0000
# 6 0.0000 0.0000 0.0000 1.1189 0.0000 41.0161
#
#
#
# Elastic Compliance Matrix: (Units=1/GPa)
#
#
# Indices 1 2 3 4 5 6 
#
# 1 0.011744 -0.000872 -0.000965 0.000000 0.007624 0.000000
# 2 -0.000872 0.009311 -0.003896 0.000000 0.004459 0.000000
# 3 -0.000965 -0.003896 0.030948 0.000000 0.008533 0.000000
# 4 0.000000 0.000000 0.000000 0.107611 0.000000 -0.002936
# 5 0.007624 0.004459 0.008533 0.000000 0.062131 0.000000
# 6 0.000000 0.000000 0.000000 -0.002936 0.000000 0.024461
#
#
# Mechanical properties :
#
#
# Convention : Reuss Voigt Hill
#
# Bulk Modulus (GPa) = 24.66826 39.84594 32.25710
# Shear Modulus (GPa) = 18.43757 27.98619 23.21188
#
# Velocity S-wave (km/s) = 2.84765 3.50838 3.19514
# Velocity P-wave (km/s) = 4.65421 5.82550 5.27248
#
# Compressibility (1/GPa) = 0.04053792
#
# Stress axis : x y z
#
# Youngs Moduli (GPa) = 85.15124 107.39659 32.31178
#
# Poissons Ratio (x) = 0.09363 0.03119
# Poissons Ratio (y) = 0.07423 0.12588
# Poissons Ratio (z) = 0.08219 0.41839
#
# Static dielectric constant tensor:
#      x y z
#    x 1.862620 0.000000 0.010950 
#    y 0.000000 1.791810 0.000000 
#    z 0.010950 0.000000 1.868760 
# 
# From -- ./inp_files/57021.got.cif
#   From: 2010.05.17/outbox.cif.g08.bks.cpg/sg15_29_cif.got.tgz:57021.got - 2010.06.03 18:47:42.
