data_PCOD9286289
_publ_section_title
;
Structure prediction by ZEFSAII (Michael W. Deem and Ramdas Pophale) SiO2 
 PCOD9286289
Probable space group: C 2/C
;
_chemical_formula_sum "Si O2"
_cell_formula_units_Z 64
_cell_length_a 11.534725
_cell_length_b 8.847380
_cell_length_c 29.935494
_cell_angle_alpha 90.000000
_cell_angle_beta 77.136961
_cell_angle_gamma 90.000000
_cell_volume 2978.315190
_symmetry_space_group_name_H-M "C 2/C"
_symmetry_group_IT_number 15
_symmetry_cell_setting 'monoclinic'
loop_
_space_group_symop_operation_xyz
x,y,z
-x,y,1/2-z
-x,-y,-z
x,-y,1/2+z
1/2+x,1/2+y,z
1/2-x,1/2+y,1/2-z
1/2-x,1/2-y,-z
1/2+x,1/2-y,1/2+z
loop_
_atom_site_type_symbol
_atom_site_label
_atom_site_fract_x
_atom_site_fract_y
_atom_site_fract_z
Si Si1 0.357427 0.697660 0.389687
Si Si2 0.908455 0.666342 0.078059
Si Si3 0.066604 0.409597 0.358999
Si Si4 0.907763 0.197373 0.486730
Si Si5 0.520089 0.417540 0.368581
Si Si6 0.993797 0.656374 0.303353
Si Si7 0.263022 0.640207 0.132119
Si Si8 0.185576 0.872683 0.973274
O O1 0.220466 0.699119 0.388973
O O2 0.450464 0.809113 0.358708
O O3 0.366803 0.738869 0.441110
O O4 0.409347 0.530081 0.379113
O O5 0.952400 0.510909 0.094957
O O6 0.893446 0.678541 0.026645
O O7 0.988227 0.805165 0.088291
O O8 0.176161 0.299300 0.359560
O O9 0.078209 0.528654 0.317903
O O10 0.049785 0.172853 0.472815
O O11 0.837802 0.042230 0.505769
O O12 0.524221 0.314553 0.324566
O O13 0.637903 0.517154 0.363537
O O14 0.860564 0.621593 0.332117
O O15 0.000000 0.661226 0.250000
O O16 0.247282 0.626333 0.080060
O O17 0.250000 0.750000 0.000000
#
# Coordination Sequence:
#
# PCOD9286289 Si02
#       8
#     8   8   8   8   8   8   8   8
#     4  11  22  40  61  92 129 173 213 254 308 369
#     4  11  22  36  60  90 129 172 208 260 301 358
#     4  10  24  41  64  93 128 163 211 261 318 386
#     4  11  22  38  56  95 134 169 229 255 289 376
#     4  10  21  43  66  87 127 163 209 259 316 386
#     4  11  26  44  70  98 120 158 212 270 338 395
#     4  11  22  45  66  91 130 173 209 259 326 367
#     4  11  24  36  64  94 132 182 216 256 308 367
#
# _framework density 21.488659999999999
#
# number of rings (size 3 to 8) (size 9 to 14) (size 15 to 20)
#    0.000    1.250    3.750    2.625    7.000    1.500 
#    0.000    2.500    0.000    0.000    0.000    0.000 
#    0.000    0.000    0.000    0.000    0.000    0.000 
#
# Total GULP energy -179003.162619 kJ/mol
# GULP energy per Si atom -5593.848832 kJ/mol
# Density = 2.143975 g / cm^3
# Si number density = 21.488660 Si / 1000 Ang^3
#
#
#
# Elastic Constant Matrix: (Units=GPa)
#
#
# Indices 1 2 3 4 5 6 
#
# 1 71.9988 22.2194 10.0399 0.0000 -5.3861 0.0000
# 2 22.2194 86.2390 17.1198 0.0000 13.5359 0.0000
# 3 10.0399 17.1198 125.3104 0.0000 6.6951 0.0000
# 4 0.0000 0.0000 0.0000 16.0870 0.0000 3.7359
# 5 -5.3861 13.5359 6.6951 0.0000 23.1034 0.0000
# 6 0.0000 0.0000 0.0000 3.7359 0.0000 26.6648
#
#
#
# Elastic Compliance Matrix: (Units=1/GPa)
#
#
# Indices 1 2 3 4 5 6 
#
# 1 0.016109 -0.005056 -0.000974 0.000000 0.007000 0.000000
# 2 -0.005056 0.014591 -0.001085 0.000000 -0.009413 0.000000
# 3 -0.000974 -0.001085 0.008313 0.000000 -0.002000 0.000000
# 4 0.000000 0.000000 0.000000 0.064253 0.000000 -0.009002
# 5 0.007000 -0.009413 -0.002000 0.000000 0.051010 0.000000
# 6 0.000000 0.000000 0.000000 -0.009002 0.000000 0.038764
#
#
# Mechanical properties :
#
#
# Convention : Reuss Voigt Hill
#
# Bulk Modulus (GPa) = 40.35003 42.47849 41.41426
# Shear Modulus (GPa) = 23.19850 28.78231 25.99040
#
# Velocity S-wave (km/s) = 3.28924 3.66378 3.48155
# Velocity P-wave (km/s) = 5.76573 6.14072 5.95618
#
# Compressibility (1/GPa) = 0.02478313
#
# Stress axis : x y z
#
# Youngs Moduli (GPa) = 62.07778 68.53446 120.28809
#
# Poissons Ratio (x) = 0.34649 0.11715
# Poissons Ratio (y) = 0.31385 0.13057
# Poissons Ratio (z) = 0.06046 0.07439
#
# Static dielectric constant tensor:
#      x y z
#    x 1.800350 0.000000 -0.006250 
#    y 0.000000 1.821850 0.000000 
#    z -0.006250 0.000000 1.744020 
# 
# From -- ./inp_files/310308.got.cif
#   From: 2010.05.17/outbox.cif.g08.bks.cpg/sg15_156_cif.got.tgz:310308.got - 2010.06.03 18:47:42.
