data_PCOD9286063
_publ_section_title
;
Structure prediction by ZEFSAII (Michael W. Deem and Ramdas Pophale) SiO2 
 PCOD9286063
Probable space group: C 2/C
;
_chemical_formula_sum "Si O2"
_cell_formula_units_Z 56
_cell_length_a 17.936308
_cell_length_b 16.442506
_cell_length_c 10.514227
_cell_angle_alpha 90.000000
_cell_angle_beta 50.001688
_cell_angle_gamma 90.000000
_cell_volume 2375.434794
_symmetry_space_group_name_H-M "C 2/C"
_symmetry_group_IT_number 15
_symmetry_cell_setting 'monoclinic'
loop_
_space_group_symop_operation_xyz
x,y,z
-x,y,1/2-z
-x,-y,-z
x,-y,1/2+z
1/2+x,1/2+y,z
1/2-x,1/2+y,1/2-z
1/2-x,1/2-y,-z
1/2+x,1/2-y,1/2+z
loop_
_atom_site_type_symbol
_atom_site_label
_atom_site_fract_x
_atom_site_fract_y
_atom_site_fract_z
Si Si1 0.266919 0.052425 0.306593
Si Si2 0.893467 0.016872 0.813158
Si Si3 0.674272 0.317019 0.231624
Si Si4 0.173347 0.149856 0.212468
Si Si5 0.377742 0.162776 0.360490
Si Si6 0.413539 0.942955 0.051465
Si Si7 0.194424 0.320864 0.168788
O O1 0.186567 0.012425 0.485419
O O2 0.215717 0.131417 0.303872
O O3 0.352536 0.087180 0.298498
O O4 0.316364 0.999876 0.139096
O O5 0.871175 0.094504 0.748306
O O6 0.000000 0.029739 0.750000
O O7 0.888765 0.929312 0.750918
O O8 0.608720 0.244219 0.241356
O O9 0.712987 0.311606 0.334986
O O10 0.776450 0.317827 0.044563
O O11 0.130116 0.239240 0.251251
O O12 0.261610 0.160225 0.016045
O O13 0.436392 0.122821 0.415851
O O14 0.374419 0.892739 0.213499
O O15 0.500000 0.000000 0.000000
#
# Coordination Sequence:
#
# PCOD9286063 Si02
#       7
#     8   8   8   8   8   8   8
#     4  11  21  43  67  96 134 178 230 276 346 415
#     4  11  25  42  67 100 132 172 228 288 342 408
#     4   9  18  41  68  95 126 173 230 287 331 406
#     4  11  22  41  69  99 134 186 224 280 354 418
#     4   9  19  38  68  93 128 174 224 277 341 399
#     4  11  24  41  66 103 139 180 227 288 350 421
#     4  10  21  42  70  99 135 181 231 279 349 419
#
# _framework density 23.574631
#
# number of rings (size 3 to 8) (size 9 to 14) (size 15 to 20)
#    0.000    1.714    2.857    2.571    2.000    1.143 
#    2.571    2.857    0.000    0.000    0.000    0.000 
#    0.000    0.000    0.000    0.000    0.000    0.000 
#
# Total GULP energy -156197.286354 kJ/mol
# GULP energy per Si atom -5578.474513 kJ/mol
# Density = 2.352097 g / cm^3
# Si number density = 23.574631 Si / 1000 Ang^3
#
#
#
# Elastic Constant Matrix: (Units=GPa)
#
#
# Indices 1 2 3 4 5 6 
#
# 1 99.8177 42.8292 15.0009 0.0000 -3.9035 0.0000
# 2 42.8292 135.7561 1.4615 0.0000 -10.2487 0.0000
# 3 15.0009 1.4615 31.0846 0.0000 2.5475 0.0000
# 4 0.0000 0.0000 0.0000 29.9976 0.0000 2.4071
# 5 -3.9035 -10.2487 2.5475 0.0000 28.8947 0.0000
# 6 0.0000 0.0000 0.0000 2.4071 0.0000 46.2948
#
#
#
# Elastic Compliance Matrix: (Units=1/GPa)
#
#
# Indices 1 2 3 4 5 6 
#
# 1 0.012599 -0.003845 -0.005970 0.000000 0.000865 0.000000
# 2 -0.003845 0.008753 0.001241 0.000000 0.002476 0.000000
# 3 -0.005970 0.001241 0.035278 0.000000 -0.003477 0.000000
# 4 0.000000 0.000000 0.000000 0.033476 0.000000 -0.001741
# 5 0.000865 0.002476 -0.003477 0.000000 0.035910 0.000000
# 6 0.000000 0.000000 0.000000 -0.001741 0.000000 0.021691
#
#
# Mechanical properties :
#
#
# Convention : Reuss Voigt Hill
#
# Bulk Modulus (GPa) = 25.32838 42.80463 34.06650
# Shear Modulus (GPa) = 28.08738 34.86187 31.47463
#
# Velocity S-wave (km/s) = 3.45545 3.84967 3.65787
# Velocity P-wave (km/s) = 5.16598 6.16088 5.68524
#
# Compressibility (1/GPa) = 0.03948141
#
# Stress axis : x y z
#
# Youngs Moduli (GPa) = 79.36986 114.24865 28.34631
#
# Poissons Ratio (x) = 0.43933 0.16923
# Poissons Ratio (y) = 0.30520 -0.03519
# Poissons Ratio (z) = 0.47386 -0.14181
#
# Static dielectric constant tensor:
#      x y z
#    x 1.976310 0.000000 -0.023220 
#    y 0.000000 2.117070 0.000000 
#    z -0.023220 0.000000 1.924670 
# 
# From -- ./inp_files/106645.got.cif
#   From: 2010.05.17/outbox.cif.g08.bks.cpg/sg15_54_cif.got.tgz:106645.got - 2010.06.03 18:47:42.
