data_PCOD9286536
_publ_section_title
;
Structure prediction by ZEFSAII (Michael W. Deem and Ramdas Pophale) SiO2 
 PCOD9286536
Probable space group: C 2/C
;
_chemical_formula_sum "Si O2"
_cell_formula_units_Z 64
_cell_length_a 14.486635
_cell_length_b 11.588777
_cell_length_c 16.476946
_cell_angle_alpha 90.000000
_cell_angle_beta 63.130352
_cell_angle_gamma 90.000000
_cell_volume 2467.543110
_symmetry_space_group_name_H-M "C 2/C"
_symmetry_group_IT_number 15
_symmetry_cell_setting 'monoclinic'
loop_
_space_group_symop_operation_xyz
x,y,z
-x,y,1/2-z
-x,-y,-z
x,-y,1/2+z
1/2+x,1/2+y,z
1/2-x,1/2+y,1/2-z
1/2-x,1/2-y,-z
1/2+x,1/2-y,1/2+z
loop_
_atom_site_type_symbol
_atom_site_label
_atom_site_fract_x
_atom_site_fract_y
_atom_site_fract_z
Si Si1 0.798365 0.168599 0.762426
Si Si2 0.799134 0.266233 0.354332
Si Si3 0.221170 0.387398 0.529086
Si Si4 0.073422 0.959421 0.543027
Si Si5 0.668375 0.085973 0.235527
Si Si6 0.392076 0.083339 0.590631
Si Si7 0.615059 0.186971 0.515346
Si Si8 0.887512 0.063933 0.231920
O O1 0.759212 0.152432 0.685555
O O2 0.866089 0.282472 0.732299
O O3 0.689112 0.182825 0.851068
O O4 0.617380 0.996138 0.826636
O O5 0.714131 0.173378 0.418609
O O6 0.848963 0.334980 0.407481
O O7 0.883297 0.184169 0.280395
O O8 0.250000 0.250000 0.500000
O O9 0.328288 0.458515 0.488403
O O10 0.164449 0.412569 0.638561
O O11 0.150855 0.438366 0.483365
O O12 0.102703 0.826273 0.517844
O O13 0.997967 0.958559 0.649986
O O14 0.000000 0.000000 0.500000
O O15 0.790927 0.081413 0.208312
O O16 0.491845 0.871695 0.463623
O O17 0.147909 0.059474 0.718396
#
# Coordination Sequence:
#
# PCOD9286536 Si02
#       8
#     8   8   8   8   8   8   8   8
#     4  10  21  43  71 106 158 207 260 340 415 492
#     4  10  24  45  77 107 155 204 270 342 420 481
#     4  12  25  46  79 122 168 221 272 351 431 505
#     4  12  24  42  77 116 149 209 278 338 413 504
#     4  10  22  45  75 110 164 220 264 342 428 494
#     4  11  25  46  78 116 166 215 279 349 423 509
#     4  11  25  47  75 115 151 213 278 340 413 509
#     4  10  22  44  73 114 154 200 269 344 410 488
#
# _framework density 25.936730000000001
#
# number of rings (size 3 to 8) (size 9 to 14) (size 15 to 20)
#    0.000    1.250    2.500    3.000    7.000    2.000 
#    0.000    6.875    8.250    2.250    0.000    0.000 
#    0.000    0.000    0.000    0.000    0.000    0.000 
#
# Total GULP energy -178840.095342 kJ/mol
# GULP energy per Si atom -5588.752979 kJ/mol
# Density = 2.587770 g / cm^3
# Si number density = 25.936730 Si / 1000 Ang^3
#
#
#
# Elastic Constant Matrix: (Units=GPa)
#
#
# Indices 1 2 3 4 5 6 
#
# 1 114.8774 16.3263 42.3355 0.0000 -3.4583 0.0000
# 2 16.3263 130.7323 16.7327 0.0000 -2.0976 0.0000
# 3 42.3355 16.7327 159.5566 0.0000 23.7933 0.0000
# 4 0.0000 0.0000 0.0000 31.6736 0.0000 -7.7088
# 5 -3.4583 -2.0976 23.7933 0.0000 28.4700 0.0000
# 6 0.0000 0.0000 0.0000 -7.7088 0.0000 38.3538
#
#
#
# Elastic Compliance Matrix: (Units=1/GPa)
#
#
# Indices 1 2 3 4 5 6 
#
# 1 0.010099 -0.000795 -0.003165 0.000000 0.003813 0.000000
# 2 -0.000795 0.007867 -0.000784 0.000000 0.001138 0.000000
# 3 -0.003165 -0.000784 0.008288 0.000000 -0.007369 0.000000
# 4 0.000000 0.000000 0.000000 0.033196 0.000000 0.006672
# 5 0.003813 0.001138 -0.007369 0.000000 0.041830 0.000000
# 6 0.000000 0.000000 0.000000 0.006672 0.000000 0.027414
#
#
# Mechanical properties :
#
#
# Convention : Reuss Voigt Hill
#
# Bulk Modulus (GPa) = 59.64081 61.77282 60.70681
# Shear Modulus (GPa) = 34.77764 41.68428 38.23096
#
# Velocity S-wave (km/s) = 3.66575 4.01328 3.84345
# Velocity P-wave (km/s) = 6.40013 6.73377 6.56907
#
# Compressibility (1/GPa) = 0.01676704
#
# Stress axis : x y z
#
# Youngs Moduli (GPa) = 99.01938 127.11203 120.65407
#
# Poissons Ratio (x) = 0.10105 0.38185
# Poissons Ratio (y) = 0.07871 0.09457
# Poissons Ratio (z) = 0.31338 0.09963
#
# Static dielectric constant tensor:
#      x y z
#    x 1.983000 0.000000 0.029850 
#    y 0.000000 2.175650 0.000000 
#    z 0.029850 0.000000 2.191240 
# 
# From -- ./inp_files/214592.got.cif
#   From: 2010.05.17/outbox.cif.g08.bks.cpg/sg15_108_cif.got.tgz:214592.got - 2010.06.03 18:47:42.
