data_PCOD9286899
_publ_section_title
;
Structure prediction by ZEFSAII (Michael W. Deem and Ramdas Pophale) SiO2 
 PCOD9286899
Probable space group: C 2/C
;
_chemical_formula_sum "Si O2"
_cell_formula_units_Z 40
_cell_length_a 9.303582
_cell_length_b 7.127531
_cell_length_c 22.920018
_cell_angle_alpha 90.000000
_cell_angle_beta 76.278202
_cell_angle_gamma 90.000000
_cell_volume 1476.483883
_symmetry_space_group_name_H-M "C 2/C"
_symmetry_group_IT_number 15
_symmetry_cell_setting 'monoclinic'
loop_
_space_group_symop_operation_xyz
x,y,z
-x,y,1/2-z
-x,-y,-z
x,-y,1/2+z
1/2+x,1/2+y,z
1/2-x,1/2+y,1/2-z
1/2-x,1/2-y,-z
1/2+x,1/2-y,1/2+z
loop_
_atom_site_type_symbol
_atom_site_label
_atom_site_fract_x
_atom_site_fract_y
_atom_site_fract_z
Si Si1 0.748177 0.554763 0.035093
Si Si2 0.638722 0.229545 0.767947
Si Si3 0.848687 0.604541 0.156603
Si Si4 0.635920 0.026676 0.089417
Si Si5 0.541166 0.384477 0.886983
O O1 0.814429 0.594060 0.091824
O O2 0.545158 0.822888 0.101136
O O3 0.750000 0.750000 0.000000
O O4 0.843329 0.429650 0.981444
O O5 0.500000 0.132860 0.750000
O O6 0.699779 0.093223 0.811042
O O7 0.253658 0.762261 0.706054
O O8 0.569344 0.396113 0.814406
O O9 0.580956 0.495212 0.066226
O O10 0.022846 0.643081 0.140140
O O11 0.800995 0.063223 0.098935
#
# Coordination Sequence:
#
# PCOD9286899 Si02
#       5
#     8   8   8   8   8
#     4  10  21  44  74 110 148 198 252 319 395 474
#     4  11  25  47  72 102 153 192 258 315 385 473
#     4  11  25  46  76 108 147 202 254 318 392 466
#     4  10  23  44  71 106 148 187 255 313 385 463
#     4  10  22  43  71 103 145 198 243 317 387 460
#
# _framework density 27.091388999999999
#
# number of rings (size 3 to 8) (size 9 to 14) (size 15 to 20)
#    0.000    1.600    2.000    1.200    5.600    0.000 
#    7.200   24.000    0.000    0.000    0.000    0.000 
#    0.000    0.000    0.000    0.000    0.000    0.000 
#
# Total GULP energy -111521.810646 kJ/mol
# GULP energy per Si atom -5576.090532 kJ/mol
# Density = 2.702973 g / cm^3
# Si number density = 27.091389 Si / 1000 Ang^3
#
#
#
# Elastic Constant Matrix: (Units=GPa)
#
#
# Indices 1 2 3 4 5 6 
#
# 1 174.1196 29.8939 90.7014 0.0000 -41.6320 0.0000
# 2 29.8939 87.3722 39.6384 0.0000 -14.3841 0.0000
# 3 90.7014 39.6384 246.3328 0.0000 -12.2627 0.0000
# 4 0.0000 0.0000 0.0000 40.6866 0.0000 1.0802
# 5 -41.6320 -14.3841 -12.2627 0.0000 59.6534 0.0000
# 6 0.0000 0.0000 0.0000 1.0802 0.0000 31.0479
#
#
#
# Elastic Compliance Matrix: (Units=1/GPa)
#
#
# Indices 1 2 3 4 5 6 
#
# 1 0.008571 -0.000820 -0.002764 0.000000 0.005216 0.000000
# 2 -0.000820 0.012836 -0.001655 0.000000 0.002183 0.000000
# 3 -0.002764 -0.001655 0.005282 0.000000 -0.001243 0.000000
# 4 0.000000 0.000000 0.000000 0.024601 0.000000 -0.000856
# 5 0.005216 0.002183 -0.001243 0.000000 0.020674 0.000000
# 6 0.000000 0.000000 0.000000 -0.000856 0.000000 0.032238
#
#
# Mechanical properties :
#
#
# Convention : Reuss Voigt Hill
#
# Bulk Modulus (GPa) = 61.68789 92.03244 76.86016
# Shear Modulus (GPa) = 41.63759 49.45032 45.54396
#
# Velocity S-wave (km/s) = 3.92462 4.27701 4.10460
# Velocity P-wave (km/s) = 6.58457 7.64429 7.13414
#
# Compressibility (1/GPa) = 0.01621064
#
# Stress axis : x y z
#
# Youngs Moduli (GPa) = 116.67259 77.90634 189.32744
#
# Poissons Ratio (x) = 0.06386 0.52337
# Poissons Ratio (y) = 0.09564 0.31333
# Poissons Ratio (z) = 0.32252 0.12893
#
# Static dielectric constant tensor:
#      x y z
#    x 2.276070 0.000000 -0.059520 
#    y 0.000000 2.631330 0.000000 
#    z -0.059520 0.000000 2.155130 
# 
# From -- ./inp_files/262742.got.cif
#   From: 2010.05.17/outbox.cif.g08.bks.cpg/sg15_132_cif.got.tgz:262742.got - 2010.06.03 18:47:42.
