data_PCOD9286179
_publ_section_title
;
Structure prediction by ZEFSAII (Michael W. Deem and Ramdas Pophale) SiO2 
 PCOD9286179
Probable space group: C 2/C
;
_chemical_formula_sum "Si O2"
_cell_formula_units_Z 36
_cell_length_a 20.476603
_cell_length_b 9.120682
_cell_length_c 13.374432
_cell_angle_alpha 90.000000
_cell_angle_beta 147.409617
_cell_angle_gamma 90.000000
_cell_volume 1345.397463
_symmetry_space_group_name_H-M "C 2/C"
_symmetry_group_IT_number 15
_symmetry_cell_setting 'monoclinic'
loop_
_space_group_symop_operation_xyz
x,y,z
-x,y,1/2-z
-x,-y,-z
x,-y,1/2+z
1/2+x,1/2+y,z
1/2-x,1/2+y,1/2-z
1/2-x,1/2-y,-z
1/2+x,1/2-y,1/2+z
loop_
_atom_site_type_symbol
_atom_site_label
_atom_site_fract_x
_atom_site_fract_y
_atom_site_fract_z
Si Si1 0.857746 0.909705 0.189540
Si Si2 0.500000 0.387142 0.750000
Si Si3 0.371230 0.114105 0.607600
Si Si4 0.875122 0.409902 0.342494
Si Si5 0.271424 0.692272 0.362918
O O1 0.848394 0.788039 0.262362
O O2 0.835410 0.832813 0.052688
O O3 0.968373 0.015339 0.305276
O O4 0.741989 0.014133 0.061494
O O5 0.392315 0.272576 0.584730
O O6 0.500000 0.035100 0.750000
O O7 0.363961 0.147472 0.715373
O O8 0.774211 0.535147 0.231654
O O9 0.855584 0.281096 0.396192
O O10 0.000000 0.500000 0.500000
#
# Coordination Sequence:
#
# PCOD9286179 Si02
#       5
#     8   4   8   8   8
#     4  10  21  43  62  92 127 170 216 253 319 385
#     4  10  22  34  70  90 120 162 216 262 306 376
#     4   9  21  38  63  92 123 168 203 262 312 377
#     4  11  24  41  64  94 129 165 210 267 325 371
#     4  10  25  41  64  91 130 169 211 265 315 382
#
# _framework density 26.757891999999998
#
# number of rings (size 3 to 8) (size 9 to 14) (size 15 to 20)
#    0.667    1.333    0.000    2.000    6.222    3.556 
#    4.000    2.222    0.000    0.000    0.000    0.000 
#    0.000    0.000    0.000    0.000    0.000    0.000 
#
# Total GULP energy -100786.736493 kJ/mol
# GULP energy per Si atom -5599.263139 kJ/mol
# Density = 2.669699 g / cm^3
# Si number density = 26.757892 Si / 1000 Ang^3
#
#
#
# Elastic Constant Matrix: (Units=GPa)
#
#
# Indices 1 2 3 4 5 6 
#
# 1 179.5528 71.8220 44.4159 0.0000 7.0669 0.0000
# 2 71.8220 150.5926 28.6807 0.0000 6.2791 0.0000
# 3 44.4159 28.6807 39.9996 0.0000 14.5504 0.0000
# 4 0.0000 0.0000 0.0000 17.3451 0.0000 16.4114
# 5 7.0669 6.2791 14.5504 0.0000 48.3868 0.0000
# 6 0.0000 0.0000 0.0000 16.4114 0.0000 87.8283
#
#
#
# Elastic Compliance Matrix: (Units=1/GPa)
#
#
# Indices 1 2 3 4 5 6 
#
# 1 0.008582 -0.002589 -0.008241 0.000000 0.001561 0.000000
# 2 -0.002589 0.008495 -0.003316 0.000000 0.000273 0.000000
# 3 -0.008241 -0.003316 0.040348 0.000000 -0.010499 0.000000
# 4 0.000000 0.000000 0.000000 0.070035 0.000000 -0.013087
# 5 0.001561 0.000273 -0.010499 0.000000 0.023561 0.000000
# 6 0.000000 0.000000 0.000000 -0.013087 0.000000 0.013831
#
#
# Mechanical properties :
#
#
# Convention : Reuss Voigt Hill
#
# Bulk Modulus (GPa) = 34.32447 73.33133 53.82790
# Shear Modulus (GPa) = 24.64802 45.72715 35.18758
#
# Velocity S-wave (km/s) = 3.03834 4.13840 3.63028
# Velocity P-wave (km/s) = 5.01640 7.09226 6.14265
#
# Compressibility (1/GPa) = 0.02913373
#
# Stress axis : x y z
#
# Youngs Moduli (GPa) = 116.52265 117.71383 24.78409
#
# Poissons Ratio (x) = 0.30471 0.20425
# Poissons Ratio (y) = 0.30162 0.08219
# Poissons Ratio (z) = 0.96029 0.39036
#
# Static dielectric constant tensor:
#      x y z
#    x 2.061310 0.000000 0.063840 
#    y 0.000000 2.108460 0.000000 
#    z 0.063840 0.000000 2.167550 
# 
# From -- ./inp_files/166726.got.cif
#   From: 2010.05.17/outbox.cif.g08.bks.cpg/sg15_84_cif.got.tgz:166726.got - 2010.06.03 18:47:42.
