data_PCOD9286550
_publ_section_title
;
Structure prediction by ZEFSAII (Michael W. Deem and Ramdas Pophale) SiO2 
 PCOD9286550
Probable space group: C 2/C
;
_chemical_formula_sum "Si O2"
_cell_formula_units_Z 48
_cell_length_a 29.812532
_cell_length_b 13.957317
_cell_length_c 14.091396
_cell_angle_alpha 90.000000
_cell_angle_beta 22.172639
_cell_angle_gamma 90.000000
_cell_volume 2212.865989
_symmetry_space_group_name_H-M "C 2/C"
_symmetry_group_IT_number 15
_symmetry_cell_setting 'monoclinic'
loop_
_space_group_symop_operation_xyz
x,y,z
-x,y,1/2-z
-x,-y,-z
x,-y,1/2+z
1/2+x,1/2+y,z
1/2-x,1/2+y,1/2-z
1/2-x,1/2-y,-z
1/2+x,1/2-y,1/2+z
loop_
_atom_site_type_symbol
_atom_site_label
_atom_site_fract_x
_atom_site_fract_y
_atom_site_fract_z
Si Si1 0.748267 0.344447 0.120593
Si Si2 0.016074 0.308633 0.606849
Si Si3 0.361856 0.509091 0.793761
Si Si4 0.787748 0.535583 0.735243
Si Si5 0.295567 0.319453 0.829190
Si Si6 0.135683 0.321928 0.957404
O O1 0.682385 0.390960 0.161187
O O2 0.747077 0.413714 0.216960
O O3 0.687069 0.246567 0.275007
O O4 0.886778 0.334212 0.823095
O O5 0.114742 0.393127 0.408254
O O6 0.071080 0.214593 0.453281
O O7 0.000000 0.290564 0.750000
O O8 0.500000 0.500000 0.500000
O O9 0.293962 0.427786 0.865893
O O10 0.321715 0.486725 0.979795
O O11 0.850697 0.434016 0.593234
O O12 0.217969 0.304031 0.887832
O O13 0.250000 0.250000 0.000000
O O14 0.000000 0.299323 0.250000
#
# Coordination Sequence:
#
# PCOD9286550 Si02
#       6
#     8   8   8   8   8   8
#     4  11  25  45  71 102 136 187 232 286 346 414
#     4  10  21  43  71  97 135 178 236 277 339 421
#     4  12  29  44  69 105 143 181 231 292 356 416
#     4  11  24  47  67 102 137 183 236 280 350 418
#     4  12  24  46  72 104 136 187 232 287 353 414
#     4  12  26  44  73 101 141 185 231 287 350 415
#
# _framework density 21.691327000000001
#
# number of rings (size 3 to 8) (size 9 to 14) (size 15 to 20)
#    0.000    0.667    6.667    1.500    7.000    2.667 
#    0.000    0.000    0.000    0.000    0.000    0.000 
#    0.000    0.000    0.000    0.000    0.000    0.000 
#
# Total GULP energy -134292.124496 kJ/mol
# GULP energy per Si atom -5595.505187 kJ/mol
# Density = 2.164196 g / cm^3
# Si number density = 21.691327 Si / 1000 Ang^3
#
#
#
# Elastic Constant Matrix: (Units=GPa)
#
#
# Indices 1 2 3 4 5 6 
#
# 1 44.2207 9.0587 24.1842 0.0000 5.1656 0.0000
# 2 9.0587 82.7600 -9.7639 0.0000 11.4573 0.0000
# 3 24.1842 -9.7639 121.0189 0.0000 9.0779 0.0000
# 4 0.0000 0.0000 0.0000 32.1165 0.0000 8.9154
# 5 5.1656 11.4573 9.0779 0.0000 26.9072 0.0000
# 6 0.0000 0.0000 0.0000 8.9154 0.0000 34.9548
#
#
#
# Elastic Compliance Matrix: (Units=1/GPa)
#
#
# Indices 1 2 3 4 5 6 
#
# 1 0.026463 -0.003278 -0.005413 0.000000 -0.001858 0.000000
# 2 -0.003278 0.013511 0.002185 0.000000 -0.005861 0.000000
# 3 -0.005413 0.002185 0.009760 0.000000 -0.003184 0.000000
# 4 0.000000 0.000000 0.000000 0.033509 0.000000 -0.008547
# 5 -0.001858 -0.005861 -0.003184 0.000000 0.041091 0.000000
# 6 0.000000 0.000000 0.000000 -0.008547 0.000000 0.030788
#
#
# Mechanical properties :
#
#
# Convention : Reuss Voigt Hill
#
# Bulk Modulus (GPa) = 27.23245 32.77308 30.00276
# Shear Modulus (GPa) = 27.71979 33.76372 30.74175
#
# Velocity S-wave (km/s) = 3.57868 3.94960 3.76871
# Velocity P-wave (km/s) = 5.44589 5.99506 5.72706
#
# Compressibility (1/GPa) = 0.03672090
#
# Stress axis : x y z
#
# Youngs Moduli (GPa) = 37.78861 74.01337 102.45816
#
# Poissons Ratio (x) = 0.24262 0.55465
# Poissons Ratio (y) = 0.12387 -0.22385
# Poissons Ratio (z) = 0.20457 -0.16170
#
# Static dielectric constant tensor:
#      x y z
#    x 1.769910 0.000000 0.002960 
#    y 0.000000 1.790930 0.000000 
#    z 0.002960 0.000000 1.789570 
# 
# From -- ./inp_files/182411.got.cif
#   From: 2010.05.17/outbox.cif.g08.bks.cpg/sg15_92_cif.got.tgz:182411.got - 2010.06.03 18:47:42.
