data_PCOD9286951
_publ_section_title
;
Structure prediction by ZEFSAII (Michael W. Deem and Ramdas Pophale) SiO2 
 PCOD9286951
Probable space group: C 2/C
;
_chemical_formula_sum "Si O2"
_cell_formula_units_Z 56
_cell_length_a 11.406167
_cell_length_b 25.597132
_cell_length_c 9.161336
_cell_angle_alpha 90.000000
_cell_angle_beta 61.941397
_cell_angle_gamma 90.000000
_cell_volume 2360.414609
_symmetry_space_group_name_H-M "C 2/C"
_symmetry_group_IT_number 15
_symmetry_cell_setting 'monoclinic'
loop_
_space_group_symop_operation_xyz
x,y,z
-x,y,1/2-z
-x,-y,-z
x,-y,1/2+z
1/2+x,1/2+y,z
1/2-x,1/2+y,1/2-z
1/2-x,1/2-y,-z
1/2+x,1/2-y,1/2+z
loop_
_atom_site_type_symbol
_atom_site_label
_atom_site_fract_x
_atom_site_fract_y
_atom_site_fract_z
Si Si1 0.616092 0.052442 0.352990
Si Si2 0.382190 0.284961 0.934941
Si Si3 0.898215 0.374233 0.058933
Si Si4 0.913977 0.712259 0.155009
Si Si5 0.555492 0.398200 0.562858
Si Si6 0.212632 0.140701 0.406351
Si Si7 0.191858 0.552817 0.648270
O O1 0.469336 0.077253 0.434127
O O2 0.710490 0.093844 0.219310
O O3 0.653446 0.050010 0.501906
O O4 0.637329 0.997170 0.265075
O O5 0.500000 0.273600 0.750000
O O6 0.358912 0.346776 0.942710
O O7 0.250000 0.250000 0.000000
O O8 0.425174 0.267420 0.071427
O O9 0.862202 0.396087 0.237139
O O10 0.771096 0.357379 0.036447
O O11 0.010124 0.329431 0.992920
O O12 0.767786 0.692092 0.288528
O O13 0.000000 0.710604 0.250000
O O14 0.500000 0.418314 0.750000
O O15 0.439074 0.374619 0.530813
O O16 0.649043 0.440959 0.436018
#
# Coordination Sequence:
#
# PCOD9286951 Si02
#       7
#     8   8   8   8   8   8   8
#     4  11  23  41  69  96 132 173 224 280 338 406
#     4  11  25  42  72 102 140 185 240 287 346 413
#     4  10  23  40  68 101 136 172 220 280 343 405
#     4   9  20  41  68 100 136 177 219 283 341 402
#     4  11  24  46  66  96 139 184 227 283 340 406
#     4  10  21  45  67  94 141 178 219 276 343 401
#     4  12  25  42  69  99 135 176 228 277 344 409
#
# _framework density 23.724644000000001
#
# number of rings (size 3 to 8) (size 9 to 14) (size 15 to 20)
#    0.000    1.429    1.429    4.714    4.000    2.286 
#    2.571    2.143    0.000    0.000    0.000    0.000 
#    0.000    0.000    0.000    0.000    0.000    0.000 
#
# Total GULP energy -156636.906181 kJ/mol
# GULP energy per Si atom -5594.175221 kJ/mol
# Density = 2.367065 g / cm^3
# Si number density = 23.724644 Si / 1000 Ang^3
#
#
#
# Elastic Constant Matrix: (Units=GPa)
#
#
# Indices 1 2 3 4 5 6 
#
# 1 105.6615 -2.7865 14.3988 0.0000 -12.3900 0.0000
# 2 -2.7865 32.3015 29.5422 0.0000 -0.6825 0.0000
# 3 14.3988 29.5422 80.7310 0.0000 4.0956 0.0000
# 4 0.0000 0.0000 0.0000 30.3018 0.0000 3.5987
# 5 -12.3900 -0.6825 4.0956 0.0000 39.6177 0.0000
# 6 0.0000 0.0000 0.0000 3.5987 0.0000 20.6734
#
#
#
# Elastic Compliance Matrix: (Units=1/GPa)
#
#
# Indices 1 2 3 4 5 6 
#
# 1 0.010513 0.004320 -0.003646 0.000000 0.003739 0.000000
# 2 0.004320 0.048569 -0.018753 0.000000 0.004126 0.000000
# 3 -0.003646 -0.018753 0.020079 0.000000 -0.003539 0.000000
# 4 0.000000 0.000000 0.000000 0.033698 0.000000 -0.005866
# 5 0.003739 0.004126 -0.003539 0.000000 0.026848 0.000000
# 6 0.000000 0.000000 0.000000 -0.005866 0.000000 0.049392
#
#
# Mechanical properties :
#
#
# Convention : Reuss Voigt Hill
#
# Bulk Modulus (GPa) = 23.25334 33.44477 28.34905
# Shear Modulus (GPa) = 20.86888 29.95457 25.41173
#
# Velocity S-wave (km/s) = 2.96907 3.55715 3.27633
# Velocity P-wave (km/s) = 4.64505 5.56766 5.12715
#
# Compressibility (1/GPa) = 0.04300458
#
# Stress axis : x y z
#
# Youngs Moduli (GPa) = 95.11664 20.58918 49.80338
#
# Poissons Ratio (x) = -0.08895 0.18157
# Poissons Ratio (y) = -0.41093 0.93396
# Poissons Ratio (z) = 0.34677 0.38611
#
# Static dielectric constant tensor:
#      x y z
#    x 2.009400 0.000000 0.003080 
#    y 0.000000 1.893500 0.000000 
#    z 0.003080 0.000000 1.904960 
# 
# From -- ./inp_files/35541.got.cif
#   From: 2010.05.17/outbox.cif.g08.bks.cpg/sg15_18_cif.got.tgz:35541.got - 2010.06.03 18:47:42.
