data_PCOD9286774
_publ_section_title
;
Structure prediction by ZEFSAII (Michael W. Deem and Ramdas Pophale) SiO2 
 PCOD9286774
Probable space group: C 2/C
;
_chemical_formula_sum "Si O2"
_cell_formula_units_Z 52
_cell_length_a 15.915060
_cell_length_b 10.939716
_cell_length_c 15.218207
_cell_angle_alpha 90.000000
_cell_angle_beta 75.314377
_cell_angle_gamma 90.000000
_cell_volume 2563.026515
_symmetry_space_group_name_H-M "C 2/C"
_symmetry_group_IT_number 15
_symmetry_cell_setting 'monoclinic'
loop_
_space_group_symop_operation_xyz
x,y,z
-x,y,1/2-z
-x,-y,-z
x,-y,1/2+z
1/2+x,1/2+y,z
1/2-x,1/2+y,1/2-z
1/2-x,1/2-y,-z
1/2+x,1/2-y,1/2+z
loop_
_atom_site_type_symbol
_atom_site_label
_atom_site_fract_x
_atom_site_fract_y
_atom_site_fract_z
Si Si1 0.589241 0.343503 0.772178
Si Si2 0.000000 0.367065 0.750000
Si Si3 0.226459 0.608961 0.525446
Si Si4 0.866354 0.427573 0.267913
Si Si5 0.734159 0.500421 0.657721
Si Si6 0.646480 0.741576 0.609792
Si Si7 0.821948 0.890017 0.572478
O O1 0.500000 0.384077 0.750000
O O2 0.591383 0.197448 0.776629
O O3 0.670448 0.387817 0.692511
O O4 0.614585 0.392307 0.861664
O O5 0.070997 0.459816 0.768634
O O6 0.054194 0.286476 0.667842
O O7 0.250000 0.750000 0.500000
O O8 0.157283 0.594098 0.623003
O O9 0.204029 0.540979 0.439278
O O10 0.307749 0.525583 0.537286
O O11 0.781849 0.457133 0.232946
O O12 0.676284 0.615426 0.645433
O O13 0.723324 0.837890 0.614239
O O14 0.645237 0.708670 0.507449
#
# Coordination Sequence:
#
# PCOD9286774 Si02
#       7
#     8   4   8   8   8   8   8
#     4  12  24  42  65  99 142 179 223 288 349 405
#     4  12  24  42  66 104 134 176 232 298 338 402
#     4  11  22  41  71 102 131 177 238 280 337 423
#     4  12  24  43  67  99 138 178 229 285 345 406
#     4  11  24  43  69  96 131 189 230 274 344 422
#     4  10  22  41  71  95 132 179 239 281 346 412
#     4  10  21  44  68  95 137 188 227 282 348 429
#
# _framework density 20.288513999999999
#
# number of rings (size 3 to 8) (size 9 to 14) (size 15 to 20)
#    0.000    0.923    6.923    0.000    1.077    0.000 
#    2.769    6.154    0.000    0.000    0.000    0.000 
#    0.000    0.000    0.000    0.000    0.000    0.000 
#
# Total GULP energy -145034.799356 kJ/mol
# GULP energy per Si atom -5578.261514 kJ/mol
# Density = 2.024234 g / cm^3
# Si number density = 20.288514 Si / 1000 Ang^3
#
#
#
# Elastic Constant Matrix: (Units=GPa)
#
#
# Indices 1 2 3 4 5 6 
#
# 1 87.6911 16.6342 51.1707 0.0000 5.7548 0.0000
# 2 16.6342 109.7594 26.5017 0.0000 -1.2596 0.0000
# 3 51.1707 26.5017 103.5960 0.0000 5.3023 0.0000
# 4 0.0000 0.0000 0.0000 6.6626 0.0000 3.6531
# 5 5.7548 -1.2596 5.3023 0.0000 32.3359 0.0000
# 6 0.0000 0.0000 0.0000 3.6531 0.0000 16.7365
#
#
#
# Elastic Compliance Matrix: (Units=1/GPa)
#
#
# Indices 1 2 3 4 5 6 
#
# 1 0.016137 -0.000597 -0.007735 0.000000 -0.001627 0.000000
# 2 -0.000597 0.009753 -0.002244 0.000000 0.000854 0.000000
# 3 -0.007735 -0.002244 0.014100 0.000000 -0.001023 0.000000
# 4 0.000000 0.000000 0.000000 0.170498 0.000000 -0.037215
# 5 -0.001627 0.000854 -0.001023 0.000000 0.031416 0.000000
# 6 0.000000 0.000000 0.000000 -0.037215 0.000000 0.067873
#
#
# Mechanical properties :
#
#
# Convention : Reuss Voigt Hill
#
# Bulk Modulus (GPa) = 53.08186 54.40662 53.74424
# Shear Modulus (GPa) = 14.82769 24.92965 19.87867
#
# Velocity S-wave (km/s) = 2.70634 3.50917 3.13357
# Velocity P-wave (km/s) = 5.99883 6.57979 6.29602
#
# Compressibility (1/GPa) = 0.01883883
#
# Stress axis : x y z
#
# Youngs Moduli (GPa) = 61.96845 102.53393 70.92235
#
# Poissons Ratio (x) = 0.06118 0.54858
# Poissons Ratio (y) = 0.03697 0.15915
# Poissons Ratio (z) = 0.47933 0.23008
#
# Static dielectric constant tensor:
#      x y z
#    x 1.757070 0.000000 0.008390 
#    y 0.000000 1.742440 0.000000 
#    z 0.008390 0.000000 1.792940 
# 
# From -- ./inp_files/203530.got.cif
#   From: 2010.05.17/outbox.cif.g08.bks.cpg/sg15_102_cif.got.tgz:203530.got - 2010.06.03 18:47:42.
