data_PCOD9286587
_publ_section_title
;
Structure prediction by ZEFSAII (Michael W. Deem and Ramdas Pophale) SiO2 
 PCOD9286587
Probable space group: C 2/C
;
_chemical_formula_sum "Si O2"
_cell_formula_units_Z 36
_cell_length_a 23.046958
_cell_length_b 5.088510
_cell_length_c 24.466571
_cell_angle_alpha 90.000000
_cell_angle_beta 27.339431
_cell_angle_gamma 90.000000
_cell_volume 1317.761789
_symmetry_space_group_name_H-M "C 2/C"
_symmetry_group_IT_number 15
_symmetry_cell_setting 'monoclinic'
loop_
_space_group_symop_operation_xyz
x,y,z
-x,y,1/2-z
-x,-y,-z
x,-y,1/2+z
1/2+x,1/2+y,z
1/2-x,1/2+y,1/2-z
1/2-x,1/2-y,-z
1/2+x,1/2-y,1/2+z
loop_
_atom_site_type_symbol
_atom_site_label
_atom_site_fract_x
_atom_site_fract_y
_atom_site_fract_z
Si Si1 0.742309 0.491794 0.546317
Si Si2 0.338222 0.239085 0.677335
Si Si3 0.127189 0.255803 0.471992
Si Si4 0.915284 0.580680 0.213078
Si Si5 0.000000 0.738297 0.250000
O O1 0.750000 0.250000 0.500000
O O2 0.827163 0.494183 0.529547
O O3 0.603537 0.553344 0.683533
O O4 0.750000 0.750000 0.500000
O O5 0.270847 0.518141 0.740704
O O6 0.411886 0.233535 0.558278
O O7 0.411032 0.136233 0.669081
O O8 0.264808 0.109645 0.353937
O O9 0.001441 0.189332 0.611909
O O10 0.992884 0.544365 0.204101
#
# Coordination Sequence:
#
# PCOD9286587 Si02
#       5
#     8   8   8   8   4
#     4  11  24  44  67 100 140 179 232 282 346 412
#     4  10  23  46  71 105 140 185 234 290 346 414
#     4  10  22  44  71 105 139 186 234 288 349 414
#     4  10  21  43  73 103 143 181 237 284 352 411
#     4  10  22  44  72 104 140 184 230 290 350 416
#
# _framework density 27.319051999999999
#
# number of rings (size 3 to 8) (size 9 to 14) (size 15 to 20)
#    0.000    1.778    2.222    0.667    0.000    6.222 
#   12.000   18.889    0.000    0.000    0.000    0.000 
#    0.000    0.000    0.000    0.000    0.000    0.000 
#
# Total GULP energy -100252.675420 kJ/mol
# GULP energy per Si atom -5569.593079 kJ/mol
# Density = 2.725687 g / cm^3
# Si number density = 27.319052 Si / 1000 Ang^3
#
#
#
# Elastic Constant Matrix: (Units=GPa)
#
#
# Indices 1 2 3 4 5 6 
#
# 1 193.2082 28.6403 44.6161 -0.0576 12.1404 0.0499
# 2 28.6403 93.9896 23.4208 -0.1065 -3.0012 0.1108
# 3 44.6161 23.4208 119.5767 0.0006 17.3579 0.0049
# 4 -0.0576 -0.1065 0.0006 16.9962 0.0387 -6.1993
# 5 12.1404 -3.0012 17.3579 0.0387 71.6889 -0.0882
# 6 0.0499 0.1108 0.0049 -6.1993 -0.0882 20.1969
#
#
#
# Elastic Compliance Matrix: (Units=1/GPa)
#
#
# Indices 1 2 3 4 5 6 
#
# 1 0.005834 -0.001342 -0.001827 0.000011 -0.000602 -0.000006
# 2 -0.001342 0.011569 -0.001937 0.000051 0.001180 -0.000039
# 3 -0.001827 -0.001937 0.009733 -0.000014 -0.002128 -0.000001
# 4 0.000011 0.000051 -0.000014 0.066254 -0.000007 0.020336
# 5 -0.000602 0.001180 -0.002128 -0.000007 0.014616 0.000057
# 6 -0.000006 -0.000039 -0.000001 0.020336 0.000057 0.055755
#
#
# Mechanical properties :
#
#
# Convention : Reuss Voigt Hill
#
# Bulk Modulus (GPa) = 59.08257 66.68101 62.88179
# Shear Modulus (GPa) = 27.83762 42.44957 35.14359
#
# Velocity S-wave (km/s) = 3.19561 3.94616 3.59055
# Velocity P-wave (km/s) = 5.94052 6.72489 6.34484
#
# Compressibility (1/GPa) = 0.01692547
#
# Stress axis : x y z
#
# Youngs Moduli (GPa) = 171.39950 86.44002 102.74699
#
# Poissons Ratio (x) = 0.11599 0.18769
# Poissons Ratio (y) = 0.22999 0.19898
# Poissons Ratio (z) = 0.31309 0.16740
#
# Static dielectric constant tensor:
#      x y z
#    x 3.093970 0.001360 -1.860220 
#    y 0.001360 2.199320 -0.002490 
#    z -1.860220 -0.002490 6.060590 
# 
# From -- ./inp_files/115614.got.cif
#   From: 2010.05.17/outbox.cif.g08.bks.cpg/sg15_58_cif.got.tgz:115614.got - 2010.06.03 18:47:42.
