data_PCOD9286522
_publ_section_title
;
Structure prediction by ZEFSAII (Michael W. Deem and Ramdas Pophale) SiO2 
 PCOD9286522
Probable space group: C 2/C
;
_chemical_formula_sum "Si O2"
_cell_formula_units_Z 52
_cell_length_a 5.506076
_cell_length_b 20.415878
_cell_length_c 17.540554
_cell_angle_alpha 90.000000
_cell_angle_beta 83.271009
_cell_angle_gamma 90.000000
_cell_volume 1958.175332
_symmetry_space_group_name_H-M "C 2/C"
_symmetry_group_IT_number 15
_symmetry_cell_setting 'monoclinic'
loop_
_space_group_symop_operation_xyz
x,y,z
-x,y,1/2-z
-x,-y,-z
x,-y,1/2+z
1/2+x,1/2+y,z
1/2-x,1/2+y,1/2-z
1/2-x,1/2-y,-z
1/2+x,1/2-y,1/2+z
loop_
_atom_site_type_symbol
_atom_site_label
_atom_site_fract_x
_atom_site_fract_y
_atom_site_fract_z
Si Si1 0.672150 0.105506 0.807533
Si Si2 0.354752 0.056501 0.961117
Si Si3 0.052271 0.334375 0.535901
Si Si4 0.500000 0.489384 0.750000
Si Si5 0.000000 0.802846 0.750000
Si Si6 0.000000 0.384548 0.750000
Si Si7 0.682609 0.558761 0.388114
Si Si8 0.747265 0.770825 0.375615
O O1 0.500000 0.135831 0.750000
O O2 0.517299 0.083643 0.886288
O O3 0.783335 0.041661 0.764601
O O4 0.847798 0.163149 0.832168
O O5 0.151330 0.012540 0.927660
O O6 0.331157 0.116733 0.020866
O O7 0.500000 0.000000 0.000000
O O8 0.274517 0.384209 0.551833
O O9 0.052886 0.281824 0.603792
O O10 0.113376 0.294270 0.457493
O O11 0.507174 0.445892 0.673887
O O12 0.259013 0.842126 0.739703
O O13 0.053160 0.762255 0.825617
O O14 0.922860 0.428366 0.825861
#
# Coordination Sequence:
#
# PCOD9286522 Si02
#       8
#     8   8   8   4   4   4   8   8
#     4  11  21  41  65  97 137 184 232 295 362 434
#     4   9  19  38  65  90 132 182 226 293 359 436
#     4   9  20  40  70  94 142 187 243 298 375 430
#     4  12  25  39  72 106 145 185 248 306 370 446
#     4  12  25  46  75 106 151 193 248 308 366 434
#     4  12  26  43  73 112 146 190 248 306 372 436
#     4  11  21  40  67 102 141 185 238 304 363 439
#     4  10  21  43  70  99 141 190 246 304 359 445
#
# _framework density 26.555334999999999
#
# number of rings (size 3 to 8) (size 9 to 14) (size 15 to 20)
#    0.000    1.538    3.846    1.385    0.000    0.615 
#    0.000    7.692   16.923    0.000    0.000    0.000 
#    0.000    0.000    0.000    0.000    0.000    0.000 
#
# Total GULP energy -145057.912091 kJ/mol
# GULP energy per Si atom -5579.150465 kJ/mol
# Density = 2.649489 g / cm^3
# Si number density = 26.555335 Si / 1000 Ang^3
#
#
#
# Elastic Constant Matrix: (Units=GPa)
#
#
# Indices 1 2 3 4 5 6 
#
# 1 79.8068 40.1804 46.9869 0.0000 0.5786 0.0000
# 2 40.1804 147.9245 74.6252 0.0000 11.8038 0.0000
# 3 46.9869 74.6252 176.1756 0.0000 25.2935 0.0000
# 4 0.0000 0.0000 0.0000 74.0096 0.0000 28.3448
# 5 0.5786 11.8038 25.2935 0.0000 35.2598 0.0000
# 6 0.0000 0.0000 0.0000 28.3448 0.0000 24.3179
#
#
#
# Elastic Compliance Matrix: (Units=1/GPa)
#
#
# Indices 1 2 3 4 5 6 
#
# 1 0.016010 -0.002821 -0.003537 0.000000 0.003219 0.000000
# 2 -0.002821 0.009097 -0.002977 0.000000 -0.000864 0.000000
# 3 -0.003537 -0.002977 0.008617 0.000000 -0.005126 0.000000
# 4 0.000000 0.000000 0.000000 0.024408 0.000000 -0.028449
# 5 0.003219 -0.000864 -0.005126 0.000000 0.032275 0.000000
# 6 0.000000 0.000000 0.000000 -0.028449 0.000000 0.074282
#
#
# Mechanical properties :
#
#
# Convention : Reuss Voigt Hill
#
# Bulk Modulus (GPa) = 66.43178 80.83245 73.63211
# Shear Modulus (GPa) = 26.54259 42.85839 34.70049
#
# Velocity S-wave (km/s) = 3.16495 4.02173 3.61879
# Velocity P-wave (km/s) = 6.19891 7.21603 6.72672
#
# Compressibility (1/GPa) = 0.01505304
#
# Stress axis : x y z
#
# Youngs Moduli (GPa) = 62.46187 109.92264 116.05605
#
# Poissons Ratio (x) = 0.31011 0.41049
# Poissons Ratio (y) = 0.17622 0.34551
# Poissons Ratio (z) = 0.22093 0.32725
#
# Static dielectric constant tensor:
#      x y z
#    x 2.106440 0.000000 0.020210 
#    y 0.000000 2.170530 0.000000 
#    z 0.020210 0.000000 2.093220 
# 
# From -- ./inp_files/227612.got.cif
#   From: 2010.05.17/outbox.cif.g08.bks.cpg/sg15_114_cif.got.tgz:227612.got - 2010.06.03 18:47:42.
