data_PCOD9286768
_publ_section_title
;
Structure prediction by ZEFSAII (Michael W. Deem and Ramdas Pophale) SiO2 
 PCOD9286768
Probable space group: C 2/C
;
_chemical_formula_sum "Si O2"
_cell_formula_units_Z 56
_cell_length_a 31.814550
_cell_length_b 8.043457
_cell_length_c 13.861749
_cell_angle_alpha 90.000000
_cell_angle_beta 135.795400
_cell_angle_gamma 90.000000
_cell_volume 2473.193247
_symmetry_space_group_name_H-M "C 2/C"
_symmetry_group_IT_number 15
_symmetry_cell_setting 'monoclinic'
loop_
_space_group_symop_operation_xyz
x,y,z
-x,y,1/2-z
-x,-y,-z
x,-y,1/2+z
1/2+x,1/2+y,z
1/2-x,1/2+y,1/2-z
1/2-x,1/2-y,-z
1/2+x,1/2-y,1/2+z
loop_
_atom_site_type_symbol
_atom_site_label
_atom_site_fract_x
_atom_site_fract_y
_atom_site_fract_z
Si Si1 0.081255 0.861688 0.071358
Si Si2 0.964614 0.674085 0.941294
Si Si3 0.335575 0.096809 0.375084
Si Si4 0.140404 0.139366 0.303723
Si Si5 0.125388 0.944084 0.467804
Si Si6 0.717859 0.744709 0.263729
Si Si7 0.565330 0.875211 0.888096
O O1 0.126859 0.704758 0.139701
O O2 0.015466 0.803683 0.993286
O O3 0.106478 0.997733 0.185569
O O4 0.084682 0.942358 0.970608
O O5 0.940796 0.689353 0.011494
O O6 0.906188 0.705256 0.778462
O O7 0.000000 0.500000 0.000000
O O8 0.301429 0.936180 0.276862
O O9 0.385088 0.018286 0.528348
O O10 0.285740 0.208574 0.344592
O O11 0.199498 0.182400 0.339348
O O12 0.149694 0.056845 0.421921
O O13 0.176751 0.859188 0.619082
O O14 0.086918 0.786651 0.365322
O O15 0.500000 0.936024 0.750000
#
# Coordination Sequence:
#
# PCOD9286768 Si02
#       7
#     8   8   8   8   8   8   8
#     4  11  22  39  65  97 130 181 222 279 336 403
#     4  12  22  41  63  93 140 179 219 273 339 398
#     4  11  22  45  71  95 136 183 221 284 348 391
#     4  11  22  41  67  99 132 176 227 279 341 400
#     4  10  23  40  66 102 128 178 226 278 341 400
#     4  10  21  44  68  94 137 174 228 282 333 408
#     4  11  23  42  65  99 141 176 221 278 344 404
#
# _framework density 22.642790999999999
#
# number of rings (size 3 to 8) (size 9 to 14) (size 15 to 20)
#    0.000    1.143    5.714    3.000    2.000    1.143 
#    0.000   13.571    0.000    0.000    0.000    0.000 
#    0.000    0.000    0.000    0.000    0.000    0.000 
#
# Total GULP energy -156635.683640 kJ/mol
# GULP energy per Si atom -5594.131559 kJ/mol
# Density = 2.259125 g / cm^3
# Si number density = 22.642791 Si / 1000 Ang^3
#
#
#
# Elastic Constant Matrix: (Units=GPa)
#
#
# Indices 1 2 3 4 5 6 
#
# 1 106.1672 22.1826 33.6489 0.0000 14.4473 0.0000
# 2 22.1826 95.7164 23.3010 0.0000 0.3509 0.0000
# 3 33.6489 23.3010 62.3565 0.0000 11.8197 0.0000
# 4 0.0000 0.0000 0.0000 29.7953 0.0000 11.7691
# 5 14.4473 0.3509 11.8197 0.0000 39.6934 0.0000
# 6 0.0000 0.0000 0.0000 11.7691 0.0000 42.5271
#
#
#
# Elastic Compliance Matrix: (Units=1/GPa)
#
#
# Indices 1 2 3 4 5 6 
#
# 1 0.011765 -0.001425 -0.005306 0.000000 -0.002689 0.000000
# 2 -0.001425 0.011724 -0.003912 0.000000 0.001580 0.000000
# 3 -0.005306 -0.003912 0.021185 0.000000 -0.004342 0.000000
# 4 0.000000 0.000000 0.000000 0.037681 0.000000 -0.010428
# 5 -0.002689 0.001580 -0.004342 0.000000 0.027451 0.000000
# 6 0.000000 0.000000 0.000000 -0.010428 0.000000 0.026400
#
#
# Mechanical properties :
#
#
# Convention : Reuss Voigt Hill
#
# Bulk Modulus (GPa) = 42.75631 46.94501 44.85066
# Shear Modulus (GPa) = 30.25027 34.74367 32.49697
#
# Velocity S-wave (km/s) = 3.65907 3.92142 3.79252
# Velocity P-wave (km/s) = 6.06429 6.42505 6.24728
#
# Compressibility (1/GPa) = 0.02338836
#
# Stress axis : x y z
#
# Youngs Moduli (GPa) = 85.00118 85.29377 47.20335
#
# Poissons Ratio (x) = 0.12153 0.25047
# Poissons Ratio (y) = 0.12112 0.18464
# Poissons Ratio (z) = 0.45103 0.33363
#
# Static dielectric constant tensor:
#      x y z
#    x 1.811840 0.000000 0.002020 
#    y 0.000000 1.892420 0.000000 
#    z 0.002020 0.000000 1.868790 
# 
# From -- ./inp_files/180853.got.cif
#   From: 2010.05.17/outbox.cif.g08.bks.cpg/sg15_91_cif.got.tgz:180853.got - 2010.06.03 18:47:42.
