data_PCOD9286382
_publ_section_title
;
Structure prediction by ZEFSAII (Michael W. Deem and Ramdas Pophale) SiO2 
 PCOD9286382
Probable space group: C 2/C
;
_chemical_formula_sum "Si O2"
_cell_formula_units_Z 56
_cell_length_a 20.086949
_cell_length_b 9.509640
_cell_length_c 28.334846
_cell_angle_alpha 90.000000
_cell_angle_beta 150.262542
_cell_angle_gamma 90.000000
_cell_volume 2684.749312
_symmetry_space_group_name_H-M "C 2/C"
_symmetry_group_IT_number 15
_symmetry_cell_setting 'monoclinic'
loop_
_space_group_symop_operation_xyz
x,y,z
-x,y,1/2-z
-x,-y,-z
x,-y,1/2+z
1/2+x,1/2+y,z
1/2-x,1/2+y,1/2-z
1/2-x,1/2-y,-z
1/2+x,1/2-y,1/2+z
loop_
_atom_site_type_symbol
_atom_site_label
_atom_site_fract_x
_atom_site_fract_y
_atom_site_fract_z
Si Si1 0.106810 0.520137 0.197105
Si Si2 0.644905 0.844368 0.316647
Si Si3 0.885021 0.106724 0.387099
Si Si4 0.870103 0.031982 0.482435
Si Si5 0.382327 0.914120 0.402064
Si Si6 0.339792 0.487027 0.664524
Si Si7 0.332472 0.175383 0.009859
O O1 0.125280 0.411432 0.251988
O O2 0.234263 0.623981 0.276787
O O3 0.119752 0.449400 0.154265
O O4 0.968358 0.605548 0.112657
O O5 0.500000 0.852944 0.250000
O O6 0.683468 0.679429 0.341196
O O7 0.741644 0.934314 0.411363
O O8 0.872573 0.017637 0.427173
O O9 0.934001 0.255477 0.434828
O O10 0.988681 0.035057 0.415223
O O11 0.859388 0.192767 0.491352
O O12 0.500000 0.000000 0.500000
O O13 0.238093 0.938749 0.338949
O O14 0.500000 0.508594 0.750000
O O15 0.256010 0.555492 0.569873
O O16 0.250000 0.250000 0.000000
#
# Coordination Sequence:
#
# PCOD9286382 Si02
#       7
#     8   8   8   8   8   8   8
#     4  11  26  41  71 105 135 185 243 291 362 410
#     4  10  23  47  69  97 140 187 235 293 357 429
#     4  10  23  39  67  97 133 178 229 293 347 415
#     4  10  21  43  67  95 136 179 228 285 360 408
#     4  12  23  45  69 100 144 184 236 298 355 424
#     4  11  26  46  70 100 142 193 231 294 372 424
#     4  12  26  44  69 105 141 185 238 293 354 436
#
# _framework density 20.858557000000001
#
# number of rings (size 3 to 8) (size 9 to 14) (size 15 to 20)
#    0.000    1.143    2.857    1.714    6.000    1.714 
#    2.571    3.571    0.000    0.000    0.000    0.000 
#    0.000    0.000    0.000    0.000    0.000    0.000 
#
# Total GULP energy -155973.984101 kJ/mol
# GULP energy per Si atom -5570.499432 kJ/mol
# Density = 2.081108 g / cm^3
# Si number density = 20.858557 Si / 1000 Ang^3
#
#
#
# Elastic Constant Matrix: (Units=GPa)
#
#
# Indices 1 2 3 4 5 6 
#
# 1 91.5223 22.0696 36.9119 0.0000 -4.0239 0.0000
# 2 22.0696 118.9521 64.4249 0.0000 9.6562 0.0000
# 3 36.9119 64.4249 133.6641 0.0008 19.4717 0.0002
# 4 0.0000 0.0000 0.0008 29.2776 0.0000 5.7093
# 5 -4.0239 9.6562 19.4717 0.0000 32.6335 0.0000
# 6 0.0000 0.0000 0.0002 5.7093 0.0000 32.6117
#
#
#
# Elastic Compliance Matrix: (Units=1/GPa)
#
#
# Indices 1 2 3 4 5 6 
#
# 1 0.012797 -0.000635 -0.003817 0.000000 0.004043 0.000000
# 2 -0.000635 0.011408 -0.005279 0.000000 -0.000304 0.000000
# 3 -0.003817 -0.005279 0.011960 0.000000 -0.006045 0.000000
# 4 0.000000 0.000000 0.000000 0.035363 0.000000 -0.006191
# 5 0.004043 -0.000304 -0.006045 0.000000 0.034839 0.000000
# 6 0.000000 0.000000 0.000000 -0.006191 0.000000 0.031748
#
#
# Mechanical properties :
#
#
# Convention : Reuss Voigt Hill
#
# Bulk Modulus (GPa) = 59.86726 65.66126 62.76426
# Shear Modulus (GPa) = 30.64763 33.62005 32.13384
#
# Velocity S-wave (km/s) = 3.83731 4.01909 3.92925
# Velocity P-wave (km/s) = 6.95681 7.28595 7.12328
#
# Compressibility (1/GPa) = 0.01670362
#
# Stress axis : x y z
#
# Youngs Moduli (GPa) = 78.14625 87.65431 83.60873
#
# Poissons Ratio (x) = 0.05569 0.31910
# Poissons Ratio (y) = 0.04965 0.44137
# Poissons Ratio (z) = 0.29825 0.46273
#
# Static dielectric constant tensor:
#      x y z
#    x 1.792540 0.000000 0.014880 
#    y 0.000000 1.757670 0.000000 
#    z 0.014880 0.000000 1.845740 
# 
# From -- ./inp_files/317553.got.cif
#   From: 2010.05.17/outbox.cif.g08.bks.cpg/sg15_159_cif.got.tgz:317553.got - 2010.06.03 18:47:42.
