data_PCOD9286651
_publ_section_title
;
Structure prediction by ZEFSAII (Michael W. Deem and Ramdas Pophale) SiO2 
 PCOD9286651
Probable space group: C 2/C
;
_chemical_formula_sum "Si O2"
_cell_formula_units_Z 48
_cell_length_a 13.237484
_cell_length_b 12.426072
_cell_length_c 20.092789
_cell_angle_alpha 90.000000
_cell_angle_beta 137.128713
_cell_angle_gamma 90.000000
_cell_volume 2248.610713
_symmetry_space_group_name_H-M "C 2/C"
_symmetry_group_IT_number 15
_symmetry_cell_setting 'monoclinic'
loop_
_space_group_symop_operation_xyz
x,y,z
-x,y,1/2-z
-x,-y,-z
x,-y,1/2+z
1/2+x,1/2+y,z
1/2-x,1/2+y,1/2-z
1/2-x,1/2-y,-z
1/2+x,1/2-y,1/2+z
loop_
_atom_site_type_symbol
_atom_site_label
_atom_site_fract_x
_atom_site_fract_y
_atom_site_fract_z
Si Si1 0.572651 0.910042 0.714909
Si Si2 0.003678 0.201645 0.612372
Si Si3 0.600391 0.522418 0.113734
Si Si4 0.434774 0.759564 0.426292
Si Si5 0.404554 0.035893 0.518778
Si Si6 0.334654 0.383475 0.142757
O O1 0.500000 0.880946 0.750000
O O2 0.599549 0.800482 0.686754
O O3 0.721664 0.973388 0.806078
O O4 0.467184 0.978509 0.615069
O O5 0.969205 0.229667 0.519667
O O6 0.863125 0.194319 0.593631
O O7 0.066909 0.080276 0.643119
O O8 0.567980 0.647497 0.114970
O O9 0.500000 0.500000 0.000000
O O10 0.561301 0.838414 0.459942
O O11 0.280958 0.827131 0.361942
O O12 0.500000 0.000000 0.500000
O O13 0.242624 0.991018 0.422912
O O14 0.500000 0.399792 0.250000
#
# Coordination Sequence:
#
# PCOD9286651 Si02
#       6
#     8   8   8   8   8   8
#     4  12  25  42  71  98 134 172 224 281 334 392
#     4  11  22  39  68  98 131 168 227 277 332 386
#     4  10  25  40  66  98 136 173 223 274 332 398
#     4  10  21  44  64  91 138 178 215 270 337 399
#     4  10  23  42  66  97 134 177 218 269 340 400
#     4  11  22  36  66  98 129 167 229 281 322 380
#
# _framework density 21.346513999999999
#
# number of rings (size 3 to 8) (size 9 to 14) (size 15 to 20)
#    0.000    1.333    3.333    3.000   11.667    0.000 
#    0.000    0.833    0.000    1.000    0.000    0.000 
#    0.000    0.000    0.000    0.000    0.000    0.000 
#
# Total GULP energy -133794.127062 kJ/mol
# GULP energy per Si atom -5574.755294 kJ/mol
# Density = 2.129793 g / cm^3
# Si number density = 21.346514 Si / 1000 Ang^3
#
#
#
# Elastic Constant Matrix: (Units=GPa)
#
#
# Indices 1 2 3 4 5 6 
#
# 1 35.1212 30.6110 47.8384 0.0000 -1.7180 0.0000
# 2 30.6110 150.2643 65.7149 0.0000 13.0227 0.0000
# 3 47.8384 65.7149 142.8474 0.0000 16.3186 0.0000
# 4 0.0000 0.0000 0.0000 40.2996 0.0000 2.9601
# 5 -1.7180 13.0227 16.3186 0.0000 37.8605 0.0000
# 6 0.0000 0.0000 0.0000 2.9601 0.0000 35.4227
#
#
#
# Elastic Compliance Matrix: (Units=1/GPa)
#
#
# Indices 1 2 3 4 5 6 
#
# 1 0.059252 -0.004824 -0.019059 0.000000 0.012563 0.000000
# 2 -0.004824 0.008783 -0.002161 0.000000 -0.002308 0.000000
# 3 -0.019059 -0.002161 0.015137 0.000000 -0.006646 0.000000
# 4 0.000000 0.000000 0.000000 0.024967 0.000000 -0.002086
# 5 0.012563 -0.002308 -0.006646 0.000000 0.030641 0.000000
# 6 0.000000 0.000000 0.000000 -0.002086 0.000000 0.028405
#
#
# Mechanical properties :
#
#
# Convention : Reuss Voigt Hill
#
# Bulk Modulus (GPa) = 32.17194 68.50684 50.33939
# Shear Modulus (GPa) = 21.77374 34.98781 28.38077
#
# Velocity S-wave (km/s) = 3.19723 4.05290 3.65022
# Velocity P-wave (km/s) = 5.36038 7.35280 6.43418
#
# Compressibility (1/GPa) = 0.03108299
#
# Stress axis : x y z
#
# Youngs Moduli (GPa) = 16.87705 113.85767 66.06540
#
# Poissons Ratio (x) = 0.54928 1.25913
# Poissons Ratio (y) = 0.08142 0.14278
# Poissons Ratio (z) = 0.32166 0.24606
#
# Static dielectric constant tensor:
#      x y z
#    x 1.787400 0.000000 0.021000 
#    y 0.000000 1.826710 0.000000 
#    z 0.021000 0.000000 1.842840 
# 
# From -- ./inp_files/243984.got.cif
#   From: 2010.05.17/outbox.cif.g08.bks.cpg/sg15_122_cif.got.tgz:243984.got - 2010.06.03 18:47:42.
