data_PCOD9286869
_publ_section_title
;
Structure prediction by ZEFSAII (Michael W. Deem and Ramdas Pophale) SiO2 
 PCOD9286869
Probable space group: C 2/C
;
_chemical_formula_sum "Si O2"
_cell_formula_units_Z 60
_cell_length_a 15.624299
_cell_length_b 18.343143
_cell_length_c 9.132539
_cell_angle_alpha 90.000000
_cell_angle_beta 99.257409
_cell_angle_gamma 90.000000
_cell_volume 2583.284468
_symmetry_space_group_name_H-M "C 2/C"
_symmetry_group_IT_number 15
_symmetry_cell_setting 'monoclinic'
loop_
_space_group_symop_operation_xyz
x,y,z
-x,y,1/2-z
-x,-y,-z
x,-y,1/2+z
1/2+x,1/2+y,z
1/2-x,1/2+y,1/2-z
1/2-x,1/2-y,-z
1/2+x,1/2-y,1/2+z
loop_
_atom_site_type_symbol
_atom_site_label
_atom_site_fract_x
_atom_site_fract_y
_atom_site_fract_z
Si Si1 0.500000 0.390424 0.250000
Si Si2 0.114890 0.999379 0.969028
Si Si3 0.872932 0.154419 0.161508
Si Si4 0.928381 0.756627 0.410588
Si Si5 0.887269 0.221499 0.452034
Si Si6 0.740192 0.842575 0.102020
Si Si7 0.185190 0.371910 0.757056
Si Si8 0.739586 0.482936 0.259420
O O1 0.453865 0.443664 0.116931
O O2 0.440708 0.332994 0.324742
O O3 0.150815 0.000380 0.144661
O O4 0.094189 0.918644 0.908384
O O5 0.206920 0.016018 0.917034
O O6 0.918983 0.170400 0.329075
O O7 0.774233 0.141330 0.189691
O O8 0.882315 0.219682 0.048582
O O9 0.881364 0.688538 0.320930
O O10 0.971269 0.737008 0.030996
O O11 0.834467 0.180099 0.564719
O O12 0.813666 0.272555 0.363341
O O13 0.694323 0.861730 0.934240
O O14 0.737699 0.897945 0.237251
O O15 0.182904 0.460261 0.740314
#
# Coordination Sequence:
#
# PCOD9286869 Si02
#       8
#     4   8   8   8   8   8   8   8
#     4  12  28  40  68 104 140 184 224 278 360 416
#     4  11  25  41  64  99 138 176 222 276 343 418
#     4  10  24  41  65  95 142 181 223 280 341 412
#     4  12  24  43  65 100 140 180 229 285 336 411
#     4  10  23  41  70 101 137 184 229 276 349 408
#     4  10  21  44  71  98 136 179 231 288 334 420
#     4  10  23  43  66  98 132 178 236 280 339 399
#     4  11  22  43  67  96 129 177 232 278 337 404
#
# _framework density 23.226247000000001
#
# number of rings (size 3 to 8) (size 9 to 14) (size 15 to 20)
#    0.000    1.333    1.333    3.200    5.600    8.533 
#    0.000    0.667    0.000    0.000    0.000    0.000 
#    0.000    0.000    0.000    0.000    0.000    0.000 
#
# Total GULP energy -167338.954693 kJ/mol
# GULP energy per Si atom -5577.965156 kJ/mol
# Density = 2.317338 g / cm^3
# Si number density = 23.226247 Si / 1000 Ang^3
#
#
#
# Elastic Constant Matrix: (Units=GPa)
#
#
# Indices 1 2 3 4 5 6 
#
# 1 81.9857 60.1670 43.7180 0.0000 17.6166 0.0000
# 2 60.1670 152.9732 48.4312 0.0000 23.2016 0.0000
# 3 43.7180 48.4312 92.5927 0.0000 11.2216 0.0000
# 4 0.0000 0.0000 0.0000 44.3701 0.0000 7.1511
# 5 17.6166 23.2016 11.2216 0.0000 34.1207 0.0000
# 6 0.0000 0.0000 0.0000 7.1511 0.0000 45.9354
#
#
#
# Elastic Compliance Matrix: (Units=1/GPa)
#
#
# Indices 1 2 3 4 5 6 
#
# 1 0.020528 -0.005334 -0.006309 0.000000 -0.004897 0.000000
# 2 -0.005334 0.009827 -0.002235 0.000000 -0.003193 0.000000
# 3 -0.006309 -0.002235 0.014965 0.000000 -0.000145 0.000000
# 4 0.000000 0.000000 0.000000 0.023118 0.000000 -0.003599
# 5 -0.004897 -0.003193 -0.000145 0.000000 0.034055 0.000000
# 6 0.000000 0.000000 0.000000 -0.003599 0.000000 0.022330
#
#
# Mechanical properties :
#
#
# Convention : Reuss Voigt Hill
#
# Bulk Modulus (GPa) = 56.93104 70.24266 63.58685
# Shear Modulus (GPa) = 31.55914 36.56759 34.06336
#
# Velocity S-wave (km/s) = 3.69015 3.97219 3.83376
# Velocity P-wave (km/s) = 6.53613 7.16562 6.85810
#
# Compressibility (1/GPa) = 0.01756511
#
# Stress axis : x y z
#
# Youngs Moduli (GPa) = 48.71381 101.76264 66.82188
#
# Poissons Ratio (x) = 0.54279 0.42158
# Poissons Ratio (y) = 0.25983 0.14932
# Poissons Ratio (z) = 0.30734 0.22739
#
# Static dielectric constant tensor:
#      x y z
#    x 1.906640 0.000000 0.013730 
#    y 0.000000 2.060660 0.000000 
#    z 0.013730 0.000000 1.894480 
# 
# From -- ./inp_files/56587.got.cif
#   From: 2010.05.17/outbox.cif.g08.bks.cpg/sg15_29_cif.got.tgz:56587.got - 2010.06.03 18:47:42.
