data_PCOD9286979
_publ_section_title
;
Structure prediction by ZEFSAII (Michael W. Deem and Ramdas Pophale) SiO2 
 PCOD9286979
Probable space group: C 2/C
;
_chemical_formula_sum "Si O2"
_cell_formula_units_Z 32
_cell_length_a 11.921161
_cell_length_b 19.436172
_cell_length_c 9.090757
_cell_angle_alpha 90.000000
_cell_angle_beta 49.581708
_cell_angle_gamma 90.000000
_cell_volume 1603.625860
_symmetry_space_group_name_H-M "C 2/C"
_symmetry_group_IT_number 15
_symmetry_cell_setting 'monoclinic'
loop_
_space_group_symop_operation_xyz
x,y,z
-x,y,1/2-z
-x,-y,-z
x,-y,1/2+z
1/2+x,1/2+y,z
1/2-x,1/2+y,1/2-z
1/2-x,1/2-y,-z
1/2+x,1/2-y,1/2+z
loop_
_atom_site_type_symbol
_atom_site_label
_atom_site_fract_x
_atom_site_fract_y
_atom_site_fract_z
Si Si1 0.156312 0.684413 0.033604
Si Si2 0.619109 0.577408 0.522219
Si Si3 0.664982 0.191075 0.668857
Si Si4 0.100477 0.923272 0.524084
O O1 0.000000 0.686230 0.250000
O O2 0.250000 0.750000 0.000000
O O3 0.245112 0.618506 0.024291
O O4 0.152079 0.691359 0.859226
O O5 0.500000 0.569435 0.750000
O O6 0.651533 0.500354 0.433734
O O7 0.515152 0.613206 0.488824
O O8 0.500000 0.188560 0.750000
O O9 0.750000 0.250000 0.500000
O O10 0.759716 0.122616 0.561558
O O11 0.000000 0.930908 0.750000
#
# Coordination Sequence:
#
# PCOD9286979 Si02
#       4
#     8   8   8   8
#     4  12  27  44  68  97 134 180 224 278 334 400
#     4  10  21  45  69  99 132 177 224 269 330 396
#     4  12  27  45  65  99 137 176 224 279 336 395
#     4  10  23  41  72  99 134 175 221 274 327 396
#
# _framework density 19.95478
#
# number of rings (size 3 to 8) (size 9 to 14) (size 15 to 20)
#    0.000    1.000    2.500    3.000   10.500    1.000 
#    0.000    2.500    0.000    0.000    0.000    0.000 
#    0.000    0.000    0.000    0.000    0.000    0.000 
#
# Total GULP energy -89104.311448 kJ/mol
# GULP energy per Si atom -5569.019465 kJ/mol
# Density = 1.990936 g / cm^3
# Si number density = 19.954780 Si / 1000 Ang^3
#
#
#
# Elastic Constant Matrix: (Units=GPa)
#
#
# Indices 1 2 3 4 5 6 
#
# 1 184.6098 71.7169 69.2584 0.0000 -15.4349 0.0000
# 2 71.7169 103.1624 43.2476 0.0000 -27.8164 0.0000
# 3 69.2584 43.2476 121.7354 0.0000 -21.2044 0.0000
# 4 0.0000 0.0000 0.0000 59.9988 0.0000 -24.3798
# 5 -15.4349 -27.8164 -21.2044 0.0000 49.3416 0.0000
# 6 0.0000 0.0000 0.0000 -24.3798 0.0000 45.9346
#
#
#
# Elastic Compliance Matrix: (Units=1/GPa)
#
#
# Indices 1 2 3 4 5 6 
#
# 1 0.008435 -0.004884 -0.003334 0.000000 -0.001547 0.000000
# 2 -0.004884 0.015520 -0.001597 0.000000 0.006536 0.000000
# 3 -0.003334 -0.001597 0.011177 0.000000 0.002860 0.000000
# 4 0.000000 0.000000 0.000000 0.021250 0.000000 0.011278
# 5 -0.001547 0.006536 0.002860 0.000000 0.024697 0.000000
# 6 0.000000 0.000000 0.000000 0.011278 0.000000 0.027756
#
#
# Mechanical properties :
#
#
# Convention : Reuss Voigt Hill
#
# Bulk Modulus (GPa) = 64.50010 86.43927 75.46968
# Shear Modulus (GPa) = 37.41653 46.07397 41.74525
#
# Velocity S-wave (km/s) = 4.33490 4.81033 4.57879
# Velocity P-wave (km/s) = 7.57948 8.61766 8.11519
#
# Compressibility (1/GPa) = 0.01550385
#
# Stress axis : x y z
#
# Youngs Moduli (GPa) = 118.54871 64.43207 89.47309
#
# Poissons Ratio (x) = 0.31467 0.29826
# Poissons Ratio (y) = 0.57897 0.14287
# Poissons Ratio (z) = 0.39519 0.10288
#
# Static dielectric constant tensor:
#      x y z
#    x 0.996330 0.000000 -0.707660 
#    y 0.000000 1.751300 0.000000 
#    z -0.707660 0.000000 0.903360 
# 
# From -- ./inp_files/30030.got.cif
#   From: 2010.05.17/outbox.cif.g08.bks.cpg/sg15_16_cif.got.tgz:30030.got - 2010.06.03 18:47:42.
