data_PCOD9286529
_publ_section_title
;
Structure prediction by ZEFSAII (Michael W. Deem and Ramdas Pophale) SiO2 
 PCOD9286529
Probable space group: C 2/C
;
_chemical_formula_sum "Si O2"
_cell_formula_units_Z 36
_cell_length_a 13.881481
_cell_length_b 11.879345
_cell_length_c 17.831625
_cell_angle_alpha 90.000000
_cell_angle_beta 30.996399
_cell_angle_gamma 90.000000
_cell_volume 1514.304200
_symmetry_space_group_name_H-M "C 2/C"
_symmetry_group_IT_number 15
_symmetry_cell_setting 'monoclinic'
loop_
_space_group_symop_operation_xyz
x,y,z
-x,y,1/2-z
-x,-y,-z
x,-y,1/2+z
1/2+x,1/2+y,z
1/2-x,1/2+y,1/2-z
1/2-x,1/2-y,-z
1/2+x,1/2-y,1/2+z
loop_
_atom_site_type_symbol
_atom_site_label
_atom_site_fract_x
_atom_site_fract_y
_atom_site_fract_z
Si Si1 0.396466 0.149885 0.899814
Si Si2 0.883448 0.216495 0.134084
Si Si3 0.979110 0.754059 0.409252
Si Si4 0.634994 0.501012 0.509318
Si Si5 0.500000 0.116197 0.250000
O O1 0.500000 0.155621 0.750000
O O2 0.533252 0.179423 0.875103
O O3 0.258379 0.043562 0.997056
O O4 0.250000 0.250000 0.000000
O O5 0.676540 0.201467 0.303258
O O6 0.857577 0.253996 0.065411
O O7 0.015361 0.104045 0.055466
O O8 0.927517 0.691049 0.367381
O O9 0.987557 0.889693 0.392247
O O10 0.820237 0.544488 0.339435
#
# Coordination Sequence:
#
# PCOD9286529 Si02
#       5
#     8   8   8   8   4
#     4  10  21  43  71 103 137 175 228 283 349 407
#     4  11  25  46  74 106 137 178 245 291 334 416
#     4  12  26  46  68 104 142 183 234 286 346 422
#     4  11  24  46  75  96 143 195 216 286 374 400
#     4  12  26  48  68 100 144 192 230 278 356 428
#
# _framework density 23.773294
#
# number of rings (size 3 to 8) (size 9 to 14) (size 15 to 20)
#    0.000    0.889    3.333    4.000    0.000    0.000 
#   12.000    2.222    0.000    0.000    0.000    0.000 
#    0.000    0.000    0.000    0.000    0.000    0.000 
#
# Total GULP energy -100259.155910 kJ/mol
# GULP energy per Si atom -5569.953106 kJ/mol
# Density = 2.371919 g / cm^3
# Si number density = 23.773294 Si / 1000 Ang^3
#
#
#
# Elastic Constant Matrix: (Units=GPa)
#
#
# Indices 1 2 3 4 5 6 
#
# 1 109.9458 42.5870 1.3239 0.0002 1.6921 -0.0001
# 2 42.5870 129.8358 33.1445 -0.0001 5.5910 0.0001
# 3 1.3239 33.1445 87.3575 -0.0004 -14.8493 0.0002
# 4 0.0002 -0.0001 -0.0004 47.4091 0.0002 -16.5161
# 5 1.6921 5.5910 -14.8493 0.0002 34.2763 -0.0001
# 6 -0.0001 0.0001 0.0002 -16.5161 -0.0001 36.1508
#
#
#
# Elastic Compliance Matrix: (Units=1/GPa)
#
#
# Indices 1 2 3 4 5 6 
#
# 1 0.010562 -0.003860 0.001428 0.000000 0.000727 0.000000
# 2 -0.003860 0.010238 -0.004401 0.000000 -0.003386 0.000000
# 3 0.001428 -0.004401 0.014255 0.000000 0.006823 0.000000
# 4 0.000000 0.000000 0.000000 0.025086 0.000000 0.011461
# 5 0.000727 -0.003386 0.006823 0.000000 0.032647 0.000000
# 6 0.000000 0.000000 0.000000 0.011461 0.000000 0.032898
#
#
# Mechanical properties :
#
#
# Convention : Reuss Voigt Hill
#
# Bulk Modulus (GPa) = 46.75491 53.47222 50.11357
# Shear Modulus (GPa) = 34.13375 40.23947 37.18661
#
# Velocity S-wave (km/s) = 3.79331 4.11863 3.95931
# Velocity P-wave (km/s) = 6.23661 6.72003 6.48283
#
# Compressibility (1/GPa) = 0.02138813
#
# Stress axis : x y z
#
# Youngs Moduli (GPa) = 94.67615 97.67837 70.14917
#
# Poissons Ratio (x) = 0.37708 -0.10019
# Poissons Ratio (y) = 0.36549 0.30875
# Poissons Ratio (z) = -0.13522 0.42992
#
# Static dielectric constant tensor:
#      x y z
#    x 1.980060 0.000000 -0.052090 
#    y 0.000000 2.073320 0.000000 
#    z -0.052090 0.000000 1.896010 
# 
# From -- ./inp_files/243575.got.cif
#   From: 2010.05.17/outbox.cif.g08.bks.cpg/sg15_122_cif.got.tgz:243575.got - 2010.06.03 18:47:42.
