data_PCOD9286208
_publ_section_title
;
Structure prediction by ZEFSAII (Michael W. Deem and Ramdas Pophale) SiO2 
 PCOD9286208
Probable space group: C 2/C
;
_chemical_formula_sum "Si O2"
_cell_formula_units_Z 64
_cell_length_a 27.631266
_cell_length_b 9.250757
_cell_length_c 18.056811
_cell_angle_alpha 90.000000
_cell_angle_beta 136.815235
_cell_angle_gamma 90.000000
_cell_volume 3158.634990
_symmetry_space_group_name_H-M "C 2/C"
_symmetry_group_IT_number 15
_symmetry_cell_setting 'monoclinic'
loop_
_space_group_symop_operation_xyz
x,y,z
-x,y,1/2-z
-x,-y,-z
x,-y,1/2+z
1/2+x,1/2+y,z
1/2-x,1/2+y,1/2-z
1/2-x,1/2-y,-z
1/2+x,1/2-y,1/2+z
loop_
_atom_site_type_symbol
_atom_site_label
_atom_site_fract_x
_atom_site_fract_y
_atom_site_fract_z
Si Si1 0.681630 0.582840 0.334356
Si Si2 0.760669 0.094113 0.474437
Si Si3 0.074693 0.402341 0.026707
Si Si4 0.605062 0.362971 0.477920
Si Si5 0.693848 0.099194 0.783934
Si Si6 0.828882 0.929998 0.330400
Si Si7 0.954986 0.719745 0.492486
Si Si8 0.981897 0.073183 0.311334
O O1 0.733289 0.526390 0.455333
O O2 0.688856 0.751589 0.323583
O O3 0.694319 0.490068 0.274372
O O4 0.601123 0.552295 0.270081
O O5 0.750000 0.250000 0.500000
O O6 0.835669 0.098602 0.515519
O O7 0.704903 0.036858 0.351131
O O8 0.127238 0.412789 0.155398
O O9 0.058913 0.564911 0.986090
O O10 0.104954 0.305711 0.995039
O O11 0.006046 0.317871 0.981017
O O12 0.628904 0.441734 0.580601
O O13 0.529648 0.428946 0.371484
O O14 0.762447 0.108084 0.807426
O O15 0.883164 0.797101 0.386703
O O16 0.992031 0.823454 0.593316
O O17 0.000000 0.133863 0.250000
#
# Coordination Sequence:
#
# PCOD9286208 Si02
#       8
#     8   8   8   8   8   8   8   8
#     4  12  23  43  69  95 129 181 210 277 323 387
#     4  11  27  43  62  95 138 170 217 267 334 396
#     4  11  22  40  65  94 132 162 218 277 324 375
#     4  10  21  43  63  95 125 171 217 270 314 395
#     4  11  25  43  66  97 132 172 223 267 327 392
#     4  10  23  38  69  95 124 171 223 262 325 384
#     4  10  23  40  64  97 128 166 213 275 323 385
#     4  11  21  43  67  92 130 170 224 257 322 403
#
# _framework density 20.261918000000001
#
# number of rings (size 3 to 8) (size 9 to 14) (size 15 to 20)
#    0.000    1.250    3.750    1.125    5.250    2.000 
#    2.250    0.625    0.000    0.000    0.000    0.000 
#    0.000    0.000    0.000    0.000    0.000    0.000 
#
# Total GULP energy -178859.536933 kJ/mol
# GULP energy per Si atom -5589.360529 kJ/mol
# Density = 2.021580 g / cm^3
# Si number density = 20.261918 Si / 1000 Ang^3
#
#
#
# Elastic Constant Matrix: (Units=GPa)
#
#
# Indices 1 2 3 4 5 6 
#
# 1 47.6447 14.5812 21.1432 0.0000 3.2488 0.0000
# 2 14.5812 65.7559 14.2330 0.0000 -5.6402 0.0000
# 3 21.1432 14.2330 45.3589 0.0000 -5.7132 0.0000
# 4 0.0000 0.0000 0.0000 8.1234 0.0000 5.5104
# 5 3.2488 -5.6402 -5.7132 0.0000 25.3150 0.0000
# 6 0.0000 0.0000 0.0000 5.5104 0.0000 29.7880
#
#
#
# Elastic Compliance Matrix: (Units=1/GPa)
#
#
# Indices 1 2 3 4 5 6 
#
# 1 0.028513 -0.004168 -0.012928 0.000000 -0.007506 0.000000
# 2 -0.004168 0.017087 -0.002956 0.000000 0.003675 0.000000
# 3 -0.012928 -0.002956 0.029978 0.000000 0.007766 0.000000
# 4 0.000000 0.000000 0.000000 0.140765 0.000000 -0.026040
# 5 -0.007506 0.003675 0.007766 0.000000 0.043037 0.000000
# 6 0.000000 0.000000 0.000000 -0.026040 0.000000 0.038388
#
#
# Mechanical properties :
#
#
# Convention : Reuss Voigt Hill
#
# Bulk Modulus (GPa) = 28.18980 28.74162 28.46571
# Shear Modulus (GPa) = 14.29807 19.89875 17.09841
#
# Velocity S-wave (km/s) = 2.65931 3.13721 2.90809
# Velocity P-wave (km/s) = 4.83448 5.22863 5.03541
#
# Compressibility (1/GPa) = 0.03547382
#
# Stress axis : x y z
#
# Youngs Moduli (GPa) = 35.07132 58.52378 33.35731
#
# Poissons Ratio (x) = 0.24394 0.43126
# Poissons Ratio (y) = 0.14618 0.09860
# Poissons Ratio (z) = 0.45342 0.17299
#
# Static dielectric constant tensor:
#      x y z
#    x 1.721960 0.000000 0.005780 
#    y 0.000000 1.715680 0.000000 
#    z 0.005780 0.000000 1.715860 
# 
# From -- ./inp_files/224644.got.cif
#   From: 2010.05.17/outbox.cif.g08.bks.cpg/sg15_113_cif.got.tgz:224644.got - 2010.06.03 18:47:42.
