data_PCOD9286750
_publ_section_title
;
Structure prediction by ZEFSAII (Michael W. Deem and Ramdas Pophale) SiO2 
 PCOD9286750
Probable space group: C 2/C
;
_chemical_formula_sum "Si O2"
_cell_formula_units_Z 56
_cell_length_a 18.849820
_cell_length_b 12.305614
_cell_length_c 13.231642
_cell_angle_alpha 90.000000
_cell_angle_beta 63.085747
_cell_angle_gamma 90.000000
_cell_volume 2736.753460
_symmetry_space_group_name_H-M "C 2/C"
_symmetry_group_IT_number 15
_symmetry_cell_setting 'monoclinic'
loop_
_space_group_symop_operation_xyz
x,y,z
-x,y,1/2-z
-x,-y,-z
x,-y,1/2+z
1/2+x,1/2+y,z
1/2-x,1/2+y,1/2-z
1/2-x,1/2-y,-z
1/2+x,1/2-y,1/2+z
loop_
_atom_site_type_symbol
_atom_site_label
_atom_site_fract_x
_atom_site_fract_y
_atom_site_fract_z
Si Si1 0.873431 0.252787 0.483922
Si Si2 0.196628 0.983516 0.442346
Si Si3 0.000000 0.589081 0.250000
Si Si4 0.404242 0.271287 0.194499
Si Si5 0.849704 0.509291 0.942614
Si Si6 0.063009 0.002199 0.368457
Si Si7 0.000000 0.827880 0.750000
Si Si8 0.728501 0.648299 0.583059
O O1 0.823586 0.140558 0.515025
O O2 0.908273 0.252678 0.573772
O O3 0.835641 0.370260 0.492847
O O4 0.938545 0.240915 0.354723
O O5 0.291962 0.999269 0.380824
O O6 0.148063 0.991104 0.871876
O O7 0.174452 0.065690 0.549334
O O8 0.942284 0.671232 0.227533
O O9 0.940115 0.518805 0.357722
O O10 0.446997 0.386894 0.179890
O O11 0.316424 0.302125 0.292332
O O12 0.808790 0.422083 0.044748
O O13 0.046163 0.097038 0.300989
O O14 0.000000 0.000000 0.500000
O O15 0.750000 0.750000 0.500000
#
# Coordination Sequence:
#
# PCOD9286750 Si02
#       8
#     8   8   4   8   8   8   4   8
#     4  11  23  44  67 101 143 180 224 286 350 411
#     4   9  21  42  68  99 136 177 232 275 341 400
#     4  12  24  44  74  94 140 181 227 288 338 424
#     4  11  23  39  69 101 133 179 232 280 348 400
#     4  10  24  44  69  96 139 180 226 282 345 407
#     4  11  22  40  68 105 137 180 229 285 342 405
#     4  12  22  40  68 106 142 179 227 282 346 414
#     4  10  21  44  67  99 134 175 234 280 335 407
#
# _framework density 20.462201
#
# number of rings (size 3 to 8) (size 9 to 14) (size 15 to 20)
#    0.857    0.571    4.286    2.143    2.000    0.571 
#   10.286    2.857    0.000    0.000    0.000    0.000 
#    0.000    0.000    0.000    0.000    0.000    0.000 
#
# Total GULP energy -155994.435682 kJ/mol
# GULP energy per Si atom -5571.229846 kJ/mol
# Density = 2.041563 g / cm^3
# Si number density = 20.462201 Si / 1000 Ang^3
#
#
#
# Elastic Constant Matrix: (Units=GPa)
#
#
# Indices 1 2 3 4 5 6 
#
# 1 51.3694 10.1241 7.7836 0.0000 -10.1034 0.0000
# 2 10.1241 98.0798 11.9138 0.0000 -3.7599 0.0000
# 3 7.7836 11.9138 88.2269 0.0000 -12.4189 0.0000
# 4 0.0000 0.0000 0.0000 18.9386 0.0000 -2.9524
# 5 -10.1034 -3.7599 -12.4189 0.0000 27.1053 0.0000
# 6 0.0000 0.0000 0.0000 -2.9524 0.0000 17.0406
#
#
#
# Elastic Compliance Matrix: (Units=1/GPa)
#
#
# Indices 1 2 3 4 5 6 
#
# 1 0.021385 -0.001851 -0.000589 0.000000 0.007445 0.000000
# 2 -0.001851 0.010544 -0.001231 0.000000 0.000209 0.000000
# 3 -0.000589 -0.001231 0.012290 0.000000 0.005241 0.000000
# 4 0.000000 0.000000 0.000000 0.054268 0.000000 0.009402
# 5 0.007445 0.000209 0.005241 0.000000 0.042098 0.000000
# 6 0.000000 0.000000 0.000000 0.009402 0.000000 0.060312
#
#
# Mechanical properties :
#
#
# Convention : Reuss Voigt Hill
#
# Bulk Modulus (GPa) = 27.11603 33.03545 30.07574
# Shear Modulus (GPa) = 22.67245 26.47390 24.57318
#
# Velocity S-wave (km/s) = 3.33230 3.60084 3.46917
# Velocity P-wave (km/s) = 5.29964 5.78513 5.54770
#
# Compressibility (1/GPa) = 0.03687856
#
# Stress axis : x y z
#
# Youngs Moduli (GPa) = 46.76175 94.83748 81.36484
#
# Poissons Ratio (x) = 0.17550 0.04791
# Poissons Ratio (y) = 0.08653 0.10018
# Poissons Ratio (z) = 0.02753 0.11677
#
# Static dielectric constant tensor:
#      x y z
#    x 1.798510 0.000000 -0.032210 
#    y 0.000000 1.742200 0.000000 
#    z -0.032210 0.000000 1.740850 
# 
# From -- ./inp_files/117518.got.cif
#   From: 2010.05.17/outbox.cif.g08.bks.cpg/sg15_59_cif.got.tgz:117518.got - 2010.06.03 18:47:42.
