data_PCOD9286911
_publ_section_title
;
Structure prediction by ZEFSAII (Michael W. Deem and Ramdas Pophale) SiO2 
 PCOD9286911
Probable space group: C 2/C
;
_chemical_formula_sum "Si O2"
_cell_formula_units_Z 56
_cell_length_a 24.241308
_cell_length_b 9.126693
_cell_length_c 10.560467
_cell_angle_alpha 90.000000
_cell_angle_beta 119.265023
_cell_angle_gamma 90.000000
_cell_volume 2038.225696
_symmetry_space_group_name_H-M "C 2/C"
_symmetry_group_IT_number 15
_symmetry_cell_setting 'monoclinic'
loop_
_space_group_symop_operation_xyz
x,y,z
-x,y,1/2-z
-x,-y,-z
x,-y,1/2+z
1/2+x,1/2+y,z
1/2-x,1/2+y,1/2-z
1/2-x,1/2-y,-z
1/2+x,1/2-y,1/2+z
loop_
_atom_site_type_symbol
_atom_site_label
_atom_site_fract_x
_atom_site_fract_y
_atom_site_fract_z
Si Si1 0.431272 0.026134 0.266845
Si Si2 0.272642 0.139677 0.382269
Si Si3 0.883078 0.852328 0.488704
Si Si4 0.388231 0.785676 0.521591
Si Si5 0.494788 0.241303 0.965252
Si Si6 0.199033 0.437522 0.280720
Si Si7 0.165426 0.054543 0.846059
O O1 0.435888 0.095361 0.134626
O O2 0.456124 0.147160 0.393366
O O3 0.463075 0.873690 0.335157
O O4 0.356702 0.996263 0.196334
O O5 0.344899 0.197903 0.462663
O O6 0.234979 0.291224 0.361476
O O7 0.262193 0.075228 0.228558
O O8 0.237152 0.010264 0.420949
O O9 0.957972 0.846648 0.553400
O O10 0.855250 0.918463 0.323656
O O11 0.869561 0.934024 0.605930
O O12 0.436713 0.697353 0.484569
O O13 0.338860 0.873391 0.383100
O O14 0.353213 0.696415 0.592133
#
# Coordination Sequence:
#
# PCOD9286911 Si02
#       7
#     8   8   8   8   8   8   8
#     4  10  21  44  76 110 143 199 263 319 390 469
#     4  12  25  51  75 111 161 205 266 322 403 476
#     4  12  26  51  77 118 157 214 264 335 399 486
#     4  11  24  45  78 111 154 206 262 334 413 466
#     4  10  22  45  76 112 151 202 263 328 395 482
#     4  11  25  46  76 111 152 206 259 334 390 480
#     4  12  27  48  78 112 161 205 265 326 405 479
#
# _framework density 27.474878
#
# number of rings (size 3 to 8) (size 9 to 14) (size 15 to 20)
#    0.000    0.857    4.286    1.714    0.000    3.429 
#    5.143    2.857    3.143    0.000    0.000    0.000 
#    0.000    0.000    0.000    0.000    0.000    0.000 
#
# Total GULP energy -156707.256701 kJ/mol
# GULP energy per Si atom -5596.687739 kJ/mol
# Density = 2.741234 g / cm^3
# Si number density = 27.474878 Si / 1000 Ang^3
#
#
#
# Elastic Constant Matrix: (Units=GPa)
#
#
# Indices 1 2 3 4 5 6 
#
# 1 159.4516 42.1303 24.1531 0.0000 -27.5279 0.0000
# 2 42.1303 113.2108 32.8945 0.0000 -5.4312 0.0000
# 3 24.1531 32.8945 95.8963 0.0000 -4.1379 0.0000
# 4 0.0000 0.0000 0.0000 54.6933 0.0000 -14.5885
# 5 -27.5279 -5.4312 -4.1379 0.0000 44.2492 0.0000
# 6 0.0000 0.0000 0.0000 -14.5885 0.0000 51.7562
#
#
#
# Elastic Compliance Matrix: (Units=1/GPa)
#
#
# Indices 1 2 3 4 5 6 
#
# 1 0.007830 -0.002423 -0.000947 0.000000 0.004485 0.000000
# 2 -0.002423 0.010596 -0.003046 0.000000 -0.000492 0.000000
# 3 -0.000947 -0.003046 0.011717 0.000000 0.000133 0.000000
# 4 0.000000 0.000000 0.000000 0.019770 0.000000 0.005573
# 5 0.004485 -0.000492 0.000133 0.000000 0.025341 0.000000
# 6 0.000000 0.000000 0.000000 0.005573 0.000000 0.020892
#
#
# Mechanical properties :
#
#
# Convention : Reuss Voigt Hill
#
# Bulk Modulus (GPa) = 57.76869 62.99049 60.37959
# Shear Modulus (GPa) = 43.57345 48.09844 45.83595
#
# Velocity S-wave (km/s) = 3.98670 4.18860 4.08890
# Velocity P-wave (km/s) = 6.50103 6.80946 6.65703
#
# Compressibility (1/GPa) = 0.01731042
#
# Stress axis : x y z
#
# Youngs Moduli (GPa) = 127.72161 94.37320 85.34651
#
# Poissons Ratio (x) = 0.22869 0.08084
# Poissons Ratio (y) = 0.30951 0.25993
# Poissons Ratio (z) = 0.12098 0.28742
#
# Static dielectric constant tensor:
#      x y z
#    x 2.124730 0.000000 -0.014470 
#    y 0.000000 2.118160 0.000000 
#    z -0.014470 0.000000 2.241180 
# 
# From -- ./inp_files/122005.got.cif
#   From: 2010.05.17/outbox.cif.g08.bks.cpg/sg15_62_cif.got.tgz:122005.got - 2010.06.03 18:47:42.
