data_PCOD9286104
_publ_section_title
;
Structure prediction by ZEFSAII (Michael W. Deem and Ramdas Pophale) SiO2 
 PCOD9286104
Probable space group: C 2/C
;
_chemical_formula_sum "Si O2"
_cell_formula_units_Z 56
_cell_length_a 7.756867
_cell_length_b 23.879573
_cell_length_c 17.733375
_cell_angle_alpha 90.000000
_cell_angle_beta 51.470810
_cell_angle_gamma 90.000000
_cell_volume 2569.641766
_symmetry_space_group_name_H-M "C 2/C"
_symmetry_group_IT_number 15
_symmetry_cell_setting 'monoclinic'
loop_
_space_group_symop_operation_xyz
x,y,z
-x,y,1/2-z
-x,-y,-z
x,-y,1/2+z
1/2+x,1/2+y,z
1/2-x,1/2+y,1/2-z
1/2-x,1/2-y,-z
1/2+x,1/2-y,1/2+z
loop_
_atom_site_type_symbol
_atom_site_label
_atom_site_fract_x
_atom_site_fract_y
_atom_site_fract_z
Si Si1 0.884857 0.400415 0.360761
Si Si2 0.611370 0.585775 0.468899
Si Si3 0.542915 0.208274 0.560188
Si Si4 0.116835 0.695891 0.058751
Si Si5 0.240743 0.412794 0.727176
Si Si6 0.319564 0.284865 0.735752
Si Si7 0.990773 0.488928 0.591004
O O1 0.625384 0.413624 0.428556
O O2 0.905015 0.343281 0.400695
O O3 0.006337 0.451642 0.368419
O O4 0.000000 0.393081 0.250000
O O5 0.732878 0.646387 0.448089
O O6 0.598821 0.568152 0.383988
O O7 0.779432 0.542103 0.457240
O O8 0.750000 0.250000 0.500000
O O9 0.491910 0.181218 0.492568
O O10 0.359207 0.246947 0.651384
O O11 0.925765 0.717411 0.165442
O O12 0.250000 0.750000 0.000000
O O13 0.335238 0.351537 0.718758
O O14 0.000000 0.409335 0.750000
O O15 0.190846 0.449766 0.815376
O O16 0.500000 0.268331 0.750000
O O17 0.000000 0.500000 0.500000
#
# Coordination Sequence:
#
# PCOD9286104 Si02
#       7
#     8   8   8   8   8   8   8
#     4  12  27  47  70 103 147 184 233 296 359 421
#     4  11  24  46  73 100 137 192 232 288 351 418
#     4  12  26  43  68 103 143 187 234 289 356 419
#     4  12  25  42  68 102 142 179 237 292 346 414
#     4  10  21  42  72 102 134 174 239 285 339 413
#     4  12  24  41  69 103 136 182 237 286 346 413
#     4  11  24  46  75 107 142 179 234 293 352 423
#
# _framework density 21.792919999999999
#
# number of rings (size 3 to 8) (size 9 to 14) (size 15 to 20)
#    0.000    0.571    4.286    5.571    2.000    0.000 
#    0.000    3.571    0.000    0.000    0.000    0.000 
#    0.000    0.000    0.000    0.000    0.000    0.000 
#
# Total GULP energy -156475.074043 kJ/mol
# GULP energy per Si atom -5588.395502 kJ/mol
# Density = 2.174332 g / cm^3
# Si number density = 21.792920 Si / 1000 Ang^3
#
#
#
# Elastic Constant Matrix: (Units=GPa)
#
#
# Indices 1 2 3 4 5 6 
#
# 1 26.1613 3.2830 29.7925 0.0000 10.4153 0.0000
# 2 3.2830 114.7893 25.8348 0.0000 11.5431 0.0000
# 3 29.7925 25.8348 153.7645 0.0000 2.6492 0.0000
# 4 0.0000 0.0000 0.0000 43.8465 0.0000 10.9920
# 5 10.4153 11.5431 2.6492 0.0000 28.9912 0.0000
# 6 0.0000 0.0000 0.0000 10.9920 0.0000 30.3703
#
#
#
# Elastic Compliance Matrix: (Units=1/GPa)
#
#
# Indices 1 2 3 4 5 6 
#
# 1 0.059828 0.003109 -0.011741 0.000000 -0.021659 0.000000
# 2 0.003109 0.009578 -0.002130 0.000000 -0.004736 0.000000
# 3 -0.011741 -0.002130 0.009063 0.000000 0.004238 0.000000
# 4 0.000000 0.000000 0.000000 0.025083 0.000000 -0.009078
# 5 -0.021659 -0.004736 0.004238 0.000000 0.043773 0.000000
# 6 0.000000 0.000000 0.000000 -0.009078 0.000000 0.036213
#
#
# Mechanical properties :
#
#
# Convention : Reuss Voigt Hill
#
# Bulk Modulus (GPa) = 17.56061 45.83730 31.69895
# Shear Modulus (GPa) = 22.31711 36.36193 29.33952
#
# Velocity S-wave (km/s) = 3.20355 4.08918 3.67316
# Velocity P-wave (km/s) = 4.66467 6.58589 5.70671
#
# Compressibility (1/GPa) = 0.05694563
#
# Stress axis : x y z
#
# Youngs Moduli (GPa) = 16.71460 104.40195 110.33593
#
# Poissons Ratio (x) = -0.32462 1.29547
# Poissons Ratio (y) = -0.05197 0.23503
# Poissons Ratio (z) = 0.19625 0.22239
#
# Static dielectric constant tensor:
#      x y z
#    x 1.891420 0.000000 0.089440 
#    y 0.000000 1.775860 0.000000 
#    z 0.089440 0.000000 1.769620 
# 
# From -- ./inp_files/193188.got.cif
#   From: 2010.05.17/outbox.cif.g08.bks.cpg/sg15_97_cif.got.tgz:193188.got - 2010.06.03 18:47:42.
