data_PCOD9286221
_publ_section_title
;
Structure prediction by ZEFSAII (Michael W. Deem and Ramdas Pophale) SiO2 
 PCOD9286221
Probable space group: C 2/C
;
_chemical_formula_sum "Si O2"
_cell_formula_units_Z 52
_cell_length_a 6.995533
_cell_length_b 13.114497
_cell_length_c 28.227745
_cell_angle_alpha 90.000000
_cell_angle_beta 114.285319
_cell_angle_gamma 90.000000
_cell_volume 2360.529578
_symmetry_space_group_name_H-M "C 2/C"
_symmetry_group_IT_number 15
_symmetry_cell_setting 'monoclinic'
loop_
_space_group_symop_operation_xyz
x,y,z
-x,y,1/2-z
-x,-y,-z
x,-y,1/2+z
1/2+x,1/2+y,z
1/2-x,1/2+y,1/2-z
1/2-x,1/2-y,-z
1/2+x,1/2-y,1/2+z
loop_
_atom_site_type_symbol
_atom_site_label
_atom_site_fract_x
_atom_site_fract_y
_atom_site_fract_z
Si Si1 0.529397 0.024475 0.886947
Si Si2 0.398684 0.619406 0.423441
Si Si3 0.500000 0.380762 0.250000
Si Si4 0.325639 0.955132 0.769953
Si Si5 0.250000 0.250000 0.000000
Si Si6 0.882015 0.410851 0.959613
Si Si7 0.869281 0.275495 0.339069
Si Si8 0.000000 0.218922 0.250000
O O1 0.767174 0.985706 0.914950
O O2 0.443880 0.998737 0.826853
O O3 0.387719 0.957174 0.907480
O O4 0.485168 0.144527 0.885859
O O5 0.310744 0.691132 0.455950
O O6 0.646049 0.602197 0.452997
O O7 0.359862 0.671163 0.367778
O O8 0.342121 0.457360 0.261331
O O9 0.638673 0.315568 0.300566
O O10 0.500000 0.932920 0.750000
O O11 0.200737 0.854086 0.769975
O O12 0.021956 0.310485 0.977344
O O13 0.000000 0.500000 0.000000
O O14 0.987839 0.272279 0.300134
#
# Coordination Sequence:
#
# PCOD9286221 Si02
#       8
#     8   8   4   8   4   8   8   4
#     4  10  24  40  63  97 130 177 220 272 344 404
#     4  11  24  45  70  99 136 175 223 287 341 415
#     4   9  24  40  61  94 128 176 225 276 338 399
#     4  10  21  43  64  88 131 176 227 279 331 398
#     4  10  24  44  74 104 126 172 222 278 346 412
#     4  11  24  45  68  99 134 173 219 281 347 410
#     4  11  24  44  64  99 137 179 228 285 338 411
#     4  11  24  38  63  96 128 180 233 278 336 399
#
# _framework density 22.028953999999999
#
# number of rings (size 3 to 8) (size 9 to 14) (size 15 to 20)
#    0.000    1.538    0.000    3.231    7.538    6.154 
#    0.000    1.538    0.000    0.000    0.000    0.000 
#    0.000    0.000    0.000    0.000    0.000    0.000 
#
# Total GULP energy -144777.733029 kJ/mol
# GULP energy per Si atom -5568.374347 kJ/mol
# Density = 2.197882 g / cm^3
# Si number density = 22.028954 Si / 1000 Ang^3
#
#
#
# Elastic Constant Matrix: (Units=GPa)
#
#
# Indices 1 2 3 4 5 6 
#
# 1 166.3353 27.8856 41.4499 0.0000 14.5483 0.0000
# 2 27.8856 52.1645 19.0470 0.0000 13.7369 0.0000
# 3 41.4499 19.0470 52.7032 0.0000 4.4864 0.0000
# 4 0.0000 0.0000 0.0000 15.5046 0.0000 17.0027
# 5 14.5483 13.7369 4.4864 0.0000 31.0495 0.0000
# 6 0.0000 0.0000 0.0000 17.0027 0.0000 20.8273
#
#
#
# Elastic Compliance Matrix: (Units=1/GPa)
#
#
# Indices 1 2 3 4 5 6 
#
# 1 0.007814 -0.001650 -0.005366 0.000000 -0.002156 0.000000
# 2 -0.001650 0.025043 -0.006961 0.000000 -0.009301 0.000000
# 3 -0.005366 -0.006961 0.025548 0.000000 0.001902 0.000000
# 4 0.000000 0.000000 0.000000 0.615726 0.000000 -0.502658
# 5 -0.002156 -0.009301 0.001902 0.000000 0.037057 0.000000
# 6 0.000000 0.000000 0.000000 -0.502658 0.000000 0.458367
#
#
# Mechanical properties :
#
#
# Convention : Reuss Voigt Hill
#
# Bulk Modulus (GPa) = 32.83934 49.77425 41.30679
# Shear Modulus (GPa) = 4.14024 25.66431 14.90227
#
# Velocity S-wave (km/s) = 1.37242 3.41695 2.60376
# Velocity P-wave (km/s) = 4.17745 6.18154 5.27553
#
# Compressibility (1/GPa) = 0.03045129
#
# Stress axis : x y z
#
# Youngs Moduli (GPa) = 127.96989 39.93096 39.14184
#
# Poissons Ratio (x) = 0.06590 0.21003
# Poissons Ratio (y) = 0.21119 0.27247
# Poissons Ratio (z) = 0.68667 0.27796
#
# Static dielectric constant tensor:
#      x y z
#    x 1.788170 0.000000 0.002210 
#    y 0.000000 1.875010 0.000000 
#    z 0.002210 0.000000 1.772870 
# 
# From -- ./inp_files/305465.got.cif
#   From: 2010.05.17/outbox.cif.g08.bks.cpg/sg15_153_cif.got.tgz:305465.got - 2010.06.03 18:47:42.
