data_PCOD9286017
_publ_section_title
;
Structure prediction by ZEFSAII (Michael W. Deem and Ramdas Pophale) SiO2 
 PCOD9286017
Probable space group: C 2/C
;
_chemical_formula_sum "Si O2"
_cell_formula_units_Z 56
_cell_length_a 17.639849
_cell_length_b 13.622431
_cell_length_c 18.822737
_cell_angle_alpha 90.000000
_cell_angle_beta 29.578042
_cell_angle_gamma 90.000000
_cell_volume 2232.620853
_symmetry_space_group_name_H-M "C 2/C"
_symmetry_group_IT_number 15
_symmetry_cell_setting 'monoclinic'
loop_
_space_group_symop_operation_xyz
x,y,z
-x,y,1/2-z
-x,-y,-z
x,-y,1/2+z
1/2+x,1/2+y,z
1/2-x,1/2+y,1/2-z
1/2-x,1/2-y,-z
1/2+x,1/2-y,1/2+z
loop_
_atom_site_type_symbol
_atom_site_label
_atom_site_fract_x
_atom_site_fract_y
_atom_site_fract_z
Si Si1 0.935692 0.174378 0.667435
Si Si2 0.199647 0.976777 0.665018
Si Si3 0.357265 0.689560 0.500827
Si Si4 0.500000 0.000000 0.500000
Si Si5 0.856886 0.302001 0.192465
Si Si6 0.500000 0.688464 0.250000
Si Si7 0.773670 0.302908 0.905881
Si Si8 0.168580 0.482917 0.094875
O O1 0.909719 0.064813 0.719490
O O2 0.798409 0.202151 0.726902
O O3 0.107598 0.195321 0.502744
O O4 0.902248 0.245509 0.759751
O O5 0.323625 0.963529 0.626047
O O6 0.106120 0.885006 0.710893
O O7 0.302155 0.005623 0.512290
O O8 0.215360 0.705664 0.669452
O O9 0.511116 0.718274 0.419221
O O10 0.399773 0.744275 0.391326
O O11 0.306696 0.583498 0.512150
O O12 0.567043 0.904885 0.395885
O O13 0.750000 0.250000 0.000000
O O14 0.822746 0.413962 0.873368
O O15 0.000000 0.442068 0.250000
#
# Coordination Sequence:
#
# PCOD9286017 Si02
#       8
#     8   8   8   4   8   4   8   8
#     4  11  23  42  66 104 148 198 255 316 387 471
#     4  10  21  42  69  99 145 194 249 316 390 459
#     4  11  26  50  77 110 154 206 264 330 404 479
#     4  10  24  46  74 104 148 208 260 328 394 472
#     4  11  26  51  74 108 156 212 266 326 402 486
#     4  10  24  46  76 112 150 204 262 336 396 490
#     4  12  23  39  71 109 150 197 254 328 392 465
#     4  11  23  44  71 114 152 193 265 322 399 474
#
# _framework density 25.082630000000002
#
# number of rings (size 3 to 8) (size 9 to 14) (size 15 to 20)
#    0.000    1.143    1.429    4.714    2.000    0.571 
#    6.429    8.571    0.000    0.000    0.000    0.000 
#    0.000    0.000    0.000    0.000    0.000    0.000 
#
# Total GULP energy -155868.662037 kJ/mol
# GULP energy per Si atom -5566.737930 kJ/mol
# Density = 2.502554 g / cm^3
# Si number density = 25.082630 Si / 1000 Ang^3
#
#
#
# Elastic Constant Matrix: (Units=GPa)
#
#
# Indices 1 2 3 4 5 6 
#
# 1 93.8299 51.7486 42.4684 0.0005 -22.1492 0.0001
# 2 51.7486 76.9796 25.5430 0.0002 -13.8018 0.0002
# 3 42.4684 25.5430 162.4342 0.0022 -19.8082 0.0004
# 4 0.0005 0.0002 0.0022 37.3591 0.0000 -11.2230
# 5 -22.1492 -13.8018 -19.8082 0.0000 53.9394 -0.0005
# 6 0.0001 0.0002 0.0004 -11.2230 -0.0005 27.1769
#
#
#
# Elastic Compliance Matrix: (Units=1/GPa)
#
#
# Indices 1 2 3 4 5 6 
#
# 1 0.018963 -0.011137 -0.002727 0.000000 0.003936 0.000000
# 2 -0.011137 0.020676 -0.000264 0.000000 0.000620 0.000000
# 3 -0.002727 -0.000264 0.007083 0.000000 0.001414 0.000000
# 4 0.000000 0.000000 0.000000 0.030558 0.000000 0.012619
# 5 0.003936 0.000620 0.001414 0.000000 0.020833 0.000000
# 6 0.000000 0.000000 0.000000 0.012619 0.000000 0.042007
#
#
# Mechanical properties :
#
#
# Convention : Reuss Voigt Hill
#
# Bulk Modulus (GPa) = 54.15113 63.64043 58.89578
# Shear Modulus (GPa) = 28.64790 37.92731 33.28760
#
# Velocity S-wave (km/s) = 3.38322 3.89278 3.64691
# Velocity P-wave (km/s) = 6.07434 6.75518 6.42378
#
# Compressibility (1/GPa) = 0.01846683
#
# Stress axis : x y z
#
# Youngs Moduli (GPa) = 52.73381 48.36475 141.18054
#
# Poissons Ratio (x) = 0.53866 0.38494
# Poissons Ratio (y) = 0.58732 0.03725
# Poissons Ratio (z) = 0.14378 0.01276
#
# Static dielectric constant tensor:
#      x y z
#    x 2.102050 0.000000 0.039630 
#    y 0.000000 1.975150 0.000000 
#    z 0.039630 0.000000 2.148110 
# 
# From -- ./inp_files/249257.got.cif
#   From: 2010.05.17/outbox.cif.g08.bks.cpg/sg15_125_cif.got.tgz:249257.got - 2010.06.03 18:47:42.
