data_PCOD9286922
_publ_section_title
;
Structure prediction by ZEFSAII (Michael W. Deem and Ramdas Pophale) SiO2 
 PCOD9286922
Probable space group: C 2/C
;
_chemical_formula_sum "Si O2"
_cell_formula_units_Z 52
_cell_length_a 22.535696
_cell_length_b 8.370262
_cell_length_c 21.853909
_cell_angle_alpha 90.000000
_cell_angle_beta 146.773964
_cell_angle_gamma 90.000000
_cell_volume 2258.784826
_symmetry_space_group_name_H-M "C 2/C"
_symmetry_group_IT_number 15
_symmetry_cell_setting 'monoclinic'
loop_
_space_group_symop_operation_xyz
x,y,z
-x,y,1/2-z
-x,-y,-z
x,-y,1/2+z
1/2+x,1/2+y,z
1/2-x,1/2+y,1/2-z
1/2-x,1/2-y,-z
1/2+x,1/2-y,1/2+z
loop_
_atom_site_type_symbol
_atom_site_label
_atom_site_fract_x
_atom_site_fract_y
_atom_site_fract_z
Si Si1 0.854180 0.854282 0.914172
Si Si2 0.826950 0.476096 0.534648
Si Si3 0.049969 0.099927 0.180371
Si Si4 0.917561 0.192046 0.944357
Si Si5 0.210379 0.504606 0.641552
Si Si6 0.131175 0.120105 0.934828
Si Si7 0.000000 0.308598 0.250000
O O1 0.804760 0.687021 0.847866
O O2 0.984184 0.826194 0.019001
O O3 0.817836 0.871190 0.953067
O O4 0.841315 0.033575 0.876128
O O5 0.828865 0.490695 0.463324
O O6 0.866785 0.298951 0.587375
O O7 0.705153 0.487869 0.455417
O O8 0.906042 0.595441 0.635502
O O9 0.165905 0.050655 0.255520
O O10 0.977308 0.173378 0.062427
O O11 0.056956 0.217015 0.243420
O O12 0.985941 0.950776 0.154208
O O13 0.859350 0.362333 0.888042
#
# Coordination Sequence:
#
# PCOD9286922 Si02
#       7
#     8   8   8   8   8   8   4
#     4   9  21  41  68  86 124 168 206 262 311 363
#     4  10  22  39  65  88 123 162 212 251 322 377
#     4  11  24  38  61  93 127 160 207 257 309 374
#     4  10  21  45  63  93 128 166 212 259 311 371
#     4  11  22  42  64  93 124 171 207 257 316 370
#     4   9  21  42  61  89 123 167 201 265 312 371
#     4  12  24  36  60  96 118 166 200 262 308 388
#
# _framework density 23.021227
#
# number of rings (size 3 to 8) (size 9 to 14) (size 15 to 20)
#    0.000    1.846    1.538    1.385    4.308    5.538 
#    8.308    0.000    0.000    0.000    0.000    0.000 
#    0.000    0.000    0.000    0.000    0.000    0.000 
#
# Total GULP energy -145306.558500 kJ/mol
# GULP energy per Si atom -5588.713788 kJ/mol
# Density = 2.296883 g / cm^3
# Si number density = 23.021227 Si / 1000 Ang^3
#
#
#
# Elastic Constant Matrix: (Units=GPa)
#
#
# Indices 1 2 3 4 5 6 
#
# 1 79.9684 15.3583 0.5410 0.0000 -5.3748 0.0000
# 2 15.3583 103.3428 32.4532 0.0000 -6.9596 0.0000
# 3 0.5410 32.4532 60.3553 0.0000 -9.0024 0.0000
# 4 0.0000 0.0000 0.0000 57.3364 0.0000 16.3660
# 5 -5.3748 -6.9596 -9.0024 0.0000 35.7105 0.0000
# 6 0.0000 0.0000 0.0000 16.3660 0.0000 44.3121
#
#
#
# Elastic Compliance Matrix: (Units=1/GPa)
#
#
# Indices 1 2 3 4 5 6 
#
# 1 0.013052 -0.002243 0.001369 0.000000 0.001872 0.000000
# 2 -0.002243 0.012046 -0.006398 0.000000 0.000397 0.000000
# 3 0.001369 -0.006398 0.020616 0.000000 0.004156 0.000000
# 4 0.000000 0.000000 0.000000 0.019496 0.000000 -0.007201
# 5 0.001872 0.000397 0.004156 0.000000 0.029410 0.000000
# 6 0.000000 0.000000 0.000000 -0.007201 0.000000 0.025227
#
#
# Mechanical properties :
#
#
# Convention : Reuss Voigt Hill
#
# Bulk Modulus (GPa) = 32.08285 37.81906 34.95095
# Shear Modulus (GPa) = 34.53461 40.49275 37.51368
#
# Velocity S-wave (km/s) = 3.87734 4.19851 4.04112
# Velocity P-wave (km/s) = 5.83194 6.32194 6.08187
#
# Compressibility (1/GPa) = 0.03116930
#
# Stress axis : x y z
#
# Youngs Moduli (GPa) = 76.61434 83.01655 48.50529
#
# Poissons Ratio (x) = 0.18625 -0.06638
# Poissons Ratio (y) = 0.17188 0.31032
# Poissons Ratio (z) = -0.10485 0.53112
#
# Static dielectric constant tensor:
#      x y z
#    x 1.853970 0.000000 -0.018890 
#    y 0.000000 1.887530 0.000000 
#    z -0.018890 0.000000 1.875980 
# 
# From -- ./inp_files/166235.got.cif
#   From: 2010.05.17/outbox.cif.g08.bks.cpg/sg15_84_cif.got.tgz:166235.got - 2010.06.03 18:47:42.
