data_PCOD9286006
_publ_section_title
;
Structure prediction by ZEFSAII (Michael W. Deem and Ramdas Pophale) SiO2 
 PCOD9286006
Probable space group: C 2/C
;
_chemical_formula_sum "Si O2"
_cell_formula_units_Z 44
_cell_length_a 29.579057
_cell_length_b 15.718146
_cell_length_c 15.451841
_cell_angle_alpha 90.000000
_cell_angle_beta 162.794632
_cell_angle_gamma 90.000000
_cell_volume 2125.007382
_symmetry_space_group_name_H-M "C 2/C"
_symmetry_group_IT_number 15
_symmetry_cell_setting 'monoclinic'
loop_
_space_group_symop_operation_xyz
x,y,z
-x,y,1/2-z
-x,-y,-z
x,-y,1/2+z
1/2+x,1/2+y,z
1/2-x,1/2+y,1/2-z
1/2-x,1/2-y,-z
1/2+x,1/2-y,1/2+z
loop_
_atom_site_type_symbol
_atom_site_label
_atom_site_fract_x
_atom_site_fract_y
_atom_site_fract_z
Si Si1 0.706459 0.921972 0.412050
Si Si2 0.491664 0.634347 0.135663
Si Si3 0.731995 0.757841 0.091704
Si Si4 0.119098 0.378723 0.751802
Si Si5 0.585953 0.462726 0.568880
Si Si6 0.500000 0.651292 0.750000
O O1 0.772672 0.912577 0.630255
O O2 0.841688 0.889277 0.596624
O O3 0.675025 0.023831 0.349497
O O4 0.548609 0.877932 0.097091
O O5 0.500000 0.658264 0.250000
O O6 0.398935 0.704801 0.914678
O O7 0.387219 0.549825 0.933514
O O8 0.762204 0.680395 0.081656
O O9 0.627512 0.833026 0.860543
O O10 0.646386 0.713011 0.014015
O O11 0.500000 0.500000 0.500000
O O12 0.509037 0.404846 0.354205
#
# Coordination Sequence:
#
# PCOD9286006 Si02
#       6
#     8   8   8   8   8   4
#     4  10  22  43  71  94 130 181 229 273 329 415
#     4  11  23  39  67  98 133 172 229 273 335 404
#     4  11  25  41  63  99 138 172 221 283 354 398
#     4  10  23  43  67  97 132 179 223 279 346 405
#     4  10  21  42  69  98 126 184 231 274 331 412
#     4  12  26  42  70 100 144 176 226 292 348 406
#
# _framework density 20.70581
#
# number of rings (size 3 to 8) (size 9 to 14) (size 15 to 20)
#    0.000    1.455    2.727    2.182   10.182    2.182 
#    0.000    0.000    0.000    0.000    0.000    0.000 
#    0.000    0.000    0.000    0.000    0.000    0.000 
#
# Total GULP energy -122475.545976 kJ/mol
# GULP energy per Si atom -5567.070272 kJ/mol
# Density = 2.065868 g / cm^3
# Si number density = 20.705810 Si / 1000 Ang^3
#
#
#
# Elastic Constant Matrix: (Units=GPa)
#
#
# Indices 1 2 3 4 5 6 
#
# 1 49.0822 35.7170 43.7131 0.0000 -4.0627 0.0000
# 2 35.7170 93.5038 32.7778 0.0000 0.0373 0.0000
# 3 43.7131 32.7778 122.2783 0.0000 -19.4460 0.0000
# 4 0.0000 0.0000 0.0000 24.6119 0.0000 1.6201
# 5 -4.0627 0.0373 -19.4460 0.0000 28.0436 0.0000
# 6 0.0000 0.0000 0.0000 1.6201 0.0000 16.5512
#
#
#
# Elastic Compliance Matrix: (Units=1/GPa)
#
#
# Indices 1 2 3 4 5 6 
#
# 1 0.037627 -0.010526 -0.010970 0.000000 -0.002142 0.000000
# 2 -0.010526 0.014905 -0.000537 0.000000 -0.001917 0.000000
# 3 -0.010970 -0.000537 0.013477 0.000000 0.007757 0.000000
# 4 0.000000 0.000000 0.000000 0.040894 0.000000 -0.004003
# 5 -0.002142 -0.001917 0.007757 0.000000 0.040730 0.000000
# 6 0.000000 0.000000 0.000000 -0.004003 0.000000 0.060811
#
#
# Mechanical properties :
#
#
# Convention : Reuss Voigt Hill
#
# Bulk Modulus (GPa) = 45.57571 54.36446 49.97008
# Shear Modulus (GPa) = 19.24373 24.01842 21.63107
#
# Velocity S-wave (km/s) = 3.05189 3.40955 3.23567
# Velocity P-wave (km/s) = 5.87176 6.46627 6.17618
#
# Compressibility (1/GPa) = 0.02194151
#
# Stress axis : x y z
#
# Youngs Moduli (GPa) = 26.57676 67.09262 74.19868
#
# Poissons Ratio (x) = 0.70625 0.81397
# Poissons Ratio (y) = 0.27976 0.03986
# Poissons Ratio (z) = 0.29155 0.03604
#
# Static dielectric constant tensor:
#      x y z
#    x 1.802910 0.000000 -0.020960 
#    y 0.000000 1.757250 0.000000 
#    z -0.020960 0.000000 1.793020 
# 
# From -- ./inp_files/182372.got.cif
#   From: 2010.05.17/outbox.cif.g08.bks.cpg/sg15_92_cif.got.tgz:182372.got - 2010.06.03 18:47:42.
