data_PCOD9286961
_publ_section_title
;
Structure prediction by ZEFSAII (Michael W. Deem and Ramdas Pophale) SiO2 
 PCOD9286961
Probable space group: C 2/C
;
_chemical_formula_sum "Si O2"
_cell_formula_units_Z 56
_cell_length_a 12.178655
_cell_length_b 15.633601
_cell_length_c 15.076038
_cell_angle_alpha 90.000000
_cell_angle_beta 50.675869
_cell_angle_gamma 90.000000
_cell_volume 2220.481163
_symmetry_space_group_name_H-M "C 2/C"
_symmetry_group_IT_number 15
_symmetry_cell_setting 'monoclinic'
loop_
_space_group_symop_operation_xyz
x,y,z
-x,y,1/2-z
-x,-y,-z
x,-y,1/2+z
1/2+x,1/2+y,z
1/2-x,1/2+y,1/2-z
1/2-x,1/2-y,-z
1/2+x,1/2-y,1/2+z
loop_
_atom_site_type_symbol
_atom_site_label
_atom_site_fract_x
_atom_site_fract_y
_atom_site_fract_z
Si Si1 0.934275 0.401499 0.637833
Si Si2 0.347187 0.333166 0.444975
Si Si3 0.620488 0.781483 0.242904
Si Si4 0.578090 0.080864 0.560649
Si Si5 0.152397 0.111828 0.973977
Si Si6 0.658694 0.433825 0.876106
Si Si7 0.866654 0.777192 0.239342
O O1 0.948973 0.387450 0.525446
O O2 0.775718 0.430082 0.740775
O O3 0.945953 0.315903 0.690941
O O4 0.033739 0.483081 0.602654
O O5 0.250000 0.250000 0.500000
O O6 0.296519 0.392143 0.551753
O O7 0.347732 0.336292 0.336569
O O8 0.515682 0.327108 0.378080
O O9 0.500000 0.729993 0.250000
O O10 0.523888 0.860507 0.327059
O O11 0.754509 0.809371 0.112534
O O12 0.711666 0.755615 0.281891
O O13 0.744121 0.088031 0.497546
O O14 0.152407 0.033636 0.904123
O O15 0.986589 0.111457 0.081526
#
# Coordination Sequence:
#
# PCOD9286961 Si02
#       7
#     8   8   8   8   8   8   8
#     4  11  24  41  67 100 137 176 235 292 343 418
#     4  11  24  40  63  97 138 177 224 286 347 415
#     4  10  21  45  68  93 134 185 230 283 346 418
#     4  10  24  42  68  98 132 185 235 289 345 423
#     4  10  22  42  67  93 130 178 234 285 354 407
#     4  11  22  42  66  96 136 179 228 293 345 421
#     4  11  25  42  65 103 137 180 231 287 359 412
#
# _framework density 25.219757999999999
#
# number of rings (size 3 to 8) (size 9 to 14) (size 15 to 20)
#    0.000    1.429    4.286    0.000    4.000    1.714 
#    2.571    1.429    0.000    0.000    0.000    0.000 
#    0.000    0.000    0.000    0.000    0.000    0.000 
#
# Total GULP energy -155925.672662 kJ/mol
# GULP energy per Si atom -5568.774024 kJ/mol
# Density = 2.516236 g / cm^3
# Si number density = 25.219758 Si / 1000 Ang^3
#
#
#
# Elastic Constant Matrix: (Units=GPa)
#
#
# Indices 1 2 3 4 5 6 
#
# 1 159.4547 25.1312 29.5656 0.0000 -20.9263 0.0000
# 2 25.1312 56.7275 10.7474 0.0000 16.3998 0.0000
# 3 29.5656 10.7474 112.1911 0.0000 -12.3858 0.0000
# 4 0.0000 0.0000 0.0000 18.6652 0.0000 -7.7191
# 5 -20.9263 16.3998 -12.3858 0.0000 33.8879 0.0000
# 6 0.0000 0.0000 0.0000 -7.7191 0.0000 26.3646
#
#
#
# Elastic Compliance Matrix: (Units=1/GPa)
#
#
# Indices 1 2 3 4 5 6 
#
# 1 0.008326 -0.005741 -0.000802 0.000000 0.007627 0.000000
# 2 -0.005741 0.025610 -0.002813 0.000000 -0.016967 0.000000
# 3 -0.000802 -0.002813 0.009889 0.000000 0.004481 0.000000
# 4 0.000000 0.000000 0.000000 0.060956 0.000000 0.017847
# 5 0.007627 -0.016967 0.004481 0.000000 0.044067 0.000000
# 6 0.000000 0.000000 0.000000 0.017847 0.000000 0.043155
#
#
# Mechanical properties :
#
#
# Convention : Reuss Voigt Hill
#
# Bulk Modulus (GPa) = 39.82360 51.02909 45.42635
# Shear Modulus (GPa) = 22.82187 33.31213 28.06700
#
# Velocity S-wave (km/s) = 3.01145 3.63833 3.33963
# Velocity P-wave (km/s) = 5.28363 6.15854 5.73778
#
# Compressibility (1/GPa) = 0.02511074
#
# Stress axis : x y z
#
# Youngs Moduli (GPa) = 120.10737 39.04730 101.12330
#
# Poissons Ratio (x) = 0.22419 0.08111
# Poissons Ratio (y) = 0.68958 0.28451
# Poissons Ratio (z) = 0.09634 0.10986
#
# Static dielectric constant tensor:
#      x y z
#    x 2.207070 0.000000 0.230420 
#    y 0.000000 2.094120 0.000000 
#    z 0.230420 0.000000 2.308150 
# 
# From -- ./inp_files/145983.got.cif
#   From: 2010.05.17/outbox.cif.g08.bks.cpg/sg15_73_cif.got.tgz:145983.got - 2010.06.03 18:47:42.
