data_PCOD9286055
_publ_section_title
;
Structure prediction by ZEFSAII (Michael W. Deem and Ramdas Pophale) SiO2 
 PCOD9286055
Probable space group: C 2/C
;
_chemical_formula_sum "Si O2"
_cell_formula_units_Z 60
_cell_length_a 15.041269
_cell_length_b 12.253912
_cell_length_c 16.909437
_cell_angle_alpha 90.000000
_cell_angle_beta 107.399341
_cell_angle_gamma 90.000000
_cell_volume 2974.046234
_symmetry_space_group_name_H-M "C 2/C"
_symmetry_group_IT_number 15
_symmetry_cell_setting 'monoclinic'
loop_
_space_group_symop_operation_xyz
x,y,z
-x,y,1/2-z
-x,-y,-z
x,-y,1/2+z
1/2+x,1/2+y,z
1/2-x,1/2+y,1/2-z
1/2-x,1/2-y,-z
1/2+x,1/2-y,1/2+z
loop_
_atom_site_type_symbol
_atom_site_label
_atom_site_fract_x
_atom_site_fract_y
_atom_site_fract_z
Si Si1 0.327511 0.619600 0.170250
Si Si2 0.000000 0.480602 0.750000
Si Si3 0.164678 0.168232 0.987247
Si Si4 0.108021 0.336169 0.372844
Si Si5 0.635547 0.816381 0.696559
Si Si6 0.805335 0.073542 0.977569
Si Si7 0.607520 0.617044 0.792569
Si Si8 0.035326 0.766319 0.015075
O O1 0.388743 0.729877 0.183307
O O2 0.232539 0.637965 0.191377
O O3 0.373829 0.510452 0.216687
O O4 0.303444 0.597576 0.071234
O O5 0.050912 0.562035 0.824488
O O6 0.078771 0.402206 0.734263
O O7 0.131254 0.140326 0.889693
O O8 0.074602 0.213749 0.008777
O O9 0.250000 0.250000 0.000000
O O10 0.197542 0.055537 0.035259
O O11 0.216279 0.368516 0.415409
O O12 0.064771 0.299951 0.445097
O O13 0.656907 0.704264 0.749194
O O14 0.570647 0.791900 0.603691
O O15 0.902695 0.123204 0.972881
O O16 0.500000 0.640051 0.750000
#
# Coordination Sequence:
#
# PCOD9286055 Si02
#       8
#     8   4   8   8   8   8   8   8
#     4  10  23  43  68  97 128 174 230 274 336 413
#     4  12  30  40  62 102 144 174 228 284 344 412
#     4  11  25  42  66 103 137 177 234 286 336 409
#     4  11  24  46  67 101 137 179 229 286 341 407
#     4  12  23  45  67  97 134 183 222 277 355 404
#     4  10  21  42  70  97 130 174 231 279 335 410
#     4  11  24  44  67  96 141 178 223 284 345 404
#     4  11  21  45  72  95 131 183 229 277 345 409
#
# _framework density 20.174536
#
# number of rings (size 3 to 8) (size 9 to 14) (size 15 to 20)
#    0.000    1.067    4.667    1.200    6.533    2.667 
#    0.000    0.000    0.000    0.000    0.000    0.000 
#    0.000    0.000    0.000    0.000    0.000    0.000 
#
# Total GULP energy -167708.124901 kJ/mol
# GULP energy per Si atom -5590.270830 kJ/mol
# Density = 2.012862 g / cm^3
# Si number density = 20.174536 Si / 1000 Ang^3
#
#
#
# Elastic Constant Matrix: (Units=GPa)
#
#
# Indices 1 2 3 4 5 6 
#
# 1 112.4868 42.7902 17.7441 0.0000 -3.5704 0.0000
# 2 42.7902 131.9805 35.5038 0.0000 -4.5930 0.0000
# 3 17.7441 35.5038 31.7054 0.0000 -4.4883 0.0000
# 4 0.0000 0.0000 0.0000-5284.9160 0.0000 5586.1656
# 5 -3.5704 -4.5930 -4.4883 0.0000 24.3864 0.0000
# 6 0.0000 0.0000 0.0000 5586.1656 0.0000-5839.9834
#
#
#
# Elastic Compliance Matrix: (Units=1/GPa)
#
#
# Indices 1 2 3 4 5 6 
#
# 1 0.010330 -0.002570 -0.002832 0.000000 0.000507 0.000000
# 2 -0.002570 0.011483 -0.011467 0.000000 -0.000324 0.000000
# 3 -0.002832 -0.011467 0.046821 0.000000 0.006043 0.000000
# 4 0.000000 0.000000 0.000000 0.017105 0.000000 0.016361
# 5 0.000507 -0.000324 0.006043 0.000000 0.042132 0.000000
# 6 0.000000 0.000000 0.000000 0.016361 0.000000 0.015479
#
#
# Mechanical properties :
#
#
# Convention : Reuss Voigt Hill
#
# Bulk Modulus (GPa) = 28.65502 52.02767 40.34135
# Shear Modulus (GPa) = 26.49418 -2208.09363 -1090.79972
#
# Velocity S-wave (km/s) = 3.62781 -33.11905 -23.27778
# Velocity P-wave (km/s) = 5.63759 37.90317 26.50347
#
# Compressibility (1/GPa) = 0.03489789
#
# Stress axis : x y z
#
# Youngs Moduli (GPa) = 96.80256 87.08190 21.35778
#
# Poissons Ratio (x) = 0.22378 0.06048
# Poissons Ratio (y) = 0.24876 0.24491
# Poissons Ratio (z) = 0.27414 0.99856
#
# Static dielectric constant tensor:
#      x y z
#    x 1.675580 0.000000 -0.000030 
#    y 0.000000 1.737670 0.000000 
#    z -0.000030 0.000000 1.703020 
# 
# From -- ./inp_files/204512.got.cif
#   From: 2010.05.17/outbox.cif.g08.bks.cpg/sg15_103_cif.got.tgz:204512.got - 2010.06.03 18:47:42.
