data_PCOD9286304
_publ_section_title
;
Structure prediction by ZEFSAII (Michael W. Deem and Ramdas Pophale) SiO2 
 PCOD9286304
Probable space group: C 2/C
;
_chemical_formula_sum "Si O2"
_cell_formula_units_Z 52
_cell_length_a 21.797376
_cell_length_b 10.008440
_cell_length_c 9.653928
_cell_angle_alpha 90.000000
_cell_angle_beta 100.010286
_cell_angle_gamma 90.000000
_cell_volume 2074.017255
_symmetry_space_group_name_H-M "C 2/C"
_symmetry_group_IT_number 15
_symmetry_cell_setting 'monoclinic'
loop_
_space_group_symop_operation_xyz
x,y,z
-x,y,1/2-z
-x,-y,-z
x,-y,1/2+z
1/2+x,1/2+y,z
1/2-x,1/2+y,1/2-z
1/2-x,1/2-y,-z
1/2+x,1/2-y,1/2+z
loop_
_atom_site_type_symbol
_atom_site_label
_atom_site_fract_x
_atom_site_fract_y
_atom_site_fract_z
Si Si1 0.721178 0.621944 0.297340
Si Si2 0.000000 0.750534 0.750000
Si Si3 0.672611 0.838163 0.441215
Si Si4 0.618096 0.402545 0.324527
Si Si5 0.421915 0.615343 0.987097
Si Si6 0.842533 0.390704 0.678393
Si Si7 0.956427 0.494448 0.849348
O O1 0.689707 0.768196 0.299890
O O2 0.765344 0.625193 0.449828
O O3 0.672111 0.501998 0.287471
O O4 0.770566 0.605331 0.194192
O O5 0.024211 0.830518 0.891042
O O6 0.050416 0.646276 0.709074
O O7 0.634734 0.718298 0.500446
O O8 0.642153 0.983063 0.410452
O O9 0.593629 0.472705 0.452497
O O10 0.642784 0.256064 0.368265
O O11 0.571116 0.391576 0.174911
O O12 0.891061 0.420106 0.822992
O O13 0.000000 0.424912 0.750000
O O14 0.000000 0.500000 0.000000
#
# Coordination Sequence:
#
# PCOD9286304 Si02
#       7
#     8   4   8   8   8   8   8
#     4  10  23  39  68  94 140 187 216 277 344 415
#     4  10  22  46  76  90 132 192 224 280 360 398
#     4  10  21  43  66  92 141 184 225 274 352 404
#     4  11  26  44  66 102 141 173 229 282 342 415
#     4  11  23  50  67  98 138 185 227 287 344 414
#     4  12  22  40  69 101 128 181 228 290 329 415
#     4  10  23  42  67 100 130 175 229 289 342 403
#
# _framework density 25.072116999999999
#
# number of rings (size 3 to 8) (size 9 to 14) (size 15 to 20)
#    0.462    0.923    3.077    1.846    6.462    1.231 
#    9.692    0.000    0.000    0.000    0.000    0.000 
#    0.000    0.000    0.000    0.000    0.000    0.000 
#
# Total GULP energy -145284.952870 kJ/mol
# GULP energy per Si atom -5587.882803 kJ/mol
# Density = 2.501505 g / cm^3
# Si number density = 25.072117 Si / 1000 Ang^3
#
#
#
# Elastic Constant Matrix: (Units=GPa)
#
#
# Indices 1 2 3 4 5 6 
#
# 1 45.2140 15.2649 1.4980 0.0000 9.6506 0.0000
# 2 15.2649 177.0280 26.4321 0.0000 4.7545 0.0000
# 3 1.4980 26.4321 82.8443 0.0000 -0.4752 0.0000
# 4 0.0000 0.0000 0.0000 36.0090 0.0000 -3.6671
# 5 9.6506 4.7545 -0.4752 0.0000 33.4185 0.0000
# 6 0.0000 0.0000 0.0000 -3.6671 0.0000 27.7503
#
#
#
# Elastic Compliance Matrix: (Units=1/GPa)
#
#
# Indices 1 2 3 4 5 6 
#
# 1 0.024195 -0.001927 0.000139 0.000000 -0.006711 0.000000
# 2 -0.001927 0.006110 -0.001917 0.000000 -0.000340 0.000000
# 3 0.000139 -0.001917 0.012682 0.000000 0.000413 0.000000
# 4 0.000000 0.000000 0.000000 0.028150 0.000000 0.003720
# 5 -0.006711 -0.000340 0.000413 0.000000 0.031916 0.000000
# 6 0.000000 0.000000 0.000000 0.003720 0.000000 0.036527
#
#
# Mechanical properties :
#
#
# Convention : Reuss Voigt Hill
#
# Bulk Modulus (GPa) = 28.10687 43.49737 35.80212
# Shear Modulus (GPa) = 31.47635 36.89499 34.18567
#
# Velocity S-wave (km/s) = 3.54705 3.84025 3.69656
# Velocity P-wave (km/s) = 5.29246 6.08686 5.70351
#
# Compressibility (1/GPa) = 0.03557849
#
# Stress axis : x y z
#
# Youngs Moduli (GPa) = 41.33021 163.65867 78.85058
#
# Poissons Ratio (x) = 0.31534 -0.01094
# Poissons Ratio (y) = 0.07964 0.15113
# Poissons Ratio (z) = -0.00574 0.31367
#
# Static dielectric constant tensor:
#      x y z
#    x 2.058080 0.000000 0.002890 
#    y 0.000000 1.975660 0.000000 
#    z 0.002890 0.000000 2.038430 
# 
# From -- ./inp_files/121594.got.cif
#   From: 2010.05.17/outbox.cif.g08.bks.cpg/sg15_61_cif.got.tgz:121594.got - 2010.06.03 18:47:42.
