data_PCOD9286285
_publ_section_title
;
Structure prediction by ZEFSAII (Michael W. Deem and Ramdas Pophale) SiO2 
 PCOD9286285
Probable space group: C 2/C
;
_chemical_formula_sum "Si O2"
_cell_formula_units_Z 52
_cell_length_a 17.544820
_cell_length_b 5.134639
_cell_length_c 26.532965
_cell_angle_alpha 90.000000
_cell_angle_beta 101.852167
_cell_angle_gamma 90.000000
_cell_volume 2339.298709
_symmetry_space_group_name_H-M "C 2/C"
_symmetry_group_IT_number 15
_symmetry_cell_setting 'monoclinic'
loop_
_space_group_symop_operation_xyz
x,y,z
-x,y,1/2-z
-x,-y,-z
x,-y,1/2+z
1/2+x,1/2+y,z
1/2-x,1/2+y,1/2-z
1/2-x,1/2-y,-z
1/2+x,1/2-y,1/2+z
loop_
_atom_site_type_symbol
_atom_site_label
_atom_site_fract_x
_atom_site_fract_y
_atom_site_fract_z
Si Si1 0.027355 0.018036 0.339861
Si Si2 0.992197 0.712731 0.063163
Si Si3 0.586859 0.280499 0.549732
Si Si4 0.878564 0.703921 0.785321
Si Si5 0.669925 0.193415 0.833511
Si Si6 0.267672 0.176800 0.864326
Si Si7 0.500000 0.175516 0.250000
O O1 0.037587 0.840290 0.389712
O O2 0.049630 0.855294 0.293476
O O3 0.083304 0.267983 0.344498
O O4 0.936333 0.081890 0.317815
O O5 0.031193 0.427873 0.071771
O O6 0.927579 0.709265 0.010541
O O7 0.056939 0.925030 0.053892
O O8 0.672332 0.244166 0.583075
O O9 0.833968 0.757969 0.726981
O O10 0.819182 0.631969 0.820955
O O11 0.940951 0.490543 0.775268
O O12 0.720901 0.414061 0.867267
O O13 0.709706 0.916722 0.846995
#
# Coordination Sequence:
#
# PCOD9286285 Si02
#       7
#     8   8   8   8   8   8   4
#     4  12  24  41  68  98 130 180 225 280 330 397
#     4  10  22  40  72  98 127 168 234 279 337 384
#     4  10  21  43  66 101 128 169 226 290 324 404
#     4  12  24  42  64  93 130 180 226 264 325 399
#     4  12  26  42  59  99 137 176 212 273 336 402
#     4  12  26  42  66  92 137 176 217 267 343 399
#     4  12  22  40  70  94 138 164 236 280 320 390
#
# _framework density 22.228885999999999
#
# number of rings (size 3 to 8) (size 9 to 14) (size 15 to 20)
#    0.000    0.615    4.615    3.692    2.154    0.000 
#    0.000    1.538    0.000    0.000    0.000    0.000 
#    0.000    0.000    0.000    0.000    0.000    0.000 
#
# Total GULP energy -145448.954311 kJ/mol
# GULP energy per Si atom -5594.190550 kJ/mol
# Density = 2.217829 g / cm^3
# Si number density = 22.228886 Si / 1000 Ang^3
#
#
#
# Elastic Constant Matrix: (Units=GPa)
#
#
# Indices 1 2 3 4 5 6 
#
# 1 66.3384 23.0723 26.0579 0.0000 17.8673 0.0000
# 2 23.0723 82.1298 -3.2133 -0.0001 6.1568 0.0001
# 3 26.0579 -3.2133 104.1288 0.0000 20.1454 0.0000
# 4 0.0000 -0.0001 0.0000 23.9496 0.0000 3.5027
# 5 17.8673 6.1568 20.1454 0.0000 37.6373 0.0000
# 6 0.0000 0.0001 0.0000 3.5027 0.0000 28.3388
#
#
#
# Elastic Compliance Matrix: (Units=1/GPa)
#
#
# Indices 1 2 3 4 5 6 
#
# 1 0.020277 -0.005354 -0.003956 0.000000 -0.006632 0.000000
# 2 -0.005354 0.013810 0.001909 0.000000 -0.000739 0.000000
# 3 -0.003956 0.001909 0.011545 0.000000 -0.004614 0.000000
# 4 0.000000 0.000000 0.000000 0.042523 0.000000 -0.005256
# 5 -0.006632 -0.000739 -0.004614 0.000000 0.032308 0.000000
# 6 0.000000 0.000000 0.000000 -0.005256 0.000000 0.035937
#
#
# Mechanical properties :
#
#
# Convention : Reuss Voigt Hill
#
# Bulk Modulus (GPa) = 32.43648 38.27010 35.35329
# Shear Modulus (GPa) = 27.55146 31.76382 29.65764
#
# Velocity S-wave (km/s) = 3.52439 3.78424 3.65662
# Velocity P-wave (km/s) = 5.58440 6.02890 5.81090
#
# Compressibility (1/GPa) = 0.03082948
#
# Stress axis : x y z
#
# Youngs Moduli (GPa) = 49.31788 72.41140 86.61745
#
# Poissons Ratio (x) = 0.38768 0.34268
# Poissons Ratio (y) = 0.26404 -0.16535
# Poissons Ratio (z) = 0.19511 -0.13823
#
# Static dielectric constant tensor:
#      x y z
#    x 1.805770 0.000000 0.004550 
#    y 0.000000 1.837130 0.000000 
#    z 0.004550 0.000000 1.824510 
# 
# From -- ./inp_files/312421.got.cif
#   From: 2010.05.17/outbox.cif.g08.bks.cpg/sg15_157_cif.got.tgz:312421.got - 2010.06.03 18:47:42.
