data_PCOD9286195
_publ_section_title
;
Structure prediction by ZEFSAII (Michael W. Deem and Ramdas Pophale) SiO2 
 PCOD9286195
Probable space group: C 2/C
;
_chemical_formula_sum "Si O2"
_cell_formula_units_Z 64
_cell_length_a 9.514862
_cell_length_b 29.046299
_cell_length_c 14.193613
_cell_angle_alpha 90.000000
_cell_angle_beta 48.915728
_cell_angle_gamma 90.000000
_cell_volume 2956.718780
_symmetry_space_group_name_H-M "C 2/C"
_symmetry_group_IT_number 15
_symmetry_cell_setting 'monoclinic'
loop_
_space_group_symop_operation_xyz
x,y,z
-x,y,1/2-z
-x,-y,-z
x,-y,1/2+z
1/2+x,1/2+y,z
1/2-x,1/2+y,1/2-z
1/2-x,1/2-y,-z
1/2+x,1/2-y,1/2+z
loop_
_atom_site_type_symbol
_atom_site_label
_atom_site_fract_x
_atom_site_fract_y
_atom_site_fract_z
Si Si1 0.137683 0.793045 0.428936
Si Si2 0.718310 0.658006 0.400477
Si Si3 0.307123 0.114490 0.778142
Si Si4 0.012833 0.063170 0.480413
Si Si5 0.295000 0.695940 0.380314
Si Si6 0.926557 0.440782 0.060201
Si Si7 0.466244 0.134169 0.111278
Si Si8 0.225152 0.996078 0.524540
O O1 0.216710 0.835360 0.333166
O O2 0.222801 0.743746 0.366262
O O3 0.195295 0.800260 0.511991
O O4 0.913692 0.797992 0.530278
O O5 0.591471 0.613748 0.435375
O O6 0.852021 0.653717 0.251556
O O7 0.827412 0.648927 0.449245
O O8 0.500000 0.114022 0.750000
O O9 0.171757 0.073641 0.875841
O O10 0.349800 0.101818 0.652474
O O11 0.164168 0.030693 0.466122
O O12 0.938442 0.041149 0.416322
O O13 0.500000 0.685052 0.250000
O O14 0.143057 0.657866 0.424480
O O15 0.755284 0.472478 0.102660
O O16 0.021905 0.419624 0.923354
O O17 0.077602 0.468426 0.056634
#
# Coordination Sequence:
#
# PCOD9286195 Si02
#       8
#     8   8   8   8   8   8   8   8
#     4  10  23  42  69  99 130 165 210 264 325 390
#     4  10  22  44  64  90 128 174 211 257 328 376
#     4  11  21  40  67  89 131 170 206 264 335 383
#     4  10  21  43  63  89 124 171 217 264 327 377
#     4  11  22  40  70 103 129 161 216 266 315 390
#     4  11  23  42  61  98 129 167 222 265 324 387
#     4  11  23  41  66  92 132 168 213 264 315 390
#     4  10  22  42  60  89 128 163 223 270 311 380
#
# _framework density 21.645614999999999
#
# number of rings (size 3 to 8) (size 9 to 14) (size 15 to 20)
#    0.000    1.500    3.750    1.125    1.750    2.000 
#   13.500    0.000    0.000    0.000    0.000    0.000 
#    0.000    0.000    0.000    0.000    0.000    0.000 
#
# Total GULP energy -178309.623462 kJ/mol
# GULP energy per Si atom -5572.175733 kJ/mol
# Density = 2.159635 g / cm^3
# Si number density = 21.645615 Si / 1000 Ang^3
#
#
#
# Elastic Constant Matrix: (Units=GPa)
#
#
# Indices 1 2 3 4 5 6 
#
# 1 113.4308 27.5978 8.9445 0.0000 -17.1725 0.0000
# 2 27.5978 68.8049 16.6034 0.0000 -17.1837 0.0000
# 3 8.9445 16.6034 44.6168 0.0000 -2.7931 0.0000
# 4 0.0000 0.0000 0.0000 8.3776 0.0000 14.7390
# 5 -17.1725 -17.1837 -2.7931 0.0000 13.1837 0.0000
# 6 0.0000 0.0000 0.0000 14.7390 0.0000 8.6357
#
#
#
# Elastic Compliance Matrix: (Units=1/GPa)
#
#
# Indices 1 2 3 4 5 6 
#
# 1 0.011098 -0.000952 -0.001057 0.000000 0.012991 0.000000
# 2 -0.000952 0.023561 -0.006823 0.000000 0.028024 0.000000
# 3 -0.001057 -0.006823 0.024851 0.000000 -0.005005 0.000000
# 4 0.000000 0.000000 0.000000 -0.059602 0.000000 0.101725
# 5 0.012991 0.028024 -0.005005 0.000000 0.128239 0.000000
# 6 0.000000 0.000000 0.000000 0.101725 0.000000 -0.057820
#
#
# Mechanical properties :
#
#
# Convention : Reuss Voigt Hill
#
# Bulk Modulus (GPa) = 23.89730 37.01598 30.45664
# Shear Modulus (GPa) = 49.04920 17.61986 33.33453
#
# Velocity S-wave (km/s) = 4.76543 2.85619 3.92856
# Velocity P-wave (km/s) = 6.42987 5.29293 5.88891
#
# Compressibility (1/GPa) = 0.04184574
#
# Stress axis : x y z
#
# Youngs Moduli (GPa) = 90.10975 42.44310 40.24035
#
# Poissons Ratio (x) = 0.04039 0.04255
# Poissons Ratio (y) = 0.08576 0.27455
# Poissons Ratio (z) = 0.09528 0.28957
#
# Static dielectric constant tensor:
#      x y z
#    x 1.803720 0.000000 -0.014940 
#    y 0.000000 1.821580 0.000000 
#    z -0.014940 0.000000 1.902190 
# 
# From -- ./inp_files/139812.got.cif
#   From: 2010.05.17/outbox.cif.g08.bks.cpg/sg15_70_cif.got.tgz:139812.got - 2010.06.03 18:47:42.
