data_PCOD9286661
_publ_section_title
;
Structure prediction by ZEFSAII (Michael W. Deem and Ramdas Pophale) SiO2 
 PCOD9286661
Probable space group: C 2/C
;
_chemical_formula_sum "Si O2"
_cell_formula_units_Z 52
_cell_length_a 7.685380
_cell_length_b 19.308946
_cell_length_c 17.016560
_cell_angle_alpha 90.000000
_cell_angle_beta 108.648908
_cell_angle_gamma 90.000000
_cell_volume 2392.615856
_symmetry_space_group_name_H-M "C 2/C"
_symmetry_group_IT_number 15
_symmetry_cell_setting 'monoclinic'
loop_
_space_group_symop_operation_xyz
x,y,z
-x,y,1/2-z
-x,-y,-z
x,-y,1/2+z
1/2+x,1/2+y,z
1/2-x,1/2+y,1/2-z
1/2-x,1/2-y,-z
1/2+x,1/2-y,1/2+z
loop_
_atom_site_type_symbol
_atom_site_label
_atom_site_fract_x
_atom_site_fract_y
_atom_site_fract_z
Si Si1 0.283909 0.339130 0.711338
Si Si2 0.500000 0.263226 0.250000
Si Si3 0.103885 0.794612 0.932974
Si Si4 0.224121 0.704231 0.576359
Si Si5 0.611562 0.561146 0.476361
Si Si6 0.309968 0.491187 0.689460
Si Si7 0.981365 0.564747 0.937297
O O1 0.500000 0.324554 0.750000
O O2 0.266464 0.324970 0.616777
O O3 0.259914 0.420091 0.727507
O O4 0.153440 0.287840 0.737127
O O5 0.598860 0.300888 0.339353
O O6 0.017341 0.863844 0.958835
O O7 0.933291 0.743845 0.895758
O O8 0.250000 0.750000 0.000000
O O9 0.250000 0.750000 0.500000
O O10 0.134352 0.629185 0.545227
O O11 0.500000 0.500000 0.500000
O O12 0.643460 0.534046 0.392315
O O13 0.804833 0.578740 0.546834
O O14 0.500000 0.521073 0.750000
O O15 0.136314 0.540468 0.654841
O O16 0.000000 0.500000 0.000000
#
# Coordination Sequence:
#
# PCOD9286661 Si02
#       7
#     8   4   8   8   8   8   8
#     4  10  21  44  64  98 136 181 227 292 355 434
#     4  12  26  42  78 106 142 184 246 302 380 436
#     4  11  21  41  67  94 138 177 229 294 362 421
#     4  12  27  43  71 109 140 190 248 304 367 445
#     4  10  22  39  66  95 126 180 227 277 355 429
#     4   9  21  41  66  89 134 176 225 289 349 417
#     4  10  23  44  64  94 140 180 231 297 356 427
#
# _framework density 21.733533999999999
#
# number of rings (size 3 to 8) (size 9 to 14) (size 15 to 20)
#    0.000    1.538    3.077    0.923    9.692    0.000 
#    0.000    0.000    3.385    0.000    0.000    0.000 
#    0.000    0.000    0.000    0.000    0.000    0.000 
#
# Total GULP energy -144834.765150 kJ/mol
# GULP energy per Si atom -5570.567890 kJ/mol
# Density = 2.168407 g / cm^3
# Si number density = 21.733534 Si / 1000 Ang^3
#
#
#
# Elastic Constant Matrix: (Units=GPa)
#
#
# Indices 1 2 3 4 5 6 
#
# 1 67.6415 32.8310 33.7677 0.0000 24.0651 0.0000
# 2 32.8310 110.6630 23.5265 0.0000 4.0698 0.0000
# 3 33.7677 23.5265 88.9087 0.0000 33.0594 0.0000
# 4 0.0000 0.0000 0.0000 19.3923 0.0000 3.9636
# 5 24.0651 4.0698 33.0594 0.0000 43.9837 0.0000
# 6 0.0000 0.0000 0.0000 3.9636 0.0000 35.2195
#
#
#
# Elastic Compliance Matrix: (Units=1/GPa)
#
#
# Indices 1 2 3 4 5 6 
#
# 1 0.022562 -0.005566 -0.003744 0.000000 -0.009015 0.000000
# 2 -0.005566 0.011012 -0.002156 0.000000 0.003647 0.000000
# 3 -0.003744 -0.002156 0.017216 0.000000 -0.010692 0.000000
# 4 0.000000 0.000000 0.000000 0.052781 0.000000 -0.005940
# 5 -0.009015 0.003647 -0.010692 0.000000 0.035367 0.000000
# 6 0.000000 0.000000 0.000000 -0.005940 0.000000 0.029062
#
#
# Mechanical properties :
#
#
# Convention : Reuss Voigt Hill
#
# Bulk Modulus (GPa) = 35.89719 49.71820 42.80769
# Shear Modulus (GPa) = 24.97291 31.52498 28.24894
#
# Velocity S-wave (km/s) = 3.39344 3.81270 3.60917
# Velocity P-wave (km/s) = 5.64860 6.50448 6.09159
#
# Compressibility (1/GPa) = 0.02785733
#
# Stress axis : x y z
#
# Youngs Moduli (GPa) = 44.32257 90.81012 58.08713
#
# Poissons Ratio (x) = 0.50545 0.21748
# Poissons Ratio (y) = 0.24670 0.12524
# Poissons Ratio (z) = 0.16594 0.19579
#
# Static dielectric constant tensor:
#      x y z
#    x 2.099240 0.000000 -0.601480 
#    y 0.000000 1.864960 0.000000 
#    z -0.601480 0.000000 3.722840 
# 
# From -- ./inp_files/190551.got.cif
#   From: 2010.05.17/outbox.cif.g08.bks.cpg/sg15_96_cif.got.tgz:190551.got - 2010.06.03 18:47:42.
