data_PCOD9286477
_publ_section_title
;
Structure prediction by ZEFSAII (Michael W. Deem and Ramdas Pophale) SiO2 
 PCOD9286477
Probable space group: C 2/C
;
_chemical_formula_sum "Si O2"
_cell_formula_units_Z 48
_cell_length_a 28.473844
_cell_length_b 13.788227
_cell_length_c 9.555154
_cell_angle_alpha 90.000000
_cell_angle_beta 147.679710
_cell_angle_gamma 90.000000
_cell_volume 2005.686842
_symmetry_space_group_name_H-M "C 2/C"
_symmetry_group_IT_number 15
_symmetry_cell_setting 'monoclinic'
loop_
_space_group_symop_operation_xyz
x,y,z
-x,y,1/2-z
-x,-y,-z
x,-y,1/2+z
1/2+x,1/2+y,z
1/2-x,1/2+y,1/2-z
1/2-x,1/2-y,-z
1/2+x,1/2-y,1/2+z
loop_
_atom_site_type_symbol
_atom_site_label
_atom_site_fract_x
_atom_site_fract_y
_atom_site_fract_z
Si Si1 0.602399 0.581470 0.467219
Si Si2 0.098489 0.395801 0.540911
Si Si3 0.822108 0.121437 0.327884
Si Si4 0.441193 0.286387 0.895449
Si Si5 0.365987 0.922558 0.184470
Si Si6 0.643207 0.708005 0.818033
O O1 0.500000 0.566243 0.250000
O O2 0.643691 0.480470 0.524661
O O3 0.603473 0.663509 0.351682
O O4 0.651896 0.621955 0.728091
O O5 0.137492 0.433119 0.492598
O O6 0.095858 0.484551 0.642046
O O7 0.146994 0.307603 0.741138
O O8 0.000000 0.361680 0.250000
O O9 0.897468 0.162787 0.417968
O O10 0.800682 0.194312 0.401235
O O11 0.733466 0.100267 0.019937
O O12 0.422377 0.172708 0.857056
O O13 0.544202 0.300056 0.130545
#
# Coordination Sequence:
#
# PCOD9286477 Si02
#       6
#     8   8   8   8   8   8
#     4  10  21  43  69  97 138 186 239 283 342 419
#     4  12  26  51  74 103 134 189 245 292 344 412
#     4  12  27  40  68 109 144 181 221 289 359 425
#     4  11  23  46  67 101 140 181 242 284 343 416
#     4  12  29  45  72 105 142 183 233 298 355 406
#     4  11  23  45  75  98 137 190 233 290 344 417
#
# _framework density 23.931950000000001
#
# number of rings (size 3 to 8) (size 9 to 14) (size 15 to 20)
#    0.000    0.667    3.333    4.000    7.000    4.667 
#    0.000    0.000    0.000    0.000    0.000    0.000 
#    0.000    0.000    0.000    0.000    0.000    0.000 
#
# Total GULP energy -134467.243243 kJ/mol
# GULP energy per Si atom -5602.801802 kJ/mol
# Density = 2.387748 g / cm^3
# Si number density = 23.931950 Si / 1000 Ang^3
#
#
#
# Elastic Constant Matrix: (Units=GPa)
#
#
# Indices 1 2 3 4 5 6 
#
# 1 90.0647 17.8445 3.3725 0.0000 -8.4523 0.0000
# 2 17.8445 117.2725 7.8481 0.0000 -14.6109 0.0000
# 3 3.3725 7.8481 49.1092 0.0000 -1.9974 0.0000
# 4 0.0000 0.0000 0.0000 29.6501 0.0000 -12.9223
# 5 -8.4523 -14.6109 -1.9974 0.0000 29.0298 0.0000
# 6 0.0000 0.0000 0.0000 -12.9223 0.0000 34.9863
#
#
#
# Elastic Compliance Matrix: (Units=1/GPa)
#
#
# Indices 1 2 3 4 5 6 
#
# 1 0.011649 -0.001411 -0.000467 0.000000 0.002649 0.000000
# 2 -0.001411 0.009348 -0.001226 0.000000 0.004210 0.000000
# 3 -0.000467 -0.001226 0.020618 0.000000 0.000666 0.000000
# 4 0.000000 0.000000 0.000000 0.040197 0.000000 0.014847
# 5 0.002649 0.004210 0.000666 0.000000 0.037383 0.000000
# 6 0.000000 0.000000 0.000000 0.014847 0.000000 0.034066
#
#
# Mechanical properties :
#
#
# Convention : Reuss Voigt Hill
#
# Bulk Modulus (GPa) = 28.24251 34.95295 31.59773
# Shear Modulus (GPa) = 29.19325 33.89198 31.54262
#
# Velocity S-wave (km/s) = 3.49642 3.76730 3.63438
# Velocity P-wave (km/s) = 5.30346 5.79312 5.55369
#
# Compressibility (1/GPa) = 0.03540762
#
# Stress axis : x y z
#
# Youngs Moduli (GPa) = 85.84548 106.96992 48.50176
#
# Poissons Ratio (x) = 0.15096 0.02264
# Poissons Ratio (y) = 0.12115 0.05945
# Poissons Ratio (z) = 0.04006 0.13113
#
# Static dielectric constant tensor:
#      x y z
#    x 1.933770 0.000000 0.013910 
#    y 0.000000 1.842100 0.000000 
#    z 0.013910 0.000000 1.898810 
# 
# From -- ./inp_files/66507.got.cif
#   From: 2010.05.17/outbox.cif.g08.bks.cpg/sg15_34_cif.got.tgz:66507.got - 2010.06.03 18:47:42.
