data_PCOD9286381
_publ_section_title
;
Structure prediction by ZEFSAII (Michael W. Deem and Ramdas Pophale) SiO2 
 PCOD9286381
Probable space group: C 2/C
;
_chemical_formula_sum "Si O2"
_cell_formula_units_Z 64
_cell_length_a 15.280962
_cell_length_b 12.291061
_cell_length_c 26.669521
_cell_angle_alpha 90.000000
_cell_angle_beta 35.571806
_cell_angle_gamma 90.000000
_cell_volume 2913.877998
_symmetry_space_group_name_H-M "C 2/C"
_symmetry_group_IT_number 15
_symmetry_cell_setting 'monoclinic'
loop_
_space_group_symop_operation_xyz
x,y,z
-x,y,1/2-z
-x,-y,-z
x,-y,1/2+z
1/2+x,1/2+y,z
1/2-x,1/2+y,1/2-z
1/2-x,1/2-y,-z
1/2+x,1/2-y,1/2+z
loop_
_atom_site_type_symbol
_atom_site_label
_atom_site_fract_x
_atom_site_fract_y
_atom_site_fract_z
Si Si1 0.985074 0.385786 0.033279
Si Si2 0.534911 0.798098 0.307973
Si Si3 0.495743 0.405803 0.064075
Si Si4 0.250000 0.796105 0.883322
Si Si5 0.140432 0.117513 0.332359
Si Si6 0.254421 0.722709 0.616618
Si Si7 0.087637 0.507205 0.333340
Si Si8 0.916309 0.269989 0.900033
O O1 0.953046 0.423755 0.104199
O O2 0.850397 0.312776 0.074339
O O3 0.134494 0.316976 0.953370
O O4 0.000000 0.500000 0.000000
O O5 0.562042 0.719157 0.342568
O O6 0.360817 0.802736 0.373940
O O7 0.643076 0.749014 0.214460
O O8 0.581234 0.924966 0.289700
O O9 0.473606 0.528506 0.092392
O O10 0.364120 0.370489 0.087132
O O11 0.487835 0.322823 0.115772
O O12 0.650522 0.380917 0.962756
O O13 0.249057 0.842165 0.827225
O O14 0.394465 0.768746 0.850003
O O15 0.245987 0.056052 0.243494
O O16 0.978948 0.611113 0.384334
O O17 0.750000 0.250000 0.000000
#
# Coordination Sequence:
#
# PCOD9286381 Si02
#       8
#     8   8   8   8   8   8   8   8
#     4  11  22  43  69  95 132 186 223 278 335 408
#     4  11  24  43  64 102 128 181 219 281 343 403
#     4  10  21  43  67  95 135 181 215 285 338 397
#     4  10  23  41  65 100 133 174 231 271 341 407
#     4  12  24  42  66  96 140 170 228 283 340 408
#     4  10  23  43  66  92 138 169 232 270 340 407
#     4  12  25  41  70  95 138 177 226 283 345 400
#     4  10  23  43  67  97 129 174 227 277 337 403
#
# _framework density 21.963856
#
# number of rings (size 3 to 8) (size 9 to 14) (size 15 to 20)
#    0.000    1.250    2.500    4.125    1.750    4.000 
#    2.250    0.000    0.000    0.000    0.000    0.000 
#    0.000    0.000    0.000    0.000    0.000    0.000 
#
# Total GULP energy -178679.537641 kJ/mol
# GULP energy per Si atom -5583.735551 kJ/mol
# Density = 2.191386 g / cm^3
# Si number density = 21.963856 Si / 1000 Ang^3
#
#
#
# Elastic Constant Matrix: (Units=GPa)
#
#
# Indices 1 2 3 4 5 6 
#
# 1 104.9650 38.3224 6.0143 0.0000 -3.3557 0.0000
# 2 38.3224 137.5257 21.7188 0.0000 -2.9682 0.0000
# 3 6.0143 21.7188 53.8735 0.0000 4.1053 0.0000
# 4 0.0000 0.0000 0.0000 17.4473 0.0000 3.7626
# 5 -3.3557 -2.9682 4.1053 0.0000 24.6591 0.0000
# 6 0.0000 0.0000 0.0000 3.7626 0.0000 11.1765
#
#
#
# Elastic Compliance Matrix: (Units=1/GPa)
#
#
# Indices 1 2 3 4 5 6 
#
# 1 0.010636 -0.002925 -0.000093 0.000000 0.001111 0.000000
# 2 -0.002925 0.008624 -0.003240 0.000000 0.001179 0.000000
# 3 -0.000093 -0.003240 0.020165 0.000000 -0.003760 0.000000
# 4 0.000000 0.000000 0.000000 0.061802 0.000000 -0.020806
# 5 0.001111 0.001179 -0.003760 0.000000 0.041472 0.000000
# 6 0.000000 0.000000 0.000000 -0.020806 0.000000 0.096478
#
#
# Mechanical properties :
#
#
# Convention : Reuss Voigt Hill
#
# Bulk Modulus (GPa) = 37.16242 47.60834 42.38538
# Shear Modulus (GPa) = 19.18197 26.01049 22.59623
#
# Velocity S-wave (km/s) = 2.95844 3.44501 3.21096
# Velocity P-wave (km/s) = 5.35036 6.12756 5.75210
#
# Compressibility (1/GPa) = 0.02690890
#
# Stress axis : x y z
#
# Youngs Moduli (GPa) = 94.02252 115.96117 49.59091
#
# Poissons Ratio (x) = 0.33920 0.00460
# Poissons Ratio (y) = 0.27503 0.16067
# Poissons Ratio (z) = 0.00872 0.37570
#
# Static dielectric constant tensor:
#      x y z
#    x 1.833990 0.000000 -0.022660 
#    y 0.000000 1.776810 0.000000 
#    z -0.022660 0.000000 1.726220 
# 
# From -- ./inp_files/296113.got.cif
#   From: 2010.05.17/outbox.cif.g08.bks.cpg/sg15_149_cif.got.tgz:296113.got - 2010.06.03 18:47:42.
