data_PCOD9286807
_publ_section_title
;
Structure prediction by ZEFSAII (Michael W. Deem and Ramdas Pophale) SiO2 
 PCOD9286807
Probable space group: C 2/C
;
_chemical_formula_sum "Si O2"
_cell_formula_units_Z 44
_cell_length_a 5.197068
_cell_length_b 13.882562
_cell_length_c 26.160265
_cell_angle_alpha 90.000000
_cell_angle_beta 69.992025
_cell_angle_gamma 90.000000
_cell_volume 1773.511341
_symmetry_space_group_name_H-M "C 2/C"
_symmetry_group_IT_number 15
_symmetry_cell_setting 'monoclinic'
loop_
_space_group_symop_operation_xyz
x,y,z
-x,y,1/2-z
-x,-y,-z
x,-y,1/2+z
1/2+x,1/2+y,z
1/2-x,1/2+y,1/2-z
1/2-x,1/2-y,-z
1/2+x,1/2-y,1/2+z
loop_
_atom_site_type_symbol
_atom_site_label
_atom_site_fract_x
_atom_site_fract_y
_atom_site_fract_z
Si Si1 0.354279 0.562084 0.465964
Si Si2 0.649816 0.045042 0.134107
Si Si3 0.597246 0.782169 0.294849
Si Si4 0.500000 0.033095 0.750000
Si Si5 0.454227 0.109524 0.568431
Si Si6 0.505307 0.754626 0.641167
O O1 0.500000 0.500000 0.500000
O O2 0.575959 0.590977 0.408978
O O3 0.181337 0.482779 0.448484
O O4 0.178568 0.638397 0.510364
O O5 0.450698 0.133039 0.133629
O O6 0.647924 0.025141 0.194923
O O7 0.579318 0.946178 0.109295
O O8 0.500000 0.725478 0.250000
O O9 0.681518 0.888362 0.268484
O O10 0.838907 0.745988 0.314247
O O11 0.297435 0.789229 0.341183
O O12 0.223881 0.189663 0.594847
#
# Coordination Sequence:
#
# PCOD9286807 Si02
#       6
#     8   8   8   4   8   8
#     4   9  21  42  68  96 131 179 231 280 352 418
#     4  11  24  41  66 104 133 180 236 283 344 422
#     4  10  24  44  63  95 136 185 223 278 347 406
#     4  10  22  42  70  94 140 182 226 282 346 416
#     4  10  21  44  69  94 138 180 224 290 349 413
#     4  12  25  43  69 101 139 176 237 286 347 419
#
# _framework density 24.809539999999998
#
# number of rings (size 3 to 8) (size 9 to 14) (size 15 to 20)
#    0.545    1.091    1.818    1.636    7.636    0.727 
#    0.000    8.182    0.000    0.000    0.000    0.000 
#    0.000    0.000    0.000    0.000    0.000    0.000 
#
# Total GULP energy -122487.703231 kJ/mol
# GULP energy per Si atom -5567.622874 kJ/mol
# Density = 2.475307 g / cm^3
# Si number density = 24.809540 Si / 1000 Ang^3
#
#
#
# Elastic Constant Matrix: (Units=GPa)
#
#
# Indices 1 2 3 4 5 6 
#
# 1 93.0272 24.3807 23.1780 0.0000 -0.6182 0.0000
# 2 24.3807 108.8175 31.2245 0.0000 -5.8036 0.0000
# 3 23.1780 31.2245 138.8906 0.0000 -17.7808 0.0000
# 4 0.0000 0.0000 0.0000 -8.6602 0.0000 -5.7716
# 5 -0.6182 -5.8036 -17.7808 0.0000 36.2338 0.0000
# 6 0.0000 0.0000 0.0000 -5.7716 0.0000 18.2753
#
#
#
# Elastic Compliance Matrix: (Units=1/GPa)
#
#
# Indices 1 2 3 4 5 6 
#
# 1 0.011718 -0.002223 -0.001575 0.000000 -0.000929 0.000000
# 2 -0.002223 0.010254 -0.001845 0.000000 0.000699 0.000000
# 3 -0.001575 -0.001845 0.008361 0.000000 0.003781 0.000000
# 4 0.000000 0.000000 0.000000 -0.095393 0.000000 -0.030126
# 5 -0.000929 0.000699 0.003781 0.000000 0.029550 0.000000
# 6 0.000000 0.000000 0.000000 -0.030126 0.000000 0.045204
#
#
# Mechanical properties :
#
#
# Convention : Reuss Voigt Hill
#
# Bulk Modulus (GPa) = 52.49649 55.36686 53.93168
# Shear Modulus (GPa) = 182.94301 26.63325 104.78813
#
# Velocity S-wave (km/s) = 8.59646 3.28000 6.50605
# Velocity P-wave (km/s) = 10.94248 6.05886 8.84442
#
# Compressibility (1/GPa) = 0.01904889
#
# Stress axis : x y z
#
# Youngs Moduli (GPa) = 85.33610 97.51855 119.59639
#
# Poissons Ratio (x) = 0.21680 0.18832
# Poissons Ratio (y) = 0.18972 0.22063
# Poissons Ratio (z) = 0.13438 0.17990
#
# Static dielectric constant tensor:
#      x y z
#    x 2.147170 0.000000 0.213980 
#    y 0.000000 2.040700 0.000000 
#    z 0.213980 0.000000 3.169820 
# 
# From -- ./inp_files/260829.got.cif
#   From: 2010.05.17/outbox.cif.g08.bks.cpg/sg15_131_cif.got.tgz:260829.got - 2010.06.03 18:47:42.
