data_PCOD9286186
_publ_section_title
;
Structure prediction by ZEFSAII (Michael W. Deem and Ramdas Pophale) SiO2 
 PCOD9286186
Probable space group: C 2/C
;
_chemical_formula_sum "Si O2"
_cell_formula_units_Z 60
_cell_length_a 26.805911
_cell_length_b 9.120363
_cell_length_c 25.148495
_cell_angle_alpha 90.000000
_cell_angle_beta 26.755539
_cell_angle_gamma 90.000000
_cell_volume 2767.868739
_symmetry_space_group_name_H-M "C 2/C"
_symmetry_group_IT_number 15
_symmetry_cell_setting 'monoclinic'
loop_
_space_group_symop_operation_xyz
x,y,z
-x,y,1/2-z
-x,-y,-z
x,-y,1/2+z
1/2+x,1/2+y,z
1/2-x,1/2+y,1/2-z
1/2-x,1/2-y,-z
1/2+x,1/2-y,1/2+z
loop_
_atom_site_type_symbol
_atom_site_label
_atom_site_fract_x
_atom_site_fract_y
_atom_site_fract_z
Si Si1 0.598785 0.114692 0.407445
Si Si2 0.627818 0.980658 0.226763
Si Si3 0.608964 0.464893 0.036747
Si Si4 0.422006 0.734641 0.683860
Si Si5 0.510932 0.725062 0.400563
Si Si6 0.000000 0.016159 0.750000
Si Si7 0.782383 0.042679 0.313572
Si Si8 0.319542 0.709419 0.382705
O O1 0.618356 0.179427 0.330476
O O2 0.563460 0.251062 0.477654
O O3 0.691248 0.035740 0.355006
O O4 0.500000 0.000000 0.500000
O O5 0.564780 0.880247 0.331192
O O6 0.620735 0.862346 0.187082
O O7 0.568704 0.136514 0.281750
O O8 0.760651 0.020287 0.101066
O O9 0.538127 0.352187 0.067678
O O10 0.558702 0.628621 0.075317
O O11 0.569667 0.415990 0.133849
O O12 0.329433 0.614240 0.786383
O O13 0.616160 0.624796 0.311282
O O14 0.092683 0.915110 0.688492
O O15 0.757091 0.144869 0.389409
O O16 0.250000 0.750000 0.500000
#
# Coordination Sequence:
#
# PCOD9286186 Si02
#       8
#     8   8   8   8   8   4   8   8
#     4  12  26  40  67  95 135 181 231 277 335 402
#     4  11  22  40  70  99 135 173 225 278 342 400
#     4  11  24  43  70  98 137 179 224 285 339 413
#     4  11  26  45  64  99 144 181 224 283 347 405
#     4  10  21  43  62  97 128 173 232 274 327 405
#     4  12  20  42  72  98 136 170 230 268 348 404
#     4  10  25  43  66  98 139 176 230 283 340 407
#     4  11  22  42  73 104 128 177 228 284 338 413
#
# _framework density 21.677329
#
# number of rings (size 3 to 8) (size 9 to 14) (size 15 to 20)
#    0.000    1.067    6.667    1.600    3.733    3.200 
#    0.000    3.333    0.000    0.000    0.000    0.000 
#    0.000    0.000    0.000    0.000    0.000    0.000 
#
# Total GULP energy -167039.778414 kJ/mol
# GULP energy per Si atom -5567.992614 kJ/mol
# Density = 2.162799 g / cm^3
# Si number density = 21.677329 Si / 1000 Ang^3
#
#
#
# Elastic Constant Matrix: (Units=GPa)
#
#
# Indices 1 2 3 4 5 6 
#
# 1 41.0329 9.1447 -6.6436 0.0004 -0.2507 -0.0007
# 2 9.1447 113.2290 6.3243 0.0032 -2.4935 0.0020
# 3 -6.6436 6.3243 52.5056 0.0002 7.2794 -0.0013
# 4 0.0004 0.0032 0.0002 8.3918 -0.0015 -21.7724
# 5 -0.2507 -2.4935 7.2794 -0.0015 42.8753 -0.0001
# 6 -0.0007 0.0020 -0.0013 -21.7724 -0.0001 -2.9046
#
#
#
# Elastic Compliance Matrix: (Units=1/GPa)
#
#
# Indices 1 2 3 4 5 6 
#
# 1 0.025451 -0.002268 0.003575 -0.000001 -0.000590 0.000000
# 2 -0.002268 0.009115 -0.001492 0.000001 0.000770 0.000002
# 3 0.003575 -0.001492 0.020161 -0.000001 -0.003489 0.000000
# 4 -0.000001 0.000001 -0.000001 0.005828 0.000000 -0.043683
# 5 -0.000590 0.000770 -0.003489 0.000000 0.023957 -0.000001
# 6 0.000000 0.000002 0.000000 -0.043683 -0.000001 -0.016837
#
#
# Mechanical properties :
#
#
# Convention : Reuss Voigt Hill
#
# Bulk Modulus (GPa) = 18.39624 24.93537 21.66580
# Shear Modulus (GPa) = 58.02860 22.86864 40.44862
#
# Velocity S-wave (km/s) = 5.17951 3.25153 4.32434
# Velocity P-wave (km/s) = 6.65392 5.06207 5.91182
#
# Compressibility (1/GPa) = 0.05435895
#
# Stress axis : x y z
#
# Youngs Moduli (GPa) = 39.29046 109.70777 49.59988
#
# Poissons Ratio (x) = 0.24884 -0.17734
# Poissons Ratio (y) = 0.08912 0.07399
# Poissons Ratio (z) = -0.14048 0.16365
#
# Static dielectric constant tensor:
#      x y z
#    x 1.952700 0.000000 0.078500 
#    y 0.000000 1.798140 0.000000 
#    z 0.078500 0.000000 1.878690 
# 
# From -- ./inp_files/283369.got.cif
#   From: 2010.05.17/outbox.cif.g08.bks.cpg/sg15_142_cif.got.tgz:283369.got - 2010.06.03 18:47:42.
