data_PCOD9286002
_publ_section_title
;
Structure prediction by ZEFSAII (Michael W. Deem and Ramdas Pophale) SiO2 
 PCOD9286002
Probable space group: C 2/C
;
_chemical_formula_sum "Si O2"
_cell_formula_units_Z 60
_cell_length_a 16.778153
_cell_length_b 27.859171
_cell_length_c 11.255896
_cell_angle_alpha 90.000000
_cell_angle_beta 144.403362
_cell_angle_gamma 90.000000
_cell_volume 3062.467938
_symmetry_space_group_name_H-M "C 2/C"
_symmetry_group_IT_number 15
_symmetry_cell_setting 'monoclinic'
loop_
_space_group_symop_operation_xyz
x,y,z
-x,y,1/2-z
-x,-y,-z
x,-y,1/2+z
1/2+x,1/2+y,z
1/2-x,1/2+y,1/2-z
1/2-x,1/2-y,-z
1/2+x,1/2-y,1/2+z
loop_
_atom_site_type_symbol
_atom_site_label
_atom_site_fract_x
_atom_site_fract_y
_atom_site_fract_z
Si Si1 0.180898 0.897362 0.725750
Si Si2 0.362660 0.051940 0.647330
Si Si3 0.679181 0.295117 0.073005
Si Si4 0.674214 0.108350 0.676898
Si Si5 0.581283 0.450108 0.124231
Si Si6 0.258283 0.451383 0.948010
Si Si7 0.125772 0.791538 0.724324
Si Si8 0.000000 0.601013 0.250000
O O1 0.216145 0.925004 0.645697
O O2 0.182380 0.839876 0.730902
O O3 0.022681 0.911078 0.552658
O O4 0.271993 0.919676 0.941104
O O5 0.500000 0.034043 0.750000
O O6 0.404018 0.087397 0.804068
O O7 0.274981 0.007870 0.592464
O O8 0.735721 0.346905 0.175646
O O9 0.792223 0.253745 0.227433
O O10 0.654276 0.295715 0.900560
O O11 0.538854 0.285977 0.975266
O O12 0.772022 0.064237 0.753418
O O13 0.576611 0.125683 0.452530
O O14 0.617905 0.445633 0.307886
O O15 0.500000 0.500000 0.000000
O O16 0.120542 0.428880 0.834840
#
# Coordination Sequence:
#
# PCOD9286002 Si02
#       8
#     8   8   8   8   8   8   8   4
#     4  12  23  40  64  96 130 166 217 268 324 388
#     4  12  25  38  62  93 130 173 219 263 325 388
#     4  10  21  42  69  97 135 162 216 271 336 399
#     4  11  23  41  66  90 128 173 212 270 323 394
#     4  11  22  40  64  95 129 175 221 260 321 379
#     4  11  24  40  60  91 131 177 216 266 314 392
#     4  10  22  41  68 103 130 167 207 278 336 393
#     4  10  24  42  60  84 130 174 218 256 320 378
#
# _framework density 19.592040999999998
#
# number of rings (size 3 to 8) (size 9 to 14) (size 15 to 20)
#    0.000    1.067    4.667    2.000    1.867    3.733 
#    0.000    0.000    2.933    2.400    0.000    0.000 
#    0.000    0.000    0.000    0.000    0.000    0.000 
#
# Total GULP energy -167302.199410 kJ/mol
# GULP energy per Si atom -5576.739980 kJ/mol
# Density = 1.954745 g / cm^3
# Si number density = 19.592041 Si / 1000 Ang^3
#
#
#
# Elastic Constant Matrix: (Units=GPa)
#
#
# Indices 1 2 3 4 5 6 
#
# 1 87.6493 31.6064 27.8514 0.0000 -6.5935 0.0000
# 2 31.6064 88.8017 0.1938 0.0000 1.4703 0.0000
# 3 27.8514 0.1938 50.5771 0.0000 3.4430 0.0000
# 4 0.0000 0.0000 0.0000 24.2879 0.0000 9.8956
# 5 -6.5935 1.4703 3.4430 0.0000 24.0975 0.0000
# 6 0.0000 0.0000 0.0000 9.8956 0.0000 12.5025
#
#
#
# Elastic Compliance Matrix: (Units=1/GPa)
#
#
# Indices 1 2 3 4 5 6 
#
# 1 0.017320 -0.006251 -0.009959 0.000000 0.006543 0.000000
# 2 -0.006251 0.013529 0.003598 0.000000 -0.003050 0.000000
# 3 -0.009959 0.003598 0.025693 0.000000 -0.006615 0.000000
# 4 0.000000 0.000000 0.000000 0.060769 0.000000 -0.048098
# 5 0.006543 -0.003050 -0.006615 0.000000 0.044420 0.000000
# 6 0.000000 0.000000 0.000000 -0.048098 0.000000 0.118053
#
#
# Mechanical properties :
#
#
# Convention : Reuss Voigt Hill
#
# Bulk Modulus (GPa) = 31.93170 38.48127 35.20648
# Shear Modulus (GPa) = 15.85051 23.33600 19.59326
#
# Velocity S-wave (km/s) = 2.84743 3.45497 3.16581
# Velocity P-wave (km/s) = 5.21000 5.96655 5.60106
#
# Compressibility (1/GPa) = 0.03131684
#
# Stress axis : x y z
#
# Youngs Moduli (GPa) = 57.73610 73.91725 38.92169
#
# Poissons Ratio (x) = 0.46207 0.38763
# Poissons Ratio (y) = 0.36092 -0.14005
# Poissons Ratio (z) = 0.57501 -0.26597
#
# Static dielectric constant tensor:
#      x y z
#    x 1.736950 0.000000 0.002860 
#    y 0.000000 1.665020 0.000000 
#    z 0.002860 0.000000 1.693840 
# 
# From -- ./inp_files/108450.got.cif
#   From: 2010.05.17/outbox.cif.g08.bks.cpg/sg15_55_cif.got.tgz:108450.got - 2010.06.03 18:47:42.
