data_PCOD9286343
_publ_section_title
;
Structure prediction by ZEFSAII (Michael W. Deem and Ramdas Pophale) SiO2 
 PCOD9286343
Probable space group: C 2/C
;
_chemical_formula_sum "Si O2"
_cell_formula_units_Z 60
_cell_length_a 21.420672
_cell_length_b 9.183983
_cell_length_c 17.641169
_cell_angle_alpha 90.000000
_cell_angle_beta 130.118900
_cell_angle_gamma 90.000000
_cell_volume 2653.918968
_symmetry_space_group_name_H-M "C 2/C"
_symmetry_group_IT_number 15
_symmetry_cell_setting 'monoclinic'
loop_
_space_group_symop_operation_xyz
x,y,z
-x,y,1/2-z
-x,-y,-z
x,-y,1/2+z
1/2+x,1/2+y,z
1/2-x,1/2+y,1/2-z
1/2-x,1/2-y,-z
1/2+x,1/2-y,1/2+z
loop_
_atom_site_type_symbol
_atom_site_label
_atom_site_fract_x
_atom_site_fract_y
_atom_site_fract_z
Si Si1 0.649482 0.201050 0.368239
Si Si2 0.562859 0.042839 0.984278
Si Si3 0.090518 0.456231 0.227063
Si Si4 0.500000 0.423792 0.250000
Si Si5 0.145972 0.709578 0.162111
Si Si6 0.311661 0.680563 0.223500
Si Si7 0.274019 0.906439 0.421623
Si Si8 0.452873 0.488842 0.382111
O O1 0.582298 0.327172 0.331006
O O2 0.707417 0.124414 0.475821
O O3 0.712871 0.272756 0.357496
O O4 0.596208 0.068438 0.298549
O O5 0.503059 0.070354 0.867992
O O6 0.608592 0.185879 0.048175
O O7 0.500000 0.000000 0.000000
O O8 0.633039 0.920682 0.034088
O O9 0.134778 0.554026 0.195309
O O10 0.141667 0.311265 0.280819
O O11 0.488424 0.505526 0.323048
O O12 0.239171 0.745615 0.217702
O O13 0.086630 0.827889 0.151547
O O14 0.272699 0.553280 0.140259
O O15 0.378926 0.603002 0.328075
O O16 0.500000 0.500000 0.500000
#
# Coordination Sequence:
#
# PCOD9286343 Si02
#       8
#     8   8   8   4   8   8   8   8
#     4  11  23  42  73 101 136 198 245 309 369 444
#     4   9  20  36  62  95 129 177 234 302 358 432
#     4  11  21  39  66  98 139 188 240 300 373 441
#     4  12  24  50  78 108 154 194 264 316 368 470
#     4  10  21  43  67 102 141 190 254 298 374 452
#     4  11  23  44  66 105 152 189 242 319 372 448
#     4  10  22  43  66  98 139 184 250 307 366 443
#     4  12  26  49  75 113 148 201 252 314 387 450
#
# _framework density 22.608074999999999
#
# number of rings (size 3 to 8) (size 9 to 14) (size 15 to 20)
#    0.000    1.333    2.667    2.400    1.867    2.667 
#   14.400    4.667    0.000    0.000    0.000    0.000 
#    0.000    0.000    0.000    0.000    0.000    0.000 
#
# Total GULP energy -167029.013483 kJ/mol
# GULP energy per Si atom -5567.633783 kJ/mol
# Density = 2.255662 g / cm^3
# Si number density = 22.608075 Si / 1000 Ang^3
#
#
#
# Elastic Constant Matrix: (Units=GPa)
#
#
# Indices 1 2 3 4 5 6 
#
# 1 101.6596 33.6803 40.6858 0.0000 15.1745 0.0000
# 2 33.6803 63.3695 19.7113 0.0000 7.7573 0.0000
# 3 40.6858 19.7113 119.6363 0.0000 6.8635 0.0000
# 4 0.0000 0.0000 0.0000 13.3543 0.0000 1.6602
# 5 15.1745 7.7573 6.8635 0.0000 39.9437 0.0000
# 6 0.0000 0.0000 0.0000 1.6602 0.0000 22.5192
#
#
#
# Elastic Compliance Matrix: (Units=1/GPa)
#
#
# Indices 1 2 3 4 5 6 
#
# 1 0.013659 -0.005746 -0.003499 0.000000 -0.003472 0.000000
# 2 -0.005746 0.019363 -0.001157 0.000000 -0.001379 0.000000
# 3 -0.003499 -0.001157 0.009746 0.000000 -0.000121 0.000000
# 4 0.000000 0.000000 0.000000 0.075575 0.000000 -0.005572
# 5 -0.003472 -0.001379 -0.000121 0.000000 0.026643 0.000000
# 6 0.000000 0.000000 0.000000 -0.005572 0.000000 0.044817
#
#
# Mechanical properties :
#
#
# Convention : Reuss Voigt Hill
#
# Bulk Modulus (GPa) = 45.52996 52.53557 49.03277
# Shear Modulus (GPa) = 22.94314 27.86930 25.40622
#
# Velocity S-wave (km/s) = 3.18908 3.51481 3.35590
# Velocity P-wave (km/s) = 5.80886 6.30554 6.06229
#
# Compressibility (1/GPa) = 0.02196356
#
# Stress axis : x y z
#
# Youngs Moduli (GPa) = 73.21050 51.64428 102.60360
#
# Poissons Ratio (x) = 0.29676 0.35904
# Poissons Ratio (y) = 0.42069 0.11871
# Poissons Ratio (z) = 0.25618 0.05975
#
# Static dielectric constant tensor:
#      x y z
#    x 1.903240 0.000000 -0.063520 
#    y 0.000000 1.853880 0.000000 
#    z -0.063520 0.000000 2.042530 
# 
# From -- ./inp_files/255175.got.cif
#   From: 2010.05.17/outbox.cif.g08.bks.cpg/sg15_128_cif.got.tgz:255175.got - 2010.06.03 18:47:42.
