data_PCOD9286321
_publ_section_title
;
Structure prediction by ZEFSAII (Michael W. Deem and Ramdas Pophale) SiO2 
 PCOD9286321
Probable space group: C 2/C
;
_chemical_formula_sum "Si O2"
_cell_formula_units_Z 64
_cell_length_a 14.836355
_cell_length_b 15.462421
_cell_length_c 17.502592
_cell_angle_alpha 90.000000
_cell_angle_beta 47.826807
_cell_angle_gamma 90.000000
_cell_volume 2975.739471
_symmetry_space_group_name_H-M "C 2/C"
_symmetry_group_IT_number 15
_symmetry_cell_setting 'monoclinic'
loop_
_space_group_symop_operation_xyz
x,y,z
-x,y,1/2-z
-x,-y,-z
x,-y,1/2+z
1/2+x,1/2+y,z
1/2-x,1/2+y,1/2-z
1/2-x,1/2-y,-z
1/2+x,1/2-y,1/2+z
loop_
_atom_site_type_symbol
_atom_site_label
_atom_site_fract_x
_atom_site_fract_y
_atom_site_fract_z
Si Si1 0.733281 0.256908 0.599168
Si Si2 0.126594 0.178610 0.296035
Si Si3 0.287768 0.345355 0.247615
Si Si4 0.199897 0.529413 0.242087
Si Si5 0.862593 0.568123 0.859344
Si Si6 0.442512 0.973347 0.951670
Si Si7 0.030044 0.209883 0.979818
Si Si8 0.791180 0.698962 0.551625
O O1 0.750000 0.250000 0.500000
O O2 0.635072 0.316221 0.698761
O O3 0.700779 0.155906 0.629815
O O4 0.864394 0.278914 0.561176
O O5 0.191125 0.271042 0.277652
O O6 0.210557 0.102305 0.279767
O O7 0.004696 0.171897 0.416465
O O8 0.227904 0.439648 0.270954
O O9 0.405333 0.343141 0.125318
O O10 0.307442 0.317819 0.324791
O O11 0.205602 0.507313 0.148732
O O12 0.061300 0.555626 0.336676
O O13 0.877572 0.549501 0.940293
O O14 0.000000 0.574123 0.750000
O O15 0.348354 0.895319 0.005995
O O16 0.500000 0.000000 0.000000
O O17 0.904945 0.246947 0.020123
O O18 0.750000 0.750000 0.500000
#
# Coordination Sequence:
#
# PCOD9286321 Si02
#       8
#     8   8   8   8   8   8   8   8
#     4  11  24  39  67 100 137 177 232 283 353 427
#     4  10  23  39  67  96 134 178 231 281 351 427
#     4  10  21  43  66  96 133 178 233 285 355 420
#     4  11  21  43  67  99 137 181 234 293 348 425
#     4  10  24  39  64  98 136 173 226 291 348 410
#     4  11  23  39  69 102 134 178 232 295 355 411
#     4  10  23  43  66  94 134 182 225 287 350 421
#     4  11  25  43  70 102 139 183 235 294 364 435
#
# _framework density 21.507259999999999
#
# number of rings (size 3 to 8) (size 9 to 14) (size 15 to 20)
#    0.000    1.500    3.750    1.500    8.750    1.000 
#    2.250    0.000    0.000    1.500    0.000    0.000 
#    0.000    0.000    0.000    0.000    0.000    0.000 
#
# Total GULP energy -178221.672079 kJ/mol
# GULP energy per Si atom -5569.427252 kJ/mol
# Density = 2.145831 g / cm^3
# Si number density = 21.507260 Si / 1000 Ang^3
#
#
#
# Elastic Constant Matrix: (Units=GPa)
#
#
# Indices 1 2 3 4 5 6 
#
# 1 107.4139 30.0122 41.6489 0.0000 27.6109 0.0000
# 2 30.0122 79.6118 29.5568 0.0000 9.7565 0.0000
# 3 41.6489 29.5568 164.6743 0.0000 19.6517 0.0000
# 4 0.0000 0.0000 0.0000 18.7636 0.0000 -4.4110
# 5 27.6109 9.7565 19.6517 0.0000 41.5168 0.0000
# 6 0.0000 0.0000 0.0000 -4.4110 0.0000 16.3333
#
#
#
# Elastic Compliance Matrix: (Units=1/GPa)
#
#
# Indices 1 2 3 4 5 6 
#
# 1 0.012674 -0.003273 -0.001806 0.000000 -0.006805 0.000000
# 2 -0.003273 0.014485 -0.001723 0.000000 -0.000412 0.000000
# 3 -0.001806 -0.001723 0.007045 0.000000 -0.001729 0.000000
# 4 0.000000 0.000000 0.000000 0.056908 0.000000 0.015368
# 5 -0.006805 -0.000412 -0.001729 0.000000 0.029527 0.000000
# 6 0.000000 0.000000 0.000000 0.015368 0.000000 0.065375
#
#
# Mechanical properties :
#
#
# Convention : Reuss Voigt Hill
#
# Bulk Modulus (GPa) = 48.54500 61.57064 55.05782
# Shear Modulus (GPa) = 24.21493 32.02153 28.11823
#
# Velocity S-wave (km/s) = 3.35908 3.86277 3.61970
# Velocity P-wave (km/s) = 6.13718 6.97027 6.56695
#
# Compressibility (1/GPa) = 0.02059944
#
# Stress axis : x y z
#
# Youngs Moduli (GPa) = 78.90327 69.03676 141.94757
#
# Poissons Ratio (x) = 0.22599 0.25633
# Poissons Ratio (y) = 0.25828 0.24455
# Poissons Ratio (z) = 0.14249 0.11894
#
# Static dielectric constant tensor:
#      x y z
#    x 1.844660 0.000000 0.088430 
#    y 0.000000 1.825190 0.000000 
#    z 0.088430 0.000000 1.926620 
# 
# From -- ./inp_files/205688.got.cif
#   From: 2010.05.17/outbox.cif.g08.bks.cpg/sg15_103_cif.got.tgz:205688.got - 2010.06.03 18:47:42.
