data_PCOD9286200
_publ_section_title
;
Structure prediction by ZEFSAII (Michael W. Deem and Ramdas Pophale) SiO2 
 PCOD9286200
Probable space group: C 2/C
;
_chemical_formula_sum "Si O2"
_cell_formula_units_Z 48
_cell_length_a 15.479032
_cell_length_b 11.026887
_cell_length_c 28.896187
_cell_angle_alpha 90.000000
_cell_angle_beta 151.968216
_cell_angle_gamma 90.000000
_cell_volume 2317.924848
_symmetry_space_group_name_H-M "C 2/C"
_symmetry_group_IT_number 15
_symmetry_cell_setting 'monoclinic'
loop_
_space_group_symop_operation_xyz
x,y,z
-x,y,1/2-z
-x,-y,-z
x,-y,1/2+z
1/2+x,1/2+y,z
1/2-x,1/2+y,1/2-z
1/2-x,1/2-y,-z
1/2+x,1/2-y,1/2+z
loop_
_atom_site_type_symbol
_atom_site_label
_atom_site_fract_x
_atom_site_fract_y
_atom_site_fract_z
Si Si1 0.478857 0.054267 0.937537
Si Si2 0.647654 0.918198 0.785085
Si Si3 0.285094 0.603830 0.250463
Si Si4 0.197839 0.106014 0.476616
Si Si5 0.161089 0.695659 0.794780
Si Si6 0.467528 0.332596 0.512012
O O1 0.467836 0.200442 0.937912
O O2 0.312886 0.988895 0.831411
O O3 0.654144 0.039353 0.985664
O O4 0.500000 0.000000 0.000000
O O5 0.500000 0.861508 0.750000
O O6 0.671996 0.875312 0.744093
O O7 0.845837 0.906613 0.902939
O O8 0.602377 0.059406 0.757219
O O9 0.494761 0.570809 0.362529
O O10 0.309542 0.731627 0.237354
O O11 0.250000 0.250000 0.500000
O O12 0.170575 0.095156 0.518893
O O13 0.000000 0.753726 0.750000
O O14 0.351377 0.695186 0.912065
#
# Coordination Sequence:
#
# PCOD9286200 Si02
#       6
#     8   8   8   8   8   8
#     4  11  22  39  63 100 136 167 216 280 329 393
#     4  10  25  43  65  91 128 173 218 272 332 393
#     4  11  24  40  67  98 128 171 225 272 334 384
#     4   9  21  39  66  89 127 175 222 264 315 396
#     4  11  22  40  70  92 122 171 226 262 314 407
#     4  10  21  43  63  91 130 170 220 266 327 395
#
# _framework density 20.708179000000001
#
# number of rings (size 3 to 8) (size 9 to 14) (size 15 to 20)
#    0.000    1.667    1.667    2.500   11.667    0.000 
#    3.000    0.833    0.000    0.000    0.000    0.000 
#    0.000    0.000    0.000    0.000    0.000    0.000 
#
# Total GULP energy -133807.682432 kJ/mol
# GULP energy per Si atom -5575.320101 kJ/mol
# Density = 2.066105 g / cm^3
# Si number density = 20.708179 Si / 1000 Ang^3
#
#
#
# Elastic Constant Matrix: (Units=GPa)
#
#
# Indices 1 2 3 4 5 6 
#
# 1 135.3144 37.1414 8.5535 0.0001 10.9708 0.0001
# 2 37.1414 49.5506 10.6565 -0.0001 -0.6468 0.0000
# 3 8.5535 10.6565 54.7876 -0.0002 3.7968 -0.0001
# 4 0.0001 -0.0001 -0.0002 32.9246 0.0000 -16.3667
# 5 10.9708 -0.6468 3.7968 0.0000 31.5065 0.0000
# 6 0.0001 0.0000 -0.0001 -16.3667 0.0000 71.1893
#
#
#
# Elastic Compliance Matrix: (Units=1/GPa)
#
#
# Indices 1 2 3 4 5 6 
#
# 1 0.009681 -0.007338 0.000161 0.000000 -0.003541 0.000000
# 2 -0.007338 0.026651 -0.004289 0.000000 0.003619 0.000000
# 3 0.000161 -0.004289 0.019232 0.000000 -0.002462 0.000000
# 4 0.000000 0.000000 0.000000 0.034291 0.000000 0.007884
# 5 -0.003541 0.003619 -0.002462 0.000000 0.033343 0.000000
# 6 0.000000 0.000000 0.000000 0.007884 0.000000 0.015860
#
#
# Mechanical properties :
#
#
# Convention : Reuss Voigt Hill
#
# Bulk Modulus (GPa) = 30.64348 39.15057 34.89703
# Shear Modulus (GPa) = 28.92397 39.34417 34.13407
#
# Velocity S-wave (km/s) = 3.74135 4.36355 4.06438
# Velocity P-wave (km/s) = 5.78736 6.65840 6.23810
#
# Compressibility (1/GPa) = 0.03263337
#
# Stress axis : x y z
#
# Youngs Moduli (GPa) = 103.29381 37.52206 51.99670
#
# Poissons Ratio (x) = 0.27532 -0.00838
# Poissons Ratio (y) = 0.75792 0.22301
# Poissons Ratio (z) = -0.01665 0.16093
#
# Static dielectric constant tensor:
#      x y z
#    x 1.747610 0.000000 -0.087530 
#    y 0.000000 1.768740 0.000000 
#    z -0.087530 0.000000 1.569660 
# 
# From -- ./inp_files/177757.got.cif
#   From: 2010.05.17/outbox.cif.g08.bks.cpg/sg15_89_cif.got.tgz:177757.got - 2010.06.03 18:47:42.
