data_PCOD9286086
_publ_section_title
;
Structure prediction by ZEFSAII (Michael W. Deem and Ramdas Pophale) SiO2 
 PCOD9286086
Probable space group: C 2/C
;
_chemical_formula_sum "Si O2"
_cell_formula_units_Z 52
_cell_length_a 10.867156
_cell_length_b 28.670260
_cell_length_c 13.676767
_cell_angle_alpha 90.000000
_cell_angle_beta 144.747058
_cell_angle_gamma 90.000000
_cell_volume 2459.504456
_symmetry_space_group_name_H-M "C 2/C"
_symmetry_group_IT_number 15
_symmetry_cell_setting 'monoclinic'
loop_
_space_group_symop_operation_xyz
x,y,z
-x,y,1/2-z
-x,-y,-z
x,-y,1/2+z
1/2+x,1/2+y,z
1/2-x,1/2+y,1/2-z
1/2-x,1/2-y,-z
1/2+x,1/2-y,1/2+z
loop_
_atom_site_type_symbol
_atom_site_label
_atom_site_fract_x
_atom_site_fract_y
_atom_site_fract_z
Si Si1 0.000000 0.486546 0.250000
Si Si2 0.880078 0.948577 0.071786
Si Si3 0.062452 0.735219 0.947749
Si Si4 0.816928 0.294183 0.767524
Si Si5 0.000000 0.338604 0.250000
Si Si6 0.863488 0.362904 0.492851
Si Si7 0.207777 0.590073 0.762792
Si Si8 0.500000 0.715923 0.750000
O O1 0.937645 0.453653 0.300999
O O2 0.209252 0.516186 0.414856
O O3 0.747539 0.903503 0.019451
O O4 0.000000 0.965644 0.250000
O O5 0.061441 0.930172 0.115343
O O6 0.951815 0.697284 0.807304
O O7 0.925565 0.778136 0.900649
O O8 0.250000 0.750000 0.000000
O O9 0.152964 0.708373 0.097612
O O10 0.949621 0.252201 0.803926
O O11 0.921288 0.344070 0.815259
O O12 0.810783 0.375528 0.154521
O O13 0.875228 0.383185 0.389351
O O14 0.702781 0.318231 0.390297
#
# Coordination Sequence:
#
# PCOD9286086 Si02
#       8
#     4   8   8   8   4   8   8   4
#     4  11  24  43  74 104 120 176 228 265 368 435
#     4  10  23  44  69  98 138 168 219 292 344 417
#     4  12  24  39  61  90 130 180 226 279 315 386
#     4  12  24  40  63  91 132 179 230 269 323 399
#     4  11  20  38  66  89 126 181 224 252 348 393
#     4  11  22  40  63  97 130 175 216 276 338 384
#     4  10  21  42  71  91 133 173 212 278 346 416
#     4  12  22  41  64  93 134 183 224 265 344 374
#
# _framework density 21.142471
#
# number of rings (size 3 to 8) (size 9 to 14) (size 15 to 20)
#    0.000    0.923    6.923    0.923    0.000    3.077 
#    2.769    0.000    3.385    0.000    0.000    0.000 
#    0.000    0.000    0.000    0.000    0.000    0.000 
#
# Total GULP energy -144757.856376 kJ/mol
# GULP energy per Si atom -5567.609861 kJ/mol
# Density = 2.109435 g / cm^3
# Si number density = 21.142471 Si / 1000 Ang^3
#
#
#
# Elastic Constant Matrix: (Units=GPa)
#
#
# Indices 1 2 3 4 5 6 
#
# 1 129.0717 46.3380 15.7191 0.0000 11.4531 0.0000
# 2 46.3380 102.4452 27.4014 0.0000 18.7605 0.0000
# 3 15.7191 27.4014 45.2360 0.0000 14.9934 0.0000
# 4 0.0000 0.0000 0.0000 29.7208 0.0000 0.2072
# 5 11.4531 18.7605 14.9934 0.0000 28.1400 0.0000
# 6 0.0000 0.0000 0.0000 0.2072 0.0000 29.8490
#
#
#
# Elastic Compliance Matrix: (Units=1/GPa)
#
#
# Indices 1 2 3 4 5 6 
#
# 1 0.009292 -0.003886 -0.000583 0.000000 -0.000881 0.000000
# 2 -0.003886 0.013849 -0.005468 0.000000 -0.004738 0.000000
# 3 -0.000583 -0.005468 0.029554 0.000000 -0.011863 0.000000
# 4 0.000000 0.000000 0.000000 0.033648 0.000000 -0.000234
# 5 -0.000881 -0.004738 -0.011863 0.000000 0.045375 0.000000
# 6 0.000000 0.000000 0.000000 -0.000234 0.000000 0.033504
#
#
# Mechanical properties :
#
#
# Convention : Reuss Voigt Hill
#
# Bulk Modulus (GPa) = 30.46940 50.62998 40.54969
# Shear Modulus (GPa) = 25.50561 30.02827 27.76694
#
# Velocity S-wave (km/s) = 3.47705 3.77275 3.62791
# Velocity P-wave (km/s) = 5.52834 6.55570 6.06382
#
# Compressibility (1/GPa) = 0.03281982
#
# Stress axis : x y z
#
# Youngs Moduli (GPa) = 107.62224 72.20662 33.83690
#
# Poissons Ratio (x) = 0.28056 0.01974
# Poissons Ratio (y) = 0.41817 0.18504
# Poissons Ratio (z) = 0.06277 0.39486
#
# Static dielectric constant tensor:
#      x y z
#    x 1.746840 0.000000 -0.031080 
#    y 0.000000 1.735090 0.000000 
#    z -0.031080 0.000000 1.820050 
# 
# From -- ./inp_files/148159.got.cif
#   From: 2010.05.17/outbox.cif.g08.bks.cpg/sg15_75_cif.got.tgz:148159.got - 2010.06.03 18:47:42.
