data_PCOD9286906
_publ_section_title
;
Structure prediction by ZEFSAII (Michael W. Deem and Ramdas Pophale) SiO2 
 PCOD9286906
Probable space group: C 2/C
;
_chemical_formula_sum "Si O2"
_cell_formula_units_Z 32
_cell_length_a 28.557591
_cell_length_b 5.405798
_cell_length_c 9.401448
_cell_angle_alpha 90.000000
_cell_angle_beta 126.503248
_cell_angle_gamma 90.000000
_cell_volume 1166.639388
_symmetry_space_group_name_H-M "C 2/C"
_symmetry_group_IT_number 15
_symmetry_cell_setting 'monoclinic'
loop_
_space_group_symop_operation_xyz
x,y,z
-x,y,1/2-z
-x,-y,-z
x,-y,1/2+z
1/2+x,1/2+y,z
1/2-x,1/2+y,1/2-z
1/2-x,1/2-y,-z
1/2+x,1/2-y,1/2+z
loop_
_atom_site_type_symbol
_atom_site_label
_atom_site_fract_x
_atom_site_fract_y
_atom_site_fract_z
Si Si1 0.033829 0.148112 0.935061
Si Si2 0.363535 0.017806 0.737374
Si Si3 0.741482 0.470958 0.149474
Si Si4 0.878956 0.799055 0.514669
O O1 0.062680 0.947626 0.882033
O O2 0.000000 0.305181 0.750000
O O3 0.086606 0.303058 0.104456
O O4 0.000000 0.000000 0.000000
O O5 0.294775 0.076716 0.637955
O O6 0.375669 0.041879 0.593363
O O7 0.370110 0.763793 0.833390
O O8 0.750575 0.746933 0.224221
O O9 0.672400 0.452005 0.002229
#
# Coordination Sequence:
#
# PCOD9286906 Si02
#       4
#     8   8   8   8
#     4  12  26  46  70  99 145 192 241 299 364 448
#     4  11  25  45  70 105 143 190 242 305 371 442
#     4  10  21  44  75 112 150 192 246 313 379 443
#     4  11  25  45  70 106 142 190 243 304 373 442
#
# _framework density 27.429216
#
# number of rings (size 3 to 8) (size 9 to 14) (size 15 to 20)
#    0.000    1.000    5.000    0.750    3.500    2.000 
#    0.000    6.250    0.000    0.000    0.000    0.000 
#    0.000    0.000    0.000    0.000    0.000    0.000 
#
# Total GULP energy -89343.572645 kJ/mol
# GULP energy per Si atom -5583.973290 kJ/mol
# Density = 2.736679 g / cm^3
# Si number density = 27.429216 Si / 1000 Ang^3
#
#
#
# Elastic Constant Matrix: (Units=GPa)
#
#
# Indices 1 2 3 4 5 6 
#
# 1 184.4413 30.2763 53.2360 0.0000 24.4724 0.0000
# 2 30.2763 69.3342 27.0550 0.0000 2.3268 0.0000
# 3 53.2360 27.0550 116.0470 0.0000 1.3592 0.0000
# 4 0.0000 0.0000 0.0000 41.6420 0.0000 9.0785
# 5 24.4724 2.3268 1.3592 0.0000 41.4393 0.0000
# 6 0.0000 0.0000 0.0000 9.0785 0.0000 43.1429
#
#
#
# Elastic Compliance Matrix: (Units=1/GPa)
#
#
# Indices 1 2 3 4 5 6 
#
# 1 0.007050 -0.001872 -0.002751 0.000000 -0.003968 0.000000
# 2 -0.001872 0.016388 -0.002965 0.000000 0.000282 0.000000
# 3 -0.002751 -0.002965 0.010554 0.000000 0.001445 0.000000
# 4 0.000000 0.000000 0.000000 0.025169 0.000000 -0.005296
# 5 -0.003968 0.000282 0.001445 0.000000 0.026412 0.000000
# 6 0.000000 0.000000 0.000000 -0.005296 0.000000 0.024293
#
#
# Mechanical properties :
#
#
# Convention : Reuss Voigt Hill
#
# Bulk Modulus (GPa) = 53.14955 65.66190 59.40573
# Shear Modulus (GPa) = 38.07707 42.52852 40.30279
#
# Velocity S-wave (km/s) = 3.72989 3.94189 3.83735
# Velocity P-wave (km/s) = 6.16186 6.68645 6.42951
#
# Compressibility (1/GPa) = 0.01881483
#
# Stress axis : x y z
#
# Youngs Moduli (GPa) = 141.85299 61.02097 94.75385
#
# Poissons Ratio (x) = 0.11421 0.26068
# Poissons Ratio (y) = 0.26550 0.28097
# Poissons Ratio (z) = 0.39025 0.18095
#
# Static dielectric constant tensor:
#      x y z
#    x 2.116210 0.000000 0.100880 
#    y 0.000000 2.128290 0.000000 
#    z 0.100880 0.000000 2.320200 
# 
# From -- ./inp_files/120610.got.cif
#   From: 2010.05.17/outbox.cif.g08.bks.cpg/sg15_61_cif.got.tgz:120610.got - 2010.06.03 18:47:42.
