data_PCOD9286925
_publ_section_title
;
Structure prediction by ZEFSAII (Michael W. Deem and Ramdas Pophale) SiO2 
 PCOD9286925
Probable space group: C 2/C
;
_chemical_formula_sum "Si O2"
_cell_formula_units_Z 40
_cell_length_a 14.497886
_cell_length_b 11.328749
_cell_length_c 12.174362
_cell_angle_alpha 90.000000
_cell_angle_beta 60.064132
_cell_angle_gamma 90.000000
_cell_volume 1732.781380
_symmetry_space_group_name_H-M "C 2/C"
_symmetry_group_IT_number 15
_symmetry_cell_setting 'monoclinic'
loop_
_space_group_symop_operation_xyz
x,y,z
-x,y,1/2-z
-x,-y,-z
x,-y,1/2+z
1/2+x,1/2+y,z
1/2-x,1/2+y,1/2-z
1/2-x,1/2-y,-z
1/2+x,1/2-y,1/2+z
loop_
_atom_site_type_symbol
_atom_site_label
_atom_site_fract_x
_atom_site_fract_y
_atom_site_fract_z
Si Si1 0.887307 0.469792 0.620695
Si Si2 0.000000 0.550129 0.250000
Si Si3 0.000000 0.154027 0.250000
Si Si4 0.439259 0.290373 0.025152
Si Si5 0.375687 0.263506 0.423043
Si Si6 0.848609 0.047856 0.753176
O O1 0.776641 0.526896 0.654200
O O2 0.000000 0.500000 0.500000
O O3 0.914066 0.514254 0.727747
O O4 0.882372 0.327832 0.607138
O O5 0.927992 0.638917 0.362985
O O6 0.051399 0.216954 0.112308
O O7 0.911321 0.070244 0.246671
O O8 0.623410 0.598408 0.884603
O O9 0.558007 0.300161 0.008445
O O10 0.250000 0.250000 0.500000
O O11 0.389294 0.354539 0.315121
#
# Coordination Sequence:
#
# PCOD9286925 Si02
#       6
#     8   4   4   8   8   8
#     4  11  26  44  71 105 142 193 241 295 369 432
#     4  10  21  45  64 100 138 180 245 281 346 436
#     4  12  27  43  74 106 150 186 235 311 368 430
#     4  11  25  48  68 109 148 185 248 298 367 432
#     4  11  21  41  75  97 134 187 239 300 345 425
#     4  12  23  44  72 108 140 188 246 298 359 435
#
# _framework density 23.084274000000001
#
# number of rings (size 3 to 8) (size 9 to 14) (size 15 to 20)
#    0.000    0.800    6.000    3.000    2.800    4.800 
#    0.000    0.000    0.000    0.000    0.000    0.000 
#    0.000    0.000    0.000    0.000    0.000    0.000 
#
# Total GULP energy -111599.707329 kJ/mol
# GULP energy per Si atom -5579.985366 kJ/mol
# Density = 2.303173 g / cm^3
# Si number density = 23.084274 Si / 1000 Ang^3
#
#
#
# Elastic Constant Matrix: (Units=GPa)
#
#
# Indices 1 2 3 4 5 6 
#
# 1 157.1578 35.8489 46.1862 0.0000 -25.0444 0.0000
# 2 35.8489 32.8768 11.5285 0.0000 0.3405 0.0000
# 3 46.1862 11.5285 108.5669 0.0000 9.3394 0.0000
# 4 0.0000 0.0000 0.0000 28.3539 0.0000 -2.3687
# 5 -25.0444 0.3405 9.3394 0.0000 48.1995 0.0000
# 6 0.0000 0.0000 0.0000 -2.3687 0.0000 35.6239
#
#
#
# Elastic Compliance Matrix: (Units=1/GPa)
#
#
# Indices 1 2 3 4 5 6 
#
# 1 0.011079 -0.010695 -0.004149 0.000000 0.006636 0.000000
# 2 -0.010695 0.041926 0.000612 0.000000 -0.005972 0.000000
# 3 -0.004149 0.000612 0.011285 0.000000 -0.004347 0.000000
# 4 0.000000 0.000000 0.000000 0.035465 0.000000 0.002358
# 5 0.006636 -0.005972 -0.004347 0.000000 0.025080 0.000000
# 6 0.000000 0.000000 0.000000 0.002358 0.000000 0.028228
#
#
# Mechanical properties :
#
#
# Convention : Reuss Voigt Hill
#
# Bulk Modulus (GPa) = 27.91276 53.96984 40.94130
# Shear Modulus (GPa) = 25.84396 36.10467 30.97432
#
# Velocity S-wave (km/s) = 3.34960 3.95908 3.66702
# Velocity P-wave (km/s) = 5.20362 6.65803 5.97524
#
# Compressibility (1/GPa) = 0.03582591
#
# Stress axis : x y z
#
# Youngs Moduli (GPa) = 90.25780 23.85168 88.61513
#
# Poissons Ratio (x) = 0.25509 0.36763
# Poissons Ratio (y) = 0.96530 -0.05419
# Poissons Ratio (z) = 0.37444 -0.01459
#
# Static dielectric constant tensor:
#      x y z
#    x 1.833950 0.000000 0.099260 
#    y 0.000000 1.914230 0.000000 
#    z 0.099260 0.000000 2.024320 
# 
# From -- ./inp_files/94931.got.cif
#   From: 2010.05.17/outbox.cif.g08.bks.cpg/sg15_48_cif.got.tgz:94931.got - 2010.06.03 18:47:42.
