data_PCOD9286481
_publ_section_title
;
Structure prediction by ZEFSAII (Michael W. Deem and Ramdas Pophale) SiO2 
 PCOD9286481
Probable space group: C 2/C
;
_chemical_formula_sum "Si O2"
_cell_formula_units_Z 60
_cell_length_a 6.933585
_cell_length_b 12.903749
_cell_length_c 27.621249
_cell_angle_alpha 90.000000
_cell_angle_beta 94.097893
_cell_angle_gamma 90.000000
_cell_volume 2464.934195
_symmetry_space_group_name_H-M "C 2/C"
_symmetry_group_IT_number 15
_symmetry_cell_setting 'monoclinic'
loop_
_space_group_symop_operation_xyz
x,y,z
-x,y,1/2-z
-x,-y,-z
x,-y,1/2+z
1/2+x,1/2+y,z
1/2-x,1/2+y,1/2-z
1/2-x,1/2-y,-z
1/2+x,1/2-y,1/2+z
loop_
_atom_site_type_symbol
_atom_site_label
_atom_site_fract_x
_atom_site_fract_y
_atom_site_fract_z
Si Si1 0.207975 0.129362 0.186446
Si Si2 0.000000 0.289802 0.250000
Si Si3 0.989802 0.428482 0.621565
Si Si4 0.719405 0.369837 0.108368
Si Si5 0.134658 0.901928 0.208814
Si Si6 0.787399 0.917671 0.496014
Si Si7 0.131163 0.648197 0.484001
Si Si8 0.388992 0.640525 0.101684
O O1 0.130833 0.222060 0.216699
O O2 0.425893 0.124912 0.170605
O O3 0.082391 0.125334 0.134953
O O4 0.160363 0.024653 0.213765
O O5 0.151662 0.355790 0.282650
O O6 0.881843 0.539324 0.616658
O O7 0.919726 0.361662 0.573938
O O8 0.080086 0.358283 0.494554
O O9 0.579054 0.377520 0.152262
O O10 0.814902 0.257219 0.108345
O O11 0.624607 0.391252 0.054486
O O12 0.000000 0.864559 0.250000
O O13 0.719519 0.932686 0.619983
O O14 0.734863 0.039200 0.498754
O O15 0.250000 0.750000 0.500000
O O16 0.595913 0.616678 0.454763
#
# Coordination Sequence:
#
# PCOD9286481 Si02
#       8
#     8   4   8   8   8   8   8   8
#     4  11  25  48  71 104 138 176 238 283 344 429
#     4  12  26  48  72  96 138 182 222 294 364 386
#     4   9  23  43  63 101 142 176 231 287 331 410
#     4  10  21  43  69  98 141 183 230 277 348 411
#     4  11  26  48  72 105 134 178 239 290 343 421
#     4   9  20  39  63  98 145 181 225 284 335 412
#     4   9  18  36  62  96 135 188 232 267 336 402
#     4  11  22  44  72 103 140 190 223 282 355 406
#
# _framework density 24.341419999999999
#
# number of rings (size 3 to 8) (size 9 to 14) (size 15 to 20)
#    0.000    1.867    2.000    1.200    3.733    2.133 
#   10.800    3.333    0.000    0.000    0.000    0.000 
#    0.000    0.000    0.000    0.000    0.000    0.000 
#
# Total GULP energy -168045.010964 kJ/mol
# GULP energy per Si atom -5601.500365 kJ/mol
# Density = 2.428602 g / cm^3
# Si number density = 24.341420 Si / 1000 Ang^3
#
#
#
# Elastic Constant Matrix: (Units=GPa)
#
#
# Indices 1 2 3 4 5 6 
#
# 1 59.0051 22.5560 32.7355 0.0000 -14.1786 0.0000
# 2 22.5560 112.0030 16.8362 0.0000 2.6109 0.0000
# 3 32.7355 16.8362 147.2898 0.0000 -32.0725 0.0000
# 4 0.0000 0.0000 0.0000 34.8214 0.0000 -6.5737
# 5 -14.1786 2.6109 -32.0725 0.0000 34.5038 0.0000
# 6 0.0000 0.0000 0.0000 -6.5737 0.0000 30.2297
#
#
#
# Elastic Compliance Matrix: (Units=1/GPa)
#
#
# Indices 1 2 3 4 5 6 
#
# 1 0.021699 -0.004079 -0.002943 0.000000 0.006489 0.000000
# 2 -0.004079 0.009971 -0.000956 0.000000 -0.003319 0.000000
# 3 -0.002943 -0.000956 0.009159 0.000000 0.007376 0.000000
# 4 0.000000 0.000000 0.000000 0.029947 0.000000 0.006512
# 5 0.006489 -0.003319 0.007376 0.000000 0.038757 0.000000
# 6 0.000000 0.000000 0.000000 0.006512 0.000000 0.034496
#
#
# Mechanical properties :
#
#
# Convention : Reuss Voigt Hill
#
# Bulk Modulus (GPa) = 40.20459 51.39483 45.79971
# Shear Modulus (GPa) = 29.71297 36.32232 33.01765
#
# Velocity S-wave (km/s) = 3.49761 3.86709 3.68698
# Velocity P-wave (km/s) = 5.73270 6.41087 6.08124
#
# Compressibility (1/GPa) = 0.02487278
#
# Stress axis : x y z
#
# Youngs Moduli (GPa) = 46.08459 100.29263 109.18215
#
# Poissons Ratio (x) = 0.40907 0.32137
# Poissons Ratio (y) = 0.18797 0.10437
# Poissons Ratio (z) = 0.13564 0.09588
#
# Static dielectric constant tensor:
#      x y z
#    x 1.819040 0.000000 -0.056050 
#    y 0.000000 1.926440 0.000000 
#    z -0.056050 0.000000 1.950660 
# 
# From -- ./inp_files/288417.got.cif
#   From: 2010.05.17/outbox.cif.g08.bks.cpg/sg15_145_cif.got.tgz:288417.got - 2010.06.03 18:47:42.
