data_PCOD9286269
_publ_section_title
;
Structure prediction by ZEFSAII (Michael W. Deem and Ramdas Pophale) SiO2 
 PCOD9286269
Probable space group: C 2/C
;
_chemical_formula_sum "Si O2"
_cell_formula_units_Z 40
_cell_length_a 17.903266
_cell_length_b 11.115924
_cell_length_c 8.267523
_cell_angle_alpha 90.000000
_cell_angle_beta 103.757783
_cell_angle_gamma 90.000000
_cell_volume 1598.125951
_symmetry_space_group_name_H-M "C 2/C"
_symmetry_group_IT_number 15
_symmetry_cell_setting 'monoclinic'
loop_
_space_group_symop_operation_xyz
x,y,z
-x,y,1/2-z
-x,-y,-z
x,-y,1/2+z
1/2+x,1/2+y,z
1/2-x,1/2+y,1/2-z
1/2-x,1/2-y,-z
1/2+x,1/2-y,1/2+z
loop_
_atom_site_type_symbol
_atom_site_label
_atom_site_fract_x
_atom_site_fract_y
_atom_site_fract_z
Si Si1 0.446257 0.652887 0.070691
Si Si2 0.326053 0.739048 0.802430
Si Si3 0.915488 0.129931 0.548257
Si Si4 0.092605 0.449909 0.823054
Si Si5 0.149305 0.675587 0.686605
O O1 0.500000 0.684267 0.250000
O O2 0.429704 0.511244 0.061405
O O3 0.364577 0.710176 0.993672
O O4 0.499657 0.683047 0.942299
O O5 0.368376 0.666092 0.680230
O O6 0.351246 0.874705 0.769502
O O7 0.240153 0.689484 0.754804
O O8 0.871596 0.185564 0.370922
O O9 0.111258 0.589781 0.801936
O O10 0.000000 0.434040 0.750000
O O11 0.119051 0.395513 0.009140
#
# Coordination Sequence:
#
# PCOD9286269 Si02
#       5
#     8   8   8   8   8
#     4  11  23  40  70 105 135 178 234 290 337 411
#     4  11  24  43  71  98 144 183 229 282 355 416
#     4  10  21  43  65  95 138 186 223 275 344 424
#     4  11  24  48  72  99 136 196 235 277 346 430
#     4  11  26  43  72 101 142 180 233 289 348 413
#
# _framework density 25.029316000000001
#
# number of rings (size 3 to 8) (size 9 to 14) (size 15 to 20)
#    0.000    1.200    0.000    8.400    5.600    3.200 
#    0.000    2.000    0.000    0.000    0.000    0.000 
#    0.000    0.000    0.000    0.000    0.000    0.000 
#
# Total GULP energy -111627.824002 kJ/mol
# GULP energy per Si atom -5581.391200 kJ/mol
# Density = 2.497235 g / cm^3
# Si number density = 25.029316 Si / 1000 Ang^3
#
#
#
# Elastic Constant Matrix: (Units=GPa)
#
#
# Indices 1 2 3 4 5 6 
#
# 1 157.0188 47.7359 60.1843 0.0000 43.2045 0.0000
# 2 47.7359 58.4676 26.9604 0.0000 9.2062 0.0000
# 3 60.1843 26.9604 94.3388 0.0000 32.0989 0.0000
# 4 0.0000 0.0000 0.0000 32.1384 0.0000 -5.0260
# 5 43.2045 9.2062 32.0989 0.0000 49.6106 0.0000
# 6 0.0000 0.0000 0.0000 -5.0260 0.0000 30.4243
#
#
#
# Elastic Compliance Matrix: (Units=1/GPa)
#
#
# Indices 1 2 3 4 5 6 
#
# 1 0.011504 -0.006916 -0.003065 0.000000 -0.006752 0.000000
# 2 -0.006916 0.023857 -0.003781 0.000000 0.004042 0.000000
# 3 -0.003065 -0.003781 0.016015 0.000000 -0.006991 0.000000
# 4 0.000000 0.000000 0.000000 0.031941 0.000000 0.005276
# 5 -0.006752 0.004042 -0.006991 0.000000 0.029810 0.000000
# 6 0.000000 0.000000 0.000000 0.005276 0.000000 0.033740
#
#
# Mechanical properties :
#
#
# Convention : Reuss Voigt Hill
#
# Bulk Modulus (GPa) = 41.92696 64.39849 53.16272
# Shear Modulus (GPa) = 27.42113 34.09764 30.75938
#
# Velocity S-wave (km/s) = 3.31352 3.69495 3.50942
# Velocity P-wave (km/s) = 5.60595 6.63239 6.14066
#
# Compressibility (1/GPa) = 0.02385100
#
# Stress axis : x y z
#
# Youngs Moduli (GPa) = 86.92769 41.91643 62.44211
#
# Poissons Ratio (x) = 0.28988 0.19140
# Poissons Ratio (y) = 0.60117 0.23611
# Poissons Ratio (z) = 0.26646 0.15850
#
# Static dielectric constant tensor:
#      x y z
#    x 2.097590 0.000000 -0.125320 
#    y 0.000000 2.020910 0.000000 
#    z -0.125320 0.000000 2.112290 
# 
# From -- ./inp_files/54225.got.cif
#   From: 2010.05.17/outbox.cif.g08.bks.cpg/sg15_28_cif.got.tgz:54225.got - 2010.06.03 18:47:42.
