data_PCOD9286226
_publ_section_title
;
Structure prediction by ZEFSAII (Michael W. Deem and Ramdas Pophale) SiO2 
 PCOD9286226
Probable space group: C 2/C
;
_chemical_formula_sum "Si O2"
_cell_formula_units_Z 60
_cell_length_a 8.056124
_cell_length_b 27.019635
_cell_length_c 21.504518
_cell_angle_alpha 90.000000
_cell_angle_beta 37.475986
_cell_angle_gamma 90.000000
_cell_volume 2848.033812
_symmetry_space_group_name_H-M "C 2/C"
_symmetry_group_IT_number 15
_symmetry_cell_setting 'monoclinic'
loop_
_space_group_symop_operation_xyz
x,y,z
-x,y,1/2-z
-x,-y,-z
x,-y,1/2+z
1/2+x,1/2+y,z
1/2-x,1/2+y,1/2-z
1/2-x,1/2-y,-z
1/2+x,1/2-y,1/2+z
loop_
_atom_site_type_symbol
_atom_site_label
_atom_site_fract_x
_atom_site_fract_y
_atom_site_fract_z
Si Si1 0.309922 0.911130 0.138042
Si Si2 0.178068 0.450833 0.571905
Si Si3 0.690535 0.949405 0.134530
Si Si4 0.021272 0.786650 0.491692
Si Si5 0.200574 0.248351 0.808755
Si Si6 0.624715 0.202866 0.868935
Si Si7 0.500000 0.000000 0.500000
Si Si8 0.961598 0.350491 0.835304
O O1 0.532344 0.922208 0.125710
O O2 0.315532 0.852169 0.125676
O O3 0.000000 0.924627 0.250000
O O4 0.394449 0.944575 0.055026
O O5 0.487732 0.436534 0.459392
O O6 0.200275 0.491029 0.620883
O O7 0.031462 0.481801 0.562128
O O8 0.003368 0.403813 0.644625
O O9 0.500000 0.938409 0.250000
O O10 0.026974 0.774359 0.416972
O O11 0.320857 0.794654 0.429976
O O12 0.884547 0.742467 0.572507
O O13 0.846576 0.834558 0.558683
O O14 0.500000 0.246747 0.750000
O O15 0.196982 0.219201 0.744221
O O16 0.133220 0.305384 0.813199
O O17 0.000000 0.352477 0.750000
#
# Coordination Sequence:
#
# PCOD9286226 Si02
#       8
#     8   8   8   8   8   8   4   8
#     4  11  24  39  69  97 131 176 221 284 343 403
#     4  10  23  41  67  93 127 174 218 282 351 411
#     4  10  21  43  64  91 129 168 224 283 334 416
#     4  10  22  40  64  94 139 174 229 282 330 416
#     4  10  23  42  61  92 135 175 226 282 335 415
#     4  10  22  41  64  97 136 179 225 283 346 401
#     4  10  24  46  60 100 132 160 236 284 338 418
#     4  12  23  40  65  98 131 177 224 276 348 418
#
# _framework density 21.067163999999998
#
# number of rings (size 3 to 8) (size 9 to 14) (size 15 to 20)
#    0.000    1.600    1.333    2.400    3.733    3.733 
#    0.000    8.000    0.000    0.000    0.000    0.000 
#    0.000    0.000    0.000    0.000    0.000    0.000 
#
# Total GULP energy -167032.468117 kJ/mol
# GULP energy per Si atom -5567.748937 kJ/mol
# Density = 2.101921 g / cm^3
# Si number density = 21.067164 Si / 1000 Ang^3
#
#
#
# Elastic Constant Matrix: (Units=GPa)
#
#
# Indices 1 2 3 4 5 6 
#
# 1 43.9889 12.9447 18.1405 -0.0001 15.1038 0.0000
# 2 12.9447 133.3619 35.3172 -0.0001 15.2180 0.0000
# 3 18.1405 35.3172 96.5926 -0.0002 20.2047 -0.0002
# 4 -0.0001 -0.0001 -0.0002 33.5661 0.0001 2.5356
# 5 15.1038 15.2180 20.2047 0.0001 37.1585 0.0000
# 6 0.0000 0.0000 -0.0002 2.5356 0.0000 20.0770
#
#
#
# Elastic Compliance Matrix: (Units=1/GPa)
#
#
# Indices 1 2 3 4 5 6 
#
# 1 0.027332 -0.000835 -0.002906 0.000000 -0.009187 0.000000
# 2 -0.000835 0.008458 -0.002575 0.000000 -0.001724 0.000000
# 3 -0.002906 -0.002575 0.012832 0.000000 -0.004741 0.000000
# 4 0.000000 0.000000 0.000000 0.030079 0.000000 -0.003799
# 5 -0.009187 -0.001724 -0.004741 0.000000 0.033930 0.000000
# 6 0.000000 0.000000 0.000000 -0.003799 0.000000 0.050288
#
#
# Mechanical properties :
#
#
# Convention : Reuss Voigt Hill
#
# Bulk Modulus (GPa) = 27.78575 45.19425 36.49000
# Shear Modulus (GPa) = 26.65994 31.99641 29.32818
#
# Velocity S-wave (km/s) = 3.56121 3.90138 3.73517
# Velocity P-wave (km/s) = 5.48884 6.46478 5.99670
#
# Compressibility (1/GPa) = 0.03598967
#
# Stress axis : x y z
#
# Youngs Moduli (GPa) = 36.58763 118.22925 77.93142
#
# Poissons Ratio (x) = 0.09872 0.22646
# Poissons Ratio (y) = 0.03055 0.20068
# Poissons Ratio (z) = 0.10632 0.30444
#
# Static dielectric constant tensor:
#      x y z
#    x 1.761080 0.000000 -0.045610 
#    y 0.000000 1.722970 0.000000 
#    z -0.045610 0.000000 1.774860 
# 
# From -- ./inp_files/234537.got.cif
#   From: 2010.05.17/outbox.cif.g08.bks.cpg/sg15_118_cif.got.tgz:234537.got - 2010.06.03 18:47:42.
