data_PCOD9286211
_publ_section_title
;
Structure prediction by ZEFSAII (Michael W. Deem and Ramdas Pophale) SiO2 
 PCOD9286211
Probable space group: C 2/C
;
_chemical_formula_sum "Si O2"
_cell_formula_units_Z 52
_cell_length_a 14.176086
_cell_length_b 19.383221
_cell_length_c 8.876616
_cell_angle_alpha 90.000000
_cell_angle_beta 82.017830
_cell_angle_gamma 90.000000
_cell_volume 2415.468996
_symmetry_space_group_name_H-M "C 2/C"
_symmetry_group_IT_number 15
_symmetry_cell_setting 'monoclinic'
loop_
_space_group_symop_operation_xyz
x,y,z
-x,y,1/2-z
-x,-y,-z
x,-y,1/2+z
1/2+x,1/2+y,z
1/2-x,1/2+y,1/2-z
1/2-x,1/2-y,-z
1/2+x,1/2-y,1/2+z
loop_
_atom_site_type_symbol
_atom_site_label
_atom_site_fract_x
_atom_site_fract_y
_atom_site_fract_z
Si Si1 0.887888 0.675760 0.262372
Si Si2 0.872606 0.557346 0.049359
Si Si3 0.740457 0.172055 0.939590
Si Si4 0.673574 0.449870 0.457591
Si Si5 0.293307 0.298471 0.117523
Si Si6 0.000000 0.466904 0.250000
Si Si7 0.398092 0.563933 0.842613
O O1 0.847772 0.626931 0.141377
O O2 0.842358 0.648595 0.429031
O O3 0.863581 0.752606 0.206786
O O4 0.000000 0.668571 0.250000
O O5 0.927610 0.511933 0.162132
O O6 0.775228 0.528302 0.002321
O O7 0.940087 0.571718 0.891148
O O8 0.720249 0.175378 0.764820
O O9 0.835947 0.125307 0.931906
O O10 0.750000 0.250000 0.000000
O O11 0.662620 0.366807 0.467589
O O12 0.595906 0.497431 0.553659
O O13 0.665588 0.462108 0.282778
O O14 0.250000 0.250000 0.000000
O O15 0.500000 0.585272 0.750000
#
# Coordination Sequence:
#
# PCOD9286211 Si02
#       7
#     8   8   8   8   8   4   8
#     4  11  23  42  67  98 135 182 228 279 353 426
#     4  11  22  40  62  93 137 181 227 287 347 429
#     4   9  23  41  68  95 132 180 221 278 349 409
#     4  11  24  40  68  94 133 179 226 293 348 403
#     4  10  21  43  63  95 133 179 234 287 341 408
#     4  10  24  38  60 100 138 176 228 278 350 434
#     4  11  25  44  68  99 135 179 237 288 351 415
#
# _framework density 21.527909000000001
#
# number of rings (size 3 to 8) (size 9 to 14) (size 15 to 20)
#    0.000    1.538    2.308    1.385    4.308    8.000 
#    0.000    1.538    0.000    0.000    0.000    0.000 
#    0.000    0.000    0.000    0.000    0.000    0.000 
#
# Total GULP energy -144933.849178 kJ/mol
# GULP energy per Si atom -5574.378815 kJ/mol
# Density = 2.147891 g / cm^3
# Si number density = 21.527909 Si / 1000 Ang^3
#
#
#
# Elastic Constant Matrix: (Units=GPa)
#
#
# Indices 1 2 3 4 5 6 
#
# 1 120.6576 21.7078 55.5722 0.0000 -9.0244 0.0000
# 2 21.7078 99.4010 50.4306 0.0000 -14.9253 0.0000
# 3 55.5722 50.4306 131.3919 0.0000 -15.9768 0.0000
# 4 0.0000 0.0000 0.0000 38.6066 0.0000 -11.6034
# 5 -9.0244 -14.9253 -15.9768 0.0000 45.9906 0.0000
# 6 0.0000 0.0000 0.0000 -11.6034 0.0000 -2.0681
#
#
#
# Elastic Compliance Matrix: (Units=1/GPa)
#
#
# Indices 1 2 3 4 5 6 
#
# 1 0.010305 0.000010 -0.004298 0.000000 0.000532 0.000000
# 2 0.000010 0.012773 -0.004597 0.000000 0.002550 0.000000
# 3 -0.004298 -0.004597 0.011390 0.000000 0.001622 0.000000
# 4 0.000000 0.000000 0.000000 0.009642 0.000000 -0.054100
# 5 0.000532 0.002550 0.001622 0.000000 0.023239 0.000000
# 6 0.000000 0.000000 0.000000 -0.054100 0.000000 -0.180000
#
#
# Mechanical properties :
#
#
# Convention : Reuss Voigt Hill
#
# Bulk Modulus (GPa) = 59.88197 67.43019 63.65608
# Shear Modulus (GPa) = -55.98199 31.42181 -12.28009
#
# Velocity S-wave (km/s) = -5.10498 3.82460 -2.39095
# Velocity P-wave (km/s) = 2.62134 7.13398 4.69160
#
# Compressibility (1/GPa) = 0.01669952
#
# Stress axis : x y z
#
# Youngs Moduli (GPa) = 97.03668 78.28938 87.79650
#
# Poissons Ratio (x) = -0.00077 0.37732
# Poissons Ratio (y) = -0.00095 0.40356
# Poissons Ratio (z) = 0.41703 0.35986
#
# Static dielectric constant tensor:
#      x y z
#    x 1.836500 0.000000 -0.040680 
#    y 0.000000 1.882870 0.000000 
#    z -0.040680 0.000000 1.808830 
# 
# From -- ./inp_files/40789.got.cif
#   From: 2010.05.17/outbox.cif.g08.bks.cpg/sg15_21_cif.got.tgz:40789.got - 2010.06.03 18:47:42.
