data_PCOD9286293
_publ_section_title
;
Structure prediction by ZEFSAII (Michael W. Deem and Ramdas Pophale) SiO2 
 PCOD9286293
Probable space group: C 2/C
;
_chemical_formula_sum "Si O2"
_cell_formula_units_Z 64
_cell_length_a 17.408165
_cell_length_b 7.214621
_cell_length_c 24.732569
_cell_angle_alpha 90.000000
_cell_angle_beta 91.885556
_cell_angle_gamma 90.000000
_cell_volume 3104.563374
_symmetry_space_group_name_H-M "C 2/C"
_symmetry_group_IT_number 15
_symmetry_cell_setting 'monoclinic'
loop_
_space_group_symop_operation_xyz
x,y,z
-x,y,1/2-z
-x,-y,-z
x,-y,1/2+z
1/2+x,1/2+y,z
1/2-x,1/2+y,1/2-z
1/2-x,1/2-y,-z
1/2+x,1/2-y,1/2+z
loop_
_atom_site_type_symbol
_atom_site_label
_atom_site_fract_x
_atom_site_fract_y
_atom_site_fract_z
Si Si1 0.670097 0.743776 0.568872
Si Si2 0.260845 0.537506 0.515090
Si Si3 0.390686 0.994201 0.662010
Si Si4 0.456214 0.409278 0.361029
Si Si5 0.273627 0.676676 0.176321
Si Si6 0.036624 0.702732 0.690106
Si Si7 0.623838 0.857280 0.725302
Si Si8 0.862209 0.125320 0.618847
O O1 0.708366 0.583753 0.533815
O O2 0.587964 0.672262 0.587764
O O3 0.717899 0.780030 0.624548
O O4 0.684243 0.933197 0.535547
O O5 0.250000 0.750000 0.500000
O O6 0.324698 0.538340 0.564322
O O7 0.404759 0.865638 0.714482
O O8 0.354692 0.849296 0.619260
O O9 0.333577 0.156604 0.678016
O O10 0.471182 0.095905 0.653730
O O11 0.437413 0.616939 0.341232
O O12 0.425474 0.284953 0.310796
O O13 0.547055 0.406818 0.373334
O O14 0.214881 0.674896 0.224531
O O15 0.318170 0.485458 0.165660
O O16 0.105423 0.559664 0.700485
O O17 0.000000 0.741307 0.750000
#
# Coordination Sequence:
#
# PCOD9286293 Si02
#       8
#     8   8   8   8   8   8   8   8
#     4   9  22  41  63  89 122 152 207 254 317 371
#     4  10  21  43  66  89 118 160 198 261 323 376
#     4  11  22  38  58  89 123 163 209 256 298 370
#     4  11  22  40  63  89 125 166 202 259 303 369
#     4  10  22  40  58  90 121 161 205 257 304 364
#     4  10  22  38  61  85 123 173 210 240 306 359
#     4  10  24  38  57  88 126 164 212 253 298 365
#     4  11  23  37  65  89 121 161 206 252 317 368
#
# _framework density 20.614815
#
# number of rings (size 3 to 8) (size 9 to 14) (size 15 to 20)
#    0.000    1.750    2.500    0.750    3.500    5.500 
#    2.250    0.625    0.000    0.000    0.000    0.000 
#    0.000    0.000    0.000    0.000    0.000    0.000 
#
# Total GULP energy -178564.060447 kJ/mol
# GULP energy per Si atom -5580.126889 kJ/mol
# Density = 2.056789 g / cm^3
# Si number density = 20.614815 Si / 1000 Ang^3
#
#
#
# Elastic Constant Matrix: (Units=GPa)
#
#
# Indices 1 2 3 4 5 6 
#
# 1 87.0755 17.6715 -3.1280 0.0000 -5.8422 0.0000
# 2 17.6715 116.3913 8.8441 0.0000 -7.9234 0.0000
# 3 -3.1280 8.8441 25.3651 0.0000 -12.3246 0.0000
# 4 0.0000 0.0000 0.0000 20.9354 0.0000 -11.0467
# 5 -5.8422 -7.9234 -12.3246 0.0000 16.1980 0.0000
# 6 0.0000 0.0000 0.0000 -11.0467 0.0000 2.0782
#
#
#
# Elastic Compliance Matrix: (Units=1/GPa)
#
#
# Indices 1 2 3 4 5 6 
#
# 1 0.012650 -0.001823 0.006313 0.000000 0.008474 0.000000
# 2 -0.001823 0.009190 -0.002482 0.000000 0.001949 0.000000
# 3 0.006313 -0.002482 0.065976 0.000000 0.051262 0.000000
# 4 0.000000 0.000000 0.000000 -0.026466 0.000000 -0.140683
# 5 0.008474 0.001949 0.051262 0.000000 0.104750 0.000000
# 6 0.000000 0.000000 0.000000 -0.140683 0.000000 -0.266618
#
#
# Mechanical properties :
#
#
# Convention : Reuss Voigt Hill
#
# Bulk Modulus (GPa) = 10.88963 30.62301 20.75632
# Shear Modulus (GPa) = -67.63675 21.53861 -23.04907
#
# Velocity S-wave (km/s) = -5.73420 3.23586 -3.34740
# Velocity P-wave (km/s) = 6.20866 5.37105 2.20219
#
# Compressibility (1/GPa) = 0.09183047
#
# Stress axis : x y z
#
# Youngs Moduli (GPa) = 79.05343 108.81574 15.15711
#
# Poissons Ratio (x) = 0.19842 -0.09569
# Poissons Ratio (y) = 0.14415 0.03762
# Poissons Ratio (z) = -0.49907 0.27008
#
# Static dielectric constant tensor:
#      x y z
#    x 1.766140 0.000000 -0.019540 
#    y 0.000000 1.769400 0.000000 
#    z -0.019540 0.000000 1.780580 
# 
# From -- ./inp_files/315092.got.cif
#   From: 2010.05.17/outbox.cif.g08.bks.cpg/sg15_158_cif.got.tgz:315092.got - 2010.06.03 18:47:42.
