data_PCOD9286784
_publ_section_title
;
Structure prediction by ZEFSAII (Michael W. Deem and Ramdas Pophale) SiO2 
 PCOD9286784
Probable space group: C 2/C
;
_chemical_formula_sum "Si O2"
_cell_formula_units_Z 44
_cell_length_a 28.149262
_cell_length_b 13.535648
_cell_length_c 17.954747
_cell_angle_alpha 90.000000
_cell_angle_beta 160.917650
_cell_angle_gamma 90.000000
_cell_volume 2236.535866
_symmetry_space_group_name_H-M "C 2/C"
_symmetry_group_IT_number 15
_symmetry_cell_setting 'monoclinic'
loop_
_space_group_symop_operation_xyz
x,y,z
-x,y,1/2-z
-x,-y,-z
x,-y,1/2+z
1/2+x,1/2+y,z
1/2-x,1/2+y,1/2-z
1/2-x,1/2-y,-z
1/2+x,1/2-y,1/2+z
loop_
_atom_site_type_symbol
_atom_site_label
_atom_site_fract_x
_atom_site_fract_y
_atom_site_fract_z
Si Si1 0.783938 0.364084 0.055021
Si Si2 0.500000 0.066183 0.750000
Si Si3 0.947393 0.390552 0.445045
Si Si4 0.981141 0.008635 0.883418
Si Si5 0.151384 0.212117 0.785800
Si Si6 0.221560 0.579270 0.658165
O O1 0.918823 0.381032 0.198288
O O2 0.827759 0.375088 0.205283
O O3 0.750000 0.250000 0.000000
O O4 0.652308 0.439282 0.840108
O O5 0.371117 0.002680 0.522492
O O6 0.882461 0.383222 0.431239
O O7 0.000000 0.500000 0.500000
O O8 0.067072 0.303886 0.623617
O O9 0.947447 0.124634 0.823853
O O10 0.000000 0.000000 0.000000
O O11 0.137211 0.966377 0.090668
O O12 0.234012 0.157921 0.839603
O O13 0.250000 0.250000 0.000000
#
# Coordination Sequence:
#
# PCOD9286784 Si02
#       6
#     8   4   8   8   8   8
#     4  12  25  42  70 104 139 180 235 294 357 430
#     4  12  22  44  76  92 136 190 234 286 364 418
#     4  12  26  43  67 107 144 179 239 299 353 435
#     4  10  21  44  68  99 139 184 235 292 352 432
#     4  11  23  44  74 101 138 187 245 293 357 431
#     4  11  24  45  72  98 138 189 232 291 364 422
#
# _framework density 19.673282
#
# number of rings (size 3 to 8) (size 9 to 14) (size 15 to 20)
#    0.000    0.727    5.455    4.364    0.000    5.091 
#    0.000    1.818    0.000    0.000    0.000    0.000 
#    0.000    0.000    0.000    0.000    0.000    0.000 
#
# Total GULP energy -122642.096523 kJ/mol
# GULP energy per Si atom -5574.640751 kJ/mol
# Density = 1.962850 g / cm^3
# Si number density = 19.673282 Si / 1000 Ang^3
#
#
#
# Elastic Constant Matrix: (Units=GPa)
#
#
# Indices 1 2 3 4 5 6 
#
# 1 101.3602 30.2437 9.1927 0.0000 4.0382 0.0000
# 2 30.2437 153.0907 64.8778 0.0000 3.5490 0.0000
# 3 9.1927 64.8778 109.3210 0.0000 -15.1095 0.0000
# 4 0.0000 0.0000 0.0000 45.9236 0.0000 3.9789
# 5 4.0382 3.5490 -15.1095 0.0000 42.6289 0.0000
# 6 0.0000 0.0000 0.0000 3.9789 0.0000 39.0957
#
#
#
# Elastic Compliance Matrix: (Units=1/GPa)
#
#
# Indices 1 2 3 4 5 6 
#
# 1 0.010521 -0.002200 0.000324 0.000000 -0.000699 0.000000
# 2 -0.002200 0.009491 -0.005813 0.000000 -0.002642 0.000000
# 3 0.000324 -0.005813 0.013283 0.000000 0.005161 0.000000
# 4 0.000000 0.000000 0.000000 0.021969 0.000000 -0.002236
# 5 -0.000699 -0.002642 0.005161 0.000000 0.025574 0.000000
# 6 0.000000 0.000000 0.000000 -0.002236 0.000000 0.025806
#
#
# Mechanical properties :
#
#
# Convention : Reuss Voigt Hill
#
# Bulk Modulus (GPa) = 55.80867 63.60004 59.70436
# Shear Modulus (GPa) = 39.06454 42.82680 40.94567
#
# Velocity S-wave (km/s) = 4.46091 4.67079 4.56706
# Velocity P-wave (km/s) = 7.41366 7.84134 7.63050
#
# Compressibility (1/GPa) = 0.01791836
#
# Stress axis : x y z
#
# Youngs Moduli (GPa) = 95.05216 105.35959 75.28279
#
# Poissons Ratio (x) = 0.23174 -0.02440
# Poissons Ratio (y) = 0.20907 0.43762
# Poissons Ratio (z) = -0.03081 0.61245
#
# Static dielectric constant tensor:
#      x y z
#    x 1.670000 0.000000 0.088360 
#    y 0.000000 1.589860 0.000000 
#    z 0.088360 0.000000 1.722090 
# 
# From -- ./inp_files/225221.got.cif
#   From: 2010.05.17/outbox.cif.g08.bks.cpg/sg15_113_cif.got.tgz:225221.got - 2010.06.03 18:47:42.
