data_PCOD9286414
_publ_section_title
;
Structure prediction by ZEFSAII (Michael W. Deem and Ramdas Pophale) SiO2 
 PCOD9286414
Probable space group: C 2/C
;
_chemical_formula_sum "Si O2"
_cell_formula_units_Z 48
_cell_length_a 8.600786
_cell_length_b 15.767016
_cell_length_c 29.280148
_cell_angle_alpha 90.000000
_cell_angle_beta 140.398016
_cell_angle_gamma 90.000000
_cell_volume 2531.089487
_symmetry_space_group_name_H-M "C 2/C"
_symmetry_group_IT_number 15
_symmetry_cell_setting 'monoclinic'
loop_
_space_group_symop_operation_xyz
x,y,z
-x,y,1/2-z
-x,-y,-z
x,-y,1/2+z
1/2+x,1/2+y,z
1/2-x,1/2+y,1/2-z
1/2-x,1/2-y,-z
1/2+x,1/2-y,1/2+z
loop_
_atom_site_type_symbol
_atom_site_label
_atom_site_fract_x
_atom_site_fract_y
_atom_site_fract_z
Si Si1 0.837274 0.580686 0.955489
Si Si2 0.252581 0.785207 0.219832
Si Si3 0.035267 0.954752 0.205098
Si Si4 0.979641 0.194509 0.566856
Si Si5 0.260103 0.718526 0.054075
Si Si6 0.277828 0.368653 0.794743
O O1 0.710311 0.569742 0.877753
O O2 0.624196 0.600801 0.944502
O O3 0.000000 0.500000 0.000000
O O4 0.033278 0.654685 0.004180
O O5 0.500000 0.805247 0.250000
O O6 0.187789 0.867547 0.235112
O O7 0.275391 0.699473 0.253238
O O8 0.062179 0.773854 0.135463
O O9 0.000000 0.975500 0.250000
O O10 0.145441 0.037393 0.204672
O O11 0.750000 0.250000 0.500000
O O12 0.190334 0.210462 0.576891
O O13 0.512604 0.670316 0.124191
O O14 0.250000 0.750000 0.000000
O O15 0.000000 0.370986 0.750000
#
# Coordination Sequence:
#
# PCOD9286414 Si02
#       6
#     8   8   8   8   8   8
#     4  10  21  43  68  93 129 170 215 273 332 398
#     4  11  22  41  69  91 129 171 219 274 330 391
#     4  11  25  42  66  98 133 172 221 275 338 399
#     4   9  21  38  65  90 123 166 210 259 330 384
#     4  11  24  42  65  97 131 171 225 273 330 401
#     4  12  26  42  65  97 137 178 225 276 332 396
#
# _framework density 18.964165000000001
#
# number of rings (size 3 to 8) (size 9 to 14) (size 15 to 20)
#    0.000    1.333    3.333    1.500    9.333    0.000 
#    0.000    0.833    0.000    0.000    0.000    0.000 
#    0.000    0.000    0.000    0.000    0.000    0.000 
#
# Total GULP energy -133711.883985 kJ/mol
# GULP energy per Si atom -5571.328499 kJ/mol
# Density = 1.892100 g / cm^3
# Si number density = 18.964165 Si / 1000 Ang^3
#
#
#
# Elastic Constant Matrix: (Units=GPa)
#
#
# Indices 1 2 3 4 5 6 
#
# 1 87.2794 22.7333 45.7351 0.0000 -5.2608 0.0000
# 2 22.7333 78.7047 31.4447 0.0000 -7.3091 0.0000
# 3 45.7351 31.4447 118.7485 0.0000 3.5554 0.0001
# 4 0.0000 0.0000 0.0000 27.6871 0.0000 -2.8297
# 5 -5.2608 -7.3091 3.5554 0.0000 32.6065 0.0000
# 6 0.0000 0.0000 0.0001 -2.8297 0.0000 19.3328
#
#
#
# Elastic Compliance Matrix: (Units=1/GPa)
#
#
# Indices 1 2 3 4 5 6 
#
# 1 0.014894 -0.001950 -0.005296 0.000000 0.002543 0.000000
# 2 -0.001950 0.014900 -0.003296 0.000000 0.003385 0.000000
# 3 -0.005296 -0.003296 0.011419 0.000000 -0.002838 0.000000
# 4 0.000000 0.000000 0.000000 0.036666 0.000000 0.005367
# 5 0.002543 0.003385 -0.002838 0.000000 0.032147 0.000000
# 6 0.000000 0.000000 0.000000 0.005367 0.000000 0.052511
#
#
# Mechanical properties :
#
#
# Convention : Reuss Voigt Hill
#
# Bulk Modulus (GPa) = 49.67995 53.83987 51.75991
# Shear Modulus (GPa) = 26.27006 28.24657 27.25831
#
# Velocity S-wave (km/s) = 3.72593 3.86355 3.79536
# Velocity P-wave (km/s) = 6.69057 6.95375 6.82343
#
# Compressibility (1/GPa) = 0.02012884
#
# Stress axis : x y z
#
# Youngs Moduli (GPa) = 67.14198 67.11373 87.57610
#
# Poissons Ratio (x) = 0.13086 0.46381
# Poissons Ratio (y) = 0.13092 0.28864
# Poissons Ratio (z) = 0.35559 0.22120
#
# Static dielectric constant tensor:
#      x y z
#    x 1.759150 0.000000 -0.133810 
#    y 0.000000 1.665240 0.000000 
#    z -0.133810 0.000000 1.916570 
# 
# From -- ./inp_files/308120.got.cif
#   From: 2010.05.17/outbox.cif.g08.bks.cpg/sg15_155_cif.got.tgz:308120.got - 2010.06.03 18:47:42.
