data_PCOD9286341
_publ_section_title
;
Structure prediction by ZEFSAII (Michael W. Deem and Ramdas Pophale) SiO2 
 PCOD9286341
Probable space group: C 2/C
;
_chemical_formula_sum "Si O2"
_cell_formula_units_Z 64
_cell_length_a 18.214906
_cell_length_b 14.482201
_cell_length_c 14.831665
_cell_angle_alpha 90.000000
_cell_angle_beta 131.808293
_cell_angle_gamma 90.000000
_cell_volume 2916.277636
_symmetry_space_group_name_H-M "C 2/C"
_symmetry_group_IT_number 15
_symmetry_cell_setting 'monoclinic'
loop_
_space_group_symop_operation_xyz
x,y,z
-x,y,1/2-z
-x,-y,-z
x,-y,1/2+z
1/2+x,1/2+y,z
1/2-x,1/2+y,1/2-z
1/2-x,1/2-y,-z
1/2+x,1/2-y,1/2+z
loop_
_atom_site_type_symbol
_atom_site_label
_atom_site_fract_x
_atom_site_fract_y
_atom_site_fract_z
Si Si1 0.487833 0.809508 0.540142
Si Si2 0.060631 0.054470 0.207679
Si Si3 0.226545 0.387298 0.551297
Si Si4 0.759444 0.179238 0.885934
Si Si5 0.787409 0.325983 0.463729
Si Si6 0.383074 0.366758 0.314082
Si Si7 0.964876 0.264063 0.325260
Si Si8 0.064458 0.472054 0.886782
O O1 0.371957 0.789196 0.464950
O O2 0.551683 0.726607 0.634540
O O3 0.503684 0.812449 0.446895
O O4 0.500721 0.908873 0.599367
O O5 0.176831 0.076598 0.318599
O O6 0.022366 0.154440 0.143411
O O7 0.000000 0.036578 0.250000
O O8 0.056147 0.961595 0.145504
O O9 0.202794 0.280916 0.554661
O O10 0.257732 0.385142 0.471866
O O11 0.131584 0.450339 0.486225
O O12 0.820543 0.137824 0.854515
O O13 0.647301 0.201493 0.769388
O O14 0.750000 0.250000 0.500000
O O15 0.696070 0.364368 0.332252
O O16 0.849481 0.400455 0.571955
O O17 0.000000 0.276704 0.250000
O O18 0.000000 0.504574 0.750000
#
# Coordination Sequence:
#
# PCOD9286341 Si02
#       8
#     8   8   8   8   8   8   8   8
#     4  10  24  39  67 101 138 175 232 275 343 418
#     4  10  23  40  65  98 131 173 227 276 337 409
#     4  10  22  44  69  94 134 174 228 282 336 410
#     4  10  23  43  70  97 130 180 227 278 351 401
#     4  10  22  41  65  93 138 179 225 271 337 411
#     4  12  23  42  68  97 137 176 221 286 344 403
#     4  10  22  45  70  97 136 180 228 287 343 402
#     4  10  21  43  67 100 137 175 229 277 341 411
#
# _framework density 21.945784
#
# number of rings (size 3 to 8) (size 9 to 14) (size 15 to 20)
#    0.750    1.000    2.500    0.750    8.750    1.000 
#    2.250    2.500    0.000    0.000    0.000    0.000 
#    0.000    0.000    0.000    0.000    0.000    0.000 
#
# Total GULP energy -178584.478727 kJ/mol
# GULP energy per Si atom -5580.764960 kJ/mol
# Density = 2.189583 g / cm^3
# Si number density = 21.945784 Si / 1000 Ang^3
#
#
#
# Elastic Constant Matrix: (Units=GPa)
#
#
# Indices 1 2 3 4 5 6 
#
# 1 97.2842 48.4586 5.8704 0.0000 -4.5195 0.0000
# 2 48.4586 92.8160 -2.6020 0.0000 -3.5634 0.0000
# 3 5.8704 -2.6020 54.2394 0.0000 5.5930 0.0000
# 4 0.0000 0.0000 0.0000 -32.6209 0.0000 12.4012
# 5 -4.5195 -3.5634 5.5930 0.0000 29.3063 0.0000
# 6 0.0000 0.0000 0.0000 12.4012 0.0000 21.4720
#
#
#
# Elastic Compliance Matrix: (Units=1/GPa)
#
#
# Indices 1 2 3 4 5 6 
#
# 1 0.014161 -0.007387 -0.002060 0.000000 0.001679 0.000000
# 2 -0.007387 0.014686 0.001466 0.000000 0.000367 0.000000
# 3 -0.002060 0.001466 0.019121 0.000000 -0.003789 0.000000
# 4 0.000000 0.000000 0.000000 -0.025136 0.000000 0.014517
# 5 0.001679 0.000367 -0.003789 0.000000 0.035149 0.000000
# 6 0.000000 0.000000 0.000000 0.014517 0.000000 0.038188
#
#
# Mechanical properties :
#
#
# Convention : Reuss Voigt Hill
#
# Bulk Modulus (GPa) = 31.24397 38.64374 34.94386
# Shear Modulus (GPa) = 40.71745 16.47230 28.59488
#
# Velocity S-wave (km/s) = 4.31207 2.74266 3.61359
# Velocity P-wave (km/s) = 6.24978 5.26085 5.77652
#
# Compressibility (1/GPa) = 0.03200617
#
# Stress axis : x y z
#
# Youngs Moduli (GPa) = 70.61735 68.09363 52.29915
#
# Poissons Ratio (x) = 0.50298 0.10774
# Poissons Ratio (y) = 0.52162 -0.07668
# Poissons Ratio (z) = 0.14548 -0.09984
#
# Static dielectric constant tensor:
#      x y z
#    x 1.800310 0.000000 0.049020 
#    y 0.000000 1.853590 0.000000 
#    z 0.049020 0.000000 1.862670 
# 
# From -- ./inp_files/162588.got.cif
#   From: 2010.05.17/outbox.cif.g08.bks.cpg/sg15_82_cif.got.tgz:162588.got - 2010.06.03 18:47:42.
