data_PCOD9286614
_publ_section_title
;
Structure prediction by ZEFSAII (Michael W. Deem and Ramdas Pophale) SiO2 
 PCOD9286614
Probable space group: C 2/C
;
_chemical_formula_sum "Si O2"
_cell_formula_units_Z 40
_cell_length_a 9.399261
_cell_length_b 14.330751
_cell_length_c 15.427153
_cell_angle_alpha 90.000000
_cell_angle_beta 61.501551
_cell_angle_gamma 90.000000
_cell_volume 1826.221007
_symmetry_space_group_name_H-M "C 2/C"
_symmetry_group_IT_number 15
_symmetry_cell_setting 'monoclinic'
loop_
_space_group_symop_operation_xyz
x,y,z
-x,y,1/2-z
-x,-y,-z
x,-y,1/2+z
1/2+x,1/2+y,z
1/2-x,1/2+y,1/2-z
1/2-x,1/2-y,-z
1/2+x,1/2-y,1/2+z
loop_
_atom_site_type_symbol
_atom_site_label
_atom_site_fract_x
_atom_site_fract_y
_atom_site_fract_z
Si Si1 0.356342 0.157499 0.221163
Si Si2 0.312075 0.485844 0.162248
Si Si3 0.362222 0.398376 0.477753
Si Si4 0.109248 0.683954 0.789808
Si Si5 0.452955 0.807067 0.007396
O O1 0.500000 0.144360 0.250000
O O2 0.231941 0.072917 0.265300
O O3 0.260653 0.251678 0.271043
O O4 0.427483 0.165036 0.104352
O O5 0.490879 0.442949 0.118355
O O6 0.181746 0.407223 0.223145
O O7 0.305058 0.527468 0.066590
O O8 0.428245 0.304697 0.506067
O O9 0.214126 0.360873 0.464630
O O10 0.000000 0.734030 0.750000
O O11 0.005919 0.667219 0.906365
#
# Coordination Sequence:
#
# PCOD9286614 Si02
#       5
#     8   8   8   8   8
#     4  12  23  47  78 103 138 188 242 292 348 427
#     4  11  23  43  71 106 144 176 231 303 353 413
#     4  10  21  43  76 106 131 183 243 296 347 423
#     4  12  28  45  66 104 149 186 230 303 353 407
#     4  11  22  45  76 100 134 193 242 281 353 427
#
# _framework density 21.903154000000001
#
# number of rings (size 3 to 8) (size 9 to 14) (size 15 to 20)
#    0.000    0.800    6.000    1.800    0.000    1.600 
#    3.600    0.000    0.000    0.000    0.000    0.000 
#    0.000    0.000    0.000    0.000    0.000    0.000 
#
# Total GULP energy -111844.373520 kJ/mol
# GULP energy per Si atom -5592.218676 kJ/mol
# Density = 2.185330 g / cm^3
# Si number density = 21.903154 Si / 1000 Ang^3
#
#
#
# Elastic Constant Matrix: (Units=GPa)
#
#
# Indices 1 2 3 4 5 6 
#
# 1 6.1745 25.1248 47.3569 0.0000 -4.9155 0.0000
# 2 25.1248 105.7961 32.9715 0.0000 -14.4328 0.0000
# 3 47.3569 32.9715 177.7592 0.0000 -8.9053 0.0000
# 4 0.0000 0.0000 0.0000 47.1842 0.0000 -17.0676
# 5 -4.9155 -14.4328 -8.9053 0.0000 17.0065 0.0000
# 6 0.0000 0.0000 0.0000 -17.0676 0.0000 27.0469
#
#
#
# Elastic Compliance Matrix: (Units=1/GPa)
#
#
# Indices 1 2 3 4 5 6 
#
# 1 -0.109480 0.017526 0.025751 0.000000 -0.003285 0.000000
# 2 0.017526 0.008328 -0.005757 0.000000 0.009119 0.000000
# 3 0.025751 -0.005757 -0.000040 0.000000 0.002536 0.000000
# 4 0.000000 0.000000 0.000000 0.027462 0.000000 0.017330
# 5 -0.003285 0.009119 0.002536 0.000000 0.066918 0.000000
# 6 0.000000 0.000000 0.000000 0.017330 0.000000 0.047908
#
#
# Mechanical properties :
#
#
# Convention : Reuss Voigt Hill
#
# Bulk Modulus (GPa) = -38.23946 55.62624 8.69339
# Shear Modulus (GPa) = -117.20648 30.53263 -43.33693
#
# Velocity S-wave (km/s) = -7.32307 3.73766 -4.45294
# Velocity P-wave (km/s) = 9.43396 6.63915 4.73926
#
# Compressibility (1/GPa) = -0.02615100
#
# Stress axis : x y z
#
# Youngs Moduli (GPa) = -9.13412 120.07427 -25075.99495
#
# Poissons Ratio (x) = -2.10443 645.73500
# Poissons Ratio (y) = 0.16009 -144.36352
# Poissons Ratio (z) = 0.23521 0.69127
#
# Static dielectric constant tensor:
#      x y z
#    x 1.807370 0.000000 0.008130 
#    y 0.000000 1.785870 0.000000 
#    z 0.008130 0.000000 1.811670 
# 
# From -- ./inp_files/133093.got.cif
#   From: 2010.05.17/outbox.cif.g08.bks.cpg/sg15_67_cif.got.tgz:133093.got - 2010.06.03 18:47:42.
