data_PCOD9286854
_publ_section_title
;
Structure prediction by ZEFSAII (Michael W. Deem and Ramdas Pophale) SiO2 
 PCOD9286854
Probable space group: C 2/C
;
_chemical_formula_sum "Si O2"
_cell_formula_units_Z 32
_cell_length_a 19.241813
_cell_length_b 6.154981
_cell_length_c 24.392524
_cell_angle_alpha 90.000000
_cell_angle_beta 150.672463
_cell_angle_gamma 90.000000
_cell_volume 1414.977641
_symmetry_space_group_name_H-M "C 2/C"
_symmetry_group_IT_number 15
_symmetry_cell_setting 'monoclinic'
loop_
_space_group_symop_operation_xyz
x,y,z
-x,y,1/2-z
-x,-y,-z
x,-y,1/2+z
1/2+x,1/2+y,z
1/2-x,1/2+y,1/2-z
1/2-x,1/2-y,-z
1/2+x,1/2-y,1/2+z
loop_
_atom_site_type_symbol
_atom_site_label
_atom_site_fract_x
_atom_site_fract_y
_atom_site_fract_z
Si Si1 0.162214 0.665029 0.517020
Si Si2 0.857282 0.127666 0.387654
Si Si3 0.367300 0.560066 0.084268
Si Si4 0.089762 0.660109 0.692367
O O1 0.157916 0.679628 0.579164
O O2 0.312407 0.582367 0.597060
O O3 0.034306 0.509916 0.409498
O O4 0.139085 0.900485 0.472877
O O5 0.863921 0.211531 0.330337
O O6 0.724244 0.970798 0.305523
O O7 0.000000 0.000000 0.500000
O O8 0.518639 0.676379 0.186704
O O9 0.250000 0.750000 0.000000
#
# Coordination Sequence:
#
# PCOD9286854 Si02
#       4
#     8   8   8   8
#     4  10  21  44  70  98 137 177 223 287 347 402
#     4  12  24  43  71  99 138 183 226 283 352 411
#     4   9  20  43  70  97 135 172 226 287 332 418
#     4  11  24  43  70 100 136 178 234 282 342 420
#
# _framework density 22.615197999999999
#
# number of rings (size 3 to 8) (size 9 to 14) (size 15 to 20)
#    0.000    1.500    2.500    2.250    0.000    0.000 
#    0.000   13.750    0.000    0.000    0.000    0.000 
#    0.000    0.000    0.000    0.000    0.000    0.000 
#
# Total GULP energy -89525.480280 kJ/mol
# GULP energy per Si atom -5595.342517 kJ/mol
# Density = 2.256372 g / cm^3
# Si number density = 22.615198 Si / 1000 Ang^3
#
#
#
# Elastic Constant Matrix: (Units=GPa)
#
#
# Indices 1 2 3 4 5 6 
#
# 1 109.8434 17.8338 33.1570 0.0001 29.8149 -0.0002
# 2 17.8338 73.9978 22.2719 0.0002 24.0531 -0.0002
# 3 33.1570 22.2719 90.7802 0.0001 30.7455 0.0000
# 4 0.0001 0.0002 0.0001 24.5186 0.0000 13.8635
# 5 29.8149 24.0531 30.7455 0.0000 30.8321 0.0000
# 6 -0.0002 -0.0002 0.0000 13.8635 0.0000 64.6800
#
#
#
# Elastic Compliance Matrix: (Units=1/GPa)
#
#
# Indices 1 2 3 4 5 6 
#
# 1 0.012453 0.001202 -0.000675 0.000000 -0.012307 0.000000
# 2 0.001202 0.018237 0.000451 0.000000 -0.015840 0.000000
# 3 -0.000675 0.000451 0.016684 0.000000 -0.016337 0.000000
# 4 0.000000 0.000000 0.000000 0.046410 0.000000 -0.009948
# 5 -0.012307 -0.015840 -0.016337 0.000000 0.072982 0.000000
# 6 0.000000 0.000000 0.000000 -0.009948 0.000000 0.017593
#
#
# Mechanical properties :
#
#
# Convention : Reuss Voigt Hill
#
# Bulk Modulus (GPa) = 20.27115 46.79406 33.53261
# Shear Modulus (GPa) = 25.14497 37.43006 31.28752
#
# Velocity S-wave (km/s) = 3.33808 4.07269 3.72354
# Velocity P-wave (km/s) = 4.88262 6.54615 5.77460
#
# Compressibility (1/GPa) = 0.04933119
#
# Stress axis : x y z
#
# Youngs Moduli (GPa) = 80.30253 54.83299 59.93615
#
# Poissons Ratio (x) = -0.06593 0.04048
# Poissons Ratio (y) = -0.09655 -0.02705
# Poissons Ratio (z) = 0.05423 -0.02475
#
# Static dielectric constant tensor:
#      x y z
#    x 1.821360 0.000000 0.003950 
#    y 0.000000 1.853140 0.000000 
#    z 0.003950 0.000000 1.806120 
# 
# From -- ./inp_files/115299.got.cif
#   From: 2010.05.17/outbox.cif.g08.bks.cpg/sg15_58_cif.got.tgz:115299.got - 2010.06.03 18:47:42.
