data_PCOD9286043
_publ_section_title
;
Structure prediction by ZEFSAII (Michael W. Deem and Ramdas Pophale) SiO2 
 PCOD9286043
Probable space group: C 2/C
;
_chemical_formula_sum "Si O2"
_cell_formula_units_Z 32
_cell_length_a 10.185171
_cell_length_b 25.707617
_cell_length_c 5.638621
_cell_angle_alpha 90.000000
_cell_angle_beta 95.169739
_cell_angle_gamma 90.000000
_cell_volume 1470.390854
_symmetry_space_group_name_H-M "C 2/C"
_symmetry_group_IT_number 15
_symmetry_cell_setting 'monoclinic'
loop_
_space_group_symop_operation_xyz
x,y,z
-x,y,1/2-z
-x,-y,-z
x,-y,1/2+z
1/2+x,1/2+y,z
1/2-x,1/2+y,1/2-z
1/2-x,1/2-y,-z
1/2+x,1/2-y,1/2+z
loop_
_atom_site_type_symbol
_atom_site_label
_atom_site_fract_x
_atom_site_fract_y
_atom_site_fract_z
Si Si1 0.293997 0.890015 0.365839
Si Si2 0.148604 0.980546 0.493507
Si Si3 0.000000 0.467923 0.250000
Si Si4 0.863442 0.287276 0.118168
Si Si5 0.000000 0.358344 0.750000
O O1 0.162875 0.920411 0.416851
O O2 0.376514 0.927642 0.206354
O O3 0.296017 0.830557 0.279840
O O4 0.388465 0.891219 0.607663
O O5 0.204503 0.010935 0.269511
O O6 0.000000 0.000000 0.500000
O O7 0.000000 0.500000 0.500000
O O8 0.000000 0.263118 0.250000
O O9 0.750000 0.250000 0.000000
O O10 0.924501 0.321601 0.919903
#
# Coordination Sequence:
#
# PCOD9286043 Si02
#       5
#     8   8   4   8   4
#     4  11  22  39  65 101 133 182 235 298 354 432
#     4  10  23  42  63  93 142 190 232 286 354 438
#     4  12  23  34  62 104 138 178 232 293 360 422
#     4  10  23  44  71 103 139 183 242 307 372 434
#     4  10  21  42  70  94 142 170 242 295 364 424
#
# _framework density 21.762920999999999
#
# number of rings (size 3 to 8) (size 9 to 14) (size 15 to 20)
#    0.000    1.500    3.750    2.250    3.500    4.000 
#    0.000    7.500    0.000    0.000    0.000    0.000 
#    0.000    0.000    0.000    0.000    0.000    0.000 
#
# Total GULP energy -89079.652044 kJ/mol
# GULP energy per Si atom -5567.478253 kJ/mol
# Density = 2.171339 g / cm^3
# Si number density = 21.762921 Si / 1000 Ang^3
#
#
#
# Elastic Constant Matrix: (Units=GPa)
#
#
# Indices 1 2 3 4 5 6 
#
# 1 118.5360 65.6898 20.8906 0.0000 17.0427 0.0000
# 2 65.6898 97.2063 24.1957 0.0000 22.6945 0.0000
# 3 20.8906 24.1957 125.0946 0.0000 12.6635 0.0000
# 4 0.0000 0.0000 0.0000 30.9699 0.0000 13.2649
# 5 17.0427 22.6945 12.6635 0.0000 27.6212 0.0000
# 6 0.0000 0.0000 0.0000 13.2649 0.0000 44.0805
#
#
#
# Elastic Compliance Matrix: (Units=1/GPa)
#
#
# Indices 1 2 3 4 5 6 
#
# 1 0.013536 -0.008824 -0.000464 0.000000 -0.000889 0.000000
# 2 -0.008824 0.018746 -0.001200 0.000000 -0.009407 0.000000
# 3 -0.000464 -0.001200 0.008573 0.000000 -0.002658 0.000000
# 4 0.000000 0.000000 0.000000 0.037067 0.000000 -0.011154
# 5 -0.000889 -0.009407 -0.002658 0.000000 0.045701 0.000000
# 6 0.000000 0.000000 0.000000 -0.011154 0.000000 0.026042
#
#
# Mechanical properties :
#
#
# Convention : Reuss Voigt Hill
#
# Bulk Modulus (GPa) = 50.30577 62.48768 56.39673
# Shear Modulus (GPa) = 28.20616 35.87171 32.03893
#
# Velocity S-wave (km/s) = 3.60400 4.06432 3.84106
# Velocity P-wave (km/s) = 6.36270 7.12743 6.75589
#
# Compressibility (1/GPa) = 0.01987844
#
# Stress axis : x y z
#
# Youngs Moduli (GPa) = 73.87677 53.34574 116.65128
#
# Poissons Ratio (x) = 0.47074 0.05409
# Poissons Ratio (y) = 0.65192 0.13996
# Poissons Ratio (z) = 0.03426 0.06400
#
# Static dielectric constant tensor:
#      x y z
#    x 2.046770 0.000000 0.092640 
#    y 0.000000 1.794810 0.000000 
#    z 0.092640 0.000000 1.950150 
# 
# From -- ./inp_files/3722.got.cif
#   From: 2010.05.17/outbox.cif.g08.bks.cpg/sg15_2_cif.got.tgz:3722.got - 2010.06.03 18:47:42.
