data_PCOD9286457
_publ_section_title
;
Structure prediction by ZEFSAII (Michael W. Deem and Ramdas Pophale) SiO2 
 PCOD9286457
Probable space group: C 2/C
;
_chemical_formula_sum "Si O2"
_cell_formula_units_Z 48
_cell_length_a 12.202450
_cell_length_b 6.983031
_cell_length_c 24.204766
_cell_angle_alpha 90.000000
_cell_angle_beta 121.881526
_cell_angle_gamma 90.000000
_cell_volume 1751.347120
_symmetry_space_group_name_H-M "C 2/C"
_symmetry_group_IT_number 15
_symmetry_cell_setting 'monoclinic'
loop_
_space_group_symop_operation_xyz
x,y,z
-x,y,1/2-z
-x,-y,-z
x,-y,1/2+z
1/2+x,1/2+y,z
1/2-x,1/2+y,1/2-z
1/2-x,1/2-y,-z
1/2+x,1/2-y,1/2+z
loop_
_atom_site_type_symbol
_atom_site_label
_atom_site_fract_x
_atom_site_fract_y
_atom_site_fract_z
Si Si1 0.916891 0.373673 0.330094
Si Si2 0.621474 0.093857 0.561273
Si Si3 0.337163 0.685655 0.802602
Si Si4 0.314887 0.956892 0.132080
Si Si5 0.624876 0.545353 0.996146
Si Si6 0.107015 0.901609 0.362001
O O1 0.930321 0.310295 0.396722
O O2 0.787389 0.294989 0.269046
O O3 0.895330 0.604082 0.328698
O O4 0.049341 0.345629 0.332288
O O5 0.661846 0.241442 0.525034
O O6 0.756601 0.992749 0.614885
O O7 0.500000 0.000000 0.500000
O O8 0.280419 0.592702 0.843276
O O9 0.456704 0.574358 0.805164
O O10 0.241981 0.924629 0.053975
O O11 0.355825 0.182657 0.146498
O O12 0.500000 0.500000 0.000000
O O13 0.595153 0.555833 0.924317
#
# Coordination Sequence:
#
# PCOD9286457 Si02
#       6
#     8   8   8   8   8   8
#     4  11  26  44  68  99 137 181 224 287 345 407
#     4  11  23  43  66  98 141 169 222 289 345 400
#     4  11  24  45  67  96 134 178 237 270 343 413
#     4  10  21  43  69  91 135 176 223 276 341 396
#     4  11  21  40  73  98 128 179 231 274 338 415
#     4  10  22  42  71  96 130 181 220 275 344 409
#
# _framework density 27.407475000000002
#
# number of rings (size 3 to 8) (size 9 to 14) (size 15 to 20)
#    0.000    1.333    1.667    5.500    4.667    0.667 
#    9.000    1.667    0.000    0.000    0.000    0.000 
#    0.000    0.000    0.000    0.000    0.000    0.000 
#
# Total GULP energy -134230.178995 kJ/mol
# GULP energy per Si atom -5592.924125 kJ/mol
# Density = 2.734509 g / cm^3
# Si number density = 27.407475 Si / 1000 Ang^3
#
#
#
# Elastic Constant Matrix: (Units=GPa)
#
#
# Indices 1 2 3 4 5 6 
#
# 1 218.7984 32.5410 17.4552 0.0000 37.1136 0.0000
# 2 32.5410 79.2769 2.1156 0.0000 1.9056 0.0000
# 3 17.4552 2.1156 60.9232 0.0000 12.4619 0.0000
# 4 0.0000 0.0000 0.0000 20.7564 0.0000 1.9339
# 5 37.1136 1.9056 12.4619 0.0000 63.4530 0.0000
# 6 0.0000 0.0000 0.0000 1.9339 0.0000 52.0784
#
#
#
# Elastic Compliance Matrix: (Units=1/GPa)
#
#
# Indices 1 2 3 4 5 6 
#
# 1 0.005462 -0.002147 -0.000886 0.000000 -0.002956 0.000000
# 2 -0.002147 0.013476 -0.000028 0.000000 0.000857 0.000000
# 3 -0.000886 -0.000028 0.017256 0.000000 -0.002870 0.000000
# 4 0.000000 0.000000 0.000000 0.048345 0.000000 -0.001795
# 5 -0.002956 0.000857 -0.002870 0.000000 0.018027 0.000000
# 6 0.000000 0.000000 0.000000 -0.001795 0.000000 0.019268
#
#
# Mechanical properties :
#
#
# Convention : Reuss Voigt Hill
#
# Bulk Modulus (GPa) = 33.25394 51.46912 42.36153
# Shear Modulus (GPa) = 36.23732 47.71669 41.97700
#
# Velocity S-wave (km/s) = 3.64011 4.17707 3.91780
# Velocity P-wave (km/s) = 5.46138 6.48721 5.99627
#
# Compressibility (1/GPa) = 0.03007163
#
# Stress axis : x y z
#
# Youngs Moduli (GPa) = 183.08742 74.20842 57.95116
#
# Poissons Ratio (x) = 0.15934 0.05132
# Poissons Ratio (y) = 0.39314 0.00162
# Poissons Ratio (z) = 0.16215 0.00208
#
# Static dielectric constant tensor:
#      x y z
#    x 2.193840 0.000000 0.150260 
#    y 0.000000 2.392050 0.000000 
#    z 0.150260 0.000000 2.231010 
# 
# From -- ./inp_files/268101.got.cif
#   From: 2010.05.17/outbox.cif.g08.bks.cpg/sg15_135_cif.got.tgz:268101.got - 2010.06.03 18:47:42.
