data_PCOD9286220
_publ_section_title
;
Structure prediction by ZEFSAII (Michael W. Deem and Ramdas Pophale) SiO2 
 PCOD9286220
Probable space group: C 2/C
;
_chemical_formula_sum "Si O2"
_cell_formula_units_Z 52
_cell_length_a 9.706557
_cell_length_b 11.864084
_cell_length_c 22.610345
_cell_angle_alpha 90.000000
_cell_angle_beta 111.225900
_cell_angle_gamma 90.000000
_cell_volume 2427.153173
_symmetry_space_group_name_H-M "C 2/C"
_symmetry_group_IT_number 15
_symmetry_cell_setting 'monoclinic'
loop_
_space_group_symop_operation_xyz
x,y,z
-x,y,1/2-z
-x,-y,-z
x,-y,1/2+z
1/2+x,1/2+y,z
1/2-x,1/2+y,1/2-z
1/2-x,1/2-y,-z
1/2+x,1/2-y,1/2+z
loop_
_atom_site_type_symbol
_atom_site_label
_atom_site_fract_x
_atom_site_fract_y
_atom_site_fract_z
Si Si1 0.734115 0.560219 0.925744
Si Si2 0.500000 0.037635 0.750000
Si Si3 0.433244 0.345766 0.581645
Si Si4 0.558577 0.886341 0.934399
Si Si5 0.563912 0.650948 0.560033
Si Si6 0.741389 0.555030 0.135016
Si Si7 0.563741 0.119572 0.635386
O O1 0.695207 0.427163 0.914230
O O2 0.588157 0.603664 0.936162
O O3 0.777366 0.625691 0.872442
O O4 0.867774 0.586727 0.991296
O O5 0.632518 0.962670 0.797040
O O6 0.562703 0.111337 0.705674
O O7 0.434164 0.358219 0.510634
O O8 0.589098 0.389996 0.631808
O O9 0.445943 0.213692 0.597050
O O10 0.449813 0.780882 0.923253
O O11 0.693499 0.871232 0.908944
O O12 0.485154 0.997600 0.896531
O O13 0.691729 0.569135 0.604154
#
# Coordination Sequence:
#
# PCOD9286220 Si02
#       7
#     8   4   8   8   8   8   8
#     4  11  20  36  62  98 127 158 204 253 327 385
#     4  10  26  50  56  78 124 172 220 258 302 376
#     4  11  21  38  66  97 129 157 198 269 329 385
#     4  11  20  35  61  94 128 162 196 249 324 388
#     4  11  20  36  67 100 129 156 198 265 329 392
#     4  10  21  43  64  88 123 171 212 254 318 378
#     4  11  25  40  59  87 128 171 211 258 314 379
#
# _framework density 21.424275999999999
#
# number of rings (size 3 to 8) (size 9 to 14) (size 15 to 20)
#    0.000    1.231    4.615    2.769    0.000    3.077 
#    8.308    2.308    0.000    0.000    0.000    0.000 
#    0.000    0.000    0.000    0.000    0.000    0.000 
#
# Total GULP energy -145158.949589 kJ/mol
# GULP energy per Si atom -5583.036523 kJ/mol
# Density = 2.137551 g / cm^3
# Si number density = 21.424276 Si / 1000 Ang^3
#
#
#
# Elastic Constant Matrix: (Units=GPa)
#
#
# Indices 1 2 3 4 5 6 
#
# 1 40.3680 34.9590 22.4793 0.0000 -16.4817 0.0000
# 2 34.9590 133.0967 18.8077 0.0000 -0.6308 0.0000
# 3 22.4793 18.8077 106.0640 0.0000 -11.6515 0.0000
# 4 0.0000 0.0000 0.0000 18.8346 0.0000 -2.6485
# 5 -16.4817 -0.6308 -11.6515 0.0000 42.8949 0.0000
# 6 0.0000 0.0000 0.0000 -2.6485 0.0000 20.5570
#
#
#
# Elastic Compliance Matrix: (Units=1/GPa)
#
#
# Indices 1 2 3 4 5 6 
#
# 1 0.042997 -0.010427 -0.005634 0.000000 0.014837 0.000000
# 2 -0.010427 0.010238 -0.000030 0.000000 -0.003864 0.000000
# 3 -0.005634 -0.000030 0.010709 0.000000 0.000744 0.000000
# 4 0.000000 0.000000 0.000000 0.054073 0.000000 0.006967
# 5 0.014837 -0.003864 0.000744 0.000000 0.029159 0.000000
# 6 0.000000 0.000000 0.000000 0.006967 0.000000 0.049543
#
#
# Mechanical properties :
#
#
# Convention : Reuss Voigt Hill
#
# Bulk Modulus (GPa) = 31.48369 48.00230 39.74300
# Shear Modulus (GPa) = 20.87773 30.00949 25.44361
#
# Velocity S-wave (km/s) = 3.12507 3.74668 3.44991
# Velocity P-wave (km/s) = 5.26770 6.41647 5.87025
#
# Compressibility (1/GPa) = 0.03176247
#
# Stress axis : x y z
#
# Youngs Moduli (GPa) = 23.25727 97.67486 93.37623
#
# Poissons Ratio (x) = 1.01847 0.52608
# Poissons Ratio (y) = 0.24251 0.00280
# Poissons Ratio (z) = 0.13103 0.00293
#
# Static dielectric constant tensor:
#      x y z
#    x 1.934350 0.000000 -0.064990 
#    y 0.000000 1.872150 0.000000 
#    z -0.064990 0.000000 1.739260 
# 
# From -- ./inp_files/237178.got.cif
#   From: 2010.05.17/outbox.cif.g08.bks.cpg/sg15_119_cif.got.tgz:237178.got - 2010.06.03 18:47:42.
