data_PCOD9286551
_publ_section_title
;
Structure prediction by ZEFSAII (Michael W. Deem and Ramdas Pophale) SiO2 
 PCOD9286551
Probable space group: C 2/C
;
_chemical_formula_sum "Si O2"
_cell_formula_units_Z 44
_cell_length_a 15.750477
_cell_length_b 12.200854
_cell_length_c 11.512168
_cell_angle_alpha 90.000000
_cell_angle_beta 118.245716
_cell_angle_gamma 90.000000
_cell_volume 1948.859587
_symmetry_space_group_name_H-M "C 2/C"
_symmetry_group_IT_number 15
_symmetry_cell_setting 'monoclinic'
loop_
_space_group_symop_operation_xyz
x,y,z
-x,y,1/2-z
-x,-y,-z
x,-y,1/2+z
1/2+x,1/2+y,z
1/2-x,1/2+y,1/2-z
1/2-x,1/2-y,-z
1/2+x,1/2-y,1/2+z
loop_
_atom_site_type_symbol
_atom_site_label
_atom_site_fract_x
_atom_site_fract_y
_atom_site_fract_z
Si Si1 0.269475 0.368768 0.415276
Si Si2 0.751772 0.851764 0.674799
Si Si3 0.860985 0.718852 0.044992
Si Si4 0.385213 0.946309 0.345976
Si Si5 0.000000 0.563732 0.250000
Si Si6 0.095736 0.928970 0.545470
O O1 0.299351 0.267676 0.350463
O O2 0.278774 0.348497 0.557147
O O3 0.162539 0.395155 0.301543
O O4 0.327597 0.479147 0.436719
O O5 0.849560 0.869100 0.811490
O O6 0.680122 0.951436 0.654408
O O7 0.908352 0.643535 0.174403
O O8 0.750000 0.750000 0.000000
O O9 0.876296 0.644936 0.939434
O O10 0.914426 0.833822 0.056613
O O11 0.484309 0.993161 0.356983
O O12 0.000000 0.000000 0.500000
#
# Coordination Sequence:
#
# PCOD9286551 Si02
#       6
#     8   8   8   8   4   8
#     4  10  22  42  71  99 138 187 237 289 376 429
#     4  10  21  43  71  97 135 194 234 295 362 442
#     4  12  26  48  73 104 144 194 243 298 372 444
#     4  11  23  45  70 104 140 184 244 300 359 438
#     4  12  28  42  74 106 142 190 240 308 364 438
#     4  11  25  42  67 104 143 183 238 309 358 440
#
# _framework density 22.577307000000001
#
# number of rings (size 3 to 8) (size 9 to 14) (size 15 to 20)
#    0.000    1.091    1.818    4.909    2.545    3.636 
#    3.273    0.000    0.000    0.000    0.000    0.000 
#    0.000    0.000    0.000    0.000    0.000    0.000 
#
# Total GULP energy -122747.484886 kJ/mol
# GULP energy per Si atom -5579.431131 kJ/mol
# Density = 2.252592 g / cm^3
# Si number density = 22.577307 Si / 1000 Ang^3
#
#
#
# Elastic Constant Matrix: (Units=GPa)
#
#
# Indices 1 2 3 4 5 6 
#
# 1 79.9553 36.0627 8.7520 0.0000 -3.6972 0.0000
# 2 36.0627 151.2869 16.3473 0.0000 -12.0805 0.0000
# 3 8.7520 16.3473 61.6978 0.0000 -15.9172 0.0000
# 4 0.0000 0.0000 0.0000 37.4049 0.0000 0.4950
# 5 -3.6972 -12.0805 -15.9172 0.0000 20.3908 0.0000
# 6 0.0000 0.0000 0.0000 0.4950 0.0000 39.0757
#
#
#
# Elastic Compliance Matrix: (Units=1/GPa)
#
#
# Indices 1 2 3 4 5 6 
#
# 1 0.014093 -0.003253 -0.001221 0.000000 -0.000325 0.000000
# 2 -0.003253 0.007736 -0.000699 0.000000 0.003448 0.000000
# 3 -0.001221 -0.000699 0.020539 0.000000 0.015397 0.000000
# 4 0.000000 0.000000 0.000000 0.026739 0.000000 -0.000339
# 5 -0.000325 0.003448 0.015397 0.000000 0.063045 0.000000
# 6 0.000000 0.000000 0.000000 -0.000339 0.000000 0.025596
#
#
# Mechanical properties :
#
#
# Convention : Reuss Voigt Hill
#
# Bulk Modulus (GPa) = 31.22898 46.14044 38.68471
# Shear Modulus (GPa) = 27.96928 34.82615 31.39772
#
# Velocity S-wave (km/s) = 3.52351 3.93177 3.73322
# Velocity P-wave (km/s) = 5.51503 6.41036 5.97948
#
# Compressibility (1/GPa) = 0.03202154
#
# Stress axis : x y z
#
# Youngs Moduli (GPa) = 70.95710 129.26041 48.68875
#
# Poissons Ratio (x) = 0.42054 0.05945
# Poissons Ratio (y) = 0.23085 0.03402
# Poissons Ratio (z) = 0.08664 0.09032
#
# Static dielectric constant tensor:
#      x y z
#    x 2.008370 0.000000 0.154380 
#    y 0.000000 2.008950 0.000000 
#    z 0.154380 0.000000 2.015930 
# 
# From -- ./inp_files/104340.got.cif
#   From: 2010.05.17/outbox.cif.g08.bks.cpg/sg15_53_cif.got.tgz:104340.got - 2010.06.03 18:47:42.
