data_PCOD9286141
_publ_section_title
;
Structure prediction by ZEFSAII (Michael W. Deem and Ramdas Pophale) SiO2 
 PCOD9286141
Probable space group: C 2/C
;
_chemical_formula_sum "Si O2"
_cell_formula_units_Z 64
_cell_length_a 33.817135
_cell_length_b 8.743330
_cell_length_c 15.833437
_cell_angle_alpha 90.000000
_cell_angle_beta 38.728789
_cell_angle_gamma 90.000000
_cell_volume 2928.934896
_symmetry_space_group_name_H-M "C 2/C"
_symmetry_group_IT_number 15
_symmetry_cell_setting 'monoclinic'
loop_
_space_group_symop_operation_xyz
x,y,z
-x,y,1/2-z
-x,-y,-z
x,-y,1/2+z
1/2+x,1/2+y,z
1/2-x,1/2+y,1/2-z
1/2-x,1/2-y,-z
1/2+x,1/2-y,1/2+z
loop_
_atom_site_type_symbol
_atom_site_label
_atom_site_fract_x
_atom_site_fract_y
_atom_site_fract_z
Si Si1 0.184612 0.506144 0.973512
Si Si2 0.609462 0.185059 0.700048
Si Si3 0.429708 0.931434 0.614628
Si Si4 0.684954 0.555344 0.161507
Si Si5 0.136075 0.952787 0.421796
Si Si6 0.315527 0.359210 0.498348
Si Si7 0.516055 0.633262 0.038395
Si Si8 0.685370 0.117726 0.300441
O O1 0.241263 0.461641 0.941603
O O2 0.167064 0.681985 0.017568
O O3 0.209935 0.483096 0.836718
O O4 0.130750 0.375347 0.073455
O O5 0.662585 0.289013 0.655014
O O6 0.545160 0.279939 0.821860
O O7 0.603425 0.020478 0.755049
O O8 0.443074 0.752579 0.585776
O O9 0.380562 0.955915 0.620180
O O10 0.500000 0.000000 0.500000
O O11 0.651897 0.542075 0.307997
O O12 0.667914 0.424718 0.121245
O O13 0.061273 0.921311 0.538240
O O14 0.172163 0.791469 0.350847
O O15 0.153487 0.040476 0.478280
O O16 0.239645 0.374528 0.639176
O O17 0.500000 0.500000 0.000000
#
# Coordination Sequence:
#
# PCOD9286141 Si02
#       8
#     8   8   8   8   8   8   8   8
#     4  12  26  40  68 103 139 179 223 292 354 415
#     4  11  24  41  67  98 136 177 234 280 348 415
#     4   9  22  40  64  96 129 177 227 281 337 409
#     4  12  24  42  69 101 140 181 230 284 351 424
#     4  11  24  44  69 100 134 182 233 279 354 423
#     4  12  25  42  66 102 139 179 229 291 355 427
#     4  10  21  42  73  94 131 182 230 284 347 414
#     4  11  22  42  65  94 140 179 223 283 356 423
#
# _framework density 21.850944999999999
#
# number of rings (size 3 to 8) (size 9 to 14) (size 15 to 20)
#    0.000    1.000    3.750    2.250    5.250    1.000 
#    0.000   10.000    0.000    4.500    0.000    0.000 
#    0.000    0.000    0.000    0.000    0.000    0.000 
#
# Total GULP energy -178631.738121 kJ/mol
# GULP energy per Si atom -5582.241816 kJ/mol
# Density = 2.180121 g / cm^3
# Si number density = 21.850945 Si / 1000 Ang^3
#
#
#
# Elastic Constant Matrix: (Units=GPa)
#
#
# Indices 1 2 3 4 5 6 
#
# 1 111.8161 37.6575 31.2176 0.0002 -18.1434 0.0000
# 2 37.6575 55.6476 26.8277 0.0011 -13.3664 -0.0001
# 3 31.2176 26.8277 60.6680 0.0009 3.0407 -0.0002
# 4 0.0002 0.0011 0.0009 40.0934 0.0001 -2.0954
# 5 -18.1434 -13.3664 3.0407 0.0001 24.7603 -0.0001
# 6 0.0000 -0.0001 -0.0002 -2.0954 -0.0001 32.8363
#
#
#
# Elastic Compliance Matrix: (Units=1/GPa)
#
#
# Indices 1 2 3 4 5 6 
#
# 1 0.013192 -0.004551 -0.005169 0.000000 0.007844 0.000000
# 2 -0.004551 0.030150 -0.011711 -0.000001 0.014379 0.000000
# 3 -0.005169 -0.011711 0.024982 0.000000 -0.013178 0.000000
# 4 0.000000 -0.000001 0.000000 0.025025 0.000000 0.001597
# 5 0.007844 0.014379 -0.013178 0.000000 0.055516 0.000000
# 6 0.000000 0.000000 0.000000 0.001597 0.000000 0.030556
#
#
# Mechanical properties :
#
#
# Convention : Reuss Voigt Hill
#
# Bulk Modulus (GPa) = 39.27486 46.61527 42.94507
# Shear Modulus (GPa) = 21.66656 28.36659 25.01657
#
# Velocity S-wave (km/s) = 3.15232 3.60694 3.38727
# Velocity P-wave (km/s) = 5.59129 6.22305 5.91561
#
# Compressibility (1/GPa) = 0.02546158
#
# Stress axis : x y z
#
# Youngs Moduli (GPa) = 75.80435 33.16763 40.02874
#
# Poissons Ratio (x) = 0.15095 0.20690
# Poissons Ratio (y) = 0.34499 0.46879
# Poissons Ratio (z) = 0.39181 0.38844
#
# Static dielectric constant tensor:
#      x y z
#    x 1.799560 0.000000 -0.013980 
#    y 0.000000 1.791070 0.000000 
#    z -0.013980 0.000000 1.861290 
# 
# From -- ./inp_files/181131.got.cif
#   From: 2010.05.17/outbox.cif.g08.bks.cpg/sg15_91_cif.got.tgz:181131.got - 2010.06.03 18:47:42.
