data_PCOD9286820
_publ_section_title
;
Structure prediction by ZEFSAII (Michael W. Deem and Ramdas Pophale) SiO2 
 PCOD9286820
Probable space group: C 2/C
;
_chemical_formula_sum "Si O2"
_cell_formula_units_Z 44
_cell_length_a 16.551294
_cell_length_b 13.691844
_cell_length_c 21.853698
_cell_angle_alpha 90.000000
_cell_angle_beta 155.995928
_cell_angle_gamma 90.000000
_cell_volume 2014.658546
_symmetry_space_group_name_H-M "C 2/C"
_symmetry_group_IT_number 15
_symmetry_cell_setting 'monoclinic'
loop_
_space_group_symop_operation_xyz
x,y,z
-x,y,1/2-z
-x,-y,-z
x,-y,1/2+z
1/2+x,1/2+y,z
1/2-x,1/2+y,1/2-z
1/2-x,1/2-y,-z
1/2+x,1/2-y,1/2+z
loop_
_atom_site_type_symbol
_atom_site_label
_atom_site_fract_x
_atom_site_fract_y
_atom_site_fract_z
Si Si1 0.000000 0.720619 0.250000
Si Si2 0.524371 0.205790 0.607719
Si Si3 0.320901 0.363149 0.217510
Si Si4 0.685109 0.446600 0.523183
Si Si5 0.294006 0.145249 0.644034
Si Si6 0.770610 0.975189 0.582610
O O1 0.976200 0.791770 0.291268
O O2 0.810256 0.650675 0.120124
O O3 0.651985 0.196767 0.634569
O O4 0.669869 0.195863 0.766015
O O5 0.387287 0.300958 0.514964
O O6 0.377876 0.112920 0.509094
O O7 0.451841 0.424274 0.356497
O O8 0.239730 0.436929 0.109595
O O9 0.742504 0.530731 0.610550
O O10 0.747767 0.487492 0.499519
O O11 0.500000 0.156746 0.750000
O O12 0.000000 0.943498 0.750000
#
# Coordination Sequence:
#
# PCOD9286820 Si02
#       6
#     4   8   8   8   8   8
#     4  12  22  44  70  94 138 180 236 280 360 416
#     4  12  27  43  70 108 140 183 232 290 354 410
#     4  11  26  42  70 103 137 184 230 296 346 419
#     4  11  23  45  71  98 133 188 235 282 351 416
#     4  12  26  47  71 103 140 187 234 288 347 422
#     4  10  21  44  70 100 135 182 236 283 347 419
#
# _framework density 21.839929999999999
#
# number of rings (size 3 to 8) (size 9 to 14) (size 15 to 20)
#    0.000    0.727    5.455    2.182    7.636    0.727 
#    3.273    0.000    0.000    0.000    0.000    0.000 
#    0.000    0.000    0.000    0.000    0.000    0.000 
#
# Total GULP energy -123123.681095 kJ/mol
# GULP energy per Si atom -5596.530959 kJ/mol
# Density = 2.179022 g / cm^3
# Si number density = 21.839930 Si / 1000 Ang^3
#
#
#
# Elastic Constant Matrix: (Units=GPa)
#
#
# Indices 1 2 3 4 5 6 
#
# 1 41.3347 1.1482 10.2916 -0.0010 10.2955 0.0000
# 2 1.1482 70.1783 7.9509 0.0039 2.2013 0.0004
# 3 10.2916 7.9509 50.2041 0.0053 -11.7456 0.0008
# 4 -0.0010 0.0039 0.0053 21.2672 0.0003 1.2195
# 5 10.2955 2.2013 -11.7456 0.0003 33.5378 0.0000
# 6 0.0000 0.0004 0.0008 1.2195 0.0000 6.7244
#
#
#
# Elastic Compliance Matrix: (Units=1/GPa)
#
#
# Indices 1 2 3 4 5 6 
#
# 1 0.029485 0.000930 -0.009066 0.000004 -0.012288 0.000000
# 2 0.000930 0.014653 -0.003053 -0.000002 -0.002317 0.000000
# 3 -0.009066 -0.003053 0.025008 -0.000006 0.011742 -0.000002
# 4 0.000004 -0.000002 -0.000006 0.047515 -0.000004 -0.008617
# 5 -0.012288 -0.002317 0.011742 -0.000004 0.037853 0.000000
# 6 0.000000 0.000000 -0.000002 -0.008617 0.000000 0.150274
#
#
# Mechanical properties :
#
#
# Convention : Reuss Voigt Hill
#
# Bulk Modulus (GPa) = 21.38273 22.27760 21.83017
# Shear Modulus (GPa) = 14.58767 21.79432 18.19100
#
# Velocity S-wave (km/s) = 2.58725 3.16240 2.88917
# Velocity P-wave (km/s) = 4.32863 4.85355 4.59859
#
# Compressibility (1/GPa) = 0.04676672
#
# Stress axis : x y z
#
# Youngs Moduli (GPa) = 33.91583 68.24636 39.98747
#
# Poissons Ratio (x) = -0.06348 0.36254
# Poissons Ratio (y) = -0.03155 0.12209
# Poissons Ratio (z) = 0.30749 0.20837
#
# Static dielectric constant tensor:
#      x y z
#    x 1.788630 0.000000 -0.038330 
#    y 0.000000 1.780320 0.000000 
#    z -0.038330 0.000000 1.796260 
# 
# From -- ./inp_files/211170.got.cif
#   From: 2010.05.17/outbox.cif.g08.bks.cpg/sg15_106_cif.got.tgz:211170.got - 2010.06.03 18:47:42.
