data_PCOD9286585
_publ_section_title
;
Structure prediction by ZEFSAII (Michael W. Deem and Ramdas Pophale) SiO2 
 PCOD9286585
Probable space group: C 2/C
;
_chemical_formula_sum "Si O2"
_cell_formula_units_Z 48
_cell_length_a 11.897324
_cell_length_b 18.325364
_cell_length_c 8.780356
_cell_angle_alpha 90.000000
_cell_angle_beta 113.746455
_cell_angle_gamma 90.000000
_cell_volume 1752.244699
_symmetry_space_group_name_H-M "C 2/C"
_symmetry_group_IT_number 15
_symmetry_cell_setting 'monoclinic'
loop_
_space_group_symop_operation_xyz
x,y,z
-x,y,1/2-z
-x,-y,-z
x,-y,1/2+z
1/2+x,1/2+y,z
1/2-x,1/2+y,1/2-z
1/2-x,1/2-y,-z
1/2+x,1/2-y,1/2+z
loop_
_atom_site_type_symbol
_atom_site_label
_atom_site_fract_x
_atom_site_fract_y
_atom_site_fract_z
Si Si1 0.500000 0.028806 0.750000
Si Si2 0.699231 0.655058 0.706143
Si Si3 0.126818 0.915224 0.723953
Si Si4 0.910461 0.361508 0.441231
Si Si5 0.000000 0.744286 0.250000
Si Si6 0.848562 0.762454 0.658888
Si Si7 0.727136 0.502230 0.539998
O O1 0.509193 0.080890 0.605338
O O2 0.371408 0.987503 0.662964
O O3 0.774249 0.614117 0.902286
O O4 0.606032 0.702027 0.754575
O O5 0.684549 0.717998 0.537733
O O6 0.690363 0.581220 0.602816
O O7 0.184032 0.834370 0.761271
O O8 0.000000 0.917441 0.750000
O O9 0.127913 0.946822 0.555783
O O10 0.215927 0.969262 0.862919
O O11 0.847110 0.311566 0.268423
O O12 0.968631 0.310131 0.594459
O O13 0.000000 0.765503 0.750000
#
# Coordination Sequence:
#
# PCOD9286585 Si02
#       7
#     4   8   8   8   4   8   8
#     4  10  22  48  75  93 140 198 246 298 350 432
#     4   9  23  40  64  98 139 179 229 291 353 423
#     4  12  27  45  73 107 146 191 239 299 366 440
#     4   9  23  37  66 102 133 175 238 299 355 411
#     4  12  22  34  65 103 148 176 220 310 364 422
#     4  10  21  43  73 100 133 181 246 293 352 423
#     4  11  26  47  69 103 144 196 240 293 361 437
#
# _framework density 27.393436000000001
#
# number of rings (size 3 to 8) (size 9 to 14) (size 15 to 20)
#    1.000    0.667    1.667    1.000    9.333    2.000 
#    3.000    0.833    0.000    0.000    0.000    0.000 
#    0.000    0.000    0.000    0.000    0.000    0.000 
#
# Total GULP energy -133795.913422 kJ/mol
# GULP energy per Si atom -5574.829726 kJ/mol
# Density = 2.733109 g / cm^3
# Si number density = 27.393436 Si / 1000 Ang^3
#
#
#
# Elastic Constant Matrix: (Units=GPa)
#
#
# Indices 1 2 3 4 5 6 
#
# 1 86.0126 -2.7328 24.8692 0.0000 -9.7798 0.0000
# 2 -2.7328 67.6890 1.8493 0.0000 -4.9069 0.0000
# 3 24.8692 1.8493 105.0843 0.0000 18.3218 0.0000
# 4 0.0000 0.0000 0.0000 45.1343 0.0000 8.3680
# 5 -9.7798 -4.9069 18.3218 0.0000 45.8681 0.0000
# 6 0.0000 0.0000 0.0000 8.3680 0.0000 41.5375
#
#
#
# Elastic Compliance Matrix: (Units=1/GPa)
#
#
# Indices 1 2 3 4 5 6 
#
# 1 0.013316 0.000974 -0.003957 0.000000 0.004524 0.000000
# 2 0.000974 0.014993 -0.000871 0.000000 0.002159 0.000000
# 3 -0.003957 -0.000871 0.011427 0.000000 -0.005501 0.000000
# 4 0.000000 0.000000 0.000000 0.023016 0.000000 -0.004637
# 5 0.004524 0.002159 -0.005501 0.000000 0.025195 0.000000
# 6 0.000000 0.000000 0.000000 -0.004637 0.000000 0.025009
#
#
# Mechanical properties :
#
#
# Convention : Reuss Voigt Hill
#
# Bulk Modulus (GPa) = 31.22329 34.08413 32.65371
# Shear Modulus (GPa) = 38.06926 42.16134 40.11530
#
# Velocity S-wave (km/s) = 3.73194 3.92740 3.83092
# Velocity P-wave (km/s) = 5.47656 5.74764 5.61374
#
# Compressibility (1/GPa) = 0.03202737
#
# Stress axis : x y z
#
# Youngs Moduli (GPa) = 75.09940 66.69740 87.51055
#
# Poissons Ratio (x) = -0.06494 0.34630
# Poissons Ratio (y) = -0.07312 0.07620
# Poissons Ratio (z) = 0.29718 0.05808
#
# Static dielectric constant tensor:
#      x y z
#    x 2.547390 0.000000 0.092380 
#    y 0.000000 2.460490 0.000000 
#    z 0.092380 0.000000 2.239890 
# 
# From -- ./inp_files/40983.got.cif
#   From: 2010.05.17/outbox.cif.g08.bks.cpg/sg15_21_cif.got.tgz:40983.got - 2010.06.03 18:47:42.
