data_PCOD9286136
_publ_section_title
;
Structure prediction by ZEFSAII (Michael W. Deem and Ramdas Pophale) SiO2 
 PCOD9286136
Probable space group: C 2/C
;
_chemical_formula_sum "Si O2"
_cell_formula_units_Z 36
_cell_length_a 24.694560
_cell_length_b 4.951164
_cell_length_c 18.829712
_cell_angle_alpha 90.000000
_cell_angle_beta 145.173403
_cell_angle_gamma 90.000000
_cell_volume 1314.802141
_symmetry_space_group_name_H-M "C 2/C"
_symmetry_group_IT_number 15
_symmetry_cell_setting 'monoclinic'
loop_
_space_group_symop_operation_xyz
x,y,z
-x,y,1/2-z
-x,-y,-z
x,-y,1/2+z
1/2+x,1/2+y,z
1/2-x,1/2+y,1/2-z
1/2-x,1/2-y,-z
1/2+x,1/2-y,1/2+z
loop_
_atom_site_type_symbol
_atom_site_label
_atom_site_fract_x
_atom_site_fract_y
_atom_site_fract_z
Si Si1 0.000000 0.757097 0.750000
Si Si2 0.537397 0.388332 0.153824
Si Si3 0.697239 0.121934 0.012013
Si Si4 0.592447 0.185424 0.592673
Si Si5 0.714613 0.100944 0.317777
O O1 0.912067 0.588414 0.625549
O O2 0.966738 0.949391 0.778322
O O3 0.586240 0.578358 0.145196
O O4 0.607304 0.130645 0.235278
O O5 0.433633 0.317865 0.010822
O O6 0.718346 0.357854 0.089405
O O7 0.739996 0.858478 0.094578
O O8 0.750000 0.250000 0.000000
O O9 0.500000 0.000000 0.500000
O O10 0.682232 0.990962 0.702825
#
# Coordination Sequence:
#
# PCOD9286136 Si02
#       5
#     4   8   8   8   8
#     4  12  26  44  72 118 150 196 254 318 382 450
#     4  10  21  42  73 108 144 191 250 312 376 454
#     4  12  25  43  70 105 153 192 244 306 376 449
#     4   9  19  40  76  99 140 202 252 298 377 444
#     4  11  21  44  71 100 140 202 239 300 373 444
#
# _framework density 27.380545000000001
#
# number of rings (size 3 to 8) (size 9 to 14) (size 15 to 20)
#    0.000    1.333    4.444    0.667    0.000    0.889 
#    8.000    0.000   14.667    0.000    0.000    0.000 
#    0.000    0.000    0.000    0.000    0.000    0.000 
#
# Total GULP energy -100638.197738 kJ/mol
# GULP energy per Si atom -5591.010985 kJ/mol
# Density = 2.731823 g / cm^3
# Si number density = 27.380545 Si / 1000 Ang^3
#
#
#
# Elastic Constant Matrix: (Units=GPa)
#
#
# Indices 1 2 3 4 5 6 
#
# 1 81.6623 4.1902 41.4132 -0.0012 -10.3200 -0.0009
# 2 4.1902 138.0550 96.6972 -0.0053 -11.3941 -0.0020
# 3 41.4132 96.6972 282.1828 -0.0027 -0.3960 -0.0013
# 4 -0.0012 -0.0053 -0.0027 80.5151 -0.0005 -4.0065
# 5 -10.3200 -11.3941 -0.3960 -0.0005 26.1898 -0.0005
# 6 -0.0009 -0.0020 -0.0013 -4.0065 -0.0005 30.8797
#
#
#
# Elastic Compliance Matrix: (Units=1/GPa)
#
#
# Indices 1 2 3 4 5 6 
#
# 1 0.014391 0.002072 -0.002813 0.000000 0.006530 0.000001
# 2 0.002072 0.010291 -0.003823 0.000001 0.005236 0.000001
# 3 -0.002813 -0.003823 0.005263 0.000000 -0.002692 0.000000
# 4 0.000000 0.000001 0.000000 0.012501 0.000001 0.001622
# 5 0.006530 0.005236 -0.002692 0.000001 0.042993 0.000001
# 6 0.000001 0.000001 0.000000 0.001622 0.000001 0.032594
#
#
# Mechanical properties :
#
#
# Convention : Reuss Voigt Hill
#
# Bulk Modulus (GPa) = 48.03754 87.38905 67.71329
# Shear Modulus (GPa) = 37.28595 51.49023 44.38809
#
# Velocity S-wave (km/s) = 3.69422 4.34122 4.03072
# Velocity P-wave (km/s) = 5.98154 7.55739 6.81516
#
# Compressibility (1/GPa) = 0.02081705
#
# Stress axis : x y z
#
# Youngs Moduli (GPa) = 69.48798 97.17681 190.00733
#
# Poissons Ratio (x) = -0.20139 0.53450
# Poissons Ratio (y) = -0.14401 0.72642
# Poissons Ratio (z) = 0.19547 0.37152
#
# Static dielectric constant tensor:
#      x y z
#    x 2.270910 0.000000 -0.064400 
#    y 0.000000 2.212640 0.000000 
#    z -0.064400 0.000000 2.157800 
# 
# From -- ./inp_files/258502.got.cif
#   From: 2010.05.17/outbox.cif.g08.bks.cpg/sg15_130_cif.got.tgz:258502.got - 2010.06.03 18:47:42.
