data_PCOD9286576
_publ_section_title
;
Structure prediction by ZEFSAII (Michael W. Deem and Ramdas Pophale) SiO2 
 PCOD9286576
Probable space group: C 2/C
;
_chemical_formula_sum "Si O2"
_cell_formula_units_Z 44
_cell_length_a 11.624074
_cell_length_b 11.416577
_cell_length_c 23.395098
_cell_angle_alpha 90.000000
_cell_angle_beta 142.710458
_cell_angle_gamma 90.000000
_cell_volume 1880.959217
_symmetry_space_group_name_H-M "C 2/C"
_symmetry_group_IT_number 15
_symmetry_cell_setting 'monoclinic'
loop_
_space_group_symop_operation_xyz
x,y,z
-x,y,1/2-z
-x,-y,-z
x,-y,1/2+z
1/2+x,1/2+y,z
1/2-x,1/2+y,1/2-z
1/2-x,1/2-y,-z
1/2+x,1/2-y,1/2+z
loop_
_atom_site_type_symbol
_atom_site_label
_atom_site_fract_x
_atom_site_fract_y
_atom_site_fract_z
Si Si1 0.919520 0.661828 0.087272
Si Si2 0.179048 0.863539 0.208029
Si Si3 0.748140 0.627303 0.435643
Si Si4 0.391248 0.505873 0.015960
Si Si5 0.358546 0.963755 0.389880
Si Si6 0.000000 0.283118 0.250000
O O1 0.079279 0.738778 0.180671
O O2 0.035643 0.584966 0.086923
O O3 0.750000 0.750000 0.000000
O O4 0.805608 0.560943 0.074581
O O5 0.234176 0.924459 0.288183
O O6 0.358941 0.849396 0.237146
O O7 0.026813 0.935692 0.112230
O O8 0.662251 0.617721 0.465715
O O9 0.740393 0.500932 0.398861
O O10 0.636125 0.711066 0.348076
O O11 0.976810 0.632776 0.534812
O O12 0.500000 0.500000 0.000000
#
# Coordination Sequence:
#
# PCOD9286576 Si02
#       6
#     8   8   8   8   8   4
#     4   9  20  43  68  95 137 179 224 279 339 414
#     4  11  24  40  67 102 139 177 224 288 348 413
#     4  10  22  43  69  91 132 183 229 278 337 410
#     4  10  23  44  69  96 138 187 227 282 346 403
#     4  10  21  43  72  96 132 181 232 279 342 411
#     4  12  24  40  66 102 142 166 230 290 344 418
#
# _framework density 23.392320000000002
#
# number of rings (size 3 to 8) (size 9 to 14) (size 15 to 20)
#    0.000    1.818    1.818    1.091    5.091    0.727 
#    0.000    1.818    8.000    0.000    0.000    0.000 
#    0.000    0.000    0.000    0.000    0.000    0.000 
#
# Total GULP energy -122689.284862 kJ/mol
# GULP energy per Si atom -5576.785676 kJ/mol
# Density = 2.333908 g / cm^3
# Si number density = 23.392320 Si / 1000 Ang^3
#
#
#
# Elastic Constant Matrix: (Units=GPa)
#
#
# Indices 1 2 3 4 5 6 
#
# 1 141.0810 9.6285 28.8984 0.0000 -7.7075 0.0000
# 2 9.6285 40.8832 20.0615 0.0000 0.3027 0.0000
# 3 28.8984 20.0615 114.1943 0.0000 -13.7432 0.0000
# 4 0.0000 0.0000 0.0000 29.0652 0.0000 18.7051
# 5 -7.7075 0.3027 -13.7432 0.0000 41.9942 0.0000
# 6 0.0000 0.0000 0.0000 18.7051 0.0000 16.4519
#
#
#
# Elastic Compliance Matrix: (Units=1/GPa)
#
#
# Indices 1 2 3 4 5 6 
#
# 1 0.007536 -0.000980 -0.001632 0.000000 0.000856 0.000000
# 2 -0.000980 0.027027 -0.004731 0.000000 -0.001923 0.000000
# 3 -0.001632 -0.004731 0.010378 0.000000 0.003131 0.000000
# 4 0.000000 0.000000 0.000000 0.128233 0.000000 -0.145795
# 5 0.000856 -0.001923 0.003131 0.000000 0.025008 0.000000
# 6 0.000000 0.000000 0.000000 -0.145795 0.000000 0.226546
#
#
# Mechanical properties :
#
#
# Convention : Reuss Voigt Hill
#
# Bulk Modulus (GPa) = 33.05395 45.92614 39.49005
# Shear Modulus (GPa) = 11.12347 33.34026 22.23186
#
# Velocity S-wave (km/s) = 2.18300 3.77936 3.08619
# Velocity P-wave (km/s) = 4.52934 6.22257 5.44221
#
# Compressibility (1/GPa) = 0.03025357
#
# Stress axis : x y z
#
# Youngs Moduli (GPa) = 132.69519 37.00032 96.35800
#
# Poissons Ratio (x) = 0.03628 0.15724
# Poissons Ratio (y) = 0.13010 0.45591
# Poissons Ratio (z) = 0.21653 0.17506
#
# Static dielectric constant tensor:
#      x y z
#    x 1.975920 0.000000 -0.000950 
#    y 0.000000 1.999290 0.000000 
#    z -0.000950 0.000000 1.937960 
# 
# From -- ./inp_files/269360.got.cif
#   From: 2010.05.17/outbox.cif.g08.bks.cpg/sg15_135_cif.got.tgz:269360.got - 2010.06.03 18:47:42.
