data_PCOD9286611
_publ_section_title
;
Structure prediction by ZEFSAII (Michael W. Deem and Ramdas Pophale) SiO2 
 PCOD9286611
Probable space group: C 2/C
;
_chemical_formula_sum "Si O2"
_cell_formula_units_Z 56
_cell_length_a 9.913901
_cell_length_b 18.788686
_cell_length_c 28.178855
_cell_angle_alpha 90.000000
_cell_angle_beta 155.720046
_cell_angle_gamma 90.000000
_cell_volume 2158.304129
_symmetry_space_group_name_H-M "C 2/C"
_symmetry_group_IT_number 15
_symmetry_cell_setting 'monoclinic'
loop_
_space_group_symop_operation_xyz
x,y,z
-x,y,1/2-z
-x,-y,-z
x,-y,1/2+z
1/2+x,1/2+y,z
1/2-x,1/2+y,1/2-z
1/2-x,1/2-y,-z
1/2+x,1/2-y,1/2+z
loop_
_atom_site_type_symbol
_atom_site_label
_atom_site_fract_x
_atom_site_fract_y
_atom_site_fract_z
Si Si1 0.250508 0.670248 0.022088
Si Si2 0.239638 0.891690 0.069865
Si Si3 0.151710 0.155997 0.245413
Si Si4 0.108021 0.069130 0.948924
Si Si5 0.231079 0.489053 0.761144
Si Si6 0.696979 0.034759 0.617999
Si Si7 0.238927 0.807692 0.209736
O O1 0.388346 0.675382 0.119738
O O2 0.950990 0.613860 0.932473
O O3 0.250000 0.750000 0.000000
O O4 0.415146 0.626082 0.030632
O O5 0.976925 0.898004 0.027218
O O6 0.531886 0.834590 0.173822
O O7 0.459257 0.962458 0.148611
O O8 0.000000 0.141943 0.250000
O O9 0.319228 0.090043 0.272932
O O10 0.370818 0.226822 0.320436
O O11 0.042728 0.136285 0.893090
O O12 0.814569 0.013920 0.841322
O O13 0.445428 0.026790 0.053423
O O14 0.500000 0.540570 0.750000
O O15 0.608475 0.504810 0.864591
O O16 0.500000 0.809736 0.250000
#
# Coordination Sequence:
#
# PCOD9286611 Si02
#       7
#     8   8   8   8   8   8   8
#     4  12  25  46  78 115 162 213 266 338 417 496
#     4  10  21  43  75 112 160 207 259 333 414 485
#     4  11  23  41  74 114 160 205 271 333 403 491
#     4  10  22  42  78 115 158 211 270 328 418 488
#     4  11  22  44  75 116 155 209 270 338 403 485
#     4  12  25  46  77 117 161 215 274 341 403 481
#     4   8  17  38  69 105 150 209 254 327 399 479
#
# _framework density 25.946299
#
# number of rings (size 3 to 8) (size 9 to 14) (size 15 to 20)
#    0.000    1.429    4.286    2.143    0.000    0.571 
#    0.000    0.000    9.429   21.429    0.000    0.000 
#    0.000    0.000    0.000    0.000    0.000    0.000 
#
# Total GULP energy -156169.766375 kJ/mol
# GULP energy per Si atom -5577.491656 kJ/mol
# Density = 2.588724 g / cm^3
# Si number density = 25.946299 Si / 1000 Ang^3
#
#
#
# Elastic Constant Matrix: (Units=GPa)
#
#
# Indices 1 2 3 4 5 6 
#
# 1 84.2166 19.7557 39.5979 0.0102 0.4442 0.0243
# 2 19.7557 216.7342 50.6531 -0.0017 19.0438 0.0029
# 3 39.5979 50.6531 143.8609 0.0009 -21.8585 0.0192
# 4 0.0102 -0.0017 0.0009 48.7531 0.0059 -0.4582
# 5 0.4442 19.0438 -21.8585 0.0059 48.2168 0.0193
# 6 0.0243 0.0029 0.0192 -0.4582 0.0193 32.3452
#
#
#
# Elastic Compliance Matrix: (Units=1/GPa)
#
#
# Indices 1 2 3 4 5 6 
#
# 1 0.013819 -0.000148 -0.004040 -0.000003 -0.001900 -0.000007
# 2 -0.000148 0.005467 -0.002376 0.000001 -0.003235 0.000003
# 3 -0.004040 -0.002376 0.009717 0.000000 0.005381 -0.000006
# 4 -0.000003 0.000001 0.000000 0.020514 -0.000003 0.000291
# 5 -0.001900 -0.003235 0.005381 -0.000003 0.024474 -0.000016
# 6 -0.000007 0.000003 -0.000006 0.000291 -0.000016 0.030921
#
#
# Mechanical properties :
#
#
# Convention : Reuss Voigt Hill
#
# Bulk Modulus (GPa) = 62.99355 73.86946 68.43150
# Shear Modulus (GPa) = 40.54130 48.18336 44.36233
#
# Velocity S-wave (km/s) = 3.95715 4.31402 4.13943
# Velocity P-wave (km/s) = 6.72382 7.30385 7.01983
#
# Compressibility (1/GPa) = 0.01587464
#
# Stress axis : x y z
#
# Youngs Moduli (GPa) = 72.36630 182.91938 102.91090
#
# Poissons Ratio (x) = 0.02715 0.41576
# Poissons Ratio (y) = 0.01074 0.24447
# Poissons Ratio (z) = 0.29236 0.43453
#
# Static dielectric constant tensor:
#      x y z
#    x 2.223790 0.000000 -0.157940 
#    y 0.000000 2.078480 -0.000010 
#    z -0.157940 -0.000010 2.244220 
# 
# From -- ./inp_files/270708.got.cif
#   From: 2010.05.17/outbox.cif.g08.bks.cpg/sg15_136_cif.got.tgz:270708.got - 2010.06.03 18:47:42.
