data_PCOD9286625
_publ_section_title
;
Structure prediction by ZEFSAII (Michael W. Deem and Ramdas Pophale) SiO2 
 PCOD9286625
Probable space group: C 2/C
;
_chemical_formula_sum "Si O2"
_cell_formula_units_Z 44
_cell_length_a 23.941416
_cell_length_b 8.033953
_cell_length_c 13.192365
_cell_angle_alpha 90.000000
_cell_angle_beta 136.403920
_cell_angle_gamma 90.000000
_cell_volume 1749.766652
_symmetry_space_group_name_H-M "C 2/C"
_symmetry_group_IT_number 15
_symmetry_cell_setting 'monoclinic'
loop_
_space_group_symop_operation_xyz
x,y,z
-x,y,1/2-z
-x,-y,-z
x,-y,1/2+z
1/2+x,1/2+y,z
1/2-x,1/2+y,1/2-z
1/2-x,1/2-y,-z
1/2+x,1/2-y,1/2+z
loop_
_atom_site_type_symbol
_atom_site_label
_atom_site_fract_x
_atom_site_fract_y
_atom_site_fract_z
Si Si1 0.153438 0.110111 0.167051
Si Si2 0.500000 0.673915 0.250000
Si Si3 0.151842 0.039479 0.870512
Si Si4 0.213205 0.525935 0.812684
Si Si5 0.914869 0.300027 0.586907
Si Si6 0.933314 0.596363 0.480501
O O1 0.135587 0.982920 0.231695
O O2 0.184868 0.284589 0.255515
O O3 0.217974 0.027485 0.177118
O O4 0.079632 0.170693 0.999614
O O5 0.420210 0.567805 0.172110
O O6 0.523852 0.773465 0.386278
O O7 0.144465 0.220655 0.910256
O O8 0.240467 0.977073 0.019475
O O9 0.140766 0.394563 0.696915
O O10 0.891009 0.473278 0.507184
O O11 0.000000 0.323707 0.750000
O O12 0.000000 0.500000 0.500000
#
# Coordination Sequence:
#
# PCOD9286625 Si02
#       6
#     8   4   8   8   8   8
#     4  10  22  41  64  91 129 175 210 272 334 390
#     4  12  22  40  68 102 128 172 236 280 320 408
#     4  11  23  42  67  95 131 178 215 276 338 395
#     4  10  22  43  62  96 132 166 226 271 329 414
#     4  10  21  44  60  94 132 163 222 267 321 409
#     4  11  24  43  66  96 132 175 218 282 339 389
#
# _framework density 25.146211000000001
#
# number of rings (size 3 to 8) (size 9 to 14) (size 15 to 20)
#    0.000    1.455    1.818    3.818    0.000    2.182 
#    9.818    4.545    0.000    0.000    0.000    0.000 
#    0.000    0.000    0.000    0.000    0.000    0.000 
#
# Total GULP energy -122916.999446 kJ/mol
# GULP energy per Si atom -5587.136338 kJ/mol
# Density = 2.508898 g / cm^3
# Si number density = 25.146211 Si / 1000 Ang^3
#
#
#
# Elastic Constant Matrix: (Units=GPa)
#
#
# Indices 1 2 3 4 5 6 
#
# 1 59.0863 10.7855 12.8802 0.0000 -5.0257 0.0000
# 2 10.7855 94.4587 15.8998 0.0000 -7.6167 0.0000
# 3 12.8802 15.8998 131.3403 0.0000 1.8224 0.0000
# 4 0.0000 0.0000 0.0000 -3.5394 0.0000 -23.8239
# 5 -5.0257 -7.6167 1.8224 0.0000 35.1469 0.0000
# 6 0.0000 0.0000 0.0000 -23.8239 0.0000 25.7306
#
#
#
# Elastic Compliance Matrix: (Units=1/GPa)
#
#
# Indices 1 2 3 4 5 6 
#
# 1 0.017751 -0.001577 -0.001581 0.000000 0.002278 0.000000
# 2 -0.001577 0.011155 -0.001227 0.000000 0.002256 0.000000
# 3 -0.001581 -0.001227 0.007930 0.000000 -0.000903 0.000000
# 4 0.000000 0.000000 0.000000 -0.039066 0.000000 -0.036171
# 5 0.002278 0.002256 -0.000903 0.000000 0.029313 0.000000
# 6 0.000000 0.000000 0.000000 -0.036171 0.000000 0.005374
#
#
# Mechanical properties :
#
#
# Convention : Reuss Voigt Hill
#
# Bulk Modulus (GPa) = 35.63160 40.44625 38.03892
# Shear Modulus (GPa) = 98.84726 27.82228 63.33477
#
# Velocity S-wave (km/s) = 6.27649 3.32990 5.02407
# Velocity P-wave (km/s) = 8.16862 5.55910 6.98677
#
# Compressibility (1/GPa) = 0.02806498
#
# Stress axis : x y z
#
# Youngs Moduli (GPa) = 56.33555 89.64491 126.10372
#
# Poissons Ratio (x) = 0.14136 0.19943
# Poissons Ratio (y) = 0.08883 0.15474
# Poissons Ratio (z) = 0.08909 0.11000
#
# Static dielectric constant tensor:
#      x y z
#    x 1.942650 0.000000 -0.011500 
#    y 0.000000 2.041140 0.000000 
#    z -0.011500 0.000000 2.028530 
# 
# From -- ./inp_files/122094.got.cif
#   From: 2010.05.17/outbox.cif.g08.bks.cpg/sg15_62_cif.got.tgz:122094.got - 2010.06.03 18:47:42.
