data_PCOD9286623
_publ_section_title
;
Structure prediction by ZEFSAII (Michael W. Deem and Ramdas Pophale) SiO2 
 PCOD9286623
Probable space group: C 2/C
;
_chemical_formula_sum "Si O2"
_cell_formula_units_Z 40
_cell_length_a 9.766995
_cell_length_b 25.264419
_cell_length_c 7.241212
_cell_angle_alpha 90.000000
_cell_angle_beta 122.120175
_cell_angle_gamma 90.000000
_cell_volume 1513.322527
_symmetry_space_group_name_H-M "C 2/C"
_symmetry_group_IT_number 15
_symmetry_cell_setting 'monoclinic'
loop_
_space_group_symop_operation_xyz
x,y,z
-x,y,1/2-z
-x,-y,-z
x,-y,1/2+z
1/2+x,1/2+y,z
1/2-x,1/2+y,1/2-z
1/2-x,1/2-y,-z
1/2+x,1/2-y,1/2+z
loop_
_atom_site_type_symbol
_atom_site_label
_atom_site_fract_x
_atom_site_fract_y
_atom_site_fract_z
Si Si1 0.438382 0.773138 0.498525
Si Si2 0.150077 0.152995 0.718449
Si Si3 0.317120 0.933375 0.831554
Si Si4 0.275472 0.317229 0.631821
Si Si5 0.811698 0.448617 0.393806
O O1 0.500000 0.759929 0.750000
O O2 0.302474 0.818278 0.423616
O O3 0.356495 0.724790 0.329295
O O4 0.588785 0.798747 0.498415
O O5 0.196258 0.092458 0.710782
O O6 0.000000 0.152423 0.750000
O O7 0.148303 0.182019 0.518230
O O8 0.229014 0.878922 0.816797
O O9 0.317707 0.933801 0.611670
O O10 0.252450 0.991211 0.838964
O O11 0.503167 0.938173 0.037781
#
# Coordination Sequence:
#
# PCOD9286623 Si02
#       5
#     8   8   8   8   8
#     4  12  28  54  84 119 160 215 278 336 405 491
#     4  12  28  53  82 123 167 213 270 340 408 482
#     4  10  21  43  81 118 155 208 271 329 399 482
#     4  12  27  53  84 120 162 217 275 335 406 487
#     4  10  21  43  79 120 158 207 266 332 397 487
#
# _framework density 26.431906000000001
#
# number of rings (size 3 to 8) (size 9 to 14) (size 15 to 20)
#    0.000    0.800    2.000    4.200    0.000    5.600 
#    0.000   18.000    0.000    2.400    0.000    1.400 
#    0.000    0.000    0.000    0.000    0.000    0.000 
#
# Total GULP energy -112143.754567 kJ/mol
# GULP energy per Si atom -5607.187728 kJ/mol
# Density = 2.637175 g / cm^3
# Si number density = 26.431906 Si / 1000 Ang^3
#
#
#
# Elastic Constant Matrix: (Units=GPa)
#
#
# Indices 1 2 3 4 5 6 
#
# 1 158.8348 56.8341 66.2779 0.0000 0.3417 0.0000
# 2 56.8341 247.8131 68.5569 0.0000 9.3676 0.0000
# 3 66.2779 68.5569 101.6882 0.0000 -13.8150 0.0000
# 4 0.0000 0.0000 0.0000 49.5555 0.0000 -5.2379
# 5 0.3417 9.3676 -13.8150 0.0000 59.6337 0.0000
# 6 0.0000 0.0000 0.0000 -5.2379 0.0000 38.3923
#
#
#
# Elastic Compliance Matrix: (Units=1/GPa)
#
#
# Indices 1 2 3 4 5 6 
#
# 1 0.008795 -0.000411 -0.005631 0.000000 -0.001290 0.000000
# 2 -0.000411 0.005133 -0.003410 0.000000 -0.001594 0.000000
# 3 -0.005631 -0.003410 0.016396 0.000000 0.004366 0.000000
# 4 0.000000 0.000000 0.000000 0.020475 0.000000 0.002793
# 5 -0.001290 -0.001594 0.004366 0.000000 0.018038 0.000000
# 6 0.000000 0.000000 0.000000 0.002793 0.000000 0.026428
#
#
# Mechanical properties :
#
#
# Convention : Reuss Voigt Hill
#
# Bulk Modulus (GPa) = 87.55062 99.07485 93.31273
# Shear Modulus (GPa) = 42.38199 50.62745 46.50472
#
# Velocity S-wave (km/s) = 4.00864 4.38127 4.19909
# Velocity P-wave (km/s) = 7.39058 7.94723 7.67395
#
# Compressibility (1/GPa) = 0.01142196
#
# Stress axis : x y z
#
# Youngs Moduli (GPa) = 113.69807 194.82037 60.99043
#
# Poissons Ratio (x) = 0.07998 0.34344
# Poissons Ratio (y) = 0.04668 0.20795
# Poissons Ratio (z) = 0.64024 0.66424
#
# Static dielectric constant tensor:
#      x y z
#    x 2.087430 0.000000 0.015620 
#    y 0.000000 2.073140 0.000000 
#    z 0.015620 0.000000 2.163780 
# 
# From -- ./inp_files/91020.got.cif
#   From: 2010.05.17/outbox.cif.g08.bks.cpg/sg15_46_cif.got.tgz:91020.got - 2010.06.03 18:47:42.
