data_PCOD9286053
_publ_section_title
;
Structure prediction by ZEFSAII (Michael W. Deem and Ramdas Pophale) SiO2 
 PCOD9286053
Probable space group: C 2/C
;
_chemical_formula_sum "Si O2"
_cell_formula_units_Z 56
_cell_length_a 20.890674
_cell_length_b 18.917331
_cell_length_c 9.354693
_cell_angle_alpha 90.000000
_cell_angle_beta 134.077977
_cell_angle_gamma 90.000000
_cell_volume 2655.855185
_symmetry_space_group_name_H-M "C 2/C"
_symmetry_group_IT_number 15
_symmetry_cell_setting 'monoclinic'
loop_
_space_group_symop_operation_xyz
x,y,z
-x,y,1/2-z
-x,-y,-z
x,-y,1/2+z
1/2+x,1/2+y,z
1/2-x,1/2+y,1/2-z
1/2-x,1/2-y,-z
1/2+x,1/2-y,1/2+z
loop_
_atom_site_type_symbol
_atom_site_label
_atom_site_fract_x
_atom_site_fract_y
_atom_site_fract_z
Si Si1 0.051043 0.695899 0.115047
Si Si2 0.186402 0.704056 0.063689
Si Si3 0.303376 0.420205 0.630261
Si Si4 0.252906 0.555300 0.734696
Si Si5 0.453840 0.942252 0.525472
Si Si6 0.293736 0.793478 0.439688
Si Si7 0.942992 0.812102 0.801265
O O1 0.894622 0.696436 0.151372
O O2 0.005891 0.769863 0.007144
O O3 0.977775 0.634532 0.999976
O O4 0.121541 0.682664 0.095051
O O5 0.224082 0.635006 0.044785
O O6 0.268511 0.748626 0.260390
O O7 0.130129 0.756712 0.875984
O O8 0.288767 0.491030 0.696830
O O9 0.303331 0.436224 0.461998
O O10 0.393665 0.377134 0.797936
O O11 0.150063 0.543387 0.618627
O O12 0.250783 0.629897 0.648306
O O13 0.500000 0.946737 0.750000
O O14 0.500000 0.000000 0.500000
O O15 0.250000 0.750000 0.500000
O O16 0.000000 0.833568 0.750000
#
# Coordination Sequence:
#
# PCOD9286053 Si02
#       7
#     8   8   8   8   8   8   8
#     4  10  22  40  65 101 136 169 223 287 348 397
#     4  10  21  42  70  97 129 179 227 276 342 415
#     4  12  26  43  70  96 136 183 232 276 345 409
#     4  12  26  43  65 102 136 182 235 275 338 421
#     4  12  24  38  58  92 140 175 210 269 342 404
#     4  10  22  41  69  98 135 173 231 288 338 404
#     4  10  22  42  68  99 133 175 230 286 334 400
#
# _framework density 21.085488000000002
#
# number of rings (size 3 to 8) (size 9 to 14) (size 15 to 20)
#    0.000    1.143    2.857    3.000    6.000    1.714 
#    0.000    0.714    0.000    0.000    0.000    0.000 
#    0.000    0.000    0.000    0.000    0.000    0.000 
#
# Total GULP energy -156653.993421 kJ/mol
# GULP energy per Si atom -5594.785479 kJ/mol
# Density = 2.103750 g / cm^3
# Si number density = 21.085488 Si / 1000 Ang^3
#
#
#
# Elastic Constant Matrix: (Units=GPa)
#
#
# Indices 1 2 3 4 5 6 
#
# 1 98.4206 69.7286 18.5847 0.0000 -8.8212 0.0000
# 2 69.7286 153.2947 35.7205 0.0000 -12.6383 0.0000
# 3 18.5847 35.7205 68.7810 0.0000 -3.5936 0.0000
# 4 0.0000 0.0000 0.0000 110.9600 0.0000 0.6221
# 5 -8.8212 -12.6383 -3.5936 0.0000 19.6166 0.0000
# 6 0.0000 0.0000 0.0000 0.6221 0.0000 50.9467
#
#
#
# Elastic Compliance Matrix: (Units=1/GPa)
#
#
# Indices 1 2 3 4 5 6 
#
# 1 0.015126 -0.006545 -0.000558 0.000000 0.002483 0.000000
# 2 -0.006545 0.010598 -0.003567 0.000000 0.003231 0.000000
# 3 -0.000558 -0.003567 0.016567 0.000000 0.000486 0.000000
# 4 0.000000 0.000000 0.000000 0.009013 0.000000 -0.000110
# 5 0.002483 0.003231 0.000486 0.000000 0.054264 0.000000
# 6 0.000000 0.000000 0.000000 -0.000110 0.000000 0.019630
#
#
# Mechanical properties :
#
#
# Convention : Reuss Voigt Hill
#
# Bulk Modulus (GPa) = 47.73020 63.17377 55.45198
# Shear Modulus (GPa) = 32.56865 49.40218 40.98541
#
# Velocity S-wave (km/s) = 3.93440 4.84565 4.41361
# Velocity P-wave (km/s) = 6.58218 7.83153 7.23388
#
# Compressibility (1/GPa) = 0.02095110
#
# Stress axis : x y z
#
# Youngs Moduli (GPa) = 66.11284 94.35576 60.35977
#
# Poissons Ratio (x) = 0.61760 0.03368
# Poissons Ratio (y) = 0.43274 0.21528
# Poissons Ratio (z) = 0.03689 0.33653
#
# Static dielectric constant tensor:
#      x y z
#    x 1.769240 0.000000 0.003180 
#    y 0.000000 1.736950 0.000000 
#    z 0.003180 0.000000 1.749910 
# 
# From -- ./inp_files/50348.got.cif
#   From: 2010.05.17/outbox.cif.g08.bks.cpg/sg15_26_cif.got.tgz:50348.got - 2010.06.03 18:47:42.
