data_PCOD9286282
_publ_section_title
;
Structure prediction by ZEFSAII (Michael W. Deem and Ramdas Pophale) SiO2 
 PCOD9286282
Probable space group: C 2/C
;
_chemical_formula_sum "Si O2"
_cell_formula_units_Z 52
_cell_length_a 26.673060
_cell_length_b 5.573107
_cell_length_c 26.773317
_cell_angle_alpha 90.000000
_cell_angle_beta 148.191032
_cell_angle_gamma 90.000000
_cell_volume 2097.761951
_symmetry_space_group_name_H-M "C 2/C"
_symmetry_group_IT_number 15
_symmetry_cell_setting 'monoclinic'
loop_
_space_group_symop_operation_xyz
x,y,z
-x,y,1/2-z
-x,-y,-z
x,-y,1/2+z
1/2+x,1/2+y,z
1/2-x,1/2+y,1/2-z
1/2-x,1/2-y,-z
1/2+x,1/2-y,1/2+z
loop_
_atom_site_type_symbol
_atom_site_label
_atom_site_fract_x
_atom_site_fract_y
_atom_site_fract_z
Si Si1 0.193502 0.500289 0.965523
Si Si2 0.390373 0.774377 0.515779
Si Si3 0.969007 0.622503 0.903499
Si Si4 0.045138 0.977216 0.694112
Si Si5 0.500000 0.185528 0.750000
Si Si6 0.821007 0.229755 0.769786
Si Si7 0.879697 0.089829 0.409482
O O1 0.178770 0.447485 0.012443
O O2 0.089461 0.538889 0.850194
O O3 0.250000 0.250000 0.000000
O O4 0.250000 0.750000 0.000000
O O5 0.450579 0.923577 0.526205
O O6 0.462638 0.674195 0.618577
O O7 0.368763 0.552381 0.460051
O O8 0.988214 0.762396 0.869359
O O9 0.870152 0.488074 0.809370
O O10 0.964152 0.795636 0.946691
O O11 0.049957 0.862994 0.752164
O O12 0.134373 0.083893 0.739136
O O13 0.709499 0.229576 0.671890
O O14 0.850471 0.126844 0.848357
#
# Coordination Sequence:
#
# PCOD9286282 Si02
#       7
#     8   8   8   8   4   8   8
#     4  12  30  54  82 125 158 212 281 331 420 495
#     4  11  25  45  70 106 148 195 262 332 398 489
#     4  10  21  43  65  99 138 189 253 307 400 484
#     4  10  24  45  74 105 144 208 268 316 426 484
#     4  12  26  56  86 106 168 210 260 366 404 486
#     4  10  22  40  66 107 144 199 260 314 413 485
#     4  11  22  40  66 101 149 191 248 333 384 486
#
# _framework density 24.788322000000001
#
# number of rings (size 3 to 8) (size 9 to 14) (size 15 to 20)
#    0.000    1.231    3.077    1.385    2.154   10.462 
#    0.000    0.000    0.000    0.000    0.000    0.000 
#    0.000    0.000    0.000    0.000    0.000    0.000 
#
# Total GULP energy -144912.203895 kJ/mol
# GULP energy per Si atom -5573.546304 kJ/mol
# Density = 2.473190 g / cm^3
# Si number density = 24.788322 Si / 1000 Ang^3
#
#
#
# Elastic Constant Matrix: (Units=GPa)
#
#
# Indices 1 2 3 4 5 6 
#
# 1 96.6364 28.7345 16.2557 0.0004 -26.6777 0.0085
# 2 28.7345 77.6035 6.7399 0.0024 -14.4186 0.0146
# 3 16.2557 6.7399 87.8522 -0.0008 -9.6108 0.0019
# 4 0.0004 0.0024 -0.0008 28.4061 -0.0011 -2.0937
# 5 -26.6777 -14.4186 -9.6108 -0.0011 38.4390 -0.0015
# 6 0.0085 0.0146 0.0019 -2.0937 -0.0015 57.7030
#
#
#
# Elastic Compliance Matrix: (Units=1/GPa)
#
#
# Indices 1 2 3 4 5 6 
#
# 1 0.013820 -0.003523 -0.001421 0.000000 0.007914 -0.000001
# 2 -0.003523 0.014772 -0.000147 -0.000001 0.003059 -0.000003
# 3 -0.001421 -0.000147 0.011868 0.000000 0.001926 0.000000
# 4 0.000000 -0.000001 0.000000 0.035298 0.000001 0.001281
# 5 0.007914 0.003059 0.001926 0.000001 0.033137 -0.000001
# 6 -0.000001 -0.000003 0.000000 0.001281 -0.000001 0.017377
#
#
# Mechanical properties :
#
#
# Convention : Reuss Voigt Hill
#
# Bulk Modulus (GPa) = 33.02819 40.61693 36.82256
# Shear Modulus (GPa) = 34.11931 38.93376 36.52654
#
# Velocity S-wave (km/s) = 3.71405 3.96744 3.84283
# Velocity P-wave (km/s) = 5.63429 6.11625 5.88021
#
# Compressibility (1/GPa) = 0.03027716
#
# Stress axis : x y z
#
# Youngs Moduli (GPa) = 72.36139 67.69724 84.26270
#
# Poissons Ratio (x) = 0.23851 0.11974
# Poissons Ratio (y) = 0.25494 0.01236
# Poissons Ratio (z) = 0.10283 0.00993
#
# Static dielectric constant tensor:
#      x y z
#    x 1.974420 -0.000010 0.023260 
#    y -0.000010 2.031360 -0.000010 
#    z 0.023260 -0.000010 2.030550 
# 
# From -- ./inp_files/302849.got.cif
#   From: 2010.05.17/outbox.cif.g08.bks.cpg/sg15_152_cif.got.tgz:302849.got - 2010.06.03 18:47:42.
