data_PCOD9286858
_publ_section_title
;
Structure prediction by ZEFSAII (Michael W. Deem and Ramdas Pophale) SiO2 
 PCOD9286858
Probable space group: C 2/C
;
_chemical_formula_sum "Si O2"
_cell_formula_units_Z 40
_cell_length_a 11.345890
_cell_length_b 8.520188
_cell_length_c 21.602647
_cell_angle_alpha 90.000000
_cell_angle_beta 136.860084
_cell_angle_gamma 90.000000
_cell_volume 1427.948557
_symmetry_space_group_name_H-M "C 2/C"
_symmetry_group_IT_number 15
_symmetry_cell_setting 'monoclinic'
loop_
_space_group_symop_operation_xyz
x,y,z
-x,y,1/2-z
-x,-y,-z
x,-y,1/2+z
1/2+x,1/2+y,z
1/2-x,1/2+y,1/2-z
1/2-x,1/2-y,-z
1/2+x,1/2-y,1/2+z
loop_
_atom_site_type_symbol
_atom_site_label
_atom_site_fract_x
_atom_site_fract_y
_atom_site_fract_z
Si Si1 0.496892 0.416960 0.078182
Si Si2 0.336409 0.306534 0.894723
Si Si3 0.300155 0.474680 0.662734
Si Si4 0.649047 0.162787 0.857301
Si Si5 0.568274 0.128956 0.186173
O O1 0.509003 0.606972 0.084059
O O2 0.683415 0.393649 0.116455
O O3 0.490372 0.294985 0.131995
O O4 0.363404 0.361171 0.975643
O O5 0.324219 0.120515 0.896806
O O6 0.165310 0.343213 0.788515
O O7 0.500000 0.517577 0.750000
O O8 0.293056 0.341908 0.606512
O O9 0.221567 0.407540 0.696576
O O10 0.500000 0.193950 0.750000
O O11 0.556821 0.024323 0.861150
#
# Coordination Sequence:
#
# PCOD9286858 Si02
#       5
#     8   8   8   8   8
#     4  10  24  45  69 111 150 196 260 309 391 466
#     4  11  23  44  69 109 155 195 254 325 375 472
#     4  10  25  42  71 111 142 199 264 308 385 461
#     4  10  21  44  71 102 144 200 253 313 377 462
#     4  11  23  46  79 102 154 210 245 321 397 443
#
# _framework density 28.012215999999999
#
# number of rings (size 3 to 8) (size 9 to 14) (size 15 to 20)
#    0.000    1.600    2.000    1.200    8.400    3.200 
#    3.600    4.000    0.000    0.000    0.000    0.000 
#    0.000    0.000    0.000    0.000    0.000    0.000 
#
# Total GULP energy -111595.228299 kJ/mol
# GULP energy per Si atom -5579.761415 kJ/mol
# Density = 2.794846 g / cm^3
# Si number density = 28.012216 Si / 1000 Ang^3
#
#
#
# Elastic Constant Matrix: (Units=GPa)
#
#
# Indices 1 2 3 4 5 6 
#
# 1 141.8687 55.2566 49.5238 0.0000 21.8646 0.0000
# 2 55.2566 251.2250 63.5038 0.0000 -18.6266 0.0000
# 3 49.5238 63.5038 111.2350 0.0000 -20.1030 0.0000
# 4 0.0000 0.0000 0.0000 25.8093 0.0000 -4.8702
# 5 21.8646 -18.6266 -20.1030 0.0000 39.2667 0.0000
# 6 0.0000 0.0000 0.0000 -4.8702 0.0000 56.4997
#
#
#
# Elastic Compliance Matrix: (Units=1/GPa)
#
#
# Indices 1 2 3 4 5 6 
#
# 1 0.011361 -0.001765 -0.005890 0.000000 -0.010179 0.000000
# 2 -0.001765 0.004957 -0.001589 0.000000 0.002521 0.000000
# 3 -0.005890 -0.001589 0.014299 0.000000 0.009847 0.000000
# 4 0.000000 0.000000 0.000000 0.039386 0.000000 0.003395
# 5 -0.010179 0.002521 0.009847 0.000000 0.037371 0.000000
# 6 0.000000 0.000000 0.000000 0.003395 0.000000 0.017992
#
#
# Mechanical properties :
#
#
# Convention : Reuss Voigt Hill
#
# Bulk Modulus (GPa) = 82.44192 93.43301 87.93746
# Shear Modulus (GPa) = 33.80719 46.71810 40.26264
#
# Velocity S-wave (km/s) = 3.47778 4.08827 3.79532
# Velocity P-wave (km/s) = 6.75434 7.46405 7.11805
#
# Compressibility (1/GPa) = 0.01212975
#
# Stress axis : x y z
#
# Youngs Moduli (GPa) = 88.02063 201.72995 69.93473
#
# Poissons Ratio (x) = 0.35597 0.41193
# Poissons Ratio (y) = 0.15532 0.11112
# Poissons Ratio (z) = 0.51846 0.32052
#
# Static dielectric constant tensor:
#      x y z
#    x 2.216240 0.000000 -0.009470 
#    y 0.000000 2.601160 0.000000 
#    z -0.009470 0.000000 2.124450 
# 
# From -- ./inp_files/291345.got.cif
#   From: 2010.05.17/outbox.cif.g08.bks.cpg/sg15_146_cif.got.tgz:291345.got - 2010.06.03 18:47:42.
