data_PCOD9286159
_publ_section_title
;
Structure prediction by ZEFSAII (Michael W. Deem and Ramdas Pophale) SiO2 
 PCOD9286159
Probable space group: C 2/C
;
_chemical_formula_sum "Si O2"
_cell_formula_units_Z 56
_cell_length_a 18.014938
_cell_length_b 13.620855
_cell_length_c 8.975708
_cell_angle_alpha 90.000000
_cell_angle_beta 69.611659
_cell_angle_gamma 90.000000
_cell_volume 2064.471941
_symmetry_space_group_name_H-M "C 2/C"
_symmetry_group_IT_number 15
_symmetry_cell_setting 'monoclinic'
loop_
_space_group_symop_operation_xyz
x,y,z
-x,y,1/2-z
-x,-y,-z
x,-y,1/2+z
1/2+x,1/2+y,z
1/2-x,1/2+y,1/2-z
1/2-x,1/2-y,-z
1/2+x,1/2-y,1/2+z
loop_
_atom_site_type_symbol
_atom_site_label
_atom_site_fract_x
_atom_site_fract_y
_atom_site_fract_z
Si Si1 0.869971 0.977577 0.252112
Si Si2 0.386399 0.670096 0.086245
Si Si3 0.597980 0.183155 0.448581
Si Si4 0.000000 0.555418 0.750000
Si Si5 0.708850 0.872797 0.355591
Si Si6 0.654153 0.040596 0.205867
Si Si7 0.442381 0.621989 0.439058
Si Si8 0.000000 0.778507 0.250000
O O1 0.800075 0.899446 0.325317
O O2 0.842730 0.070228 0.165519
O O3 0.908325 0.035215 0.362509
O O4 0.937230 0.925114 0.107803
O O5 0.329746 0.765310 0.138086
O O6 0.467409 0.664543 0.133369
O O7 0.427169 0.674354 0.894895
O O8 0.549628 0.120330 0.600912
O O9 0.617219 0.285822 0.515570
O O10 0.542577 0.215223 0.348966
O O11 0.667804 0.122369 0.323138
O O12 0.937460 0.488760 0.709340
O O13 0.694956 0.938281 0.218216
O O14 0.666876 0.918687 0.532080
#
# Coordination Sequence:
#
# PCOD9286159 Si02
#       8
#     8   8   8   4   8   8   8   4
#     4  12  29  54  82 125 171 225 287 365 434 525
#     4  11  26  49  87 121 167 218 299 359 425 508
#     4  11  24  42  72 118 160 216 279 363 421 496
#     4  12  25  40  75 118 172 220 293 354 427 500
#     4  12  28  50  79 121 174 227 282 355 456 516
#     4  12  24  45  72 117 168 224 283 352 429 531
#     4  11  28  50  85 121 166 225 300 355 423 513
#     4  10  21  42  77 122 158 216 287 356 421 498
#
# _framework density 27.125582000000001
#
# number of rings (size 3 to 8) (size 9 to 14) (size 15 to 20)
#    0.000    0.571    2.857    4.286   12.000    1.143 
#    0.000    4.286    0.000    0.000    0.000    0.000 
#    0.000    0.000    0.000    0.000    0.000    0.000 
#
# Total GULP energy -156658.975836 kJ/mol
# GULP energy per Si atom -5594.963423 kJ/mol
# Density = 2.706384 g / cm^3
# Si number density = 27.125582 Si / 1000 Ang^3
#
#
#
# Elastic Constant Matrix: (Units=GPa)
#
#
# Indices 1 2 3 4 5 6 
#
# 1 135.3472 69.5768 30.6698 0.0000 -12.1846 0.0000
# 2 69.5768 197.6096 46.8858 0.0000 -15.3130 0.0000
# 3 30.6698 46.8858 92.6105 0.0000 9.6772 0.0000
# 4 0.0000 0.0000 0.0000 55.6581 0.0000 0.3630
# 5 -12.1846 -15.3130 9.6772 0.0000 27.8714 0.0000
# 6 0.0000 0.0000 0.0000 0.3630 0.0000 46.2474
#
#
#
# Elastic Compliance Matrix: (Units=1/GPa)
#
#
# Indices 1 2 3 4 5 6 
#
# 1 0.009523 -0.002549 -0.002233 0.000000 0.003538 0.000000
# 2 -0.002549 0.006985 -0.003089 0.000000 0.003796 0.000000
# 3 -0.002233 -0.003089 0.013884 0.000000 -0.007494 0.000000
# 4 0.000000 0.000000 0.000000 0.017968 0.000000 -0.000141
# 5 0.003538 0.003796 -0.007494 0.000000 0.042113 0.000000
# 6 0.000000 0.000000 0.000000 -0.000141 0.000000 0.021624
#
#
# Mechanical properties :
#
#
# Convention : Reuss Voigt Hill
#
# Bulk Modulus (GPa) = 68.25548 79.98134 74.11841
# Shear Modulus (GPa) = 37.67252 44.51769 41.09511
#
# Velocity S-wave (km/s) = 3.73073 4.05553 3.89652
# Velocity P-wave (km/s) = 6.61628 7.17491 6.90125
#
# Compressibility (1/GPa) = 0.01465084
#
# Stress axis : x y z
#
# Youngs Moduli (GPa) = 105.00537 143.16434 72.02433
#
# Poissons Ratio (x) = 0.36494 0.16083
# Poissons Ratio (y) = 0.26767 0.22246
# Poissons Ratio (z) = 0.23448 0.44219
#
# Static dielectric constant tensor:
#      x y z
#    x 2.153570 0.000000 0.033900 
#    y 0.000000 2.186180 0.000000 
#    z 0.033900 0.000000 2.242640 
# 
# From -- ./inp_files/61867.got.cif
#   From: 2010.05.17/outbox.cif.g08.bks.cpg/sg15_31_cif.got.tgz:61867.got - 2010.06.03 18:47:42.
