data_PCOD9286015
_publ_section_title
;
Structure prediction by ZEFSAII (Michael W. Deem and Ramdas Pophale) SiO2 
 PCOD9286015
Probable space group: C 2/C
;
_chemical_formula_sum "Si O2"
_cell_formula_units_Z 56
_cell_length_a 28.377608
_cell_length_b 9.327683
_cell_length_c 18.996426
_cell_angle_alpha 90.000000
_cell_angle_beta 149.490258
_cell_angle_gamma 90.000000
_cell_volume 2552.793436
_symmetry_space_group_name_H-M "C 2/C"
_symmetry_group_IT_number 15
_symmetry_cell_setting 'monoclinic'
loop_
_space_group_symop_operation_xyz
x,y,z
-x,y,1/2-z
-x,-y,-z
x,-y,1/2+z
1/2+x,1/2+y,z
1/2-x,1/2+y,1/2-z
1/2-x,1/2-y,-z
1/2+x,1/2-y,1/2+z
loop_
_atom_site_type_symbol
_atom_site_label
_atom_site_fract_x
_atom_site_fract_y
_atom_site_fract_z
Si Si1 0.267156 0.665679 0.433256
Si Si2 0.660918 0.685111 0.347169
Si Si3 0.405600 0.019980 0.791405
Si Si4 0.606960 0.597559 0.038018
Si Si5 0.283364 0.465340 0.202966
Si Si6 0.068598 0.084312 0.775588
Si Si7 0.104796 0.426587 0.059110
O O1 0.184720 0.562671 0.350950
O O2 0.328113 0.591189 0.448350
O O3 0.159188 0.820627 0.408161
O O4 0.227761 0.811153 0.348337
O O5 0.750000 0.750000 0.500000
O O6 0.600229 0.816112 0.240188
O O7 0.693961 0.582696 0.326412
O O8 0.603809 0.579087 0.324007
O O9 0.397254 0.010185 0.865393
O O10 0.503224 0.951059 0.895587
O O11 0.639607 0.480770 0.136630
O O12 0.624200 0.757195 0.089758
O O13 0.497899 0.592372 0.877903
O O14 0.185427 0.493583 0.115667
O O15 0.000000 0.122657 0.750000
#
# Coordination Sequence:
#
# PCOD9286015 Si02
#       7
#     8   8   8   8   8   8   8
#     4  10  22  43  70  98 134 183 218 283 348 411
#     4  12  26  43  67  99 137 178 228 281 342 412
#     4  11  22  42  67  97 135 175 220 278 345 397
#     4  10  21  42  69  99 134 171 231 282 339 413
#     4  11  24  42  70 102 133 180 228 283 344 409
#     4  10  24  44  67  96 134 182 227 283 344 412
#     4  10  23  41  66 101 135 171 220 287 341 404
#
# _framework density 21.936753
#
# number of rings (size 3 to 8) (size 9 to 14) (size 15 to 20)
#    0.000    1.429    4.286    0.000    2.000    5.714 
#    0.000    1.429    0.000    0.000    0.000    0.000 
#    0.000    0.000    0.000    0.000    0.000    0.000 
#
# Total GULP energy -156487.515526 kJ/mol
# GULP energy per Si atom -5588.839840 kJ/mol
# Density = 2.188682 g / cm^3
# Si number density = 21.936753 Si / 1000 Ang^3
#
#
#
# Elastic Constant Matrix: (Units=GPa)
#
#
# Indices 1 2 3 4 5 6 
#
# 1 37.0761 8.7543 22.3930 0.0000 -6.2603 0.0000
# 2 8.7543 92.1220 35.9356 0.0000 0.0143 0.0000
# 3 22.3930 35.9356 154.1067 0.0000 1.1662 0.0000
# 4 0.0000 0.0000 0.0000 45.4728 0.0000 0.8546
# 5 -6.2603 0.0143 1.1662 0.0000 28.2577 0.0000
# 6 0.0000 0.0000 0.0000 0.8546 0.0000 27.1989
#
#
#
# Elastic Compliance Matrix: (Units=1/GPa)
#
#
# Indices 1 2 3 4 5 6 
#
# 1 0.031042 -0.001288 -0.004264 0.000000 0.007054 0.000000
# 2 -0.001288 0.011995 -0.002609 0.000000 -0.000184 0.000000
# 3 -0.004264 -0.002609 0.007726 0.000000 -0.001262 0.000000
# 4 0.000000 0.000000 0.000000 0.022004 0.000000 -0.000691
# 5 0.007054 -0.000184 -0.001262 0.000000 0.037003 0.000000
# 6 0.000000 0.000000 0.000000 -0.000691 0.000000 0.036788
#
#
# Mechanical properties :
#
#
# Convention : Reuss Voigt Hill
#
# Bulk Modulus (GPa) = 29.03331 46.38563 37.70947
# Shear Modulus (GPa) = 28.67630 34.60069 31.63850
#
# Velocity S-wave (km/s) = 3.61948 3.97582 3.80183
# Velocity P-wave (km/s) = 5.54358 6.50133 6.04146
#
# Compressibility (1/GPa) = 0.03444319
#
# Stress axis : x y z
#
# Youngs Moduli (GPa) = 32.21467 83.36704 129.42631
#
# Poissons Ratio (x) = 0.10736 0.55184
# Poissons Ratio (y) = 0.04148 0.33762
# Poissons Ratio (z) = 0.13735 0.21747
#
# Static dielectric constant tensor:
#      x y z
#    x 1.816600 0.000000 -0.015690 
#    y 0.000000 1.765270 0.000000 
#    z -0.015690 0.000000 1.846090 
# 
# From -- ./inp_files/259012.got.cif
#   From: 2010.05.17/outbox.cif.g08.bks.cpg/sg15_130_cif.got.tgz:259012.got - 2010.06.03 18:47:42.
