data_PCOD9286116
_publ_section_title
;
Structure prediction by ZEFSAII (Michael W. Deem and Ramdas Pophale) SiO2 
 PCOD9286116
Probable space group: C 2/C
;
_chemical_formula_sum "Si O2"
_cell_formula_units_Z 48
_cell_length_a 10.130221
_cell_length_b 18.328833
_cell_length_c 11.461628
_cell_angle_alpha 90.000000
_cell_angle_beta 84.417689
_cell_angle_gamma 90.000000
_cell_volume 2118.046513
_symmetry_space_group_name_H-M "C 2/C"
_symmetry_group_IT_number 15
_symmetry_cell_setting 'monoclinic'
loop_
_space_group_symop_operation_xyz
x,y,z
-x,y,1/2-z
-x,-y,-z
x,-y,1/2+z
1/2+x,1/2+y,z
1/2-x,1/2+y,1/2-z
1/2-x,1/2-y,-z
1/2+x,1/2-y,1/2+z
loop_
_atom_site_type_symbol
_atom_site_label
_atom_site_fract_x
_atom_site_fract_y
_atom_site_fract_z
Si Si1 0.953684 0.957529 0.885533
Si Si2 0.834207 0.733047 0.164483
Si Si3 0.545724 0.290599 0.575215
Si Si4 0.142906 0.576091 0.396286
Si Si5 0.788934 0.704714 0.609839
Si Si6 0.035516 0.581092 0.876250
O O1 0.998681 0.873510 0.899415
O O2 0.794166 0.949794 0.893988
O O3 0.000000 0.982413 0.750000
O O4 0.000000 0.000000 0.000000
O O5 0.687300 0.724884 0.121467
O O6 0.871360 0.648174 0.181129
O O7 0.817209 0.780132 0.281368
O O8 0.928473 0.771408 0.062545
O O9 0.429545 0.240339 0.632112
O O10 0.058378 0.505583 0.370545
O O11 0.084689 0.599597 0.526940
O O12 0.750000 0.750000 0.500000
O O13 0.830699 0.620864 0.590471
O O14 0.000000 0.604379 0.750000
#
# Coordination Sequence:
#
# PCOD9286116 Si02
#       6
#     8   8   8   8   8   8
#     4  11  26  44  72 102 143 188 236 296 360 430
#     4  10  21  42  72  91 131 176 233 278 347 419
#     4  10  21  43  66  95 125 181 228 280 341 420
#     4  10  24  45  69 103 134 187 229 294 349 424
#     4  12  26  40  66 102 137 173 227 295 347 416
#     4  11  25  44  73 101 139 184 237 288 356 430
#
# _framework density 22.662393000000002
#
# number of rings (size 3 to 8) (size 9 to 14) (size 15 to 20)
#    0.000    1.333    1.667    3.500    9.333    3.333 
#    0.000    0.000    0.000    0.000    0.000    0.000 
#    0.000    0.000    0.000    0.000    0.000    0.000 
#
# Total GULP energy -134106.292760 kJ/mol
# GULP energy per Si atom -5587.762198 kJ/mol
# Density = 2.261081 g / cm^3
# Si number density = 22.662393 Si / 1000 Ang^3
#
#
#
# Elastic Constant Matrix: (Units=GPa)
#
#
# Indices 1 2 3 4 5 6 
#
# 1 61.9214 -1.1951 40.0042 0.0000 -1.9286 0.0000
# 2 -1.1951 65.8651 24.4775 0.0000 -2.5066 0.0000
# 3 40.0042 24.4775 162.9519 0.0000 -20.3664 0.0000
# 4 0.0000 0.0000 0.0000 13.6709 0.0000 -9.9203
# 5 -1.9286 -2.5066 -20.3664 0.0000 36.7214 0.0000
# 6 0.0000 0.0000 0.0000 -9.9203 0.0000 22.9388
#
#
#
# Elastic Compliance Matrix: (Units=1/GPa)
#
#
# Indices 1 2 3 4 5 6 
#
# 1 0.019616 0.002288 -0.005384 0.000000 -0.001800 0.000000
# 2 0.002288 0.016349 -0.003076 0.000000 -0.000470 0.000000
# 3 -0.005384 -0.003076 0.008445 0.000000 0.004191 0.000000
# 4 0.000000 0.000000 0.000000 0.106601 0.000000 0.046102
# 5 -0.001800 -0.000470 0.004191 0.000000 0.029430 0.000000
# 6 0.000000 0.000000 0.000000 0.046102 0.000000 0.063532
#
#
# Mechanical properties :
#
#
# Convention : Reuss Voigt Hill
#
# Bulk Modulus (GPa) = 31.18632 46.36796 38.77714
# Shear Modulus (GPa) = 18.72614 29.82968 24.27791
#
# Velocity S-wave (km/s) = 2.87768 3.63197 3.27660
# Velocity P-wave (km/s) = 4.98322 6.17195 5.60917
#
# Compressibility (1/GPa) = 0.03206534
#
# Stress axis : x y z
#
# Youngs Moduli (GPa) = 50.97827 61.16403 118.41972
#
# Poissons Ratio (x) = -0.13997 0.63762
# Poissons Ratio (y) = -0.11666 0.36431
# Poissons Ratio (z) = 0.27449 0.18817
#
# Static dielectric constant tensor:
#      x y z
#    x 1.828650 0.000000 0.027580 
#    y 0.000000 1.904560 0.000000 
#    z 0.027580 0.000000 1.855110 
# 
# From -- ./inp_files/87784.got.cif
#   From: 2010.05.17/outbox.cif.g08.bks.cpg/sg15_44_cif.got.tgz:87784.got - 2010.06.03 18:47:42.
