data_PCOD9286162
_publ_section_title
;
Structure prediction by ZEFSAII (Michael W. Deem and Ramdas Pophale) SiO2 
 PCOD9286162
Probable space group: C 2/C
;
_chemical_formula_sum "Si O2"
_cell_formula_units_Z 48
_cell_length_a 17.292814
_cell_length_b 13.878912
_cell_length_c 18.295316
_cell_angle_alpha 90.000000
_cell_angle_beta 146.716542
_cell_angle_gamma 90.000000
_cell_volume 2409.686029
_symmetry_space_group_name_H-M "C 2/C"
_symmetry_group_IT_number 15
_symmetry_cell_setting 'monoclinic'
loop_
_space_group_symop_operation_xyz
x,y,z
-x,y,1/2-z
-x,-y,-z
x,-y,1/2+z
1/2+x,1/2+y,z
1/2-x,1/2+y,1/2-z
1/2-x,1/2-y,-z
1/2+x,1/2-y,1/2+z
loop_
_atom_site_type_symbol
_atom_site_label
_atom_site_fract_x
_atom_site_fract_y
_atom_site_fract_z
Si Si1 0.352613 0.915900 0.805239
Si Si2 0.864887 0.053649 0.930500
Si Si3 0.868413 0.970466 0.598528
Si Si4 0.676418 0.965962 0.068842
Si Si5 0.848575 0.801737 0.290072
Si Si6 0.101715 0.800509 0.395160
O O1 0.296088 0.807522 0.752041
O O2 0.267190 0.982117 0.681987
O O3 0.324521 0.962218 0.862716
O O4 0.520723 0.926860 0.928828
O O5 0.836720 0.146073 0.858123
O O6 0.876911 0.075846 0.025505
O O7 0.000000 0.000000 0.000000
O O8 0.734299 0.973491 0.545914
O O9 0.885260 0.084917 0.598953
O O10 0.000000 0.935554 0.750000
O O11 0.774808 0.875110 0.173220
O O12 0.012234 0.787971 0.397759
O O13 0.250000 0.750000 0.500000
O O14 0.000000 0.764553 0.250000
#
# Coordination Sequence:
#
# PCOD9286162 Si02
#       6
#     8   8   8   8   8   8
#     4  10  24  39  63  91 124 167 206 261 317 376
#     4  11  23  39  63  93 121 165 213 253 315 375
#     4  11  20  39  58  85 126 160 203 258 306 367
#     4  10  21  43  59  88 131 165 205 261 321 367
#     4  11  22  39  61  91 126 163 210 256 311 383
#     4  11  22  34  55  91 127 157 199 255 318 378
#
# _framework density 19.919606999999999
#
# number of rings (size 3 to 8) (size 9 to 14) (size 15 to 20)
#    0.000    1.333    5.000    2.000    4.667    0.667 
#    0.000    0.833    0.000    0.000    0.000    0.000 
#    0.000    0.000    0.000    0.000    0.000    0.000 
#
# Total GULP energy -133930.191684 kJ/mol
# GULP energy per Si atom -5580.424653 kJ/mol
# Density = 1.987427 g / cm^3
# Si number density = 19.919607 Si / 1000 Ang^3
#
#
#
# Elastic Constant Matrix: (Units=GPa)
#
#
# Indices 1 2 3 4 5 6 
#
# 1 113.7630 23.7476 48.5104 0.0000 -11.5787 0.0000
# 2 23.7476 52.0122 16.5843 -0.0001 6.8627 -0.0001
# 3 48.5104 16.5843 104.9882 -0.0002 -2.2325 -0.0001
# 4 0.0000 -0.0001 -0.0002 14.5594 -0.0001 1.3744
# 5 -11.5787 6.8627 -2.2325 -0.0001 37.3931 0.0000
# 6 0.0000 -0.0001 -0.0001 1.3744 0.0000 10.5970
#
#
#
# Elastic Compliance Matrix: (Units=1/GPa)
#
#
# Indices 1 2 3 4 5 6 
#
# 1 0.012266 -0.004631 -0.004843 0.000000 0.004359 0.000000
# 2 -0.004631 0.022583 -0.001548 0.000000 -0.005671 0.000000
# 3 -0.004843 -0.001548 0.011997 0.000000 -0.000499 0.000000
# 4 0.000000 0.000000 0.000000 0.069536 0.000000 -0.009019
# 5 0.004359 -0.005671 -0.000499 0.000000 0.029104 0.000000
# 6 0.000000 0.000000 0.000000 -0.009019 0.000000 0.095536
#
#
# Mechanical properties :
#
#
# Convention : Reuss Voigt Hill
#
# Bulk Modulus (GPa) = 40.32208 49.82755 45.07482
# Shear Modulus (GPa) = 18.42761 24.63797 21.53279
#
# Velocity S-wave (km/s) = 3.04484 3.52073 3.29140
# Velocity P-wave (km/s) = 5.71382 6.44950 6.09278
#
# Compressibility (1/GPa) = 0.02480031
#
# Stress axis : x y z
#
# Youngs Moduli (GPa) = 81.52736 44.28194 83.35675
#
# Poissons Ratio (x) = 0.20508 0.40372
# Poissons Ratio (y) = 0.37756 0.12903
# Poissons Ratio (z) = 0.39486 0.06855
#
# Static dielectric constant tensor:
#      x y z
#    x 1.776500 0.000000 -0.001430 
#    y 0.000000 1.718300 0.000000 
#    z -0.001430 0.000000 1.745540 
# 
# From -- ./inp_files/66474.got.cif
#   From: 2010.05.17/outbox.cif.g08.bks.cpg/sg15_34_cif.got.tgz:66474.got - 2010.06.03 18:47:42.
