data_PCOD9286615
_publ_section_title
;
Structure prediction by ZEFSAII (Michael W. Deem and Ramdas Pophale) SiO2 
 PCOD9286615
Probable space group: C 2/C
;
_chemical_formula_sum "Si O2"
_cell_formula_units_Z 40
_cell_length_a 27.429282
_cell_length_b 5.268719
_cell_length_c 12.548307
_cell_angle_alpha 90.000000
_cell_angle_beta 63.955515
_cell_angle_gamma 90.000000
_cell_volume 1629.296699
_symmetry_space_group_name_H-M "C 2/C"
_symmetry_group_IT_number 15
_symmetry_cell_setting 'monoclinic'
loop_
_space_group_symop_operation_xyz
x,y,z
-x,y,1/2-z
-x,-y,-z
x,-y,1/2+z
1/2+x,1/2+y,z
1/2-x,1/2+y,1/2-z
1/2-x,1/2-y,-z
1/2+x,1/2-y,1/2+z
loop_
_atom_site_type_symbol
_atom_site_label
_atom_site_fract_x
_atom_site_fract_y
_atom_site_fract_z
Si Si1 0.916239 0.023127 0.161095
Si Si2 0.602275 0.084353 0.636370
Si Si3 0.018303 0.309603 0.575669
Si Si4 0.296000 0.820267 0.039797
Si Si5 0.329654 0.681557 0.607635
O O1 0.904147 0.260978 0.248998
O O2 0.864189 0.850666 0.182175
O O3 0.938490 0.135117 0.028206
O O4 0.966135 0.856835 0.157781
O O5 0.625464 0.282778 0.528125
O O6 0.548466 0.966109 0.637636
O O7 0.649414 0.873237 0.581340
O O8 0.000000 0.500000 0.500000
O O9 0.301205 0.582511 0.112166
O O10 0.292227 0.074177 0.117029
O O11 0.250000 0.750000 0.000000
#
# Coordination Sequence:
#
# PCOD9286615 Si02
#       5
#     8   8   8   8   8
#     4  11  23  44  69 101 154 196 254 314 381 459
#     4  10  24  42  72 109 145 202 249 310 392 454
#     4  11  22  45  65 103 147 202 257 317 367 451
#     4  10  21  43  76 106 144 187 243 318 389 447
#     4  10  21  44  71 106 145 187 248 314 377 453
#
# _framework density 24.550470000000001
#
# number of rings (size 3 to 8) (size 9 to 14) (size 15 to 20)
#    1.200    0.400    4.000    0.600    0.000    2.400 
#    3.600    0.000    4.400    0.000    0.000    0.000 
#    0.000    0.000    0.000    0.000    0.000    0.000 
#
# Total GULP energy -111789.352948 kJ/mol
# GULP energy per Si atom -5589.467647 kJ/mol
# Density = 2.449459 g / cm^3
# Si number density = 24.550470 Si / 1000 Ang^3
#
#
#
# Elastic Constant Matrix: (Units=GPa)
#
#
# Indices 1 2 3 4 5 6 
#
# 1 155.2234 70.2121 54.0362 0.0000 30.0496 0.0000
# 2 70.2121 177.3295 40.0500 0.0000 18.8166 0.0000
# 3 54.0362 40.0500 86.2073 0.0000 8.2750 0.0000
# 4 0.0000 0.0000 0.0000 24.1420 0.0000 47.4184
# 5 30.0496 18.8166 8.2750 0.0000 25.2709 0.0000
# 6 0.0000 0.0000 0.0000 47.4184 0.0000 21.7512
#
#
#
# Elastic Compliance Matrix: (Units=1/GPa)
#
#
# Indices 1 2 3 4 5 6 
#
# 1 0.011096 -0.002218 -0.004973 0.000000 -0.009914 0.000000
# 2 -0.002218 0.007130 -0.001719 0.000000 -0.002108 0.000000
# 3 -0.004973 -0.001719 0.015307 0.000000 0.002182 0.000000
# 4 0.000000 0.000000 0.000000 -0.012621 0.000000 0.027515
# 5 -0.009914 -0.002108 0.002182 0.000000 0.052215 0.000000
# 6 0.000000 0.000000 0.000000 0.027515 0.000000 -0.014008
#
#
# Mechanical properties :
#
#
# Convention : Reuss Voigt Hill
#
# Bulk Modulus (GPa) = 63.65071 83.03967 73.34519
# Shear Modulus (GPa) = 60.84463 31.19695 46.02079
#
# Velocity S-wave (km/s) = 4.98370 3.56859 4.33429
# Velocity P-wave (km/s) = 7.68760 7.13283 7.41540
#
# Compressibility (1/GPa) = 0.01571074
#
# Stress axis : x y z
#
# Youngs Moduli (GPa) = 90.12046 140.26177 65.33147
#
# Poissons Ratio (x) = 0.31114 0.32490
# Poissons Ratio (y) = 0.19991 0.11233
# Poissons Ratio (z) = 0.44818 0.24117
#
# Static dielectric constant tensor:
#      x y z
#    x 2.013710 0.000000 -0.009940 
#    y 0.000000 2.003910 0.000000 
#    z -0.009940 0.000000 2.014440 
# 
# From -- ./inp_files/120818.got.cif
#   From: 2010.05.17/outbox.cif.g08.bks.cpg/sg15_61_cif.got.tgz:120818.got - 2010.06.03 18:47:42.
