data_PCOD9286094
_publ_section_title
;
Structure prediction by ZEFSAII (Michael W. Deem and Ramdas Pophale) SiO2 
 PCOD9286094
Probable space group: C 2/C
;
_chemical_formula_sum "Si O2"
_cell_formula_units_Z 44
_cell_length_a 7.726437
_cell_length_b 26.794682
_cell_length_c 11.253037
_cell_angle_alpha 90.000000
_cell_angle_beta 125.324470
_cell_angle_gamma 90.000000
_cell_volume 1900.770210
_symmetry_space_group_name_H-M "C 2/C"
_symmetry_group_IT_number 15
_symmetry_cell_setting 'monoclinic'
loop_
_space_group_symop_operation_xyz
x,y,z
-x,y,1/2-z
-x,-y,-z
x,-y,1/2+z
1/2+x,1/2+y,z
1/2-x,1/2+y,1/2-z
1/2-x,1/2-y,-z
1/2+x,1/2-y,1/2+z
loop_
_atom_site_type_symbol
_atom_site_label
_atom_site_fract_x
_atom_site_fract_y
_atom_site_fract_z
Si Si1 0.815385 0.713406 0.919574
Si Si2 0.271059 0.395786 0.724394
Si Si3 0.788726 0.971624 0.949320
Si Si4 0.258154 0.284296 0.693942
Si Si5 0.500000 0.054355 0.750000
Si Si6 0.836522 0.599907 0.907491
O O1 0.074306 0.714466 0.022484
O O2 0.750000 0.750000 0.000000
O O3 0.721881 0.737979 0.765144
O O4 0.756951 0.655473 0.904700
O O5 0.500000 0.401715 0.750000
O O6 0.248990 0.432441 0.826779
O O7 0.246712 0.338029 0.754918
O O8 0.076066 0.403753 0.556624
O O9 0.616857 0.015618 0.883319
O O10 0.793871 0.941395 0.073080
O O11 0.000000 0.000000 0.000000
O O12 0.500000 0.280934 0.750000
O O13 0.351405 0.088117 0.773758
#
# Coordination Sequence:
#
# PCOD9286094 Si02
#       6
#     8   8   8   8   4   8
#     4  11  23  43  70  98 138 174 224 278 341 404
#     4  10  21  42  71  97 132 179 228 272 340 415
#     4  12  25  42  69  95 136 178 227 277 341 401
#     4  10  22  41  68  99 132 177 219 276 337 406
#     4  12  26  44  68  94 138 174 228 290 332 402
#     4  11  25  46  66 101 137 177 229 280 342 408
#
# _framework density 23.148510000000002
#
# number of rings (size 3 to 8) (size 9 to 14) (size 15 to 20)
#    0.000    1.091    1.818    3.818    3.818    2.909 
#    9.818    0.000    0.000    0.000    0.000    0.000 
#    0.000    0.000    0.000    0.000    0.000    0.000 
#
# Total GULP energy -123075.672399 kJ/mol
# GULP energy per Si atom -5594.348745 kJ/mol
# Density = 2.309582 g / cm^3
# Si number density = 23.148510 Si / 1000 Ang^3
#
#
#
# Elastic Constant Matrix: (Units=GPa)
#
#
# Indices 1 2 3 4 5 6 
#
# 1 82.2198 47.2071 5.1524 0.0000 -1.0864 0.0000
# 2 47.2071 157.1919 30.5232 0.0000 -22.7883 0.0000
# 3 5.1524 30.5232 54.7064 0.0000 -2.5706 0.0000
# 4 0.0000 0.0000 0.0000 26.5758 0.0000 -8.6082
# 5 -1.0864 -22.7883 -2.5706 0.0000 43.1299 0.0000
# 6 0.0000 0.0000 0.0000 -8.6082 0.0000 36.9245
#
#
#
# Elastic Compliance Matrix: (Units=1/GPa)
#
#
# Indices 1 2 3 4 5 6 
#
# 1 0.014962 -0.005071 0.001316 0.000000 -0.002224 0.000000
# 2 -0.005071 0.009437 -0.004572 0.000000 0.004586 0.000000
# 3 0.001316 -0.004572 0.020653 0.000000 -0.001152 0.000000
# 4 0.000000 0.000000 0.000000 0.040702 0.000000 0.009489
# 5 -0.002224 0.004586 -0.001152 0.000000 0.025484 0.000000
# 6 0.000000 0.000000 0.000000 0.009489 0.000000 0.029294
#
#
# Mechanical properties :
#
#
# Convention : Reuss Voigt Hill
#
# Bulk Modulus (GPa) = 35.21575 51.09819 43.15697
# Shear Modulus (GPa) = 30.00227 35.40840 32.70533
#
# Velocity S-wave (km/s) = 3.60401 3.91528 3.76287
# Velocity P-wave (km/s) = 5.70654 6.52389 6.12886
#
# Compressibility (1/GPa) = 0.02839638
#
# Stress axis : x y z
#
# Youngs Moduli (GPa) = 66.83395 105.96155 48.42029
#
# Poissons Ratio (x) = 0.53737 -0.06371
# Poissons Ratio (y) = 0.33894 0.22140
# Poissons Ratio (z) = -0.08794 0.48450
#
# Static dielectric constant tensor:
#      x y z
#    x 1.897360 0.000000 0.056720 
#    y 0.000000 1.841460 0.000000 
#    z 0.056720 0.000000 1.918970 
# 
# From -- ./inp_files/81558.got.cif
#   From: 2010.05.17/outbox.cif.g08.bks.cpg/sg15_41_cif.got.tgz:81558.got - 2010.06.03 18:47:42.
