data_PCOD9286241
_publ_section_title
;
Structure prediction by ZEFSAII (Michael W. Deem and Ramdas Pophale) SiO2 
 PCOD9286241
Probable space group: C 2/C
;
_chemical_formula_sum "Si O2"
_cell_formula_units_Z 64
_cell_length_a 16.993676
_cell_length_b 8.584769
_cell_length_c 29.242868
_cell_angle_alpha 90.000000
_cell_angle_beta 45.327594
_cell_angle_gamma 90.000000
_cell_volume 3033.820554
_symmetry_space_group_name_H-M "C 2/C"
_symmetry_group_IT_number 15
_symmetry_cell_setting 'monoclinic'
loop_
_space_group_symop_operation_xyz
x,y,z
-x,y,1/2-z
-x,-y,-z
x,-y,1/2+z
1/2+x,1/2+y,z
1/2-x,1/2+y,1/2-z
1/2-x,1/2-y,-z
1/2+x,1/2-y,1/2+z
loop_
_atom_site_type_symbol
_atom_site_label
_atom_site_fract_x
_atom_site_fract_y
_atom_site_fract_z
Si Si1 0.795628 0.260479 0.654888
Si Si2 0.635994 0.892577 0.598224
Si Si3 0.907709 0.264288 0.703648
Si Si4 0.630222 0.465157 0.207490
Si Si5 0.287331 0.842581 0.067617
Si Si6 0.658632 0.141810 0.513439
Si Si7 0.381321 0.019825 0.793308
Si Si8 0.481212 0.312692 0.003968
O O1 0.837601 0.305168 0.687910
O O2 0.704389 0.382205 0.675197
O O3 0.724809 0.103658 0.683750
O O4 0.898263 0.240067 0.578548
O O5 0.535250 0.770801 0.636698
O O6 0.746870 0.791555 0.549449
O O7 0.611872 0.029402 0.572255
O O8 0.645356 0.970563 0.644263
O O9 0.867403 0.104691 0.742471
O O10 0.904818 0.382183 0.747762
O O11 0.500000 0.480879 0.250000
O O12 0.694717 0.354903 0.145127
O O13 0.404759 0.783280 0.038140
O O14 0.296222 0.011420 0.040471
O O15 0.750000 0.250000 0.500000
O O16 0.576246 0.255018 0.519542
O O17 0.500000 0.107560 0.750000
O O18 0.500000 0.500000 0.000000
#
# Coordination Sequence:
#
# PCOD9286241 Si02
#       8
#     8   8   8   8   8   8   8   8
#     4  12  25  43  69 101 142 180 241 296 363 423
#     4  11  23  44  74  98 143 190 237 295 368 430
#     4  11  23  43  69 104 132 185 239 291 361 433
#     4  12  24  46  73 102 140 188 234 296 369 435
#     4  12  24  47  74 101 150 190 239 305 372 431
#     4  12  26  45  72 110 143 193 253 296 364 441
#     4  10  21  43  64  95 139 183 226 295 357 419
#     4  12  28  49  72 106 150 198 246 310 369 433
#
# _framework density 21.095513
#
# number of rings (size 3 to 8) (size 9 to 14) (size 15 to 20)
#    0.000    0.500    3.750    5.250    1.750    1.000 
#    0.000    0.000    0.000    0.000    0.000    0.000 
#    0.000    0.000    0.000    0.000    0.000    0.000 
#
# Total GULP energy -178643.972155 kJ/mol
# GULP energy per Si atom -5582.624130 kJ/mol
# Density = 2.104750 g / cm^3
# Si number density = 21.095513 Si / 1000 Ang^3
#
#
#
# Elastic Constant Matrix: (Units=GPa)
#
#
# Indices 1 2 3 4 5 6 
#
# 1 155.0075 43.7479 66.0182 -0.0002 -5.0868 -0.0003
# 2 43.7479 90.1131 38.4234 -0.0008 -5.7498 -0.0008
# 3 66.0182 38.4234 100.8566 0.0000 -9.0150 -0.0002
# 4 -0.0002 -0.0008 0.0000 29.8984 -0.0001 -3.9603
# 5 -5.0868 -5.7498 -9.0150 -0.0001 37.3253 -0.0003
# 6 -0.0003 -0.0008 -0.0002 -3.9603 -0.0003 45.5915
#
#
#
# Elastic Compliance Matrix: (Units=1/GPa)
#
#
# Indices 1 2 3 4 5 6 
#
# 1 0.009332 -0.002310 -0.005260 0.000000 -0.000355 0.000000
# 2 -0.002310 0.013847 -0.003680 0.000000 0.000929 0.000000
# 3 -0.005260 -0.003680 0.014969 0.000000 0.002332 0.000000
# 4 0.000000 0.000000 0.000000 0.033836 0.000000 0.002939
# 5 -0.000355 0.000929 0.002332 0.000000 0.027449 0.000000
# 6 0.000000 0.000000 0.000000 0.002939 0.000000 0.022189
#
#
# Mechanical properties :
#
#
# Convention : Reuss Voigt Hill
#
# Bulk Modulus (GPa) = 63.90991 71.37292 67.64141
# Shear Modulus (GPa) = 33.48096 35.74889 34.61493
#
# Velocity S-wave (km/s) = 3.98818 4.12104 4.05516
# Velocity P-wave (km/s) = 7.18114 7.52002 7.35253
#
# Compressibility (1/GPa) = 0.01564703
#
# Stress axis : x y z
#
# Youngs Moduli (GPa) = 107.15877 72.21680 66.80678
#
# Poissons Ratio (x) = 0.16684 0.35140
# Poissons Ratio (y) = 0.24756 0.24585
# Poissons Ratio (z) = 0.56366 0.26576
#
# Static dielectric constant tensor:
#      x y z
#    x 1.893800 0.000010 0.009200 
#    y 0.000010 1.843010 0.000000 
#    z 0.009200 0.000000 1.793520 
# 
# From -- ./inp_files/313126.got.cif
#   From: 2010.05.17/outbox.cif.g08.bks.cpg/sg15_157_cif.got.tgz:313126.got - 2010.06.03 18:47:42.
