data_PCOD9286349
_publ_section_title
;
Structure prediction by ZEFSAII (Michael W. Deem and Ramdas Pophale) SiO2 
 PCOD9286349
Probable space group: C 2/C
;
_chemical_formula_sum "Si O2"
_cell_formula_units_Z 44
_cell_length_a 9.385179
_cell_length_b 11.505528
_cell_length_c 30.440949
_cell_angle_alpha 90.000000
_cell_angle_beta 46.471693
_cell_angle_gamma 90.000000
_cell_volume 2383.229108
_symmetry_space_group_name_H-M "C 2/C"
_symmetry_group_IT_number 15
_symmetry_cell_setting 'monoclinic'
loop_
_space_group_symop_operation_xyz
x,y,z
-x,y,1/2-z
-x,-y,-z
x,-y,1/2+z
1/2+x,1/2+y,z
1/2-x,1/2+y,1/2-z
1/2-x,1/2-y,-z
1/2+x,1/2-y,1/2+z
loop_
_atom_site_type_symbol
_atom_site_label
_atom_site_fract_x
_atom_site_fract_y
_atom_site_fract_z
Si Si1 0.687647 0.158795 0.449728
Si Si2 0.393292 0.540594 0.144012
Si Si3 0.454280 0.604423 0.807161
Si Si4 0.976970 0.542119 0.576952
Si Si5 0.000000 0.675948 0.250000
Si Si6 0.168122 0.067058 0.937551
O O1 0.587954 0.119426 0.516636
O O2 0.656605 0.294187 0.446912
O O3 0.918695 0.125574 0.402388
O O4 0.588057 0.077052 0.433533
O O5 0.448987 0.458604 0.172745
O O6 0.359380 0.467876 0.107014
O O7 0.193660 0.605028 0.198712
O O8 0.500000 0.546367 0.750000
O O9 0.221436 0.603463 0.864768
O O10 0.531927 0.734757 0.783613
O O11 0.125315 0.525890 0.585638
O O12 0.000000 0.000000 0.000000
#
# Coordination Sequence:
#
# PCOD9286349 Si02
#       6
#     8   8   8   8   4   8
#     4  10  23  43  63  93 130 165 205 259 311 378
#     4  11  24  43  61  96 123 163 215 254 317 373
#     4   9  23  44  63  86 122 170 209 252 312 370
#     4  10  21  43  67  88 130 169 204 258 318 364
#     4  10  24  40  68  84 128 164 208 268 304 364
#     4  12  25  37  66 101 127 161 207 260 317 373
#
# _framework density 18.462347000000001
#
# number of rings (size 3 to 8) (size 9 to 14) (size 15 to 20)
#    0.545    1.091    1.818    1.636    5.091    2.182 
#    3.273    0.000    0.000    0.000    0.000    0.000 
#    0.000    0.000    0.000    0.000    0.000    0.000 
#
# Total GULP energy -122802.970252 kJ/mol
# GULP energy per Si atom -5581.953193 kJ/mol
# Density = 1.842033 g / cm^3
# Si number density = 18.462347 Si / 1000 Ang^3
#
#
#
# Elastic Constant Matrix: (Units=GPa)
#
#
# Indices 1 2 3 4 5 6 
#
# 1 93.4151 79.8041 70.0497 0.0000 46.1386 0.0000
# 2 79.8041 126.5659 73.6039 0.0000 -15.4180 0.0000
# 3 70.0497 73.6039 159.5858 0.0000 -0.0277 -0.0001
# 4 0.0000 0.0000 0.0000 51.8300 0.0000 31.1367
# 5 46.1386 -15.4180 -0.0277 0.0000 9.9730 0.0001
# 6 0.0000 0.0000 -0.0001 31.1367 0.0001 50.5398
#
#
#
# Elastic Compliance Matrix: (Units=1/GPa)
#
#
# Indices 1 2 3 4 5 6 
#
# 1 -0.002810 0.004849 -0.001000 0.000000 0.020493 0.000000
# 2 0.004849 0.006160 -0.004972 0.000000 -0.012925 0.000000
# 3 -0.001000 -0.004972 0.008998 0.000000 -0.003037 0.000000
# 4 0.000000 0.000000 0.000000 0.030630 0.000000 -0.018871
# 5 0.020493 -0.012925 -0.003037 0.000000 -0.014525 0.000000
# 6 0.000000 0.000000 0.000000 -0.018871 0.000000 0.031412
#
#
# Mechanical properties :
#
#
# Convention : Reuss Voigt Hill
#
# Bulk Modulus (GPa) = 98.97634 91.83135 95.40385
# Shear Modulus (GPa) = 76.35982 32.87584 54.61783
#
# Velocity S-wave (km/s) = 6.43813 4.22441 5.44496
# Velocity P-wave (km/s) = 10.43994 8.58149 9.55600
#
# Compressibility (1/GPa) = 0.01010342
#
# Stress axis : x y z
#
# Youngs Moduli (GPa) = -355.91851 162.32732 111.13846
#
# Poissons Ratio (x) = -0.78718 0.11111
# Poissons Ratio (y) = 1.72597 0.55260
# Poissons Ratio (z) = -0.35584 0.80711
#
# Static dielectric constant tensor:
#      x y z
#    x 2.102380 0.000000 -0.236890 
#    y 0.000000 1.632270 0.000000 
#    z -0.236890 0.000000 1.755720 
# 
# From -- ./inp_files/307021.got.cif
#   From: 2010.05.17/outbox.cif.g08.bks.cpg/sg15_154_cif.got.tgz:307021.got - 2010.06.03 18:47:42.
