data_PCOD9286803
_publ_section_title
;
Structure prediction by ZEFSAII (Michael W. Deem and Ramdas Pophale) SiO2 
 PCOD9286803
Probable space group: C 2/C
;
_chemical_formula_sum "Si O2"
_cell_formula_units_Z 48
_cell_length_a 19.504601
_cell_length_b 12.102654
_cell_length_c 11.250193
_cell_angle_alpha 90.000000
_cell_angle_beta 50.983401
_cell_angle_gamma 90.000000
_cell_volume 2063.375833
_symmetry_space_group_name_H-M "C 2/C"
_symmetry_group_IT_number 15
_symmetry_cell_setting 'monoclinic'
loop_
_space_group_symop_operation_xyz
x,y,z
-x,y,1/2-z
-x,-y,-z
x,-y,1/2+z
1/2+x,1/2+y,z
1/2-x,1/2+y,1/2-z
1/2-x,1/2-y,-z
1/2+x,1/2-y,1/2+z
loop_
_atom_site_type_symbol
_atom_site_label
_atom_site_fract_x
_atom_site_fract_y
_atom_site_fract_z
Si Si1 0.602246 0.573672 0.670475
Si Si2 0.321892 0.697879 0.139958
Si Si3 0.061655 0.290263 0.844904
Si Si4 0.350233 0.856423 0.522831
Si Si5 0.375199 0.111982 0.450240
Si Si6 0.405127 0.673386 0.287699
O O1 0.500000 0.559584 0.750000
O O2 0.652087 0.627142 0.504052
O O3 0.591098 0.663799 0.787822
O O4 0.635663 0.449976 0.655141
O O5 0.238560 0.657149 0.304613
O O6 0.400897 0.693732 0.151094
O O7 0.305939 0.821037 0.105945
O O8 0.074212 0.322792 0.966047
O O9 0.128257 0.356006 0.683951
O O10 0.966939 0.333543 0.899425
O O11 0.353220 0.771625 0.410267
O O12 0.367933 0.982245 0.469180
O O13 0.500000 0.673311 0.250000
#
# Coordination Sequence:
#
# PCOD9286803 Si02
#       6
#     8   8   8   8   8   8
#     4  10  22  44  70  93 125 172 216 276 314 395
#     4  11  25  45  63  97 136 167 217 274 333 374
#     4  10  21  44  69  94 126 174 228 252 329 388
#     4  12  27  38  69 100 133 173 213 274 328 383
#     4  10  23  43  69  90 134 174 214 272 315 395
#     4  11  27  41  69  97 129 172 224 265 328 387
#
# _framework density 23.26285
#
# number of rings (size 3 to 8) (size 9 to 14) (size 15 to 20)
#    0.000    1.333    3.333    2.000    9.333    5.333 
#    0.000    0.000    0.000    0.000    0.000    0.000 
#    0.000    0.000    0.000    0.000    0.000    0.000 
#
# Total GULP energy -134072.081601 kJ/mol
# GULP energy per Si atom -5586.336733 kJ/mol
# Density = 2.320990 g / cm^3
# Si number density = 23.262850 Si / 1000 Ang^3
#
#
#
# Elastic Constant Matrix: (Units=GPa)
#
#
# Indices 1 2 3 4 5 6 
#
# 1 30.8227 11.2126 -17.2925 0.0000 -14.4566 0.0000
# 2 11.2126 234.9588 59.6563 0.0000 23.8823 0.0000
# 3 -17.2925 59.6563 54.8364 0.0000 -2.4544 0.0000
# 4 0.0000 0.0000 0.0000 24.0196 0.0000 -3.6727
# 5 -14.4566 23.8823 -2.4544 0.0000 39.0012 0.0000
# 6 0.0000 0.0000 0.0000 -3.6727 0.0000 -23.3288
#
#
#
# Elastic Compliance Matrix: (Units=1/GPa)
#
#
# Indices 1 2 3 4 5 6 
#
# 1 0.115611 -0.030760 0.072888 0.000000 0.066276 0.000000
# 2 -0.030760 0.014766 -0.026755 0.000000 -0.022128 0.000000
# 3 0.072888 -0.026755 0.072474 0.000000 0.047961 0.000000
# 4 0.000000 0.000000 0.000000 0.040654 0.000000 -0.006400
# 5 0.066276 -0.022128 0.047961 0.000000 0.066775 0.000000
# 6 0.000000 0.000000 0.000000 -0.006400 0.000000 -0.041858
#
#
# Mechanical properties :
#
#
# Convention : Reuss Voigt Hill
#
# Bulk Modulus (GPa) = 4.28087 47.53010 25.90548
# Shear Modulus (GPa) = 15.84577 25.74118 20.79347
#
# Velocity S-wave (km/s) = 2.61274 3.33007 2.99297
# Velocity P-wave (km/s) = 3.30849 5.93818 4.80666
#
# Compressibility (1/GPa) = 0.23359747
#
# Stress axis : x y z
#
# Youngs Moduli (GPa) = 8.64968 67.72251 13.79810
#
# Poissons Ratio (x) = 2.08315 -1.00571
# Poissons Ratio (y) = 0.26607 0.36916
# Poissons Ratio (z) = -0.63046 1.81188
#
# Static dielectric constant tensor:
#      x y z
#    x 1.968660 0.000000 -0.094350 
#    y 0.000000 1.873890 0.000000 
#    z -0.094350 0.000000 1.877890 
# 
# From -- ./inp_files/111429.got.cif
#   From: 2010.05.17/outbox.cif.g08.bks.cpg/sg15_56_cif.got.tgz:111429.got - 2010.06.03 18:47:42.
