data_PCOD9286440
_publ_section_title
;
Structure prediction by ZEFSAII (Michael W. Deem and Ramdas Pophale) SiO2 
 PCOD9286440
Probable space group: C 2/C
;
_chemical_formula_sum "Si O2"
_cell_formula_units_Z 36
_cell_length_a 7.939532
_cell_length_b 13.931684
_cell_length_c 19.745931
_cell_angle_alpha 90.000000
_cell_angle_beta 51.577666
_cell_angle_gamma 90.000000
_cell_volume 1711.150169
_symmetry_space_group_name_H-M "C 2/C"
_symmetry_group_IT_number 15
_symmetry_cell_setting 'monoclinic'
loop_
_space_group_symop_operation_xyz
x,y,z
-x,y,1/2-z
-x,-y,-z
x,-y,1/2+z
1/2+x,1/2+y,z
1/2-x,1/2+y,1/2-z
1/2-x,1/2-y,-z
1/2+x,1/2-y,1/2+z
loop_
_atom_site_type_symbol
_atom_site_label
_atom_site_fract_x
_atom_site_fract_y
_atom_site_fract_z
Si Si1 0.095706 0.768182 0.474213
Si Si2 0.000000 0.046851 0.750000
Si Si3 0.816415 0.065709 0.081241
Si Si4 0.747208 0.595436 0.814078
Si Si5 0.915966 0.558227 0.085638
O O1 0.250000 0.750000 0.500000
O O2 0.172257 0.839472 0.395490
O O3 0.076225 0.667169 0.441862
O O4 0.888953 0.824353 0.556163
O O5 0.187823 0.982608 0.668260
O O6 0.118172 0.111637 0.777276
O O7 0.592396 0.047486 0.100095
O O8 0.797036 0.017492 0.159175
O O9 0.000000 0.000000 0.000000
O O10 0.000000 0.610516 0.750000
O O11 0.000000 0.500000 0.000000
#
# Coordination Sequence:
#
# PCOD9286440 Si02
#       5
#     8   4   8   8   8
#     4  11  24  43  73 103 141 185 247 295 364 434
#     4  12  26  44  74 104 146 196 240 302 372 430
#     4  10  21  43  69 100 136 183 233 291 352 429
#     4  11  23  46  69 103 146 182 237 303 363 428
#     4  12  24  44  72 102 143 190 238 296 364 434
#
# _framework density 21.038481999999998
#
# number of rings (size 3 to 8) (size 9 to 14) (size 15 to 20)
#    0.000    0.889    2.222    7.333    1.556    0.000 
#    0.000    0.000    2.444    0.000    0.000    0.000 
#    0.000    0.000    0.000    0.000    0.000    0.000 
#
# Total GULP energy -100466.502096 kJ/mol
# GULP energy per Si atom -5581.472339 kJ/mol
# Density = 2.099060 g / cm^3
# Si number density = 21.038482 Si / 1000 Ang^3
#
#
#
# Elastic Constant Matrix: (Units=GPa)
#
#
# Indices 1 2 3 4 5 6 
#
# 1 183.1631 23.9453 46.8353 0.0000 8.9906 0.0001
# 2 23.9453 105.6583 50.0680 0.0001 -2.9435 0.0001
# 3 46.8353 50.0680 95.1033 0.0004 -1.5837 -0.0002
# 4 0.0000 0.0001 0.0004 25.1606 -0.0001 12.9586
# 5 8.9906 -2.9435 -1.5837 -0.0001 41.0826 0.0000
# 6 0.0001 0.0001 -0.0002 12.9586 0.0000 29.2875
#
#
#
# Elastic Compliance Matrix: (Units=1/GPa)
#
#
# Indices 1 2 3 4 5 6 
#
# 1 0.006338 0.000017 -0.003155 0.000000 -0.001508 0.000000
# 2 0.000017 0.012628 -0.006645 0.000000 0.000645 0.000000
# 3 -0.003155 -0.006645 0.015581 0.000000 0.000815 0.000000
# 4 0.000000 0.000000 0.000000 0.051475 0.000000 -0.022776
# 5 -0.001508 0.000645 0.000815 0.000000 0.024749 0.000000
# 6 0.000000 0.000000 0.000000 -0.022776 0.000000 0.044222
#
#
# Mechanical properties :
#
#
# Convention : Reuss Voigt Hill
#
# Bulk Modulus (GPa) = 66.76097 69.51354 68.13726
# Shear Modulus (GPa) = 27.84690 36.64456 32.24573
#
# Velocity S-wave (km/s) = 3.64210 4.17800 3.91922
# Velocity P-wave (km/s) = 7.03479 7.50914 7.27583
#
# Compressibility (1/GPa) = 0.01497881
#
# Stress axis : x y z
#
# Youngs Moduli (GPa) = 157.77249 79.19088 64.18105
#
# Poissons Ratio (x) = -0.00133 0.20251
# Poissons Ratio (y) = -0.00265 0.42651
# Poissons Ratio (z) = 0.49782 0.52626
#
# Static dielectric constant tensor:
#      x y z
#    x 1.849170 0.000000 0.111120 
#    y 0.000000 1.770440 0.000000 
#    z 0.111120 0.000000 1.901710 
# 
# From -- ./inp_files/230582.got.cif
#   From: 2010.05.17/outbox.cif.g08.bks.cpg/sg15_116_cif.got.tgz:230582.got - 2010.06.03 18:47:42.
