data_PCOD9286137
_publ_section_title
;
Structure prediction by ZEFSAII (Michael W. Deem and Ramdas Pophale) SiO2 
 PCOD9286137
Probable space group: C 2/C
;
_chemical_formula_sum "Si O2"
_cell_formula_units_Z 32
_cell_length_a 10.452492
_cell_length_b 13.118706
_cell_length_c 9.257182
_cell_angle_alpha 90.000000
_cell_angle_beta 73.766960
_cell_angle_gamma 90.000000
_cell_volume 1218.767546
_symmetry_space_group_name_H-M "C 2/C"
_symmetry_group_IT_number 15
_symmetry_cell_setting 'monoclinic'
loop_
_space_group_symop_operation_xyz
x,y,z
-x,y,1/2-z
-x,-y,-z
x,-y,1/2+z
1/2+x,1/2+y,z
1/2-x,1/2+y,1/2-z
1/2-x,1/2-y,-z
1/2+x,1/2-y,1/2+z
loop_
_atom_site_type_symbol
_atom_site_label
_atom_site_fract_x
_atom_site_fract_y
_atom_site_fract_z
Si Si1 0.000000 0.650631 0.250000
Si Si2 0.111182 0.774120 0.967682
Si Si3 0.752845 0.372063 0.473678
Si Si4 0.500000 0.151474 0.750000
Si Si5 0.211792 0.041997 0.293310
O O1 0.136766 0.585499 0.221999
O O2 0.993238 0.725643 0.389816
O O3 0.096544 0.718697 0.818479
O O4 0.113465 0.891265 0.923120
O O5 0.250000 0.750000 0.000000
O O6 0.750000 0.250000 0.500000
O O7 0.908314 0.401108 0.397788
O O8 0.694611 0.425579 0.347952
O O9 0.695770 0.430347 0.630710
#
# Coordination Sequence:
#
# PCOD9286137 Si02
#       5
#     4   8   8   4   8
#     4  10  21  42  73 110 140 188 249 319 356 452
#     4  10  23  43  71 110 149 188 247 311 374 443
#     4  12  27  46  72 110 151 193 253 314 367 453
#     4  12  23  46  79 102 152 196 243 317 370 428
#     4  11  25  43  71 105 146 198 244 303 386 433
#
# _framework density 26.256032000000001
#
# number of rings (size 3 to 8) (size 9 to 14) (size 15 to 20)
#    0.000    1.000    5.000    0.750    7.000    2.000 
#    0.000    2.500    0.000    0.000    0.000    0.000 
#    0.000    0.000    0.000    0.000    0.000    0.000 
#
# Total GULP energy -89356.215088 kJ/mol
# GULP energy per Si atom -5584.763443 kJ/mol
# Density = 2.619627 g / cm^3
# Si number density = 26.256032 Si / 1000 Ang^3
#
#
#
# Elastic Constant Matrix: (Units=GPa)
#
#
# Indices 1 2 3 4 5 6 
#
# 1 77.3619 11.5538 24.5425 0.0000 7.0666 0.0000
# 2 11.5538 175.6736 96.1533 0.0000 -6.9016 0.0000
# 3 24.5425 96.1533 179.8107 0.0000 3.6768 0.0000
# 4 0.0000 0.0000 0.0000 29.4620 0.0000 0.6469
# 5 7.0666 -6.9016 3.6768 0.0000 42.0045 0.0000
# 6 0.0000 0.0000 0.0000 0.6469 0.0000 28.8082
#
#
#
# Elastic Compliance Matrix: (Units=1/GPa)
#
#
# Indices 1 2 3 4 5 6 
#
# 1 0.013702 0.000020 -0.001837 0.000000 -0.002141 0.000000
# 2 0.000020 0.008171 -0.004408 0.000000 0.001725 0.000000
# 3 -0.001837 -0.004408 0.008192 0.000000 -0.001132 0.000000
# 4 0.000000 0.000000 0.000000 0.033959 0.000000 -0.000763
# 5 -0.002141 0.001725 -0.001132 0.000000 0.024550 0.000000
# 6 0.000000 0.000000 0.000000 -0.000763 0.000000 0.034729
#
#
# Mechanical properties :
#
#
# Convention : Reuss Voigt Hill
#
# Bulk Modulus (GPa) = 56.76604 77.48283 67.12444
# Shear Modulus (GPa) = 35.30471 40.09473 37.69972
#
# Velocity S-wave (km/s) = 3.67090 3.91201 3.79337
# Velocity P-wave (km/s) = 6.29559 7.06963 6.69381
#
# Compressibility (1/GPa) = 0.01761617
#
# Stress axis : x y z
#
# Youngs Moduli (GPa) = 72.98400 122.37997 122.06605
#
# Poissons Ratio (x) = -0.00249 0.22427
# Poissons Ratio (y) = -0.00149 0.53802
# Poissons Ratio (z) = 0.13409 0.53940
#
# Static dielectric constant tensor:
#      x y z
#    x 2.071860 0.000000 0.028560 
#    y 0.000000 2.108360 0.000000 
#    z 0.028560 0.000000 2.032010 
# 
# From -- ./inp_files/36792.got.cif
#   From: 2010.05.17/outbox.cif.g08.bks.cpg/sg15_19_cif.got.tgz:36792.got - 2010.06.03 18:47:42.
