data_PCOD9286317
_publ_section_title
;
Structure prediction by ZEFSAII (Michael W. Deem and Ramdas Pophale) SiO2 
 PCOD9286317
Probable space group: C 2/C
;
_chemical_formula_sum "Si O2"
_cell_formula_units_Z 56
_cell_length_a 9.045641
_cell_length_b 17.499522
_cell_length_c 18.109078
_cell_angle_alpha 90.000000
_cell_angle_beta 115.990363
_cell_angle_gamma 90.000000
_cell_volume 2576.663348
_symmetry_space_group_name_H-M "C 2/C"
_symmetry_group_IT_number 15
_symmetry_cell_setting 'monoclinic'
loop_
_space_group_symop_operation_xyz
x,y,z
-x,y,1/2-z
-x,-y,-z
x,-y,1/2+z
1/2+x,1/2+y,z
1/2-x,1/2+y,1/2-z
1/2-x,1/2-y,-z
1/2+x,1/2-y,1/2+z
loop_
_atom_site_type_symbol
_atom_site_label
_atom_site_fract_x
_atom_site_fract_y
_atom_site_fract_z
Si Si1 0.772918 0.630938 0.284145
Si Si2 0.384152 0.105540 0.142188
Si Si3 0.000000 0.742696 0.750000
Si Si4 0.892270 0.304681 0.064399
Si Si5 0.505152 0.568879 0.904085
Si Si6 0.226826 0.473021 0.459811
Si Si7 0.113969 0.205536 0.012289
Si Si8 0.500000 0.507521 0.250000
O O1 0.839078 0.602578 0.218862
O O2 0.651281 0.703054 0.256782
O O3 0.658248 0.564340 0.293321
O O4 0.956190 0.651916 0.353299
O O5 0.410571 0.024033 0.109499
O O6 0.211649 0.139402 0.076392
O O7 0.068023 0.700318 0.838807
O O8 0.842270 0.390915 0.032528
O O9 0.750000 0.250000 0.000000
O O10 0.040770 0.265664 0.053423
O O11 0.363242 0.537917 0.926161
O O12 0.510000 0.657537 0.929684
O O13 0.468109 0.546482 0.812697
O O14 0.675707 0.522913 0.958235
O O15 0.250000 0.250000 0.000000
#
# Coordination Sequence:
#
# PCOD9286317 Si02
#       8
#     8   8   4   8   8   8   8   4
#     4  10  22  37  69  98 131 173 232 284 347 417
#     4  10  21  43  66  95 133 179 225 291 348 411
#     4  11  26  44  68 106 135 180 242 286 349 432
#     4  12  26  45  72  99 140 188 232 293 351 420
#     4  10  22  42  67  98 137 180 225 290 349 412
#     4  10  22  41  70  96 132 180 233 280 351 412
#     4  11  25  45  65  97 138 183 228 281 356 426
#     4  11  22  38  68 106 135 174 234 294 347 426
#
# _framework density 21.733533999999999
#
# number of rings (size 3 to 8) (size 9 to 14) (size 15 to 20)
#    0.000    1.429    4.286    0.000    6.000    2.286 
#    2.571    4.286    0.000    0.000    0.000    0.000 
#    0.000    0.000    0.000    0.000    0.000    0.000 
#
# Total GULP energy -155893.149175 kJ/mol
# GULP energy per Si atom -5567.612471 kJ/mol
# Density = 2.168407 g / cm^3
# Si number density = 21.733534 Si / 1000 Ang^3
#
#
#
# Elastic Constant Matrix: (Units=GPa)
#
#
# Indices 1 2 3 4 5 6 
#
# 1 86.2321 8.3141 -3.3180 0.0000 3.6694 0.0000
# 2 8.3141 87.8455 8.4223 0.0000 -4.4928 0.0000
# 3 -3.3180 8.4223 38.4653 0.0000 -12.2087 0.0000
# 4 0.0000 0.0000 0.0000 17.3203 0.0000 -1.6527
# 5 3.6694 -4.4928 -12.2087 0.0000 25.1533 0.0000
# 6 0.0000 0.0000 0.0000 -1.6527 0.0000 34.3677
#
#
#
# Elastic Compliance Matrix: (Units=1/GPa)
#
#
# Indices 1 2 3 4 5 6 
#
# 1 0.011817 -0.001275 0.000803 0.000000 -0.001562 0.000000
# 2 -0.001275 0.011786 -0.002321 0.000000 0.001165 0.000000
# 3 0.000803 -0.002321 0.031215 0.000000 0.014619 0.000000
# 4 0.000000 0.000000 0.000000 0.058002 0.000000 0.002789
# 5 -0.001562 0.001165 0.014619 0.000000 0.047288 0.000000
# 6 0.000000 0.000000 0.000000 0.002789 0.000000 0.029231
#
#
# Mechanical properties :
#
#
# Convention : Reuss Voigt Hill
#
# Bulk Modulus (GPa) = 20.31232 26.59775 23.45504
# Shear Modulus (GPa) = 23.65891 28.64322 26.15106
#
# Velocity S-wave (km/s) = 3.30296 3.63427 3.47257
# Velocity P-wave (km/s) = 4.89003 5.46582 5.18592
#
# Compressibility (1/GPa) = 0.04923120
#
# Stress axis : x y z
#
# Youngs Moduli (GPa) = 84.62444 84.84341 32.03590
#
# Poissons Ratio (x) = 0.10820 -0.02572
# Poissons Ratio (y) = 0.10792 0.07436
# Poissons Ratio (z) = -0.06794 0.19693
#
# Static dielectric constant tensor:
#      x y z
#    x 1.760360 0.000000 -0.130500 
#    y 0.000000 1.805350 0.000000 
#    z -0.130500 0.000000 1.167230 
# 
# From -- ./inp_files/191090.got.cif
#   From: 2010.05.17/outbox.cif.g08.bks.cpg/sg15_96_cif.got.tgz:191090.got - 2010.06.03 18:47:42.
