data_PCOD9286681
_publ_section_title
;
Structure prediction by ZEFSAII (Michael W. Deem and Ramdas Pophale) SiO2 
 PCOD9286681
Probable space group: C 2/C
;
_chemical_formula_sum "Si O2"
_cell_formula_units_Z 56
_cell_length_a 13.960377
_cell_length_b 19.657486
_cell_length_c 18.009036
_cell_angle_alpha 90.000000
_cell_angle_beta 31.046146
_cell_angle_gamma 90.000000
_cell_volume 2548.804505
_symmetry_space_group_name_H-M "C 2/C"
_symmetry_group_IT_number 15
_symmetry_cell_setting 'monoclinic'
loop_
_space_group_symop_operation_xyz
x,y,z
-x,y,1/2-z
-x,-y,-z
x,-y,1/2+z
1/2+x,1/2+y,z
1/2-x,1/2+y,1/2-z
1/2-x,1/2-y,-z
1/2+x,1/2-y,1/2+z
loop_
_atom_site_type_symbol
_atom_site_label
_atom_site_fract_x
_atom_site_fract_y
_atom_site_fract_z
Si Si1 0.885639 0.518214 0.427086
Si Si2 0.628609 0.107267 0.465813
Si Si3 0.300298 0.477124 0.099396
Si Si4 0.248809 0.336624 0.208312
Si Si5 0.843621 0.226248 0.793294
Si Si6 0.987048 0.657749 0.407432
Si Si7 0.197712 0.763305 0.618586
O O1 0.851237 0.469628 0.520670
O O2 0.745051 0.491362 0.456823
O O3 0.866431 0.599054 0.448050
O O4 0.106483 0.507082 0.262386
O O5 0.459797 0.144572 0.623795
O O6 0.586023 0.116424 0.407724
O O7 0.798818 0.156503 0.370466
O O8 0.299583 0.398181 0.121329
O O9 0.500000 0.500000 0.000000
O O10 0.352909 0.324824 0.216956
O O11 0.286922 0.270656 0.131910
O O12 0.000000 0.214372 0.750000
O O13 0.875491 0.301435 0.737916
O O14 0.650899 0.212056 0.962978
O O15 0.250000 0.750000 0.500000
O O16 0.000000 0.728461 0.750000
#
# Coordination Sequence:
#
# PCOD9286681 Si02
#       7
#     8   8   8   8   8   8   8
#     4  10  23  44  70 101 142 190 233 293 362 425
#     4  10  21  44  65  96 135 183 226 287 360 416
#     4  10  23  42  70 101 138 186 239 293 353 435
#     4  10  22  42  66  98 135 177 231 292 351 416
#     4  11  25  42  68  99 134 183 234 289 350 417
#     4  11  24  44  70  99 143 184 234 295 355 423
#     4  12  22  37  67  99 135 177 227 290 351 426
#
# _framework density 21.971084000000001
#
# number of rings (size 3 to 8) (size 9 to 14) (size 15 to 20)
#    0.000    1.429    2.857    1.714    6.000    1.143 
#    5.143    0.714    0.000    0.000    0.000    0.000 
#    0.000    0.000    0.000    0.000    0.000    0.000 
#
# Total GULP energy -156018.633586 kJ/mol
# GULP energy per Si atom -5572.094057 kJ/mol
# Density = 2.192108 g / cm^3
# Si number density = 21.971084 Si / 1000 Ang^3
#
#
#
# Elastic Constant Matrix: (Units=GPa)
#
#
# Indices 1 2 3 4 5 6 
#
# 1 145.0729 28.6507 36.6272 -0.0037 -6.7502 0.0009
# 2 28.6507 116.4135 25.9848 0.0274 5.7776 -0.0102
# 3 36.6272 25.9848 45.8647 0.0265 3.2915 -0.0074
# 4 -0.0037 0.0274 0.0265 23.8663 -0.0017 3.8511
# 5 -6.7502 5.7776 3.2915 -0.0017 29.3219 -0.0080
# 6 0.0009 -0.0102 -0.0074 3.8511 -0.0080 28.4813
#
#
#
# Elastic Compliance Matrix: (Units=1/GPa)
#
#
# Indices 1 2 3 4 5 6 
#
# 1 0.008931 -0.000809 -0.006889 0.000011 0.002989 -0.000003
# 2 -0.000809 0.009958 -0.004881 -0.000007 -0.001600 0.000003
# 3 -0.006889 -0.004881 0.030359 -0.000031 -0.004032 0.000009
# 4 0.000011 -0.000007 -0.000031 0.042835 0.000008 -0.005792
# 5 0.002989 -0.001600 -0.004032 0.000008 0.035560 0.000007
# 6 -0.000003 0.000003 0.000009 -0.005792 0.000007 0.035894
#
#
# Mechanical properties :
#
#
# Convention : Reuss Voigt Hill
#
# Bulk Modulus (GPa) = 41.50831 54.43072 47.96952
# Shear Modulus (GPa) = 25.41628 30.73980 28.07804
#
# Velocity S-wave (km/s) = 3.40487 3.74452 3.57873
# Velocity P-wave (km/s) = 5.86437 6.59718 6.24154
#
# Compressibility (1/GPa) = 0.02409156
#
# Stress axis : x y z
#
# Youngs Moduli (GPa) = 111.96895 100.42126 32.93898
#
# Poissons Ratio (x) = 0.08122 0.22690
# Poissons Ratio (y) = 0.09056 0.16078
# Poissons Ratio (z) = 0.77130 0.49016
#
# Static dielectric constant tensor:
#      x y z
#    x 1.779320 0.000000 -0.040520 
#    y 0.000000 1.818950 0.000010 
#    z -0.040520 0.000010 1.867930 
# 
# From -- ./inp_files/206900.got.cif
#   From: 2010.05.17/outbox.cif.g08.bks.cpg/sg15_104_cif.got.tgz:206900.got - 2010.06.03 18:47:42.
