data_PCOD9286557
_publ_section_title
;
Structure prediction by ZEFSAII (Michael W. Deem and Ramdas Pophale) SiO2 
 PCOD9286557
Probable space group: C 2/C
;
_chemical_formula_sum "Si O2"
_cell_formula_units_Z 36
_cell_length_a 10.481317
_cell_length_b 27.236661
_cell_length_c 7.697139
_cell_angle_alpha 90.000000
_cell_angle_beta 133.855573
_cell_angle_gamma 90.000000
_cell_volume 1584.483258
_symmetry_space_group_name_H-M "C 2/C"
_symmetry_group_IT_number 15
_symmetry_cell_setting 'monoclinic'
loop_
_space_group_symop_operation_xyz
x,y,z
-x,y,1/2-z
-x,-y,-z
x,-y,1/2+z
1/2+x,1/2+y,z
1/2-x,1/2+y,1/2-z
1/2-x,1/2-y,-z
1/2+x,1/2-y,1/2+z
loop_
_atom_site_type_symbol
_atom_site_label
_atom_site_fract_x
_atom_site_fract_y
_atom_site_fract_z
Si Si1 0.449160 0.054880 0.901073
Si Si2 0.093879 0.896433 0.008292
Si Si3 0.000000 0.625528 0.250000
Si Si4 0.652683 0.332842 0.502010
Si Si5 0.795247 0.693657 0.510732
O O1 0.500000 0.064437 0.750000
O O2 0.241795 0.067103 0.718865
O O3 0.541087 0.091737 0.122715
O O4 0.500000 0.000000 0.000000
O O5 0.184514 0.846323 0.017262
O O6 0.000000 0.918779 0.750000
O O7 0.955802 0.879448 0.023528
O O8 0.177762 0.655465 0.456047
O O9 0.740716 0.311723 0.758133
O O10 0.500000 0.304594 0.250000
O O11 0.750000 0.750000 0.500000
O O12 0.000000 0.685131 0.750000
#
# Coordination Sequence:
#
# PCOD9286557 Si02
#       5
#     8   8   4   8   8
#     4  12  24  43  69 102 142 187 240 301 360 435
#     4  10  21  43  71  99 138 189 240 294 373 437
#     4  12  24  46  74 106 144 186 244 308 372 432
#     4  11  23  42  75 104 140 187 243 300 366 440
#     4  11  23  44  73 106 145 193 242 298 370 448
#
# _framework density 22.72034
#
# number of rings (size 3 to 8) (size 9 to 14) (size 15 to 20)
#    0.000    0.889    3.333    6.667    0.000    0.000 
#    0.000   10.000    2.444    0.000    0.000    0.000 
#    0.000    0.000    0.000    0.000    0.000    0.000 
#
# Total GULP energy -100661.550179 kJ/mol
# GULP energy per Si atom -5592.308343 kJ/mol
# Density = 2.266863 g / cm^3
# Si number density = 22.720340 Si / 1000 Ang^3
#
#
#
# Elastic Constant Matrix: (Units=GPa)
#
#
# Indices 1 2 3 4 5 6 
#
# 1 93.6095 18.4361 38.1569 0.0000 4.1651 0.0000
# 2 18.4361 88.9835 41.9936 0.0000 10.0518 0.0000
# 3 38.1569 41.9936 185.9790 0.0000 7.6514 0.0000
# 4 0.0000 0.0000 0.0000 35.8520 0.0000 0.2775
# 5 4.1651 10.0518 7.6514 0.0000 61.8414 0.0000
# 6 0.0000 0.0000 0.0000 0.2775 0.0000 15.8261
#
#
#
# Elastic Compliance Matrix: (Units=1/GPa)
#
#
# Indices 1 2 3 4 5 6 
#
# 1 0.011830 -0.001429 -0.002092 0.000000 -0.000306 0.000000
# 2 -0.001429 0.012932 -0.002557 0.000000 -0.001689 0.000000
# 3 -0.002092 -0.002557 0.006393 0.000000 -0.000234 0.000000
# 4 0.000000 0.000000 0.000000 0.027896 0.000000 -0.000489
# 5 -0.000306 -0.001689 -0.000234 0.000000 0.016495 0.000000
# 6 0.000000 0.000000 0.000000 -0.000489 0.000000 0.063196
#
#
# Mechanical properties :
#
#
# Convention : Reuss Voigt Hill
#
# Bulk Modulus (GPa) = 52.63560 62.86057 57.74809
# Shear Modulus (GPa) = 31.80022 40.70293 36.25157
#
# Velocity S-wave (km/s) = 3.74523 4.23717 3.99877
# Velocity P-wave (km/s) = 6.47452 7.18786 6.84049
#
# Compressibility (1/GPa) = 0.01899855
#
# Stress axis : x y z
#
# Youngs Moduli (GPa) = 84.52737 77.32865 156.41608
#
# Poissons Ratio (x) = 0.11053 0.32721
# Poissons Ratio (y) = 0.12082 0.39999
# Poissons Ratio (z) = 0.17682 0.19775
#
# Static dielectric constant tensor:
#      x y z
#    x 1.894990 0.000000 -0.008010 
#    y 0.000000 1.825500 0.000000 
#    z -0.008010 0.000000 1.918810 
# 
# From -- ./inp_files/34917.got.cif
#   From: 2010.05.17/outbox.cif.g08.bks.cpg/sg15_18_cif.got.tgz:34917.got - 2010.06.03 18:47:42.
