data_PCOD9286089
_publ_section_title
;
Structure prediction by ZEFSAII (Michael W. Deem and Ramdas Pophale) SiO2 
 PCOD9286089
Probable space group: C 2/C
;
_chemical_formula_sum "Si O2"
_cell_formula_units_Z 36
_cell_length_a 23.029706
_cell_length_b 14.318792
_cell_length_c 8.192518
_cell_angle_alpha 90.000000
_cell_angle_beta 30.918134
_cell_angle_gamma 90.000000
_cell_volume 1388.088318
_symmetry_space_group_name_H-M "C 2/C"
_symmetry_group_IT_number 15
_symmetry_cell_setting 'monoclinic'
loop_
_space_group_symop_operation_xyz
x,y,z
-x,y,1/2-z
-x,-y,-z
x,-y,1/2+z
1/2+x,1/2+y,z
1/2-x,1/2+y,1/2-z
1/2-x,1/2-y,-z
1/2+x,1/2-y,1/2+z
loop_
_atom_site_type_symbol
_atom_site_label
_atom_site_fract_x
_atom_site_fract_y
_atom_site_fract_z
Si Si1 0.437606 0.634002 0.599382
Si Si2 0.373853 0.932067 0.613976
Si Si3 0.000000 0.957439 0.250000
Si Si4 0.166924 0.237259 0.931584
Si Si5 0.373381 0.877185 0.995291
O O1 0.500000 0.952837 0.250000
O O2 0.435090 0.532055 0.519265
O O3 0.425918 0.608551 0.814754
O O4 0.443188 0.689529 0.215645
O O5 0.339409 0.847318 0.579586
O O6 0.378157 0.903281 0.791854
O O7 0.319467 0.032764 0.716443
O O8 0.151613 0.806217 0.285548
O O9 0.282400 0.204184 0.731728
O O10 0.500000 0.853197 0.750000
#
# Coordination Sequence:
#
# PCOD9286089 Si02
#       5
#     8   8   4   8   8
#     4   9  18  36  64  97 130 173 220 276 336 385
#     4  11  22  47  69  94 137 181 223 282 330 400
#     4   8  16  32  56 100 138 160 212 280 342 396
#     4  10  21  42  71  93 136 174 222 279 335 389
#     4  11  25  43  69 100 133 180 227 269 340 404
#
# _framework density 25.934949
#
# number of rings (size 3 to 8) (size 9 to 14) (size 15 to 20)
#    0.000    2.222    2.222    3.333    0.000    7.111 
#    2.000    6.667   14.667    0.000    0.000    0.000 
#    0.000    0.000    0.000    0.000    0.000    0.000 
#
# Total GULP energy -100732.367115 kJ/mol
# GULP energy per Si atom -5596.242618 kJ/mol
# Density = 2.587592 g / cm^3
# Si number density = 25.934949 Si / 1000 Ang^3
#
#
#
# Elastic Constant Matrix: (Units=GPa)
#
#
# Indices 1 2 3 4 5 6 
#
# 1 106.7793 77.4747 50.0868 0.0000 -19.5786 0.0000
# 2 77.4747 149.2961 14.3120 0.0000 -28.0599 0.0000
# 3 50.0868 14.3120 70.6745 0.0000 -18.3020 0.0000
# 4 0.0000 0.0000 0.0000 5531.1065 0.0000 4152.3181
# 5 -19.5786 -28.0599 -18.3020 0.0000 49.4349 0.0000
# 6 0.0000 0.0000 0.0000 4152.3181 0.0000 3173.6844
#
#
#
# Elastic Compliance Matrix: (Units=1/GPa)
#
#
# Indices 1 2 3 4 5 6 
#
# 1 0.025128 -0.012029 -0.016107 0.000000 -0.002839 0.000000
# 2 -0.012029 0.013270 0.007250 0.000000 0.005452 0.000000
# 3 -0.016107 0.007250 0.026003 0.000000 0.007363 0.000000
# 4 0.000000 0.000000 0.000000 0.010164 0.000000 -0.013298
# 5 -0.002839 0.005452 0.007363 0.000000 0.024925 0.000000
# 6 0.000000 0.000000 0.000000 -0.013298 0.000000 0.017714
#
#
# Mechanical properties :
#
#
# Convention : Reuss Voigt Hill
#
# Bulk Modulus (GPa) = 44.19416 67.83298 56.01357
# Shear Modulus (GPa) = 30.02638 1763.17027 896.59832
#
# Velocity S-wave (km/s) = 3.40627 26.10209 18.61346
# Velocity P-wave (km/s) = 5.70506 30.57184 21.99074
#
# Compressibility (1/GPa) = 0.02262743
#
# Stress axis : x y z
#
# Youngs Moduli (GPa) = 39.79657 75.35681 38.45699
#
# Poissons Ratio (x) = 0.90648 0.61944
# Poissons Ratio (y) = 0.47872 -0.27880
# Poissons Ratio (z) = 0.64101 -0.54631
#
# Static dielectric constant tensor:
#      x y z
#    x 2.028530 0.000000 0.000100 
#    y 0.000000 2.038100 0.000000 
#    z 0.000100 0.000000 2.135590 
# 
# From -- ./inp_files/54850.got.cif
#   From: 2010.05.17/outbox.cif.g08.bks.cpg/sg15_28_cif.got.tgz:54850.got - 2010.06.03 18:47:42.
