data_PCOD9286190
_publ_section_title
;
Structure prediction by ZEFSAII (Michael W. Deem and Ramdas Pophale) SiO2 
 PCOD9286190
Probable space group: C 2/C
;
_chemical_formula_sum "Si O2"
_cell_formula_units_Z 64
_cell_length_a 27.177901
_cell_length_b 14.431340
_cell_length_c 9.068586
_cell_angle_alpha 90.000000
_cell_angle_beta 79.359102
_cell_angle_gamma 90.000000
_cell_volume 3495.658277
_symmetry_space_group_name_H-M "C 2/C"
_symmetry_group_IT_number 15
_symmetry_cell_setting 'monoclinic'
loop_
_space_group_symop_operation_xyz
x,y,z
-x,y,1/2-z
-x,-y,-z
x,-y,1/2+z
1/2+x,1/2+y,z
1/2-x,1/2+y,1/2-z
1/2-x,1/2-y,-z
1/2+x,1/2-y,1/2+z
loop_
_atom_site_type_symbol
_atom_site_label
_atom_site_fract_x
_atom_site_fract_y
_atom_site_fract_z
Si Si1 0.813570 0.949295 0.126236
Si Si2 0.617418 0.530940 0.168902
Si Si3 0.971009 0.922663 0.418670
Si Si4 0.050497 0.203212 0.316069
Si Si5 0.869635 0.634338 0.748530
Si Si6 0.662745 0.004497 0.986562
Si Si7 0.759176 0.280457 0.325305
Si Si8 0.228649 0.406777 0.700436
O O1 0.775782 0.868226 0.188851
O O2 0.856960 0.970407 0.218589
O O3 0.779858 0.040595 0.135480
O O4 0.838656 0.927933 0.956088
O O5 0.582981 0.464236 0.090136
O O6 0.582590 0.614151 0.243848
O O7 0.965659 0.827904 0.511380
O O8 0.000000 0.911133 0.250000
O O9 0.000000 0.000000 0.500000
O O10 0.085198 0.293138 0.282961
O O11 0.000000 0.211967 0.250000
O O12 0.869643 0.565463 0.608223
O O13 0.816716 0.689552 0.773551
O O14 0.866368 0.570985 0.897818
O O15 0.703249 0.951648 0.860855
O O16 0.691421 0.070994 0.086362
O O17 0.750000 0.250000 0.500000
O O18 0.741846 0.197996 0.229385
#
# Coordination Sequence:
#
# PCOD9286190 Si02
#       8
#     8   8   8   8   8   8   8   8
#     4  12  23  36  59  94 133 173 217 248 309 387
#     4  12  23  37  61  96 134 171 207 254 315 393
#     4  12  21  43  65  93 136 176 205 262 335 392
#     4  12  25  45  69  97 129 168 222 278 334 401
#     4  11  24  43  67  94 122 176 225 275 340 385
#     4  10  21  43  63  83 129 173 219 273 330 366
#     4  12  22  37  60  90 134 174 220 260 309 390
#     4  11  21  39  57  87 134 181 211 262 311 374
#
# _framework density 18.308426999999998
#
# number of rings (size 3 to 8) (size 9 to 14) (size 15 to 20)
#    0.000    0.500    7.500    3.000    0.000    1.500 
#    0.000    3.125    0.000    0.000    0.000    0.000 
#    0.000    0.000    0.000    0.000    0.000    0.000 
#
# Total GULP energy -178870.776311 kJ/mol
# GULP energy per Si atom -5589.711760 kJ/mol
# Density = 1.826676 g / cm^3
# Si number density = 18.308427 Si / 1000 Ang^3
#
#
#
# Elastic Constant Matrix: (Units=GPa)
#
#
# Indices 1 2 3 4 5 6 
#
# 1 83.9987 31.7837 46.1233 0.0000 -3.9390 0.0000
# 2 31.7837 60.5685 37.0105 0.0000 -5.8749 0.0000
# 3 46.1233 37.0105 110.8265 0.0000 -4.0957 0.0000
# 4 0.0000 0.0000 0.0000 23.6680 0.0000 -3.5398
# 5 -3.9390 -5.8749 -4.0957 0.0000 24.9416 0.0000
# 6 0.0000 0.0000 0.0000 -3.5398 0.0000 41.3703
#
#
#
# Elastic Compliance Matrix: (Units=1/GPa)
#
#
# Indices 1 2 3 4 5 6 
#
# 1 0.016887 -0.005692 -0.005109 0.000000 0.000487 0.000000
# 2 -0.005692 0.023021 -0.005183 0.000000 0.003672 0.000000
# 3 -0.005109 -0.005183 0.012883 0.000000 0.000088 0.000000
# 4 0.000000 0.000000 0.000000 0.042799 0.000000 0.003662
# 5 0.000487 0.003672 0.000088 0.000000 0.041050 0.000000
# 6 0.000000 0.000000 0.000000 0.003662 0.000000 0.024485
#
#
# Mechanical properties :
#
#
# Convention : Reuss Voigt Hill
#
# Bulk Modulus (GPa) = 48.02537 53.91429 50.96983
# Shear Modulus (GPa) = 24.99563 27.36105 26.17834
#
# Velocity S-wave (km/s) = 3.69894 3.87001 3.78544
# Velocity P-wave (km/s) = 6.67316 7.03427 6.85610
#
# Compressibility (1/GPa) = 0.02082233
#
# Stress axis : x y z
#
# Youngs Moduli (GPa) = 59.21702 43.43923 77.61901
#
# Poissons Ratio (x) = 0.24728 0.39655
# Poissons Ratio (y) = 0.33709 0.40230
# Poissons Ratio (z) = 0.30254 0.22514
#
# Static dielectric constant tensor:
#      x y z
#    x 1.624910 0.000000 -0.010940 
#    y 0.000000 1.588250 0.000000 
#    z -0.010940 0.000000 1.692750 
# 
# From -- ./inp_files/66212.got.cif
#   From: 2010.05.17/outbox.cif.g08.bks.cpg/sg15_34_cif.got.tgz:66212.got - 2010.06.03 18:47:42.
