data_PCOD9286150
_publ_section_title
;
Structure prediction by ZEFSAII (Michael W. Deem and Ramdas Pophale) SiO2 
 PCOD9286150
Probable space group: C 2/C
;
_chemical_formula_sum "Si O2"
_cell_formula_units_Z 52
_cell_length_a 16.973148
_cell_length_b 10.743636
_cell_length_c 15.605746
_cell_angle_alpha 90.000000
_cell_angle_beta 117.674677
_cell_angle_gamma 90.000000
_cell_volume 2520.201863
_symmetry_space_group_name_H-M "C 2/C"
_symmetry_group_IT_number 15
_symmetry_cell_setting 'monoclinic'
loop_
_space_group_symop_operation_xyz
x,y,z
-x,y,1/2-z
-x,-y,-z
x,-y,1/2+z
1/2+x,1/2+y,z
1/2-x,1/2+y,1/2-z
1/2-x,1/2-y,-z
1/2+x,1/2-y,1/2+z
loop_
_atom_site_type_symbol
_atom_site_label
_atom_site_fract_x
_atom_site_fract_y
_atom_site_fract_z
Si Si1 0.933194 0.219002 0.290595
Si Si2 0.757611 0.604005 0.523749
Si Si3 0.920948 0.593035 0.350015
Si Si4 0.500000 0.725589 0.750000
Si Si5 0.848509 0.966801 0.181047
Si Si6 0.556007 0.865939 0.449441
Si Si7 0.274040 0.083964 0.721628
O O1 0.902787 0.081553 0.250764
O O2 0.844672 0.301985 0.254706
O O3 0.000000 0.267345 0.250000
O O4 0.000696 0.240040 0.403212
O O5 0.750000 0.750000 0.500000
O O6 0.707980 0.523794 0.426315
O O7 0.863978 0.588869 0.570657
O O8 0.727382 0.579592 0.605593
O O9 0.970665 0.688219 0.313993
O O10 0.903038 0.644933 0.435468
O O11 0.831928 0.541353 0.262257
O O12 0.982557 0.473173 0.400431
O O13 0.582552 0.636935 0.814859
O O14 0.787775 0.910177 0.226200
#
# Coordination Sequence:
#
# PCOD9286150 Si02
#       7
#     8   8   8   4   8   8   8
#     4  11  21  44  67  98 134 181 227 281 334 412
#     4  12  23  42  71 101 133 179 234 285 337 416
#     4  10  23  45  69  97 131 179 224 284 345 409
#     4  12  28  44  64  96 154 174 212 298 362 394
#     4  12  27  44  65 107 144 179 228 291 354 412
#     4  10  21  42  74  95 125 178 241 272 331 419
#     4  11  24  42  74  98 135 184 236 284 334 410
#
# _framework density 20.633268000000001
#
# number of rings (size 3 to 8) (size 9 to 14) (size 15 to 20)
#    0.000    0.923    5.385    0.923    6.462    1.231 
#    0.000    4.615    0.000    0.000    0.000    0.000 
#    0.000    0.000    0.000    0.000    0.000    0.000 
#
# Total GULP energy -145178.550024 kJ/mol
# GULP energy per Si atom -5583.790386 kJ/mol
# Density = 2.058631 g / cm^3
# Si number density = 20.633268 Si / 1000 Ang^3
#
#
#
# Elastic Constant Matrix: (Units=GPa)
#
#
# Indices 1 2 3 4 5 6 
#
# 1 80.1912 12.8147 6.1226 0.0000 -3.4923 0.0000
# 2 12.8147 53.7622 31.9107 0.0000 1.2617 0.0000
# 3 6.1226 31.9107 94.8785 0.0000 -8.1874 0.0000
# 4 0.0000 0.0000 0.0000 12.6291 0.0000 6.1136
# 5 -3.4923 1.2617 -8.1874 0.0000 23.4117 0.0000
# 6 0.0000 0.0000 0.0000 6.1136 0.0000 33.3994
#
#
#
# Elastic Compliance Matrix: (Units=1/GPa)
#
#
# Indices 1 2 3 4 5 6 
#
# 1 0.013089 -0.003489 0.000529 0.000000 0.002326 0.000000
# 2 -0.003489 0.024560 -0.008449 0.000000 -0.004799 0.000000
# 3 0.000529 -0.008449 0.013810 0.000000 0.005364 0.000000
# 4 0.000000 0.000000 0.000000 0.086881 0.000000 -0.015903
# 5 0.002326 -0.004799 0.005364 0.000000 0.045195 0.000000
# 6 0.000000 0.000000 0.000000 -0.015903 0.000000 0.032852
#
#
# Mechanical properties :
#
#
# Convention : Reuss Voigt Hill
#
# Bulk Modulus (GPa) = 34.91418 36.72535 35.81976
# Shear Modulus (GPa) = 20.10051 25.75362 22.92707
#
# Velocity S-wave (km/s) = 3.12457 3.53676 3.33704
# Velocity P-wave (km/s) = 5.47497 5.87503 5.67853
#
# Compressibility (1/GPa) = 0.02864166
#
# Stress axis : x y z
#
# Youngs Moduli (GPa) = 76.40279 40.71727 72.41004
#
# Poissons Ratio (x) = 0.14204 -0.03833
# Poissons Ratio (y) = 0.26654 0.61181
# Poissons Ratio (z) = -0.04045 0.34403
#
# Static dielectric constant tensor:
#      x y z
#    x 2.982340 0.000000 0.333450 
#    y 0.000000 1.802800 0.000000 
#    z 0.333450 0.000000 1.893910 
# 
# From -- ./inp_files/161075.got.cif
#   From: 2010.05.17/outbox.cif.g08.bks.cpg/sg15_81_cif.got.tgz:161075.got - 2010.06.03 18:47:42.
