data_PCOD9286936
_publ_section_title
;
Structure prediction by ZEFSAII (Michael W. Deem and Ramdas Pophale) SiO2 
 PCOD9286936
Probable space group: C 2/C
;
_chemical_formula_sum "Si O2"
_cell_formula_units_Z 56
_cell_length_a 15.836455
_cell_length_b 9.293027
_cell_length_c 27.008894
_cell_angle_alpha 90.000000
_cell_angle_beta 37.215697
_cell_angle_gamma 90.000000
_cell_volume 2404.064884
_symmetry_space_group_name_H-M "C 2/C"
_symmetry_group_IT_number 15
_symmetry_cell_setting 'monoclinic'
loop_
_space_group_symop_operation_xyz
x,y,z
-x,y,1/2-z
-x,-y,-z
x,-y,1/2+z
1/2+x,1/2+y,z
1/2-x,1/2+y,1/2-z
1/2-x,1/2-y,-z
1/2+x,1/2-y,1/2+z
loop_
_atom_site_type_symbol
_atom_site_label
_atom_site_fract_x
_atom_site_fract_y
_atom_site_fract_z
Si Si1 0.881465 0.038087 0.484796
Si Si2 0.721483 0.409958 0.116936
Si Si3 0.158109 0.122846 0.890439
Si Si4 0.500000 0.808052 0.750000
Si Si5 0.565015 0.038777 0.792174
Si Si6 0.986877 0.861372 0.833417
Si Si7 0.750000 0.250000 0.000000
Si Si8 0.311100 0.938204 0.664069
O O1 0.788530 0.907459 0.507761
O O2 0.022290 0.964200 0.438731
O O3 0.825368 0.126285 0.558006
O O4 0.926726 0.132294 0.416851
O O5 0.632931 0.294036 0.189525
O O6 0.615983 0.540306 0.151234
O O7 0.771035 0.332960 0.044207
O O8 0.830147 0.471664 0.105157
O O9 0.291008 0.043991 0.805401
O O10 0.147525 0.276183 0.868566
O O11 0.485264 0.906087 0.805162
O O12 0.497366 0.193968 0.814869
O O13 0.602752 0.004925 0.831072
O O14 0.144885 0.926905 0.756160
#
# Coordination Sequence:
#
# PCOD9286936 Si02
#       8
#     8   8   8   4   8   8   4   8
#     4  10  21  45  65  98 134 184 218 284 344 408
#     4  11  24  45  69  96 137 183 219 284 344 410
#     4  10  23  41  67  95 139 175 226 277 346 400
#     4  12  26  40  70  98 136 178 228 284 340 400
#     4  11  26  40  68 105 133 174 234 286 332 414
#     4  10  22  42  67  93 137 174 223 277 344 395
#     4  10  24  42  70  96 134 176 232 272 344 412
#     4  11  23  41  69 101 132 179 228 281 337 410
#
# _framework density 23.293880999999999
#
# number of rings (size 3 to 8) (size 9 to 14) (size 15 to 20)
#    0.000    1.429    2.857    0.857   12.000    2.286 
#    2.571    2.857    0.000    0.000    0.000    0.000 
#    0.000    0.000    0.000    0.000    0.000    0.000 
#
# Total GULP energy -156220.715598 kJ/mol
# GULP energy per Si atom -5579.311271 kJ/mol
# Density = 2.324086 g / cm^3
# Si number density = 23.293881 Si / 1000 Ang^3
#
#
#
# Elastic Constant Matrix: (Units=GPa)
#
#
# Indices 1 2 3 4 5 6 
#
# 1 84.5414 25.5697 31.8692 0.0000 25.6091 0.0000
# 2 25.5697 87.4577 13.8802 0.0000 0.2317 0.0001
# 3 31.8692 13.8802 88.0907 0.0000 21.5830 0.0000
# 4 0.0000 0.0000 0.0000 28.4169 0.0000 8.8892
# 5 25.6091 0.2317 21.5830 0.0000 32.3727 0.0000
# 6 0.0000 0.0001 0.0000 8.8892 0.0000 30.1549
#
#
#
# Elastic Compliance Matrix: (Units=1/GPa)
#
#
# Indices 1 2 3 4 5 6 
#
# 1 0.018090 -0.004822 -0.002733 0.000000 -0.012453 0.000000
# 2 -0.004822 0.013064 -0.001465 0.000000 0.004698 0.000000
# 3 -0.002733 -0.001465 0.014390 0.000000 -0.007421 0.000000
# 4 0.000000 0.000000 0.000000 0.038765 0.000000 -0.011427
# 5 -0.012453 0.004698 -0.007421 0.000000 0.045656 0.000000
# 6 0.000000 0.000000 0.000000 -0.011427 0.000000 0.036531
#
#
# Mechanical properties :
#
#
# Convention : Reuss Voigt Hill
#
# Bulk Modulus (GPa) = 36.36012 44.74754 40.55383
# Shear Modulus (GPa) = 25.81267 30.77361 28.29314
#
# Velocity S-wave (km/s) = 3.33247 3.63864 3.48892
# Velocity P-wave (km/s) = 5.51818 6.07492 5.80323
#
# Compressibility (1/GPa) = 0.02750266
#
# Stress axis : x y z
#
# Youngs Moduli (GPa) = 55.28002 76.54650 69.49331
#
# Poissons Ratio (x) = 0.36911 0.18996
# Poissons Ratio (y) = 0.26656 0.10180
# Poissons Ratio (z) = 0.15111 0.11214
#
# Static dielectric constant tensor:
#      x y z
#    x 1.857610 0.000000 -0.034290 
#    y 0.000000 1.822580 0.000000 
#    z -0.034290 0.000000 1.924670 
# 
# From -- ./inp_files/298536.got.cif
#   From: 2010.05.17/outbox.cif.g08.bks.cpg/sg15_150_cif.got.tgz:298536.got - 2010.06.03 18:47:42.
