data_PCOD9286371
_publ_section_title
;
Structure prediction by ZEFSAII (Michael W. Deem and Ramdas Pophale) SiO2 
 PCOD9286371
Probable space group: C 2/C
;
_chemical_formula_sum "Si O2"
_cell_formula_units_Z 64
_cell_length_a 14.213317
_cell_length_b 18.580427
_cell_length_c 12.070948
_cell_angle_alpha 90.000000
_cell_angle_beta 89.812166
_cell_angle_gamma 90.000000
_cell_volume 3187.793479
_symmetry_space_group_name_H-M "C 2/C"
_symmetry_group_IT_number 15
_symmetry_cell_setting 'monoclinic'
loop_
_space_group_symop_operation_xyz
x,y,z
-x,y,1/2-z
-x,-y,-z
x,-y,1/2+z
1/2+x,1/2+y,z
1/2-x,1/2+y,1/2-z
1/2-x,1/2-y,-z
1/2+x,1/2-y,1/2+z
loop_
_atom_site_type_symbol
_atom_site_label
_atom_site_fract_x
_atom_site_fract_y
_atom_site_fract_z
Si Si1 0.866666 0.234742 0.292743
Si Si2 0.662325 0.794626 0.450231
Si Si3 0.684097 0.584957 0.259678
Si Si4 0.107480 0.072159 0.713924
Si Si5 0.043476 0.295049 0.992710
Si Si6 0.699225 0.908150 0.953680
Si Si7 0.732985 0.432055 0.008345
Si Si8 0.184458 0.810514 0.377244
O O1 0.864772 0.264383 0.169199
O O2 0.881478 0.149420 0.283639
O O3 0.934014 0.273303 0.379945
O O4 0.762734 0.253524 0.339331
O O5 0.750000 0.750000 0.500000
O O6 0.567917 0.793689 0.524186
O O7 0.695125 0.876582 0.437233
O O8 0.638529 0.506658 0.254399
O O9 0.771826 0.587569 0.175099
O O10 0.712283 0.596450 0.385955
O O11 0.138976 0.070738 0.584935
O O12 0.162191 0.135102 0.778061
O O13 0.000000 0.081922 0.750000
O O14 0.097841 0.370461 0.970068
O O15 0.095061 0.233890 0.919912
O O16 0.720605 0.988908 0.996328
O O17 0.770447 0.857434 0.023645
#
# Coordination Sequence:
#
# PCOD9286371 Si02
#       8
#     8   8   8   8   8   8   8   8
#     4  11  21  42  66  94 131 170 216 265 320 384
#     4  12  26  41  60  98 135 167 212 273 334 372
#     4  11  21  42  65  93 131 171 210 265 322 390
#     4  11  26  40  63  96 130 173 212 262 333 392
#     4  11  24  40  70  97 123 173 227 265 311 391
#     4  10  21  43  67  94 125 168 216 263 320 382
#     4  11  24  43  65  90 137 171 206 273 330 380
#     4  11  20  41  68  95 125 166 212 273 311 388
#
# _framework density 20.076584
#
# number of rings (size 3 to 8) (size 9 to 14) (size 15 to 20)
#    0.000    1.000    6.250    1.125    1.750    2.000 
#    0.000    1.875    0.000    0.000    0.000    0.000 
#    0.000    0.000    0.000    0.000    0.000    0.000 
#
# Total GULP energy -178681.625709 kJ/mol
# GULP energy per Si atom -5583.800803 kJ/mol
# Density = 2.003089 g / cm^3
# Si number density = 20.076584 Si / 1000 Ang^3
#
#
#
# Elastic Constant Matrix: (Units=GPa)
#
#
# Indices 1 2 3 4 5 6 
#
# 1 129.2929 36.3569 20.6309 0.0000 -21.8464 0.0000
# 2 36.3569 117.6251 11.1568 0.0000 -10.2451 0.0000
# 3 20.6309 11.1568 86.9443 0.0000 -10.5518 0.0000
# 4 0.0000 0.0000 0.0000 30.5111 0.0000 -24.9805
# 5 -21.8464 -10.2451 -10.5518 0.0000 15.5918 0.0000
# 6 0.0000 0.0000 0.0000 -24.9805 0.0000 241.4741
#
#
#
# Elastic Compliance Matrix: (Units=1/GPa)
#
#
# Indices 1 2 3 4 5 6 
#
# 1 0.010638 -0.002085 -0.000669 0.000000 0.013082 0.000000
# 2 -0.002085 0.009445 -0.000347 0.000000 0.003049 0.000000
# 3 -0.000669 -0.000347 0.012598 0.000000 0.007360 0.000000
# 4 0.000000 0.000000 0.000000 0.035808 0.000000 0.003704
# 5 0.013082 0.003049 0.007360 0.000000 0.089451 0.000000
# 6 0.000000 0.000000 0.000000 0.003704 0.000000 0.004524
#
#
# Mechanical properties :
#
#
# Convention : Reuss Voigt Hill
#
# Bulk Modulus (GPa) = 37.76672 52.23903 45.00288
# Shear Modulus (GPa) = 28.17014 75.22993 51.70004
#
# Velocity S-wave (km/s) = 3.74991 6.12804 5.08009
# Velocity P-wave (km/s) = 6.13198 8.72621 7.54149
#
# Compressibility (1/GPa) = 0.02647834
#
# Stress axis : x y z
#
# Youngs Moduli (GPa) = 94.00275 105.88048 79.37647
#
# Poissons Ratio (x) = 0.22078 0.05310
# Poissons Ratio (y) = 0.19601 0.02755
# Poissons Ratio (z) = 0.06289 0.03675
#
# Static dielectric constant tensor:
#      x y z
#    x 1.725870 0.000000 -0.024720 
#    y 0.000000 1.715530 0.000000 
#    z -0.024720 0.000000 1.726200 
# 
# From -- ./inp_files/98759.got.cif
#   From: 2010.05.17/outbox.cif.g08.bks.cpg/sg15_50_cif.got.tgz:98759.got - 2010.06.03 18:47:42.
