data_PCOD9286931
_publ_section_title
;
Structure prediction by ZEFSAII (Michael W. Deem and Ramdas Pophale) SiO2 
 PCOD9286931
Probable space group: C 2/C
;
_chemical_formula_sum "Si O2"
_cell_formula_units_Z 44
_cell_length_a 15.135604
_cell_length_b 28.926343
_cell_length_c 5.241822
_cell_angle_alpha 90.000000
_cell_angle_beta 54.217573
_cell_angle_gamma 90.000000
_cell_volume 1861.772548
_symmetry_space_group_name_H-M "C 2/C"
_symmetry_group_IT_number 15
_symmetry_cell_setting 'monoclinic'
loop_
_space_group_symop_operation_xyz
x,y,z
-x,y,1/2-z
-x,-y,-z
x,-y,1/2+z
1/2+x,1/2+y,z
1/2-x,1/2+y,1/2-z
1/2-x,1/2-y,-z
1/2+x,1/2-y,1/2+z
loop_
_atom_site_type_symbol
_atom_site_label
_atom_site_fract_x
_atom_site_fract_y
_atom_site_fract_z
Si Si1 0.403036 0.295446 0.215071
Si Si2 0.817876 0.612337 0.108602
Si Si3 0.000000 0.466729 0.250000
Si Si4 0.812426 0.284653 0.590341
Si Si5 0.877938 0.018832 0.696122
Si Si6 0.818062 0.884732 0.151746
O O1 0.500000 0.301447 0.250000
O O2 0.288494 0.295653 0.555241
O O3 0.402678 0.246296 0.076664
O O4 0.385555 0.337604 0.051781
O O5 0.856705 0.664167 0.951758
O O6 0.779709 0.615130 0.470245
O O7 0.719943 0.605655 0.071064
O O8 0.899535 0.569816 0.933128
O O9 0.000000 0.500000 0.500000
O O10 0.750000 0.250000 0.500000
O O11 0.887490 0.072667 0.634489
O O12 0.820706 0.995061 0.553191
O O13 0.000000 0.000000 0.500000
#
# Coordination Sequence:
#
# PCOD9286931 Si02
#       6
#     8   8   4   8   8   8
#     4  10  23  40  67  99 141 184 224 286 345 430
#     4  11  25  45  73 100 136 182 225 302 347 417
#     4  12  28  50  74 106 138 182 256 308 358 424
#     4  10  21  45  65 102 142 177 235 284 358 425
#     4  10  22  38  57  88 125 174 215 269 311 393
#     4  11  23  43  67  99 140 178 224 275 358 413
#
# _framework density 23.633393999999999
#
# number of rings (size 3 to 8) (size 9 to 14) (size 15 to 20)
#    0.000    1.455    1.818    2.182    2.545    6.545 
#    4.909    0.000    0.000    0.000    0.000    0.000 
#    0.000    0.000    0.000    0.000    0.000    0.000 
#
# Total GULP energy -122833.406368 kJ/mol
# GULP energy per Si atom -5583.336653 kJ/mol
# Density = 2.357960 g / cm^3
# Si number density = 23.633394 Si / 1000 Ang^3
#
#
#
# Elastic Constant Matrix: (Units=GPa)
#
#
# Indices 1 2 3 4 5 6 
#
# 1 88.6657 38.6199 19.4853 0.0000 8.0932 0.0000
# 2 38.6199 192.5156 16.2894 0.0000 -4.0133 0.0000
# 3 19.4853 16.2894 86.0186 0.0000 15.1826 0.0000
# 4 0.0000 0.0000 0.0000 110.8317 0.0000 -35.5780
# 5 8.0932 -4.0133 15.1826 0.0000 40.8192 0.0000
# 6 0.0000 0.0000 0.0000 -35.5780 0.0000 67.6847
#
#
#
# Elastic Compliance Matrix: (Units=1/GPa)
#
#
# Indices 1 2 3 4 5 6 
#
# 1 0.013007 -0.002472 -0.002119 0.000000 -0.002034 0.000000
# 2 -0.002472 0.005784 -0.000773 0.000000 0.001346 0.000000
# 3 -0.002119 -0.000773 0.013048 0.000000 -0.004509 0.000000
# 4 0.000000 0.000000 0.000000 0.010854 0.000000 0.005705
# 5 -0.002034 0.001346 -0.004509 0.000000 0.026711 0.000000
# 6 0.000000 0.000000 0.000000 0.005705 0.000000 0.017773
#
#
# Mechanical properties :
#
#
# Convention : Reuss Voigt Hill
#
# Bulk Modulus (GPa) = 47.37248 57.33212 52.35230
# Shear Modulus (GPa) = 47.64558 63.38747 55.51652
#
# Velocity S-wave (km/s) = 4.49489 5.18453 4.85198
# Velocity P-wave (km/s) = 6.85762 7.75569 7.32044
#
# Compressibility (1/GPa) = 0.02110930
#
# Stress axis : x y z
#
# Youngs Moduli (GPa) = 76.88463 172.89664 76.64225
#
# Poissons Ratio (x) = 0.42745 0.16242
# Poissons Ratio (y) = 0.19008 0.05924
# Poissons Ratio (z) = 0.16293 0.13363
#
# Static dielectric constant tensor:
#      x y z
#    x 1.904360 0.000000 0.102320 
#    y 0.000000 1.974350 0.000000 
#    z 0.102320 0.000000 2.164270 
# 
# From -- ./inp_files/8196.got.cif
#   From: 2010.05.17/outbox.cif.g08.bks.cpg/sg15_5_cif.got.tgz:8196.got - 2010.06.03 18:47:42.
