data_PCOD9286335
_publ_section_title
;
Structure prediction by ZEFSAII (Michael W. Deem and Ramdas Pophale) SiO2 
 PCOD9286335
Probable space group: C 2/C
;
_chemical_formula_sum "Si O2"
_cell_formula_units_Z 44
_cell_length_a 5.149073
_cell_length_b 29.525736
_cell_length_c 11.972369
_cell_angle_alpha 90.000000
_cell_angle_beta 77.101728
_cell_angle_gamma 90.000000
_cell_volume 1774.234852
_symmetry_space_group_name_H-M "C 2/C"
_symmetry_group_IT_number 15
_symmetry_cell_setting 'monoclinic'
loop_
_space_group_symop_operation_xyz
x,y,z
-x,y,1/2-z
-x,-y,-z
x,-y,1/2+z
1/2+x,1/2+y,z
1/2-x,1/2+y,1/2-z
1/2-x,1/2-y,-z
1/2+x,1/2-y,1/2+z
loop_
_atom_site_type_symbol
_atom_site_label
_atom_site_fract_x
_atom_site_fract_y
_atom_site_fract_z
Si Si1 0.325117 0.968600 0.932071
Si Si2 0.763308 0.129877 0.087665
Si Si3 0.276355 0.234750 0.868040
Si Si4 0.354255 0.552330 0.650905
Si Si5 0.345479 0.136819 0.940538
Si Si6 0.500000 0.798722 0.750000
O O1 0.386567 0.918479 0.881430
O O2 0.260277 0.001792 0.836165
O O3 0.074489 0.954604 0.033451
O O4 0.500000 0.000000 0.000000
O O5 0.720564 0.165730 0.189469
O O6 0.607891 0.145548 0.989144
O O7 0.080219 0.129371 0.040081
O O8 0.500000 0.246622 0.750000
O O9 0.281456 0.180470 0.871963
O O10 0.031630 0.263599 0.846282
O O11 0.250000 0.250000 0.000000
O O12 0.500000 0.565760 0.750000
O O13 0.146347 0.589979 0.629317
#
# Coordination Sequence:
#
# PCOD9286335 Si02
#       6
#     8   8   8   8   8   4
#     4  10  21  43  66  98 144 186 240 311 378 460
#     4  11  25  46  74 105 151 196 252 317 387 469
#     4  12  28  49  79 112 156 205 266 330 403 475
#     4  10  23  41  66 101 139 189 245 306 378 462
#     4  11  25  47  71 107 148 190 252 317 388 453
#     4  12  28  46  76 106 154 202 260 318 392 468
#
# _framework density 24.799423999999998
#
# number of rings (size 3 to 8) (size 9 to 14) (size 15 to 20)
#    0.000    1.091    3.636    1.091    3.818    5.091 
#    0.000    0.000    0.000    0.000    0.000    0.000 
#    0.000    0.000    0.000    0.000    0.000    0.000 
#
# Total GULP energy -122615.572432 kJ/mol
# GULP energy per Si atom -5573.435111 kJ/mol
# Density = 2.474298 g / cm^3
# Si number density = 24.799424 Si / 1000 Ang^3
#
#
#
# Elastic Constant Matrix: (Units=GPa)
#
#
# Indices 1 2 3 4 5 6 
#
# 1 53.9488 -9.5305 14.9964 0.0000 3.1433 0.0000
# 2 -9.5305 175.9270 14.3095 0.0000 15.8237 0.0000
# 3 14.9964 14.3095 99.1786 0.0000 0.4760 0.0000
# 4 0.0000 0.0000 0.0000 21.1944 0.0000 5.2156
# 5 3.1433 15.8237 0.4760 0.0000 46.6492 0.0000
# 6 0.0000 0.0000 0.0000 5.2156 0.0000 27.0185
#
#
#
# Elastic Compliance Matrix: (Units=1/GPa)
#
#
# Indices 1 2 3 4 5 6 
#
# 1 0.019795 0.001495 -0.003200 0.000000 -0.001808 0.000000
# 2 0.001495 0.006046 -0.001088 0.000000 -0.002141 0.000000
# 3 -0.003200 -0.001088 0.010721 0.000000 0.000475 0.000000
# 4 0.000000 0.000000 0.000000 0.049535 0.000000 -0.009562
# 5 -0.001808 -0.002141 0.000475 0.000000 0.022280 0.000000
# 6 0.000000 0.000000 0.000000 -0.009562 0.000000 0.038857
#
#
# Mechanical properties :
#
#
# Convention : Reuss Voigt Hill
#
# Bulk Modulus (GPa) = 32.28232 40.95612 36.61922
# Shear Modulus (GPa) = 30.64722 39.59104 35.11913
#
# Velocity S-wave (km/s) = 3.51921 3.99989 3.76723
# Velocity P-wave (km/s) = 5.43680 6.15492 5.80697
#
# Compressibility (1/GPa) = 0.03097670
#
# Stress axis : x y z
#
# Youngs Moduli (GPa) = 50.51734 165.39244 93.27110
#
# Poissons Ratio (x) = -0.24731 0.29849
# Poissons Ratio (y) = -0.07554 0.10150
# Poissons Ratio (z) = 0.16167 0.17998
#
# Static dielectric constant tensor:
#      x y z
#    x 2.068840 0.000000 -0.036900 
#    y 0.000000 2.110390 0.000000 
#    z -0.036900 0.000000 2.089310 
# 
# From -- ./inp_files/73856.got.cif
#   From: 2010.05.17/outbox.cif.g08.bks.cpg/sg15_37_cif.got.tgz:73856.got - 2010.06.03 18:47:42.
