data_PCOD9286296
_publ_section_title
;
Structure prediction by ZEFSAII (Michael W. Deem and Ramdas Pophale) SiO2 
 PCOD9286296
Probable space group: C 2/C
;
_chemical_formula_sum "Si O2"
_cell_formula_units_Z 56
_cell_length_a 15.312842
_cell_length_b 12.250843
_cell_length_c 14.541450
_cell_angle_alpha 90.000000
_cell_angle_beta 109.532036
_cell_angle_gamma 90.000000
_cell_volume 2570.928360
_symmetry_space_group_name_H-M "C 2/C"
_symmetry_group_IT_number 15
_symmetry_cell_setting 'monoclinic'
loop_
_space_group_symop_operation_xyz
x,y,z
-x,y,1/2-z
-x,-y,-z
x,-y,1/2+z
1/2+x,1/2+y,z
1/2-x,1/2+y,1/2-z
1/2-x,1/2-y,-z
1/2+x,1/2-y,1/2+z
loop_
_atom_site_type_symbol
_atom_site_label
_atom_site_fract_x
_atom_site_fract_y
_atom_site_fract_z
Si Si1 0.318684 0.241744 0.782994
Si Si2 0.674272 0.380557 0.532043
Si Si3 0.099592 0.540723 0.612102
Si Si4 0.000000 0.545015 0.250000
Si Si5 0.500000 0.327813 0.750000
Si Si6 0.115859 0.340271 0.937394
Si Si7 0.369890 0.615268 0.042656
Si Si8 0.683564 0.184825 0.081166
O O1 0.315103 0.331718 0.862034
O O2 0.318887 0.122114 0.826650
O O3 0.416960 0.260118 0.767132
O O4 0.237295 0.255500 0.682192
O O5 0.777104 0.378495 0.524995
O O6 0.615749 0.288904 0.456402
O O7 0.633655 0.501672 0.512796
O O8 0.067254 0.598497 0.506350
O O9 0.133615 0.420679 0.601611
O O10 0.034755 0.528430 0.677919
O O11 0.074759 0.622225 0.326009
O O12 0.554533 0.391941 0.849652
O O13 0.266008 0.638432 0.045186
O O14 0.383522 0.727215 0.990427
#
# Coordination Sequence:
#
# PCOD9286296 Si02
#       8
#     8   8   8   4   4   8   8   8
#     4  10  23  39  64  93 130 169 214 267 324 382
#     4  10  21  43  66  90 129 175 212 263 323 380
#     4  11  23  42  63  97 133 166 215 272 320 386
#     4  12  25  37  66  98 132 171 209 266 334 378
#     4  10  23  43  58  98 130 169 217 268 320 382
#     4  10  23  41  64  95 132 167 216 268 318 386
#     4  10  22  41  68  89 128 169 216 264 320 384
#     4  10  22  39  65  95 122 169 221 258 312 394
#
# _framework density 21.782014
#
# number of rings (size 3 to 8) (size 9 to 14) (size 15 to 20)
#    0.000    1.714    1.429    1.714    4.000    5.714 
#    0.000    0.000    0.000    0.000    0.000    0.000 
#    0.000    0.000    0.000    0.000    0.000    0.000 
#
# Total GULP energy -156414.521510 kJ/mol
# GULP energy per Si atom -5586.232911 kJ/mol
# Density = 2.173244 g / cm^3
# Si number density = 21.782014 Si / 1000 Ang^3
#
#
#
# Elastic Constant Matrix: (Units=GPa)
#
#
# Indices 1 2 3 4 5 6 
#
# 1 69.5575 24.7771 28.9467 0.0000 -9.1873 0.0000
# 2 24.7771 134.9647 53.6195 0.0000 -3.1653 0.0000
# 3 28.9467 53.6195 108.4088 0.0000 -5.2136 0.0000
# 4 0.0000 0.0000 0.0000 17.1186 0.0000 -10.2138
# 5 -9.1873 -3.1653 -5.2136 0.0000 28.1855 0.0000
# 6 0.0000 0.0000 0.0000 -10.2138 0.0000 11.2744
#
#
#
# Elastic Compliance Matrix: (Units=1/GPa)
#
#
# Indices 1 2 3 4 5 6 
#
# 1 0.017043 -0.001618 -0.003523 0.000000 0.004722 0.000000
# 2 -0.001618 0.009376 -0.004218 0.000000 -0.000255 0.000000
# 3 -0.003523 -0.004218 0.012282 0.000000 0.000650 0.000000
# 4 0.000000 0.000000 0.000000 0.127137 0.000000 0.115177
# 5 0.004722 -0.000255 0.000650 0.000000 0.037110 0.000000
# 6 0.000000 0.000000 0.000000 0.115177 0.000000 0.193039
#
#
# Mechanical properties :
#
#
# Convention : Reuss Voigt Hill
#
# Bulk Modulus (GPa) = 50.04210 58.62418 54.33314
# Shear Modulus (GPa) = 11.86615 25.02154 18.44384
#
# Velocity S-wave (km/s) = 2.33656 3.39296 2.91305
# Velocity P-wave (km/s) = 5.50484 6.50554 6.02600
#
# Compressibility (1/GPa) = 0.01998317
#
# Stress axis : x y z
#
# Youngs Moduli (GPa) = 58.67540 106.65481 81.41754
#
# Poissons Ratio (x) = 0.17260 0.28685
# Poissons Ratio (y) = 0.09496 0.34338
# Poissons Ratio (z) = 0.20672 0.44982
#
# Static dielectric constant tensor:
#      x y z
#    x 1.842760 0.000000 -0.025590 
#    y 0.000000 1.773610 0.000000 
#    z -0.025590 0.000000 1.822630 
# 
# From -- ./inp_files/161037.got.cif
#   From: 2010.05.17/outbox.cif.g08.bks.cpg/sg15_81_cif.got.tgz:161037.got - 2010.06.03 18:47:42.
