data_PCOD9286612
_publ_section_title
;
Structure prediction by ZEFSAII (Michael W. Deem and Ramdas Pophale) SiO2 
 PCOD9286612
Probable space group: C 2/C
;
_chemical_formula_sum "Si O2"
_cell_formula_units_Z 40
_cell_length_a 11.011939
_cell_length_b 28.013631
_cell_length_c 11.653799
_cell_angle_alpha 90.000000
_cell_angle_beta 152.086466
_cell_angle_gamma 90.000000
_cell_volume 1682.965205
_symmetry_space_group_name_H-M "C 2/C"
_symmetry_group_IT_number 15
_symmetry_cell_setting 'monoclinic'
loop_
_space_group_symop_operation_xyz
x,y,z
-x,y,1/2-z
-x,-y,-z
x,-y,1/2+z
1/2+x,1/2+y,z
1/2-x,1/2+y,1/2-z
1/2-x,1/2-y,-z
1/2+x,1/2-y,1/2+z
loop_
_atom_site_type_symbol
_atom_site_label
_atom_site_fract_x
_atom_site_fract_y
_atom_site_fract_z
Si Si1 0.806959 0.195018 0.984094
Si Si2 0.075257 0.371740 0.681597
Si Si3 0.464186 0.236545 0.401785
Si Si4 0.516410 0.947861 0.066624
Si Si5 0.519635 0.411094 0.925575
O O1 0.500000 0.197273 0.750000
O O2 0.882766 0.229289 0.941143
O O3 0.865665 0.139585 0.013095
O O4 0.000000 0.207284 0.250000
O O5 0.072982 0.320328 0.616474
O O6 0.906438 0.408716 0.466184
O O7 0.000000 0.365101 0.750000
O O8 0.354885 0.396892 0.902660
O O9 0.765314 0.247071 0.639205
O O10 0.222274 0.930838 0.852469
O O11 0.741712 0.945507 0.348641
O O12 0.500000 0.000000 0.000000
#
# Coordination Sequence:
#
# PCOD9286612 Si02
#       5
#     8   8   8   8   8
#     4  12  25  43  69  96 138 187 227 275 343 400
#     4  10  25  44  70  97 137 180 221 276 343 396
#     4  12  24  44  62  99 134 179 228 277 323 401
#     4  10  21  43  75  93 134 173 215 285 345 393
#     4  10  22  45  66 101 136 169 226 278 335 399
#
# _framework density 23.767575999999998
#
# number of rings (size 3 to 8) (size 9 to 14) (size 15 to 20)
#    1.200    0.000    2.000    4.200    0.000    4.000 
#    0.000    3.000    4.400    0.000    0.000    0.000 
#    0.000    0.000    0.000    0.000    0.000    0.000 
#
# Total GULP energy -111671.713997 kJ/mol
# GULP energy per Si atom -5583.585700 kJ/mol
# Density = 2.371348 g / cm^3
# Si number density = 23.767576 Si / 1000 Ang^3
#
#
#
# Elastic Constant Matrix: (Units=GPa)
#
#
# Indices 1 2 3 4 5 6 
#
# 1 82.6881 3.3100 56.8816 0.0000 0.5583 0.0000
# 2 3.3100 102.3512 36.0749 0.0000 -1.6516 0.0000
# 3 56.8816 36.0749 218.0673 -0.0001 21.7457 0.0000
# 4 0.0000 0.0000 -0.0001 171.5029 0.0000 11.2735
# 5 0.5583 -1.6516 21.7457 0.0000 41.7336 0.0000
# 6 0.0000 0.0000 0.0000 11.2735 0.0000 3.8747
#
#
#
# Elastic Compliance Matrix: (Units=1/GPa)
#
#
# Indices 1 2 3 4 5 6 
#
# 1 0.014990 0.001062 -0.004293 0.000000 0.002078 0.000000
# 2 0.001062 0.010526 -0.002171 0.000000 0.001534 0.000000
# 3 -0.004293 -0.002171 0.006400 0.000000 -0.003363 0.000000
# 4 0.000000 0.000000 0.000000 0.007210 0.000000 -0.020977
# 5 0.002078 0.001534 -0.003363 0.000000 0.025747 0.000000
# 6 0.000000 0.000000 0.000000 -0.020977 0.000000 0.319115
#
#
# Mechanical properties :
#
#
# Convention : Reuss Voigt Hill
#
# Bulk Modulus (GPa) = 47.36729 66.18217 56.77473
# Shear Modulus (GPa) = 12.44306 63.87825 38.16066
#
# Velocity S-wave (km/s) = 2.29056 5.18985 4.01131
# Velocity P-wave (km/s) = 5.19309 7.98867 6.73747
#
# Compressibility (1/GPa) = 0.02111161
#
# Stress axis : x y z
#
# Youngs Moduli (GPa) = 66.70967 95.00313 156.24642
#
# Poissons Ratio (x) = -0.10088 0.67078
# Poissons Ratio (y) = -0.07084 0.33925
# Poissons Ratio (z) = 0.28639 0.20627
#
# Static dielectric constant tensor:
#      x y z
#    x 1.971550 0.000000 -0.032100 
#    y 0.000000 1.844980 0.000000 
#    z -0.032100 0.000000 2.004770 
# 
# From -- ./inp_files/92688.got.cif
#   From: 2010.05.17/outbox.cif.g08.bks.cpg/sg15_47_cif.got.tgz:92688.got - 2010.06.03 18:47:42.
