data_PCOD9286632
_publ_section_title
;
Structure prediction by ZEFSAII (Michael W. Deem and Ramdas Pophale) SiO2 
 PCOD9286632
Probable space group: C 2/C
;
_chemical_formula_sum "Si O2"
_cell_formula_units_Z 52
_cell_length_a 17.888592
_cell_length_b 8.844103
_cell_length_c 18.710165
_cell_angle_alpha 90.000000
_cell_angle_beta 69.821189
_cell_angle_gamma 90.000000
_cell_volume 2778.418586
_symmetry_space_group_name_H-M "C 2/C"
_symmetry_group_IT_number 15
_symmetry_cell_setting 'monoclinic'
loop_
_space_group_symop_operation_xyz
x,y,z
-x,y,1/2-z
-x,-y,-z
x,-y,1/2+z
1/2+x,1/2+y,z
1/2-x,1/2+y,1/2-z
1/2-x,1/2-y,-z
1/2+x,1/2-y,1/2+z
loop_
_atom_site_type_symbol
_atom_site_label
_atom_site_fract_x
_atom_site_fract_y
_atom_site_fract_z
Si Si1 0.211418 0.376597 0.462008
Si Si2 0.181251 0.175485 0.703635
Si Si3 0.500000 0.423298 0.250000
Si Si4 0.743720 0.511277 0.825252
Si Si5 0.048840 0.087612 0.091943
Si Si6 0.099973 0.130343 0.457543
Si Si7 0.181948 0.663817 0.566165
O O1 0.250000 0.250000 0.500000
O O2 0.277229 0.405025 0.378955
O O3 0.137261 0.295352 0.449265
O O4 0.178641 0.509083 0.522240
O O5 0.084962 0.163797 0.730315
O O6 0.209742 0.351002 0.697223
O O7 0.217699 0.089892 0.760369
O O8 0.509844 0.525893 0.176660
O O9 0.662430 0.471649 0.893718
O O10 0.792906 0.621188 0.861637
O O11 0.106369 0.227230 0.088672
O O12 0.982430 0.135006 0.056666
O O13 0.091911 0.947802 0.037480
O O14 0.250000 0.750000 0.500000
#
# Coordination Sequence:
#
# PCOD9286632 Si02
#       7
#     8   8   4   8   8   8   8
#     4  11  21  42  69  92 126 170 218 267 315 381
#     4  11  25  42  67  94 132 172 211 272 322 387
#     4  12  24  42  66  94 130 176 208 262 342 372
#     4  11  24  43  66  97 129 168 223 261 321 385
#     4  11  24  38  69  93 131 168 213 266 320 390
#     4  10  21  44  62  95 129 167 213 266 322 381
#     4  12  23  40  68  98 122 170 223 264 313 389
#
# _framework density 18.715682000000001
#
# number of rings (size 3 to 8) (size 9 to 14) (size 15 to 20)
#    0.000    0.923    6.154    1.846    4.308    0.615 
#    0.000    3.846    0.000    0.000    0.000    0.000 
#    0.000    0.000    0.000    0.000    0.000    0.000 
#
# Total GULP energy -145149.137401 kJ/mol
# GULP energy per Si atom -5582.659131 kJ/mol
# Density = 1.867308 g / cm^3
# Si number density = 18.715682 Si / 1000 Ang^3
#
#
#
# Elastic Constant Matrix: (Units=GPa)
#
#
# Indices 1 2 3 4 5 6 
#
# 1 116.3760 33.2648 31.9200 0.0000 4.3040 0.0000
# 2 33.2648 46.0762 16.9310 0.0000 1.7689 0.0000
# 3 31.9200 16.9310 123.5223 0.0000 8.9851 0.0000
# 4 0.0000 0.0000 0.0000 33.0812 0.0000 1.2030
# 5 4.3040 1.7689 8.9851 0.0000 34.3465 0.0000
# 6 0.0000 0.0000 0.0000 1.2030 0.0000 35.0312
#
#
#
# Elastic Compliance Matrix: (Units=1/GPa)
#
#
# Indices 1 2 3 4 5 6 
#
# 1 0.011239 -0.007414 -0.001849 0.000000 -0.000543 0.000000
# 2 -0.007414 0.027749 -0.001887 0.000000 -0.000006 0.000000
# 3 -0.001849 -0.001887 0.008979 0.000000 -0.002020 0.000000
# 4 0.000000 0.000000 0.000000 0.030266 0.000000 -0.001039
# 5 -0.000543 -0.000006 -0.002020 0.000000 0.029712 0.000000
# 6 0.000000 0.000000 0.000000 -0.001039 0.000000 0.028582
#
#
# Mechanical properties :
#
#
# Convention : Reuss Voigt Hill
#
# Bulk Modulus (GPa) = 38.95912 50.02290 44.49101
# Shear Modulus (GPa) = 29.87151 34.08233 31.97692
#
# Velocity S-wave (km/s) = 3.99942 4.27201 4.13796
# Velocity P-wave (km/s) = 6.49528 7.14978 6.83037
#
# Compressibility (1/GPa) = 0.02566793
#
# Stress axis : x y z
#
# Youngs Moduli (GPa) = 88.97444 36.03672 111.37039
#
# Poissons Ratio (x) = 0.26718 0.20588
# Poissons Ratio (y) = 0.65966 0.21018
# Poissons Ratio (z) = 0.16448 0.06801
#
# Static dielectric constant tensor:
#      x y z
#    x 1.683020 0.000000 0.006810 
#    y 0.000000 1.716060 0.000000 
#    z 0.006810 0.000000 1.660740 
# 
# From -- ./inp_files/209023.got.cif
#   From: 2010.05.17/outbox.cif.g08.bks.cpg/sg15_105_cif.got.tgz:209023.got - 2010.06.03 18:47:42.
