data_PCOD9286532
_publ_section_title
;
Structure prediction by ZEFSAII (Michael W. Deem and Ramdas Pophale) SiO2 
 PCOD9286532
Probable space group: C 2/C
;
_chemical_formula_sum "Si O2"
_cell_formula_units_Z 48
_cell_length_a 27.739367
_cell_length_b 8.524499
_cell_length_c 11.286845
_cell_angle_alpha 90.000000
_cell_angle_beta 121.166664
_cell_angle_gamma 90.000000
_cell_volume 2283.715509
_symmetry_space_group_name_H-M "C 2/C"
_symmetry_group_IT_number 15
_symmetry_cell_setting 'monoclinic'
loop_
_space_group_symop_operation_xyz
x,y,z
-x,y,1/2-z
-x,-y,-z
x,-y,1/2+z
1/2+x,1/2+y,z
1/2-x,1/2+y,1/2-z
1/2-x,1/2-y,-z
1/2+x,1/2-y,1/2+z
loop_
_atom_site_type_symbol
_atom_site_label
_atom_site_fract_x
_atom_site_fract_y
_atom_site_fract_z
Si Si1 0.186194 0.246067 0.958786
Si Si2 0.132886 0.570130 0.591259
Si Si3 0.901545 0.238700 0.864522
Si Si4 0.320234 0.477056 0.363059
Si Si5 0.490126 0.128259 0.095134
Si Si6 0.774188 0.737529 0.660832
O O1 0.143422 0.251348 0.797524
O O2 0.250000 0.250000 0.000000
O O3 0.170936 0.388298 0.027274
O O4 0.178153 0.084533 0.019350
O O5 0.111346 0.393009 0.572900
O O6 0.171948 0.622738 0.751000
O O7 0.075489 0.670146 0.503171
O O8 0.881680 0.087323 0.910385
O O9 0.962949 0.245535 0.883809
O O10 0.276846 0.334084 0.326465
O O11 0.295103 0.594588 0.233335
O O12 0.500000 0.086186 0.250000
O O13 0.500000 0.000000 0.000000
O O14 0.750000 0.750000 0.500000
#
# Coordination Sequence:
#
# PCOD9286532 Si02
#       6
#     8   8   8   8   8   8
#     4  11  22  38  62  93 132 174 219 275 344 411
#     4  10  22  40  66  99 125 173 229 277 340 408
#     4  11  22  40  67  91 135 171 219 288 339 402
#     4  11  24  39  60  98 128 173 224 271 344 412
#     4  10  21  43  71 105 133 177 232 286 343 409
#     4  11  23  41  61  90 135 170 222 274 340 408
#
# _framework density 21.018380000000001
#
# number of rings (size 3 to 8) (size 9 to 14) (size 15 to 20)
#    0.000    1.333    1.667    5.000    0.000    5.333 
#    3.000    3.333    0.000    0.000    0.000    0.000 
#    0.000    0.000    0.000    0.000    0.000    0.000 
#
# Total GULP energy -133966.223346 kJ/mol
# GULP energy per Si atom -5581.925973 kJ/mol
# Density = 2.097054 g / cm^3
# Si number density = 21.018380 Si / 1000 Ang^3
#
#
#
# Elastic Constant Matrix: (Units=GPa)
#
#
# Indices 1 2 3 4 5 6 
#
# 1 125.4047 39.0694 24.6796 0.0000 -2.1151 0.0000
# 2 39.0694 70.3781 5.3948 0.0000 -15.0760 0.0000
# 3 24.6796 5.3948 56.7816 0.0000 -3.7105 0.0000
# 4 0.0000 0.0000 0.0000 27.9772 0.0000 -4.2295
# 5 -2.1151 -15.0760 -3.7105 0.0000 34.6307 0.0000
# 6 0.0000 0.0000 0.0000 -4.2295 0.0000 41.4065
#
#
#
# Elastic Compliance Matrix: (Units=1/GPa)
#
#
# Indices 1 2 3 4 5 6 
#
# 1 0.010672 -0.006130 -0.004218 0.000000 -0.002469 0.000000
# 2 -0.006130 0.019254 0.001368 0.000000 0.008154 0.000000
# 3 -0.004218 0.001368 0.019473 0.000000 0.002424 0.000000
# 4 0.000000 0.000000 0.000000 0.036304 0.000000 0.003708
# 5 -0.002469 0.008154 0.002424 0.000000 0.032535 0.000000
# 6 0.000000 0.000000 0.000000 0.003708 0.000000 0.024530
#
#
# Mechanical properties :
#
#
# Convention : Reuss Voigt Hill
#
# Bulk Modulus (GPa) = 31.80694 43.42799 37.61747
# Shear Modulus (GPa) = 29.20440 33.03093 31.11767
#
# Velocity S-wave (km/s) = 3.73160 3.96855 3.85190
# Velocity P-wave (km/s) = 5.80795 6.45801 6.14159
#
# Compressibility (1/GPa) = 0.03143968
#
# Stress axis : x y z
#
# Youngs Moduli (GPa) = 93.69973 51.93756 51.35334
#
# Poissons Ratio (x) = 0.31839 0.21659
# Poissons Ratio (y) = 0.57439 -0.07025
# Poissons Ratio (z) = 0.39518 -0.07105
#
# Static dielectric constant tensor:
#      x y z
#    x 1.751870 0.000000 0.042120 
#    y 0.000000 1.775140 0.000000 
#    z 0.042120 0.000000 1.628270 
# 
# From -- ./inp_files/121625.got.cif
#   From: 2010.05.17/outbox.cif.g08.bks.cpg/sg15_61_cif.got.tgz:121625.got - 2010.06.03 18:47:42.
