data_PCOD9286351
_publ_section_title
;
Structure prediction by ZEFSAII (Michael W. Deem and Ramdas Pophale) SiO2 
 PCOD9286351
Probable space group: C 2/C
;
_chemical_formula_sum "Si O2"
_cell_formula_units_Z 60
_cell_length_a 22.502353
_cell_length_b 14.441774
_cell_length_c 9.203364
_cell_angle_alpha 90.000000
_cell_angle_beta 102.325550
_cell_angle_gamma 90.000000
_cell_volume 2921.915333
_symmetry_space_group_name_H-M "C 2/C"
_symmetry_group_IT_number 15
_symmetry_cell_setting 'monoclinic'
loop_
_space_group_symop_operation_xyz
x,y,z
-x,y,1/2-z
-x,-y,-z
x,-y,1/2+z
1/2+x,1/2+y,z
1/2-x,1/2+y,1/2-z
1/2-x,1/2-y,-z
1/2+x,1/2-y,1/2+z
loop_
_atom_site_type_symbol
_atom_site_label
_atom_site_fract_x
_atom_site_fract_y
_atom_site_fract_z
Si Si1 0.929601 0.895453 0.961937
Si Si2 0.641639 0.066574 0.658561
Si Si3 0.805607 0.164022 0.371734
Si Si4 0.000000 0.006198 0.750000
Si Si5 0.974340 0.696050 0.895759
Si Si6 0.324960 0.175078 0.105992
Si Si7 0.400246 0.855221 0.900592
Si Si8 0.810209 0.705468 0.603950
O O1 0.857155 0.912333 0.915812
O O2 0.961551 0.945129 0.842764
O O3 0.946237 0.787058 0.954962
O O4 0.956461 0.933293 0.125408
O O5 0.578735 0.121324 0.653232
O O6 0.664877 0.100024 0.513916
O O7 0.687977 0.106950 0.805970
O O8 0.624018 0.959677 0.637193
O O9 0.733891 0.144652 0.330587
O O10 0.812450 0.229766 0.515669
O O11 0.824296 0.221759 0.239048
O O12 0.000000 0.720657 0.750000
O O13 0.029824 0.654006 0.018137
O O14 0.382673 0.189960 0.238428
O O15 0.360615 0.806854 0.006269
O O16 0.750000 0.750000 0.500000
#
# Coordination Sequence:
#
# PCOD9286351 Si02
#       8
#     8   8   8   4   8   8   8   8
#     4  11  22  46  66  95 128 169 218 274 337 384
#     4  11  24  44  62 100 141 164 215 280 321 388
#     4  10  21  43  67  90 126 169 222 266 318 396
#     4  10  26  42  68  96 130 160 220 294 322 386
#     4  12  23  41  71  94 132 181 215 261 339 413
#     4  10  22  39  64  94 126 168 212 273 316 382
#     4  12  24  39  67 102 131 175 217 270 328 394
#     4  11  21  42  68  90 124 180 222 254 319 395
#
# _framework density 20.534475
#
# number of rings (size 3 to 8) (size 9 to 14) (size 15 to 20)
#    0.000    1.067    6.000    1.200    1.867    0.533 
#    2.400    0.000    0.000    0.000    0.000    0.000 
#    0.000    0.000    0.000    0.000    0.000    0.000 
#
# Total GULP energy -167430.046896 kJ/mol
# GULP energy per Si atom -5581.001563 kJ/mol
# Density = 2.048774 g / cm^3
# Si number density = 20.534475 Si / 1000 Ang^3
#
#
#
# Elastic Constant Matrix: (Units=GPa)
#
#
# Indices 1 2 3 4 5 6 
#
# 1 93.2756 23.5148 26.0541 0.0000 17.4349 0.0000
# 2 23.5148 37.3515 17.0250 0.0000 8.0445 0.0000
# 3 26.0541 17.0250 112.1230 0.0000 16.9665 0.0000
# 4 0.0000 0.0000 0.0000 12.3381 0.0000 3.1262
# 5 17.4349 8.0445 16.9665 0.0000 39.6134 0.0000
# 6 0.0000 0.0000 0.0000 3.1262 0.0000 14.1017
#
#
#
# Elastic Compliance Matrix: (Units=1/GPa)
#
#
# Indices 1 2 3 4 5 6 
#
# 1 0.013657 -0.007065 -0.001506 0.000000 -0.003931 0.000000
# 2 -0.007065 0.033102 -0.003035 0.000000 -0.002313 0.000000
# 3 -0.001506 -0.003035 0.010197 0.000000 -0.003088 0.000000
# 4 0.000000 0.000000 0.000000 0.085874 0.000000 -0.019037
# 5 -0.003931 -0.002313 -0.003088 0.000000 0.028767 0.000000
# 6 0.000000 0.000000 0.000000 -0.019037 0.000000 0.075134
#
#
# Mechanical properties :
#
#
# Convention : Reuss Voigt Hill
#
# Bulk Modulus (GPa) = 29.63395 41.77089 35.70242
# Shear Modulus (GPa) = 17.78161 24.95438 21.36799
#
# Velocity S-wave (km/s) = 2.94588 3.48982 3.22932
# Velocity P-wave (km/s) = 5.10231 6.05181 5.59723
#
# Compressibility (1/GPa) = 0.03374508
#
# Stress axis : x y z
#
# Youngs Moduli (GPa) = 73.21991 30.20979 98.06993
#
# Poissons Ratio (x) = 0.21343 0.14769
# Poissons Ratio (y) = 0.51730 0.29760
# Poissons Ratio (z) = 0.11027 0.09167
#
# Static dielectric constant tensor:
#      x y z
#    x 1.755900 0.000000 0.023380 
#    y 0.000000 1.741010 0.000000 
#    z 0.023380 0.000000 1.747360 
# 
# From -- ./inp_files/61964.got.cif
#   From: 2010.05.17/outbox.cif.g08.bks.cpg/sg15_31_cif.got.tgz:61964.got - 2010.06.03 18:47:42.
