data_PCOD9286780
_publ_section_title
;
Structure prediction by ZEFSAII (Michael W. Deem and Ramdas Pophale) SiO2 
 PCOD9286780
Probable space group: C 2/C
;
_chemical_formula_sum "Si O2"
_cell_formula_units_Z 64
_cell_length_a 27.994546
_cell_length_b 8.641114
_cell_length_c 13.697946
_cell_angle_alpha 90.000000
_cell_angle_beta 57.280601
_cell_angle_gamma 90.000000
_cell_volume 2787.814443
_symmetry_space_group_name_H-M "C 2/C"
_symmetry_group_IT_number 15
_symmetry_cell_setting 'monoclinic'
loop_
_space_group_symop_operation_xyz
x,y,z
-x,y,1/2-z
-x,-y,-z
x,-y,1/2+z
1/2+x,1/2+y,z
1/2-x,1/2+y,1/2-z
1/2-x,1/2-y,-z
1/2+x,1/2-y,1/2+z
loop_
_atom_site_type_symbol
_atom_site_label
_atom_site_fract_x
_atom_site_fract_y
_atom_site_fract_z
Si Si1 0.252843 0.555120 0.875832
Si Si2 0.057012 0.930823 0.745499
Si Si3 0.545729 0.215549 0.281939
Si Si4 0.471555 0.208677 0.557642
Si Si5 0.676074 0.317840 0.570976
Si Si6 0.192664 0.723265 0.339205
Si Si7 0.851119 0.524708 0.390416
Si Si8 0.417788 0.059950 0.011792
O O1 0.294663 0.443141 0.891482
O O2 0.222613 0.441079 0.829729
O O3 0.282922 0.688072 0.780518
O O4 0.203604 0.613077 0.004765
O O5 0.051282 0.855372 0.859166
O O6 0.110172 0.855742 0.634962
O O7 0.000000 0.897951 0.750000
O O8 0.066223 0.113178 0.733227
O O9 0.500000 0.164993 0.250000
O O10 0.509038 0.238161 0.420264
O O11 0.602015 0.110730 0.225605
O O12 0.517922 0.119441 0.572608
O O13 0.423620 0.089586 0.575140
O O14 0.700461 0.312454 0.434225
O O15 0.674766 0.141132 0.613797
O O16 0.125669 0.689567 0.401976
O O17 0.889387 0.488661 0.442869
#
# Coordination Sequence:
#
# PCOD9286780 Si02
#       8
#     8   8   8   8   8   8   8   8
#     4  10  23  45  70 101 138 184 229 285 344 405
#     4  11  25  43  65 100 144 181 215 282 348 404
#     4  11  24  42  67 103 140 172 226 280 338 416
#     4  11  22  41  66 103 134 180 223 272 348 409
#     4  10  23  43  70  99 134 185 231 279 339 408
#     4  10  22  45  69 101 139 177 230 290 341 399
#     4  10  21  44  68  98 134 179 227 281 335 398
#     4   9  21  38  67  99 133 171 233 278 332 402
#
# _framework density 22.957051
#
# number of rings (size 3 to 8) (size 9 to 14) (size 15 to 20)
#    0.000    2.000    1.250    3.375    5.250    3.500 
#    9.000    1.250    0.000    0.000    0.000    0.000 
#    0.000    0.000    0.000    0.000    0.000    0.000 
#
# Total GULP energy -178762.378488 kJ/mol
# GULP energy per Si atom -5586.324328 kJ/mol
# Density = 2.290480 g / cm^3
# Si number density = 22.957051 Si / 1000 Ang^3
#
#
#
# Elastic Constant Matrix: (Units=GPa)
#
#
# Indices 1 2 3 4 5 6 
#
# 1 84.5199 15.8243 10.2734 0.0000 -3.6132 0.0000
# 2 15.8243 34.3998 26.2401 0.0000 -0.3810 0.0000
# 3 10.2734 26.2401 101.5306 0.0000 -2.7091 0.0000
# 4 0.0000 0.0000 0.0000 45.6695 0.0000 -2.5519
# 5 -3.6132 -0.3810 -2.7091 0.0000 29.5595 0.0000
# 6 0.0000 0.0000 0.0000 -2.5519 0.0000 38.3986
#
#
#
# Elastic Compliance Matrix: (Units=1/GPa)
#
#
# Indices 1 2 3 4 5 6 
#
# 1 0.013023 -0.006228 0.000333 0.000000 0.001542 0.000000
# 2 -0.006228 0.039191 -0.009529 0.000000 -0.001129 0.000000
# 3 0.000333 -0.009529 0.012306 0.000000 0.001046 0.000000
# 4 0.000000 0.000000 0.000000 0.021978 0.000000 0.001461
# 5 0.001542 -0.001129 0.001046 0.000000 0.034100 0.000000
# 6 0.000000 0.000000 0.000000 0.001461 0.000000 0.026140
#
#
# Mechanical properties :
#
#
# Convention : Reuss Voigt Hill
#
# Bulk Modulus (GPa) = 29.69733 36.12511 32.91122
# Shear Modulus (GPa) = 26.48190 33.93301 30.20746
#
# Velocity S-wave (km/s) = 3.40007 3.84879 3.63137
# Velocity P-wave (km/s) = 5.32711 5.95995 5.65239
#
# Compressibility (1/GPa) = 0.03367306
#
# Stress axis : x y z
#
# Youngs Moduli (GPa) = 76.78750 25.51635 81.26056
#
# Poissons Ratio (x) = 0.15890 -0.02705
# Poissons Ratio (y) = 0.47820 0.77430
# Poissons Ratio (z) = -0.02556 0.24314
#
# Static dielectric constant tensor:
#      x y z
#    x 1.873500 0.000000 0.021150 
#    y 0.000000 1.886150 0.000000 
#    z 0.021150 0.000000 1.889490 
# 
# From -- ./inp_files/181147.got.cif
#   From: 2010.05.17/outbox.cif.g08.bks.cpg/sg15_91_cif.got.tgz:181147.got - 2010.06.03 18:47:42.
