data_PCOD9286932
_publ_section_title
;
Structure prediction by ZEFSAII (Michael W. Deem and Ramdas Pophale) SiO2 
 PCOD9286932
Probable space group: C 2/C
;
_chemical_formula_sum "Si O2"
_cell_formula_units_Z 52
_cell_length_a 14.784205
_cell_length_b 13.430210
_cell_length_c 17.986416
_cell_angle_alpha 90.000000
_cell_angle_beta 138.030980
_cell_angle_gamma 90.000000
_cell_volume 2388.225701
_symmetry_space_group_name_H-M "C 2/C"
_symmetry_group_IT_number 15
_symmetry_cell_setting 'monoclinic'
loop_
_space_group_symop_operation_xyz
x,y,z
-x,y,1/2-z
-x,-y,-z
x,-y,1/2+z
1/2+x,1/2+y,z
1/2-x,1/2+y,1/2-z
1/2-x,1/2-y,-z
1/2+x,1/2-y,1/2+z
loop_
_atom_site_type_symbol
_atom_site_label
_atom_site_fract_x
_atom_site_fract_y
_atom_site_fract_z
Si Si1 0.019495 0.383206 0.497719
Si Si2 0.235728 0.253931 0.111184
Si Si3 0.939919 0.701044 0.794634
Si Si4 0.500000 0.614072 0.750000
Si Si5 0.172470 0.071625 0.633258
Si Si6 0.605881 0.422811 0.467919
Si Si7 0.786786 0.872386 0.753048
O O1 0.162403 0.359430 0.621876
O O2 0.000000 0.500000 0.500000
O O3 0.893258 0.326209 0.458693
O O4 0.018882 0.350942 0.410849
O O5 0.372529 0.316299 0.191423
O O6 0.243018 0.187878 0.189978
O O7 0.208096 0.170472 0.031212
O O8 0.791848 0.649873 0.707337
O O9 0.917317 0.817563 0.798854
O O10 0.000000 0.685648 0.750000
O O11 0.447791 0.554621 0.646632
O O12 0.024164 0.112277 0.562482
O O13 0.164628 0.015403 0.549382
O O14 0.197579 0.985972 0.710714
#
# Coordination Sequence:
#
# PCOD9286932 Si02
#       7
#     8   8   8   4   8   8   8
#     4  11  21  39  68  91 123 174 222 258 316 392
#     4  10  22  39  61  92 128 169 204 267 324 381
#     4  11  24  42  64 100 133 166 214 277 325 374
#     4  12  22  36  60  98 130 154 214 270 318 374
#     4  10  21  45  65  88 128 178 213 253 328 395
#     4  10  22  40  65  89 124 171 212 260 319 387
#     4  10  22  42  67  91 126 176 218 254 322 400
#
# _framework density 21.773488
#
# number of rings (size 3 to 8) (size 9 to 14) (size 15 to 20)
#    0.000    1.538    1.538    4.154    0.000    3.077 
#    6.923    0.000    0.000    0.000    0.000    0.000 
#    0.000    0.000    0.000    0.000    0.000    0.000 
#
# Total GULP energy -145386.096968 kJ/mol
# GULP energy per Si atom -5591.772960 kJ/mol
# Density = 2.172393 g / cm^3
# Si number density = 21.773488 Si / 1000 Ang^3
#
#
#
# Elastic Constant Matrix: (Units=GPa)
#
#
# Indices 1 2 3 4 5 6 
#
# 1 44.1047 20.0629 14.0177 0.0000 -6.2633 0.0000
# 2 20.0629 90.8351 30.5949 0.0000 -0.1272 0.0000
# 3 14.0177 30.5949 142.1030 0.0000 -25.7035 0.0000
# 4 0.0000 0.0000 0.0000 26.2075 0.0000 6.5966
# 5 -6.2633 -0.1272 -25.7035 0.0000 30.4745 0.0000
# 6 0.0000 0.0000 0.0000 6.5966 0.0000 19.0331
#
#
#
# Elastic Compliance Matrix: (Units=1/GPa)
#
#
# Indices 1 2 3 4 5 6 
#
# 1 0.026068 -0.005591 -0.000475 0.000000 0.004933 0.000000
# 2 -0.005591 0.013230 -0.002944 0.000000 -0.003577 0.000000
# 3 -0.000475 -0.002944 0.009084 0.000000 0.007552 0.000000
# 4 0.000000 0.000000 0.000000 0.041804 0.000000 -0.014489
# 5 0.004933 -0.003577 0.007552 0.000000 0.040183 0.000000
# 6 0.000000 0.000000 0.000000 -0.014489 0.000000 0.057561
#
#
# Mechanical properties :
#
#
# Convention : Reuss Voigt Hill
#
# Bulk Modulus (GPa) = 32.93582 45.15485 39.04534
# Shear Modulus (GPa) = 23.14048 29.30083 26.22066
#
# Velocity S-wave (km/s) = 3.26357 3.67237 3.47399
# Velocity P-wave (km/s) = 5.41854 6.22617 5.83635
#
# Compressibility (1/GPa) = 0.03036208
#
# Stress axis : x y z
#
# Youngs Moduli (GPa) = 38.36096 75.58379 110.08546
#
# Poissons Ratio (x) = 0.42256 0.05235
# Poissons Ratio (y) = 0.21446 0.32409
# Poissons Ratio (z) = 0.01824 0.22252
#
# Static dielectric constant tensor:
#      x y z
#    x 1.788020 0.000000 -0.031010 
#    y 0.000000 1.804320 0.000000 
#    z -0.031010 0.000000 1.810800 
# 
# From -- ./inp_files/205793.got.cif
#   From: 2010.05.17/outbox.cif.g08.bks.cpg/sg15_103_cif.got.tgz:205793.got - 2010.06.03 18:47:42.
