data_PCOD9286019
_publ_section_title
;
Structure prediction by ZEFSAII (Michael W. Deem and Ramdas Pophale) SiO2 
 PCOD9286019
Probable space group: C 2/C
;
_chemical_formula_sum "Si O2"
_cell_formula_units_Z 56
_cell_length_a 17.027657
_cell_length_b 10.125836
_cell_length_c 13.937230
_cell_angle_alpha 90.000000
_cell_angle_beta 105.325011
_cell_angle_gamma 90.000000
_cell_volume 2317.599708
_symmetry_space_group_name_H-M "C 2/C"
_symmetry_group_IT_number 15
_symmetry_cell_setting 'monoclinic'
loop_
_space_group_symop_operation_xyz
x,y,z
-x,y,1/2-z
-x,-y,-z
x,-y,1/2+z
1/2+x,1/2+y,z
1/2-x,1/2+y,1/2-z
1/2-x,1/2-y,-z
1/2+x,1/2-y,1/2+z
loop_
_atom_site_type_symbol
_atom_site_label
_atom_site_fract_x
_atom_site_fract_y
_atom_site_fract_z
Si Si1 0.932264 0.195236 0.302026
Si Si2 0.006628 0.423814 0.402863
Si Si3 0.091101 0.994696 0.485924
Si Si4 0.107298 0.912718 0.276154
Si Si5 0.614222 0.135037 0.199423
Si Si6 0.657691 0.214017 0.996247
Si Si7 0.712351 0.576071 0.198191
O O1 0.957953 0.284838 0.399032
O O2 0.841042 0.054103 0.415342
O O3 0.000000 0.248804 0.250000
O O4 0.898109 0.388700 0.082302
O O5 0.951309 0.518704 0.319778
O O6 0.000000 0.500000 0.500000
O O7 0.100646 0.919469 0.388001
O O8 0.061460 0.963180 0.710206
O O9 0.113028 0.145907 0.470403
O O10 0.000000 0.000000 0.500000
O O11 0.080873 0.774688 0.224871
O O12 0.197026 0.951099 0.264143
O O13 0.647673 0.162624 0.102130
O O14 0.694024 0.101112 0.286636
O O15 0.750000 0.250000 0.000000
O O16 0.665550 0.301575 0.737079
#
# Coordination Sequence:
#
# PCOD9286019 Si02
#       7
#     8   8   8   8   8   8   8
#     4  10  21  42  70 100 139 197 261 298 368 462
#     4  10  24  44  72 109 151 199 249 324 385 455
#     4  12  24  46  78 108 141 196 265 311 371 462
#     4  10  24  43  74 111 147 202 250 320 381 458
#     4  11  24  46  71 112 161 190 250 325 398 441
#     4  11  23  45  77 111 147 202 262 305 374 473
#     4  10  24  42  76 108 147 195 256 317 374 461
#
# _framework density 24.162928999999998
#
# number of rings (size 3 to 8) (size 9 to 14) (size 15 to 20)
#    0.857    0.571    1.429    3.429    4.000    0.571 
#    0.000    7.143    3.143    0.000    0.000    0.000 
#    0.000    0.000    0.000    0.000    0.000    0.000 
#
# Total GULP energy -156018.381495 kJ/mol
# GULP energy per Si atom -5572.085053 kJ/mol
# Density = 2.410793 g / cm^3
# Si number density = 24.162929 Si / 1000 Ang^3
#
#
#
# Elastic Constant Matrix: (Units=GPa)
#
#
# Indices 1 2 3 4 5 6 
#
# 1 172.1539 89.3713 63.3054 0.0000 14.1681 0.0000
# 2 89.3713 133.1731 37.4289 0.0000 11.1784 0.0000
# 3 63.3054 37.4289 136.9371 0.0000 8.5880 0.0000
# 4 0.0000 0.0000 0.0000 36.3965 0.0000 11.6014
# 5 14.1681 11.1784 8.5880 0.0000 31.6607 0.0000
# 6 0.0000 0.0000 0.0000 11.6014 0.0000 36.1962
#
#
#
# Elastic Compliance Matrix: (Units=1/GPa)
#
#
# Indices 1 2 3 4 5 6 
#
# 1 0.010019 -0.005754 -0.002955 0.000000 -0.001650 0.000000
# 2 -0.005754 0.011608 -0.000424 0.000000 -0.001408 0.000000
# 3 -0.002955 -0.000424 0.008843 0.000000 -0.000926 0.000000
# 4 0.000000 0.000000 0.000000 0.030602 0.000000 -0.009808
# 5 -0.001650 -0.001408 -0.000926 0.000000 0.033072 0.000000
# 6 0.000000 0.000000 0.000000 -0.009808 0.000000 0.030771
#
#
# Mechanical properties :
#
#
# Convention : Reuss Voigt Hill
#
# Bulk Modulus (GPa) = 81.95464 91.38615 86.67040
# Shear Modulus (GPa) = 33.95614 37.66123 35.80868
#
# Velocity S-wave (km/s) = 3.75280 3.95224 3.85381
# Velocity P-wave (km/s) = 7.26424 7.66354 7.46656
#
# Compressibility (1/GPa) = 0.01220187
#
# Stress axis : x y z
#
# Youngs Moduli (GPa) = 99.81533 86.14647 113.08515
#
# Poissons Ratio (x) = 0.49571 0.33419
# Poissons Ratio (y) = 0.57436 0.04799
# Poissons Ratio (z) = 0.29498 0.03656
#
# Static dielectric constant tensor:
#      x y z
#    x 1.974640 0.000000 -0.167140 
#    y 0.000000 1.968700 0.000000 
#    z -0.167140 0.000000 1.959590 
# 
# From -- ./inp_files/111138.got.cif
#   From: 2010.05.17/outbox.cif.g08.bks.cpg/sg15_56_cif.got.tgz:111138.got - 2010.06.03 18:47:42.
