data_PCOD9286782
_publ_section_title
;
Structure prediction by ZEFSAII (Michael W. Deem and Ramdas Pophale) SiO2 
 PCOD9286782
Probable space group: C 2/C
;
_chemical_formula_sum "Si O2"
_cell_formula_units_Z 36
_cell_length_a 7.665250
_cell_length_b 11.478220
_cell_length_c 17.319075
_cell_angle_alpha 90.000000
_cell_angle_beta 83.649603
_cell_angle_gamma 90.000000
_cell_volume 1514.441641
_symmetry_space_group_name_H-M "C 2/C"
_symmetry_group_IT_number 15
_symmetry_cell_setting 'monoclinic'
loop_
_space_group_symop_operation_xyz
x,y,z
-x,y,1/2-z
-x,-y,-z
x,-y,1/2+z
1/2+x,1/2+y,z
1/2-x,1/2+y,1/2-z
1/2-x,1/2-y,-z
1/2+x,1/2-y,1/2+z
loop_
_atom_site_type_symbol
_atom_site_label
_atom_site_fract_x
_atom_site_fract_y
_atom_site_fract_z
Si Si1 0.000000 0.463003 0.750000
Si Si2 0.376329 0.076925 0.405604
Si Si3 0.958016 0.326130 0.065874
Si Si4 0.818138 0.092936 0.803354
Si Si5 0.980442 0.927494 0.921537
O O1 0.993582 0.387262 0.827502
O O2 0.829277 0.544834 0.748316
O O3 0.393065 0.152178 0.481763
O O4 0.180149 0.076521 0.385652
O O5 0.434212 0.943812 0.421199
O O6 0.795900 0.322308 0.134912
O O7 0.068363 0.207342 0.064055
O O8 0.000000 0.124059 0.750000
O O9 0.867945 0.992452 0.863187
O O10 0.000000 0.000000 0.000000
#
# Coordination Sequence:
#
# PCOD9286782 Si02
#       5
#     4   8   8   8   8
#     4  10  22  44  68 102 148 172 238 296 344 430
#     4  10  21  44  68  98 142 181 230 291 346 411
#     4  10  24  45  69 102 143 182 239 291 341 428
#     4  11  23  46  70 102 145 187 236 292 355 416
#     4  12  24  44  73 104 139 184 240 289 350 425
#
# _framework density 23.771135999999998
#
# number of rings (size 3 to 8) (size 9 to 14) (size 15 to 20)
#    0.000    1.333    4.444    0.667    0.000    0.889 
#   10.000    0.000    0.000    0.000    0.000    0.000 
#    0.000    0.000    0.000    0.000    0.000    0.000 
#
# Total GULP energy -100516.119049 kJ/mol
# GULP energy per Si atom -5584.228836 kJ/mol
# Density = 2.371703 g / cm^3
# Si number density = 23.771136 Si / 1000 Ang^3
#
#
#
# Elastic Constant Matrix: (Units=GPa)
#
#
# Indices 1 2 3 4 5 6 
#
# 1 95.2096 21.5971 7.1149 0.0000 15.3214 0.0000
# 2 21.5971 146.0208 48.1902 0.0000 1.9206 0.0000
# 3 7.1149 48.1902 144.4684 0.0000 -0.9924 0.0000
# 4 0.0000 0.0000 0.0000 13.8393 0.0000 -5.9656
# 5 15.3214 1.9206 -0.9924 0.0000 46.3371 0.0000
# 6 0.0000 0.0000 0.0000 -5.9656 0.0000 24.0965
#
#
#
# Elastic Compliance Matrix: (Units=1/GPa)
#
#
# Indices 1 2 3 4 5 6 
#
# 1 0.011477 -0.001633 -0.000046 0.000000 -0.003728 0.000000
# 2 -0.001633 0.007934 -0.002565 0.000000 0.000156 0.000000
# 3 -0.000046 -0.002565 0.007782 0.000000 0.000288 0.000000
# 4 0.000000 0.000000 0.000000 0.080890 0.000000 0.020026
# 5 -0.003728 0.000156 0.000288 0.000000 0.022813 0.000000
# 6 0.000000 0.000000 0.000000 0.020026 0.000000 0.046458
#
#
# Mechanical properties :
#
#
# Convention : Reuss Voigt Hill
#
# Bulk Modulus (GPa) = 53.46356 59.94479 56.70417
# Shear Modulus (GPa) = 26.03102 37.44102 31.73602
#
# Velocity S-wave (km/s) = 3.31277 3.97301 3.65782
# Velocity P-wave (km/s) = 6.09692 6.80578 6.46108
#
# Compressibility (1/GPa) = 0.01870433
#
# Stress axis : x y z
#
# Youngs Moduli (GPa) = 87.13071 126.03321 128.50439
#
# Poissons Ratio (x) = 0.20585 0.00592
# Poissons Ratio (y) = 0.14231 0.32964
# Poissons Ratio (z) = 0.00401 0.32330
#
# Static dielectric constant tensor:
#      x y z
#    x 1.918580 0.000000 -0.110190 
#    y 0.000000 1.963990 0.000000 
#    z -0.110190 0.000000 2.047050 
# 
# From -- ./inp_files/187593.got.cif
#   From: 2010.05.17/outbox.cif.g08.bks.cpg/sg15_94_cif.got.tgz:187593.got - 2010.06.03 18:47:42.
