data_PCOD9286956
_publ_section_title
;
Structure prediction by ZEFSAII (Michael W. Deem and Ramdas Pophale) SiO2 
 PCOD9286956
Probable space group: C 2/C
;
_chemical_formula_sum "Si O2"
_cell_formula_units_Z 52
_cell_length_a 9.137615
_cell_length_b 10.188503
_cell_length_c 23.517668
_cell_angle_alpha 90.000000
_cell_angle_beta 65.457701
_cell_angle_gamma 90.000000
_cell_volume 1991.655128
_symmetry_space_group_name_H-M "C 2/C"
_symmetry_group_IT_number 15
_symmetry_cell_setting 'monoclinic'
loop_
_space_group_symop_operation_xyz
x,y,z
-x,y,1/2-z
-x,-y,-z
x,-y,1/2+z
1/2+x,1/2+y,z
1/2-x,1/2+y,1/2-z
1/2-x,1/2-y,-z
1/2+x,1/2-y,1/2+z
loop_
_atom_site_type_symbol
_atom_site_label
_atom_site_fract_x
_atom_site_fract_y
_atom_site_fract_z
Si Si1 0.913414 0.744233 0.839651
Si Si2 0.268917 0.719715 0.816252
Si Si3 0.500000 0.507297 0.250000
Si Si4 0.184409 0.541733 0.041797
Si Si5 0.620487 0.603685 0.591344
Si Si6 0.644367 0.874742 0.947100
Si Si7 0.254693 0.492701 0.162212
O O1 0.763318 0.765136 0.906130
O O2 0.849149 0.635136 0.806434
O O3 0.077165 0.702430 0.843956
O O4 0.945445 0.884017 0.804735
O O5 0.286451 0.979374 0.897391
O O6 0.348343 0.713477 0.866421
O O7 0.286512 0.874330 0.796405
O O8 0.355475 0.399416 0.268416
O O9 0.029456 0.631208 0.052599
O O10 0.336568 0.603750 0.982962
O O11 0.142361 0.406473 0.014287
O O12 0.766878 0.507653 0.586781
O O13 0.443277 0.546146 0.629416
#
# Coordination Sequence:
#
# PCOD9286956 Si02
#       7
#     8   8   4   8   8   8   8
#     4  12  28  48  75 106 143 188 247 308 371 436
#     4  12  26  50  74 105 143 187 244 311 371 437
#     4  12  28  52  80  94 138 186 238 318 386 444
#     4   9  20  41  71 107 154 206 238 281 352 428
#     4  10  21  45  68 107 156 192 240 287 349 431
#     4   9  19  44  67 104 147 201 234 288 350 431
#     4  12  26  41  73 115 148 192 248 301 351 438
#
# _framework density 26.108937000000001
#
# number of rings (size 3 to 8) (size 9 to 14) (size 15 to 20)
#    0.923    0.308    3.077    1.385    2.154    5.538 
#    2.769    0.000    0.000    0.000    0.000    0.000 
#    0.000    0.000    0.000    0.000    0.000    0.000 
#
# Total GULP energy -145028.998116 kJ/mol
# GULP energy per Si atom -5578.038389 kJ/mol
# Density = 2.604951 g / cm^3
# Si number density = 26.108937 Si / 1000 Ang^3
#
#
#
# Elastic Constant Matrix: (Units=GPa)
#
#
# Indices 1 2 3 4 5 6 
#
# 1 133.1604 82.6645 50.0076 0.0000 -13.9206 0.0000
# 2 82.6645 177.7930 22.6815 0.0000 -13.5419 0.0000
# 3 50.0076 22.6815 83.0193 0.0000 -13.5873 0.0000
# 4 0.0000 0.0000 0.0000 34.9758 0.0000 -2.4317
# 5 -13.9206 -13.5419 -13.5873 0.0000 43.1568 0.0000
# 6 0.0000 0.0000 0.0000 -2.4317 0.0000 42.3962
#
#
#
# Elastic Compliance Matrix: (Units=1/GPa)
#
#
# Indices 1 2 3 4 5 6 
#
# 1 0.013296 -0.005313 -0.006461 0.000000 0.000587 0.000000
# 2 -0.005313 0.008032 0.001200 0.000000 0.001184 0.000000
# 3 -0.006461 0.001200 0.016163 0.000000 0.003381 0.000000
# 4 0.000000 0.000000 0.000000 0.028706 0.000000 0.001646
# 5 0.000587 0.001184 0.003381 0.000000 0.024797 0.000000
# 6 0.000000 0.000000 0.000000 0.001646 0.000000 0.023681
#
#
# Mechanical properties :
#
#
# Convention : Reuss Voigt Hill
#
# Bulk Modulus (GPa) = 61.19240 78.29776 69.74508
# Shear Modulus (GPa) = 35.39307 40.01369 37.70338
#
# Velocity S-wave (km/s) = 3.68583 3.91905 3.80423
# Velocity P-wave (km/s) = 6.44996 7.10863 6.78729
#
# Compressibility (1/GPa) = 0.01634190
#
# Stress axis : x y z
#
# Youngs Moduli (GPa) = 75.21193 124.50414 61.86985
#
# Poissons Ratio (x) = 0.66147 0.39975
# Poissons Ratio (y) = 0.39959 -0.07423
# Poissons Ratio (z) = 0.48596 -0.14937
#
# Static dielectric constant tensor:
#      x y z
#    x 2.009410 0.000000 0.081540 
#    y 0.000000 2.156770 0.000000 
#    z 0.081540 0.000000 2.221610 
# 
# From -- ./inp_files/306893.got.cif
#   From: 2010.05.17/outbox.cif.g08.bks.cpg/sg15_154_cif.got.tgz:306893.got - 2010.06.03 18:47:42.
