data_PCOD9286769
_publ_section_title
;
Structure prediction by ZEFSAII (Michael W. Deem and Ramdas Pophale) SiO2 
 PCOD9286769
Probable space group: C 2/C
;
_chemical_formula_sum "Si O2"
_cell_formula_units_Z 60
_cell_length_a 5.835342
_cell_length_b 18.600858
_cell_length_c 23.520154
_cell_angle_alpha 90.000000
_cell_angle_beta 83.254331
_cell_angle_gamma 90.000000
_cell_volume 2535.260117
_symmetry_space_group_name_H-M "C 2/C"
_symmetry_group_IT_number 15
_symmetry_cell_setting 'monoclinic'
loop_
_space_group_symop_operation_xyz
x,y,z
-x,y,1/2-z
-x,-y,-z
x,-y,1/2+z
1/2+x,1/2+y,z
1/2-x,1/2+y,1/2-z
1/2-x,1/2-y,-z
1/2+x,1/2-y,1/2+z
loop_
_atom_site_type_symbol
_atom_site_label
_atom_site_fract_x
_atom_site_fract_y
_atom_site_fract_z
Si Si1 0.084667 0.488387 0.310649
Si Si2 0.404925 0.358274 0.315614
Si Si3 0.250000 0.750000 0.500000
Si Si4 0.146270 0.099278 0.140529
Si Si5 0.571755 0.150640 0.052642
Si Si6 0.225211 0.850957 0.415340
Si Si7 0.785886 0.986470 0.581691
Si Si8 0.123736 0.235165 0.368534
O O1 0.204309 0.416737 0.331107
O O2 0.271175 0.551819 0.309442
O O3 0.000000 0.475214 0.250000
O O4 0.878688 0.512388 0.357682
O O5 0.500000 0.371224 0.250000
O O6 0.594318 0.364065 0.359230
O O7 0.298187 0.279403 0.325095
O O8 0.432794 0.816730 0.504578
O O9 0.089144 0.802537 0.464496
O O10 0.364139 0.136515 0.103852
O O11 0.026834 0.044457 0.098945
O O12 0.979374 0.165263 0.158816
O O13 0.691093 0.073252 0.041052
O O14 0.754880 0.201480 0.079453
O O15 0.425305 0.791648 0.393392
O O16 0.236948 0.932184 0.438443
#
# Coordination Sequence:
#
# PCOD9286769 Si02
#       8
#     8   8   4   8   8   8   8   8
#     4  11  23  40  70 102 131 184 235 284 350 424
#     4  12  25  42  70 103 140 179 238 287 346 429
#     4  12  24  44  74  98 144 178 242 300 358 414
#     4  10  21  44  68  94 144 174 226 291 342 421
#     4  10  23  44  67 103 134 180 229 288 348 428
#     4  12  24  45  69 104 135 188 230 296 352 418
#     4  10  22  42  69  94 140 182 227 283 355 425
#     4  11  22  45  70  97 141 183 230 281 359 419
#
# _framework density 23.666212000000002
#
# number of rings (size 3 to 8) (size 9 to 14) (size 15 to 20)
#    0.000    1.067    5.333    0.800    0.000    1.067 
#    0.000   16.667    0.000    0.000    0.000    0.000 
#    0.000    0.000    0.000    0.000    0.000    0.000 
#
# Total GULP energy -167162.978420 kJ/mol
# GULP energy per Si atom -5572.099281 kJ/mol
# Density = 2.361235 g / cm^3
# Si number density = 23.666212 Si / 1000 Ang^3
#
#
#
# Elastic Constant Matrix: (Units=GPa)
#
#
# Indices 1 2 3 4 5 6 
#
# 1 70.2382 50.2642 12.6449 0.0000 19.7679 0.0000
# 2 50.2642 140.2638 33.7999 0.0000 19.2150 0.0000
# 3 12.6449 33.7999 44.8845 0.0000 18.0175 0.0000
# 4 0.0000 0.0000 0.0000 18.0169 0.0000 7.4827
# 5 19.7679 19.2150 18.0175 0.0000 30.4587 0.0000
# 6 0.0000 0.0000 0.0000 7.4827 0.0000 60.3592
#
#
#
# Elastic Compliance Matrix: (Units=1/GPa)
#
#
# Indices 1 2 3 4 5 6 
#
# 1 0.022123 -0.007249 0.004136 0.000000 -0.012231 0.000000
# 2 -0.007249 0.011191 -0.007133 0.000000 0.001864 0.000000
# 3 0.004136 -0.007133 0.033778 0.000000 -0.018165 0.000000
# 4 0.000000 0.000000 0.000000 0.058516 0.000000 -0.007254
# 5 -0.012231 0.001864 -0.018165 0.000000 0.050339 0.000000
# 6 0.000000 0.000000 0.000000 -0.007254 0.000000 0.017467
#
#
# Mechanical properties :
#
#
# Convention : Reuss Voigt Hill
#
# Bulk Modulus (GPa) = 21.45974 49.86717 35.66345
# Shear Modulus (GPa) = 21.79247 32.34547 27.06897
#
# Velocity S-wave (km/s) = 3.03780 3.70095 3.38565
# Velocity P-wave (km/s) = 4.62512 6.27531 5.51231
#
# Compressibility (1/GPa) = 0.04659888
#
# Stress axis : x y z
#
# Youngs Moduli (GPa) = 45.20285 89.36091 29.60544
#
# Poissons Ratio (x) = 0.64776 -0.12245
# Poissons Ratio (y) = 0.32767 0.21118
# Poissons Ratio (z) = -0.18697 0.63743
#
# Static dielectric constant tensor:
#      x y z
#    x 1.934380 0.000000 -0.045370 
#    y 0.000000 1.900990 0.000000 
#    z -0.045370 0.000000 2.032150 
# 
# From -- ./inp_files/286071.got.cif
#   From: 2010.05.17/outbox.cif.g08.bks.cpg/sg15_144_cif.got.tgz:286071.got - 2010.06.03 18:47:42.
