data_PCOD9286313
_publ_section_title
;
Structure prediction by ZEFSAII (Michael W. Deem and Ramdas Pophale) SiO2 
 PCOD9286313
Probable space group: C 2/C
;
_chemical_formula_sum "Si O2"
_cell_formula_units_Z 48
_cell_length_a 15.755301
_cell_length_b 27.313376
_cell_length_c 9.821642
_cell_angle_alpha 90.000000
_cell_angle_beta 34.001748
_cell_angle_gamma 90.000000
_cell_volume 2363.564628
_symmetry_space_group_name_H-M "C 2/C"
_symmetry_group_IT_number 15
_symmetry_cell_setting 'monoclinic'
loop_
_space_group_symop_operation_xyz
x,y,z
-x,y,1/2-z
-x,-y,-z
x,-y,1/2+z
1/2+x,1/2+y,z
1/2-x,1/2+y,1/2-z
1/2-x,1/2-y,-z
1/2+x,1/2-y,1/2+z
loop_
_atom_site_type_symbol
_atom_site_label
_atom_site_fract_x
_atom_site_fract_y
_atom_site_fract_z
Si Si1 0.139189 0.608197 0.666685
Si Si2 0.375858 0.468121 0.796193
Si Si3 0.425715 0.421438 0.199846
Si Si4 0.858116 0.640207 0.533684
Si Si5 0.683989 0.207664 0.492837
Si Si6 0.340419 0.744812 0.017703
O O1 0.229135 0.558479 0.543687
O O2 0.103810 0.620133 0.868487
O O3 0.232567 0.655030 0.486398
O O4 0.000000 0.604195 0.750000
O O5 0.500000 0.466931 0.750000
O O6 0.440497 0.435689 0.584770
O O7 0.345191 0.525047 0.808903
O O8 0.500000 0.410548 0.250000
O O9 0.301927 0.381864 0.310857
O O10 0.856693 0.699335 0.548389
O O11 0.000000 0.627410 0.250000
O O12 0.750000 0.250000 0.500000
O O13 0.500000 0.210111 0.750000
O O14 0.750561 0.215172 0.252883
O O15 0.500000 0.724133 0.750000
O O16 0.250000 0.750000 0.000000
#
# Coordination Sequence:
#
# PCOD9286313 Si02
#       6
#     8   8   8   8   8   8
#     4  11  25  42  67  93 129 172 218 265 317 387
#     4  10  21  43  66  95 129 163 216 269 321 377
#     4  10  23  41  67  96 129 166 209 271 324 384
#     4  11  25  44  64  94 133 171 212 267 326 387
#     4  11  23  41  65  94 125 169 220 266 315 377
#     4  11  25  43  64  93 134 169 212 270 327 384
#
# _framework density 20.308309999999999
#
# number of rings (size 3 to 8) (size 9 to 14) (size 15 to 20)
#    0.000    1.333    3.333    1.000    9.333    4.667 
#    0.000    1.667    0.000    0.000    0.000    0.000 
#    0.000    0.000    0.000    0.000    0.000    0.000 
#
# Total GULP energy -133951.149150 kJ/mol
# GULP energy per Si atom -5581.297881 kJ/mol
# Density = 2.026209 g / cm^3
# Si number density = 20.308310 Si / 1000 Ang^3
#
#
#
# Elastic Constant Matrix: (Units=GPa)
#
#
# Indices 1 2 3 4 5 6 
#
# 1 76.0825 -6.1545 25.6663 0.0001 19.4322 -0.0001
# 2 -6.1545 51.4900 23.5990 0.0000 -0.1896 0.0000
# 3 25.6663 23.5990 117.6912 0.0001 30.8089 -0.0001
# 4 0.0001 0.0000 0.0001 47.5246 -0.0001 -25.0596
# 5 19.4322 -0.1896 30.8089 -0.0001 39.3105 0.0001
# 6 -0.0001 0.0000 -0.0001 -25.0596 0.0001 30.9834
#
#
#
# Elastic Compliance Matrix: (Units=1/GPa)
#
#
# Indices 1 2 3 4 5 6 
#
# 1 0.015713 0.003011 -0.002517 0.000000 -0.005780 0.000000
# 2 0.003011 0.022574 -0.006067 0.000000 0.003375 0.000000
# 3 -0.002517 -0.006067 0.012511 0.000000 -0.008590 0.000000
# 4 0.000000 0.000000 0.000000 0.036689 0.000000 0.029674
# 5 -0.005780 0.003375 -0.008590 0.000000 0.035044 0.000000
# 6 0.000000 0.000000 0.000000 0.029674 0.000000 0.056276
#
#
# Mechanical properties :
#
#
# Convention : Reuss Voigt Hill
#
# Bulk Modulus (GPa) = 25.22015 36.83172 31.02594
# Shear Modulus (GPa) = 24.60991 37.04057 30.82524
#
# Velocity S-wave (km/s) = 3.48489 4.27536 3.90020
# Velocity P-wave (km/s) = 5.35147 6.52283 5.96596
#
# Compressibility (1/GPa) = 0.03965083
#
# Stress axis : x y z
#
# Youngs Moduli (GPa) = 63.64339 44.29884 79.93015
#
# Poissons Ratio (x) = -0.13336 0.20121
# Poissons Ratio (y) = -0.19160 0.48490
# Poissons Ratio (z) = 0.16021 0.26874
#
# Static dielectric constant tensor:
#      x y z
#    x 1.671640 0.000000 0.005360 
#    y 0.000000 2.920730 0.000000 
#    z 0.005360 0.000000 1.736220 
# 
# From -- ./inp_files/43781.got.cif
#   From: 2010.05.17/outbox.cif.g08.bks.cpg/sg15_22_cif.got.tgz:43781.got - 2010.06.03 18:47:42.
