data_PCOD9286359
_publ_section_title
;
Structure prediction by ZEFSAII (Michael W. Deem and Ramdas Pophale) SiO2 
 PCOD9286359
Probable space group: C 2/C
;
_chemical_formula_sum "Si O2"
_cell_formula_units_Z 48
_cell_length_a 15.842751
_cell_length_b 16.982554
_cell_length_c 16.324792
_cell_angle_alpha 90.000000
_cell_angle_beta 147.339941
_cell_angle_gamma 90.000000
_cell_volume 2370.261771
_symmetry_space_group_name_H-M "C 2/C"
_symmetry_group_IT_number 15
_symmetry_cell_setting 'monoclinic'
loop_
_space_group_symop_operation_xyz
x,y,z
-x,y,1/2-z
-x,-y,-z
x,-y,1/2+z
1/2+x,1/2+y,z
1/2-x,1/2+y,1/2-z
1/2-x,1/2-y,-z
1/2+x,1/2-y,1/2+z
loop_
_atom_site_type_symbol
_atom_site_label
_atom_site_fract_x
_atom_site_fract_y
_atom_site_fract_z
Si Si1 0.855695 0.693942 0.025101
Si Si2 0.079865 0.167694 0.677074
Si Si3 0.425850 0.658211 0.015548
Si Si4 0.661842 0.289625 0.829649
Si Si5 0.270898 0.557957 0.015601
Si Si6 0.500000 0.440587 0.250000
Si Si7 0.000000 0.553678 0.250000
O O1 0.999080 0.747401 0.113181
O O2 0.931218 0.616403 0.127892
O O3 0.750000 0.750000 0.000000
O O4 0.744327 0.672464 0.858374
O O5 0.082918 0.140008 0.586793
O O6 0.976195 0.112561 0.651223
O O7 0.284536 0.719130 0.921452
O O8 0.591244 0.691723 0.182401
O O9 0.394594 0.584269 0.048118
O O10 0.500000 0.274245 0.750000
O O11 0.749481 0.363259 0.945681
O O12 0.351753 0.495510 0.140928
O O13 0.139222 0.510795 0.858877
#
# Coordination Sequence:
#
# PCOD9286359 Si02
#       7
#     8   8   8   8   8   4   4
#     4  12  21  42  65  94 119 171 217 254 311 384
#     4  12  24  40  66  92 129 160 222 259 313 375
#     4  11  24  41  64  99 122 167 215 273 308 371
#     4  10  21  43  67  92 124 169 217 257 319 383
#     4  11  23  41  64  92 126 167 211 253 329 386
#     4  12  21  42  63  84 126 170 202 254 313 400
#     4  12  23  38  67  94 124 166 214 256 321 382
#
# _framework density 20.250927999999998
#
# number of rings (size 3 to 8) (size 9 to 14) (size 15 to 20)
#    0.000    0.667    7.500    3.000    3.500    0.667 
#    0.000    0.833    0.000    0.000    0.000    0.000 
#    0.000    0.000    0.000    0.000    0.000    0.000 
#
# Total GULP energy -133695.259379 kJ/mol
# GULP energy per Si atom -5570.635807 kJ/mol
# Density = 2.020484 g / cm^3
# Si number density = 20.250928 Si / 1000 Ang^3
#
#
#
# Elastic Constant Matrix: (Units=GPa)
#
#
# Indices 1 2 3 4 5 6 
#
# 1 48.4454 17.9823 12.8885 -0.0001 -27.8637 0.0000
# 2 17.9823 60.9891 19.6966 0.0002 2.0382 0.0001
# 3 12.8885 19.6966 125.8625 -0.0001 -19.2178 0.0000
# 4 -0.0001 0.0002 -0.0001 47.5260 0.0003 13.0507
# 5 -27.8637 2.0382 -19.2178 0.0003 38.5768 0.0001
# 6 0.0000 0.0001 0.0000 13.0507 0.0001 13.6882
#
#
#
# Elastic Compliance Matrix: (Units=1/GPa)
#
#
# Indices 1 2 3 4 5 6 
#
# 1 0.046355 -0.015911 0.003229 0.000000 0.035931 0.000000
# 2 -0.015911 0.022946 -0.004223 0.000000 -0.014808 0.000000
# 3 0.003229 -0.004223 0.009379 0.000000 0.007228 0.000000
# 4 0.000000 0.000000 0.000000 0.028504 0.000000 -0.027176
# 5 0.035931 -0.014808 0.007228 0.000000 0.056258 0.000000
# 6 0.000000 0.000000 0.000000 -0.027176 0.000000 0.098966
#
#
# Mechanical properties :
#
#
# Convention : Reuss Voigt Hill
#
# Bulk Modulus (GPa) = 22.28607 37.38131 29.83369
# Shear Modulus (GPa) = 16.06821 32.27353 24.17087
#
# Velocity S-wave (km/s) = 2.81989 3.99642 3.45855
# Velocity P-wave (km/s) = 4.65094 6.30828 5.54191
#
# Compressibility (1/GPa) = 0.04487108
#
# Stress axis : x y z
#
# Youngs Moduli (GPa) = 21.57287 43.58010 106.62201
#
# Poissons Ratio (x) = 0.69341 -0.34433
# Poissons Ratio (y) = 0.34325 0.45023
# Poissons Ratio (z) = -0.06967 0.18402
#
# Static dielectric constant tensor:
#      x y z
#    x 1.746050 0.000000 0.022920 
#    y 0.000000 1.733360 0.000000 
#    z 0.022920 0.000000 1.772560 
# 
# From -- ./inp_files/211642.got.cif
#   From: 2010.05.17/outbox.cif.g08.bks.cpg/sg15_106_cif.got.tgz:211642.got - 2010.06.03 18:47:42.
