data_PCOD9286232
_publ_section_title
;
Structure prediction by ZEFSAII (Michael W. Deem and Ramdas Pophale) SiO2 
 PCOD9286232
Probable space group: C 2/C
;
_chemical_formula_sum "Si O2"
_cell_formula_units_Z 56
_cell_length_a 12.840263
_cell_length_b 14.459684
_cell_length_c 12.920599
_cell_angle_alpha 90.000000
_cell_angle_beta 106.630373
_cell_angle_gamma 90.000000
_cell_volume 2298.573465
_symmetry_space_group_name_H-M "C 2/C"
_symmetry_group_IT_number 15
_symmetry_cell_setting 'monoclinic'
loop_
_space_group_symop_operation_xyz
x,y,z
-x,y,1/2-z
-x,-y,-z
x,-y,1/2+z
1/2+x,1/2+y,z
1/2-x,1/2+y,1/2-z
1/2-x,1/2-y,-z
1/2+x,1/2-y,1/2+z
loop_
_atom_site_type_symbol
_atom_site_label
_atom_site_fract_x
_atom_site_fract_y
_atom_site_fract_z
Si Si1 0.997984 0.215364 0.068047
Si Si2 0.286068 0.358549 0.513653
Si Si3 0.136744 0.474224 0.950177
Si Si4 0.914170 0.745832 0.309276
Si Si5 0.558270 0.904745 0.138695
Si Si6 0.703358 0.578807 0.717337
Si Si7 0.278229 0.379373 0.812076
O O1 0.907431 0.148517 0.093014
O O2 0.966999 0.238364 0.938208
O O3 0.993124 0.310739 0.128923
O O4 0.118960 0.176814 0.116681
O O5 0.250000 0.250000 0.500000
O O6 0.197792 0.436024 0.518511
O O7 0.312508 0.396294 0.406518
O O8 0.210174 0.420008 0.889916
O O9 0.025340 0.512401 0.870240
O O10 0.101496 0.409787 0.033640
O O11 0.869547 0.843584 0.249716
O O12 0.806070 0.681394 0.279417
O O13 0.000000 0.708540 0.250000
O O14 0.668337 0.907184 0.232498
O O15 0.680697 0.472249 0.733160
#
# Coordination Sequence:
#
# PCOD9286232 Si02
#       7
#     8   8   8   8   8   8   8
#     4  11  24  44  70  92 135 177 219 272 336 389
#     4  10  21  43  64  94 128 176 216 269 323 385
#     4  10  24  38  69  95 132 173 220 270 333 389
#     4  11  25  42  68  99 135 174 219 273 332 399
#     4  11  22  42  64 101 127 172 222 276 321 394
#     4  10  25  41  67  96 138 168 227 273 324 396
#     4  11  25  45  65 100 133 175 220 274 332 396
#
# _framework density 24.362936999999999
#
# number of rings (size 3 to 8) (size 9 to 14) (size 15 to 20)
#    0.000    1.429    2.857    0.857    8.000    8.000 
#    0.000    0.000    0.000    0.000    0.000    0.000 
#    0.000    0.000    0.000    0.000    0.000    0.000 
#
# Total GULP energy -156463.993350 kJ/mol
# GULP energy per Si atom -5587.999762 kJ/mol
# Density = 2.430749 g / cm^3
# Si number density = 24.362937 Si / 1000 Ang^3
#
#
#
# Elastic Constant Matrix: (Units=GPa)
#
#
# Indices 1 2 3 4 5 6 
#
# 1 60.9554 14.9861 7.9675 0.0000 17.2019 0.0000
# 2 14.9861 114.3446 42.0091 0.0000 17.1530 0.0000
# 3 7.9675 42.0091 63.4574 0.0000 18.9108 0.0000
# 4 0.0000 0.0000 0.0000 33.3413 0.0000 14.4999
# 5 17.2019 17.1530 18.9108 0.0000 41.2991 0.0000
# 6 0.0000 0.0000 0.0000 14.4999 0.0000 49.6448
#
#
#
# Elastic Compliance Matrix: (Units=1/GPa)
#
#
# Indices 1 2 3 4 5 6 
#
# 1 0.018838 -0.001707 0.001032 0.000000 -0.007610 0.000000
# 2 -0.001707 0.011792 -0.007347 0.000000 -0.000823 0.000000
# 3 0.001032 -0.007347 0.022826 0.000000 -0.007831 0.000000
# 4 0.000000 0.000000 0.000000 0.034357 0.000000 -0.010035
# 5 -0.007610 -0.000823 -0.007831 0.000000 0.031311 0.000000
# 6 0.000000 0.000000 0.000000 -0.010035 0.000000 0.023074
#
#
# Mechanical properties :
#
#
# Convention : Reuss Voigt Hill
#
# Bulk Modulus (GPa) = 26.72808 40.96476 33.84642
# Shear Modulus (GPa) = 29.28942 36.44334 32.86638
#
# Velocity S-wave (km/s) = 3.47105 3.87182 3.67690
# Velocity P-wave (km/s) = 5.20182 6.06950 5.65233
#
# Compressibility (1/GPa) = 0.03741383
#
# Stress axis : x y z
#
# Youngs Moduli (GPa) = 53.08505 84.80553 43.80938
#
# Poissons Ratio (x) = 0.14473 -0.04523
# Poissons Ratio (y) = 0.09059 0.32186
# Poissons Ratio (z) = -0.05481 0.62304
#
# Static dielectric constant tensor:
#      x y z
#    x 2.066870 0.000000 -0.279120 
#    y 0.000000 1.977840 0.000000 
#    z -0.279120 0.000000 2.772790 
# 
# From -- ./inp_files/198430.got.cif
#   From: 2010.05.17/outbox.cif.g08.bks.cpg/sg15_100_cif.got.tgz:198430.got - 2010.06.03 18:47:42.
