data_PCOD9286314
_publ_section_title
;
Structure prediction by ZEFSAII (Michael W. Deem and Ramdas Pophale) SiO2 
 PCOD9286314
Probable space group: C 2/C
;
_chemical_formula_sum "Si O2"
_cell_formula_units_Z 56
_cell_length_a 11.650707
_cell_length_b 30.785183
_cell_length_c 8.251121
_cell_angle_alpha 90.000000
_cell_angle_beta 102.626294
_cell_angle_gamma 90.000000
_cell_volume 2887.853483
_symmetry_space_group_name_H-M "C 2/C"
_symmetry_group_IT_number 15
_symmetry_cell_setting 'monoclinic'
loop_
_space_group_symop_operation_xyz
x,y,z
-x,y,1/2-z
-x,-y,-z
x,-y,1/2+z
1/2+x,1/2+y,z
1/2-x,1/2+y,1/2-z
1/2-x,1/2-y,-z
1/2+x,1/2-y,1/2+z
loop_
_atom_site_type_symbol
_atom_site_label
_atom_site_fract_x
_atom_site_fract_y
_atom_site_fract_z
Si Si1 0.250018 0.538746 0.141561
Si Si2 0.537455 0.091373 0.941375
Si Si3 0.709001 0.293879 0.396288
Si Si4 0.914403 0.121924 0.564217
Si Si5 0.000000 0.744306 0.250000
Si Si6 0.500000 0.419621 0.750000
Si Si7 0.965235 0.310715 0.412549
Si Si8 0.798576 0.556411 0.001724
O O1 0.386387 0.551612 0.167776
O O2 0.216747 0.546992 0.315354
O O3 0.162737 0.570264 0.016127
O O4 0.224241 0.488941 0.094009
O O5 0.500000 0.078668 0.750000
O O6 0.532882 0.143616 0.948738
O O7 0.430045 0.073833 0.015964
O O8 0.750000 0.250000 0.500000
O O9 0.640228 0.330019 0.477581
O O10 0.611050 0.274995 0.247069
O O11 0.824202 0.316362 0.360361
O O12 0.803890 0.090669 0.572840
O O13 0.000000 0.121818 0.750000
O O14 0.968487 0.106423 0.407515
O O15 0.014683 0.715670 0.415874
O O16 0.000000 0.290129 0.250000
#
# Coordination Sequence:
#
# PCOD9286314 Si02
#       8
#     8   8   8   8   4   4   8   8
#     4  11  25  41  64  96 132 171 223 267 327 386
#     4  11  23  40  66  94 130 173 222 271 320 390
#     4  10  21  43  66  95 129 165 217 266 328 394
#     4  11  24  43  70  92 133 175 214 274 334 392
#     4  10  22  40  65  90 134 168 201 274 328 388
#     4  10  28  44  65 102 130 174 225 270 328 398
#     4  10  23  40  65  97 126 168 218 261 325 390
#     4  11  24  41  65  94 131 174 216 275 324 385
#
# _framework density 19.391566000000001
#
# number of rings (size 3 to 8) (size 9 to 14) (size 15 to 20)
#    0.000    1.429    2.143    1.714    7.000    2.857 
#    5.143    0.000    0.000    0.000    0.000    0.000 
#    0.000    0.000    0.000    0.000    0.000    0.000 
#
# Total GULP energy -156090.343349 kJ/mol
# GULP energy per Si atom -5574.655120 kJ/mol
# Density = 1.934743 g / cm^3
# Si number density = 19.391566 Si / 1000 Ang^3
#
#
#
# Elastic Constant Matrix: (Units=GPa)
#
#
# Indices 1 2 3 4 5 6 
#
# 1 73.0698 8.9433 16.8728 0.0000 14.7119 0.0000
# 2 8.9433 79.7316 20.9240 0.0000 15.4211 0.0000
# 3 16.8728 20.9240 71.7063 0.0000 10.4546 0.0000
# 4 0.0000 0.0000 0.0000 -17.8574 0.0000 89.5064
# 5 14.7119 15.4211 10.4546 0.0000 34.8814 0.0000
# 6 0.0000 0.0000 0.0000 89.5064 0.0000 -170.8484
#
#
#
# Elastic Compliance Matrix: (Units=1/GPa)
#
#
# Indices 1 2 3 4 5 6 
#
# 1 0.015481 0.000117 -0.002842 0.000000 -0.005730 0.000000
# 2 0.000117 0.014486 -0.003465 0.000000 -0.005415 0.000000
# 3 -0.002842 -0.003465 0.015923 0.000000 -0.002042 0.000000
# 4 0.000000 0.000000 0.000000 0.034442 0.000000 0.018044
# 5 -0.005730 -0.005415 -0.002042 0.000000 0.034091 0.000000
# 6 0.000000 0.000000 0.000000 0.018044 0.000000 0.003600
#
#
# Mechanical properties :
#
#
# Convention : Reuss Voigt Hill
#
# Bulk Modulus (GPa) = 29.84066 35.33199 32.58632
# Shear Modulus (GPa) = 35.31781 -18.91369 8.20206
#
# Velocity S-wave (km/s) = 4.27230 -3.12646 2.05886
# Velocity P-wave (km/s) = 6.30544 2.28623 4.74265
#
# Compressibility (1/GPa) = 0.03351132
#
# Stress axis : x y z
#
# Youngs Moduli (GPa) = 64.59548 69.03422 62.80127
#
# Poissons Ratio (x) = -0.00811 0.17846
# Poissons Ratio (y) = -0.00759 0.21761
# Poissons Ratio (z) = 0.18356 0.23921
#
# Static dielectric constant tensor:
#      x y z
#    x 1.739070 0.000000 0.004400 
#    y 0.000000 2.013440 0.000000 
#    z 0.004400 0.000000 1.668570 
# 
# From -- ./inp_files/34404.got.cif
#   From: 2010.05.17/outbox.cif.g08.bks.cpg/sg15_18_cif.got.tgz:34404.got - 2010.06.03 18:47:42.
