data_PCOD9286894
_publ_section_title
;
Structure prediction by ZEFSAII (Michael W. Deem and Ramdas Pophale) SiO2 
 PCOD9286894
Probable space group: C 2/C
;
_chemical_formula_sum "Si O2"
_cell_formula_units_Z 60
_cell_length_a 5.868454
_cell_length_b 22.814319
_cell_length_c 18.973632
_cell_angle_alpha 90.000000
_cell_angle_beta 98.612901
_cell_angle_gamma 90.000000
_cell_volume 2511.633034
_symmetry_space_group_name_H-M "C 2/C"
_symmetry_group_IT_number 15
_symmetry_cell_setting 'monoclinic'
loop_
_space_group_symop_operation_xyz
x,y,z
-x,y,1/2-z
-x,-y,-z
x,-y,1/2+z
1/2+x,1/2+y,z
1/2-x,1/2+y,1/2-z
1/2-x,1/2-y,-z
1/2+x,1/2-y,1/2+z
loop_
_atom_site_type_symbol
_atom_site_label
_atom_site_fract_x
_atom_site_fract_y
_atom_site_fract_z
Si Si1 0.271630 0.021533 0.558073
Si Si2 0.112728 0.217508 0.679470
Si Si3 0.110872 0.946736 0.905776
Si Si4 0.018988 0.774680 0.529782
Si Si5 0.500000 0.863969 0.250000
Si Si6 0.402103 0.679851 0.165761
Si Si7 0.936776 0.873922 0.065278
Si Si8 0.194507 0.549327 0.651506
O O1 0.300606 0.037899 0.476152
O O2 0.139001 0.079189 0.580356
O O3 0.463696 0.014379 0.626015
O O4 0.115414 0.963473 0.558732
O O5 0.348385 0.179482 0.695661
O O6 0.165152 0.283420 0.658645
O O7 0.962857 0.179995 0.619694
O O8 0.000000 0.217913 0.750000
O O9 0.126051 0.885028 0.867577
O O10 0.119119 0.998211 0.846811
O O11 0.250000 0.750000 0.500000
O O12 0.750000 0.750000 0.500000
O O13 0.042941 0.780300 0.615425
O O14 0.029469 0.842206 0.506335
O O15 0.328883 0.907196 0.284637
O O16 0.500000 0.678836 0.250000
O O17 0.717698 0.909065 0.083116
#
# Coordination Sequence:
#
# PCOD9286894 Si02
#       8
#     8   8   8   8   4   8   8   8
#     4  10  21  44  73  99 136 180 253 310 378 439
#     4  12  25  45  70 103 147 192 246 309 393 460
#     4  10  24  47  65 102 140 191 246 305 379 464
#     4  12  29  49  78 115 155 208 271 321 388 477
#     4  12  24  40  70 102 136 180 246 300 382 438
#     4  12  28  49  72 109 162 205 250 319 406 486
#     4  11  23  42  74 102 139 184 252 319 371 442
#     4  11  24  41  73 104 132 189 241 324 367 451
#
# _framework density 23.888839999999998
#
# number of rings (size 3 to 8) (size 9 to 14) (size 15 to 20)
#    0.000    0.800    6.000    0.400    5.600    1.067 
#    6.000    0.000    0.000    0.000    0.000    0.000 
#    0.000    0.000    0.000    0.000    0.000    0.000 
#
# Total GULP energy -167105.443521 kJ/mol
# GULP energy per Si atom -5570.181451 kJ/mol
# Density = 2.383447 g / cm^3
# Si number density = 23.888840 Si / 1000 Ang^3
#
#
#
# Elastic Constant Matrix: (Units=GPa)
#
#
# Indices 1 2 3 4 5 6 
#
# 1 36.6509 26.4842 14.1394 0.0000 -8.0611 0.0000
# 2 26.4842 169.1365 53.7956 0.0000 -17.4545 0.0000
# 3 14.1394 53.7956 127.1171 0.0000 -24.2002 0.0000
# 4 0.0000 0.0000 0.0000 52.2303 0.0000 -10.2898
# 5 -8.0611 -17.4545 -24.2002 0.0000 35.9741 0.0000
# 6 0.0000 0.0000 0.0000 -10.2898 0.0000 31.2228
#
#
#
# Elastic Compliance Matrix: (Units=1/GPa)
#
#
# Indices 1 2 3 4 5 6 
#
# 1 0.031651 -0.004214 -0.000890 0.000000 0.004449 0.000000
# 2 -0.004214 0.007471 -0.002503 0.000000 0.000997 0.000000
# 3 -0.000890 -0.002503 0.010042 0.000000 0.005341 0.000000
# 4 0.000000 0.000000 0.000000 0.020475 0.000000 0.006748
# 5 0.004449 0.000997 0.005341 0.000000 0.032871 0.000000
# 6 0.000000 0.000000 0.000000 0.006748 0.000000 0.034252
#
#
# Mechanical properties :
#
#
# Convention : Reuss Voigt Hill
#
# Bulk Modulus (GPa) = 29.45535 57.97141 43.71338
# Shear Modulus (GPa) = 30.61947 39.78448 35.20197
#
# Velocity S-wave (km/s) = 3.58403 4.08536 3.84288
# Velocity P-wave (km/s) = 5.42992 6.82447 6.16674
#
# Compressibility (1/GPa) = 0.03394969
#
# Stress axis : x y z
#
# Youngs Moduli (GPa) = 31.59420 133.84583 99.58108
#
# Poissons Ratio (x) = 0.56400 0.08866
# Poissons Ratio (y) = 0.13313 0.24929
# Poissons Ratio (z) = 0.02813 0.33506
#
# Static dielectric constant tensor:
#      x y z
#    x 2.074480 0.000000 -0.072820 
#    y 0.000000 1.902560 0.000000 
#    z -0.072820 0.000000 2.040170 
# 
# From -- ./inp_files/228131.got.cif
#   From: 2010.05.17/outbox.cif.g08.bks.cpg/sg15_115_cif.got.tgz:228131.got - 2010.06.03 18:47:42.
