data_PCOD9286356
_publ_section_title
;
Structure prediction by ZEFSAII (Michael W. Deem and Ramdas Pophale) SiO2 
 PCOD9286356
Probable space group: C 2/C
;
_chemical_formula_sum "Si O2"
_cell_formula_units_Z 48
_cell_length_a 18.332603
_cell_length_b 11.979130
_cell_length_c 14.304089
_cell_angle_alpha 90.000000
_cell_angle_beta 138.380205
_cell_angle_gamma 90.000000
_cell_volume 2086.403824
_symmetry_space_group_name_H-M "C 2/C"
_symmetry_group_IT_number 15
_symmetry_cell_setting 'monoclinic'
loop_
_space_group_symop_operation_xyz
x,y,z
-x,y,1/2-z
-x,-y,-z
x,-y,1/2+z
1/2+x,1/2+y,z
1/2-x,1/2+y,1/2-z
1/2-x,1/2-y,-z
1/2+x,1/2-y,1/2+z
loop_
_atom_site_type_symbol
_atom_site_label
_atom_site_fract_x
_atom_site_fract_y
_atom_site_fract_z
Si Si1 0.653117 0.870754 0.244428
Si Si2 0.099094 0.276412 0.010202
Si Si3 0.807647 0.332863 0.935942
Si Si4 0.259021 0.092598 0.191103
Si Si5 0.500000 0.151201 0.750000
Si Si6 0.500000 0.332660 0.250000
Si Si7 0.742283 0.573452 0.961010
O O1 0.579695 0.845254 0.084323
O O2 0.714261 0.762222 0.343224
O O3 0.572570 0.916689 0.246389
O O4 0.743577 0.959749 0.300734
O O5 0.145184 0.157741 0.090140
O O6 0.197108 0.341480 0.050656
O O7 0.008982 0.246774 0.848813
O O8 0.827679 0.361055 0.845127
O O9 0.767140 0.448044 0.947231
O O10 0.912556 0.290513 0.096430
O O11 0.286820 0.103386 0.107744
O O12 0.388385 0.403676 0.155244
#
# Coordination Sequence:
#
# PCOD9286356 Si02
#       7
#     8   8   8   8   4   4   8
#     4  11  24  45  65  98 136 173 219 272 329 393
#     4  10  23  43  67  99 132 175 216 277 327 384
#     4  11  25  45  64  97 135 172 220 273 330 388
#     4  10  21  43  67  91 132 171 215 272 323 382
#     4  12  26  42  68 100 126 186 216 268 336 388
#     4  10  22  40  70 102 122 178 222 266 338 378
#     4  11  22  44  67  97 134 172 216 279 326 388
#
# _framework density 23.006091999999999
#
# number of rings (size 3 to 8) (size 9 to 14) (size 15 to 20)
#    0.000    1.333    3.333    2.500    0.000    6.000 
#    6.000    4.167    0.000    0.000    0.000    0.000 
#    0.000    0.000    0.000    0.000    0.000    0.000 
#
# Total GULP energy -133746.277908 kJ/mol
# GULP energy per Si atom -5572.761580 kJ/mol
# Density = 2.295373 g / cm^3
# Si number density = 23.006092 Si / 1000 Ang^3
#
#
#
# Elastic Constant Matrix: (Units=GPa)
#
#
# Indices 1 2 3 4 5 6 
#
# 1 96.1833 20.7651 58.5802 0.0000 -17.4556 0.0000
# 2 20.7651 89.0911 25.7158 0.0000 3.0801 0.0000
# 3 58.5802 25.7158 184.9089 0.0000 -24.9042 0.0000
# 4 0.0000 0.0000 0.0000 20.3184 0.0000 -15.4715
# 5 -17.4556 3.0801 -24.9042 0.0000 42.7425 0.0000
# 6 0.0000 0.0000 0.0000 -15.4715 0.0000 6.7991
#
#
#
# Elastic Compliance Matrix: (Units=1/GPa)
#
#
# Indices 1 2 3 4 5 6 
#
# 1 0.013715 -0.002308 -0.003524 0.000000 0.003714 0.000000
# 2 -0.002308 0.012233 -0.001319 0.000000 -0.002593 0.000000
# 3 -0.003524 -0.001319 0.007083 0.000000 0.002783 0.000000
# 4 0.000000 0.000000 0.000000 -0.067171 0.000000 -0.152850
# 5 0.003714 -0.002593 0.002783 0.000000 0.026721 0.000000
# 6 0.000000 0.000000 0.000000 -0.152850 0.000000 -0.200735
#
#
# Mechanical properties :
#
#
# Convention : Reuss Voigt Hill
#
# Bulk Modulus (GPa) = 53.39407 64.47837 58.93622
# Shear Modulus (GPa) = -26.65117 31.64680 2.49782
#
# Velocity S-wave (km/s) = -3.40728 3.71291 1.04311
# Velocity P-wave (km/s) = 2.78920 6.81678 5.20807
#
# Compressibility (1/GPa) = 0.01872867
#
# Stress axis : x y z
#
# Youngs Moduli (GPa) = 72.91077 81.74708 141.18877
#
# Poissons Ratio (x) = 0.18867 0.49753
# Poissons Ratio (y) = 0.16828 0.18627
# Poissons Ratio (z) = 0.25693 0.10785
#
# Static dielectric constant tensor:
#      x y z
#    x 1.888810 0.000000 -0.017820 
#    y 0.000000 1.851810 0.000000 
#    z -0.017820 0.000000 1.905450 
# 
# From -- ./inp_files/167952.got.cif
#   From: 2010.05.17/outbox.cif.g08.bks.cpg/sg15_84_cif.got.tgz:167952.got - 2010.06.03 18:47:42.
