data_PCOD9286830
_publ_section_title
;
Structure prediction by ZEFSAII (Michael W. Deem and Ramdas Pophale) SiO2 
 PCOD9286830
Probable space group: C 2/C
;
_chemical_formula_sum "Si O2"
_cell_formula_units_Z 44
_cell_length_a 5.145867
_cell_length_b 28.441134
_cell_length_c 13.894951
_cell_angle_alpha 90.000000
_cell_angle_beta 121.542473
_cell_angle_gamma 90.000000
_cell_volume 1733.128735
_symmetry_space_group_name_H-M "C 2/C"
_symmetry_group_IT_number 15
_symmetry_cell_setting 'monoclinic'
loop_
_space_group_symop_operation_xyz
x,y,z
-x,y,1/2-z
-x,-y,-z
x,-y,1/2+z
1/2+x,1/2+y,z
1/2-x,1/2+y,1/2-z
1/2-x,1/2-y,-z
1/2+x,1/2-y,1/2+z
loop_
_atom_site_type_symbol
_atom_site_label
_atom_site_fract_x
_atom_site_fract_y
_atom_site_fract_z
Si Si1 0.148629 0.758401 0.174514
Si Si2 0.397068 0.364351 0.406923
Si Si3 0.000000 0.503012 0.250000
Si Si4 0.373427 0.926567 0.379371
Si Si5 0.558747 0.162251 0.373525
Si Si6 0.179962 0.434915 0.633454
O O1 0.500000 0.744058 0.250000
O O2 0.991339 0.713884 0.091106
O O3 0.000000 0.761630 0.250000
O O4 0.135818 0.811115 0.134003
O O5 0.075290 0.386191 0.369834
O O6 0.590335 0.399648 0.375090
O O7 0.609020 0.357777 0.540934
O O8 0.829268 0.466324 0.289022
O O9 0.918357 0.541152 0.150655
O O10 0.590101 0.947727 0.506816
O O11 0.500000 0.166176 0.250000
O O12 0.342802 0.121330 0.370133
O O13 0.500000 0.447077 0.750000
#
# Coordination Sequence:
#
# PCOD9286830 Si02
#       6
#     8   8   4   8   8   8
#     4  11  24  41  71 106 143 186 232 280 346 427
#     4  11  25  46  70 103 146 187 231 290 348 427
#     4  12  28  46  72 100 142 184 244 300 356 424
#     4  11  28  45  73 105 141 189 240 290 360 419
#     4  10  21  44  70 103 140 185 235 288 349 412
#     4  11  24  45  73 102 141 187 236 302 353 420
#
# _framework density 25.387609999999999
#
# number of rings (size 3 to 8) (size 9 to 14) (size 15 to 20)
#    0.000    1.091    0.909    3.818    8.909    5.091 
#    0.000    9.091    0.000    0.000    0.000    0.000 
#    0.000    0.000    0.000    0.000    0.000    0.000 
#
# Total GULP energy -122800.710962 kJ/mol
# GULP energy per Si atom -5581.850498 kJ/mol
# Density = 2.532983 g / cm^3
# Si number density = 25.387610 Si / 1000 Ang^3
#
#
#
# Elastic Constant Matrix: (Units=GPa)
#
#
# Indices 1 2 3 4 5 6 
#
# 1 113.6610 39.3374 28.6225 0.0000 -5.5682 0.0000
# 2 39.3374 207.6227 41.5204 0.0000 -9.1058 0.0000
# 3 28.6225 41.5204 92.9503 0.0000 -13.1655 0.0000
# 4 0.0000 0.0000 0.0000 22.9637 0.0000 -21.0898
# 5 -5.5682 -9.1058 -13.1655 0.0000 39.2493 0.0000
# 6 0.0000 0.0000 0.0000 -21.0898 0.0000 24.1495
#
#
#
# Elastic Compliance Matrix: (Units=1/GPa)
#
#
# Indices 1 2 3 4 5 6 
#
# 1 0.009892 -0.001384 -0.002388 0.000000 0.000281 0.000000
# 2 -0.001384 0.005490 -0.001967 0.000000 0.000418 0.000000
# 3 -0.002388 -0.001967 0.012871 0.000000 0.003522 0.000000
# 4 0.000000 0.000000 0.000000 0.219978 0.000000 0.192107
# 5 0.000281 0.000418 0.003522 0.000000 0.026796 0.000000
# 6 0.000000 0.000000 0.000000 0.192107 0.000000 0.209176
#
#
# Mechanical properties :
#
#
# Convention : Reuss Voigt Hill
#
# Bulk Modulus (GPa) = 59.61164 70.35496 64.98330
# Shear Modulus (GPa) = 9.97456 37.58942 23.78199
#
# Velocity S-wave (km/s) = 1.98430 3.85206 3.06397
# Velocity P-wave (km/s) = 5.36484 6.89615 6.17812
#
# Compressibility (1/GPa) = 0.01677525
#
# Stress axis : x y z
#
# Youngs Moduli (GPa) = 101.08833 182.13556 77.69190
#
# Poissons Ratio (x) = 0.25215 0.18552
# Poissons Ratio (y) = 0.13995 0.15283
# Poissons Ratio (z) = 0.24139 0.35828
#
# Static dielectric constant tensor:
#      x y z
#    x 2.031470 0.000000 0.032600 
#    y 0.000000 2.038110 0.000000 
#    z 0.032600 0.000000 2.088340 
# 
# From -- ./inp_files/129971.got.cif
#   From: 2010.05.17/outbox.cif.g08.bks.cpg/sg15_65_cif.got.tgz:129971.got - 2010.06.03 18:47:42.
