data_PCOD9286203
_publ_section_title
;
Structure prediction by ZEFSAII (Michael W. Deem and Ramdas Pophale) SiO2 
 PCOD9286203
Probable space group: C 2/C
;
_chemical_formula_sum "Si O2"
_cell_formula_units_Z 52
_cell_length_a 12.408840
_cell_length_b 13.881526
_cell_length_c 21.761927
_cell_angle_alpha 90.000000
_cell_angle_beta 47.248155
_cell_angle_gamma 90.000000
_cell_volume 2752.578148
_symmetry_space_group_name_H-M "C 2/C"
_symmetry_group_IT_number 15
_symmetry_cell_setting 'monoclinic'
loop_
_space_group_symop_operation_xyz
x,y,z
-x,y,1/2-z
-x,-y,-z
x,-y,1/2+z
1/2+x,1/2+y,z
1/2-x,1/2+y,1/2-z
1/2-x,1/2-y,-z
1/2+x,1/2-y,1/2+z
loop_
_atom_site_type_symbol
_atom_site_label
_atom_site_fract_x
_atom_site_fract_y
_atom_site_fract_z
Si Si1 0.188321 0.039776 0.251353
Si Si2 0.500000 0.617442 0.750000
Si Si3 0.285487 0.756445 0.666514
Si Si4 0.777044 0.666961 0.942765
Si Si5 0.456413 0.507222 0.445961
Si Si6 0.575646 0.909691 0.287711
Si Si7 0.898720 0.203467 0.914738
O O1 0.208237 0.140792 0.208253
O O2 0.082968 0.047407 0.351897
O O3 0.344700 0.002369 0.215755
O O4 0.115447 0.956041 0.237649
O O5 0.419289 0.682256 0.833481
O O6 0.268744 0.713046 0.604830
O O7 0.199764 0.673080 0.736827
O O8 0.455171 0.760531 0.620526
O O9 0.943447 0.632249 0.877846
O O10 0.750000 0.750000 0.000000
O O11 0.679882 0.577690 0.000632
O O12 0.500000 0.500000 0.500000
O O13 0.414955 0.402195 0.438049
O O14 0.500000 0.926648 0.250000
O O15 0.750000 0.250000 0.000000
#
# Coordination Sequence:
#
# PCOD9286203 Si02
#       7
#     8   4   8   8   8   8   8
#     4  11  24  41  69  94 130 178 213 275 336 388
#     4  10  24  46  66  94 136 178 220 270 340 392
#     4  11  23  44  62  95 131 169 221 271 327 399
#     4  11  24  38  65  97 123 168 219 275 328 390
#     4  11  21  44  65  91 132 171 215 271 332 391
#     4  10  21  43  63  92 127 163 222 265 319 400
#     4  11  25  44  66  97 136 178 221 270 336 404
#
# _framework density 18.891380000000002
#
# number of rings (size 3 to 8) (size 9 to 14) (size 15 to 20)
#    0.000    1.231    4.615    1.846    9.692    2.462 
#    1.385    1.538    0.000    0.000    0.000    0.000 
#    0.000    0.000    0.000    0.000    0.000    0.000 
#
# Total GULP energy -145077.872879 kJ/mol
# GULP energy per Si atom -5579.918188 kJ/mol
# Density = 1.884838 g / cm^3
# Si number density = 18.891380 Si / 1000 Ang^3
#
#
#
# Elastic Constant Matrix: (Units=GPa)
#
#
# Indices 1 2 3 4 5 6 
#
# 1 63.9920 12.2615 48.0137 0.0000 -14.5794 0.0000
# 2 12.2615 77.2950 45.2825 0.0000 -1.1241 0.0000
# 3 48.0137 45.2825 145.5949 0.0000 -0.4149 0.0000
# 4 0.0000 0.0000 0.0000 44.4243 0.0000 0.5582
# 5 -14.5794 -1.1241 -0.4149 0.0000 24.6234 0.0000
# 6 0.0000 0.0000 0.0000 0.5582 0.0000 15.9502
#
#
#
# Elastic Compliance Matrix: (Units=1/GPa)
#
#
# Indices 1 2 3 4 5 6 
#
# 1 0.025304 0.001304 -0.008708 0.000000 0.014895 0.000000
# 2 0.001304 0.015897 -0.005370 0.000000 0.001407 0.000000
# 3 -0.008708 -0.005370 0.011395 0.000000 -0.005209 0.000000
# 4 0.000000 0.000000 0.000000 0.022520 0.000000 -0.000788
# 5 0.014895 0.001407 -0.005209 0.000000 0.049408 0.000000
# 6 0.000000 0.000000 0.000000 -0.000788 0.000000 0.062723
#
#
# Mechanical properties :
#
#
# Convention : Reuss Voigt Hill
#
# Bulk Modulus (GPa) = 36.97061 55.33306 46.15183
# Shear Modulus (GPa) = 22.54159 29.08785 25.81472
#
# Velocity S-wave (km/s) = 3.45805 3.92821 3.70061
# Velocity P-wave (km/s) = 5.96295 7.06599 6.53777
#
# Compressibility (1/GPa) = 0.02704851
#
# Stress axis : x y z
#
# Youngs Moduli (GPa) = 39.51893 62.90409 87.75445
#
# Poissons Ratio (x) = -0.08202 0.76415
# Poissons Ratio (y) = -0.05153 0.47127
# Poissons Ratio (z) = 0.34413 0.33781
#
# Static dielectric constant tensor:
#      x y z
#    x 1.706220 0.000000 0.074610 
#    y 0.000000 1.582070 0.000000 
#    z 0.074610 0.000000 1.767230 
# 
# From -- ./inp_files/269191.got.cif
#   From: 2010.05.17/outbox.cif.g08.bks.cpg/sg15_135_cif.got.tgz:269191.got - 2010.06.03 18:47:42.
