data_PCOD9286668
_publ_section_title
;
Structure prediction by ZEFSAII (Michael W. Deem and Ramdas Pophale) SiO2 
 PCOD9286668
Probable space group: C 2/C
;
_chemical_formula_sum "Si O2"
_cell_formula_units_Z 64
_cell_length_a 14.836484
_cell_length_b 15.006055
_cell_length_c 16.504550
_cell_angle_alpha 90.000000
_cell_angle_beta 50.236308
_cell_angle_gamma 90.000000
_cell_volume 2824.567009
_symmetry_space_group_name_H-M "C 2/C"
_symmetry_group_IT_number 15
_symmetry_cell_setting 'monoclinic'
loop_
_space_group_symop_operation_xyz
x,y,z
-x,y,1/2-z
-x,-y,-z
x,-y,1/2+z
1/2+x,1/2+y,z
1/2-x,1/2+y,1/2-z
1/2-x,1/2-y,-z
1/2+x,1/2-y,1/2+z
loop_
_atom_site_type_symbol
_atom_site_label
_atom_site_fract_x
_atom_site_fract_y
_atom_site_fract_z
Si Si1 0.499455 0.078143 0.152882
Si Si2 0.351266 0.484344 0.008745
Si Si3 0.229016 0.313539 0.126761
Si Si4 0.095054 0.881410 0.898585
Si Si5 0.868545 0.140963 0.304764
Si Si6 0.877761 0.595190 0.655998
Si Si7 0.257368 0.967786 0.074906
Si Si8 0.530095 0.218781 0.460639
O O1 0.500000 0.080197 0.250000
O O2 0.468133 0.171571 0.127541
O O3 0.415442 0.001915 0.164931
O O4 0.626694 0.050204 0.044383
O O5 0.261835 0.401177 0.057546
O O6 0.325878 0.547603 0.099600
O O7 0.476382 0.437215 0.947754
O O8 0.345402 0.544361 0.931830
O O9 0.150623 0.233752 0.136624
O O10 0.164069 0.350461 0.242984
O O11 0.347701 0.263170 0.084768
O O12 0.138883 0.846383 0.787578
O O13 0.062778 0.799154 0.974925
O O14 0.771407 0.067872 0.380327
O O15 0.000000 0.109487 0.250000
O O16 0.776413 0.587258 0.645958
O O17 0.986473 0.643376 0.548918
#
# Coordination Sequence:
#
# PCOD9286668 Si02
#       8
#     8   8   8   8   8   8   8   8
#     4  11  24  44  68  97 134 177 225 274 329 398
#     4  10  22  40  64  93 125 175 218 265 333 394
#     4  11  23  39  65  95 129 178 213 269 343 390
#     4  10  21  44  65  88 137 169 219 278 325 384
#     4  12  23  39  63 103 135 170 219 279 331 401
#     4  11  22  43  65  98 130 172 222 273 332 397
#     4  11  23  41  67  98 129 176 219 271 335 399
#     4  10  22  45  66  97 131 173 220 279 330 389
#
# _framework density 22.658339999999999
#
# number of rings (size 3 to 8) (size 9 to 14) (size 15 to 20)
#    0.000    1.250    2.500    4.500    0.000    3.000 
#    4.500    1.250    0.000    0.000    0.000    0.000 
#    0.000    0.000    0.000    0.000    0.000    0.000 
#
# Total GULP energy -178777.386091 kJ/mol
# GULP energy per Si atom -5586.793315 kJ/mol
# Density = 2.260677 g / cm^3
# Si number density = 22.658340 Si / 1000 Ang^3
#
#
#
# Elastic Constant Matrix: (Units=GPa)
#
#
# Indices 1 2 3 4 5 6 
#
# 1 39.2612 18.5391 1.4166 0.0000 9.3516 0.0000
# 2 18.5391 68.6491 12.2544 0.0000 -0.3576 0.0000
# 3 1.4166 12.2544 52.2226 0.0000 7.3105 0.0000
# 4 0.0000 0.0000 0.0000 40.0579 0.0000 0.9922
# 5 9.3516 -0.3576 7.3105 0.0000 26.8418 0.0000
# 6 0.0000 0.0000 0.0000 0.9922 0.0000 28.1506
#
#
#
# Elastic Compliance Matrix: (Units=1/GPa)
#
#
# Indices 1 2 3 4 5 6 
#
# 1 0.032777 -0.009463 0.003065 0.000000 -0.012380 0.000000
# 2 -0.009463 0.017974 -0.004633 0.000000 0.004798 0.000000
# 3 0.003065 -0.004633 0.021116 0.000000 -0.006880 0.000000
# 4 0.000000 0.000000 0.000000 0.024986 0.000000 -0.000881
# 5 -0.012380 0.004798 -0.006880 0.000000 0.043506 0.000000
# 6 0.000000 0.000000 0.000000 -0.000881 0.000000 0.035554
#
#
# Mechanical properties :
#
#
# Convention : Reuss Voigt Hill
#
# Bulk Modulus (GPa) = 20.07846 24.95037 22.51441
# Shear Modulus (GPa) = 23.30149 27.53824 25.41987
#
# Velocity S-wave (km/s) = 3.21032 3.49000 3.35308
# Velocity P-wave (km/s) = 4.75628 5.22260 4.99489
#
# Compressibility (1/GPa) = 0.04980462
#
# Stress axis : x y z
#
# Youngs Moduli (GPa) = 30.50901 55.63464 47.35752
#
# Poissons Ratio (x) = 0.52648 -0.14513
# Poissons Ratio (y) = 0.28871 0.21940
# Poissons Ratio (z) = -0.09350 0.25775
#
# Static dielectric constant tensor:
#      x y z
#    x 1.860880 0.000000 -0.005960 
#    y 0.000000 1.841190 0.000000 
#    z -0.005960 0.000000 1.865170 
# 
# From -- ./inp_files/205700.got.cif
#   From: 2010.05.17/outbox.cif.g08.bks.cpg/sg15_103_cif.got.tgz:205700.got - 2010.06.03 18:47:42.
