data_PCOD9286884
_publ_section_title
;
Structure prediction by ZEFSAII (Michael W. Deem and Ramdas Pophale) SiO2 
 PCOD9286884
Probable space group: C 2/C
;
_chemical_formula_sum "Si O2"
_cell_formula_units_Z 40
_cell_length_a 11.235154
_cell_length_b 27.180514
_cell_length_c 8.842132
_cell_angle_alpha 90.000000
_cell_angle_beta 45.684317
_cell_angle_gamma 90.000000
_cell_volume 1931.987267
_symmetry_space_group_name_H-M "C 2/C"
_symmetry_group_IT_number 15
_symmetry_cell_setting 'monoclinic'
loop_
_space_group_symop_operation_xyz
x,y,z
-x,y,1/2-z
-x,-y,-z
x,-y,1/2+z
1/2+x,1/2+y,z
1/2-x,1/2+y,1/2-z
1/2-x,1/2-y,-z
1/2+x,1/2-y,1/2+z
loop_
_atom_site_type_symbol
_atom_site_label
_atom_site_fract_x
_atom_site_fract_y
_atom_site_fract_z
Si Si1 0.636105 0.390970 0.741475
Si Si2 0.603947 0.341183 0.299009
Si Si3 0.174341 0.480653 0.782321
Si Si4 0.313474 0.444966 0.357435
Si Si5 0.302832 0.803840 0.399074
O O1 0.500000 0.414362 0.750000
O O2 0.763615 0.431824 0.685915
O O3 0.720384 0.346955 0.572625
O O4 0.535326 0.366432 0.969346
O O5 0.500000 0.318669 0.250000
O O6 0.712192 0.387030 0.141220
O O7 0.725247 0.310029 0.299148
O O8 0.193488 0.467771 0.590159
O O9 0.294801 0.525647 0.719171
O O10 0.000000 0.500000 0.000000
O O11 0.500000 0.450799 0.250000
O O12 0.500000 0.808369 0.250000
O O13 0.250000 0.750000 0.500000
#
# Coordination Sequence:
#
# PCOD9286884 Si02
#       5
#     8   8   8   8   8
#     4  10  22  42  68  93 135 181 233 284 353 415
#     4  10  21  44  72  98 136 179 237 285 342 408
#     4  12  25  38  60  96 140 179 237 285 343 403
#     4  11  23  40  62  89 131 185 233 274 338 408
#     4  11  25  46  75 104 137 176 227 286 361 430
#
# _framework density 20.704070000000002
#
# number of rings (size 3 to 8) (size 9 to 14) (size 15 to 20)
#    0.000    1.200    4.000    3.600    8.400    0.000 
#    0.000    5.000    0.000    0.000    0.000    0.000 
#    0.000    0.000    0.000    0.000    0.000    0.000 
#
# Total GULP energy -111715.230638 kJ/mol
# GULP energy per Si atom -5585.761532 kJ/mol
# Density = 2.065695 g / cm^3
# Si number density = 20.704070 Si / 1000 Ang^3
#
#
#
# Elastic Constant Matrix: (Units=GPa)
#
#
# Indices 1 2 3 4 5 6 
#
# 1 167.1916 61.8214 54.3119 0.0000 11.3313 0.0000
# 2 61.8214 85.0822 21.9026 0.0000 -0.9002 0.0000
# 3 54.3119 21.9026 97.5735 0.0000 0.1528 0.0000
# 4 0.0000 0.0000 0.0000 31.6369 0.0000 5.6591
# 5 11.3313 -0.9002 0.1528 0.0000 33.2138 0.0000
# 6 0.0000 0.0000 0.0000 5.6591 0.0000 43.1095
#
#
#
# Elastic Compliance Matrix: (Units=1/GPa)
#
#
# Indices 1 2 3 4 5 6 
#
# 1 0.009802 -0.006109 -0.004079 0.000000 -0.003491 0.000000
# 2 -0.006109 0.016286 -0.000259 0.000000 0.002527 0.000000
# 3 -0.004079 -0.000259 0.012575 0.000000 0.001327 0.000000
# 4 0.000000 0.000000 0.000000 0.032369 0.000000 -0.004249
# 5 -0.003491 0.002527 0.001327 0.000000 0.031361 0.000000
# 6 0.000000 0.000000 0.000000 -0.004249 0.000000 0.023755
#
#
# Mechanical properties :
#
#
# Convention : Reuss Voigt Hill
#
# Bulk Modulus (GPa) = 56.28068 69.54655 62.91361
# Shear Modulus (GPa) = 32.68737 35.71280 34.20009
#
# Velocity S-wave (km/s) = 3.97771 4.15772 4.06871
# Velocity P-wave (km/s) = 6.95260 7.53077 7.24745
#
# Compressibility (1/GPa) = 0.01776809
#
# Stress axis : x y z
#
# Youngs Moduli (GPa) = 102.02353 61.40418 79.52059
#
# Poissons Ratio (x) = 0.37511 0.32437
# Poissons Ratio (y) = 0.62324 0.02062
# Poissons Ratio (z) = 0.41617 0.01592
#
# Static dielectric constant tensor:
#      x y z
#    x 1.801230 0.000000 0.006940 
#    y 0.000000 1.724920 0.000000 
#    z 0.006940 0.000000 1.743480 
# 
# From -- ./inp_files/34987.got.cif
#   From: 2010.05.17/outbox.cif.g08.bks.cpg/sg15_18_cif.got.tgz:34987.got - 2010.06.03 18:47:42.
