data_PCOD9286328
_publ_section_title
;
Structure prediction by ZEFSAII (Michael W. Deem and Ramdas Pophale) SiO2 
 PCOD9286328
Probable space group: C 2/C
;
_chemical_formula_sum "Si O2"
_cell_formula_units_Z 36
_cell_length_a 13.442398
_cell_length_b 15.072477
_cell_length_c 12.511163
_cell_angle_alpha 90.000000
_cell_angle_beta 36.333403
_cell_angle_gamma 90.000000
_cell_volume 1501.878855
_symmetry_space_group_name_H-M "C 2/C"
_symmetry_group_IT_number 15
_symmetry_cell_setting 'monoclinic'
loop_
_space_group_symop_operation_xyz
x,y,z
-x,y,1/2-z
-x,-y,-z
x,-y,1/2+z
1/2+x,1/2+y,z
1/2-x,1/2+y,1/2-z
1/2-x,1/2-y,-z
1/2+x,1/2-y,1/2+z
loop_
_atom_site_type_symbol
_atom_site_label
_atom_site_fract_x
_atom_site_fract_y
_atom_site_fract_z
Si Si1 0.056739 0.320598 0.025317
Si Si2 0.995441 0.064618 0.634313
Si Si3 0.000000 0.547407 0.750000
Si Si4 0.886584 0.567521 0.528742
Si Si5 0.570530 0.369919 0.850398
O O1 0.249145 0.352511 0.859602
O O2 0.978592 0.340411 0.975542
O O3 0.952529 0.381605 0.199143
O O4 0.037123 0.218342 0.069293
O O5 0.000000 0.100714 0.750000
O O6 0.101681 0.110256 0.449683
O O7 0.020612 0.958310 0.612342
O O8 0.801383 0.073885 0.767621
O O9 0.117804 0.477092 0.584723
O O10 0.000000 0.500000 0.500000
#
# Coordination Sequence:
#
# PCOD9286328 Si02
#       5
#     8   8   4   8   8
#     4  11  24  43  68 100 135 178 222 284 329 398
#     4  11  25  44  70  99 133 181 223 274 340 402
#     4  10  22  38  72  98 128 178 222 264 346 390
#     4  10  21  43  66  97 132 175 218 271 334 394
#     4  11  25  44  66 100 141 169 226 284 329 396
#
# _framework density 23.969974000000001
#
# number of rings (size 3 to 8) (size 9 to 14) (size 15 to 20)
#    0.000    1.333    4.444    1.333    4.667    4.444 
#    2.000    2.222    0.000    0.000    0.000    0.000 
#    0.000    0.000    0.000    0.000    0.000    0.000 
#
# Total GULP energy -100425.627675 kJ/mol
# GULP energy per Si atom -5579.201538 kJ/mol
# Density = 2.391542 g / cm^3
# Si number density = 23.969974 Si / 1000 Ang^3
#
#
#
# Elastic Constant Matrix: (Units=GPa)
#
#
# Indices 1 2 3 4 5 6 
#
# 1 62.0875 1.0772 26.6662 -0.0003 10.6435 0.0003
# 2 1.0772 59.0666 10.3069 -0.0001 -1.4392 0.0001
# 3 26.6662 10.3069 89.8271 0.0001 4.2925 0.0001
# 4 -0.0003 -0.0001 0.0001 33.0594 0.0000 -6.7714
# 5 10.6435 -1.4392 4.2925 0.0000 41.4027 -0.0001
# 6 0.0003 0.0001 0.0001 -6.7714 -0.0001 10.9169
#
#
#
# Elastic Compliance Matrix: (Units=1/GPa)
#
#
# Indices 1 2 3 4 5 6 
#
# 1 0.019231 0.000514 -0.005560 0.000000 -0.004349 0.000000
# 2 0.000514 0.017317 -0.002173 0.000000 0.000695 0.000000
# 3 -0.005560 -0.002173 0.013032 0.000000 0.000003 0.000000
# 4 0.000000 0.000000 0.000000 0.034651 0.000000 0.021493
# 5 -0.004349 0.000695 0.000003 0.000000 0.025295 0.000000
# 6 0.000000 0.000000 0.000000 0.021493 0.000000 0.104932
#
#
# Mechanical properties :
#
#
# Convention : Reuss Voigt Hill
#
# Bulk Modulus (GPa) = 28.45619 31.89795 30.17707
# Shear Modulus (GPa) = 20.78049 28.60454 24.69252
#
# Velocity S-wave (km/s) = 2.94758 3.45824 3.21307
# Velocity P-wave (km/s) = 4.84579 5.41130 5.13633
#
# Compressibility (1/GPa) = 0.03514173
#
# Stress axis : x y z
#
# Youngs Moduli (GPa) = 51.99933 57.74766 76.73293
#
# Poissons Ratio (x) = -0.02965 0.42664
# Poissons Ratio (y) = -0.02670 0.16671
# Poissons Ratio (z) = 0.28912 0.12546
#
# Static dielectric constant tensor:
#      x y z
#    x 2.004090 0.000000 0.074980 
#    y 0.000000 1.962150 0.000000 
#    z 0.074980 0.000000 1.935080 
# 
# From -- ./inp_files/96775.got.cif
#   From: 2010.05.17/outbox.cif.g08.bks.cpg/sg15_49_cif.got.tgz:96775.got - 2010.06.03 18:47:42.
