data_PCOD9286567
_publ_section_title
;
Structure prediction by ZEFSAII (Michael W. Deem and Ramdas Pophale) SiO2 
 PCOD9286567
Probable space group: C 2/C
;
_chemical_formula_sum "Si O2"
_cell_formula_units_Z 60
_cell_length_a 15.638353
_cell_length_b 14.376516
_cell_length_c 12.967381
_cell_angle_alpha 90.000000
_cell_angle_beta 60.054968
_cell_angle_gamma 90.000000
_cell_volume 2526.200715
_symmetry_space_group_name_H-M "C 2/C"
_symmetry_group_IT_number 15
_symmetry_cell_setting 'monoclinic'
loop_
_space_group_symop_operation_xyz
x,y,z
-x,y,1/2-z
-x,-y,-z
x,-y,1/2+z
1/2+x,1/2+y,z
1/2-x,1/2+y,1/2-z
1/2-x,1/2-y,-z
1/2+x,1/2-y,1/2+z
loop_
_atom_site_type_symbol
_atom_site_label
_atom_site_fract_x
_atom_site_fract_y
_atom_site_fract_z
Si Si1 0.500000 0.789353 0.250000
Si Si2 0.435937 0.642380 0.451948
Si Si3 0.314081 0.142455 0.577159
Si Si4 0.708941 0.484814 0.981280
Si Si5 0.033243 0.408181 0.920502
Si Si6 0.798720 0.719305 0.080552
Si Si7 0.166564 0.840333 0.844511
Si Si8 0.860561 0.447190 0.259934
O O1 0.442915 0.720849 0.359871
O O2 0.433669 0.859465 0.225202
O O3 0.389014 0.545558 0.442278
O O4 0.355813 0.685107 0.579299
O O5 0.548717 0.643222 0.419943
O O6 0.238939 0.091904 0.545676
O O7 0.428107 0.141353 0.467412
O O8 0.297653 0.250089 0.613545
O O9 0.307729 0.080642 0.685182
O O10 0.705252 0.433243 0.873726
O O11 0.801620 0.551943 0.903268
O O12 0.112614 0.353352 0.943024
O O13 0.085070 0.453954 0.789600
O O14 0.000000 0.500000 0.000000
O O15 0.710709 0.680524 0.205483
O O16 0.750000 0.750000 0.000000
#
# Coordination Sequence:
#
# PCOD9286567 Si02
#       8
#     4   8   8   8   8   8   8   8
#     4  12  24  46  76 112 152 192 254 328 394 458
#     4  12  27  45  75 115 153 195 258 325 392 464
#     4  11  24  46  72 108 151 198 256 316 385 465
#     4  12  28  45  77 106 154 210 251 315 397 470
#     4  10  21  43  72 107 150 184 247 321 380 456
#     4  12  26  44  78 112 147 198 250 320 391 454
#     4  12  25  52  71 107 158 201 260 318 385 475
#     4  11  23  45  71 111 145 191 254 319 386 455
#
# _framework density 23.751080999999999
#
# number of rings (size 3 to 8) (size 9 to 14) (size 15 to 20)
#    0.000    0.533    4.000    4.000    5.600    1.067 
#    0.000    1.333    0.000    0.000    0.000    0.000 
#    0.000    0.000    0.000    0.000    0.000    0.000 
#
# Total GULP energy -167418.735189 kJ/mol
# GULP energy per Si atom -5580.624506 kJ/mol
# Density = 2.369702 g / cm^3
# Si number density = 23.751081 Si / 1000 Ang^3
#
#
#
# Elastic Constant Matrix: (Units=GPa)
#
#
# Indices 1 2 3 4 5 6 
#
# 1 87.7955 49.4681 21.8836 0.0000 2.3459 0.0000
# 2 49.4681 119.9913 23.8871 0.0000 3.5382 0.0000
# 3 21.8836 23.8871 52.6120 0.0000 -0.1538 0.0000
# 4 0.0000 0.0000 0.0000 37.3889 0.0000 -15.6226
# 5 2.3459 3.5382 -0.1538 0.0000 34.5313 0.0000
# 6 0.0000 0.0000 0.0000 -15.6226 0.0000 39.6611
#
#
#
# Elastic Compliance Matrix: (Units=1/GPa)
#
#
# Indices 1 2 3 4 5 6 
#
# 1 0.015543 -0.005613 -0.003918 0.000000 -0.000498 0.000000
# 2 -0.005613 0.011221 -0.002762 0.000000 -0.000781 0.000000
# 3 -0.003918 -0.002762 0.021893 0.000000 0.000647 0.000000
# 4 0.000000 0.000000 0.000000 0.032015 0.000000 0.012611
# 5 -0.000498 -0.000781 0.000647 0.000000 0.029076 0.000000
# 6 0.000000 0.000000 0.000000 0.012611 0.000000 0.030181
#
#
# Mechanical properties :
#
#
# Convention : Reuss Voigt Hill
#
# Bulk Modulus (GPa) = 41.54530 50.09738 45.82134
# Shear Modulus (GPa) = 28.97916 33.32692 31.15304
#
# Velocity S-wave (km/s) = 3.49681 3.74996 3.62560
# Velocity P-wave (km/s) = 5.81666 6.31570 6.07131
#
# Compressibility (1/GPa) = 0.02407011
#
# Stress axis : x y z
#
# Youngs Moduli (GPa) = 64.33928 89.11956 45.67754
#
# Poissons Ratio (x) = 0.50023 0.17896
# Poissons Ratio (y) = 0.36114 0.12617
# Poissons Ratio (z) = 0.25207 0.24616
#
# Static dielectric constant tensor:
#      x y z
#    x 2.029400 0.000000 -0.114180 
#    y 0.000000 1.940270 0.000000 
#    z -0.114180 0.000000 2.205760 
# 
# From -- ./inp_files/154255.got.cif
#   From: 2010.05.17/outbox.cif.g08.bks.cpg/sg15_78_cif.got.tgz:154255.got - 2010.06.03 18:47:42.
