data_PCOD9286207
_publ_section_title
;
Structure prediction by ZEFSAII (Michael W. Deem and Ramdas Pophale) SiO2 
 PCOD9286207
Probable space group: C 2/C
;
_chemical_formula_sum "Si O2"
_cell_formula_units_Z 48
_cell_length_a 23.960380
_cell_length_b 15.899921
_cell_length_c 12.221465
_cell_angle_alpha 90.000000
_cell_angle_beta 154.392729
_cell_angle_gamma 90.000000
_cell_volume 2012.319290
_symmetry_space_group_name_H-M "C 2/C"
_symmetry_group_IT_number 15
_symmetry_cell_setting 'monoclinic'
loop_
_space_group_symop_operation_xyz
x,y,z
-x,y,1/2-z
-x,-y,-z
x,-y,1/2+z
1/2+x,1/2+y,z
1/2-x,1/2+y,1/2-z
1/2-x,1/2-y,-z
1/2+x,1/2-y,1/2+z
loop_
_atom_site_type_symbol
_atom_site_label
_atom_site_fract_x
_atom_site_fract_y
_atom_site_fract_z
Si Si1 0.000000 0.748501 0.250000
Si Si2 0.832671 0.940146 0.530790
Si Si3 0.617445 0.378337 0.316795
Si Si4 0.645617 0.854702 0.602122
Si Si5 0.500000 0.298242 0.750000
Si Si6 0.615117 0.945503 0.325101
Si Si7 0.287654 0.109365 0.908410
O O1 0.010257 0.811208 0.163580
O O2 0.124675 0.688046 0.471154
O O3 0.709843 0.934417 0.391939
O O4 0.778265 0.936639 0.311177
O O5 0.921718 0.858515 0.692392
O O6 0.910258 0.023859 0.704083
O O7 0.735436 0.358197 0.607834
O O8 0.677617 0.370307 0.303245
O O9 0.593064 0.762505 0.482478
O O10 0.670616 0.894908 0.527578
O O11 0.527442 0.909103 0.443239
O O12 0.618058 0.042472 0.365494
#
# Coordination Sequence:
#
# PCOD9286207 Si02
#       7
#     4   8   8   8   4   8   8
#     4  12  25  43  64  98 136 170 212 263 351 366
#     4  11  23  44  67  94 129 175 222 262 331 384
#     4  11  25  45  65  97 135 172 216 273 318 399
#     4  10  21  43  63  94 135 158 226 271 318 378
#     4  10  23  41  64  96 130 168 218 269 319 394
#     4   9  21  41  68  95 121 174 215 276 311 382
#     4  11  24  42  68 100 127 173 226 261 325 392
#
# _framework density 23.853075
#
# number of rings (size 3 to 8) (size 9 to 14) (size 15 to 20)
#    0.000    1.667    1.667    3.000    2.333    4.000 
#    9.000    2.500    0.000    0.000    0.000    0.000 
#    0.000    0.000    0.000    0.000    0.000    0.000 
#
# Total GULP energy -134442.898445 kJ/mol
# GULP energy per Si atom -5601.787435 kJ/mol
# Density = 2.379878 g / cm^3
# Si number density = 23.853075 Si / 1000 Ang^3
#
#
#
# Elastic Constant Matrix: (Units=GPa)
#
#
# Indices 1 2 3 4 5 6 
#
# 1 177.8723 65.2253 23.4838 0.0000 13.6056 0.0000
# 2 65.2253 172.0643 22.8523 0.0000 18.0740 0.0000
# 3 23.4838 22.8523 54.0252 0.0000 -6.0687 0.0000
# 4 0.0000 0.0000 0.0000 -81.7341 0.0000 72.2877
# 5 13.6056 18.0740 -6.0687 0.0000 26.5954 0.0000
# 6 0.0000 0.0000 0.0000 72.2877 0.0000 5.9364
#
#
#
# Elastic Compliance Matrix: (Units=1/GPa)
#
#
# Indices 1 2 3 4 5 6 
#
# 1 0.006887 -0.001999 -0.002455 0.000000 -0.002725 0.000000
# 2 -0.001999 0.007431 -0.002799 0.000000 -0.004666 0.000000
# 3 -0.002455 -0.002799 0.021671 0.000000 0.008103 0.000000
# 4 0.000000 0.000000 0.000000 -0.001040 0.000000 0.012658
# 5 -0.002725 -0.004666 0.008103 0.000000 0.044015 0.000000
# 6 0.000000 0.000000 0.000000 0.012658 0.000000 0.014312
#
#
# Mechanical properties :
#
#
# Convention : Reuss Voigt Hill
#
# Bulk Modulus (GPa) = 46.54275 69.67607 58.10941
# Shear Modulus (GPa) = 43.49973 9.65293 26.57633
#
# Velocity S-wave (km/s) = 4.27506 2.01385 3.34154
# Velocity P-wave (km/s) = 6.62743 5.88909 6.26914
#
# Compressibility (1/GPa) = 0.02148563
#
# Stress axis : x y z
#
# Youngs Moduli (GPa) = 145.19237 134.56624 46.14479
#
# Poissons Ratio (x) = 0.26894 0.11327
# Poissons Ratio (y) = 0.29018 0.12915
# Poissons Ratio (z) = 0.35639 0.37663
#
# Static dielectric constant tensor:
#      x y z
#    x 1.878830 0.000000 0.011000 
#    y 0.000000 1.954380 0.000000 
#    z 0.011000 0.000000 1.912580 
# 
# From -- ./inp_files/113011.got.cif
#   From: 2010.05.17/outbox.cif.g08.bks.cpg/sg15_57_cif.got.tgz:113011.got - 2010.06.03 18:47:42.
