data_PCOD9286234
_publ_section_title
;
Structure prediction by ZEFSAII (Michael W. Deem and Ramdas Pophale) SiO2 
 PCOD9286234
Probable space group: C 2/C
;
_chemical_formula_sum "Si O2"
_cell_formula_units_Z 64
_cell_length_a 20.733598
_cell_length_b 28.468971
_cell_length_c 14.939582
_cell_angle_alpha 90.000000
_cell_angle_beta 20.692825
_cell_angle_gamma 90.000000
_cell_volume 3116.014335
_symmetry_space_group_name_H-M "C 2/C"
_symmetry_group_IT_number 15
_symmetry_cell_setting 'monoclinic'
loop_
_space_group_symop_operation_xyz
x,y,z
-x,y,1/2-z
-x,-y,-z
x,-y,1/2+z
1/2+x,1/2+y,z
1/2-x,1/2+y,1/2-z
1/2-x,1/2-y,-z
1/2+x,1/2-y,1/2+z
loop_
_atom_site_type_symbol
_atom_site_label
_atom_site_fract_x
_atom_site_fract_y
_atom_site_fract_z
Si Si1 0.684144 0.102619 0.760040
Si Si2 0.703081 0.128009 0.176683
Si Si3 0.085441 0.121854 0.776778
Si Si4 0.970321 0.050917 0.496570
Si Si5 0.292990 0.890584 0.483922
Si Si6 0.888990 0.791862 0.803194
Si Si7 0.195795 0.773085 0.976730
Si Si8 0.692982 0.306102 0.283122
O O1 0.811881 0.060464 0.629362
O O2 0.705369 0.104018 0.625791
O O3 0.746625 0.151616 0.728642
O O4 0.472539 0.099938 0.062810
O O5 0.674137 0.184414 0.221311
O O6 0.882698 0.117301 0.000843
O O7 0.761463 0.119163 0.998418
O O8 0.111009 0.168609 0.802051
O O9 0.102756 0.080984 0.825508
O O10 0.000000 0.000000 0.500000
O O11 0.153966 0.074072 0.215228
O O12 0.500000 0.894620 0.250000
O O13 0.212798 0.838091 0.601055
O O14 0.000000 0.802743 0.750000
O O15 0.037577 0.778027 0.536899
O O16 0.750000 0.750000 0.000000
O O17 0.173164 0.732846 0.931531
O O18 0.250000 0.750000 0.000000
O O19 0.000000 0.796610 0.250000
#
# Coordination Sequence:
#
# PCOD9286234 Si02
#       8
#     8   8   8   8   8   8   8   8
#     4  11  24  43  74  98 140 183 229 292 361 425
#     4  11  22  40  63  99 136 185 231 281 352 412
#     4  10  21  43  64  94 139 177 224 292 350 414
#     4  11  25  50  76 101 134 177 231 293 365 431
#     4  12  24  49  74 104 146 185 231 299 364 431
#     4  12  25  43  64 101 139 189 243 293 352 425
#     4  12  22  36  57  93 137 188 244 286 335 401
#     4  11  23  38  62  93 140 187 242 292 342 411
#
# _framework density 20.539057
#
# number of rings (size 3 to 8) (size 9 to 14) (size 15 to 20)
#    0.000    0.750    6.250    2.250    1.750    3.500 
#    6.750    1.250    0.000    0.000    0.000    0.000 
#    0.000    0.000    0.000    0.000    0.000    0.000 
#
# Total GULP energy -178715.726112 kJ/mol
# GULP energy per Si atom -5584.866441 kJ/mol
# Density = 2.049231 g / cm^3
# Si number density = 20.539057 Si / 1000 Ang^3
#
#
#
# Elastic Constant Matrix: (Units=GPa)
#
#
# Indices 1 2 3 4 5 6 
#
# 1 89.2680 23.7983 19.3351 -0.1035 10.6592 0.0091
# 2 23.7983 89.1985 37.9184 -0.1674 1.2071 0.0930
# 3 19.3351 37.9184 108.7124 -0.1702 1.3431 0.0549
# 4 -0.1035 -0.1674 -0.1702 22.6691 0.1820 5.1088
# 5 10.6592 1.2071 1.3431 0.1820 35.0078 -0.0700
# 6 0.0091 0.0930 0.0549 5.1088 -0.0700 20.8430
#
#
#
# Elastic Compliance Matrix: (Units=1/GPa)
#
#
# Indices 1 2 3 4 5 6 
#
# 1 0.012659 -0.002806 -0.001227 0.000062 -0.003711 -0.000017
# 2 -0.002806 0.013787 -0.004317 0.000067 0.000544 -0.000063
# 3 -0.001227 -0.004317 0.010921 0.000048 0.000103 -0.000020
# 4 0.000062 0.000067 0.000048 0.046696 -0.000289 -0.011447
# 5 -0.003711 0.000544 0.000103 -0.000289 0.029674 0.000169
# 6 -0.000017 -0.000063 -0.000020 -0.011447 0.000169 0.050784
#
#
# Mechanical properties :
#
#
# Convention : Reuss Voigt Hill
#
# Bulk Modulus (GPa) = 48.38049 49.92027 49.15038
# Shear Modulus (GPa) = 26.58017 29.44579 28.01298
#
# Velocity S-wave (km/s) = 3.60130 3.79046 3.69709
# Velocity P-wave (km/s) = 6.39523 6.59656 6.49668
#
# Compressibility (1/GPa) = 0.02066949
#
# Stress axis : x y z
#
# Youngs Moduli (GPa) = 78.99450 72.53067 91.56494
#
# Poissons Ratio (x) = 0.20349 0.11235
# Poissons Ratio (y) = 0.22162 0.39524
# Poissons Ratio (z) = 0.09693 0.31308
#
# Static dielectric constant tensor:
#      x y z
#    x 1.786650 -0.000190 -0.019420 
#    y -0.000190 1.744710 0.000080 
#    z -0.019420 0.000080 1.751200 
# 
# From -- ./inp_files/170090.got.cif
#   From: 2010.05.17/outbox.cif.g08.bks.cpg/sg15_86_cif.got.tgz:170090.got - 2010.06.03 18:47:42.
