data_PCOD9286577
_publ_section_title
;
Structure prediction by ZEFSAII (Michael W. Deem and Ramdas Pophale) SiO2 
 PCOD9286577
Probable space group: C 2/C
;
_chemical_formula_sum "Si O2"
_cell_formula_units_Z 64
_cell_length_a 10.911290
_cell_length_b 9.912966
_cell_length_c 25.917318
_cell_angle_alpha 90.000000
_cell_angle_beta 87.778654
_cell_angle_gamma 90.000000
_cell_volume 2801.194709
_symmetry_space_group_name_H-M "C 2/C"
_symmetry_group_IT_number 15
_symmetry_cell_setting 'monoclinic'
loop_
_space_group_symop_operation_xyz
x,y,z
-x,y,1/2-z
-x,-y,-z
x,-y,1/2+z
1/2+x,1/2+y,z
1/2-x,1/2+y,1/2-z
1/2-x,1/2-y,-z
1/2+x,1/2-y,1/2+z
loop_
_atom_site_type_symbol
_atom_site_label
_atom_site_fract_x
_atom_site_fract_y
_atom_site_fract_z
Si Si1 0.426294 0.159508 0.836945
Si Si2 0.978557 0.951647 0.687929
Si Si3 0.260560 0.432289 0.234971
Si Si4 0.048000 0.862793 0.094366
Si Si5 0.243456 0.456303 0.961823
Si Si6 0.738718 0.351532 0.432843
Si Si7 0.378013 0.162945 0.220763
Si Si8 0.461411 0.093639 0.115477
O O1 0.488166 0.305040 0.834096
O O2 0.318827 0.140861 0.880454
O O3 0.363876 0.132880 0.783410
O O4 0.511602 0.036075 0.850555
O O5 0.834920 0.988496 0.689298
O O6 0.000000 0.958512 0.750000
O O7 0.044676 0.060262 0.649811
O O8 0.337760 0.301739 0.248379
O O9 0.224900 0.548548 0.274544
O O10 0.908822 0.868461 0.072503
O O11 0.066719 0.700240 0.097922
O O12 0.151715 0.941347 0.059678
O O13 0.277561 0.299444 0.950762
O O14 0.119185 0.461609 0.930211
O O15 0.223856 0.457862 0.023490
O O16 0.500000 0.124265 0.250000
O O17 0.392510 0.186081 0.159629
#
# Coordination Sequence:
#
# PCOD9286577 Si02
#       8
#     8   8   8   8   8   8   8   8
#     4  12  25  45  64  97 138 174 226 280 339 410
#     4  12  26  40  68  98 132 182 226 271 342 414
#     4  12  26  43  65  95 134 179 228 277 336 405
#     4  11  22  44  67  99 132 176 229 282 341 412
#     4  10  22  42  70 100 129 179 225 286 349 407
#     4  10  21  43  72  97 132 175 230 286 343 408
#     4  12  26  43  65  96 135 181 228 280 336 408
#     4  11  26  42  64  99 142 172 226 289 341 403
#
# _framework density 22.847394000000001
#
# number of rings (size 3 to 8) (size 9 to 14) (size 15 to 20)
#    0.000    0.750    5.000    2.250    5.250    1.500 
#    0.000    0.625    0.000    0.000    0.000    0.000 
#    0.000    0.000    0.000    0.000    0.000    0.000 
#
# Total GULP energy -178469.996647 kJ/mol
# GULP energy per Si atom -5577.187395 kJ/mol
# Density = 2.279539 g / cm^3
# Si number density = 22.847394 Si / 1000 Ang^3
#
#
#
# Elastic Constant Matrix: (Units=GPa)
#
#
# Indices 1 2 3 4 5 6 
#
# 1 58.0267 47.2780 8.5835 0.0000 -1.9761 0.0000
# 2 47.2780 137.1328 29.5393 0.0000 -5.0873 0.0000
# 3 8.5835 29.5393 48.4047 0.0000 12.5798 0.0000
# 4 0.0000 0.0000 0.0000 20.9581 0.0000 -8.7722
# 5 -1.9761 -5.0873 12.5798 0.0000 26.8258 0.0000
# 6 0.0000 0.0000 0.0000 -8.7722 0.0000 49.5445
#
#
#
# Elastic Compliance Matrix: (Units=1/GPa)
#
#
# Indices 1 2 3 4 5 6 
#
# 1 0.024003 -0.008507 0.001019 0.000000 -0.000323 0.000000
# 2 -0.008507 0.011928 -0.007056 0.000000 0.004944 0.000000
# 3 0.001019 -0.007056 0.028598 0.000000 -0.014674 0.000000
# 4 0.000000 0.000000 0.000000 0.051533 0.000000 0.009124
# 5 -0.000323 0.004944 -0.014674 0.000000 0.045073 0.000000
# 6 0.000000 0.000000 0.000000 0.009124 0.000000 0.021799
#
#
# Mechanical properties :
#
#
# Convention : Reuss Voigt Hill
#
# Bulk Modulus (GPa) = 28.21543 46.04064 37.12804
# Shear Modulus (GPa) = 22.33787 30.00990 26.17389
#
# Velocity S-wave (km/s) = 3.13021 3.62815 3.38834
# Velocity P-wave (km/s) = 5.04387 6.14381 5.62081
#
# Compressibility (1/GPa) = 0.03544160
#
# Stress axis : x y z
#
# Youngs Moduli (GPa) = 41.66214 83.83468 34.96758
#
# Poissons Ratio (x) = 0.71315 -0.03563
# Poissons Ratio (y) = 0.35440 0.24672
# Poissons Ratio (z) = -0.04245 0.59152
#
# Static dielectric constant tensor:
#      x y z
#    x 1.951220 0.000000 -0.013460 
#    y 0.000000 1.861640 0.000000 
#    z -0.013460 0.000000 1.917160 
# 
# From -- ./inp_files/310306.got.cif
#   From: 2010.05.17/outbox.cif.g08.bks.cpg/sg15_156_cif.got.tgz:310306.got - 2010.06.03 18:47:42.
