data_PCOD9286729
_publ_section_title
;
Structure prediction by ZEFSAII (Michael W. Deem and Ramdas Pophale) SiO2 
 PCOD9286729
Probable space group: C 2/C
;
_chemical_formula_sum "Si O2"
_cell_formula_units_Z 60
_cell_length_a 7.654009
_cell_length_b 20.892656
_cell_length_c 18.197072
_cell_angle_alpha 90.000000
_cell_angle_beta 122.888791
_cell_angle_gamma 90.000000
_cell_volume 2443.553172
_symmetry_space_group_name_H-M "C 2/C"
_symmetry_group_IT_number 15
_symmetry_cell_setting 'monoclinic'
loop_
_space_group_symop_operation_xyz
x,y,z
-x,y,1/2-z
-x,-y,-z
x,-y,1/2+z
1/2+x,1/2+y,z
1/2-x,1/2+y,1/2-z
1/2-x,1/2-y,-z
1/2+x,1/2-y,1/2+z
loop_
_atom_site_type_symbol
_atom_site_label
_atom_site_fract_x
_atom_site_fract_y
_atom_site_fract_z
Si Si1 0.500000 0.645911 0.750000
Si Si2 0.354218 0.989069 0.581476
Si Si3 0.971219 0.648351 0.158154
Si Si4 0.579134 0.219704 0.689515
Si Si5 0.426449 0.285065 0.961810
Si Si6 0.275186 0.059462 0.915355
Si Si7 0.863567 0.653720 0.447504
Si Si8 0.780328 0.120252 0.933986
O O1 0.310899 0.689680 0.737740
O O2 0.600882 0.598363 0.833014
O O3 0.581741 0.015054 0.605652
O O4 0.253823 0.048962 0.600111
O O5 0.370449 0.922642 0.627848
O O6 0.222865 0.980166 0.476290
O O7 0.819994 0.703345 0.090547
O O8 0.165183 0.646586 0.146123
O O9 0.000000 0.661211 0.250000
O O10 0.500000 0.242055 0.750000
O O11 0.555173 0.274132 0.622594
O O12 0.420529 0.161569 0.634102
O O13 0.566856 0.225483 0.018689
O O14 0.512043 0.341432 0.034135
O O15 0.434189 0.111239 0.985940
O O16 0.709763 0.626759 0.474209
#
# Coordination Sequence:
#
# PCOD9286729 Si02
#       8
#     4   8   8   8   8   8   8   8
#     4  12  20  42  72 108 128 180 240 278 360 406
#     4   9  19  42  61  87 134 175 219 281 327 406
#     4  11  25  38  62  95 133 174 226 287 338 400
#     4  11  25  42  67 106 145 170 223 305 344 404
#     4  11  23  41  64  95 132 179 226 270 353 424
#     4   9  18  36  70  93 121 172 227 278 339 397
#     4   9  18  41  65  87 124 175 217 279 335 410
#     4  10  21  44  67  89 129 184 227 268 345 420
#
# _framework density 24.554407000000001
#
# number of rings (size 3 to 8) (size 9 to 14) (size 15 to 20)
#    0.000    1.867    4.000    2.800    0.933    5.333 
#    2.400    0.000    0.000    0.000    0.000    0.000 
#    0.000    0.000    0.000    0.000    0.000    0.000 
#
# Total GULP energy -167373.561251 kJ/mol
# GULP energy per Si atom -5579.118708 kJ/mol
# Density = 2.449852 g / cm^3
# Si number density = 24.554407 Si / 1000 Ang^3
#
#
#
# Elastic Constant Matrix: (Units=GPa)
#
#
# Indices 1 2 3 4 5 6 
#
# 1 61.3734 -4.0541 32.1624 0.0000 2.6786 0.0000
# 2 -4.0541 90.3715 11.2085 0.0000 16.3787 0.0000
# 3 32.1624 11.2085 79.3287 0.0000 3.6200 0.0000
# 4 0.0000 0.0000 0.0000 35.9350 0.0000 2.6614
# 5 2.6786 16.3787 3.6200 0.0000 38.2207 0.0000
# 6 0.0000 0.0000 0.0000 2.6614 0.0000 18.0865
#
#
#
# Elastic Compliance Matrix: (Units=1/GPa)
#
#
# Indices 1 2 3 4 5 6 
#
# 1 0.021148 0.002343 -0.008830 0.000000 -0.001650 0.000000
# 2 0.002343 0.012429 -0.002466 0.000000 -0.005257 0.000000
# 3 -0.008830 -0.002466 0.016529 0.000000 0.000110 0.000000
# 4 0.000000 0.000000 0.000000 0.028135 0.000000 -0.004140
# 5 -0.001650 -0.005257 0.000110 0.000000 0.028522 0.000000
# 6 0.000000 0.000000 0.000000 -0.004140 0.000000 0.055899
#
#
# Mechanical properties :
#
#
# Convention : Reuss Voigt Hill
#
# Bulk Modulus (GPa) = 31.05603 34.41190 32.73397
# Shear Modulus (GPa) = 26.13688 31.23221 28.68455
#
# Velocity S-wave (km/s) = 3.26613 3.57032 3.42161
# Velocity P-wave (km/s) = 5.18640 5.57147 5.38238
#
# Compressibility (1/GPa) = 0.03219986
#
# Stress axis : x y z
#
# Youngs Moduli (GPa) = 47.28670 80.45607 60.49964
#
# Poissons Ratio (x) = -0.18849 0.53419
# Poissons Ratio (y) = -0.11078 0.14920
# Poissons Ratio (z) = 0.41753 0.19841
#
# Static dielectric constant tensor:
#      x y z
#    x 2.137760 0.000000 -0.032840 
#    y 0.000000 2.049040 0.000000 
#    z -0.032840 0.000000 1.955220 
# 
# From -- ./inp_files/234098.got.cif
#   From: 2010.05.17/outbox.cif.g08.bks.cpg/sg15_118_cif.got.tgz:234098.got - 2010.06.03 18:47:42.
