data_PCOD9286527
_publ_section_title
;
Structure prediction by ZEFSAII (Michael W. Deem and Ramdas Pophale) SiO2 
 PCOD9286527
Probable space group: C 2/C
;
_chemical_formula_sum "Si O2"
_cell_formula_units_Z 48
_cell_length_a 16.929624
_cell_length_b 10.779329
_cell_length_c 10.668119
_cell_angle_alpha 90.000000
_cell_angle_beta 105.475142
_cell_angle_gamma 90.000000
_cell_volume 1876.245301
_symmetry_space_group_name_H-M "C 2/C"
_symmetry_group_IT_number 15
_symmetry_cell_setting 'monoclinic'
loop_
_space_group_symop_operation_xyz
x,y,z
-x,y,1/2-z
-x,-y,-z
x,-y,1/2+z
1/2+x,1/2+y,z
1/2-x,1/2+y,1/2-z
1/2-x,1/2-y,-z
1/2+x,1/2-y,1/2+z
loop_
_atom_site_type_symbol
_atom_site_label
_atom_site_fract_x
_atom_site_fract_y
_atom_site_fract_z
Si Si1 0.823751 0.110811 0.773989
Si Si2 0.167378 0.510655 0.559934
Si Si3 0.064130 0.679118 0.692586
Si Si4 0.346508 0.746402 0.023886
Si Si5 0.252345 0.154361 0.114995
Si Si6 0.567273 0.565356 0.112576
O O1 0.746966 0.029310 0.686485
O O2 0.799141 0.252284 0.728900
O O3 0.902783 0.030013 0.764386
O O4 0.851925 0.130769 0.931151
O O5 0.104028 0.603312 0.598305
O O6 0.129159 0.375079 0.533621
O O7 0.195654 0.545399 0.430014
O O8 0.125080 0.738240 0.820753
O O9 0.022801 0.803746 0.623353
O O10 0.000000 0.603429 0.750000
O O11 0.250000 0.750000 0.000000
O O12 0.158661 0.114608 0.104741
O O13 0.250000 0.250000 0.000000
O O14 0.500000 0.500000 0.000000
#
# Coordination Sequence:
#
# PCOD9286527 Si02
#       6
#     8   8   8   8   8   8
#     4  11  22  41  74 109 143 195 254 308 383 466
#     4  11  24  44  76 101 148 197 259 310 370 464
#     4  12  27  48  69 106 152 194 255 318 392 459
#     4  12  23  42  75 105 140 192 248 307 375 462
#     4  10  21  43  71 102 142 197 252 304 373 472
#     4  12  25  46  76 116 155 193 249 339 397 444
#
# _framework density 25.583008
#
# number of rings (size 3 to 8) (size 9 to 14) (size 15 to 20)
#    0.000    0.667    5.000    4.000    2.333    4.667 
#    0.000    0.000    0.000    0.000    0.000    0.000 
#    0.000    0.000    0.000    0.000    0.000    0.000 
#
# Total GULP energy -133618.439168 kJ/mol
# GULP energy per Si atom -5567.434965 kJ/mol
# Density = 2.552478 g / cm^3
# Si number density = 25.583008 Si / 1000 Ang^3
#
#
#
# Elastic Constant Matrix: (Units=GPa)
#
#
# Indices 1 2 3 4 5 6 
#
# 1 105.4547 14.6631 11.5220 0.0000 -14.4805 0.0000
# 2 14.6631 146.7175 33.2730 0.0000 -2.2868 0.0000
# 3 11.5220 33.2730 101.5573 0.0000 1.1064 0.0000
# 4 0.0000 0.0000 0.0000 44.7806 0.0000 4.2247
# 5 -14.4805 -2.2868 1.1064 0.0000 32.3219 0.0000
# 6 0.0000 0.0000 0.0000 4.2247 0.0000 25.4121
#
#
#
# Elastic Compliance Matrix: (Units=1/GPa)
#
#
# Indices 1 2 3 4 5 6 
#
# 1 0.010325 -0.000738 -0.000980 0.000000 0.004607 0.000000
# 2 -0.000738 0.007427 -0.002353 0.000000 0.000275 0.000000
# 3 -0.000980 -0.002353 0.010739 0.000000 -0.000973 0.000000
# 4 0.000000 0.000000 0.000000 0.022687 0.000000 -0.003772
# 5 0.004607 0.000275 -0.000973 0.000000 0.033056 0.000000
# 6 0.000000 0.000000 0.000000 -0.003772 0.000000 0.039978
#
#
# Mechanical properties :
#
#
# Convention : Reuss Voigt Hill
#
# Bulk Modulus (GPa) = 49.13813 52.51619 50.82716
# Shear Modulus (GPa) = 35.93580 40.12100 38.02840
#
# Velocity S-wave (km/s) = 3.75196 3.96443 3.85966
# Velocity P-wave (km/s) = 6.16593 6.44422 6.30661
#
# Compressibility (1/GPa) = 0.02035079
#
# Stress axis : x y z
#
# Youngs Moduli (GPa) = 96.85213 134.63641 93.11643
#
# Poissons Ratio (x) = 0.09934 0.09124
# Poissons Ratio (y) = 0.07146 0.21908
# Poissons Ratio (z) = 0.09490 0.31676
#
# Static dielectric constant tensor:
#      x y z
#    x 2.055920 0.000000 -0.128860 
#    y 0.000000 3.569270 0.000000 
#    z -0.128860 0.000000 2.148870 
# 
# From -- ./inp_files/104272.got.cif
#   From: 2010.05.17/outbox.cif.g08.bks.cpg/sg15_53_cif.got.tgz:104272.got - 2010.06.03 18:47:42.
