data_PCOD9286930
_publ_section_title
;
Structure prediction by ZEFSAII (Michael W. Deem and Ramdas Pophale) SiO2 
 PCOD9286930
Probable space group: C 2/C
;
_chemical_formula_sum "Si O2"
_cell_formula_units_Z 56
_cell_length_a 14.328345
_cell_length_b 13.955268
_cell_length_c 25.009437
_cell_angle_alpha 90.000000
_cell_angle_beta 148.392257
_cell_angle_gamma 90.000000
_cell_volume 2620.916098
_symmetry_space_group_name_H-M "C 2/C"
_symmetry_group_IT_number 15
_symmetry_cell_setting 'monoclinic'
loop_
_space_group_symop_operation_xyz
x,y,z
-x,y,1/2-z
-x,-y,-z
x,-y,1/2+z
1/2+x,1/2+y,z
1/2-x,1/2+y,1/2-z
1/2-x,1/2-y,-z
1/2+x,1/2-y,1/2+z
loop_
_atom_site_type_symbol
_atom_site_label
_atom_site_fract_x
_atom_site_fract_y
_atom_site_fract_z
Si Si1 0.500000 0.645576 0.250000
Si Si2 0.799542 0.982493 0.881106
Si Si3 0.682524 0.974462 0.428363
Si Si4 0.477565 0.476523 0.159134
Si Si5 0.287281 0.734076 0.954322
Si Si6 0.685272 0.889105 0.234636
Si Si7 0.187351 0.220273 0.162301
Si Si8 0.500000 0.679006 0.750000
O O1 0.534164 0.572209 0.217848
O O2 0.339654 0.708612 0.147767
O O3 0.803314 0.894461 0.840290
O O4 0.682568 0.956095 0.876776
O O5 0.727616 0.075622 0.814849
O O6 0.000000 0.000000 0.000000
O O7 0.830032 0.003409 0.542820
O O8 0.745417 0.877315 0.430756
O O9 0.499163 0.944500 0.366919
O O10 0.653819 0.431275 0.220709
O O11 0.402995 0.395494 0.162728
O O12 0.250000 0.750000 0.000000
O O13 0.495309 0.750783 0.044744
O O14 0.681280 0.776395 0.216777
O O15 0.354381 0.260516 0.210845
#
# Coordination Sequence:
#
# PCOD9286930 Si02
#       8
#     4   8   8   8   8   8   8   4
#     4  11  24  38  69  98 134 182 223 290 363 392
#     4  12  25  44  69 100 139 177 224 295 351 403
#     4  12  24  42  65  99 135 169 234 289 342 408
#     4  10  21  45  64  95 137 180 226 281 346 420
#     4  12  23  40  65 101 135 171 233 292 340 415
#     4  11  24  42  71  96 134 184 226 283 347 422
#     4  11  24  46  67  98 144 177 233 287 344 421
#     4   9  24  42  69  94 136 184 225 272 345 424
#
# _framework density 21.366575000000001
#
# number of rings (size 3 to 8) (size 9 to 14) (size 15 to 20)
#    0.000    0.857    5.714    0.429    4.000    1.143 
#    0.000    6.429    0.000    0.000    0.000    0.000 
#    0.000    0.000    0.000    0.000    0.000    0.000 
#
# Total GULP energy -156190.942609 kJ/mol
# GULP energy per Si atom -5578.247950 kJ/mol
# Density = 2.131794 g / cm^3
# Si number density = 21.366575 Si / 1000 Ang^3
#
#
#
# Elastic Constant Matrix: (Units=GPa)
#
#
# Indices 1 2 3 4 5 6 
#
# 1 71.0413 20.1786 33.2365 0.0000 -8.1491 0.0000
# 2 20.1786 87.3550 40.7583 0.0000 -20.6238 0.0000
# 3 33.2365 40.7583 110.6514 -0.0003 -8.3098 0.0000
# 4 0.0000 0.0000 -0.0003 18.9780 0.0000 1.2823
# 5 -8.1491 -20.6238 -8.3098 0.0000 43.1343 0.0000
# 6 0.0000 0.0000 0.0000 1.2823 0.0000 31.0143
#
#
#
# Elastic Compliance Matrix: (Units=1/GPa)
#
#
# Indices 1 2 3 4 5 6 
#
# 1 0.016716 -0.001438 -0.004369 0.000000 0.001629 0.000000
# 2 -0.001438 0.015488 -0.004807 0.000000 0.006208 0.000000
# 3 -0.004369 -0.004807 0.012060 0.000000 -0.000800 0.000000
# 4 0.000000 0.000000 0.000000 0.052840 0.000000 -0.002185
# 5 0.001629 0.006208 -0.000800 0.000000 0.026305 0.000000
# 6 0.000000 0.000000 0.000000 -0.002185 0.000000 0.032334
#
#
# Mechanical properties :
#
#
# Convention : Reuss Voigt Hill
#
# Bulk Modulus (GPa) = 43.41026 50.82162 47.11594
# Shear Modulus (GPa) = 27.07837 30.28358 28.68098
#
# Velocity S-wave (km/s) = 3.56381 3.76883 3.66776
# Velocity P-wave (km/s) = 6.10699 6.54034 6.32738
#
# Compressibility (1/GPa) = 0.02303603
#
# Stress axis : x y z
#
# Youngs Moduli (GPa) = 59.82427 64.56556 82.91784
#
# Poissons Ratio (x) = 0.09287 0.36225
# Poissons Ratio (y) = 0.08605 0.39857
# Poissons Ratio (z) = 0.26136 0.31035
#
# Static dielectric constant tensor:
#      x y z
#    x 1.909640 0.000000 -0.023620 
#    y 0.000000 1.846390 0.000000 
#    z -0.023620 0.000000 1.783080 
# 
# From -- ./inp_files/296613.got.cif
#   From: 2010.05.17/outbox.cif.g08.bks.cpg/sg15_149_cif.got.tgz:296613.got - 2010.06.03 18:47:42.
