data_PCOD9286154
_publ_section_title
;
Structure prediction by ZEFSAII (Michael W. Deem and Ramdas Pophale) SiO2 
 PCOD9286154
Probable space group: C 2/C
;
_chemical_formula_sum "Si O2"
_cell_formula_units_Z 40
_cell_length_a 28.368822
_cell_length_b 8.723648
_cell_length_c 13.730053
_cell_angle_alpha 90.000000
_cell_angle_beta 151.117156
_cell_angle_gamma 90.000000
_cell_volume 1641.258404
_symmetry_space_group_name_H-M "C 2/C"
_symmetry_group_IT_number 15
_symmetry_cell_setting 'monoclinic'
loop_
_space_group_symop_operation_xyz
x,y,z
-x,y,1/2-z
-x,-y,-z
x,-y,1/2+z
1/2+x,1/2+y,z
1/2-x,1/2+y,1/2-z
1/2-x,1/2-y,-z
1/2+x,1/2-y,1/2+z
loop_
_atom_site_type_symbol
_atom_site_label
_atom_site_fract_x
_atom_site_fract_y
_atom_site_fract_z
Si Si1 0.689023 0.970354 0.099255
Si Si2 0.000000 0.197185 0.250000
Si Si3 0.354333 0.768920 0.137040
Si Si4 0.515988 0.672268 0.567784
Si Si5 0.340484 0.215398 0.313289
Si Si6 0.500000 0.764104 0.750000
O O1 0.710952 0.063836 0.238751
O O2 0.777114 0.861510 0.228043
O O3 0.664010 0.085497 0.965692
O O4 0.594111 0.866971 0.939030
O O5 0.907865 0.150926 0.156024
O O6 0.061585 0.284171 0.443683
O O7 0.429272 0.772873 0.363382
O O8 0.250000 0.750000 0.000000
O O9 0.500000 0.500000 0.500000
O O10 0.617234 0.752399 0.717068
O O11 0.511126 0.666191 0.673877
#
# Coordination Sequence:
#
# PCOD9286154 Si02
#       6
#     8   4   8   8   8   4
#     4  11  25  46  73 118 150 206 247 319 384 460
#     4   8  19  39  66 106 141 197 242 310 359 457
#     4  10  21  42  75 105 150 199 251 308 385 448
#     4  11  26  48  75 112 151 202 256 322 386 465
#     4  10  23  46  75 108 159 195 259 310 387 458
#     4  12  29  47  74 112 151 197 260 322 379 463
#
# _framework density 24.371544
#
# number of rings (size 3 to 8) (size 9 to 14) (size 15 to 20)
#    0.000    1.600    0.000    4.800    8.400    8.800 
#    0.000    0.000    0.000    0.000    0.000    0.000 
#    0.000    0.000    0.000    0.000    0.000    0.000 
#
# Total GULP energy -111483.772705 kJ/mol
# GULP energy per Si atom -5574.188635 kJ/mol
# Density = 2.431607 g / cm^3
# Si number density = 24.371544 Si / 1000 Ang^3
#
#
#
# Elastic Constant Matrix: (Units=GPa)
#
#
# Indices 1 2 3 4 5 6 
#
# 1 241.5083 72.0348 62.2341 0.0000 3.4970 0.0000
# 2 72.0348 111.6923 39.7267 0.0000 2.5139 0.0000
# 3 62.2341 39.7267 61.2585 0.0000 13.5890 0.0000
# 4 0.0000 0.0000 0.0000 44.4884 0.0000 6.8803
# 5 3.4970 2.5139 13.5890 0.0000 52.3231 0.0000
# 6 0.0000 0.0000 0.0000 6.8803 0.0000 28.7248
#
#
#
# Elastic Compliance Matrix: (Units=1/GPa)
#
#
# Indices 1 2 3 4 5 6 
#
# 1 0.006050 -0.002157 -0.004966 0.000000 0.000989 0.000000
# 2 -0.002157 0.012517 -0.006180 0.000000 0.001148 0.000000
# 3 -0.004966 -0.006180 0.026781 0.000000 -0.006326 0.000000
# 4 0.000000 0.000000 0.000000 0.023342 0.000000 -0.005591
# 5 0.000989 0.001148 -0.006326 0.000000 0.020634 0.000000
# 6 0.000000 0.000000 0.000000 -0.005591 0.000000 0.036152
#
#
# Mechanical properties :
#
#
# Convention : Reuss Voigt Hill
#
# Bulk Modulus (GPa) = 53.36260 84.71670 69.03965
# Shear Modulus (GPa) = 31.57959 41.13816 36.35887
#
# Velocity S-wave (km/s) = 3.60357 4.11293 3.86665
# Velocity P-wave (km/s) = 6.26556 7.57568 6.95155
#
# Compressibility (1/GPa) = 0.01873972
#
# Stress axis : x y z
#
# Youngs Moduli (GPa) = 165.30108 79.89177 37.34016
#
# Poissons Ratio (x) = 0.17237 0.18544
# Poissons Ratio (y) = 0.35664 0.23077
# Poissons Ratio (z) = 0.82091 0.49374
#
# Static dielectric constant tensor:
#      x y z
#    x 2.051680 0.000000 0.014600 
#    y 0.000000 2.001030 0.000000 
#    z 0.014600 0.000000 1.939250 
# 
# From -- ./inp_files/181303.got.cif
#   From: 2010.05.17/outbox.cif.g08.bks.cpg/sg15_91_cif.got.tgz:181303.got - 2010.06.03 18:47:42.
