data_PCOD9286476
_publ_section_title
;
Structure prediction by ZEFSAII (Michael W. Deem and Ramdas Pophale) SiO2 
 PCOD9286476
Probable space group: C 2/C
;
_chemical_formula_sum "Si O2"
_cell_formula_units_Z 36
_cell_length_a 9.183947
_cell_length_b 12.471359
_cell_length_c 17.751454
_cell_angle_alpha 90.000000
_cell_angle_beta 40.766368
_cell_angle_gamma 90.000000
_cell_volume 1327.621863
_symmetry_space_group_name_H-M "C 2/C"
_symmetry_group_IT_number 15
_symmetry_cell_setting 'monoclinic'
loop_
_space_group_symop_operation_xyz
x,y,z
-x,y,1/2-z
-x,-y,-z
x,-y,1/2+z
1/2+x,1/2+y,z
1/2-x,1/2+y,1/2-z
1/2-x,1/2-y,-z
1/2+x,1/2-y,1/2+z
loop_
_atom_site_type_symbol
_atom_site_label
_atom_site_fract_x
_atom_site_fract_y
_atom_site_fract_z
Si Si1 0.292231 0.874195 0.989244
Si Si2 0.679323 0.366455 0.745257
Si Si3 0.748594 0.493765 0.861599
Si Si4 0.500000 0.000000 0.500000
Si Si5 0.075898 0.670931 0.605459
O O1 0.571031 0.884228 0.887012
O O2 0.170964 0.928310 0.965533
O O3 0.250000 0.750000 0.000000
O O4 0.255404 0.936602 0.079918
O O5 0.500000 0.372931 0.750000
O O6 0.638093 0.246165 0.793977
O O7 0.645565 0.452533 0.824753
O O8 0.805992 0.612783 0.869047
O O9 0.000000 0.447208 0.750000
O O10 0.457527 0.921961 0.441513
O O11 0.250000 0.750000 0.500000
#
# Coordination Sequence:
#
# PCOD9286476 Si02
#       5
#     8   8   8   4   8
#     4  10  21  43  69  97 137 181 224 276 341 406
#     4  11  23  42  70 103 136 179 231 279 337 404
#     4   9  21  41  65  96 139 177 221 281 334 403
#     4  10  22  42  66  98 134 170 226 280 324 402
#     4  11  23  42  67  97 136 175 221 278 336 399
#
# _framework density 27.116156
#
# number of rings (size 3 to 8) (size 9 to 14) (size 15 to 20)
#    0.000    1.778    0.000    3.333    0.000    0.889 
#    0.000   28.889    0.000   14.667    0.000    0.000 
#    0.000    0.000    0.000    0.000    0.000    0.000 
#
# Total GULP energy -100234.490643 kJ/mol
# GULP energy per Si atom -5568.582814 kJ/mol
# Density = 2.705444 g / cm^3
# Si number density = 27.116156 Si / 1000 Ang^3
#
#
#
# Elastic Constant Matrix: (Units=GPa)
#
#
# Indices 1 2 3 4 5 6 
#
# 1 196.5266 56.8400 7.0165 0.0000 3.5457 0.0000
# 2 56.8400 178.0611 23.3885 0.0000 -1.5185 0.0000
# 3 7.0165 23.3885 62.6890 0.0001 -6.8440 0.0000
# 4 0.0000 0.0000 0.0001 48.3994 0.0000 -8.2612
# 5 3.5457 -1.5185 -6.8440 0.0000 37.8213 0.0000
# 6 0.0000 0.0000 0.0000 -8.2612 0.0000 50.3088
#
#
#
# Elastic Compliance Matrix: (Units=1/GPa)
#
#
# Indices 1 2 3 4 5 6 
#
# 1 0.005620 -0.001796 -0.000025 0.000000 -0.000603 0.000000
# 2 -0.001796 0.006480 -0.002214 0.000000 0.000028 0.000000
# 3 -0.000025 -0.002214 0.017109 0.000000 0.003009 0.000000
# 4 0.000000 0.000000 0.000000 0.021257 0.000000 0.003491
# 5 -0.000603 0.000028 0.003009 0.000000 0.027042 0.000000
# 6 0.000000 0.000000 0.000000 0.003491 0.000000 0.020450
#
#
# Mechanical properties :
#
#
# Convention : Reuss Voigt Hill
#
# Bulk Modulus (GPa) = 47.30319 67.97410 57.63864
# Shear Modulus (GPa) = 44.21880 50.64136 47.43008
#
# Velocity S-wave (km/s) = 4.04260 4.32623 4.18682
# Velocity P-wave (km/s) = 6.26679 7.07652 6.68393
#
# Compressibility (1/GPa) = 0.02114022
#
# Stress axis : x y z
#
# Youngs Moduli (GPa) = 177.95156 154.31431 58.44881
#
# Poissons Ratio (x) = 0.27710 0.00145
# Poissons Ratio (y) = 0.31955 0.12939
# Poissons Ratio (z) = 0.00443 0.34160
#
# Static dielectric constant tensor:
#      x y z
#    x 1.854200 0.000000 -0.487880 
#    y 0.000000 2.326470 0.000000 
#    z -0.487880 0.000000 1.721540 
# 
# From -- ./inp_files/231524.got.cif
#   From: 2010.05.17/outbox.cif.g08.bks.cpg/sg15_116_cif.got.tgz:231524.got - 2010.06.03 18:47:42.
