data_PCOD9286449
_publ_section_title
;
Structure prediction by ZEFSAII (Michael W. Deem and Ramdas Pophale) SiO2 
 PCOD9286449
Probable space group: C 2/C
;
_chemical_formula_sum "Si O2"
_cell_formula_units_Z 40
_cell_length_a 12.762579
_cell_length_b 15.438296
_cell_length_c 9.724095
_cell_angle_alpha 90.000000
_cell_angle_beta 111.386186
_cell_angle_gamma 90.000000
_cell_volume 1784.036508
_symmetry_space_group_name_H-M "C 2/C"
_symmetry_group_IT_number 15
_symmetry_cell_setting 'monoclinic'
loop_
_space_group_symop_operation_xyz
x,y,z
-x,y,1/2-z
-x,-y,-z
x,-y,1/2+z
1/2+x,1/2+y,z
1/2-x,1/2+y,1/2-z
1/2-x,1/2-y,-z
1/2+x,1/2-y,1/2+z
loop_
_atom_site_type_symbol
_atom_site_label
_atom_site_fract_x
_atom_site_fract_y
_atom_site_fract_z
Si Si1 0.708301 0.678875 0.086781
Si Si2 0.185404 0.766882 0.109392
Si Si3 0.481781 0.587399 0.904364
Si Si4 0.974450 0.633167 0.582536
Si Si5 0.895371 0.549755 0.093040
O O1 0.731932 0.726514 0.239636
O O2 0.787548 0.595001 0.105674
O O3 0.750000 0.750000 0.000000
O O4 0.582267 0.650309 0.000093
O O5 0.135294 0.861301 0.122226
O O6 0.250000 0.750000 0.000000
O O7 0.077916 0.704547 0.040626
O O8 0.500000 0.571876 0.750000
O O9 0.500000 0.500000 0.000000
O O10 0.888667 0.552809 0.564413
O O11 0.000000 0.663954 0.750000
O O12 0.075610 0.591908 0.541570
O O13 0.000000 0.561520 0.250000
#
# Coordination Sequence:
#
# PCOD9286449 Si02
#       5
#     8   8   8   8   8
#     4  12  26  47  80  99 152 205 253 311 388 459
#     4  12  29  48  74 109 150 204 258 308 383 472
#     4  12  31  54  78 116 160 206 264 328 401 475
#     4  10  23  39  70 105 144 178 242 311 367 439
#     4  10  21  43  69 105 140 186 245 306 369 445
#
# _framework density 22.421067000000001
#
# number of rings (size 3 to 8) (size 9 to 14) (size 15 to 20)
#    0.000    0.800    4.000    1.200   11.200    0.000 
#    0.000    0.000    0.000    0.000    0.000    0.000 
#    0.000    0.000    0.000    0.000    0.000    0.000 
#
# Total GULP energy -111842.542725 kJ/mol
# GULP energy per Si atom -5592.127136 kJ/mol
# Density = 2.237004 g / cm^3
# Si number density = 22.421067 Si / 1000 Ang^3
#
#
#
# Elastic Constant Matrix: (Units=GPa)
#
#
# Indices 1 2 3 4 5 6 
#
# 1 84.4213 43.3575 27.3287 0.0000 -9.0989 0.0000
# 2 43.3575 106.6409 38.4127 0.0000 -4.7882 0.0000
# 3 27.3287 38.4127 176.7648 0.0000 -21.8069 0.0000
# 4 0.0000 0.0000 0.0000 27.5196 0.0000 -12.9434
# 5 -9.0989 -4.7882 -21.8069 0.0000 38.5095 0.0000
# 6 0.0000 0.0000 0.0000 -12.9434 0.0000 23.4500
#
#
#
# Elastic Compliance Matrix: (Units=1/GPa)
#
#
# Indices 1 2 3 4 5 6 
#
# 1 0.015375 -0.005852 -0.000803 0.000000 0.002450 0.000000
# 2 -0.005852 0.012401 -0.001903 0.000000 -0.000919 0.000000
# 3 -0.000803 -0.001903 0.006604 0.000000 0.003313 0.000000
# 4 0.000000 0.000000 0.000000 0.049079 0.000000 0.027089
# 5 0.002450 -0.000919 0.003313 0.000000 0.028308 0.000000
# 6 0.000000 0.000000 0.000000 0.027089 0.000000 0.057596
#
#
# Mechanical properties :
#
#
# Convention : Reuss Voigt Hill
#
# Bulk Modulus (GPa) = 57.92777 65.11387 61.52082
# Shear Modulus (GPa) = 26.01004 35.14436 30.57720
#
# Velocity S-wave (km/s) = 3.40968 3.96342 3.69693
# Velocity P-wave (km/s) = 6.43379 7.07456 6.76177
#
# Compressibility (1/GPa) = 0.01726288
#
# Stress axis : x y z
#
# Youngs Moduli (GPa) = 65.04168 80.63996 151.42883
#
# Poissons Ratio (x) = 0.47188 0.12161
# Poissons Ratio (y) = 0.38060 0.28824
# Poissons Ratio (z) = 0.05223 0.15349
#
# Static dielectric constant tensor:
#      x y z
#    x 1.788750 0.000000 -0.042970 
#    y 0.000000 1.891550 0.000000 
#    z -0.042970 0.000000 1.967640 
# 
# From -- ./inp_files/38045.got.cif
#   From: 2010.05.17/outbox.cif.g08.bks.cpg/sg15_20_cif.got.tgz:38045.got - 2010.06.03 18:47:42.
