data_PCOD9286505
_publ_section_title
;
Structure prediction by ZEFSAII (Michael W. Deem and Ramdas Pophale) SiO2 
 PCOD9286505
Probable space group: C 2/C
;
_chemical_formula_sum "Si O2"
_cell_formula_units_Z 48
_cell_length_a 9.719374
_cell_length_b 16.088674
_cell_length_c 21.633602
_cell_angle_alpha 90.000000
_cell_angle_beta 132.004309
_cell_angle_gamma 90.000000
_cell_volume 2513.804091
_symmetry_space_group_name_H-M "C 2/C"
_symmetry_group_IT_number 15
_symmetry_cell_setting 'monoclinic'
loop_
_space_group_symop_operation_xyz
x,y,z
-x,y,1/2-z
-x,-y,-z
x,-y,1/2+z
1/2+x,1/2+y,z
1/2-x,1/2+y,1/2-z
1/2-x,1/2-y,-z
1/2+x,1/2-y,1/2+z
loop_
_atom_site_type_symbol
_atom_site_label
_atom_site_fract_x
_atom_site_fract_y
_atom_site_fract_z
Si Si1 0.305161 0.387009 0.831473
Si Si2 0.904413 0.602819 0.787589
Si Si3 0.037501 0.274957 0.429693
Si Si4 0.517386 0.080220 0.350918
Si Si5 0.600943 0.911880 0.016102
Si Si6 0.988897 0.958043 0.320521
O O1 0.415520 0.307786 0.887973
O O2 0.187800 0.420321 0.854433
O O3 0.436677 0.457812 0.841919
O O4 0.149864 0.369465 0.732001
O O5 0.681702 0.604920 0.718206
O O6 0.000000 0.599920 0.750000
O O7 0.994477 0.674747 0.854392
O O8 0.945370 0.514480 0.832531
O O9 0.250000 0.250000 0.500000
O O10 0.980166 0.337620 0.467042
O O11 0.572059 0.107975 0.435266
O O12 0.815839 0.923880 0.097672
O O13 0.500000 0.000000 0.000000
O O14 0.000000 0.973369 0.250000
#
# Coordination Sequence:
#
# PCOD9286505 Si02
#       6
#     8   8   8   8   8   8
#     4  10  23  42  64  97 136 169 217 280 345 385
#     4  11  22  44  69  98 130 180 229 267 337 413
#     4  12  27  42  63 100 139 170 221 296 341 383
#     4  10  21  43  70  93 132 178 223 272 329 413
#     4  12  23  40  70 100 132 176 232 274 328 415
#     4  11  21  40  71  98 128 182 227 274 333 406
#
# _framework density 19.094566
#
# number of rings (size 3 to 8) (size 9 to 14) (size 15 to 20)
#    0.000    1.000    6.667    2.000    0.000    7.333 
#    0.000    0.000    0.000    0.000    0.000    0.000 
#    0.000    0.000    0.000    0.000    0.000    0.000 
#
# Total GULP energy -134083.613610 kJ/mol
# GULP energy per Si atom -5586.817234 kJ/mol
# Density = 1.905111 g / cm^3
# Si number density = 19.094566 Si / 1000 Ang^3
#
#
#
# Elastic Constant Matrix: (Units=GPa)
#
#
# Indices 1 2 3 4 5 6 
#
# 1 142.0860 49.6544 88.6053 0.0000 10.2612 0.0000
# 2 49.6544 74.7053 56.8725 0.0000 22.1401 0.0000
# 3 88.6053 56.8725 142.7792 0.0000 10.5349 0.0000
# 4 0.0000 0.0000 0.0000 40.3116 0.0000 -1.6618
# 5 10.2612 22.1401 10.5349 0.0000 47.3186 0.0000
# 6 0.0000 0.0000 0.0000 -1.6618 0.0000 19.4829
#
#
#
# Elastic Compliance Matrix: (Units=1/GPa)
#
#
# Indices 1 2 3 4 5 6 
#
# 1 0.012034 -0.003446 -0.006122 0.000000 0.000366 0.000000
# 2 -0.003446 0.023143 -0.006442 0.000000 -0.008647 0.000000
# 3 -0.006122 -0.006442 0.013267 0.000000 0.001388 0.000000
# 4 0.000000 0.000000 0.000000 0.024894 0.000000 0.002123
# 5 0.000366 -0.008647 0.001388 0.000000 0.024791 0.000000
# 6 0.000000 0.000000 0.000000 0.002123 0.000000 0.051508
#
#
# Mechanical properties :
#
#
# Convention : Reuss Voigt Hill
#
# Bulk Modulus (GPa) = 60.88935 83.31499 72.10217
# Shear Modulus (GPa) = 26.71914 32.38519 29.55217
#
# Velocity S-wave (km/s) = 3.74479 4.12277 3.93832
# Velocity P-wave (km/s) = 7.11726 8.14804 7.65003
#
# Compressibility (1/GPa) = 0.01642323
#
# Stress axis : x y z
#
# Youngs Moduli (GPa) = 83.10035 43.20885 75.37703
#
# Poissons Ratio (x) = 0.14890 0.46147
# Poissons Ratio (y) = 0.28637 0.48558
# Poissons Ratio (z) = 0.50875 0.27835
#
# Static dielectric constant tensor:
#      x y z
#    x 1.673300 0.000000 -0.036720 
#    y 0.000000 1.668440 0.000000 
#    z -0.036720 0.000000 1.768370 
# 
# From -- ./inp_files/232878.got.cif
#   From: 2010.05.17/outbox.cif.g08.bks.cpg/sg15_117_cif.got.tgz:232878.got - 2010.06.03 18:47:42.
