data_PCOD9286092
_publ_section_title
;
Structure prediction by ZEFSAII (Michael W. Deem and Ramdas Pophale) SiO2 
 PCOD9286092
Probable space group: C 2/C
;
_chemical_formula_sum "Si O2"
_cell_formula_units_Z 56
_cell_length_a 29.551981
_cell_length_b 16.578788
_cell_length_c 8.793275
_cell_angle_alpha 90.000000
_cell_angle_beta 34.847659
_cell_angle_gamma 90.000000
_cell_volume 2461.656991
_symmetry_space_group_name_H-M "C 2/C"
_symmetry_group_IT_number 15
_symmetry_cell_setting 'monoclinic'
loop_
_space_group_symop_operation_xyz
x,y,z
-x,y,1/2-z
-x,-y,-z
x,-y,1/2+z
1/2+x,1/2+y,z
1/2-x,1/2+y,1/2-z
1/2-x,1/2-y,-z
1/2+x,1/2-y,1/2+z
loop_
_atom_site_type_symbol
_atom_site_label
_atom_site_fract_x
_atom_site_fract_y
_atom_site_fract_z
Si Si1 0.482752 0.247448 0.578316
Si Si2 0.500000 0.972280 0.750000
Si Si3 0.500000 0.603770 0.250000
Si Si4 0.822084 0.230279 0.416653
Si Si5 0.076954 0.857099 0.101516
Si Si6 0.079871 0.598255 0.325646
Si Si7 0.848078 0.958438 0.343769
Si Si8 0.235095 0.902130 0.225918
O O1 0.468254 0.330624 0.713598
O O2 0.396417 0.213580 0.764835
O O3 0.538331 0.279485 0.288483
O O4 0.540530 0.181326 0.492380
O O5 0.564789 0.030815 0.494746
O O6 0.466834 0.921896 0.701018
O O7 0.431730 0.550957 0.519166
O O8 0.750000 0.250000 0.500000
O O9 0.788343 0.187832 0.658767
O O10 0.871018 0.166353 0.183344
O O11 0.131681 0.901609 0.070030
O O12 0.000000 0.902155 0.250000
O O13 0.170703 0.596948 0.028657
O O14 0.789326 0.925342 0.377609
O O15 0.809143 0.036158 0.534606
#
# Coordination Sequence:
#
# PCOD9286092 Si02
#       8
#     8   4   4   8   8   8   8   8
#     4  10  21  42  71  95 135 181 235 282 349 417
#     4  10  25  44  68 101 126 186 240 278 348 415
#     4  10  21  46  68 105 138 182 230 282 350 429
#     4  11  23  42  65 102 135 179 236 291 350 413
#     4   9  21  42  66  97 134 180 234 280 350 424
#     4  11  24  45  71  97 137 180 235 292 344 417
#     4  11  24  45  68 101 146 185 228 288 352 437
#     4  12  25  44  67 103 143 184 227 292 360 410
#
# _framework density 22.748905000000001
#
# number of rings (size 3 to 8) (size 9 to 14) (size 15 to 20)
#    0.000    1.429    1.429    3.000    5.000    0.571 
#   12.857    2.143    0.000    0.000    0.000    0.000 
#    0.000    0.000    0.000    0.000    0.000    0.000 
#
# Total GULP energy -156090.562779 kJ/mol
# GULP energy per Si atom -5574.662956 kJ/mol
# Density = 2.269713 g / cm^3
# Si number density = 22.748905 Si / 1000 Ang^3
#
#
#
# Elastic Constant Matrix: (Units=GPa)
#
#
# Indices 1 2 3 4 5 6 
#
# 1 92.7811 21.4060 17.7412 0.0000 -6.6281 0.0000
# 2 21.4060 57.9172 31.4501 0.0000 -12.1227 0.0000
# 3 17.7412 31.4501 119.5496 0.0000 -16.1493 0.0000
# 4 0.0000 0.0000 0.0000 21.5943 0.0000 -4.8914
# 5 -6.6281 -12.1227 -16.1493 0.0000 50.3220 0.0000
# 6 0.0000 0.0000 0.0000 -4.8914 0.0000 8.4047
#
#
#
# Elastic Compliance Matrix: (Units=1/GPa)
#
#
# Indices 1 2 3 4 5 6 
#
# 1 0.011841 -0.003929 -0.000670 0.000000 0.000398 0.000000
# 2 -0.003929 0.021984 -0.004761 0.000000 0.003251 0.000000
# 3 -0.000670 -0.004761 0.009983 0.000000 0.001968 0.000000
# 4 0.000000 0.000000 0.000000 0.053340 0.000000 0.031043
# 5 0.000398 0.003251 0.001968 0.000000 0.021339 0.000000
# 6 0.000000 0.000000 0.000000 0.031043 0.000000 0.137047
#
#
# Mechanical properties :
#
#
# Convention : Reuss Voigt Hill
#
# Bulk Modulus (GPa) = 39.86111 45.71583 42.78847
# Shear Modulus (GPa) = 17.69178 29.37425 23.53302
#
# Velocity S-wave (km/s) = 2.79175 3.59728 3.21980
# Velocity P-wave (km/s) = 5.28697 6.11501 5.71600
#
# Compressibility (1/GPa) = 0.02508711
#
# Stress axis : x y z
#
# Youngs Moduli (GPa) = 84.45138 45.48745 100.17491
#
# Poissons Ratio (x) = 0.17874 0.06709
# Poissons Ratio (y) = 0.33185 0.47695
# Poissons Ratio (z) = 0.05656 0.21657
#
# Static dielectric constant tensor:
#      x y z
#    x 1.949410 0.000000 -0.067390 
#    y 0.000000 1.921570 0.000000 
#    z -0.067390 0.000000 1.859370 
# 
# From -- ./inp_files/67161.got.cif
#   From: 2010.05.17/outbox.cif.g08.bks.cpg/sg15_34_cif.got.tgz:67161.got - 2010.06.03 18:47:42.
