data_PCOD9286054
_publ_section_title
;
Structure prediction by ZEFSAII (Michael W. Deem and Ramdas Pophale) SiO2 
 PCOD9286054
Probable space group: C 2/C
;
_chemical_formula_sum "Si O2"
_cell_formula_units_Z 60
_cell_length_a 22.156172
_cell_length_b 14.134024
_cell_length_c 8.706072
_cell_angle_alpha 90.000000
_cell_angle_beta 74.834440
_cell_angle_gamma 90.000000
_cell_volume 2631.409178
_symmetry_space_group_name_H-M "C 2/C"
_symmetry_group_IT_number 15
_symmetry_cell_setting 'monoclinic'
loop_
_space_group_symop_operation_xyz
x,y,z
-x,y,1/2-z
-x,-y,-z
x,-y,1/2+z
1/2+x,1/2+y,z
1/2-x,1/2+y,1/2-z
1/2-x,1/2-y,-z
1/2+x,1/2-y,1/2+z
loop_
_atom_site_type_symbol
_atom_site_label
_atom_site_fract_x
_atom_site_fract_y
_atom_site_fract_z
Si Si1 0.885579 0.614214 0.838205
Si Si2 0.561627 0.941537 0.517061
Si Si3 0.570433 0.273394 0.489588
Si Si4 0.073639 0.021682 0.965984
Si Si5 0.799230 0.235066 0.709427
Si Si6 0.000000 0.717237 0.250000
Si Si7 0.755255 0.880476 0.951400
Si Si8 0.335683 0.431497 0.376685
O O1 0.901076 0.598664 0.651637
O O2 0.900807 0.519063 0.916761
O O3 0.930166 0.696716 0.875464
O O4 0.812970 0.627284 0.924865
O O5 0.547863 0.856812 0.642169
O O6 0.500000 0.000000 0.500000
O O7 0.575088 0.378179 0.556822
O O8 0.629343 0.232891 0.351677
O O9 0.519737 0.276048 0.387063
O O10 0.111308 0.051277 0.788349
O O11 0.119331 0.941625 0.005745
O O12 0.000000 0.000000 0.000000
O O13 0.794612 0.171772 0.556904
O O14 0.752268 0.321158 0.703016
O O15 0.799036 0.164672 0.854732
O O16 0.785263 0.983195 0.909630
#
# Coordination Sequence:
#
# PCOD9286054 Si02
#       8
#     8   8   8   8   8   4   8   8
#     4  11  23  39  68  95 133 172 226 259 336 397
#     4  12  22  42  62  96 138 176 207 277 322 400
#     4  10  22  42  63  93 126 180 217 279 327 397
#     4  11  25  44  68  96 137 173 230 282 345 401
#     4   9  21  42  68  90 136 172 219 273 336 398
#     4  12  24  40  68  88 136 174 222 262 334 394
#     4  10  21  42  70  97 129 181 221 274 334 398
#     4  11  21  44  70  97 131 183 217 285 344 398
#
# _framework density 22.801470999999999
#
# number of rings (size 3 to 8) (size 9 to 14) (size 15 to 20)
#    0.000    1.333    5.333    0.400    5.600    0.000 
#    4.800    0.667    0.000    0.000    0.000    0.000 
#    0.000    0.000    0.000    0.000    0.000    0.000 
#
# Total GULP energy -167178.596082 kJ/mol
# GULP energy per Si atom -5572.619869 kJ/mol
# Density = 2.274957 g / cm^3
# Si number density = 22.801471 Si / 1000 Ang^3
#
#
#
# Elastic Constant Matrix: (Units=GPa)
#
#
# Indices 1 2 3 4 5 6 
#
# 1 101.0622 25.1017 10.4284 0.0000 1.7082 0.0000
# 2 25.1017 57.4849 22.7550 0.0000 -4.9256 0.0000
# 3 10.4284 22.7550 71.7718 0.0000 -6.1712 0.0000
# 4 0.0000 0.0000 0.0000 30.4751 0.0000 -3.3081
# 5 1.7082 -4.9256 -6.1712 0.0000 26.6833 0.0000
# 6 0.0000 0.0000 0.0000 -3.3081 0.0000 37.8964
#
#
#
# Elastic Compliance Matrix: (Units=1/GPa)
#
#
# Indices 1 2 3 4 5 6 
#
# 1 0.011171 -0.004942 -0.000200 0.000000 -0.001674 0.000000
# 2 -0.004942 0.022213 -0.006065 0.000000 0.003014 0.000000
# 3 -0.000200 -0.006065 0.016110 0.000000 0.002619 0.000000
# 4 0.000000 0.000000 0.000000 0.033128 0.000000 0.002892
# 5 -0.001674 0.003014 0.002619 0.000000 0.038746 0.000000
# 6 0.000000 0.000000 0.000000 0.002892 0.000000 0.026640
#
#
# Mechanical properties :
#
#
# Convention : Reuss Voigt Hill
#
# Bulk Modulus (GPa) = 36.92869 38.54326 37.73598
# Shear Modulus (GPa) = 27.86281 30.47988 29.17135
#
# Velocity S-wave (km/s) = 3.49947 3.66013 3.58070
# Velocity P-wave (km/s) = 5.70607 5.89937 5.80353
#
# Compressibility (1/GPa) = 0.02707922
#
# Stress axis : x y z
#
# Youngs Moduli (GPa) = 89.51416 45.01826 62.07195
#
# Poissons Ratio (x) = 0.22250 0.01242
# Poissons Ratio (y) = 0.44241 0.37649
# Poissons Ratio (z) = 0.01792 0.27305
#
# Static dielectric constant tensor:
#      x y z
#    x 2.093940 0.000000 0.087930 
#    y 0.000000 1.896920 0.000000 
#    z 0.087930 0.000000 1.854530 
# 
# From -- ./inp_files/61897.got.cif
#   From: 2010.05.17/outbox.cif.g08.bks.cpg/sg15_31_cif.got.tgz:61897.got - 2010.06.03 18:47:42.
