data_PCOD9286158
_publ_section_title
;
Structure prediction by ZEFSAII (Michael W. Deem and Ramdas Pophale) SiO2 
 PCOD9286158
Probable space group: C 2/C
;
_chemical_formula_sum "Si O2"
_cell_formula_units_Z 28
_cell_length_a 23.596847
_cell_length_b 8.556307
_cell_length_c 8.595628
_cell_angle_alpha 90.000000
_cell_angle_beta 32.622947
_cell_angle_gamma 90.000000
_cell_volume 935.607814
_symmetry_space_group_name_H-M "C 2/C"
_symmetry_group_IT_number 15
_symmetry_cell_setting 'monoclinic'
loop_
_space_group_symop_operation_xyz
x,y,z
-x,y,1/2-z
-x,-y,-z
x,-y,1/2+z
1/2+x,1/2+y,z
1/2-x,1/2+y,1/2-z
1/2-x,1/2-y,-z
1/2+x,1/2-y,1/2+z
loop_
_atom_site_type_symbol
_atom_site_label
_atom_site_fract_x
_atom_site_fract_y
_atom_site_fract_z
Si Si1 0.000000 0.452912 0.250000
Si Si2 0.000000 0.983192 0.250000
Si Si3 0.410714 0.717592 0.675381
Si Si4 0.776932 0.447105 0.161593
Si Si5 0.750000 0.750000 0.000000
O O1 0.108768 0.542812 0.009772
O O2 0.991965 0.346319 0.422033
O O3 0.957809 0.873161 0.212440
O O4 0.911597 0.095467 0.530436
O O5 0.311126 0.815873 0.959246
O O6 0.756900 0.610860 0.121824
O O7 0.710773 0.381247 0.459854
#
# Coordination Sequence:
#
# PCOD9286158 Si02
#       5
#     4   4   8   8   4
#     4  11  23  48  88 114 148 216 296 337 391 492
#     4   9  21  38  70 132 162 188 262 369 407 462
#     4  10  21  42  76 120 159 201 272 346 408 484
#     4  12  27  55  82 122 163 231 276 350 412 518
#     4  12  32  54  84 116 180 220 278 338 450 486
#
# _framework density 29.927070000000001
#
# number of rings (size 3 to 8) (size 9 to 14) (size 15 to 20)
#    0.000    1.143    2.857    1.714    4.000    3.429 
#   10.286    0.000    0.000    0.000    0.000    0.000 
#    0.000    0.000    0.000    0.000    0.000    0.000 
#
# Total GULP energy -78033.265841 kJ/mol
# GULP energy per Si atom -5573.804703 kJ/mol
# Density = 2.985895 g / cm^3
# Si number density = 29.927070 Si / 1000 Ang^3
#
#
#
# Elastic Constant Matrix: (Units=GPa)
#
#
# Indices 1 2 3 4 5 6 
#
# 1 131.4056 69.3513 14.2151 0.0000 52.2736 0.0000
# 2 69.3513 167.3732 40.4861 0.0000 34.9136 0.0000
# 3 14.2151 40.4861 123.5956 0.0000 28.3451 0.0000
# 4 0.0000 0.0000 0.0000 37.8163 0.0000 20.0666
# 5 52.2736 34.9136 28.3451 0.0000 51.4342 0.0000
# 6 0.0000 0.0000 0.0000 20.0666 0.0000 89.8793
#
#
#
# Elastic Compliance Matrix: (Units=1/GPa)
#
#
# Indices 1 2 3 4 5 6 
#
# 1 0.015008 -0.003953 0.002806 0.000000 -0.014116 0.000000
# 2 -0.003953 0.008210 -0.002150 0.000000 -0.000371 0.000000
# 3 0.002806 -0.002150 0.010064 0.000000 -0.006939 0.000000
# 4 0.000000 0.000000 0.000000 0.029997 0.000000 -0.006697
# 5 -0.014116 -0.000371 -0.006939 0.000000 0.037865 0.000000
# 6 0.000000 0.000000 0.000000 -0.006697 0.000000 0.012621
#
#
# Mechanical properties :
#
#
# Convention : Reuss Voigt Hill
#
# Bulk Modulus (GPa) = 37.46864 74.49772 55.98318
# Shear Modulus (GPa) = 38.68353 55.71409 47.19881
#
# Velocity S-wave (km/s) = 3.59917 4.31938 3.97561
# Velocity P-wave (km/s) = 5.46069 7.05855 6.31040
#
# Compressibility (1/GPa) = 0.02668899
#
# Stress axis : x y z
#
# Youngs Moduli (GPa) = 66.63054 121.80469 99.36779
#
# Poissons Ratio (x) = 0.48147 -0.27883
# Poissons Ratio (y) = 0.26338 0.21360
# Poissons Ratio (z) = -0.18697 0.26183
#
# Static dielectric constant tensor:
#      x y z
#    x 2.609380 0.000000 -0.205590 
#    y 0.000000 2.306550 0.000000 
#    z -0.205590 0.000000 2.445130 
# 
# From -- ./inp_files/45433.got.cif
#   From: 2010.05.17/outbox.cif.g08.bks.cpg/sg15_23_cif.got.tgz:45433.got - 2010.06.03 18:47:42.
