data_PCOD9286608
_publ_section_title
;
Structure prediction by ZEFSAII (Michael W. Deem and Ramdas Pophale) SiO2 
 PCOD9286608
Probable space group: C 2/C
;
_chemical_formula_sum "Si O2"
_cell_formula_units_Z 28
_cell_length_a 7.030121
_cell_length_b 15.596666
_cell_length_c 9.543546
_cell_angle_alpha 90.000000
_cell_angle_beta 85.809761
_cell_angle_gamma 90.000000
_cell_volume 1043.618799
_symmetry_space_group_name_H-M "C 2/C"
_symmetry_group_IT_number 15
_symmetry_cell_setting 'monoclinic'
loop_
_space_group_symop_operation_xyz
x,y,z
-x,y,1/2-z
-x,-y,-z
x,-y,1/2+z
1/2+x,1/2+y,z
1/2-x,1/2+y,1/2-z
1/2-x,1/2-y,-z
1/2+x,1/2-y,1/2+z
loop_
_atom_site_type_symbol
_atom_site_label
_atom_site_fract_x
_atom_site_fract_y
_atom_site_fract_z
Si Si1 0.259060 0.648326 0.003263
Si Si2 0.716247 0.066674 0.733249
Si Si3 0.000000 0.157860 0.250000
Si Si4 0.317481 0.894933 0.580959
O O1 0.323336 0.619405 0.846449
O O2 0.250000 0.750000 0.000000
O O3 0.404422 0.619613 0.115372
O O4 0.043467 0.618873 0.051484
O O5 0.500000 0.102768 0.750000
O O6 0.758830 0.075233 0.567419
O O7 0.708314 0.974157 0.810181
O O8 0.199268 0.184322 0.158326
#
# Coordination Sequence:
#
# PCOD9286608 Si02
#       4
#     8   8   4   8
#     4  11  26  45  68 102 143 189 236 291 361 428
#     4  10  21  43  75 103 140 185 238 301 353 417
#     4  12  26  44  72 102 144 186 236 300 352 426
#     4  11  24  46  75 107 140 186 245 298 355 420
#
# _framework density 26.829719000000001
#
# number of rings (size 3 to 8) (size 9 to 14) (size 15 to 20)
#    0.000    1.143    0.000    7.714    6.000    6.857 
#    5.143    0.000    0.000    0.000    0.000    0.000 
#    0.000    0.000    0.000    0.000    0.000    0.000 
#
# Total GULP energy -78009.364297 kJ/mol
# GULP energy per Si atom -5572.097450 kJ/mol
# Density = 2.676865 g / cm^3
# Si number density = 26.829719 Si / 1000 Ang^3
#
#
#
# Elastic Constant Matrix: (Units=GPa)
#
#
# Indices 1 2 3 4 5 6 
#
# 1 145.5164 9.0127 100.0562 0.0000 2.2881 0.0000
# 2 9.0127 76.7885 37.4499 0.0000 1.9375 0.0000
# 3 100.0562 37.4499 284.9060 0.0000 20.4932 0.0000
# 4 0.0000 0.0000 0.0000 9.9167 0.0000 4.4582
# 5 2.2881 1.9375 20.4932 0.0000 71.1190 0.0000
# 6 0.0000 0.0000 0.0000 4.4582 0.0000 2.0801
#
#
#
# Elastic Compliance Matrix: (Units=1/GPa)
#
#
# Indices 1 2 3 4 5 6 
#
# 1 0.009109 0.000531 -0.003315 0.000000 0.000648 0.000000
# 2 0.000531 0.013947 -0.002034 0.000000 0.000189 0.000000
# 3 -0.003315 -0.002034 0.005034 0.000000 -0.001289 0.000000
# 4 0.000000 0.000000 0.000000 2.768032 0.000000 -5.932790
# 5 0.000648 0.000189 -0.001289 0.000000 0.014406 0.000000
# 6 0.000000 0.000000 0.000000 -5.932790 0.000000 13.196649
#
#
# Mechanical properties :
#
#
# Convention : Reuss Voigt Hill
#
# Bulk Modulus (GPa) = 54.18476 88.91650 71.55063
# Shear Modulus (GPa) = 0.31205 40.66929 20.49067
#
# Velocity S-wave (km/s) = 0.34141 3.89759 2.76657
# Velocity P-wave (km/s) = 4.51609 7.31218 6.07713
#
# Compressibility (1/GPa) = 0.01845537
#
# Stress axis : x y z
#
# Youngs Moduli (GPa) = 109.78700 71.69791 198.64059
#
# Poissons Ratio (x) = -0.03810 0.65855
# Poissons Ratio (y) = -0.05835 0.40395
# Poissons Ratio (z) = 0.36398 0.14580
#
# Static dielectric constant tensor:
#      x y z
#    x 2.044590 0.000000 0.198900 
#    y 0.000000 2.156530 0.000000 
#    z 0.198900 0.000000 1.704930 
# 
# From -- ./inp_files/21936.got.cif
#   From: 2010.05.17/outbox.cif.g08.bks.cpg/sg15_11_cif.got.tgz:21936.got - 2010.06.03 18:47:42.
