data_PCOD9286859
_publ_section_title
;
Structure prediction by ZEFSAII (Michael W. Deem and Ramdas Pophale) SiO2 
 PCOD9286859
Probable space group: C 2/C
;
_chemical_formula_sum "Si O2"
_cell_formula_units_Z 36
_cell_length_a 11.946693
_cell_length_b 25.232368
_cell_length_c 4.942408
_cell_angle_alpha 90.000000
_cell_angle_beta 93.057506
_cell_angle_gamma 90.000000
_cell_volume 1487.735241
_symmetry_space_group_name_H-M "C 2/C"
_symmetry_group_IT_number 15
_symmetry_cell_setting 'monoclinic'
loop_
_space_group_symop_operation_xyz
x,y,z
-x,y,1/2-z
-x,-y,-z
x,-y,1/2+z
1/2+x,1/2+y,z
1/2-x,1/2+y,1/2-z
1/2-x,1/2-y,-z
1/2+x,1/2-y,1/2+z
loop_
_atom_site_type_symbol
_atom_site_label
_atom_site_fract_x
_atom_site_fract_y
_atom_site_fract_z
Si Si1 0.923885 0.889347 0.481547
Si Si2 0.000000 0.539952 0.750000
Si Si3 0.290827 0.704501 0.219204
Si Si4 0.576546 0.206359 0.519122
Si Si5 0.740532 0.964692 0.217008
O O1 0.838371 0.845232 0.571947
O O2 0.849786 0.934576 0.330673
O O3 0.000000 0.867493 0.250000
O O4 0.000000 0.905777 0.750000
O O5 0.122878 0.566235 0.758843
O O6 0.000000 0.500000 0.500000
O O7 0.196197 0.686087 0.421488
O O8 0.250000 0.750000 0.000000
O O9 0.389489 0.734465 0.388579
O O10 0.500000 0.206176 0.250000
O O11 0.500000 0.182851 0.750000
O O12 0.739615 0.017587 0.404996
#
# Coordination Sequence:
#
# PCOD9286859 Si02
#       5
#     8   4   8   8   8
#     4  12  29  43  69 105 143 190 239 287 350 433
#     4   8  16  34  70  98 126 176 220 276 340 400
#     4  11  26  42  68  98 136 182 237 292 351 418
#     4  11  23  41  68  95 127 180 228 288 357 407
#     4  10  21  44  71 103 142 183 231 286 352 412
#
# _framework density 24.197852000000001
#
# number of rings (size 3 to 8) (size 9 to 14) (size 15 to 20)
#    0.000    1.333    2.222    2.000    9.333    2.667 
#    0.000    2.222    9.778    0.000    0.000    0.000 
#    0.000    0.000    0.000    0.000    0.000    0.000 
#
# Total GULP energy -100625.939695 kJ/mol
# GULP energy per Si atom -5590.329983 kJ/mol
# Density = 2.414278 g / cm^3
# Si number density = 24.197852 Si / 1000 Ang^3
#
#
#
# Elastic Constant Matrix: (Units=GPa)
#
#
# Indices 1 2 3 4 5 6 
#
# 1 162.7932 25.6240 41.0750 0.0000 -27.7367 0.0000
# 2 25.6240 27.5608 -6.6512 0.0000 -6.3825 0.0000
# 3 41.0750 -6.6512 141.0748 0.0000 -10.4808 0.0000
# 4 0.0000 0.0000 0.0000 19.1901 0.0000 3.8915
# 5 -27.7367 -6.3825 -10.4808 0.0000 55.6689 0.0000
# 6 0.0000 0.0000 0.0000 3.8915 0.0000 56.0464
#
#
#
# Elastic Compliance Matrix: (Units=1/GPa)
#
#
# Indices 1 2 3 4 5 6 
#
# 1 0.008544 -0.007923 -0.002649 0.000000 0.002850 0.000000
# 2 -0.007923 0.045246 0.004596 0.000000 0.002105 0.000000
# 3 -0.002649 0.004596 0.008131 0.000000 0.000738 0.000000
# 4 0.000000 0.000000 0.000000 0.052854 0.000000 -0.003670
# 5 0.002850 0.002105 0.000738 0.000000 0.019764 0.000000
# 6 0.000000 0.000000 0.000000 -0.003670 0.000000 0.018097
#
#
# Mechanical properties :
#
#
# Convention : Reuss Voigt Hill
#
# Bulk Modulus (GPa) = 20.01212 50.16936 35.09074
# Shear Modulus (GPa) = 27.58699 44.27316 35.93008
#
# Velocity S-wave (km/s) = 3.38014 4.28206 3.85755
# Velocity P-wave (km/s) = 4.84994 6.72503 5.86293
#
# Compressibility (1/GPa) = 0.04996972
#
# Stress axis : x y z
#
# Youngs Moduli (GPa) = 117.04299 22.10128 122.98066
#
# Poissons Ratio (x) = 0.17511 0.32583
# Poissons Ratio (y) = 0.92732 -0.56527
# Poissons Ratio (z) = 0.31010 -0.10159
#
# Static dielectric constant tensor:
#      x y z
#    x 2.099650 0.000000 0.010190 
#    y 0.000000 1.945380 0.000000 
#    z 0.010190 0.000000 1.896650 
# 
# From -- ./inp_files/5142.got.cif
#   From: 2010.05.17/outbox.cif.g08.bks.cpg/sg15_3_cif.got.tgz:5142.got - 2010.06.03 18:47:42.
