data_PCOD9286791
_publ_section_title
;
Structure prediction by ZEFSAII (Michael W. Deem and Ramdas Pophale) SiO2 
 PCOD9286791
Probable space group: C 2/C
;
_chemical_formula_sum "Si O2"
_cell_formula_units_Z 60
_cell_length_a 22.013190
_cell_length_b 8.891691
_cell_length_c 23.557171
_cell_angle_alpha 90.000000
_cell_angle_beta 142.492234
_cell_angle_gamma 90.000000
_cell_volume 2807.464738
_symmetry_space_group_name_H-M "C 2/C"
_symmetry_group_IT_number 15
_symmetry_cell_setting 'monoclinic'
loop_
_space_group_symop_operation_xyz
x,y,z
-x,y,1/2-z
-x,-y,-z
x,-y,1/2+z
1/2+x,1/2+y,z
1/2-x,1/2+y,1/2-z
1/2-x,1/2-y,-z
1/2+x,1/2-y,1/2+z
loop_
_atom_site_type_symbol
_atom_site_label
_atom_site_fract_x
_atom_site_fract_y
_atom_site_fract_z
Si Si1 0.484236 0.667084 0.055778
Si Si2 0.882941 0.629674 0.569305
Si Si3 0.020567 0.679048 0.369763
Si Si4 0.664146 0.358317 0.870968
Si Si5 0.695097 0.904605 0.746179
Si Si6 0.606565 0.655688 0.035332
Si Si7 0.687747 0.739880 0.263304
Si Si8 0.500000 0.602186 0.750000
O O1 0.419958 0.794490 0.038380
O O2 0.525275 0.698935 0.023250
O O3 0.585174 0.660030 0.167691
O O4 0.424909 0.510618 0.009444
O O5 0.947463 0.483754 0.628403
O O6 0.766588 0.591856 0.476719
O O7 0.891689 0.750162 0.626013
O O8 0.094736 0.730618 0.474838
O O9 0.908932 0.666181 0.311567
O O10 0.024171 0.796665 0.321906
O O11 0.691682 0.271864 0.833719
O O12 0.593860 0.497392 0.805817
O O13 0.785931 0.853908 0.854949
O O14 0.725416 0.846244 0.706243
O O15 0.687612 0.085833 0.743931
#
# Coordination Sequence:
#
# PCOD9286791 Si02
#       8
#     8   8   8   8   8   8   8   4
#     4  10  21  44  69 102 139 187 225 287 349 422
#     4  11  25  45  70 103 135 184 238 288 353 411
#     4  12  28  46  70 105 142 181 238 298 340 422
#     4  11  26  46  74  98 137 190 231 287 353 428
#     4  11  27  44  71 108 137 187 229 295 349 417
#     4  10  24  43  70 100 146 184 229 285 362 410
#     4  11  24  44  74 103 143 177 237 284 351 419
#     4  12  30  46  72  98 142 188 234 282 354 422
#
# _framework density 21.371596
#
# number of rings (size 3 to 8) (size 9 to 14) (size 15 to 20)
#    0.000    1.067    1.333    3.200   13.067    3.200 
#    0.000    0.000    0.000    0.000    0.000    0.000 
#    0.000    0.000    0.000    0.000    0.000    0.000 
#
# Total GULP energy -167929.474657 kJ/mol
# GULP energy per Si atom -5597.649155 kJ/mol
# Density = 2.132295 g / cm^3
# Si number density = 21.371596 Si / 1000 Ang^3
#
#
#
# Elastic Constant Matrix: (Units=GPa)
#
#
# Indices 1 2 3 4 5 6 
#
# 1 53.6561 42.1887 12.4834 0.0000 -4.4545 0.0000
# 2 42.1887 73.4804 12.6968 0.0000 -10.8870 0.0000
# 3 12.4834 12.6968 62.1937 0.0000 -1.4775 0.0000
# 4 0.0000 0.0000 0.0000 -24.0918 0.0000 25.8300
# 5 -4.4545 -10.8870 -1.4775 0.0000 30.3680 0.0000
# 6 0.0000 0.0000 0.0000 25.8300 0.0000 7.6557
#
#
#
# Elastic Compliance Matrix: (Units=1/GPa)
#
#
# Indices 1 2 3 4 5 6 
#
# 1 0.034631 -0.019682 -0.002983 0.000000 -0.002121 0.000000
# 2 -0.019682 0.026068 -0.001219 0.000000 0.006399 0.000000
# 3 -0.002983 -0.001219 0.016925 0.000000 -0.000051 0.000000
# 4 0.000000 0.000000 0.000000 -0.008989 0.000000 0.030330
# 5 -0.002121 0.006399 -0.000051 0.000000 0.034910 0.000000
# 6 0.000000 0.000000 0.000000 0.030330 0.000000 0.028289
#
#
# Mechanical properties :
#
#
# Convention : Reuss Voigt Hill
#
# Bulk Modulus (GPa) = 33.49515 36.00757 34.75136
# Shear Modulus (GPa) = 26.37761 10.91715 18.64738
#
# Velocity S-wave (km/s) = 3.51698 2.26260 2.95707
# Velocity P-wave (km/s) = 5.67441 4.86936 5.28723
#
# Compressibility (1/GPa) = 0.02985507
#
# Stress axis : x y z
#
# Youngs Moduli (GPa) = 28.87605 38.36079 59.08311
#
# Poissons Ratio (x) = 0.75502 0.17626
# Poissons Ratio (y) = 0.56834 0.07204
# Poissons Ratio (z) = 0.08615 0.04677
#
# Static dielectric constant tensor:
#      x y z
#    x 1.753150 0.000000 0.005080 
#    y 0.000000 1.731120 0.000000 
#    z 0.005080 0.000000 1.768470 
# 
# From -- ./inp_files/279702.got.cif
#   From: 2010.05.17/outbox.cif.g08.bks.cpg/sg15_140_cif.got.tgz:279702.got - 2010.06.03 18:47:42.
