data_PCOD9286607
_publ_section_title
;
Structure prediction by ZEFSAII (Michael W. Deem and Ramdas Pophale) SiO2 
 PCOD9286607
Probable space group: C 2/C
;
_chemical_formula_sum "Si O2"
_cell_formula_units_Z 52
_cell_length_a 12.869878
_cell_length_b 10.338396
_cell_length_c 17.546770
_cell_angle_alpha 90.000000
_cell_angle_beta 67.203097
_cell_angle_gamma 90.000000
_cell_volume 2152.291546
_symmetry_space_group_name_H-M "C 2/C"
_symmetry_group_IT_number 15
_symmetry_cell_setting 'monoclinic'
loop_
_space_group_symop_operation_xyz
x,y,z
-x,y,1/2-z
-x,-y,-z
x,-y,1/2+z
1/2+x,1/2+y,z
1/2-x,1/2+y,1/2-z
1/2-x,1/2-y,-z
1/2+x,1/2-y,1/2+z
loop_
_atom_site_type_symbol
_atom_site_label
_atom_site_fract_x
_atom_site_fract_y
_atom_site_fract_z
Si Si1 0.000000 0.470766 0.750000
Si Si2 0.791039 0.312603 0.674721
Si Si3 0.445502 0.853660 0.900431
Si Si4 0.800664 0.517548 0.043857
Si Si5 0.574736 0.405364 0.801671
Si Si6 0.647853 0.145105 0.819281
Si Si7 0.434089 0.432555 0.449402
O O1 0.089915 0.384564 0.676384
O O2 0.938611 0.562401 0.706685
O O3 0.921726 0.333142 0.650214
O O4 0.787136 0.340402 0.585157
O O5 0.744548 0.187244 0.730724
O O6 0.685803 0.078762 0.886850
O O7 0.702642 0.416072 0.735869
O O8 0.411628 0.720905 0.950734
O O9 0.094495 0.524707 0.038067
O O10 0.688595 0.492669 0.028052
O O11 0.500000 0.365810 0.750000
O O12 0.584678 0.281982 0.854756
O O13 0.513011 0.526293 0.855712
O O14 0.500000 0.500000 0.500000
#
# Coordination Sequence:
#
# PCOD9286607 Si02
#       7
#     4   8   8   8   8   8   8
#     4  12  26  44  72 112 154 184 248 302 380 442
#     4  10  24  42  75 105 139 196 244 291 365 444
#     4  12  29  44  74 113 149 196 232 318 377 429
#     4  12  25  49  72 107 155 188 245 309 369 434
#     4  10  21  43  75 102 136 195 251 293 356 435
#     4  10  23  44  74 106 146 193 244 309 361 442
#     4  12  28  48  72 104 144 196 251 299 364 441
#
# _framework density 24.160295000000001
#
# number of rings (size 3 to 8) (size 9 to 14) (size 15 to 20)
#    0.923    0.000    3.846    1.846    5.385    2.462 
#    0.000    1.538    0.000    0.000    0.000    0.000 
#    0.000    0.000    0.000    0.000    0.000    0.000 
#
# Total GULP energy -144878.352497 kJ/mol
# GULP energy per Si atom -5572.244327 kJ/mol
# Density = 2.410530 g / cm^3
# Si number density = 24.160295 Si / 1000 Ang^3
#
#
#
# Elastic Constant Matrix: (Units=GPa)
#
#
# Indices 1 2 3 4 5 6 
#
# 1 104.0945 10.5559 35.9692 0.0000 8.2280 0.0000
# 2 10.5559 53.3834 30.6112 0.0000 -1.7323 0.0000
# 3 35.9692 30.6112 124.3117 0.0000 2.0043 0.0000
# 4 0.0000 0.0000 0.0000 20.5434 0.0000 -2.5549
# 5 8.2280 -1.7323 2.0043 0.0000 32.7312 0.0000
# 6 0.0000 0.0000 0.0000 -2.5549 0.0000 9.7878
#
#
#
# Elastic Compliance Matrix: (Units=1/GPa)
#
#
# Indices 1 2 3 4 5 6 
#
# 1 0.010894 -0.000529 -0.002980 0.000000 -0.002584 0.000000
# 2 -0.000529 0.021910 -0.005268 0.000000 0.001615 0.000000
# 3 -0.002980 -0.005268 0.010206 0.000000 -0.000155 0.000000
# 4 0.000000 0.000000 0.000000 0.050311 0.000000 0.013132
# 5 -0.002584 0.001615 -0.000155 0.000000 0.031296 0.000000
# 6 0.000000 0.000000 0.000000 0.013132 0.000000 0.105596
#
#
# Mechanical properties :
#
#
# Convention : Reuss Voigt Hill
#
# Bulk Modulus (GPa) = 39.28374 48.45134 43.86754
# Shear Modulus (GPa) = 19.51185 26.25604 22.88394
#
# Velocity S-wave (km/s) = 2.84491 3.30016 3.08095
# Velocity P-wave (km/s) = 5.20445 5.88379 5.55452
#
# Compressibility (1/GPa) = 0.02545582
#
# Stress axis : x y z
#
# Youngs Moduli (GPa) = 91.79031 45.64040 97.97759
#
# Poissons Ratio (x) = 0.02415 0.29200
# Poissons Ratio (y) = 0.04857 0.51617
# Poissons Ratio (z) = 0.27356 0.24045
#
# Static dielectric constant tensor:
#      x y z
#    x 1.927390 0.000000 0.006810 
#    y 0.000000 2.069540 0.000000 
#    z 0.006810 0.000000 1.987630 
# 
# From -- ./inp_files/243116.got.cif
#   From: 2010.05.17/outbox.cif.g08.bks.cpg/sg15_122_cif.got.tgz:243116.got - 2010.06.03 18:47:42.
