data_PCOD9286023
_publ_section_title
;
Structure prediction by ZEFSAII (Michael W. Deem and Ramdas Pophale) SiO2 
 PCOD9286023
Probable space group: C 2/C
;
_chemical_formula_sum "Si O2"
_cell_formula_units_Z 44
_cell_length_a 11.954357
_cell_length_b 6.657269
_cell_length_c 24.776468
_cell_angle_alpha 90.000000
_cell_angle_beta 51.286470
_cell_angle_gamma 90.000000
_cell_volume 1538.557468
_symmetry_space_group_name_H-M "C 2/C"
_symmetry_group_IT_number 15
_symmetry_cell_setting 'monoclinic'
loop_
_space_group_symop_operation_xyz
x,y,z
-x,y,1/2-z
-x,-y,-z
x,-y,1/2+z
1/2+x,1/2+y,z
1/2-x,1/2+y,1/2-z
1/2-x,1/2-y,-z
1/2+x,1/2-y,1/2+z
loop_
_atom_site_type_symbol
_atom_site_label
_atom_site_fract_x
_atom_site_fract_y
_atom_site_fract_z
Si Si1 0.750000 0.250000 0.000000
Si Si2 0.099324 0.341412 0.062624
Si Si3 0.868158 0.026347 0.360426
Si Si4 0.846862 0.831059 0.566688
Si Si5 0.823014 0.917103 0.265256
Si Si6 0.670852 0.971327 0.200084
O O1 0.878521 0.118470 0.995284
O O2 0.624774 0.076848 0.058063
O O3 0.078855 0.219749 0.124035
O O4 0.969504 0.281515 0.062449
O O5 0.250000 0.250000 0.000000
O O6 0.809019 0.081701 0.317836
O O7 0.017118 0.916680 0.304685
O O8 0.761189 0.865406 0.421766
O O9 0.778898 0.027687 0.615975
O O10 0.722443 0.916453 0.244561
O O11 0.805349 0.716590 0.304308
O O12 0.500000 0.937242 0.250000
#
# Coordination Sequence:
#
# PCOD9286023 Si02
#       6
#     4   8   8   8   8   8
#     4  12  28  44  72 104 132 194 246 278 354 410
#     4  12  26  48  71 101 145 186 241 297 347 409
#     4  10  21  46  69  96 145 182 222 300 356 412
#     4  11  24  47  68  99 144 178 239 297 341 421
#     4  10  21  42  70 101 139 181 218 283 366 418
#     4  11  22  42  67  99 138 172 223 287 345 428
#
# _framework density 28.598215
#
# number of rings (size 3 to 8) (size 9 to 14) (size 15 to 20)
#    0.000    1.091    7.273    0.545    0.000    5.091 
#    3.273    0.000    0.000    0.000    0.000    0.000 
#    0.000    0.000    0.000    0.000    0.000    0.000 
#
# Total GULP energy -122623.657245 kJ/mol
# GULP energy per Si atom -5573.802602 kJ/mol
# Density = 2.853312 g / cm^3
# Si number density = 28.598215 Si / 1000 Ang^3
#
#
#
# Elastic Constant Matrix: (Units=GPa)
#
#
# Indices 1 2 3 4 5 6 
#
# 1 264.4345 44.9235 32.3967 0.0001 8.7413 0.0000
# 2 44.9235 60.7948 4.7573 0.0000 -0.0201 -0.0001
# 3 32.3967 4.7573 60.0650 0.0000 -7.1157 0.0000
# 4 0.0001 0.0000 0.0000 -2.1155 0.0000 -22.1095
# 5 8.7413 -0.0201 -7.1157 0.0000 48.1129 0.0000
# 6 0.0000 -0.0001 0.0000 -22.1095 0.0000 32.8390
#
#
#
# Elastic Compliance Matrix: (Units=1/GPa)
#
#
# Indices 1 2 3 4 5 6 
#
# 1 0.004670 -0.003263 -0.002403 0.000000 -0.001205 0.000000
# 2 -0.003263 0.018833 0.000346 0.000000 0.000652 0.000000
# 3 -0.002403 0.000346 0.018290 0.000000 0.003142 0.000000
# 4 0.000000 0.000000 0.000000 -0.058819 0.000000 -0.039601
# 5 -0.001205 0.000652 0.003142 0.000000 0.021468 0.000000
# 6 0.000000 0.000000 0.000000 -0.039601 0.000000 0.003789
#
#
# Mechanical properties :
#
#
# Convention : Reuss Voigt Hill
#
# Bulk Modulus (GPa) = 32.10126 61.04992 46.57559
# Shear Modulus (GPa) = 170.89733 35.98174 103.43954
#
# Velocity S-wave (km/s) = 7.73872 3.55093 6.02067
# Velocity P-wave (km/s) = 9.54461 6.18110 8.04070
#
# Compressibility (1/GPa) = 0.03115143
#
# Stress axis : x y z
#
# Youngs Moduli (GPa) = 214.11703 53.09715 54.67560
#
# Poissons Ratio (x) = 0.17328 0.13140
# Poissons Ratio (y) = 0.69875 -0.01890
# Poissons Ratio (z) = 0.51459 -0.01836
#
# Static dielectric constant tensor:
#      x y z
#    x 2.567590 0.000000 -0.035540 
#    y 0.000000 3.065310 0.000000 
#    z -0.035540 0.000000 1.284860 
# 
# From -- ./inp_files/291422.got.cif
#   From: 2010.05.17/outbox.cif.g08.bks.cpg/sg15_146_cif.got.tgz:291422.got - 2010.06.03 18:47:42.
