data_PCOD9286916
_publ_section_title
;
Structure prediction by ZEFSAII (Michael W. Deem and Ramdas Pophale) SiO2 
 PCOD9286916
Probable space group: C 2/C
;
_chemical_formula_sum "Si O2"
_cell_formula_units_Z 56
_cell_length_a 16.044169
_cell_length_b 11.671291
_cell_length_c 14.811255
_cell_angle_alpha 90.000000
_cell_angle_beta 117.643814
_cell_angle_gamma 90.000000
_cell_volume 2456.901257
_symmetry_space_group_name_H-M "C 2/C"
_symmetry_group_IT_number 15
_symmetry_cell_setting 'monoclinic'
loop_
_space_group_symop_operation_xyz
x,y,z
-x,y,1/2-z
-x,-y,-z
x,-y,1/2+z
1/2+x,1/2+y,z
1/2-x,1/2+y,1/2-z
1/2-x,1/2-y,-z
1/2+x,1/2-y,1/2+z
loop_
_atom_site_type_symbol
_atom_site_label
_atom_site_fract_x
_atom_site_fract_y
_atom_site_fract_z
Si Si1 0.201328 0.982527 0.291898
Si Si2 0.500000 0.385824 0.250000
Si Si3 0.812581 0.844194 0.580221
Si Si4 0.500000 0.762817 0.250000
Si Si5 0.524207 0.686952 0.962948
Si Si6 0.645577 0.532636 0.570299
Si Si7 0.883071 0.571028 0.953391
Si Si8 0.491410 0.983824 0.343870
O O1 0.092754 0.956855 0.264788
O O2 0.211909 0.973672 0.190220
O O3 0.275102 0.901405 0.379540
O O4 0.225393 0.106823 0.344845
O O5 0.473589 0.319040 0.145238
O O6 0.750000 0.750000 0.500000
O O7 0.917729 0.803884 0.658603
O O8 0.815056 0.945932 0.508727
O O9 0.461599 0.854279 0.302963
O O10 0.422149 0.642315 0.944072
O O11 0.589289 0.586428 0.037015
O O12 0.558404 0.811357 0.009426
O O13 0.918956 0.491980 0.887849
O O14 0.908619 0.500339 0.056513
O O15 0.500000 0.042416 0.250000
#
# Coordination Sequence:
#
# PCOD9286916 Si02
#       8
#     8   4   8   4   8   8   8   8
#     4  11  25  40  66  98 139 173 229 284 335 404
#     4  10  21  45  60  92 132 176 221 269 336 398
#     4  12  25  42  70 100 133 179 232 280 345 407
#     4  10  23  41  74  90 134 178 225 277 348 388
#     4  10  22  41  70  91 131 177 219 275 340 392
#     4  10  24  42  65 100 131 171 231 278 326 413
#     4  11  23  42  67 103 135 176 224 282 339 414
#     4   9  23  43  67  96 136 173 222 273 341 410
#
# _framework density 22.792939000000001
#
# number of rings (size 3 to 8) (size 9 to 14) (size 15 to 20)
#    0.429    1.143    1.429    2.143    9.000    1.714 
#    0.000    2.857    0.000    0.000    0.000    0.000 
#    0.000    0.000    0.000    0.000    0.000    0.000 
#
# Total GULP energy -156087.967527 kJ/mol
# GULP energy per Si atom -5574.570269 kJ/mol
# Density = 2.274106 g / cm^3
# Si number density = 22.792939 Si / 1000 Ang^3
#
#
#
# Elastic Constant Matrix: (Units=GPa)
#
#
# Indices 1 2 3 4 5 6 
#
# 1 44.7372 13.2467 43.2687 0.0000 10.2039 0.0000
# 2 13.2467 59.1012 28.5288 0.0000 10.4792 0.0000
# 3 43.2687 28.5288 198.0773 0.0000 0.4502 0.0000
# 4 0.0000 0.0000 0.0000 27.5293 0.0000 0.2739
# 5 10.2039 10.4792 0.4502 0.0000 36.1686 0.0000
# 6 0.0000 0.0000 0.0000 0.2739 0.0000 14.2382
#
#
#
# Elastic Compliance Matrix: (Units=1/GPa)
#
#
# Indices 1 2 3 4 5 6 
#
# 1 0.031116 -0.002457 -0.006425 0.000000 -0.007987 0.000000
# 2 -0.002457 0.019427 -0.002250 0.000000 -0.004908 0.000000
# 3 -0.006425 -0.002250 0.006771 0.000000 0.002380 0.000000
# 4 0.000000 0.000000 0.000000 0.036332 0.000000 -0.000699
# 5 -0.007987 -0.004908 0.002380 0.000000 0.031294 0.000000
# 6 0.000000 0.000000 0.000000 -0.000699 0.000000 0.070247
#
#
# Mechanical properties :
#
#
# Convention : Reuss Voigt Hill
#
# Bulk Modulus (GPa) = 28.53073 52.44491 40.48782
# Shear Modulus (GPa) = 21.82131 30.04532 25.93332
#
# Velocity S-wave (km/s) = 3.09750 3.63462 3.37676
# Velocity P-wave (km/s) = 5.03361 6.37755 5.74501
#
# Compressibility (1/GPa) = 0.03504993
#
# Stress axis : x y z
#
# Youngs Moduli (GPa) = 32.13777 51.47437 147.69392
#
# Poissons Ratio (x) = 0.12645 0.94895
# Poissons Ratio (y) = 0.07895 0.33235
# Poissons Ratio (z) = 0.20649 0.11583
#
# Static dielectric constant tensor:
#      x y z
#    x 1.934850 0.000000 0.017530 
#    y 0.000000 1.881460 0.000000 
#    z 0.017530 0.000000 1.901670 
# 
# From -- ./inp_files/161466.got.cif
#   From: 2010.05.17/outbox.cif.g08.bks.cpg/sg15_81_cif.got.tgz:161466.got - 2010.06.03 18:47:42.
