data_PCOD9286973
_publ_section_title
;
Structure prediction by ZEFSAII (Michael W. Deem and Ramdas Pophale) SiO2 
 PCOD9286973
Probable space group: C 2/C
;
_chemical_formula_sum "Si O2"
_cell_formula_units_Z 60
_cell_length_a 32.800466
_cell_length_b 9.163459
_cell_length_c 11.035878
_cell_angle_alpha 90.000000
_cell_angle_beta 120.989570
_cell_angle_gamma 90.000000
_cell_volume 2843.540603
_symmetry_space_group_name_H-M "C 2/C"
_symmetry_group_IT_number 15
_symmetry_cell_setting 'monoclinic'
loop_
_space_group_symop_operation_xyz
x,y,z
-x,y,1/2-z
-x,-y,-z
x,-y,1/2+z
1/2+x,1/2+y,z
1/2-x,1/2+y,1/2-z
1/2-x,1/2-y,-z
1/2+x,1/2-y,1/2+z
loop_
_atom_site_type_symbol
_atom_site_label
_atom_site_fract_x
_atom_site_fract_y
_atom_site_fract_z
Si Si1 0.140121 0.109876 0.148618
Si Si2 0.628832 0.066127 0.241445
Si Si3 0.565539 0.574318 0.251969
Si Si4 0.958039 0.464853 0.528691
Si Si5 0.642309 0.309538 0.057122
Si Si6 0.073275 0.237104 0.848284
Si Si7 0.000000 0.294505 0.250000
Si Si8 0.696592 0.188767 0.907917
O O1 0.099115 0.082849 0.186595
O O2 0.175773 0.221569 0.263342
O O3 0.163307 0.955461 0.149628
O O4 0.116898 0.174644 0.993430
O O5 0.637707 0.191197 0.155574
O O6 0.597444 0.143659 0.297699
O O7 0.675724 0.976448 0.354776
O O8 0.591379 0.958442 0.118764
O O9 0.594665 0.631811 0.415523
O O10 0.552360 0.405340 0.250641
O O11 0.522070 0.687176 0.182967
O O12 0.960960 0.317684 0.609390
O O13 0.000000 0.500000 0.500000
O O14 0.961687 0.597065 0.630921
O O15 0.672075 0.240713 0.994421
O O16 0.750000 0.250000 0.000000
#
# Coordination Sequence:
#
# PCOD9286973 Si02
#       8
#     8   8   8   8   8   8   4   8
#     4  10  21  45  69  94 132 178 228 279 350 411
#     4  12  23  44  70 100 137 186 227 284 356 405
#     4  10  22  41  67  94 137 183 229 286 340 407
#     4  12  25  40  62  99 142 185 236 284 336 414
#     4  10  22  44  68  95 132 178 227 274 348 418
#     4  11  23  42  68  97 133 191 231 279 355 418
#     4  12  24  38  62 102 140 172 236 290 328 408
#     4  11  26  44  71 103 136 172 226 289 350 419
#
# _framework density 21.100455
#
# number of rings (size 3 to 8) (size 9 to 14) (size 15 to 20)
#    0.000    1.067    4.000    2.400    3.733    2.667 
#    0.000    3.333    0.000    0.000    0.000    0.000 
#    0.000    0.000    0.000    0.000    0.000    0.000 
#
# Total GULP energy -167505.520455 kJ/mol
# GULP energy per Si atom -5583.517349 kJ/mol
# Density = 2.105243 g / cm^3
# Si number density = 21.100455 Si / 1000 Ang^3
#
#
#
# Elastic Constant Matrix: (Units=GPa)
#
#
# Indices 1 2 3 4 5 6 
#
# 1 32.1492 26.9462 14.9613 0.0000 8.5730 0.0000
# 2 26.9462 123.0475 27.9422 0.0000 -1.3976 0.0000
# 3 14.9613 27.9422 60.4800 0.0000 -2.2277 0.0000
# 4 0.0000 0.0000 0.0000 38.9476 0.0000 -6.2015
# 5 8.5730 -1.3976 -2.2277 0.0000 25.6795 0.0000
# 6 0.0000 0.0000 0.0000 -6.2015 0.0000 23.3280
#
#
#
# Elastic Compliance Matrix: (Units=1/GPa)
#
#
# Indices 1 2 3 4 5 6 
#
# 1 0.046504 -0.008515 -0.008185 0.000000 -0.016699 0.000000
# 2 -0.008515 0.010639 -0.002692 0.000000 0.003188 0.000000
# 3 -0.008185 -0.002692 0.019962 0.000000 0.004318 0.000000
# 4 0.000000 0.000000 0.000000 0.026810 0.000000 0.007127
# 5 -0.016699 0.003188 0.004318 0.000000 0.045064 0.000000
# 6 0.000000 0.000000 0.000000 0.007127 0.000000 0.044762
#
#
# Mechanical properties :
#
#
# Convention : Reuss Voigt Hill
#
# Bulk Modulus (GPa) = 26.09490 39.48623 32.79056
# Shear Modulus (GPa) = 20.38338 27.31281 23.84809
#
# Velocity S-wave (km/s) = 3.11145 3.60171 3.36552
# Velocity P-wave (km/s) = 5.03011 6.00420 5.53861
#
# Compressibility (1/GPa) = 0.03832167
#
# Stress axis : x y z
#
# Youngs Moduli (GPa) = 21.50361 93.99368 50.09584
#
# Poissons Ratio (x) = 0.80034 0.41004
# Poissons Ratio (y) = 0.18310 0.13483
# Poissons Ratio (z) = 0.17601 0.25298
#
# Static dielectric constant tensor:
#      x y z
#    x 1.761720 0.000000 0.011830 
#    y 0.000000 1.806820 0.000000 
#    z 0.011830 0.000000 1.774410 
# 
# From -- ./inp_files/125948.got.cif
#   From: 2010.05.17/outbox.cif.g08.bks.cpg/sg15_63_cif.got.tgz:125948.got - 2010.06.03 18:47:42.
