data_PCOD9286307
_publ_section_title
;
Structure prediction by ZEFSAII (Michael W. Deem and Ramdas Pophale) SiO2 
 PCOD9286307
Probable space group: C 2/C
;
_chemical_formula_sum "Si O2"
_cell_formula_units_Z 60
_cell_length_a 7.979871
_cell_length_b 23.115113
_cell_length_c 23.510237
_cell_angle_alpha 90.000000
_cell_angle_beta 44.724034
_cell_angle_gamma 90.000000
_cell_volume 3051.630924
_symmetry_space_group_name_H-M "C 2/C"
_symmetry_group_IT_number 15
_symmetry_cell_setting 'monoclinic'
loop_
_space_group_symop_operation_xyz
x,y,z
-x,y,1/2-z
-x,-y,-z
x,-y,1/2+z
1/2+x,1/2+y,z
1/2-x,1/2+y,1/2-z
1/2-x,1/2-y,-z
1/2+x,1/2-y,1/2+z
loop_
_atom_site_type_symbol
_atom_site_label
_atom_site_fract_x
_atom_site_fract_y
_atom_site_fract_z
Si Si1 0.419532 0.894842 0.105177
Si Si2 0.500000 0.477344 0.250000
Si Si3 0.347407 0.696927 0.015030
Si Si4 0.970736 0.404985 0.957344
Si Si5 0.296799 0.480526 0.007480
Si Si6 0.230557 0.813832 0.829812
Si Si7 0.867137 0.722859 0.914370
Si Si8 0.502742 0.428860 0.656601
O O1 0.449468 0.828767 0.116055
O O2 0.204907 0.934021 0.179016
O O3 0.428616 0.897977 0.034757
O O4 0.661452 0.926076 0.066119
O O5 0.584054 0.521983 0.278958
O O6 0.203248 0.640819 0.029504
O O7 0.301039 0.696395 0.094546
O O8 0.250000 0.750000 0.000000
O O9 0.634261 0.699416 0.938020
O O10 0.253202 0.399668 0.877843
O O11 0.892239 0.468801 0.957609
O O12 0.407983 0.462212 0.920887
O O13 0.500000 0.500000 0.000000
O O14 0.500000 0.798379 0.750000
O O15 0.174305 0.878874 0.821867
O O16 0.028436 0.773566 0.849762
O O17 0.750000 0.750000 0.000000
#
# Coordination Sequence:
#
# PCOD9286307 Si02
#       8
#     8   4   8   8   8   8   8   8
#     4  11  22  40  65  95 129 174 220 272 337 395
#     4  12  24  40  64  96 140 180 208 268 360 402
#     4  11  22  41  69  95 123 172 227 274 328 394
#     4  11  19  38  64  91 120 168 226 265 311 392
#     4  11  20  37  62  92 121 167 222 265 309 386
#     4  11  25  42  64  99 131 173 214 280 346 393
#     4  10  21  43  66  94 126 169 224 278 326 401
#     4  11  23  41  62  94 132 170 222 269 327 405
#
# _framework density 19.661617
#
# number of rings (size 3 to 8) (size 9 to 14) (size 15 to 20)
#    0.000    1.067    2.667    8.000    2.800    1.067 
#    0.000    0.000    0.000    0.000    0.000    0.000 
#    0.000    0.000    0.000    0.000    0.000    0.000 
#
# Total GULP energy -167369.982398 kJ/mol
# GULP energy per Si atom -5578.999413 kJ/mol
# Density = 1.961687 g / cm^3
# Si number density = 19.661617 Si / 1000 Ang^3
#
#
#
# Elastic Constant Matrix: (Units=GPa)
#
#
# Indices 1 2 3 4 5 6 
#
# 1 84.4805 18.9786 16.5451 0.0000 -12.9384 0.0000
# 2 18.9786 105.8144 17.1640 0.0000 2.8211 0.0000
# 3 16.5451 17.1640 66.2877 0.0000 -11.5049 0.0000
# 4 0.0000 0.0000 0.0000 19.7445 0.0000 -10.4043
# 5 -12.9384 2.8211 -11.5049 0.0000 19.2701 0.0000
# 6 0.0000 0.0000 0.0000 -10.4043 0.0000 45.9071
#
#
#
# Elastic Compliance Matrix: (Units=1/GPa)
#
#
# Indices 1 2 3 4 5 6 
#
# 1 0.014045 -0.002553 -0.001275 0.000000 0.009043 0.000000
# 2 -0.002553 0.010522 -0.002959 0.000000 -0.005021 0.000000
# 3 -0.001275 -0.002959 0.017957 0.000000 0.010298 0.000000
# 4 0.000000 0.000000 0.000000 0.057516 0.000000 0.013035
# 5 0.009043 -0.005021 0.010298 0.000000 0.064849 0.000000
# 6 0.000000 0.000000 0.000000 0.013035 0.000000 0.024737
#
#
# Mechanical properties :
#
#
# Convention : Reuss Voigt Hill
#
# Bulk Modulus (GPa) = 34.54135 40.21755 37.37945
# Shear Modulus (GPa) = 23.49050 30.57735 27.03393
#
# Velocity S-wave (km/s) = 3.46025 3.94786 3.71207
# Velocity P-wave (km/s) = 5.79400 6.42495 6.11762
#
# Compressibility (1/GPa) = 0.02895081
#
# Stress axis : x y z
#
# Youngs Moduli (GPa) = 71.19804 95.03641 55.68717
#
# Poissons Ratio (x) = 0.24267 0.07100
# Poissons Ratio (y) = 0.18180 0.16476
# Poissons Ratio (z) = 0.09078 0.28119
#
# Static dielectric constant tensor:
#      x y z
#    x 1.727860 0.000000 0.007040 
#    y 0.000000 1.788270 0.000000 
#    z 0.007040 0.000000 1.690790 
# 
# From -- ./inp_files/266217.got.cif
#   From: 2010.05.17/outbox.cif.g08.bks.cpg/sg15_134_cif.got.tgz:266217.got - 2010.06.03 18:47:42.
