data_PCOD9286176
_publ_section_title
;
Structure prediction by ZEFSAII (Michael W. Deem and Ramdas Pophale) SiO2 
 PCOD9286176
Probable space group: C 2/C
;
_chemical_formula_sum "Si O2"
_cell_formula_units_Z 48
_cell_length_a 15.078781
_cell_length_b 12.118528
_cell_length_c 18.948575
_cell_angle_alpha 90.000000
_cell_angle_beta 39.772556
_cell_angle_gamma 90.000000
_cell_volume 2215.120060
_symmetry_space_group_name_H-M "C 2/C"
_symmetry_group_IT_number 15
_symmetry_cell_setting 'monoclinic'
loop_
_space_group_symop_operation_xyz
x,y,z
-x,y,1/2-z
-x,-y,-z
x,-y,1/2+z
1/2+x,1/2+y,z
1/2-x,1/2+y,1/2-z
1/2-x,1/2-y,-z
1/2+x,1/2-y,1/2+z
loop_
_atom_site_type_symbol
_atom_site_label
_atom_site_fract_x
_atom_site_fract_y
_atom_site_fract_z
Si Si1 0.590849 0.594720 0.791083
Si Si2 0.008419 0.512127 0.078213
Si Si3 0.272346 0.193629 0.234648
Si Si4 0.346793 0.527031 0.118718
Si Si5 0.288175 0.367634 0.439777
Si Si6 0.885072 0.349311 0.259544
O O1 0.643268 0.694004 0.806250
O O2 0.652039 0.491209 0.795846
O O3 0.654317 0.624326 0.676205
O O4 0.425270 0.587498 0.894593
O O5 0.895521 0.605613 0.161435
O O6 0.962664 0.399654 0.143732
O O7 0.153388 0.555362 0.020564
O O8 0.000000 0.500000 0.000000
O O9 0.187452 0.157058 0.357536
O O10 0.181046 0.232250 0.223057
O O11 0.233708 0.444101 0.153589
O O12 0.500000 0.500000 0.000000
O O13 0.250000 0.250000 0.500000
O O14 0.000000 0.341113 0.250000
#
# Coordination Sequence:
#
# PCOD9286176 Si02
#       6
#     8   8   8   8   8   8
#     4  10  23  39  60 100 125 162 218 270 318 401
#     4  11  23  42  68  91 128 174 211 264 335 389
#     4  10  21  43  62  88 131 165 213 263 323 394
#     4  10  23  41  66  89 131 176 211 265 337 386
#     4  11  22  38  66  94 126 162 217 272 328 376
#     4  10  24  42  63  95 127 167 221 266 314 395
#
# _framework density 21.669253999999999
#
# number of rings (size 3 to 8) (size 9 to 14) (size 15 to 20)
#    0.000    1.667    1.667    3.000    4.667    4.000 
#    6.000    1.667    0.000    0.000    0.000    0.000 
#    0.000    0.000    0.000    0.000    0.000    0.000 
#
# Total GULP energy -133620.680679 kJ/mol
# GULP energy per Si atom -5567.528362 kJ/mol
# Density = 2.161993 g / cm^3
# Si number density = 21.669254 Si / 1000 Ang^3
#
#
#
# Elastic Constant Matrix: (Units=GPa)
#
#
# Indices 1 2 3 4 5 6 
#
# 1 117.9692 6.7020 30.3600 0.0000 -26.6900 0.0000
# 2 6.7020 38.2320 2.8794 0.0000 -11.5624 0.0000
# 3 30.3600 2.8794 87.2608 0.0000 -28.0173 0.0000
# 4 0.0000 0.0000 0.0000 21.4059 0.0000 -4.6483
# 5 -26.6900 -11.5624 -28.0173 0.0000 49.2020 0.0000
# 6 0.0000 0.0000 0.0000 -4.6483 0.0000 25.7911
#
#
#
# Elastic Compliance Matrix: (Units=1/GPa)
#
#
# Indices 1 2 3 4 5 6 
#
# 1 0.009978 -0.000344 -0.002139 0.000000 0.004113 0.000000
# 2 -0.000344 0.028323 0.001545 0.000000 0.007349 0.000000
# 3 -0.002139 0.001545 0.014559 0.000000 0.007493 0.000000
# 4 0.000000 0.000000 0.000000 0.048619 0.000000 0.008762
# 5 0.004113 0.007349 0.007493 0.000000 0.028549 0.000000
# 6 0.000000 0.000000 0.000000 0.008762 0.000000 0.040352
#
#
# Mechanical properties :
#
#
# Convention : Reuss Voigt Hill
#
# Bulk Modulus (GPa) = 19.61491 35.92721 27.77106
# Shear Modulus (GPa) = 26.41994 32.84783 29.63389
#
# Velocity S-wave (km/s) = 3.49554 3.89765 3.70206
# Velocity P-wave (km/s) = 5.03621 6.07218 5.57829
#
# Compressibility (1/GPa) = 0.05098162
#
# Stress axis : x y z
#
# Youngs Moduli (GPa) = 100.22518 35.30758 68.68587
#
# Poissons Ratio (x) = 0.01214 0.14694
# Poissons Ratio (y) = 0.03447 -0.10609
# Poissons Ratio (z) = 0.21442 -0.05453
#
# Static dielectric constant tensor:
#      x y z
#    x 1.751990 0.000000 0.107210 
#    y 0.000000 1.859020 0.000000 
#    z 0.107210 0.000000 1.961250 
# 
# From -- ./inp_files/243905.got.cif
#   From: 2010.05.17/outbox.cif.g08.bks.cpg/sg15_122_cif.got.tgz:243905.got - 2010.06.03 18:47:42.
