data_PCOD9286920
_publ_section_title
;
Structure prediction by ZEFSAII (Michael W. Deem and Ramdas Pophale) SiO2 
 PCOD9286920
Probable space group: C 2/C
;
_chemical_formula_sum "Si O2"
_cell_formula_units_Z 36
_cell_length_a 29.628572
_cell_length_b 7.663911
_cell_length_c 18.032741
_cell_angle_alpha 90.000000
_cell_angle_beta 22.036540
_cell_angle_gamma 90.000000
_cell_volume 1536.325459
_symmetry_space_group_name_H-M "C 2/C"
_symmetry_group_IT_number 15
_symmetry_cell_setting 'monoclinic'
loop_
_space_group_symop_operation_xyz
x,y,z
-x,y,1/2-z
-x,-y,-z
x,-y,1/2+z
1/2+x,1/2+y,z
1/2-x,1/2+y,1/2-z
1/2-x,1/2-y,-z
1/2+x,1/2-y,1/2+z
loop_
_atom_site_type_symbol
_atom_site_label
_atom_site_fract_x
_atom_site_fract_y
_atom_site_fract_z
Si Si1 0.074624 0.710264 0.411007
Si Si2 0.265153 0.575203 0.021730
Si Si3 0.827261 0.910830 0.776063
Si Si4 0.090307 0.680152 0.552445
Si Si5 0.500000 0.516247 0.750000
O O1 0.141309 0.572087 0.256055
O O2 0.081726 0.624829 0.481414
O O3 0.944293 0.789607 0.590536
O O4 0.150338 0.893207 0.289675
O O5 0.250000 0.750000 0.000000
O O6 0.292431 0.433148 0.916406
O O7 0.381493 0.601546 0.897208
O O8 0.719270 0.830402 0.893555
O O9 0.000000 0.593280 0.750000
O O10 0.047926 0.882002 0.614853
#
# Coordination Sequence:
#
# PCOD9286920 Si02
#       5
#     8   8   8   8   4
#     4  10  22  39  69  94 127 181 220 278 341 398
#     4  10  22  41  68  95 129 179 222 280 341 396
#     4  10  21  45  62  96 136 166 232 279 329 411
#     4  10  23  39  65  89 134 175 211 284 337 389
#     4  10  22  42  64  88 138 168 218 286 332 390
#
# _framework density 23.432534
#
# number of rings (size 3 to 8) (size 9 to 14) (size 15 to 20)
#    0.667    1.333    2.222    0.000    3.111    3.556 
#   12.000    2.222    0.000    0.000    0.000    0.000 
#    0.000    0.000    0.000    0.000    0.000    0.000 
#
# Total GULP energy -100432.718671 kJ/mol
# GULP energy per Si atom -5579.595482 kJ/mol
# Density = 2.337920 g / cm^3
# Si number density = 23.432534 Si / 1000 Ang^3
#
#
#
# Elastic Constant Matrix: (Units=GPa)
#
#
# Indices 1 2 3 4 5 6 
#
# 1 103.7307 -3.0835 58.9409 0.0000 1.0289 0.0000
# 2 -3.0835 57.1497 21.3422 0.0000 -2.9316 0.0000
# 3 58.9409 21.3422 150.7767 0.0000 -13.2000 0.0000
# 4 0.0000 0.0000 0.0000 28.7841 0.0000 -14.0205
# 5 1.0289 -2.9316 -13.2000 0.0000 48.0314 0.0000
# 6 0.0000 0.0000 0.0000 -14.0205 0.0000 26.6712
#
#
#
# Elastic Compliance Matrix: (Units=1/GPa)
#
#
# Indices 1 2 3 4 5 6 
#
# 1 0.012900 0.002691 -0.005568 0.000000 -0.001642 0.000000
# 2 0.002691 0.019044 -0.003741 0.000000 0.000077 0.000000
# 3 -0.005568 -0.003741 0.009559 0.000000 0.002518 0.000000
# 4 0.000000 0.000000 0.000000 0.046699 0.000000 0.024549
# 5 -0.001642 0.000077 0.002518 0.000000 0.021552 0.000000
# 6 0.000000 0.000000 0.000000 0.024549 0.000000 0.050398
#
#
# Mechanical properties :
#
#
# Convention : Reuss Voigt Hill
#
# Bulk Modulus (GPa) = 35.37571 51.78404 43.57987
# Shear Modulus (GPa) = 27.35095 36.32785 31.83940
#
# Velocity S-wave (km/s) = 3.42017 3.94168 3.69015
# Velocity P-wave (km/s) = 5.54313 6.54698 6.06586
#
# Compressibility (1/GPa) = 0.02826798
#
# Stress axis : x y z
#
# Youngs Moduli (GPa) = 77.51836 52.50988 104.61666
#
# Poissons Ratio (x) = -0.14130 0.58246
# Poissons Ratio (y) = -0.20860 0.39136
# Poissons Ratio (z) = 0.43159 0.19643
#
# Static dielectric constant tensor:
#      x y z
#    x 1.838130 0.000000 0.107530 
#    y 0.000000 1.906000 0.000000 
#    z 0.107530 0.000000 1.918490 
# 
# From -- ./inp_files/222406.got.cif
#   From: 2010.05.17/outbox.cif.g08.bks.cpg/sg15_112_cif.got.tgz:222406.got - 2010.06.03 18:47:42.
