data_PCOD9286836
_publ_section_title
;
Structure prediction by ZEFSAII (Michael W. Deem and Ramdas Pophale) SiO2 
 PCOD9286836
Probable space group: C 2/C
;
_chemical_formula_sum "Si O2"
_cell_formula_units_Z 36
_cell_length_a 7.353938
_cell_length_b 7.089992
_cell_length_c 27.742821
_cell_angle_alpha 90.000000
_cell_angle_beta 71.087084
_cell_angle_gamma 90.000000
_cell_volume 1368.400169
_symmetry_space_group_name_H-M "C 2/C"
_symmetry_group_IT_number 15
_symmetry_cell_setting 'monoclinic'
loop_
_space_group_symop_operation_xyz
x,y,z
-x,y,1/2-z
-x,-y,-z
x,-y,1/2+z
1/2+x,1/2+y,z
1/2-x,1/2+y,1/2-z
1/2-x,1/2-y,-z
1/2+x,1/2-y,1/2+z
loop_
_atom_site_type_symbol
_atom_site_label
_atom_site_fract_x
_atom_site_fract_y
_atom_site_fract_z
Si Si1 0.953575 0.399343 0.882374
Si Si2 0.500000 0.565364 0.750000
Si Si3 0.338858 0.453950 0.898520
Si Si4 0.712500 0.637858 0.319485
Si Si5 0.278598 0.470531 0.507223
O O1 0.872840 0.470268 0.838108
O O2 0.849015 0.507640 0.935065
O O3 0.178678 0.408606 0.872848
O O4 0.244243 0.424718 0.959498
O O5 0.334784 0.691549 0.788228
O O6 0.391438 0.455209 0.717047
O O7 0.535862 0.341460 0.872333
O O8 0.396396 0.676241 0.890233
O O9 0.500000 0.500000 0.500000
O O10 0.250000 0.250000 0.500000
#
# Coordination Sequence:
#
# PCOD9286836 Si02
#       5
#     8   4   8   8   8
#     4  11  25  47  77 111 150 193 238 297 364 444
#     4  12  32  48  80  98 150 186 256 318 364 424
#     4  11  25  47  77 111 150 193 238 297 364 444
#     4  12  28  55  72 112 140 197 248 310 372 428
#     4  10  21  44  70 113 151 189 234 290 358 441
#
# _framework density 26.308093
#
# number of rings (size 3 to 8) (size 9 to 14) (size 15 to 20)
#    0.000    0.889    4.444    0.667    3.111    6.222 
#    0.000    4.444    0.000    0.000    0.000    0.000 
#    0.000    0.000    0.000    0.000    0.000    0.000 
#
# Total GULP energy -100939.033707 kJ/mol
# GULP energy per Si atom -5607.724095 kJ/mol
# Density = 2.624822 g / cm^3
# Si number density = 26.308093 Si / 1000 Ang^3
#
#
#
# Elastic Constant Matrix: (Units=GPa)
#
#
# Indices 1 2 3 4 5 6 
#
# 1 203.3636 51.8267 36.8531 0.0000 35.7876 0.0000
# 2 51.8267 103.3702 36.1478 0.0000 3.1306 0.0000
# 3 36.8531 36.1478 156.0077 0.0000 25.0882 0.0000
# 4 0.0000 0.0000 0.0000 33.7687 0.0000 -1.5081
# 5 35.7876 3.1306 25.0882 0.0000 59.3152 0.0000
# 6 0.0000 0.0000 0.0000 -1.5081 0.0000 57.0798
#
#
#
# Elastic Compliance Matrix: (Units=1/GPa)
#
#
# Indices 1 2 3 4 5 6 
#
# 1 0.006352 -0.002996 -0.000231 0.000000 -0.003577 0.000000
# 2 -0.002996 0.011954 -0.002416 0.000000 0.002198 0.000000
# 3 -0.000231 -0.002416 0.007491 0.000000 -0.002901 0.000000
# 4 0.000000 0.000000 0.000000 0.029648 0.000000 0.000783
# 5 -0.003577 0.002198 -0.002901 0.000000 0.020128 0.000000
# 6 0.000000 0.000000 0.000000 0.000783 0.000000 0.017540
#
#
# Mechanical properties :
#
#
# Convention : Reuss Voigt Hill
#
# Bulk Modulus (GPa) = 68.90875 79.15519 74.03197
# Shear Modulus (GPa) = 45.77267 52.56033 49.16650
#
# Velocity S-wave (km/s) = 4.17570 4.47461 4.32774
# Velocity P-wave (km/s) = 7.03552 7.53985 7.29204
#
# Compressibility (1/GPa) = 0.01451194
#
# Stress axis : x y z
#
# Youngs Moduli (GPa) = 157.43069 83.65406 133.49578
#
# Poissons Ratio (x) = 0.25059 0.03087
# Poissons Ratio (y) = 0.47158 0.32248
# Poissons Ratio (z) = 0.03641 0.20208
#
# Static dielectric constant tensor:
#      x y z
#    x 1.960020 0.000000 0.029880 
#    y 0.000000 2.132730 0.000000 
#    z 0.029880 0.000000 2.116170 
# 
# From -- ./inp_files/304729.got.cif
#   From: 2010.05.17/outbox.cif.g08.bks.cpg/sg15_153_cif.got.tgz:304729.got - 2010.06.03 18:47:42.
