data_PCOD9286074
_publ_section_title
;
Structure prediction by ZEFSAII (Michael W. Deem and Ramdas Pophale) SiO2 
 PCOD9286074
Probable space group: C 2/C
;
_chemical_formula_sum "Si O2"
_cell_formula_units_Z 52
_cell_length_a 9.003819
_cell_length_b 26.507443
_cell_length_c 11.635352
_cell_angle_alpha 90.000000
_cell_angle_beta 122.760589
_cell_angle_gamma 90.000000
_cell_volume 2335.278187
_symmetry_space_group_name_H-M "C 2/C"
_symmetry_group_IT_number 15
_symmetry_cell_setting 'monoclinic'
loop_
_space_group_symop_operation_xyz
x,y,z
-x,y,1/2-z
-x,-y,-z
x,-y,1/2+z
1/2+x,1/2+y,z
1/2-x,1/2+y,1/2-z
1/2-x,1/2-y,-z
1/2+x,1/2-y,1/2+z
loop_
_atom_site_type_symbol
_atom_site_label
_atom_site_fract_x
_atom_site_fract_y
_atom_site_fract_z
Si Si1 0.405948 0.493439 0.836153
Si Si2 0.684931 0.304863 0.259664
Si Si3 0.695344 0.093109 0.783518
Si Si4 0.316379 0.623060 0.292254
Si Si5 0.804173 0.843774 0.540764
Si Si6 0.000000 0.324402 0.750000
Si Si7 0.029408 0.266491 0.520279
O O1 0.500000 0.497296 0.750000
O O2 0.265862 0.539307 0.774148
O O3 0.349554 0.435466 0.822011
O O4 0.500000 0.500000 0.000000
O O5 0.500000 0.307893 0.250000
O O6 0.773625 0.360392 0.291650
O O7 0.626752 0.284288 0.108578
O O8 0.836514 0.268794 0.378730
O O9 0.500000 0.089065 0.750000
O O10 0.793047 0.115930 0.934752
O O11 0.483201 0.661534 0.362247
O O12 0.248995 0.626817 0.134010
O O13 0.174844 0.642354 0.322890
O O14 0.665194 0.797746 0.496625
O O15 0.005048 0.293155 0.634430
#
# Coordination Sequence:
#
# PCOD9286074 Si02
#       7
#     8   8   8   8   8   4   8
#     4  12  24  46  73 108 144 195 244 299 370 443
#     4  12  27  46  70 103 142 188 242 302 372 442
#     4  12  26  46  67 102 146 187 239 299 362 436
#     4  10  21  42  71 103 139 182 241 289 362 433
#     4  10  21  46  69  97 139 182 236 293 353 439
#     4  10  24  40  70 102 138 184 234 298 360 436
#     4  11  25  46  69 104 140 185 245 295 369 437
#
# _framework density 22.267154000000001
#
# number of rings (size 3 to 8) (size 9 to 14) (size 15 to 20)
#    0.000    0.923    5.385    0.923    3.231    4.308 
#    5.538    1.538    0.000    0.000    0.000    0.000 
#    0.000    0.000    0.000    0.000    0.000    0.000 
#
# Total GULP energy -144912.375557 kJ/mol
# GULP energy per Si atom -5573.552906 kJ/mol
# Density = 2.221647 g / cm^3
# Si number density = 22.267154 Si / 1000 Ang^3
#
#
#
# Elastic Constant Matrix: (Units=GPa)
#
#
# Indices 1 2 3 4 5 6 
#
# 1 183.6350 79.7799 17.6807 0.0000 2.3482 0.0000
# 2 79.7799 100.9703 15.6656 0.0000 23.9833 0.0000
# 3 17.6807 15.6656 74.9766 0.0000 3.2299 0.0000
# 4 0.0000 0.0000 0.0000 27.8908 0.0000 7.0402
# 5 2.3482 23.9833 3.2299 0.0000 35.5249 0.0000
# 6 0.0000 0.0000 0.0000 7.0402 0.0000 32.6395
#
#
#
# Elastic Compliance Matrix: (Units=1/GPa)
#
#
# Indices 1 2 3 4 5 6 
#
# 1 0.009008 -0.008209 -0.000625 0.000000 0.005004 0.000000
# 2 -0.008209 0.019625 -0.001624 0.000000 -0.012559 0.000000
# 3 -0.000625 -0.001624 0.013829 0.000000 -0.000120 0.000000
# 4 0.000000 0.000000 0.000000 0.037919 0.000000 -0.008179
# 5 0.005004 -0.012559 -0.000120 0.000000 0.036308 0.000000
# 6 0.000000 0.000000 0.000000 -0.008179 0.000000 0.032402
#
#
# Mechanical properties :
#
#
# Convention : Reuss Voigt Hill
#
# Bulk Modulus (GPa) = 46.40835 65.09269 55.75052
# Shear Modulus (GPa) = 28.21839 35.64140 31.92990
#
# Velocity S-wave (km/s) = 3.56373 4.00512 3.79086
# Velocity P-wave (km/s) = 6.14983 7.11928 6.65224
#
# Compressibility (1/GPa) = 0.02154785
#
# Stress axis : x y z
#
# Youngs Moduli (GPa) = 111.00933 50.95444 72.31079
#
# Poissons Ratio (x) = 0.41830 0.04516
# Poissons Ratio (y) = 0.91131 0.11740
# Poissons Ratio (z) = 0.06934 0.08273
#
# Static dielectric constant tensor:
#      x y z
#    x 2.457160 0.000000 1.234550 
#    y 0.000000 1.844720 0.000000 
#    z 1.234550 0.000000 4.331920 
# 
# From -- ./inp_files/81521.got.cif
#   From: 2010.05.17/outbox.cif.g08.bks.cpg/sg15_41_cif.got.tgz:81521.got - 2010.06.03 18:47:42.
