data_PCOD9286917
_publ_section_title
;
Structure prediction by ZEFSAII (Michael W. Deem and Ramdas Pophale) SiO2 
 PCOD9286917
Probable space group: C 2/C
;
_chemical_formula_sum "Si O2"
_cell_formula_units_Z 60
_cell_length_a 12.084905
_cell_length_b 11.778366
_cell_length_c 17.636240
_cell_angle_alpha 90.000000
_cell_angle_beta 107.670634
_cell_angle_gamma 90.000000
_cell_volume 2391.904672
_symmetry_space_group_name_H-M "C 2/C"
_symmetry_group_IT_number 15
_symmetry_cell_setting 'monoclinic'
loop_
_space_group_symop_operation_xyz
x,y,z
-x,y,1/2-z
-x,-y,-z
x,-y,1/2+z
1/2+x,1/2+y,z
1/2-x,1/2+y,1/2-z
1/2-x,1/2-y,-z
1/2+x,1/2-y,1/2+z
loop_
_atom_site_type_symbol
_atom_site_label
_atom_site_fract_x
_atom_site_fract_y
_atom_site_fract_z
Si Si1 0.166749 0.996466 0.995429
Si Si2 0.847673 0.091918 0.252215
Si Si3 0.000000 0.876379 0.250000
Si Si4 0.579385 0.279106 0.416643
Si Si5 0.078138 0.193043 0.381787
Si Si6 0.697696 0.103739 0.355211
Si Si7 0.992054 0.425604 0.161101
Si Si8 0.604668 0.916475 0.040811
O O1 0.080998 0.094928 0.950371
O O2 0.280181 0.029830 0.969871
O O3 0.117589 0.876385 0.962565
O O4 0.205431 0.021626 0.088336
O O5 0.841510 0.157736 0.171978
O O6 0.729942 0.104901 0.274720
O O7 0.950393 0.150926 0.325272
O O8 0.893373 0.965633 0.239997
O O9 0.003502 0.797337 0.325022
O O10 0.694451 0.223617 0.398629
O O11 0.570487 0.197223 0.487478
O O12 0.083853 0.326922 0.393535
O O13 0.575059 0.044517 0.349085
O O14 0.000000 0.389739 0.250000
O O15 0.105627 0.417164 0.132622
O O16 0.500000 0.000000 0.000000
#
# Coordination Sequence:
#
# PCOD9286917 Si02
#       8
#     8   8   4   8   8   8   8   8
#     4  11  23  44  67  96 129 172 225 264 326 393
#     4  10  21  45  60  96 133 166 223 267 324 381
#     4  10  22  44  66 100 128 172 228 268 322 382
#     4  11  23  43  69  97 132 173 227 268 323 397
#     4  10  23  43  66  91 130 171 212 270 326 386
#     4  11  26  39  63 100 128 172 220 267 330 395
#     4  12  26  44  65  97 134 175 220 266 336 398
#     4  11  24  46  65  96 137 173 210 273 333 388
#
# _framework density 25.084610999999999
#
# number of rings (size 3 to 8) (size 9 to 14) (size 15 to 20)
#    0.000    1.333    6.667    1.600    6.533    3.200 
#    2.400    0.000    0.000    0.000    0.000    0.000 
#    0.000    0.000    0.000    0.000    0.000    0.000 
#
# Total GULP energy -167594.192138 kJ/mol
# GULP energy per Si atom -5586.473071 kJ/mol
# Density = 2.502752 g / cm^3
# Si number density = 25.084611 Si / 1000 Ang^3
#
#
#
# Elastic Constant Matrix: (Units=GPa)
#
#
# Indices 1 2 3 4 5 6 
#
# 1 49.1612 1.4171 21.4416 0.0000 -38.0373 0.0000
# 2 1.4171 90.1137 -3.0685 0.0000 -3.5389 0.0000
# 3 21.4416 -3.0685 71.9764 0.0000 -25.7067 0.0000
# 4 0.0000 0.0000 0.0000 32.5196 0.0000 0.8832
# 5 -38.0373 -3.5389 -25.7067 0.0000 46.6634 0.0000
# 6 0.0000 0.0000 0.0000 0.8832 0.0000 10.6538
#
#
#
# Elastic Compliance Matrix: (Units=1/GPa)
#
#
# Indices 1 2 3 4 5 6 
#
# 1 0.055161 0.000879 -0.000388 0.000000 0.044817 0.000000
# 2 0.000879 0.011198 0.000965 0.000000 0.002097 0.000000
# 3 -0.000388 0.000965 0.017384 0.000000 0.009333 0.000000
# 4 0.000000 0.000000 0.000000 0.030820 0.000000 -0.002555
# 5 0.044817 0.002097 0.009333 0.000000 0.063263 0.000000
# 6 0.000000 0.000000 0.000000 -0.002555 0.000000 0.094075
#
#
# Mechanical properties :
#
#
# Convention : Reuss Voigt Hill
#
# Bulk Modulus (GPa) = 11.54005 27.87022 19.70513
# Shear Modulus (GPa) = 16.78554 30.73143 23.75848
#
# Velocity S-wave (km/s) = 2.58961 3.50396 3.08089
# Velocity P-wave (km/s) = 3.68129 5.24451 4.53083
#
# Compressibility (1/GPa) = 0.08665474
#
# Stress axis : x y z
#
# Youngs Moduli (GPa) = 18.12861 89.29788 57.52535
#
# Poissons Ratio (x) = -0.07852 0.02234
# Poissons Ratio (y) = -0.01594 -0.05549
# Poissons Ratio (z) = 0.00704 -0.08613
#
# Static dielectric constant tensor:
#      x y z
#    x 2.086080 0.000000 0.011550 
#    y 0.000000 1.975480 0.000000 
#    z 0.011550 0.000000 2.025130 
# 
# From -- ./inp_files/204067.got.cif
#   From: 2010.05.17/outbox.cif.g08.bks.cpg/sg15_103_cif.got.tgz:204067.got - 2010.06.03 18:47:42.
