data_PCOD9286742
_publ_section_title
;
Structure prediction by ZEFSAII (Michael W. Deem and Ramdas Pophale) SiO2 
 PCOD9286742
Probable space group: C 2/C
;
_chemical_formula_sum "Si O2"
_cell_formula_units_Z 64
_cell_length_a 24.516909
_cell_length_b 16.921056
_cell_length_c 21.227187
_cell_angle_alpha 90.000000
_cell_angle_beta 19.869605
_cell_angle_gamma 90.000000
_cell_volume 2993.037169
_symmetry_space_group_name_H-M "C 2/C"
_symmetry_group_IT_number 15
_symmetry_cell_setting 'monoclinic'
loop_
_space_group_symop_operation_xyz
x,y,z
-x,y,1/2-z
-x,-y,-z
x,-y,1/2+z
1/2+x,1/2+y,z
1/2-x,1/2+y,1/2-z
1/2-x,1/2-y,-z
1/2+x,1/2-y,1/2+z
loop_
_atom_site_type_symbol
_atom_site_label
_atom_site_fract_x
_atom_site_fract_y
_atom_site_fract_z
Si Si1 0.290060 0.370370 0.111186
Si Si2 0.167385 0.458665 0.502690
Si Si3 0.257986 0.144578 0.380299
Si Si4 0.210286 0.493675 0.088831
Si Si5 0.968605 0.235603 0.090544
Si Si6 0.312927 0.475738 0.212435
Si Si7 0.236489 0.639400 0.264483
Si Si8 0.563501 0.790985 0.617750
O O1 0.267398 0.425991 0.074972
O O2 0.165338 0.297530 0.241731
O O3 0.266468 0.419971 0.203120
O O4 0.459925 0.325294 0.935955
O O5 0.232488 0.513067 0.489124
O O6 0.272515 0.443909 0.325846
O O7 0.154639 0.368890 0.542782
O O8 0.983307 0.489662 0.690999
O O9 0.201642 0.074447 0.486066
O O10 0.267739 0.108445 0.301258
O O11 0.426753 0.175578 0.222080
O O12 0.158652 0.223853 0.479866
O O13 0.899452 0.180524 0.110412
O O14 0.107016 0.292821 0.915073
O O15 0.213833 0.558090 0.325749
O O16 0.500000 0.500000 0.000000
O O17 0.500000 0.750889 0.750000
#
# Coordination Sequence:
#
# PCOD9286742 Si02
#       8
#     8   8   8   8   8   8   8   8
#     4  11  23  44  70  98 136 171 228 285 343 409
#     4  10  23  41  66  96 136 180 228 275 334 412
#     4  11  22  35  59  92 130 182 224 264 326 403
#     4  10  21  44  67  96 130 181 228 277 338 406
#     4  10  24  39  64  98 130 172 221 290 338 399
#     4  12  25  41  66 100 138 174 220 283 342 397
#     4  11  22  40  60  94 132 171 225 272 337 402
#     4  11  22  39  58  91 142 177 228 263 325 404
#
# _framework density 21.382963
#
# number of rings (size 3 to 8) (size 9 to 14) (size 15 to 20)
#    0.000    1.250    5.000    1.875    7.000    2.000 
#    0.000    0.625    0.000   13.500    0.000    0.000 
#    0.000    0.000    0.000    0.000    0.000    0.000 
#
# Total GULP energy -178360.638117 kJ/mol
# GULP energy per Si atom -5573.769941 kJ/mol
# Density = 2.133429 g / cm^3
# Si number density = 21.382963 Si / 1000 Ang^3
#
#
#
# Elastic Constant Matrix: (Units=GPa)
#
#
# Indices 1 2 3 4 5 6 
#
# 1 164.3929 62.1672 35.8090 0.0136 -14.4926 -0.0044
# 2 62.1672 112.2561 14.2976 0.0172 -13.2657 -0.0041
# 3 35.8090 14.2976 37.6399 0.0224 -0.7166 -0.0057
# 4 0.0136 0.0172 0.0224 13.0699 -0.0100 -5.2831
# 5 -14.4926 -13.2657 -0.7166 -0.0100 26.7492 0.0001
# 6 -0.0044 -0.0041 -0.0057 -5.2831 0.0001 40.3231
#
#
#
# Elastic Compliance Matrix: (Units=1/GPa)
#
#
# Indices 1 2 3 4 5 6 
#
# 1 0.009455 -0.003937 -0.007443 0.000011 0.002971 0.000001
# 2 -0.003937 0.011589 -0.000588 -0.000008 0.003598 0.000000
# 3 -0.007443 -0.000588 0.033807 -0.000053 -0.003419 -0.000003
# 4 0.000011 -0.000008 -0.000053 0.080790 0.000031 0.010585
# 5 0.002971 0.003598 -0.003419 0.000031 0.040687 0.000004
# 6 0.000001 0.000000 -0.000003 0.010585 0.000004 0.026187
#
#
# Mechanical properties :
#
#
# Convention : Reuss Voigt Hill
#
# Bulk Modulus (GPa) = 32.34735 59.87074 46.10905
# Shear Modulus (GPa) = 21.11885 29.49610 25.30748
#
# Velocity S-wave (km/s) = 3.14610 3.71808 3.44399
# Velocity P-wave (km/s) = 5.32520 6.81852 6.11760
#
# Compressibility (1/GPa) = 0.03091443
#
# Stress axis : x y z
#
# Youngs Moduli (GPa) = 105.76348 86.29118 29.57982
#
# Poissons Ratio (x) = 0.33974 0.22016
# Poissons Ratio (y) = 0.41640 0.01739
# Poissons Ratio (z) = 0.78721 0.05073
#
# Static dielectric constant tensor:
#      x y z
#    x 1.869610 0.000000 -0.051920 
#    y 0.000000 1.753210 0.000000 
#    z -0.051920 0.000000 1.823000 
# 
# From -- ./inp_files/255969.got.cif
#   From: 2010.05.17/outbox.cif.g08.bks.cpg/sg15_128_cif.got.tgz:255969.got - 2010.06.03 18:47:42.
