data_PCOD9286327
_publ_section_title
;
Structure prediction by ZEFSAII (Michael W. Deem and Ramdas Pophale) SiO2 
 PCOD9286327
Probable space group: C 2/C
;
_chemical_formula_sum "Si O2"
_cell_formula_units_Z 60
_cell_length_a 20.103363
_cell_length_b 11.156643
_cell_length_c 13.281425
_cell_angle_alpha 90.000000
_cell_angle_beta 84.959945
_cell_angle_gamma 90.000000
_cell_volume 2967.320669
_symmetry_space_group_name_H-M "C 2/C"
_symmetry_group_IT_number 15
_symmetry_cell_setting 'monoclinic'
loop_
_space_group_symop_operation_xyz
x,y,z
-x,y,1/2-z
-x,-y,-z
x,-y,1/2+z
1/2+x,1/2+y,z
1/2-x,1/2+y,1/2-z
1/2-x,1/2-y,-z
1/2+x,1/2-y,1/2+z
loop_
_atom_site_type_symbol
_atom_site_label
_atom_site_fract_x
_atom_site_fract_y
_atom_site_fract_z
Si Si1 0.121151 0.558224 0.609161
Si Si2 0.833460 0.834452 0.878732
Si Si3 0.840260 0.995190 0.679720
Si Si4 0.701553 0.240396 0.314457
Si Si5 0.941657 0.908672 0.028213
Si Si6 0.439189 0.154937 0.076129
Si Si7 0.000000 0.476149 0.750000
Si Si8 0.235521 0.647679 0.086651
O O1 0.147539 0.693674 0.623865
O O2 0.079335 0.566695 0.511277
O O3 0.069470 0.538944 0.708629
O O4 0.177941 0.455954 0.583140
O O5 0.846622 0.914305 0.777780
O O6 0.752997 0.822242 0.885692
O O7 0.877996 0.894022 0.960762
O O8 0.806199 0.916403 0.597525
O O9 0.795206 0.115253 0.691647
O O10 0.910890 0.046633 0.636994
O O11 0.629488 0.197946 0.361552
O O12 0.716661 0.201649 0.198542
O O13 0.970924 0.775493 0.027911
O O14 0.000000 0.000000 0.000000
O O15 0.484673 0.101049 0.154621
O O16 0.250000 0.750000 0.000000
#
# Coordination Sequence:
#
# PCOD9286327 Si02
#       8
#     8   8   8   8   8   8   4   8
#     4  11  24  43  66 101 133 184 229 273 351 413
#     4  10  23  41  68  92 138 175 220 288 335 405
#     4  10  23  39  66  97 127 172 220 275 339 395
#     4  10  21  43  66  97 131 176 224 276 352 393
#     4  10  24  41  63  97 131 177 226 272 337 405
#     4  10  24  41  69  95 131 187 224 278 344 409
#     4  12  24  44  66  94 144 178 226 284 330 420
#     4  11  24  38  65 102 133 168 222 286 333 401
#
# _framework density 20.220262000000002
#
# number of rings (size 3 to 8) (size 9 to 14) (size 15 to 20)
#    0.000    1.600    2.667    0.400    3.733   10.667 
#    0.000    0.000    0.000    0.000    0.000    0.000 
#    0.000    0.000    0.000    0.000    0.000    0.000 
#
# Total GULP energy -167069.862226 kJ/mol
# GULP energy per Si atom -5568.995408 kJ/mol
# Density = 2.017424 g / cm^3
# Si number density = 20.220262 Si / 1000 Ang^3
#
#
#
# Elastic Constant Matrix: (Units=GPa)
#
#
# Indices 1 2 3 4 5 6 
#
# 1 43.2940 29.4306 4.0347 0.0000 -4.5950 0.0000
# 2 29.4306 99.8907 42.0559 0.0000 4.8846 0.0000
# 3 4.0347 42.0559 70.7480 0.0000 2.5337 0.0000
# 4 0.0000 0.0000 0.0000 33.1900 0.0000 0.4528
# 5 -4.5950 4.8846 2.5337 0.0000 24.8314 0.0000
# 6 0.0000 0.0000 0.0000 0.4528 0.0000 31.2602
#
#
#
# Elastic Compliance Matrix: (Units=1/GPa)
#
#
# Indices 1 2 3 4 5 6 
#
# 1 0.031385 -0.011672 0.004876 0.000000 0.007606 0.000000
# 2 -0.011672 0.017776 -0.009734 0.000000 -0.004663 0.000000
# 3 0.004876 -0.009734 0.019614 0.000000 0.000816 0.000000
# 4 0.000000 0.000000 0.000000 0.030136 0.000000 -0.000437
# 5 0.007606 -0.004663 0.000816 0.000000 0.042513 0.000000
# 6 0.000000 0.000000 0.000000 -0.000437 0.000000 0.031996
#
#
# Mechanical properties :
#
#
# Convention : Reuss Voigt Hill
#
# Bulk Modulus (GPa) = 27.99956 40.55279 34.27618
# Shear Modulus (GPa) = 22.89539 27.08376 24.98958
#
# Velocity S-wave (km/s) = 3.36862 3.66380 3.51931
# Velocity P-wave (km/s) = 5.38586 6.16417 5.78811
#
# Compressibility (1/GPa) = 0.03571484
#
# Stress axis : x y z
#
# Youngs Moduli (GPa) = 31.86240 56.25531 50.98430
#
# Poissons Ratio (x) = 0.65659 -0.24860
# Poissons Ratio (y) = 0.37189 0.49630
# Poissons Ratio (z) = -0.15536 0.54761
#
# Static dielectric constant tensor:
#      x y z
#    x 1.705810 0.000000 -0.021910 
#    y 0.000000 1.756650 0.000000 
#    z -0.021910 0.000000 1.704430 
# 
# From -- ./inp_files/111660.got.cif
#   From: 2010.05.17/outbox.cif.g08.bks.cpg/sg15_56_cif.got.tgz:111660.got - 2010.06.03 18:47:42.
