data_PCOD9286786
_publ_section_title
;
Structure prediction by ZEFSAII (Michael W. Deem and Ramdas Pophale) SiO2 
 PCOD9286786
Probable space group: C 2/C
;
_chemical_formula_sum "Si O2"
_cell_formula_units_Z 44
_cell_length_a 15.224970
_cell_length_b 24.195145
_cell_length_c 5.378681
_cell_angle_alpha 90.000000
_cell_angle_beta 110.260934
_cell_angle_gamma 90.000000
_cell_volume 1858.751346
_symmetry_space_group_name_H-M "C 2/C"
_symmetry_group_IT_number 15
_symmetry_cell_setting 'monoclinic'
loop_
_space_group_symop_operation_xyz
x,y,z
-x,y,1/2-z
-x,-y,-z
x,-y,1/2+z
1/2+x,1/2+y,z
1/2-x,1/2+y,1/2-z
1/2-x,1/2-y,-z
1/2+x,1/2-y,1/2+z
loop_
_atom_site_type_symbol
_atom_site_label
_atom_site_fract_x
_atom_site_fract_y
_atom_site_fract_z
Si Si1 0.500000 0.354890 0.250000
Si Si2 0.500000 0.153308 0.250000
Si Si3 0.671840 0.623209 0.212336
Si Si4 0.500000 0.082801 0.750000
Si Si5 0.792658 0.466852 0.099438
Si Si6 0.190935 0.301916 0.852497
Si Si7 0.901879 0.775729 0.549702
O O1 0.572346 0.390636 0.486928
O O2 0.433523 0.314107 0.345990
O O3 0.484616 0.117247 0.481581
O O4 0.407385 0.188994 0.109729
O O5 0.720596 0.581625 0.450140
O O6 0.751502 0.641761 0.095015
O O7 0.648071 0.681117 0.321576
O O8 0.402285 0.050110 0.689868
O O9 0.776193 0.511232 0.861553
O O10 0.157120 0.278862 0.554102
O O11 0.250000 0.250000 0.000000
O O12 0.000000 0.756822 0.750000
#
# Coordination Sequence:
#
# PCOD9286786 Si02
#       7
#     4   4   8   4   8   8   8
#     4  10  21  44  68  99 142 185 238 294 365 432
#     4  12  29  45  72 114 156 198 246 299 357 438
#     4  11  25  44  71 102 142 194 243 312 363 442
#     4  12  26  51  76 105 150 193 242 313 376 442
#     4  12  28  49  79 108 140 189 250 313 387 445
#     4  12  25  40  70 103 152 197 246 292 358 434
#     4  10  23  40  66  98 143 191 239 291 357 438
#
# _framework density 23.671806
#
# number of rings (size 3 to 8) (size 9 to 14) (size 15 to 20)
#    0.000    0.727    3.636    2.727    8.909    0.000 
#    0.000    0.909    0.000    0.000    0.000    0.000 
#    0.000    0.000    0.000    0.000    0.000    0.000 
#
# Total GULP energy -123000.252192 kJ/mol
# GULP energy per Si atom -5590.920554 kJ/mol
# Density = 2.361793 g / cm^3
# Si number density = 23.671806 Si / 1000 Ang^3
#
#
#
# Elastic Constant Matrix: (Units=GPa)
#
#
# Indices 1 2 3 4 5 6 
#
# 1 82.5404 12.7440 18.1178 0.0000 23.6117 0.0000
# 2 12.7440 54.6200 30.7645 0.0000 21.1050 0.0000
# 3 18.1178 30.7645 104.3121 0.0000 27.8436 0.0000
# 4 0.0000 0.0000 0.0000 46.7452 0.0000 -5.8517
# 5 23.6117 21.1050 27.8436 0.0000 51.8182 0.0000
# 6 0.0000 0.0000 0.0000 -5.8517 0.0000 1.1461
#
#
#
# Elastic Compliance Matrix: (Units=1/GPa)
#
#
# Indices 1 2 3 4 5 6 
#
# 1 0.014013 -0.000653 -0.000710 0.000000 -0.005738 0.000000
# 2 -0.000653 0.023953 -0.005168 0.000000 -0.006682 0.000000
# 3 -0.000710 -0.005168 0.012358 0.000000 -0.004212 0.000000
# 4 0.000000 0.000000 0.000000 0.059279 0.000000 0.302651
# 5 -0.005738 -0.006682 -0.004212 0.000000 0.026898 0.000000
# 6 0.000000 0.000000 0.000000 0.302651 0.000000 2.417688
#
#
# Mechanical properties :
#
#
# Convention : Reuss Voigt Hill
#
# Bulk Modulus (GPa) = 26.83497 40.52499 33.67998
# Shear Modulus (GPa) = 1.93823 31.93167 16.93495
#
# Velocity S-wave (km/s) = 0.90585 3.67677 2.67761
# Velocity P-wave (km/s) = 3.52916 5.93140 4.88039
#
# Compressibility (1/GPa) = 0.03726481
#
# Stress axis : x y z
#
# Youngs Moduli (GPa) = 71.36068 41.74848 80.91693
#
# Poissons Ratio (x) = 0.02724 0.05744
# Poissons Ratio (y) = 0.04657 0.41814
# Poissons Ratio (z) = 0.05065 0.21574
#
# Static dielectric constant tensor:
#      x y z
#    x 2.038330 0.000000 0.019770 
#    y 0.000000 1.868070 0.000000 
#    z 0.019770 0.000000 2.096850 
# 
# From -- ./inp_files/7997.got.cif
#   From: 2010.05.17/outbox.cif.g08.bks.cpg/sg15_4_cif.got.tgz:7997.got - 2010.06.03 18:47:42.
