data_PCOD9286832
_publ_section_title
;
Structure prediction by ZEFSAII (Michael W. Deem and Ramdas Pophale) SiO2 
 PCOD9286832
Probable space group: C 2/C
;
_chemical_formula_sum "Si O2"
_cell_formula_units_Z 40
_cell_length_a 9.185152
_cell_length_b 17.356788
_cell_length_c 12.125132
_cell_angle_alpha 90.000000
_cell_angle_beta 87.618322
_cell_angle_gamma 90.000000
_cell_volume 1931.376145
_symmetry_space_group_name_H-M "C 2/C"
_symmetry_group_IT_number 15
_symmetry_cell_setting 'monoclinic'
loop_
_space_group_symop_operation_xyz
x,y,z
-x,y,1/2-z
-x,-y,-z
x,-y,1/2+z
1/2+x,1/2+y,z
1/2-x,1/2+y,1/2-z
1/2-x,1/2-y,-z
1/2+x,1/2-y,1/2+z
loop_
_atom_site_type_symbol
_atom_site_label
_atom_site_fract_x
_atom_site_fract_y
_atom_site_fract_z
Si Si1 0.380327 0.910961 0.424654
Si Si2 0.779617 0.070766 0.344360
Si Si3 0.664007 0.399920 0.233447
Si Si4 0.000000 0.535861 0.250000
Si Si5 0.352618 0.200488 0.576830
Si Si6 0.000000 0.191004 0.250000
O O1 0.283167 0.937555 0.530637
O O2 0.264945 0.882242 0.336194
O O3 0.499641 0.847365 0.459465
O O4 0.463749 0.979361 0.354951
O O5 0.638630 0.086782 0.273320
O O6 0.898122 0.136582 0.327609
O O7 0.838141 0.990949 0.292244
O O8 0.500000 0.371344 0.250000
O O9 0.745275 0.363167 0.128571
O O10 0.250000 0.250000 0.500000
O O11 0.405136 0.256116 0.673143
#
# Coordination Sequence:
#
# PCOD9286832 Si02
#       6
#     8   8   8   4   8   4
#     4  11  22  46  72  97 144 183 231 284 357 414
#     4  11  25  40  76 103 135 180 236 292 348 406
#     4  11  24  47  70 105 138 186 235 290 349 423
#     4  10  21  44  70 105 136 172 232 292 341 424
#     4  12  27  46  71  97 147 194 229 289 361 419
#     4  12  27  50  62 115 146 168 246 304 329 428
#
# _framework density 20.710621
#
# number of rings (size 3 to 8) (size 9 to 14) (size 15 to 20)
#    0.000    0.800    7.000    0.600    5.600    4.800 
#    0.000    0.000    0.000    0.000    0.000    0.000 
#    0.000    0.000    0.000    0.000    0.000    0.000 
#
# Total GULP energy -111660.434363 kJ/mol
# GULP energy per Si atom -5583.021718 kJ/mol
# Density = 2.066348 g / cm^3
# Si number density = 20.710621 Si / 1000 Ang^3
#
#
#
# Elastic Constant Matrix: (Units=GPa)
#
#
# Indices 1 2 3 4 5 6 
#
# 1 117.3570 17.1757 18.4999 0.0000 -3.1508 0.0000
# 2 17.1757 39.0404 -1.8272 0.0000 4.0210 0.0000
# 3 18.4999 -1.8272 65.9441 0.0000 -0.5520 0.0000
# 4 0.0000 0.0000 0.0000 26.2995 0.0000 10.9963
# 5 -3.1508 4.0210 -0.5520 0.0000 38.4754 0.0000
# 6 0.0000 0.0000 0.0000 10.9963 0.0000 23.8994
#
#
#
# Elastic Compliance Matrix: (Units=1/GPa)
#
#
# Indices 1 2 3 4 5 6 
#
# 1 0.009659 -0.004507 -0.002824 0.000000 0.001221 0.000000
# 2 -0.004507 0.028028 0.002014 0.000000 -0.003269 0.000000
# 3 -0.002824 0.002014 0.016011 0.000000 -0.000212 0.000000
# 4 0.000000 0.000000 0.000000 0.047081 0.000000 -0.021662
# 5 0.001221 -0.003269 -0.000212 0.000000 0.026429 0.000000
# 6 0.000000 0.000000 0.000000 -0.021662 0.000000 0.051809
#
#
# Mechanical properties :
#
#
# Convention : Reuss Voigt Hill
#
# Bulk Modulus (GPa) = 23.22229 32.22647 27.72438
# Shear Modulus (GPa) = 24.50895 30.30105 27.40500
#
# Velocity S-wave (km/s) = 3.44379 3.82916 3.64157
# Velocity P-wave (km/s) = 5.20096 5.92824 5.57647
#
# Compressibility (1/GPa) = 0.04306208
#
# Stress axis : x y z
#
# Youngs Moduli (GPa) = 103.53381 35.67807 62.45814
#
# Poissons Ratio (x) = 0.16081 0.17640
# Poissons Ratio (y) = 0.46666 -0.12577
# Poissons Ratio (z) = 0.29241 -0.07185
#
# Static dielectric constant tensor:
#      x y z
#    x 1.715620 0.000000 0.037640 
#    y 0.000000 1.734270 0.000000 
#    z 0.037640 0.000000 1.733920 
# 
# From -- ./inp_files/76756.got.cif
#   From: 2010.05.17/outbox.cif.g08.bks.cpg/sg15_39_cif.got.tgz:76756.got - 2010.06.03 18:47:42.
