data_PCOD9286534
_publ_section_title
;
Structure prediction by ZEFSAII (Michael W. Deem and Ramdas Pophale) SiO2 
 PCOD9286534
Probable space group: C 2/C
;
_chemical_formula_sum "Si O2"
_cell_formula_units_Z 52
_cell_length_a 5.234560
_cell_length_b 25.749648
_cell_length_c 17.565844
_cell_angle_alpha 90.000000
_cell_angle_beta 120.097422
_cell_angle_gamma 90.000000
_cell_volume 2048.443324
_symmetry_space_group_name_H-M "C 2/C"
_symmetry_group_IT_number 15
_symmetry_cell_setting 'monoclinic'
loop_
_space_group_symop_operation_xyz
x,y,z
-x,y,1/2-z
-x,-y,-z
x,-y,1/2+z
1/2+x,1/2+y,z
1/2-x,1/2+y,1/2-z
1/2-x,1/2-y,-z
1/2+x,1/2-y,1/2+z
loop_
_atom_site_type_symbol
_atom_site_label
_atom_site_fract_x
_atom_site_fract_y
_atom_site_fract_z
Si Si1 0.328410 0.445305 0.032267
Si Si2 0.801446 0.602170 0.829855
Si Si3 0.614764 0.646122 0.078724
Si Si4 0.570590 0.996817 0.861368
Si Si5 0.854748 0.302894 0.091502
Si Si6 0.451178 0.757196 0.650837
Si Si7 0.000000 0.597158 0.250000
O O1 0.218488 0.408715 0.083167
O O2 0.597122 0.480966 0.103189
O O3 0.418546 0.404890 0.978375
O O4 0.101329 0.481535 0.953433
O O5 0.500000 0.622626 0.750000
O O6 0.868322 0.544990 0.809502
O O7 0.055687 0.643275 0.854131
O O8 0.888882 0.685623 0.107056
O O9 0.708015 0.627458 0.177580
O O10 0.343426 0.681499 0.010860
O O11 0.441614 0.944592 0.806967
O O12 0.691545 0.269416 0.132123
O O13 0.153564 0.277174 0.105206
O O14 0.500000 0.761533 0.750000
#
# Coordination Sequence:
#
# PCOD9286534 Si02
#       7
#     8   8   8   8   8   8   4
#     4  10  22  42  73 104 150 200 252 312 389 464
#     4  12  25  43  70 108 150 202 264 317 382 459
#     4  11  23  48  78 109 150 198 255 315 392 457
#     4  10  21  43  71 105 151 197 258 313 389 450
#     4  12  27  48  78 112 154 207 250 319 387 462
#     4  12  27  51  80 114 154 195 261 319 386 458
#     4  10  22  44  80 108 148 200 254 326 374 460
#
# _framework density 25.385128999999999
#
# number of rings (size 3 to 8) (size 9 to 14) (size 15 to 20)
#    0.000    0.923    2.308    4.154    0.000    2.462 
#    5.538    0.000    6.769    0.000    0.000    0.000 
#    0.000    0.000    0.000    0.000    0.000    0.000 
#
# Total GULP energy -145182.703309 kJ/mol
# GULP energy per Si atom -5583.950127 kJ/mol
# Density = 2.532735 g / cm^3
# Si number density = 25.385129 Si / 1000 Ang^3
#
#
#
# Elastic Constant Matrix: (Units=GPa)
#
#
# Indices 1 2 3 4 5 6 
#
# 1 57.1169 9.7569 29.2016 0.0000 -12.6598 0.0000
# 2 9.7569 96.1016 22.9332 0.0000 11.2402 0.0000
# 3 29.2016 22.9332 137.1262 0.0000 22.0386 0.0000
# 4 0.0000 0.0000 0.0000 19.8395 0.0000 -49.9223
# 5 -12.6598 11.2402 22.0386 0.0000 24.1324 0.0000
# 6 0.0000 0.0000 0.0000 -49.9223 0.0000 5.2624
#
#
#
# Elastic Compliance Matrix: (Units=1/GPa)
#
#
# Indices 1 2 3 4 5 6 
#
# 1 0.028684 -0.003603 -0.009604 0.000000 0.025496 0.000000
# 2 -0.003603 0.011626 -0.000004 0.000000 -0.007302 0.000000
# 3 -0.009604 -0.000004 0.011893 0.000000 -0.015898 0.000000
# 4 0.000000 0.000000 0.000000 -0.002204 0.000000 -0.020907
# 5 0.025496 -0.007302 -0.015898 0.000000 0.072733 0.000000
# 6 0.000000 0.000000 0.000000 -0.020907 0.000000 -0.008309
#
#
# Mechanical properties :
#
#
# Convention : Reuss Voigt Hill
#
# Bulk Modulus (GPa) = 38.78330 46.01424 42.39877
# Shear Modulus (GPa) = 33.45841 25.07705 29.26773
#
# Velocity S-wave (km/s) = 3.63441 3.14644 3.39919
# Velocity P-wave (km/s) = 5.73786 5.60053 5.66961
#
# Compressibility (1/GPa) = 0.02578430
#
# Stress axis : x y z
#
# Youngs Moduli (GPa) = 34.86207 86.01181 84.08029
#
# Poissons Ratio (x) = 0.30986 0.80748
# Poissons Ratio (y) = 0.12559 0.00031
# Poissons Ratio (z) = 0.33480 0.00032
#
# Static dielectric constant tensor:
#      x y z
#    x 2.049170 0.000000 -0.103530 
#    y 0.000000 2.050590 0.000000 
#    z -0.103530 0.000000 2.257870 
# 
# From -- ./inp_files/186311.got.cif
#   From: 2010.05.17/outbox.cif.g08.bks.cpg/sg15_94_cif.got.tgz:186311.got - 2010.06.03 18:47:42.
