data_PCOD9286492
_publ_section_title
;
Structure prediction by ZEFSAII (Michael W. Deem and Ramdas Pophale) SiO2 
 PCOD9286492
Probable space group: C 2/C
;
_chemical_formula_sum "Si O2"
_cell_formula_units_Z 48
_cell_length_a 5.370441
_cell_length_b 18.275544
_cell_length_c 22.622071
_cell_angle_alpha 90.000000
_cell_angle_beta 61.563219
_cell_angle_gamma 90.000000
_cell_volume 1952.409746
_symmetry_space_group_name_H-M "C 2/C"
_symmetry_group_IT_number 15
_symmetry_cell_setting 'monoclinic'
loop_
_space_group_symop_operation_xyz
x,y,z
-x,y,1/2-z
-x,-y,-z
x,-y,1/2+z
1/2+x,1/2+y,z
1/2-x,1/2+y,1/2-z
1/2-x,1/2-y,-z
1/2+x,1/2-y,1/2+z
loop_
_atom_site_type_symbol
_atom_site_label
_atom_site_fract_x
_atom_site_fract_y
_atom_site_fract_z
Si Si1 0.347044 0.984683 0.386071
Si Si2 0.000000 0.398283 0.250000
Si Si3 0.580945 0.660127 0.957386
Si Si4 0.482118 0.282248 0.581644
Si Si5 0.440050 0.721467 0.672160
Si Si6 0.871326 0.076673 0.376965
Si Si7 0.000000 0.847031 0.750000
O O1 0.473811 0.944972 0.312921
O O2 0.195051 0.921826 0.441699
O O3 0.595229 0.030057 0.390424
O O4 0.088918 0.033838 0.393295
O O5 0.273924 0.344610 0.222410
O O6 0.511327 0.688648 0.899500
O O7 0.849384 0.708196 0.946325
O O8 0.365782 0.681938 0.033898
O O9 0.678795 0.345736 0.585825
O O10 0.242251 0.255665 0.654695
O O11 0.243572 0.792324 0.700963
O O12 0.049490 0.098721 0.298679
#
# Coordination Sequence:
#
# PCOD9286492 Si02
#       7
#     8   4   8   8   8   8   4
#     4  11  26  47  68 107 144 187 233 289 358 424
#     4   9  22  44  70 106 139 190 234 298 359 430
#     4  10  24  46  69 104 134 185 240 292 348 420
#     4  11  24  44  75  98 138 185 238 293 351 415
#     4  10  21  43  70 105 135 179 240 298 348 413
#     4  12  26  45  70 104 145 185 232 289 356 424
#     4  11  22  44  68 104 137 178 232 284 347 418
#
# _framework density 24.585004999999999
#
# number of rings (size 3 to 8) (size 9 to 14) (size 15 to 20)
#    0.000    1.333    1.667    2.500    4.667    3.333 
#    3.000    0.000    0.000    0.000    0.000    0.000 
#    0.000    0.000    0.000    0.000    0.000    0.000 
#
# Total GULP energy -134112.186756 kJ/mol
# GULP energy per Si atom -5588.007782 kJ/mol
# Density = 2.452905 g / cm^3
# Si number density = 24.585005 Si / 1000 Ang^3
#
#
#
# Elastic Constant Matrix: (Units=GPa)
#
#
# Indices 1 2 3 4 5 6 
#
# 1 128.4288 71.9323 22.0685 0.0000 -4.1234 0.0000
# 2 71.9323 154.9412 44.2213 0.0000 0.7021 0.0000
# 3 22.0685 44.2213 70.6276 0.0000 12.7445 0.0000
# 4 0.0000 0.0000 0.0000 38.6172 0.0000 10.3915
# 5 -4.1234 0.7021 12.7445 0.0000 27.9091 0.0000
# 6 0.0000 0.0000 0.0000 10.3915 0.0000 34.0956
#
#
#
# Elastic Compliance Matrix: (Units=1/GPa)
#
#
# Indices 1 2 3 4 5 6 
#
# 1 0.010629 -0.004739 -0.000718 0.000000 0.002017 0.000000
# 2 -0.004739 0.010101 -0.005091 0.000000 0.001371 0.000000
# 3 -0.000718 -0.005091 0.019144 0.000000 -0.008720 0.000000
# 4 0.000000 0.000000 0.000000 0.028209 0.000000 -0.008597
# 5 0.002017 0.001371 -0.008720 0.000000 0.040076 0.000000
# 6 0.000000 0.000000 0.000000 -0.008597 0.000000 0.031950
#
#
# Mechanical properties :
#
#
# Convention : Reuss Voigt Hill
#
# Bulk Modulus (GPa) = 53.25327 70.04910 61.65118
# Shear Modulus (GPa) = 29.85736 34.50941 32.18338
#
# Velocity S-wave (km/s) = 3.48868 3.75063 3.62203
# Velocity P-wave (km/s) = 6.15920 6.87828 6.52865
#
# Compressibility (1/GPa) = 0.01877819
#
# Stress axis : x y z
#
# Youngs Moduli (GPa) = 94.08533 99.00248 52.23505
#
# Poissons Ratio (x) = 0.46913 0.03751
# Poissons Ratio (y) = 0.44583 0.26593
# Poissons Ratio (z) = 0.06757 0.50402
#
# Static dielectric constant tensor:
#      x y z
#    x 1.969140 0.000000 0.050000 
#    y 0.000000 1.937550 0.000000 
#    z 0.050000 0.000000 2.176150 
# 
# From -- ./inp_files/260868.got.cif
#   From: 2010.05.17/outbox.cif.g08.bks.cpg/sg15_131_cif.got.tgz:260868.got - 2010.06.03 18:47:42.
