data_PCOD9286224
_publ_section_title
;
Structure prediction by ZEFSAII (Michael W. Deem and Ramdas Pophale) SiO2 
 PCOD9286224
Probable space group: C 2/C
;
_chemical_formula_sum "Si O2"
_cell_formula_units_Z 56
_cell_length_a 12.233805
_cell_length_b 27.640804
_cell_length_c 9.064366
_cell_angle_alpha 90.000000
_cell_angle_beta 100.199785
_cell_angle_gamma 90.000000
_cell_volume 3016.694796
_symmetry_space_group_name_H-M "C 2/C"
_symmetry_group_IT_number 15
_symmetry_cell_setting 'monoclinic'
loop_
_space_group_symop_operation_xyz
x,y,z
-x,y,1/2-z
-x,-y,-z
x,-y,1/2+z
1/2+x,1/2+y,z
1/2-x,1/2+y,1/2-z
1/2-x,1/2-y,-z
1/2+x,1/2-y,1/2+z
loop_
_atom_site_type_symbol
_atom_site_label
_atom_site_fract_x
_atom_site_fract_y
_atom_site_fract_z
Si Si1 0.234245 0.193084 0.481629
Si Si2 0.114540 0.134349 0.192508
Si Si3 0.290542 0.547704 0.477255
Si Si4 0.964202 0.853093 0.406933
Si Si5 0.101784 0.614368 0.886584
Si Si6 0.028460 0.450540 0.926210
Si Si7 0.679190 0.556204 0.669034
O O1 0.250000 0.250000 0.500000
O O2 0.188678 0.167716 0.318425
O O3 0.139747 0.179215 0.575970
O O4 0.344899 0.164922 0.554465
O O5 0.171143 0.087291 0.134513
O O6 0.000000 0.121142 0.250000
O O7 0.065631 0.160715 0.037026
O O8 0.336248 0.551627 0.656821
O O9 0.316572 0.495261 0.412689
O O10 0.159621 0.556612 0.469287
O O11 0.917640 0.908257 0.414028
O O12 0.000000 0.847354 0.250000
O O13 0.202821 0.582323 0.842114
O O14 0.000000 0.618354 0.750000
O O15 0.049163 0.589033 0.016659
O O16 0.000000 0.455347 0.750000
O O17 0.000000 0.500000 0.000000
#
# Coordination Sequence:
#
# PCOD9286224 Si02
#       7
#     8   8   8   8   8   8   8
#     4  10  24  45  69  93 121 160 218 276 333 396
#     4  10  23  42  65  89 128 167 213 263 328 378
#     4  12  23  36  59  92 132 176 222 255 312 379
#     4  10  21  43  64  90 128 169 209 265 325 379
#     4  11  22  41  60  90 127 172 210 262 334 390
#     4  12  22  35  57  88 132 176 213 254 318 382
#     4  11  24  35  59  92 134 175 216 258 305 389
#
# _framework density 18.563362999999999
#
# number of rings (size 3 to 8) (size 9 to 14) (size 15 to 20)
#    0.000    1.143    4.286    2.143    6.000    2.857 
#    0.000    2.857    0.000    0.000    0.000    0.000 
#    0.000    0.000    0.000    0.000    0.000    0.000 
#
# Total GULP energy -156237.657282 kJ/mol
# GULP energy per Si atom -5579.916331 kJ/mol
# Density = 1.852111 g / cm^3
# Si number density = 18.563363 Si / 1000 Ang^3
#
#
#
# Elastic Constant Matrix: (Units=GPa)
#
#
# Indices 1 2 3 4 5 6 
#
# 1 62.3342 49.9602 43.7523 0.0000 -7.9569 0.0000
# 2 49.9602 146.3352 49.0016 0.0000 -16.9942 0.0000
# 3 43.7523 49.0016 137.8501 0.0000 -12.8961 0.0000
# 4 0.0000 0.0000 0.0000 17.2599 0.0000 -1.2749
# 5 -7.9569 -16.9942 -12.8961 0.0000 30.0982 0.0000
# 6 0.0000 0.0000 0.0000 -1.2749 0.0000 13.8381
#
#
#
# Elastic Compliance Matrix: (Units=1/GPa)
#
#
# Indices 1 2 3 4 5 6 
#
# 1 0.025476 -0.006751 -0.005639 0.000000 0.000507 0.000000
# 2 -0.006751 0.009880 -0.001057 0.000000 0.003341 0.000000
# 3 -0.005639 -0.001057 0.009610 0.000000 0.002030 0.000000
# 4 0.000000 0.000000 0.000000 0.058335 0.000000 0.005374
# 5 0.000507 0.003341 0.002030 0.000000 0.036115 0.000000
# 6 0.000000 0.000000 0.000000 0.005374 0.000000 0.072760
#
#
# Mechanical properties :
#
#
# Convention : Reuss Voigt Hill
#
# Bulk Modulus (GPa) = 55.33102 70.21640 62.77371
# Shear Modulus (GPa) = 20.40057 25.82627 23.11342
#
# Velocity S-wave (km/s) = 3.31867 3.73399 3.53244
# Velocity P-wave (km/s) = 6.67503 7.51649 7.10822
#
# Compressibility (1/GPa) = 0.01807305
#
# Stress axis : x y z
#
# Youngs Moduli (GPa) = 39.25331 101.21164 104.06325
#
# Poissons Ratio (x) = 0.68323 0.58677
# Poissons Ratio (y) = 0.26498 0.11000
# Poissons Ratio (z) = 0.22133 0.10698
#
# Static dielectric constant tensor:
#      x y z
#    x 1.641990 0.000000 -0.014880 
#    y 0.000000 1.662090 0.000000 
#    z -0.014880 0.000000 1.830740 
# 
# From -- ./inp_files/34312.got.cif
#   From: 2010.05.17/outbox.cif.g08.bks.cpg/sg15_18_cif.got.tgz:34312.got - 2010.06.03 18:47:42.
