data_PCOD9286852
_publ_section_title
;
Structure prediction by ZEFSAII (Michael W. Deem and Ramdas Pophale) SiO2 
 PCOD9286852
Probable space group: C 2/C
;
_chemical_formula_sum "Si O2"
_cell_formula_units_Z 64
_cell_length_a 16.340427
_cell_length_b 9.035109
_cell_length_c 30.000460
_cell_angle_alpha 90.000000
_cell_angle_beta 138.739479
_cell_angle_gamma 90.000000
_cell_volume 2920.982018
_symmetry_space_group_name_H-M "C 2/C"
_symmetry_group_IT_number 15
_symmetry_cell_setting 'monoclinic'
loop_
_space_group_symop_operation_xyz
x,y,z
-x,y,1/2-z
-x,-y,-z
x,-y,1/2+z
1/2+x,1/2+y,z
1/2-x,1/2+y,1/2-z
1/2-x,1/2-y,-z
1/2+x,1/2-y,1/2+z
loop_
_atom_site_type_symbol
_atom_site_label
_atom_site_fract_x
_atom_site_fract_y
_atom_site_fract_z
Si Si1 0.808008 0.751798 0.661059
Si Si2 0.864744 0.558157 0.601768
Si Si3 0.036721 0.633857 0.948255
Si Si4 0.232643 0.759721 0.545990
Si Si5 0.449734 0.831018 0.943716
Si Si6 0.360781 0.400199 0.176710
Si Si7 0.307015 0.722794 0.322767
Si Si8 0.142890 0.438478 0.238079
O O1 0.834748 0.689542 0.623120
O O2 0.664517 0.732466 0.618013
O O3 0.879181 0.654461 0.726197
O O4 0.838222 0.925347 0.674562
O O5 0.773042 0.424974 0.574986
O O6 0.863796 0.606386 0.549620
O O7 0.006655 0.504790 0.667840
O O8 0.952775 0.484683 0.917877
O O9 0.949028 0.770611 0.898689
O O10 0.082764 0.643869 0.017509
O O11 0.250000 0.750000 0.500000
O O12 0.320296 0.648841 0.610247
O O13 0.088897 0.729193 0.497986
O O14 0.500000 0.367242 0.250000
O O15 0.272511 0.303151 0.171912
O O16 0.241719 0.568302 0.285583
O O17 0.310952 0.824389 0.280490
#
# Coordination Sequence:
#
# PCOD9286852 Si02
#       8
#     8   8   8   8   8   8   8   8
#     4  12  26  44  70 105 147 186 235 299 364 425
#     4  11  25  44  68 101 145 184 228 297 358 416
#     4  10  21  44  70  97 135 188 226 286 355 413
#     4  12  25  45  74 108 140 192 246 295 352 433
#     4  11  22  44  73  96 139 186 237 285 354 422
#     4  12  24  42  72 104 143 190 242 295 358 429
#     4  11  22  42  70 100 135 185 237 281 357 423
#     4  11  25  43  70 102 141 182 234 299 354 429
#
# _framework density 21.910439
#
# number of rings (size 3 to 8) (size 9 to 14) (size 15 to 20)
#    0.000    0.750    3.750    4.125    1.750    3.000 
#    0.000    0.000    0.000    0.000    0.000    0.000 
#    0.000    0.000    0.000    0.000    0.000    0.000 
#
# Total GULP energy -178912.563556 kJ/mol
# GULP energy per Si atom -5591.017611 kJ/mol
# Density = 2.186057 g / cm^3
# Si number density = 21.910439 Si / 1000 Ang^3
#
#
#
# Elastic Constant Matrix: (Units=GPa)
#
#
# Indices 1 2 3 4 5 6 
#
# 1 71.8801 14.6114 42.4759 0.0000 -16.2828 0.0000
# 2 14.6114 50.2903 17.8156 0.0000 -2.7492 0.0000
# 3 42.4759 17.8156 87.1892 0.0000 2.1171 0.0000
# 4 0.0000 0.0000 0.0000 27.6409 0.0000 6.4357
# 5 -16.2828 -2.7492 2.1171 0.0000 49.6912 0.0000
# 6 0.0000 0.0000 0.0000 6.4357 0.0000 24.5426
#
#
#
# Elastic Compliance Matrix: (Units=1/GPa)
#
#
# Indices 1 2 3 4 5 6 
#
# 1 0.022398 -0.002326 -0.010622 0.000000 0.007663 0.000000
# 2 -0.002326 0.021772 -0.003330 0.000000 0.000584 0.000000
# 3 -0.010622 -0.003330 0.017432 0.000000 -0.004408 0.000000
# 4 0.000000 0.000000 0.000000 0.038531 0.000000 -0.010104
# 5 0.007663 0.000584 -0.004408 0.000000 0.022855 0.000000
# 6 0.000000 0.000000 0.000000 -0.010104 0.000000 0.043395
#
#
# Mechanical properties :
#
#
# Convention : Reuss Voigt Hill
#
# Bulk Modulus (GPa) = 34.42877 39.90727 37.16802
# Shear Modulus (GPa) = 23.96702 29.33873 26.65288
#
# Velocity S-wave (km/s) = 3.31095 3.66325 3.49154
# Velocity P-wave (km/s) = 5.51036 6.01214 5.76671
#
# Compressibility (1/GPa) = 0.02904547
#
# Stress axis : x y z
#
# Youngs Moduli (GPa) = 44.64732 45.93098 57.36686
#
# Poissons Ratio (x) = 0.10681 0.60937
# Poissons Ratio (y) = 0.10383 0.19103
# Poissons Ratio (z) = 0.47426 0.15295
#
# Static dielectric constant tensor:
#      x y z
#    x 1.785620 0.000000 0.006940 
#    y 0.000000 1.781720 0.000000 
#    z 0.006940 0.000000 1.855210 
# 
# From -- ./inp_files/313183.got.cif
#   From: 2010.05.17/outbox.cif.g08.bks.cpg/sg15_157_cif.got.tgz:313183.got - 2010.06.03 18:47:42.
