data_PCOD9286452
_publ_section_title
;
Structure prediction by ZEFSAII (Michael W. Deem and Ramdas Pophale) SiO2 
 PCOD9286452
Probable space group: C 2/C
;
_chemical_formula_sum "Si O2"
_cell_formula_units_Z 60
_cell_length_a 10.142539
_cell_length_b 17.346984
_cell_length_c 17.537772
_cell_angle_alpha 90.000000
_cell_angle_beta 92.814870
_cell_angle_gamma 90.000000
_cell_volume 3081.915727
_symmetry_space_group_name_H-M "C 2/C"
_symmetry_group_IT_number 15
_symmetry_cell_setting 'monoclinic'
loop_
_space_group_symop_operation_xyz
x,y,z
-x,y,1/2-z
-x,-y,-z
x,-y,1/2+z
1/2+x,1/2+y,z
1/2-x,1/2+y,1/2-z
1/2-x,1/2-y,-z
1/2+x,1/2-y,1/2+z
loop_
_atom_site_type_symbol
_atom_site_label
_atom_site_fract_x
_atom_site_fract_y
_atom_site_fract_z
Si Si1 0.563631 0.916071 0.506480
Si Si2 0.224663 0.395240 0.355659
Si Si3 0.280513 0.873027 0.839159
Si Si4 0.365266 0.540631 0.291189
Si Si5 0.000000 0.677773 0.750000
Si Si6 0.508838 0.309945 0.630769
Si Si7 0.596862 0.238494 0.480657
Si Si8 0.553498 0.725460 0.672031
O O1 0.648264 0.900644 0.433064
O O2 0.656201 0.908566 0.583317
O O3 0.453869 0.849011 0.510860
O O4 0.500000 0.000000 0.500000
O O5 0.303631 0.473096 0.339187
O O6 0.331945 0.327578 0.358784
O O7 0.117634 0.373254 0.287673
O O8 0.242481 0.934642 0.774446
O O9 0.380553 0.808617 0.811444
O O10 0.142248 0.831359 0.855258
O O11 0.500000 0.517979 0.250000
O O12 0.404488 0.616835 0.340592
O O13 0.045465 0.736030 0.683813
O O14 0.523885 0.288479 0.543376
O O15 0.750000 0.250000 0.500000
O O16 0.557518 0.264978 0.395098
O O17 0.500000 0.693559 0.750000
#
# Coordination Sequence:
#
# PCOD9286452 Si02
#       8
#     8   8   8   8   4   8   8   8
#     4  11  26  44  62  95 130 173 214 273 337 391
#     4  12  25  42  63  96 134 166 213 278 332 389
#     4  10  21  43  69  87 128 171 221 262 318 401
#     4  10  23  41  66  98 131 171 216 266 325 396
#     4  12  22  40  76  92 126 178 222 272 316 402
#     4  11  20  44  68  95 122 180 221 260 326 392
#     4  11  26  42  67  95 130 170 221 272 319 395
#     4  11  24  42  67  97 129 169 219 273 328 388
#
# _framework density 19.468411
#
# number of rings (size 3 to 8) (size 9 to 14) (size 15 to 20)
#    0.000    1.067    4.667    1.200    7.467    3.200 
#    4.800    3.333    0.000    0.000    0.000    0.000 
#    0.000    0.000    0.000    0.000    0.000    0.000 
#
# Total GULP energy -167729.444811 kJ/mol
# GULP energy per Si atom -5590.981494 kJ/mol
# Density = 1.942410 g / cm^3
# Si number density = 19.468411 Si / 1000 Ang^3
#
#
#
# Elastic Constant Matrix: (Units=GPa)
#
#
# Indices 1 2 3 4 5 6 
#
# 1 87.7876 41.9413 39.0086 0.0000 22.6024 0.0000
# 2 41.9413 90.5627 42.9604 0.0000 8.6530 0.0000
# 3 39.0086 42.9604 94.5730 0.0000 6.7898 0.0000
# 4 0.0000 0.0000 0.0000 29.2232 0.0000 -1.2230
# 5 22.6024 8.6530 6.7898 0.0000 35.7334 0.0000
# 6 0.0000 0.0000 0.0000 -1.2230 0.0000 28.3118
#
#
#
# Elastic Compliance Matrix: (Units=1/GPa)
#
#
# Indices 1 2 3 4 5 6 
#
# 1 0.018439 -0.005543 -0.004407 0.000000 -0.009484 0.000000
# 2 -0.005543 0.015918 -0.004987 0.000000 0.000599 0.000000
# 3 -0.004407 -0.004987 0.014569 0.000000 0.001227 0.000000
# 4 0.000000 0.000000 0.000000 0.034281 0.000000 0.001481
# 5 -0.009484 0.000599 0.001227 0.000000 0.033606 0.000000
# 6 0.000000 0.000000 0.000000 0.001481 0.000000 0.035385
#
#
# Mechanical properties :
#
#
# Convention : Reuss Voigt Hill
#
# Bulk Modulus (GPa) = 52.48916 57.86043 55.17479
# Shear Modulus (GPa) = 26.53603 28.58787 27.56195
#
# Velocity S-wave (km/s) = 3.69593 3.83616 3.76670
# Velocity P-wave (km/s) = 6.72554 7.02895 6.87892
#
# Compressibility (1/GPa) = 0.01905155
#
# Stress axis : x y z
#
# Youngs Moduli (GPa) = 54.23208 62.82283 68.63860
#
# Poissons Ratio (x) = 0.34822 0.30248
# Poissons Ratio (y) = 0.30060 0.34233
# Poissons Ratio (z) = 0.23899 0.31333
#
# Static dielectric constant tensor:
#      x y z
#    x 1.665460 0.000000 -0.011500 
#    y 0.000000 1.670990 0.000000 
#    z -0.011500 0.000000 1.676300 
# 
# From -- ./inp_files/191004.got.cif
#   From: 2010.05.17/outbox.cif.g08.bks.cpg/sg15_96_cif.got.tgz:191004.got - 2010.06.03 18:47:42.
