data_PCOD9286671
_publ_section_title
;
Structure prediction by ZEFSAII (Michael W. Deem and Ramdas Pophale) SiO2 
 PCOD9286671
Probable space group: C 2/C
;
_chemical_formula_sum "Si O2"
_cell_formula_units_Z 52
_cell_length_a 12.626159
_cell_length_b 19.229765
_cell_length_c 10.062537
_cell_angle_alpha 90.000000
_cell_angle_beta 121.678526
_cell_angle_gamma 90.000000
_cell_volume 2079.152573
_symmetry_space_group_name_H-M "C 2/C"
_symmetry_group_IT_number 15
_symmetry_cell_setting 'monoclinic'
loop_
_space_group_symop_operation_xyz
x,y,z
-x,y,1/2-z
-x,-y,-z
x,-y,1/2+z
1/2+x,1/2+y,z
1/2-x,1/2+y,1/2-z
1/2-x,1/2-y,-z
1/2+x,1/2-y,1/2+z
loop_
_atom_site_type_symbol
_atom_site_label
_atom_site_fract_x
_atom_site_fract_y
_atom_site_fract_z
Si Si1 0.593345 0.608608 0.047881
Si Si2 0.000000 0.540489 0.750000
Si Si3 0.000000 0.797581 0.250000
Si Si4 0.250000 0.750000 0.000000
Si Si5 0.135836 0.882599 0.919599
Si Si6 0.750778 0.018766 0.529152
Si Si7 0.176583 0.373882 0.201982
Si Si8 0.774688 0.271437 0.731993
O O1 0.496786 0.600368 0.104540
O O2 0.711928 0.656593 0.155581
O O3 0.518318 0.651792 0.887010
O O4 0.649120 0.540141 0.016609
O O5 0.049413 0.590007 0.664198
O O6 0.883904 0.495129 0.624000
O O7 0.881190 0.750124 0.199388
O O8 0.356546 0.695752 0.126702
O O9 0.169419 0.731147 0.082233
O O10 0.197987 0.945965 0.880492
O O11 0.239139 0.873936 0.108144
O O12 0.738548 0.078522 0.630524
O O13 0.177035 0.293470 0.163093
#
# Coordination Sequence:
#
# PCOD9286671 Si02
#       8
#     8   4   4   4   8   8   8   8
#     4  12  23  43  70 102 134 175 230 275 342 407
#     4  10  24  41  60  94 129 174 232 270 332 401
#     4  12  22  47  66 100 139 176 224 274 346 407
#     4  10  22  46  66  96 138 170 226 278 330 402
#     4  10  23  43  68  99 131 175 226 279 339 396
#     4  11  23  41  68  96 137 175 221 280 339 404
#     4  10  21  44  65  91 130 180 218 273 346 399
#     4  11  25  43  71 100 130 180 229 278 342 398
#
# _framework density 25.010187999999999
#
# number of rings (size 3 to 8) (size 9 to 14) (size 15 to 20)
#    0.000    1.231    4.615    1.385    0.000    7.385 
#    0.000    3.077    0.000    0.000    0.000    0.000 
#    0.000    0.000    0.000    0.000    0.000    0.000 
#
# Total GULP energy -145033.456258 kJ/mol
# GULP energy per Si atom -5578.209856 kJ/mol
# Density = 2.495326 g / cm^3
# Si number density = 25.010188 Si / 1000 Ang^3
#
#
#
# Elastic Constant Matrix: (Units=GPa)
#
#
# Indices 1 2 3 4 5 6 
#
# 1 113.7067 14.5739 -11.8512 0.0000 0.0927 0.0000
# 2 14.5739 89.6893 -4.2379 0.0000 12.6509 0.0000
# 3 -11.8512 -4.2379 39.3626 0.0000 5.7835 0.0000
# 4 0.0000 0.0000 0.0000 46.2089 0.0000 4.1734
# 5 0.0927 12.6509 5.7835 0.0000 40.7697 0.0000
# 6 0.0000 0.0000 0.0000 4.1734 0.0000 47.3731
#
#
#
# Elastic Compliance Matrix: (Units=1/GPa)
#
#
# Indices 1 2 3 4 5 6 
#
# 1 0.009246 -0.001383 0.002630 0.000000 0.000035 0.000000
# 2 -0.001383 0.011997 0.001452 0.000000 -0.003925 0.000000
# 3 0.002630 0.001452 0.026982 0.000000 -0.004284 0.000000
# 4 0.000000 0.000000 0.000000 0.021814 0.000000 -0.001922
# 5 0.000035 -0.003925 -0.004284 0.000000 0.026354 0.000000
# 6 0.000000 0.000000 0.000000 -0.001922 0.000000 0.021278
#
#
# Mechanical properties :
#
#
# Convention : Reuss Voigt Hill
#
# Bulk Modulus (GPa) = 18.64910 26.63646 22.64278
# Shear Modulus (GPa) = 38.41772 43.15527 40.78650
#
# Velocity S-wave (km/s) = 3.92354 4.15843 4.04269
# Velocity P-wave (km/s) = 5.29135 5.80776 5.55556
#
# Compressibility (1/GPa) = 0.05362189
#
# Stress axis : x y z
#
# Youngs Moduli (GPa) = 108.15629 83.35669 37.06127
#
# Poissons Ratio (x) = 0.11529 -0.09746
# Poissons Ratio (y) = 0.14959 -0.05381
# Poissons Ratio (z) = -0.28441 -0.12103
#
# Static dielectric constant tensor:
#      x y z
#    x 2.004140 0.000000 -0.098320 
#    y 0.000000 3.088160 0.000000 
#    z -0.098320 0.000000 2.124610 
# 
# From -- ./inp_files/89753.got.cif
#   From: 2010.05.17/outbox.cif.g08.bks.cpg/sg15_45_cif.got.tgz:89753.got - 2010.06.03 18:47:42.
