data_PCOD9286798
_publ_section_title
;
Structure prediction by ZEFSAII (Michael W. Deem and Ramdas Pophale) SiO2 
 PCOD9286798
Probable space group: C 2/C
;
_chemical_formula_sum "Si O2"
_cell_formula_units_Z 56
_cell_length_a 20.158613
_cell_length_b 11.958062
_cell_length_c 10.800427
_cell_angle_alpha 90.000000
_cell_angle_beta 95.420563
_cell_angle_gamma 90.000000
_cell_volume 2591.886075
_symmetry_space_group_name_H-M "C 2/C"
_symmetry_group_IT_number 15
_symmetry_cell_setting 'monoclinic'
loop_
_space_group_symop_operation_xyz
x,y,z
-x,y,1/2-z
-x,-y,-z
x,-y,1/2+z
1/2+x,1/2+y,z
1/2-x,1/2+y,1/2-z
1/2-x,1/2-y,-z
1/2+x,1/2-y,1/2+z
loop_
_atom_site_type_symbol
_atom_site_label
_atom_site_fract_x
_atom_site_fract_y
_atom_site_fract_z
Si Si1 0.108808 0.483137 0.388767
Si Si2 0.574703 0.750442 0.430637
Si Si3 0.059870 0.602202 0.623884
Si Si4 0.579418 0.440719 0.745850
Si Si5 0.071782 0.194004 0.706870
Si Si6 0.810098 0.687575 0.151429
Si Si7 0.162235 0.794546 0.603511
O O1 0.123034 0.357374 0.435616
O O2 0.065777 0.540177 0.492077
O O3 0.071647 0.474113 0.248075
O O4 0.172626 0.561604 0.386217
O O5 0.504682 0.815555 0.385397
O O6 0.601816 0.653385 0.347037
O O7 0.562630 0.693142 0.558990
O O8 0.122747 0.685145 0.639209
O O9 0.500000 0.431319 0.750000
O O10 0.592156 0.571820 0.760894
O O11 0.613000 0.397224 0.624936
O O12 0.131371 0.278126 0.745922
O O13 0.000000 0.226872 0.750000
O O14 0.734109 0.693854 0.179582
O O15 0.821834 0.771357 0.037466
#
# Coordination Sequence:
#
# PCOD9286798 Si02
#       7
#     8   8   8   8   8   8   8
#     4  11  22  38  68  98 137 176 222 278 336 407
#     4  12  23  42  66 102 133 177 223 278 353 398
#     4  11  22  40  70 102 142 181 224 281 346 408
#     4  11  23  41  69  95 128 176 220 281 333 399
#     4  11  26  41  67 100 138 171 230 284 333 413
#     4  10  24  43  66 100 130 185 224 274 341 405
#     4  10  21  44  69  90 137 181 227 272 335 413
#
# _framework density 21.605889000000001
#
# number of rings (size 3 to 8) (size 9 to 14) (size 15 to 20)
#    0.000    1.143    2.857    3.429    2.000    4.571 
#    0.000    2.143    0.000    0.000    0.000    0.000 
#    0.000    0.000    0.000    0.000    0.000    0.000 
#
# Total GULP energy -156149.373746 kJ/mol
# GULP energy per Si atom -5576.763348 kJ/mol
# Density = 2.155671 g / cm^3
# Si number density = 21.605889 Si / 1000 Ang^3
#
#
#
# Elastic Constant Matrix: (Units=GPa)
#
#
# Indices 1 2 3 4 5 6 
#
# 1 104.4094 45.5026 11.4546 0.0000 -6.4133 0.0000
# 2 45.5026 108.3429 12.1786 0.0000 0.2035 0.0000
# 3 11.4546 12.1786 93.6169 0.0000 -4.3665 0.0000
# 4 0.0000 0.0000 0.0000 28.6142 0.0000 5.7689
# 5 -6.4133 0.2035 -4.3665 0.0000 17.5888 0.0000
# 6 0.0000 0.0000 0.0000 5.7689 0.0000 11.1676
#
#
#
# Elastic Compliance Matrix: (Units=1/GPa)
#
#
# Indices 1 2 3 4 5 6 
#
# 1 0.012099 -0.005019 -0.000626 0.000000 0.004314 0.000000
# 2 -0.005019 0.011452 -0.000979 0.000000 -0.002205 0.000000
# 3 -0.000626 -0.000979 0.011003 0.000000 0.002515 0.000000
# 4 0.000000 0.000000 0.000000 0.039010 0.000000 -0.020152
# 5 0.004314 -0.002205 0.002515 0.000000 0.059077 0.000000
# 6 0.000000 0.000000 0.000000 -0.020152 0.000000 0.099955
#
#
# Mechanical properties :
#
#
# Convention : Reuss Voigt Hill
#
# Bulk Modulus (GPa) = 46.93466 49.40452 48.16959
# Shear Modulus (GPa) = 19.76708 27.28969 23.52839
#
# Velocity S-wave (km/s) = 3.02800 3.55782 3.30355
# Velocity P-wave (km/s) = 5.83055 6.30820 6.07407
#
# Compressibility (1/GPa) = 0.02130622
#
# Stress axis : x y z
#
# Youngs Moduli (GPa) = 82.65346 87.32088 90.88401
#
# Poissons Ratio (x) = 0.43826 0.05691
# Poissons Ratio (y) = 0.41484 0.08893
# Poissons Ratio (z) = 0.05176 0.08545
#
# Static dielectric constant tensor:
#      x y z
#    x 1.818120 0.000000 -0.014260 
#    y 0.000000 1.802170 0.000000 
#    z -0.014260 0.000000 1.888110 
# 
# From -- ./inp_files/111078.got.cif
#   From: 2010.05.17/outbox.cif.g08.bks.cpg/sg15_56_cif.got.tgz:111078.got - 2010.06.03 18:47:42.
