data_PCOD9286907
_publ_section_title
;
Structure prediction by ZEFSAII (Michael W. Deem and Ramdas Pophale) SiO2 
 PCOD9286907
Probable space group: C 2/C
;
_chemical_formula_sum "Si O2"
_cell_formula_units_Z 40
_cell_length_a 14.035523
_cell_length_b 5.578138
_cell_length_c 18.434502
_cell_angle_alpha 90.000000
_cell_angle_beta 101.364789
_cell_angle_gamma 90.000000
_cell_volume 1414.976498
_symmetry_space_group_name_H-M "C 2/C"
_symmetry_group_IT_number 15
_symmetry_cell_setting 'monoclinic'
loop_
_space_group_symop_operation_xyz
x,y,z
-x,y,1/2-z
-x,-y,-z
x,-y,1/2+z
1/2+x,1/2+y,z
1/2-x,1/2+y,1/2-z
1/2-x,1/2-y,-z
1/2+x,1/2-y,1/2+z
loop_
_atom_site_type_symbol
_atom_site_label
_atom_site_fract_x
_atom_site_fract_y
_atom_site_fract_z
Si Si1 0.126992 0.253082 0.008789
Si Si2 0.750000 0.250000 0.000000
Si Si3 0.100377 0.238248 0.563009
Si Si4 0.147910 0.588220 0.675766
Si Si5 0.660385 0.457389 0.364044
Si Si6 0.500000 0.349719 0.750000
O O1 0.111998 0.265174 0.099205
O O2 0.162919 0.958277 0.027830
O O3 0.171978 0.233240 0.930280
O O4 0.011213 0.234663 0.970058
O O5 0.846286 0.446345 0.981769
O O6 0.696345 0.300713 0.909960
O O7 0.121937 0.317053 0.646835
O O8 0.264073 0.605038 0.688947
O O9 0.086766 0.684830 0.732402
O O10 0.553191 0.492350 0.318449
#
# Coordination Sequence:
#
# PCOD9286907 Si02
#       6
#     8   4   8   8   8   4
#     4   9  18  40  76 109 142 199 272 329 395 471
#     4   8  16  36  70 106 142 192 268 320 392 464
#     4   8  17  33  71 108 135 189 261 324 384 463
#     4   9  22  44  73 106 155 208 260 329 410 484
#     4  10  21  44  75 115 152 215 269 346 408 490
#     4  12  26  48  74 116 176 212 274 336 434 502
#
# _framework density 28.269023000000001
#
# number of rings (size 3 to 8) (size 9 to 14) (size 15 to 20)
#    1.200    1.600    0.000    0.600    2.800    0.800 
#   10.800   10.000    0.000    0.000    0.000    0.000 
#    0.000    0.000    0.000    0.000    0.000    0.000 
#
# Total GULP energy -111451.025158 kJ/mol
# GULP energy per Si atom -5572.551258 kJ/mol
# Density = 2.820468 g / cm^3
# Si number density = 28.269023 Si / 1000 Ang^3
#
#
#
# Elastic Constant Matrix: (Units=GPa)
#
#
# Indices 1 2 3 4 5 6 
#
# 1 176.3477 61.2578 26.0116 0.0000 -8.5764 0.0000
# 2 61.2578 133.6813 60.9615 0.0000 -5.7812 0.0000
# 3 26.0116 60.9615 98.7030 0.0000 8.4207 0.0000
# 4 0.0000 0.0000 0.0000 28.7734 0.0000 -15.3115
# 5 -8.5764 -5.7812 8.4207 0.0000 70.0242 0.0000
# 6 0.0000 0.0000 0.0000 -15.3115 0.0000 62.5730
#
#
#
# Elastic Compliance Matrix: (Units=1/GPa)
#
#
# Indices 1 2 3 4 5 6 
#
# 1 0.006768 -0.003121 0.000096 0.000000 0.000560 0.000000
# 2 -0.003121 0.012045 -0.006738 0.000000 0.001422 0.000000
# 3 0.000096 -0.006738 0.014462 0.000000 -0.002284 0.000000
# 4 0.000000 0.000000 0.000000 0.039957 0.000000 0.009777
# 5 0.000560 0.001422 -0.002284 0.000000 0.014741 0.000000
# 6 0.000000 0.000000 0.000000 0.009777 0.000000 0.018374
#
#
# Mechanical properties :
#
#
# Convention : Reuss Voigt Hill
#
# Bulk Modulus (GPa) = 72.72940 78.35486 75.54213
# Shear Modulus (GPa) = 38.32706 49.64088 43.98397
#
# Velocity S-wave (km/s) = 3.68611 4.19503 3.94878
# Velocity P-wave (km/s) = 6.62571 7.15836 6.89718
#
# Compressibility (1/GPa) = 0.01374960
#
# Stress axis : x y z
#
# Youngs Moduli (GPa) = 147.75960 83.02314 69.14452
#
# Poissons Ratio (x) = 0.25911 -0.00666
# Poissons Ratio (y) = 0.46115 0.46590
# Poissons Ratio (z) = -0.01423 0.55942
#
# Static dielectric constant tensor:
#      x y z
#    x 2.220600 0.000000 -0.063570 
#    y 0.000000 2.821710 0.000000 
#    z -0.063570 0.000000 2.085820 
# 
# From -- ./inp_files/150817.got.cif
#   From: 2010.05.17/outbox.cif.g08.bks.cpg/sg15_76_cif.got.tgz:150817.got - 2010.06.03 18:47:42.
