data_PCOD9286146
_publ_section_title
;
Structure prediction by ZEFSAII (Michael W. Deem and Ramdas Pophale) SiO2 
 PCOD9286146
Probable space group: C 2/C
;
_chemical_formula_sum "Si O2"
_cell_formula_units_Z 48
_cell_length_a 26.687104
_cell_length_b 10.689803
_cell_length_c 21.189608
_cell_angle_alpha 90.000000
_cell_angle_beta 158.763932
_cell_angle_gamma 90.000000
_cell_volume 2189.556663
_symmetry_space_group_name_H-M "C 2/C"
_symmetry_group_IT_number 15
_symmetry_cell_setting 'monoclinic'
loop_
_space_group_symop_operation_xyz
x,y,z
-x,y,1/2-z
-x,-y,-z
x,-y,1/2+z
1/2+x,1/2+y,z
1/2-x,1/2+y,1/2-z
1/2-x,1/2-y,-z
1/2+x,1/2-y,1/2+z
loop_
_atom_site_type_symbol
_atom_site_label
_atom_site_fract_x
_atom_site_fract_y
_atom_site_fract_z
Si Si1 0.510782 0.345425 0.005752
Si Si2 0.147233 0.329630 0.422627
Si Si3 0.210255 0.762319 0.124963
Si Si4 0.387108 0.505280 0.561684
Si Si5 0.087776 0.185662 0.732549
Si Si6 0.332325 0.099776 0.104788
O O1 0.359509 0.279066 0.826310
O O2 0.500000 0.500000 0.000000
O O3 0.598137 0.292622 0.048081
O O4 0.587237 0.295382 0.157920
O O5 0.250000 0.250000 0.500000
O O6 0.186459 0.341777 0.542025
O O7 0.126151 0.460832 0.363464
O O8 0.000000 0.264613 0.250000
O O9 0.192571 0.887270 0.061300
O O10 0.500000 0.484983 0.750000
O O11 0.475568 0.577853 0.613629
O O12 0.270365 0.589703 0.456151
O O13 0.052781 0.304175 0.736486
O O14 0.235140 0.143458 0.933506
#
# Coordination Sequence:
#
# PCOD9286146 Si02
#       6
#     8   8   8   8   8   8
#     4  12  27  49  75 106 155 205 248 306 376 465
#     4  12  25  43  73 108 140 182 246 309 367 430
#     4  12  26  45  76 108 150 200 248 306 377 452
#     4  10  21  42  74 102 146 185 250 318 369 428
#     4  10  23  44  71 103 146 193 245 302 375 432
#     4  10  23  43  73 104 141 187 250 313 366 436
#
# _framework density 21.922245
#
# number of rings (size 3 to 8) (size 9 to 14) (size 15 to 20)
#    0.000    1.000    3.333    2.500    7.000    3.333 
#    3.000    1.667    0.000    0.000    0.000    0.000 
#    0.000    0.000    0.000    0.000    0.000    0.000 
#
# Total GULP energy -133829.563761 kJ/mol
# GULP energy per Si atom -5576.231823 kJ/mol
# Density = 2.187235 g / cm^3
# Si number density = 21.922245 Si / 1000 Ang^3
#
#
#
# Elastic Constant Matrix: (Units=GPa)
#
#
# Indices 1 2 3 4 5 6 
#
# 1 137.9854 21.8026 39.7376 0.0000 -0.8295 0.0000
# 2 21.8026 109.5351 23.0947 0.0000 9.6544 0.0000
# 3 39.7376 23.0947 84.9717 -0.0001 0.6301 0.0000
# 4 0.0000 0.0000 -0.0001 24.5233 -0.0001 -18.5435
# 5 -0.8295 9.6544 0.6301 -0.0001 45.9984 0.0000
# 6 0.0000 0.0000 0.0000 -18.5435 0.0000 9.6024
#
#
#
# Elastic Compliance Matrix: (Units=1/GPa)
#
#
# Indices 1 2 3 4 5 6 
#
# 1 0.008465 -0.000939 -0.003707 0.000000 0.000400 0.000000
# 2 -0.000939 0.009975 -0.002257 0.000000 -0.002080 0.000000
# 3 -0.003707 -0.002257 0.014114 0.000000 0.000213 0.000000
# 4 0.000000 0.000000 0.000000 -0.088600 0.000000 -0.171098
# 5 0.000400 -0.002080 0.000213 0.000000 0.022181 0.000000
# 6 0.000000 0.000000 0.000000 -0.171098 0.000000 -0.226273
#
#
# Mechanical properties :
#
#
# Convention : Reuss Voigt Hill
#
# Bulk Modulus (GPa) = 53.33288 55.75134 54.54211
# Shear Modulus (GPa) = -20.82615 32.54864 5.86124
#
# Velocity S-wave (km/s) = -3.08555 3.85740 1.63690
# Velocity P-wave (km/s) = 3.41860 6.73246 5.33914
#
# Compressibility (1/GPa) = 0.01875016
#
# Stress axis : x y z
#
# Youngs Moduli (GPa) = 118.12856 100.24563 70.85215
#
# Poissons Ratio (x) = 0.09411 0.26263
# Poissons Ratio (y) = 0.11090 0.15990
# Poissons Ratio (z) = 0.43787 0.22624
#
# Static dielectric constant tensor:
#      x y z
#    x 1.868170 0.000000 0.002750 
#    y 0.000000 1.935010 0.000000 
#    z 0.002750 0.000000 1.840730 
# 
# From -- ./inp_files/257661.got.cif
#   From: 2010.05.17/outbox.cif.g08.bks.cpg/sg15_129_cif.got.tgz:257661.got - 2010.06.03 18:47:42.
