data_PCOD9286228
_publ_section_title
;
Structure prediction by ZEFSAII (Michael W. Deem and Ramdas Pophale) SiO2 
 PCOD9286228
Probable space group: C 2/C
;
_chemical_formula_sum "Si O2"
_cell_formula_units_Z 60
_cell_length_a 28.330649
_cell_length_b 12.470286
_cell_length_c 22.574632
_cell_angle_alpha 90.000000
_cell_angle_beta 19.696496
_cell_angle_gamma 90.000000
_cell_volume 2688.017394
_symmetry_space_group_name_H-M "C 2/C"
_symmetry_group_IT_number 15
_symmetry_cell_setting 'monoclinic'
loop_
_space_group_symop_operation_xyz
x,y,z
-x,y,1/2-z
-x,-y,-z
x,-y,1/2+z
1/2+x,1/2+y,z
1/2-x,1/2+y,1/2-z
1/2-x,1/2-y,-z
1/2+x,1/2-y,1/2+z
loop_
_atom_site_type_symbol
_atom_site_label
_atom_site_fract_x
_atom_site_fract_y
_atom_site_fract_z
Si Si1 0.132542 0.438571 0.370630
Si Si2 0.000000 0.526654 0.750000
Si Si3 0.089051 0.652882 0.053688
Si Si4 0.631173 0.665123 0.704315
Si Si5 0.437333 0.492146 0.508991
Si Si6 0.721393 0.533571 0.020811
Si Si7 0.719997 0.164316 0.651419
Si Si8 0.511836 0.683539 0.333298
O O1 0.110757 0.383398 0.460038
O O2 0.269292 0.515524 0.211583
O O3 0.167824 0.350606 0.279272
O O4 0.000000 0.500000 0.500000
O O5 0.954167 0.451978 0.858817
O O6 0.142950 0.577159 0.604051
O O7 0.959704 0.735432 0.211388
O O8 0.233315 0.692354 0.914919
O O9 0.684231 0.584595 0.589374
O O10 0.520126 0.598967 0.875510
O O11 0.500000 0.500000 0.500000
O O12 0.470373 0.601483 0.434699
O O13 0.597156 0.611751 0.186616
O O14 0.748753 0.550770 0.918770
O O15 0.606574 0.225187 0.747823
O O16 0.866810 0.226011 0.478951
#
# Coordination Sequence:
#
# PCOD9286228 Si02
#       8
#     8   4   8   8   8   8   8   8
#     4  11  25  41  66 100 130 173 219 271 329 397
#     4  10  24  44  66  96 124 172 220 276 318 394
#     4  11  24  44  65  99 128 167 234 264 334 388
#     4  10  24  44  69  94 131 179 215 282 323 397
#     4  10  21  43  64  91 135 178 214 266 336 392
#     4  10  22  43  66  92 131 174 215 263 337 382
#     4  11  24  42  65 100 134 168 220 267 329 396
#     4  10  24  40  65  98 128 174 215 265 326 394
#
# _framework density 22.321283000000001
#
# number of rings (size 3 to 8) (size 9 to 14) (size 15 to 20)
#    0.000    1.600    1.333    1.600    5.600    3.200 
#   12.000    0.000    0.000    0.000    0.000    0.000 
#    0.000    0.000    0.000    0.000    0.000    0.000 
#
# Total GULP energy -167713.021394 kJ/mol
# GULP energy per Si atom -5590.434046 kJ/mol
# Density = 2.227048 g / cm^3
# Si number density = 22.321283 Si / 1000 Ang^3
#
#
#
# Elastic Constant Matrix: (Units=GPa)
#
#
# Indices 1 2 3 4 5 6 
#
# 1 137.8084 33.1328 63.4581 0.0000 -6.6050 -0.0001
# 2 33.1328 16.0212 21.7561 -0.0002 -8.8621 0.0000
# 3 63.4581 21.7561 128.5739 -0.0002 -31.6155 0.0000
# 4 0.0000 -0.0002 -0.0002 19.1400 0.0000 -25.2452
# 5 -6.6050 -8.8621 -31.6155 0.0000 65.6622 0.0000
# 6 -0.0001 0.0000 0.0000 -25.2452 0.0000 8.6172
#
#
#
# Elastic Compliance Matrix: (Units=1/GPa)
#
#
# Indices 1 2 3 4 5 6 
#
# 1 0.016210 -0.030666 -0.003889 0.000000 -0.004381 0.000000
# 2 -0.030666 0.140475 -0.005367 -0.000001 0.013291 -0.000001
# 3 -0.003889 -0.005367 0.011718 0.000000 0.004527 0.000000
# 4 0.000000 -0.000001 0.000000 -0.018242 0.000000 -0.053442
# 5 -0.004381 0.013291 0.004527 0.000000 0.018762 0.000000
# 6 0.000000 -0.000001 0.000000 -0.053442 0.000000 -0.040517
#
#
# Mechanical properties :
#
#
# Convention : Reuss Voigt Hill
#
# Bulk Modulus (GPa) = 11.29166 57.67751 34.48459
# Shear Modulus (GPa) = 21.02887 29.62098 25.32493
#
# Velocity S-wave (km/s) = 3.07269 3.64679 3.37198
# Velocity P-wave (km/s) = 4.20218 6.60514 5.53562
#
# Compressibility (1/GPa) = 0.08856090
#
# Stress axis : x y z
#
# Youngs Moduli (GPa) = 61.69032 7.11871 85.33822
#
# Poissons Ratio (x) = 0.21830 0.33185
# Poissons Ratio (y) = 1.89177 0.45798
# Poissons Ratio (z) = 0.23989 0.03820
#
# Static dielectric constant tensor:
#      x y z
#    x 1.869080 0.000000 -0.047930 
#    y 0.000000 1.832450 0.000000 
#    z -0.047930 0.000000 1.955280 
# 
# From -- ./inp_files/257839.got.cif
#   From: 2010.05.17/outbox.cif.g08.bks.cpg/sg15_129_cif.got.tgz:257839.got - 2010.06.03 18:47:42.
