data_PCOD9286716
_publ_section_title
;
Structure prediction by ZEFSAII (Michael W. Deem and Ramdas Pophale) SiO2 
 PCOD9286716
Probable space group: C 2/C
;
_chemical_formula_sum "Si O2"
_cell_formula_units_Z 48
_cell_length_a 13.162543
_cell_length_b 5.263545
_cell_length_c 28.784304
_cell_angle_alpha 90.000000
_cell_angle_beta 75.319272
_cell_angle_gamma 90.000000
_cell_volume 1929.118395
_symmetry_space_group_name_H-M "C 2/C"
_symmetry_group_IT_number 15
_symmetry_cell_setting 'monoclinic'
loop_
_space_group_symop_operation_xyz
x,y,z
-x,y,1/2-z
-x,-y,-z
x,-y,1/2+z
1/2+x,1/2+y,z
1/2-x,1/2+y,1/2-z
1/2-x,1/2-y,-z
1/2+x,1/2-y,1/2+z
loop_
_atom_site_type_symbol
_atom_site_label
_atom_site_fract_x
_atom_site_fract_y
_atom_site_fract_z
Si Si1 0.217627 0.814278 0.884902
Si Si2 0.882966 0.488781 0.244693
Si Si3 0.863410 0.666675 0.927535
Si Si4 0.955148 0.862665 0.659037
Si Si5 0.356467 0.483210 0.300879
Si Si6 0.318419 0.943803 0.022563
O O1 0.276900 0.591073 0.850557
O O2 0.147784 0.702068 0.935076
O O3 0.143047 0.971848 0.858564
O O4 0.312490 0.964690 0.898058
O O5 0.096886 0.381466 0.309116
O O6 0.839037 0.762912 0.264305
O O7 0.000000 0.508426 0.250000
O O8 0.836559 0.255802 0.280369
O O9 0.958363 0.790583 0.889100
O O10 0.765193 0.848368 0.950349
O O11 0.894973 0.557421 0.974626
O O12 0.025431 0.006562 0.690018
O O13 0.250000 0.750000 0.000000
#
# Coordination Sequence:
#
# PCOD9286716 Si02
#       6
#     8   8   8   8   8   8
#     4  11  23  42  69 102 134 180 237 282 347 418
#     4  10  22  42  66  96 138 184 227 281 350 409
#     4  10  21  44  66  96 141 177 221 294 345 411
#     4  11  24  43  70 103 130 184 236 283 348 416
#     4  11  23  45  65  96 145 180 226 292 340 411
#     4   9  20  42  69  93 138 181 219 286 356 405
#
# _framework density 24.881831999999999
#
# number of rings (size 3 to 8) (size 9 to 14) (size 15 to 20)
#    0.000    1.667    1.667    3.500    0.000    2.000 
#   12.000    7.500    0.000    0.000    0.000    0.000 
#    0.000    0.000    0.000    0.000    0.000    0.000 
#
# Total GULP energy -134025.092852 kJ/mol
# GULP energy per Si atom -5584.378869 kJ/mol
# Density = 2.482520 g / cm^3
# Si number density = 24.881832 Si / 1000 Ang^3
#
#
#
# Elastic Constant Matrix: (Units=GPa)
#
#
# Indices 1 2 3 4 5 6 
#
# 1 95.8432 19.1451 46.1871 -0.0001 14.9405 -0.0001
# 2 19.1451 92.3713 31.9865 -0.0002 -5.2599 -0.0003
# 3 46.1871 31.9865 119.7097 0.0000 -11.8302 0.0000
# 4 -0.0001 -0.0002 0.0000 33.6488 0.0000 -14.1372
# 5 14.9405 -5.2599 -11.8302 0.0000 51.2379 0.0000
# 6 -0.0001 -0.0003 0.0000 -14.1372 0.0000 -5.6266
#
#
#
# Elastic Compliance Matrix: (Units=1/GPa)
#
#
# Indices 1 2 3 4 5 6 
#
# 1 0.014341 -0.001305 -0.005742 0.000000 -0.005641 0.000000
# 2 -0.001305 0.012061 -0.002619 0.000000 0.001014 0.000000
# 3 -0.005742 -0.002619 0.011674 0.000000 0.004101 0.000000
# 4 0.000000 0.000000 0.000000 0.014457 0.000000 -0.036325
# 5 -0.005641 0.001014 0.004101 0.000000 0.022213 0.000000
# 6 0.000000 0.000000 0.000000 -0.036325 0.000000 -0.086459
#
#
# Mechanical properties :
#
#
# Convention : Reuss Voigt Hill
#
# Bulk Modulus (GPa) = 53.35086 55.84016 54.59551
# Shear Modulus (GPa) = 360.57990 29.89238 195.23614
#
# Velocity S-wave (km/s) = 12.05120 3.46984 8.86768
# Velocity P-wave (km/s) = 14.66732 6.20838 11.26220
#
# Compressibility (1/GPa) = 0.01874384
#
# Stress axis : x y z
#
# Youngs Moduli (GPa) = 69.73102 82.91174 85.66122
#
# Poissons Ratio (x) = 0.10822 0.49185
# Poissons Ratio (y) = 0.09102 0.22434
# Poissons Ratio (z) = 0.40038 0.21714
#
# Static dielectric constant tensor:
#      x y z
#    x 1.940500 0.000000 0.005410 
#    y 0.000000 1.845050 0.000000 
#    z 0.005410 0.000000 1.830650 
# 
# From -- ./inp_files/294433.got.cif
#   From: 2010.05.17/outbox.cif.g08.bks.cpg/sg15_148_cif.got.tgz:294433.got - 2010.06.03 18:47:42.
