data_PCOD9286044
_publ_section_title
;
Structure prediction by ZEFSAII (Michael W. Deem and Ramdas Pophale) SiO2 
 PCOD9286044
Probable space group: C 2/C
;
_chemical_formula_sum "Si O2"
_cell_formula_units_Z 48
_cell_length_a 15.705425
_cell_length_b 11.320332
_cell_length_c 30.705426
_cell_angle_alpha 90.000000
_cell_angle_beta 25.488601
_cell_angle_gamma 90.000000
_cell_volume 2349.238668
_symmetry_space_group_name_H-M "C 2/C"
_symmetry_group_IT_number 15
_symmetry_cell_setting 'monoclinic'
loop_
_space_group_symop_operation_xyz
x,y,z
-x,y,1/2-z
-x,-y,-z
x,-y,1/2+z
1/2+x,1/2+y,z
1/2-x,1/2+y,1/2-z
1/2-x,1/2-y,-z
1/2+x,1/2-y,1/2+z
loop_
_atom_site_type_symbol
_atom_site_label
_atom_site_fract_x
_atom_site_fract_y
_atom_site_fract_z
Si Si1 0.380819 0.823315 0.074043
Si Si2 0.952385 0.554747 0.087357
Si Si3 0.156628 0.050186 0.532479
Si Si4 0.905302 0.635509 0.335761
Si Si5 0.961322 0.790807 0.918039
Si Si6 0.348674 0.755130 0.701622
O O1 0.205295 0.747573 0.134610
O O2 0.508344 0.737932 0.045464
O O3 0.340958 0.936201 0.123687
O O4 0.499026 0.876014 0.979119
O O5 0.834571 0.642265 0.172566
O O6 0.161177 0.536657 0.017118
O O7 0.255887 0.071895 0.438870
O O8 0.013152 0.159822 0.611092
O O9 0.029857 0.931189 0.592200
O O10 0.000000 0.569563 0.250000
O O11 0.074698 0.685489 0.289157
O O12 0.125992 0.718686 0.814819
O O13 0.750000 0.750000 0.000000
#
# Coordination Sequence:
#
# PCOD9286044 Si02
#       6
#     8   8   8   8   8   8
#     4  11  21  41  67  97 133 162 220 268 324 390
#     4  10  21  42  70  95 131 169 215 276 324 392
#     4  11  23  44  68  94 139 170 214 277 332 392
#     4  11  21  40  70 104 124 171 224 270 322 400
#     4  12  27  42  63  94 139 174 215 270 336 384
#     4  11  23  42  67  98 126 176 225 263 330 394
#
# _framework density 20.432151000000001
#
# number of rings (size 3 to 8) (size 9 to 14) (size 15 to 20)
#    0.000    1.000    6.667    1.000    2.333    0.667 
#    0.000    0.833    0.000    0.000    0.000    0.000 
#    0.000    0.000    0.000    0.000    0.000    0.000 
#
# Total GULP energy -133906.540015 kJ/mol
# GULP energy per Si atom -5579.439167 kJ/mol
# Density = 2.038565 g / cm^3
# Si number density = 20.432151 Si / 1000 Ang^3
#
#
#
# Elastic Constant Matrix: (Units=GPa)
#
#
# Indices 1 2 3 4 5 6 
#
# 1 90.9244 17.6060 29.7045 -0.0006 16.6235 0.0011
# 2 17.6060 46.6432 6.4667 -0.0010 11.4056 0.0005
# 3 29.7045 6.4667 92.6951 0.0011 10.7474 0.0026
# 4 -0.0006 -0.0010 0.0011 18.0418 0.0009 3.3753
# 5 16.6235 11.4056 10.7474 0.0009 37.3592 -0.0010
# 6 0.0011 0.0005 0.0026 3.3753 -0.0010 36.2032
#
#
#
# Elastic Compliance Matrix: (Units=1/GPa)
#
#
# Indices 1 2 3 4 5 6 
#
# 1 0.013616 -0.003683 -0.003656 0.000001 -0.003882 0.000000
# 2 -0.003683 0.024226 0.000163 0.000002 -0.005804 -0.000001
# 3 -0.003656 0.000163 0.012171 -0.000001 -0.001924 -0.000001
# 4 0.000001 0.000002 -0.000001 0.056411 -0.000002 -0.005259
# 5 -0.003882 -0.005804 -0.001924 -0.000002 0.030820 0.000001
# 6 0.000000 -0.000001 -0.000001 -0.005259 0.000001 0.028112
#
#
# Mechanical properties :
#
#
# Convention : Reuss Voigt Hill
#
# Bulk Modulus (GPa) = 28.04181 37.53525 32.78853
# Shear Modulus (GPa) = 26.09666 30.08656 28.09161
#
# Velocity S-wave (km/s) = 3.57772 3.84149 3.71195
# Velocity P-wave (km/s) = 5.55166 6.17144 5.86973
#
# Compressibility (1/GPa) = 0.03566104
#
# Stress axis : x y z
#
# Youngs Moduli (GPa) = 73.44561 41.27751 82.15981
#
# Poissons Ratio (x) = 0.15203 0.30038
# Poissons Ratio (y) = 0.27051 -0.01340
# Poissons Ratio (z) = 0.26852 -0.00673
#
# Static dielectric constant tensor:
#      x y z
#    x 1.745600 0.000000 0.003100 
#    y 0.000000 1.781540 0.000000 
#    z 0.003100 0.000000 1.787770 
# 
# From -- ./inp_files/296056.got.cif
#   From: 2010.05.17/outbox.cif.g08.bks.cpg/sg15_149_cif.got.tgz:296056.got - 2010.06.03 18:47:42.
