data_PCOD9286156
_publ_section_title
;
Structure prediction by ZEFSAII (Michael W. Deem and Ramdas Pophale) SiO2 
 PCOD9286156
Probable space group: C 2/C
;
_chemical_formula_sum "Si O2"
_cell_formula_units_Z 40
_cell_length_a 10.465948
_cell_length_b 12.127831
_cell_length_c 13.173966
_cell_angle_alpha 90.000000
_cell_angle_beta 98.257708
_cell_angle_gamma 90.000000
_cell_volume 1654.824757
_symmetry_space_group_name_H-M "C 2/C"
_symmetry_group_IT_number 15
_symmetry_cell_setting 'monoclinic'
loop_
_space_group_symop_operation_xyz
x,y,z
-x,y,1/2-z
-x,-y,-z
x,-y,1/2+z
1/2+x,1/2+y,z
1/2-x,1/2+y,1/2-z
1/2-x,1/2-y,-z
1/2+x,1/2-y,1/2+z
loop_
_atom_site_type_symbol
_atom_site_label
_atom_site_fract_x
_atom_site_fract_y
_atom_site_fract_z
Si Si1 0.538425 0.023133 0.618757
Si Si2 0.953776 0.963286 0.883595
Si Si3 0.683568 0.099459 0.280664
Si Si4 0.142190 0.801417 0.141196
Si Si5 0.924843 0.256270 0.092234
O O1 0.423803 0.958195 0.662771
O O2 0.672093 0.974033 0.675774
O O3 0.500000 0.000000 0.500000
O O4 0.530180 0.153719 0.635920
O O5 0.816478 0.902515 0.856053
O O6 0.053790 0.867310 0.862807
O O7 0.918588 0.082455 0.833934
O O8 0.000000 0.000000 0.000000
O O9 0.646253 0.219049 0.235723
O O10 0.289644 0.806616 0.115649
O O11 0.072959 0.755128 0.030712
#
# Coordination Sequence:
#
# PCOD9286156 Si02
#       5
#     8   8   8   8   8
#     4  11  23  44  70 101 143 196 247 305 380 446
#     4  10  23  41  70 107 145 188 253 305 373 455
#     4  11  24  40  71 103 142 192 248 305 368 442
#     4  10  21  43  69 103 144 184 247 304 365 454
#     4  10  21  42  75  96 141 199 233 302 387 439
#
# _framework density 24.171742999999999
#
# number of rings (size 3 to 8) (size 9 to 14) (size 15 to 20)
#    0.000    1.600    4.000    0.000    2.800    0.800 
#    0.000    5.000    4.400    0.000    0.000    0.000 
#    0.000    0.000    0.000    0.000    0.000    0.000 
#
# Total GULP energy -111646.989612 kJ/mol
# GULP energy per Si atom -5582.349481 kJ/mol
# Density = 2.411673 g / cm^3
# Si number density = 24.171743 Si / 1000 Ang^3
#
#
#
# Elastic Constant Matrix: (Units=GPa)
#
#
# Indices 1 2 3 4 5 6 
#
# 1 64.4955 30.9840 33.2692 0.0000 16.8381 0.0000
# 2 30.9840 209.3527 34.0209 0.0000 5.6059 0.0000
# 3 33.2692 34.0209 123.6450 0.0000 12.8755 0.0000
# 4 0.0000 0.0000 0.0000 35.6700 0.0000 10.0757
# 5 16.8381 5.6059 12.8755 0.0000 41.5689 0.0000
# 6 0.0000 0.0000 0.0000 10.0757 0.0000 29.2700
#
#
#
# Elastic Compliance Matrix: (Units=1/GPa)
#
#
# Indices 1 2 3 4 5 6 
#
# 1 0.020466 -0.002165 -0.004214 0.000000 -0.006693 0.000000
# 2 -0.002165 0.005232 -0.000904 0.000000 0.000451 0.000000
# 3 -0.004214 -0.000904 0.009589 0.000000 -0.001141 0.000000
# 4 0.000000 0.000000 0.000000 0.031054 0.000000 -0.010690
# 5 -0.006693 0.000451 -0.001141 0.000000 0.027060 0.000000
# 6 0.000000 0.000000 0.000000 -0.010690 0.000000 0.037844
#
#
# Mechanical properties :
#
#
# Convention : Reuss Voigt Hill
#
# Bulk Modulus (GPa) = 48.26053 66.00458 57.13256
# Shear Modulus (GPa) = 32.73977 41.24972 36.99474
#
# Velocity S-wave (km/s) = 3.68430 4.13549 3.91640
# Velocity P-wave (km/s) = 6.17315 7.08300 6.64367
#
# Compressibility (1/GPa) = 0.02072087
#
# Stress axis : x y z
#
# Youngs Moduli (GPa) = 48.86105 191.13671 104.28425
#
# Poissons Ratio (x) = 0.41380 0.43948
# Poissons Ratio (y) = 0.10578 0.09428
# Poissons Ratio (z) = 0.20591 0.17279
#
# Static dielectric constant tensor:
#      x y z
#    x 1.945970 0.000000 0.000530 
#    y 0.000000 1.757380 0.000000 
#    z 0.000530 0.000000 1.937000 
# 
# From -- ./inp_files/142098.got.cif
#   From: 2010.05.17/outbox.cif.g08.bks.cpg/sg15_72_cif.got.tgz:142098.got - 2010.06.03 18:47:42.
