data_PCOD9286941
_publ_section_title
;
Structure prediction by ZEFSAII (Michael W. Deem and Ramdas Pophale) SiO2 
 PCOD9286941
Probable space group: C 2/C
;
_chemical_formula_sum "Si O2"
_cell_formula_units_Z 56
_cell_length_a 8.812555
_cell_length_b 18.025731
_cell_length_c 17.305491
_cell_angle_alpha 90.000000
_cell_angle_beta 85.724595
_cell_angle_gamma 90.000000
_cell_volume 2741.374853
_symmetry_space_group_name_H-M "C 2/C"
_symmetry_group_IT_number 15
_symmetry_cell_setting 'monoclinic'
loop_
_space_group_symop_operation_xyz
x,y,z
-x,y,1/2-z
-x,-y,-z
x,-y,1/2+z
1/2+x,1/2+y,z
1/2-x,1/2+y,1/2-z
1/2-x,1/2-y,-z
1/2+x,1/2-y,1/2+z
loop_
_atom_site_type_symbol
_atom_site_label
_atom_site_fract_x
_atom_site_fract_y
_atom_site_fract_z
Si Si1 0.125899 0.188274 0.523293
Si Si2 0.900223 0.325074 0.331041
Si Si3 0.292897 0.052034 0.446264
Si Si4 0.635813 0.325025 0.587532
Si Si5 0.405424 0.106417 0.992886
Si Si6 0.534652 0.536707 0.339762
Si Si7 0.951525 0.132426 0.664432
O O1 0.250000 0.250000 0.500000
O O2 0.196125 0.107493 0.503176
O O3 0.987539 0.198437 0.470479
O O4 0.050779 0.188308 0.609896
O O5 0.875816 0.237330 0.346468
O O6 0.965691 0.361715 0.408099
O O7 0.729361 0.356813 0.332956
O O8 0.000000 0.338589 0.250000
O O9 0.463331 0.083428 0.451839
O O10 0.204288 0.054930 0.367239
O O11 0.308818 0.967487 0.474715
O O12 0.795333 0.335251 0.538584
O O13 0.581055 0.405085 0.618928
O O14 0.500000 0.540940 0.250000
O O15 0.511948 0.451327 0.363596
O O16 0.000000 0.140150 0.750000
#
# Coordination Sequence:
#
# PCOD9286941 Si02
#       7
#     8   8   8   8   8   8   8
#     4  11  23  40  68  97 130 175 225 274 336 405
#     4  12  26  43  66  95 136 177 220 276 343 395
#     4  10  22  39  67 100 131 169 227 274 334 397
#     4  11  23  42  69  94 132 174 222 279 335 399
#     4  11  22  42  67  99 132 171 226 282 332 391
#     4  10  21  45  66  96 132 177 220 269 338 407
#     4  11  25  43  67  94 133 176 225 270 337 408
#
# _framework density 20.427706000000001
#
# number of rings (size 3 to 8) (size 9 to 14) (size 15 to 20)
#    0.000    1.143    2.857    2.571    6.000    2.286 
#    2.571    0.714    0.000    0.857    0.000    0.000 
#    0.000    0.000    0.000    0.000    0.000    0.000 
#
# Total GULP energy -156286.187778 kJ/mol
# GULP energy per Si atom -5581.649564 kJ/mol
# Density = 2.038121 g / cm^3
# Si number density = 20.427706 Si / 1000 Ang^3
#
#
#
# Elastic Constant Matrix: (Units=GPa)
#
#
# Indices 1 2 3 4 5 6 
#
# 1 96.8173 35.3688 60.8915 0.0000 16.3965 0.0000
# 2 35.3688 101.5808 66.2199 0.0000 -21.8132 0.0000
# 3 60.8915 66.2199 102.5879 0.0000 -7.5050 0.0000
# 4 0.0000 0.0000 0.0000 31.1939 0.0000 -6.5998
# 5 16.3965 -21.8132 -7.5050 0.0000 31.8853 0.0000
# 6 0.0000 0.0000 0.0000 -6.5998 0.0000 42.3596
#
#
#
# Elastic Compliance Matrix: (Units=1/GPa)
#
#
# Indices 1 2 3 4 5 6 
#
# 1 0.021877 -0.003241 -0.012086 0.000000 -0.016312 0.000000
# 2 -0.003241 0.020622 -0.010413 0.000000 0.013323 0.000000
# 3 -0.012086 -0.010413 0.023990 0.000000 0.004738 0.000000
# 4 0.000000 0.000000 0.000000 0.033150 0.000000 0.005165
# 5 -0.016312 0.013323 0.004738 0.000000 0.049980 0.000000
# 6 0.000000 0.000000 0.000000 0.005165 0.000000 0.024412
#
#
# Mechanical properties :
#
#
# Convention : Reuss Voigt Hill
#
# Bulk Modulus (GPa) = 66.63113 69.54960 68.09037
# Shear Modulus (GPa) = 21.69065 30.32150 26.00608
#
# Velocity S-wave (km/s) = 3.26210 3.85688 3.57189
# Velocity P-wave (km/s) = 6.84670 7.34538 7.10042
#
# Compressibility (1/GPa) = 0.01500800
#
# Stress axis : x y z
#
# Youngs Moduli (GPa) = 45.71102 48.49189 41.68426
#
# Poissons Ratio (x) = 0.15715 0.50381
# Poissons Ratio (y) = 0.14814 0.43406
# Poissons Ratio (z) = 0.55248 0.50495
#
# Static dielectric constant tensor:
#      x y z
#    x 1.732940 0.000000 0.015910 
#    y 0.000000 1.764610 0.000000 
#    z 0.015910 0.000000 1.734510 
# 
# From -- ./inp_files/190919.got.cif
#   From: 2010.05.17/outbox.cif.g08.bks.cpg/sg15_96_cif.got.tgz:190919.got - 2010.06.03 18:47:42.
