data_PCOD9286270
_publ_section_title
;
Structure prediction by ZEFSAII (Michael W. Deem and Ramdas Pophale) SiO2 
 PCOD9286270
Probable space group: C 2/C
;
_chemical_formula_sum "Si O2"
_cell_formula_units_Z 56
_cell_length_a 18.379557
_cell_length_b 11.871804
_cell_length_c 14.100042
_cell_angle_alpha 90.000000
_cell_angle_beta 62.966886
_cell_angle_gamma 90.000000
_cell_volume 2740.470084
_symmetry_space_group_name_H-M "C 2/C"
_symmetry_group_IT_number 15
_symmetry_cell_setting 'monoclinic'
loop_
_space_group_symop_operation_xyz
x,y,z
-x,y,1/2-z
-x,-y,-z
x,-y,1/2+z
1/2+x,1/2+y,z
1/2-x,1/2+y,1/2-z
1/2-x,1/2-y,-z
1/2+x,1/2-y,1/2+z
loop_
_atom_site_type_symbol
_atom_site_label
_atom_site_fract_x
_atom_site_fract_y
_atom_site_fract_z
Si Si1 0.224811 0.495790 0.227985
Si Si2 0.148654 0.954797 0.194212
Si Si3 0.557426 0.878919 0.360570
Si Si4 0.041486 0.593245 0.092865
Si Si5 0.122460 0.691199 0.227506
Si Si6 0.960055 0.877936 0.618144
Si Si7 0.372615 0.497907 0.010925
O O1 0.266332 0.485837 0.305852
O O2 0.141515 0.426677 0.268998
O O3 0.200461 0.624537 0.220266
O O4 0.294101 0.455429 0.114268
O O5 0.130922 0.824181 0.223563
O O6 0.079705 0.033788 0.284001
O O7 0.150034 0.970644 0.081598
O O8 0.565505 0.890039 0.470115
O O9 0.545165 0.749158 0.343927
O O10 0.483096 0.962253 0.376840
O O11 0.103354 0.642192 0.133759
O O12 0.956149 0.657733 0.163218
O O13 0.052640 0.910838 0.539368
O O14 0.908195 0.898644 0.552466
#
# Coordination Sequence:
#
# PCOD9286270 Si02
#       7
#     8   8   8   8   8   8   8
#     4  10  25  41  62  96 130 164 214 272 328 382
#     4  11  24  40  67  94 128 173 216 264 334 388
#     4  10  21  43  65  96 131 167 217 271 329 382
#     4   9  21  39  70  93 121 174 218 271 321 382
#     4  10  22  41  65  94 127 165 226 270 313 396
#     4  10  23  41  67  94 132 166 222 266 319 397
#     4  10  23  42  63  99 124 173 216 260 330 385
#
# _framework density 20.434449999999998
#
# number of rings (size 3 to 8) (size 9 to 14) (size 15 to 20)
#    0.000    2.000    0.000    1.286   16.000    0.571 
#   10.286    0.714    0.000    0.000    0.000    0.000 
#    0.000    0.000    0.000    0.000    0.000    0.000 
#
# Total GULP energy -156492.532782 kJ/mol
# GULP energy per Si atom -5589.019028 kJ/mol
# Density = 2.038794 g / cm^3
# Si number density = 20.434450 Si / 1000 Ang^3
#
#
#
# Elastic Constant Matrix: (Units=GPa)
#
#
# Indices 1 2 3 4 5 6 
#
# 1 70.9176 39.8714 11.4239 0.0000 14.6004 0.0000
# 2 39.8714 147.2438 11.5243 0.0000 11.6212 0.0000
# 3 11.4239 11.5243 52.2727 0.0000 21.7702 0.0000
# 4 0.0000 0.0000 0.0000 16.7851 0.0000 -2.5773
# 5 14.6004 11.6212 21.7702 0.0000 25.2982 0.0000
# 6 0.0000 0.0000 0.0000 -2.5773 0.0000 7.5809
#
#
#
# Elastic Compliance Matrix: (Units=1/GPa)
#
#
# Indices 1 2 3 4 5 6 
#
# 1 0.018290 -0.004283 0.000817 0.000000 -0.009291 0.000000
# 2 -0.004283 0.008054 -0.000512 0.000000 -0.000787 0.000000
# 3 0.000817 -0.000512 0.029868 0.000000 -0.025939 0.000000
# 4 0.000000 0.000000 0.000000 0.062858 0.000000 0.021370
# 5 -0.009291 -0.000787 -0.025939 0.000000 0.067573 0.000000
# 6 0.000000 0.000000 0.000000 0.021370 0.000000 0.139175
#
#
# Mechanical properties :
#
#
# Convention : Reuss Voigt Hill
#
# Bulk Modulus (GPa) = 20.72341 44.00816 32.36579
# Shear Modulus (GPa) = 14.29145 23.77382 19.03263
#
# Velocity S-wave (km/s) = 2.64745 3.41459 3.05519
# Velocity P-wave (km/s) = 4.41687 6.09335 5.32154
#
# Compressibility (1/GPa) = 0.04825460
#
# Stress axis : x y z
#
# Youngs Moduli (GPa) = 54.67363 124.16960 33.48119
#
# Poissons Ratio (x) = 0.53186 -0.02734
# Poissons Ratio (y) = 0.23419 0.01713
# Poissons Ratio (z) = -0.04464 0.06352
#
# Static dielectric constant tensor:
#      x y z
#    x 1.735340 0.000000 0.013110 
#    y 0.000000 1.723660 0.000000 
#    z 0.013110 0.000000 1.728110 
# 
# From -- ./inp_files/160816.got.cif
#   From: 2010.05.17/outbox.cif.g08.bks.cpg/sg15_81_cif.got.tgz:160816.got - 2010.06.03 18:47:42.
