data_PCOD9286284
_publ_section_title
;
Structure prediction by ZEFSAII (Michael W. Deem and Ramdas Pophale) SiO2 
 PCOD9286284
Probable space group: C 2/C
;
_chemical_formula_sum "Si O2"
_cell_formula_units_Z 56
_cell_length_a 8.860473
_cell_length_b 26.327708
_cell_length_c 14.835002
_cell_angle_alpha 90.000000
_cell_angle_beta 131.467708
_cell_angle_gamma 90.000000
_cell_volume 2593.164940
_symmetry_space_group_name_H-M "C 2/C"
_symmetry_group_IT_number 15
_symmetry_cell_setting 'monoclinic'
loop_
_space_group_symop_operation_xyz
x,y,z
-x,y,1/2-z
-x,-y,-z
x,-y,1/2+z
1/2+x,1/2+y,z
1/2-x,1/2+y,1/2-z
1/2-x,1/2-y,-z
1/2+x,1/2-y,1/2+z
loop_
_atom_site_type_symbol
_atom_site_label
_atom_site_fract_x
_atom_site_fract_y
_atom_site_fract_z
Si Si1 0.162659 0.187563 0.238617
Si Si2 0.408657 0.358808 0.475105
Si Si3 0.343525 0.294696 0.268891
Si Si4 0.378457 0.085591 0.381534
Si Si5 0.037695 0.621134 0.622950
Si Si6 0.839470 0.048056 0.851803
Si Si7 0.500000 0.970591 0.750000
Si Si8 0.500000 0.486972 0.750000
O O1 0.294686 0.236143 0.266403
O O2 0.292828 0.141514 0.329076
O O3 0.000000 0.202904 0.250000
O O4 0.046299 0.165105 0.106302
O O5 0.408595 0.321942 0.388079
O O6 0.468811 0.415702 0.467690
O O7 0.184097 0.368081 0.425908
O O8 0.500000 0.301246 0.250000
O O9 0.143980 0.324549 0.158953
O O10 0.524750 0.091738 0.523692
O O11 0.469388 0.062606 0.326884
O O12 0.193836 0.049066 0.335889
O O13 0.179245 0.586479 0.741468
O O14 0.696405 0.006276 0.840628
O O15 0.967605 0.021347 0.824999
#
# Coordination Sequence:
#
# PCOD9286284 Si02
#       8
#     8   8   8   8   8   8   4   4
#     4  12  25  46  70  98 141 180 222 281 335 415
#     4  11  23  45  73 101 133 182 227 277 333 404
#     4  11  28  45  70 105 132 172 229 280 353 403
#     4  11  24  44  64 103 136 179 226 276 338 397
#     4  11  22  45  73  97 134 181 228 281 327 411
#     4  10  21  43  66 100 133 179 231 274 328 401
#     4  10  22  40  64  94 138 174 224 274 334 382
#     4  10  22  42  66 100 140 180 228 272 336 404
#
# _framework density 21.595233
#
# number of rings (size 3 to 8) (size 9 to 14) (size 15 to 20)
#    0.000    1.143    3.571    2.143    7.000    5.143 
#    5.143    2.143    0.000    0.000    0.000    0.000 
#    0.000    0.000    0.000    0.000    0.000    0.000 
#
# Total GULP energy -156760.305816 kJ/mol
# GULP energy per Si atom -5598.582351 kJ/mol
# Density = 2.154608 g / cm^3
# Si number density = 21.595233 Si / 1000 Ang^3
#
#
#
# Elastic Constant Matrix: (Units=GPa)
#
#
# Indices 1 2 3 4 5 6 
#
# 1 80.5374 33.0016 2.1342 0.0000 -22.7825 0.0000
# 2 33.0016 80.4354 -4.8082 0.0000 -4.7256 0.0000
# 3 2.1342 -4.8082 73.4466 0.0000 -18.4904 0.0000
# 4 0.0000 0.0000 0.0000 13.0715 0.0000 -13.0383
# 5 -22.7825 -4.7256 -18.4904 0.0000 21.3684 0.0000
# 6 0.0000 0.0000 0.0000 -13.0383 0.0000 9.5640
#
#
#
# Elastic Compliance Matrix: (Units=1/GPa)
#
#
# Indices 1 2 3 4 5 6 
#
# 1 0.023419 -0.007577 0.005993 0.000000 0.028478 0.000000
# 2 -0.007577 0.015270 0.000046 0.000000 -0.004661 0.000000
# 3 0.005993 0.000046 0.019249 0.000000 0.023056 0.000000
# 4 0.000000 0.000000 0.000000 -0.212613 0.000000 -0.289850
# 5 0.028478 -0.004661 0.023056 0.000000 0.096081 0.000000
# 6 0.000000 0.000000 0.000000 -0.289850 0.000000 -0.290587
#
#
# Mechanical properties :
#
#
# Convention : Reuss Voigt Hill
#
# Bulk Modulus (GPa) = 18.22755 32.78605 25.50680
# Shear Modulus (GPa) = -15.25231 22.40690 3.57730
#
# Velocity S-wave (km/s) = -2.66048 3.22465 1.28846
# Velocity P-wave (km/s) = 0.98927 5.39255 3.74839
#
# Compressibility (1/GPa) = 0.05486202
#
# Stress axis : x y z
#
# Youngs Moduli (GPa) = 42.70112 65.48794 51.95169
#
# Poissons Ratio (x) = 0.49620 -0.31135
# Poissons Ratio (y) = 0.32355 -0.00241
# Poissons Ratio (z) = -0.25591 -0.00303
#
# Static dielectric constant tensor:
#      x y z
#    x 1.774580 0.000000 0.001330 
#    y 0.000000 1.762730 0.000000 
#    z 0.001330 0.000000 1.785030 
# 
# From -- ./inp_files/137994.got.cif
#   From: 2010.05.17/outbox.cif.g08.bks.cpg/sg15_69_cif.got.tgz:137994.got - 2010.06.03 18:47:42.
