data_PCOD9286968
_publ_section_title
;
Structure prediction by ZEFSAII (Michael W. Deem and Ramdas Pophale) SiO2 
 PCOD9286968
Probable space group: C 2/C
;
_chemical_formula_sum "Si O2"
_cell_formula_units_Z 52
_cell_length_a 11.072566
_cell_length_b 21.937383
_cell_length_c 15.372812
_cell_angle_alpha 90.000000
_cell_angle_beta 137.927640
_cell_angle_gamma 90.000000
_cell_volume 2502.105869
_symmetry_space_group_name_H-M "C 2/C"
_symmetry_group_IT_number 15
_symmetry_cell_setting 'monoclinic'
loop_
_space_group_symop_operation_xyz
x,y,z
-x,y,1/2-z
-x,-y,-z
x,-y,1/2+z
1/2+x,1/2+y,z
1/2-x,1/2+y,1/2-z
1/2-x,1/2-y,-z
1/2+x,1/2-y,1/2+z
loop_
_atom_site_type_symbol
_atom_site_label
_atom_site_fract_x
_atom_site_fract_y
_atom_site_fract_z
Si Si1 0.588749 0.124035 0.385362
Si Si2 0.053162 0.954189 0.449885
Si Si3 0.574732 0.350875 0.024649
Si Si4 0.104258 0.299381 0.390534
Si Si5 0.735798 0.617610 0.278995
Si Si6 0.500270 0.789007 0.980949
Si Si7 0.000000 0.968107 0.750000
O O1 0.500000 0.151841 0.250000
O O2 0.750946 0.079009 0.449236
O O3 0.582906 0.089147 0.164753
O O4 0.627462 0.177154 0.477934
O O5 0.921682 0.896954 0.393667
O O6 0.028063 0.990712 0.348586
O O7 0.000000 0.000000 0.500000
O O8 0.764576 0.351488 0.076173
O O9 0.512997 0.283797 0.023660
O O10 0.421736 0.373226 0.875060
O O11 0.250000 0.250000 0.500000
O O12 0.979385 0.310339 0.407630
O O13 0.000000 0.277196 0.250000
O O14 0.806545 0.683166 0.348492
O O15 0.665322 0.576806 0.318948
#
# Coordination Sequence:
#
# PCOD9286968 Si02
#       7
#     8   8   8   8   8   8   4
#     4  10  21  45  69 100 135 183 235 278 363 423
#     4  12  25  45  67  98 132 187 237 289 343 419
#     4  11  22  42  71  98 144 175 236 287 356 420
#     4  10  23  38  64 100 143 181 227 289 356 420
#     4  10  22  44  71  97 134 190 222 286 367 424
#     4   9  23  38  71 102 134 181 228 286 358 421
#     4  12  24  44  72  92 136 188 238 280 354 418
#
# _framework density 20.782494
#
# number of rings (size 3 to 8) (size 9 to 14) (size 15 to 20)
#    0.923    0.615    3.077    0.923    8.615    2.462 
#    1.385    2.308    0.000    0.000    0.000    0.000 
#    0.000    0.000    0.000    0.000    0.000    0.000 
#
# Total GULP energy -144781.924270 kJ/mol
# GULP energy per Si atom -5568.535549 kJ/mol
# Density = 2.073519 g / cm^3
# Si number density = 20.782494 Si / 1000 Ang^3
#
#
#
# Elastic Constant Matrix: (Units=GPa)
#
#
# Indices 1 2 3 4 5 6 
#
# 1 135.0778 62.5848 28.4215 -0.0003 -29.6085 -0.0001
# 2 62.5848 111.3273 27.3052 -0.0001 -11.5029 0.0000
# 3 28.4215 27.3052 80.8341 -0.0006 -22.7933 -0.0003
# 4 -0.0003 -0.0001 -0.0006 7.0436 -0.0003 -21.1342
# 5 -29.6085 -11.5029 -22.7933 -0.0003 29.4154 -0.0002
# 6 -0.0001 0.0000 -0.0003 -21.1342 -0.0002 42.2960
#
#
#
# Elastic Compliance Matrix: (Units=1/GPa)
#
#
# Indices 1 2 3 4 5 6 
#
# 1 0.012385 -0.006031 0.000682 -0.000002 0.010637 -0.000001
# 2 -0.006031 0.012791 -0.003201 0.000001 -0.003549 0.000001
# 3 0.000682 -0.003201 0.016703 -0.000005 0.012377 -0.000002
# 4 -0.000002 0.000001 -0.000005 -0.284368 -0.000010 -0.142091
# 5 0.010637 -0.003549 0.012377 -0.000010 0.052905 -0.000005
# 6 -0.000001 0.000001 -0.000002 -0.142091 -0.000005 -0.047356
#
#
# Mechanical properties :
#
#
# Convention : Reuss Voigt Hill
#
# Bulk Modulus (GPa) = 40.35681 62.65137 51.50409
# Shear Modulus (GPa) = -23.63177 29.67949 3.02386
#
# Velocity S-wave (km/s) = -3.37575 3.78312 1.20754
# Velocity P-wave (km/s) = 2.06557 7.02099 5.17498
#
# Compressibility (1/GPa) = 0.02477896
#
# Stress axis : x y z
#
# Youngs Moduli (GPa) = 80.73972 78.17779 59.87085
#
# Poissons Ratio (x) = 0.47148 -0.04081
# Poissons Ratio (y) = 0.48693 0.19165
# Poissons Ratio (z) = -0.05504 0.25025
#
# Static dielectric constant tensor:
#      x y z
#    x 1.869020 0.000000 -0.049410 
#    y 0.000000 1.768880 0.000000 
#    z -0.049410 0.000000 1.795370 
# 
# From -- ./inp_files/147225.got.cif
#   From: 2010.05.17/outbox.cif.g08.bks.cpg/sg15_74_cif.got.tgz:147225.got - 2010.06.03 18:47:42.
