data_PCOD9286501
_publ_section_title
;
Structure prediction by ZEFSAII (Michael W. Deem and Ramdas Pophale) SiO2 
 PCOD9286501
Probable space group: C 2/C
;
_chemical_formula_sum "Si O2"
_cell_formula_units_Z 48
_cell_length_a 9.403886
_cell_length_b 22.988236
_cell_length_c 10.981663
_cell_angle_alpha 90.000000
_cell_angle_beta 102.974193
_cell_angle_gamma 90.000000
_cell_volume 2313.396969
_symmetry_space_group_name_H-M "C 2/C"
_symmetry_group_IT_number 15
_symmetry_cell_setting 'monoclinic'
loop_
_space_group_symop_operation_xyz
x,y,z
-x,y,1/2-z
-x,-y,-z
x,-y,1/2+z
1/2+x,1/2+y,z
1/2-x,1/2+y,1/2-z
1/2-x,1/2-y,-z
1/2+x,1/2-y,1/2+z
loop_
_atom_site_type_symbol
_atom_site_label
_atom_site_fract_x
_atom_site_fract_y
_atom_site_fract_z
Si Si1 0.102157 0.658135 0.077240
Si Si2 0.347303 0.717995 0.286441
Si Si3 0.330014 0.570789 0.711904
Si Si4 0.845990 0.656676 0.687732
Si Si5 0.341283 0.046462 0.273738
Si Si6 0.235883 0.363346 0.948974
O O1 0.206176 0.693702 0.187444
O O2 0.138525 0.590250 0.108842
O O3 0.929633 0.661160 0.070862
O O4 0.141375 0.676302 0.948625
O O5 0.500000 0.701729 0.250000
O O6 0.336639 0.787411 0.273516
O O7 0.336627 0.688471 0.416510
O O8 0.500000 0.559306 0.750000
O O9 0.282645 0.612337 0.813745
O O10 0.243896 0.510647 0.705553
O O11 0.285103 0.606807 0.582986
O O12 0.000000 0.626455 0.750000
O O13 0.500000 0.031785 0.250000
O O14 0.265842 0.085817 0.154269
#
# Coordination Sequence:
#
# PCOD9286501 Si02
#       6
#     8   8   8   8   8   8
#     4  10  21  43  70  92 123 171 216 259 312 386
#     4  10  23  41  66  96 126 168 207 268 323 365
#     4  12  27  40  60  97 131 170 209 269 320 369
#     4  11  23  43  64  96 128 167 216 257 315 384
#     4   9  22  41  67  91 121 169 214 262 315 379
#     4  10  23  44  66  92 126 171 217 256 319 384
#
# _framework density 20.748709000000002
#
# number of rings (size 3 to 8) (size 9 to 14) (size 15 to 20)
#    0.000    1.667    1.667    2.500    4.667    6.667 
#    0.000    0.000    0.000    0.000    0.000    0.000 
#    0.000    0.000    0.000    0.000    0.000    0.000 
#
# Total GULP energy -134095.459839 kJ/mol
# GULP energy per Si atom -5587.310827 kJ/mol
# Density = 2.070148 g / cm^3
# Si number density = 20.748709 Si / 1000 Ang^3
#
#
#
# Elastic Constant Matrix: (Units=GPa)
#
#
# Indices 1 2 3 4 5 6 
#
# 1 96.4522 62.6990 -0.2908 0.0000 -0.6367 0.0000
# 2 62.6990 106.5929 10.5722 0.0000 -17.9564 0.0000
# 3 -0.2908 10.5722 54.2058 0.0000 -6.5212 0.0000
# 4 0.0000 0.0000 0.0000 19.2254 0.0000 -4.0896
# 5 -0.6367 -17.9564 -6.5212 0.0000 28.5729 0.0000
# 6 0.0000 0.0000 0.0000 -4.0896 0.0000 16.8534
#
#
#
# Elastic Compliance Matrix: (Units=1/GPa)
#
#
# Indices 1 2 3 4 5 6 
#
# 1 0.018083 -0.011930 0.001615 0.000000 -0.006726 0.000000
# 2 -0.011930 0.018451 -0.002365 0.000000 0.010790 0.000000
# 3 0.001615 -0.002365 0.019273 0.000000 0.002949 0.000000
# 4 0.000000 0.000000 0.000000 0.054845 0.000000 0.013309
# 5 -0.006726 0.010790 0.002949 0.000000 0.042302 0.000000
# 6 0.000000 0.000000 0.000000 0.013309 0.000000 0.062565
#
#
# Mechanical properties :
#
#
# Convention : Reuss Voigt Hill
#
# Bulk Modulus (GPa) = 32.84354 44.80128 38.82241
# Shear Modulus (GPa) = 19.91806 25.21505 22.56656
#
# Velocity S-wave (km/s) = 3.10169 3.48984 3.30147
# Velocity P-wave (km/s) = 5.35639 6.15450 5.76926
#
# Compressibility (1/GPa) = 0.03044739
#
# Stress axis : x y z
#
# Youngs Moduli (GPa) = 55.29919 54.19755 51.88661
#
# Poissons Ratio (x) = 0.64658 -0.08378
# Poissons Ratio (y) = 0.65972 0.12269
# Poissons Ratio (z) = -0.08929 0.12815
#
# Static dielectric constant tensor:
#      x y z
#    x 1.727100 0.000000 -0.013200 
#    y 0.000000 1.724940 0.000000 
#    z -0.013200 0.000000 1.769590 
# 
# From -- ./inp_files/79364.got.cif
#   From: 2010.05.17/outbox.cif.g08.bks.cpg/sg15_40_cif.got.tgz:79364.got - 2010.06.03 18:47:42.
