data_PCOD9286679
_publ_section_title
;
Structure prediction by ZEFSAII (Michael W. Deem and Ramdas Pophale) SiO2 
 PCOD9286679
Probable space group: C 2/C
;
_chemical_formula_sum "Si O2"
_cell_formula_units_Z 44
_cell_length_a 7.875414
_cell_length_b 12.748440
_cell_length_c 21.134431
_cell_angle_alpha 90.000000
_cell_angle_beta 85.936295
_cell_angle_gamma 90.000000
_cell_volume 2116.546195
_symmetry_space_group_name_H-M "C 2/C"
_symmetry_group_IT_number 15
_symmetry_cell_setting 'monoclinic'
loop_
_space_group_symop_operation_xyz
x,y,z
-x,y,1/2-z
-x,-y,-z
x,-y,1/2+z
1/2+x,1/2+y,z
1/2-x,1/2+y,1/2-z
1/2-x,1/2-y,-z
1/2+x,1/2-y,1/2+z
loop_
_atom_site_type_symbol
_atom_site_label
_atom_site_fract_x
_atom_site_fract_y
_atom_site_fract_z
Si Si1 0.826642 0.811204 0.374302
Si Si2 0.121553 0.901521 0.994120
Si Si3 0.567731 0.993628 0.069961
Si Si4 0.131368 0.341025 0.856412
Si Si5 0.538110 0.246366 0.592645
Si Si6 0.500000 0.717525 0.750000
O O1 0.806583 0.880665 0.437593
O O2 0.641574 0.762699 0.365957
O O3 0.901537 0.850265 0.305249
O O4 0.979766 0.731892 0.388854
O O5 0.020709 0.800820 0.971003
O O6 0.263279 0.936062 0.939711
O O7 0.000000 0.000000 0.000000
O O8 0.604646 0.872276 0.083312
O O9 0.436234 0.043836 0.123719
O O10 0.500000 0.000000 0.000000
O O11 0.313400 0.315711 0.881116
O O12 0.124031 0.297482 0.784853
#
# Coordination Sequence:
#
# PCOD9286679 Si02
#       6
#     8   8   8   8   8   4
#     4  10  21  44  65  94 139 172 223 284 316 409
#     4  12  23  40  69 103 142 175 220 285 353 400
#     4  12  23  40  67 105 138 170 222 280 348 408
#     4  10  23  45  67  92 137 175 219 281 326 405
#     4  12  24  41  72 101 134 179 222 281 353 390
#     4   8  22  46  68  88 140 178 232 276 318 406
#
# _framework density 20.788584
#
# number of rings (size 3 to 8) (size 9 to 14) (size 15 to 20)
#    1.091    0.000    3.636    3.818    0.000    2.909 
#    0.000    1.818    4.000    0.000    0.000    0.000 
#    0.000    0.000    0.000    0.000    0.000    0.000 
#
# Total GULP energy -122488.029625 kJ/mol
# GULP energy per Si atom -5567.637710 kJ/mol
# Density = 2.074127 g / cm^3
# Si number density = 20.788584 Si / 1000 Ang^3
#
#
#
# Elastic Constant Matrix: (Units=GPa)
#
#
# Indices 1 2 3 4 5 6 
#
# 1 116.7385 20.1903 32.1030 0.0000 -4.1690 0.0000
# 2 20.1903 81.0137 25.7274 0.0000 -5.1019 0.0000
# 3 32.1030 25.7274 83.1755 0.0000 -8.0331 0.0000
# 4 0.0000 0.0000 0.0000 16.4411 0.0000 -3.0710
# 5 -4.1690 -5.1019 -8.0331 0.0000 27.4094 0.0000
# 6 0.0000 0.0000 0.0000 -3.0710 0.0000 36.7267
#
#
#
# Elastic Compliance Matrix: (Units=1/GPa)
#
#
# Indices 1 2 3 4 5 6 
#
# 1 0.009719 -0.001356 -0.003307 0.000000 0.000257 0.000000
# 2 -0.001356 0.013926 -0.003657 0.000000 0.001314 0.000000
# 3 -0.003307 -0.003657 0.014733 0.000000 0.003134 0.000000
# 4 0.000000 0.000000 0.000000 0.061788 0.000000 0.005167
# 5 0.000257 0.001314 0.003134 0.000000 0.037686 0.000000
# 6 0.000000 0.000000 0.000000 0.005167 0.000000 0.027660
#
#
# Mechanical properties :
#
#
# Convention : Reuss Voigt Hill
#
# Bulk Modulus (GPa) = 46.00298 48.55213 47.27755
# Shear Modulus (GPa) = 26.39936 29.64260 28.02098
#
# Velocity S-wave (km/s) = 3.56743 3.78022 3.67536
# Velocity P-wave (km/s) = 6.25665 6.51608 6.38768
#
# Compressibility (1/GPa) = 0.02173772
#
# Stress axis : x y z
#
# Youngs Moduli (GPa) = 102.88828 71.80988 67.87419
#
# Poissons Ratio (x) = 0.09736 0.22447
# Poissons Ratio (y) = 0.13950 0.24823
# Poissons Ratio (z) = 0.34027 0.26262
#
# Static dielectric constant tensor:
#      x y z
#    x 1.774060 0.000000 -0.025110 
#    y 0.000000 1.778880 0.000000 
#    z -0.025110 0.000000 1.788070 
# 
# From -- ./inp_files/262815.got.cif
#   From: 2010.05.17/outbox.cif.g08.bks.cpg/sg15_132_cif.got.tgz:262815.got - 2010.06.03 18:47:42.
