data_PCOD9286199
_publ_section_title
;
Structure prediction by ZEFSAII (Michael W. Deem and Ramdas Pophale) SiO2 
 PCOD9286199
Probable space group: C 2/C
;
_chemical_formula_sum "Si O2"
_cell_formula_units_Z 48
_cell_length_a 22.021267
_cell_length_b 5.161388
_cell_length_c 18.170719
_cell_angle_alpha 90.000000
_cell_angle_beta 76.170908
_cell_angle_gamma 90.000000
_cell_volume 2005.422968
_symmetry_space_group_name_H-M "C 2/C"
_symmetry_group_IT_number 15
_symmetry_cell_setting 'monoclinic'
loop_
_space_group_symop_operation_xyz
x,y,z
-x,y,1/2-z
-x,-y,-z
x,-y,1/2+z
1/2+x,1/2+y,z
1/2-x,1/2+y,1/2-z
1/2-x,1/2-y,-z
1/2+x,1/2-y,1/2+z
loop_
_atom_site_type_symbol
_atom_site_label
_atom_site_fract_x
_atom_site_fract_y
_atom_site_fract_z
Si Si1 0.537708 0.777378 0.300624
Si Si2 0.140990 0.919775 0.488413
Si Si3 0.235378 0.247741 0.849456
Si Si4 0.185285 0.740593 0.209310
Si Si5 0.431315 0.931246 0.049079
Si Si6 0.589831 0.493726 0.660229
O O1 0.500000 0.942862 0.250000
O O2 0.561279 0.904065 0.366263
O O3 0.483670 0.559920 0.336764
O O4 0.592850 0.655090 0.237383
O O5 0.208975 0.870807 0.433635
O O6 0.107429 0.675074 0.463570
O O7 0.129990 0.906030 0.578936
O O8 0.104191 0.178262 0.472525
O O9 0.183506 0.228310 0.798580
O O10 0.267753 0.532174 0.836213
O O11 0.285085 0.037335 0.810214
O O12 0.122184 0.745144 0.178661
O O13 0.500000 0.000000 0.000000
#
# Coordination Sequence:
#
# PCOD9286199 Si02
#       6
#     8   8   8   8   8   8
#     4   8  20  42  63  98 131 171 216 256 330 384
#     4  12  25  41  68  98 131 169 217 265 326 378
#     4  10  23  40  66  94 123 174 220 267 324 386
#     4  10  21  43  63  91 130 168 221 267 325 380
#     4  12  23  43  66  94 133 172 209 266 317 393
#     4   9  21  40  66  94 134 167 213 271 317 385
#
# _framework density 23.935103000000002
#
# number of rings (size 3 to 8) (size 9 to 14) (size 15 to 20)
#    1.000    0.667    1.667    2.500    0.000    5.333 
#    0.000    4.167    0.000    0.000    0.000    0.000 
#    0.000    0.000    0.000    0.000    0.000    0.000 
#
# Total GULP energy -133763.704088 kJ/mol
# GULP energy per Si atom -5573.487670 kJ/mol
# Density = 2.388063 g / cm^3
# Si number density = 23.935103 Si / 1000 Ang^3
#
#
#
# Elastic Constant Matrix: (Units=GPa)
#
#
# Indices 1 2 3 4 5 6 
#
# 1 66.9297 21.0708 18.9440 0.0000 -2.6366 0.0000
# 2 21.0708 106.1784 -10.9697 0.0000 4.1868 0.0000
# 3 18.9440 -10.9697 132.3031 0.0000 -13.5829 0.0000
# 4 0.0000 0.0000 0.0000 6.8522 0.0000 -6.9081
# 5 -2.6366 4.1868 -13.5829 0.0000 43.0322 0.0000
# 6 0.0000 0.0000 0.0000 -6.9081 0.0000 28.2936
#
#
#
# Elastic Compliance Matrix: (Units=1/GPa)
#
#
# Indices 1 2 3 4 5 6 
#
# 1 0.016862 -0.003643 -0.002660 0.000000 0.000548 0.000000
# 2 -0.003643 0.010307 0.001292 0.000000 -0.000818 0.000000
# 3 -0.002660 0.001292 0.008285 0.000000 0.002327 0.000000
# 4 0.000000 0.000000 0.000000 0.193591 0.000000 0.047267
# 5 0.000548 -0.000818 0.002327 0.000000 0.024086 0.000000
# 6 0.000000 0.000000 0.000000 0.047267 0.000000 0.046884
#
#
# Mechanical properties :
#
#
# Convention : Reuss Voigt Hill
#
# Bulk Modulus (GPa) = 39.31927 40.38905 39.85416
# Shear Modulus (GPa) = 15.69785 34.05999 24.87892
#
# Velocity S-wave (km/s) = 2.56374 3.77638 3.22752
# Velocity P-wave (km/s) = 5.02263 5.99381 5.52958
#
# Compressibility (1/GPa) = 0.02543282
#
# Stress axis : x y z
#
# Youngs Moduli (GPa) = 59.30345 97.02365 120.69563
#
# Poissons Ratio (x) = 0.35343 0.32108
# Poissons Ratio (y) = 0.21603 -0.15596
# Poissons Ratio (z) = 0.15776 -0.12537
#
# Static dielectric constant tensor:
#      x y z
#    x 2.014160 0.000000 -0.010820 
#    y 0.000000 1.900610 0.000000 
#    z -0.010820 0.000000 1.876950 
# 
# From -- ./inp_files/217547.got.cif
#   From: 2010.05.17/outbox.cif.g08.bks.cpg/sg15_109_cif.got.tgz:217547.got - 2010.06.03 18:47:42.
