data_PCOD9286633
_publ_section_title
;
Structure prediction by ZEFSAII (Michael W. Deem and Ramdas Pophale) SiO2 
 PCOD9286633
Probable space group: C 2/C
;
_chemical_formula_sum "Si O2"
_cell_formula_units_Z 64
_cell_length_a 15.666784
_cell_length_b 19.968959
_cell_length_c 17.129358
_cell_angle_alpha 90.000000
_cell_angle_beta 36.167883
_cell_angle_gamma 90.000000
_cell_volume 3162.577374
_symmetry_space_group_name_H-M "C 2/C"
_symmetry_group_IT_number 15
_symmetry_cell_setting 'monoclinic'
loop_
_space_group_symop_operation_xyz
x,y,z
-x,y,1/2-z
-x,-y,-z
x,-y,1/2+z
1/2+x,1/2+y,z
1/2-x,1/2+y,1/2-z
1/2-x,1/2-y,-z
1/2+x,1/2-y,1/2+z
loop_
_atom_site_type_symbol
_atom_site_label
_atom_site_fract_x
_atom_site_fract_y
_atom_site_fract_z
Si Si1 0.222713 0.825053 0.092904
Si Si2 0.087128 0.731148 0.603230
Si Si3 0.388765 0.082697 0.940657
Si Si4 0.029477 0.163039 0.014420
Si Si5 0.639717 0.535014 0.362985
Si Si6 0.481191 0.729040 0.883677
Si Si7 0.697020 0.937569 0.175319
Si Si8 0.157368 0.978637 0.177371
O O1 0.134191 0.817974 0.077113
O O2 0.209582 0.902157 0.128104
O O3 0.127543 0.778282 0.223188
O O4 0.385803 0.797128 0.962236
O O5 0.250000 0.750000 0.500000
O O6 0.107920 0.661075 0.543407
O O7 0.026357 0.787571 0.590483
O O8 0.000000 0.724528 0.750000
O O9 0.351684 0.076393 0.876269
O O10 0.555298 0.065969 0.833056
O O11 0.271610 0.033229 0.062413
O O12 0.176246 0.117241 0.903755
O O13 0.017839 0.202439 0.942179
O O14 0.895081 0.112240 0.121126
O O15 0.500000 0.500000 0.500000
O O16 0.753100 0.513149 0.344609
O O17 0.655249 0.497341 0.269775
O O18 0.000000 0.985902 0.250000
#
# Coordination Sequence:
#
# PCOD9286633 Si02
#       8
#     8   8   8   8   8   8   8   8
#     4  10  22  44  70 101 139 176 226 288 349 419
#     4  12  25  43  66  98 139 181 234 285 351 417
#     4  11  24  43  67  96 137 187 221 284 350 413
#     4  11  23  40  73  97 132 184 232 289 341 420
#     4  10  23  39  66  98 133 169 229 281 337 408
#     4  10  22  43  69 101 135 179 228 280 352 413
#     4  10  21  44  62  95 138 178 220 280 351 405
#     4  12  24  41  72  99 133 181 231 281 343 423
#
# _framework density 20.236659
#
# number of rings (size 3 to 8) (size 9 to 14) (size 15 to 20)
#    0.000    1.250    3.750    3.000    3.500    3.500 
#    2.250    1.250    0.000    0.000    0.000    0.000 
#    0.000    0.000    0.000    0.000    0.000    0.000 
#
# Total GULP energy -178258.425305 kJ/mol
# GULP energy per Si atom -5570.575791 kJ/mol
# Density = 2.019060 g / cm^3
# Si number density = 20.236659 Si / 1000 Ang^3
#
#
#
# Elastic Constant Matrix: (Units=GPa)
#
#
# Indices 1 2 3 4 5 6 
#
# 1 47.9689 13.9500 2.1043 -0.0011 9.9437 0.0002
# 2 13.9500 113.5745 52.8911 -0.0056 -9.0526 0.0017
# 3 2.1043 52.8911 94.4422 -0.0059 -1.9591 0.0017
# 4 -0.0011 -0.0056 -0.0059 64.5715 0.0016 -4.0730
# 5 9.9437 -9.0526 -1.9591 0.0016 31.5472 -0.0002
# 6 0.0002 0.0017 0.0017 -4.0730 -0.0002 38.7411
#
#
#
# Elastic Compliance Matrix: (Units=1/GPa)
#
#
# Indices 1 2 3 4 5 6 
#
# 1 0.023865 -0.004454 0.001782 0.000000 -0.008690 0.000000
# 2 -0.004454 0.013035 -0.007103 0.000000 0.004703 0.000000
# 3 0.001782 -0.007103 0.014491 0.000001 -0.001700 0.000000
# 4 0.000000 0.000000 0.000001 0.015590 -0.000001 0.001639
# 5 -0.008690 0.004703 -0.001700 -0.000001 0.035682 0.000000
# 6 0.000000 0.000000 0.000000 0.001639 0.000000 0.025985
#
#
# Mechanical properties :
#
#
# Convention : Reuss Voigt Hill
#
# Bulk Modulus (GPa) = 31.40500 43.76402 37.58451
# Shear Modulus (GPa) = 31.48398 39.44132 35.46265
#
# Velocity S-wave (km/s) = 3.94863 4.41954 4.19070
# Velocity P-wave (km/s) = 6.02839 6.90769 6.48296
#
# Compressibility (1/GPa) = 0.03184207
#
# Stress axis : x y z
#
# Youngs Moduli (GPa) = 41.90188 76.71898 69.00616
#
# Poissons Ratio (x) = 0.34170 -0.12300
# Poissons Ratio (y) = 0.18663 0.49015
# Poissons Ratio (z) = -0.07469 0.54494
#
# Static dielectric constant tensor:
#      x y z
#    x 2.490230 0.000000 0.166030 
#    y 0.000000 1.733350 0.000000 
#    z 0.166030 0.000000 1.750880 
# 
# From -- ./inp_files/206440.got.cif
#   From: 2010.05.17/outbox.cif.g08.bks.cpg/sg15_104_cif.got.tgz:206440.got - 2010.06.03 18:47:42.
