data_PCOD9286450
_publ_section_title
;
Structure prediction by ZEFSAII (Michael W. Deem and Ramdas Pophale) SiO2 
 PCOD9286450
Probable space group: C 2/C
;
_chemical_formula_sum "Si O2"
_cell_formula_units_Z 40
_cell_length_a 5.347129
_cell_length_b 18.493325
_cell_length_c 18.260861
_cell_angle_alpha 90.000000
_cell_angle_beta 127.295743
_cell_angle_gamma 90.000000
_cell_volume 1436.505190
_symmetry_space_group_name_H-M "C 2/C"
_symmetry_group_IT_number 15
_symmetry_cell_setting 'monoclinic'
loop_
_space_group_symop_operation_xyz
x,y,z
-x,y,1/2-z
-x,-y,-z
x,-y,1/2+z
1/2+x,1/2+y,z
1/2-x,1/2+y,1/2-z
1/2-x,1/2-y,-z
1/2+x,1/2-y,1/2+z
loop_
_atom_site_type_symbol
_atom_site_label
_atom_site_fract_x
_atom_site_fract_y
_atom_site_fract_z
Si Si1 0.627998 0.934597 0.895066
Si Si2 0.162294 0.241249 0.646321
Si Si3 0.000000 0.993516 0.250000
Si Si4 0.500000 0.175915 0.250000
Si Si5 0.903606 0.588477 0.639144
Si Si6 0.551905 0.839808 0.012739
O O1 0.251042 0.954887 0.835603
O O2 0.664994 0.878435 0.835893
O O3 0.770619 0.010918 0.896139
O O4 0.719461 0.893581 0.984594
O O5 0.218498 0.275857 0.736009
O O6 0.788107 0.221025 0.584493
O O7 0.185185 0.295615 0.581617
O O8 0.299227 0.163497 0.653832
O O9 0.739390 0.937529 0.234543
O O10 0.947340 0.611041 0.561315
#
# Coordination Sequence:
#
# PCOD9286450 Si02
#       6
#     8   8   4   4   8   8
#     4   9  21  44  70 102 149 191 235 302 358 434
#     4  10  23  43  70 104 148 193 238 298 368 435
#     4   8  22  41  66 109 144 184 248 292 367 424
#     4  10  22  47  66 105 150 198 238 294 369 438
#     4  10  21  44  71 106 141 189 242 305 354 430
#     4  10  21  43  69 106 144 186 241 298 370 443
#
# _framework density 27.845358999999998
#
# number of rings (size 3 to 8) (size 9 to 14) (size 15 to 20)
#    1.200    1.200    0.000    1.200    0.000    3.200 
#   21.600    0.000    0.000    0.000    0.000    0.000 
#    0.000    0.000    0.000    0.000    0.000    0.000 
#
# Total GULP energy -111779.434624 kJ/mol
# GULP energy per Si atom -5588.971731 kJ/mol
# Density = 2.778198 g / cm^3
# Si number density = 27.845359 Si / 1000 Ang^3
#
#
#
# Elastic Constant Matrix: (Units=GPa)
#
#
# Indices 1 2 3 4 5 6 
#
# 1 71.8921 49.8562 29.2033 0.0000 -9.2922 0.0000
# 2 49.8562 248.9289 77.8036 0.0000 -26.5438 0.0000
# 3 29.2033 77.8036 153.0032 0.0000 -29.5112 0.0000
# 4 0.0000 0.0000 0.0000 53.1121 0.0000 5.8980
# 5 -9.2922 -26.5438 -29.5112 0.0000 54.8704 0.0000
# 6 0.0000 0.0000 0.0000 5.8980 0.0000 68.0050
#
#
#
# Elastic Compliance Matrix: (Units=1/GPa)
#
#
# Indices 1 2 3 4 5 6 
#
# 1 0.016555 -0.002736 -0.001655 0.000000 0.000590 0.000000
# 2 -0.002736 0.005291 -0.001968 0.000000 0.001038 0.000000
# 3 -0.001655 -0.001968 0.008496 0.000000 0.003337 0.000000
# 4 0.000000 0.000000 0.000000 0.019011 0.000000 -0.001649
# 5 0.000590 0.001038 0.003337 0.000000 0.020622 0.000000
# 6 0.000000 0.000000 0.000000 -0.001649 0.000000 0.014848
#
#
# Mechanical properties :
#
#
# Convention : Reuss Voigt Hill
#
# Bulk Modulus (GPa) = 56.73765 87.50562 72.12163
# Shear Modulus (GPa) = 48.34865 56.32825 52.33845
#
# Velocity S-wave (km/s) = 4.17145 4.50254 4.34015
# Velocity P-wave (km/s) = 6.60466 7.65012 7.14653
#
# Compressibility (1/GPa) = 0.01762498
#
# Stress axis : x y z
#
# Youngs Moduli (GPa) = 60.40344 189.00316 117.69935
#
# Poissons Ratio (x) = 0.51703 0.19479
# Poissons Ratio (y) = 0.16524 0.23166
# Poissons Ratio (z) = 0.09997 0.37200
#
# Static dielectric constant tensor:
#      x y z
#    x 2.321300 0.000000 0.083820 
#    y 0.000000 2.032150 0.000000 
#    z 0.083820 0.000000 2.193600 
# 
# From -- ./inp_files/184281.got.cif
#   From: 2010.05.17/outbox.cif.g08.bks.cpg/sg15_93_cif.got.tgz:184281.got - 2010.06.03 18:47:42.
