data_PCOD9286924
_publ_section_title
;
Structure prediction by ZEFSAII (Michael W. Deem and Ramdas Pophale) SiO2 
 PCOD9286924
Probable space group: C 2/C
;
_chemical_formula_sum "Si O2"
_cell_formula_units_Z 44
_cell_length_a 17.392180
_cell_length_b 18.209002
_cell_length_c 10.294929
_cell_angle_alpha 90.000000
_cell_angle_beta 144.289124
_cell_angle_gamma 90.000000
_cell_volume 1903.048059
_symmetry_space_group_name_H-M "C 2/C"
_symmetry_group_IT_number 15
_symmetry_cell_setting 'monoclinic'
loop_
_space_group_symop_operation_xyz
x,y,z
-x,y,1/2-z
-x,-y,-z
x,-y,1/2+z
1/2+x,1/2+y,z
1/2-x,1/2+y,1/2-z
1/2-x,1/2-y,-z
1/2+x,1/2-y,1/2+z
loop_
_atom_site_type_symbol
_atom_site_label
_atom_site_fract_x
_atom_site_fract_y
_atom_site_fract_z
Si Si1 0.087602 0.971956 0.738797
Si Si2 0.820627 0.460185 0.714154
Si Si3 0.000000 0.435883 0.750000
Si Si4 0.277236 0.896704 0.287701
Si Si5 0.001354 0.177344 0.099116
Si Si6 0.505704 0.843428 0.100696
O O1 0.000000 0.964605 0.750000
O O2 0.111574 0.886224 0.730606
O O3 0.000000 0.000000 0.500000
O O4 0.201383 0.026983 0.946070
O O5 0.945925 0.482581 0.795423
O O6 0.773916 0.515211 0.762863
O O7 0.881768 0.386920 0.864217
O O8 0.881514 0.384456 0.543814
O O9 0.354483 0.872755 0.263303
O O10 0.140003 0.858903 0.124213
O O11 0.000000 0.191772 0.250000
O O12 0.008803 0.258853 0.054428
O O13 0.500000 0.848994 0.250000
#
# Coordination Sequence:
#
# PCOD9286924 Si02
#       6
#     8   8   4   8   8   8
#     4  11  23  44  68  99 133 182 227 284 342 409
#     4  11  23  40  68  97 131 170 235 276 337 405
#     4  10  22  38  62  94 124 174 212 286 332 392
#     4  11  22  40  63  92 132 170 225 277 331 407
#     4  10  21  45  63  96 139 179 219 280 350 400
#     4  10  24  40  67 101 130 179 226 279 343 407
#
# _framework density 23.120802999999999
#
# number of rings (size 3 to 8) (size 9 to 14) (size 15 to 20)
#    0.000    1.455    3.636    3.273    5.091    2.909 
#    3.273    8.182    2.000    0.000    0.000    0.000 
#    0.000    0.000    0.000    0.000    0.000    0.000 
#
# Total GULP energy -122487.542273 kJ/mol
# GULP energy per Si atom -5567.615558 kJ/mol
# Density = 2.306818 g / cm^3
# Si number density = 23.120803 Si / 1000 Ang^3
#
#
#
# Elastic Constant Matrix: (Units=GPa)
#
#
# Indices 1 2 3 4 5 6 
#
# 1 58.6362 9.9671 7.1739 0.0000 -5.1041 0.0000
# 2 9.9671 148.8894 49.5177 0.0000 -1.2284 0.0000
# 3 7.1739 49.5177 185.4931 0.0000 -10.2639 0.0000
# 4 0.0000 0.0000 0.0000 24.1756 0.0000 -5.4689
# 5 -5.1041 -1.2284 -10.2639 0.0000 42.2333 0.0000
# 6 0.0000 0.0000 0.0000 -5.4689 0.0000 17.7891
#
#
#
# Elastic Compliance Matrix: (Units=1/GPa)
#
#
# Indices 1 2 3 4 5 6 
#
# 1 0.017443 -0.001058 -0.000281 0.000000 0.002009 0.000000
# 2 -0.001058 0.007438 -0.001966 0.000000 -0.000389 0.000000
# 3 -0.000281 -0.001966 0.006002 0.000000 0.001368 0.000000
# 4 0.000000 0.000000 0.000000 0.044456 0.000000 0.013667
# 5 0.002009 -0.000389 0.001368 0.000000 0.024242 0.000000
# 6 0.000000 0.000000 0.000000 0.013667 0.000000 0.060416
#
#
# Mechanical properties :
#
#
# Convention : Reuss Voigt Hill
#
# Bulk Modulus (GPa) = 41.19665 58.48178 49.83922
# Shear Modulus (GPa) = 28.62080 38.59696 33.60888
#
# Velocity S-wave (km/s) = 3.52217 4.09021 3.81677
# Velocity P-wave (km/s) = 5.86495 6.90329 6.40519
#
# Compressibility (1/GPa) = 0.02427382
#
# Stress axis : x y z
#
# Youngs Moduli (GPa) = 57.32841 134.44650 166.59830
#
# Poissons Ratio (x) = 0.14220 0.04683
# Poissons Ratio (y) = 0.06063 0.32757
# Poissons Ratio (z) = 0.01612 0.26435
#
# Static dielectric constant tensor:
#      x y z
#    x 1.926450 0.000000 -0.011900 
#    y 0.000000 1.991160 0.000000 
#    z -0.011900 0.000000 1.965190 
# 
# From -- ./inp_files/114156.got.cif
#   From: 2010.05.17/outbox.cif.g08.bks.cpg/sg15_58_cif.got.tgz:114156.got - 2010.06.03 18:47:42.
