data_PCOD9286959
_publ_section_title
;
Structure prediction by ZEFSAII (Michael W. Deem and Ramdas Pophale) SiO2 
 PCOD9286959
Probable space group: C 2/C
;
_chemical_formula_sum "Si O2"
_cell_formula_units_Z 52
_cell_length_a 12.410671
_cell_length_b 21.448638
_cell_length_c 12.402064
_cell_angle_alpha 90.000000
_cell_angle_beta 136.680176
_cell_angle_gamma 90.000000
_cell_volume 2264.943922
_symmetry_space_group_name_H-M "C 2/C"
_symmetry_group_IT_number 15
_symmetry_cell_setting 'monoclinic'
loop_
_space_group_symop_operation_xyz
x,y,z
-x,y,1/2-z
-x,-y,-z
x,-y,1/2+z
1/2+x,1/2+y,z
1/2-x,1/2+y,1/2-z
1/2-x,1/2-y,-z
1/2+x,1/2-y,1/2+z
loop_
_atom_site_type_symbol
_atom_site_label
_atom_site_fract_x
_atom_site_fract_y
_atom_site_fract_z
Si Si1 0.093327 0.594831 0.988008
Si Si2 0.683623 0.961473 0.089381
Si Si3 0.492542 0.684108 0.556518
Si Si4 0.000000 0.409595 0.750000
Si Si5 0.000000 0.098084 0.750000
Si Si6 0.759962 0.838504 0.425708
Si Si7 0.666357 0.810925 0.719214
Si Si8 0.000000 0.240346 0.250000
O O1 0.180420 0.535524 0.104267
O O2 0.132274 0.658404 0.078887
O O3 0.167465 0.608041 0.924411
O O4 0.914286 0.575107 0.888594
O O5 0.860014 0.940392 0.199879
O O6 0.591796 0.948712 0.908497
O O7 0.430065 0.643223 0.608681
O O8 0.627847 0.646311 0.592270
O O9 0.570218 0.747325 0.656531
O O10 0.348355 0.699543 0.374268
O O11 0.891073 0.362904 0.738608
O O12 0.886626 0.802727 0.594998
O O13 0.626685 0.789147 0.292297
#
# Coordination Sequence:
#
# PCOD9286959 Si02
#       8
#     8   8   8   4   4   8   8   4
#     4  10  24  45  73  93 139 180 226 280 345 402
#     4  10  24  48  69  98 133 181 236 287 332 407
#     4  12  26  41  67 104 141 176 228 280 349 414
#     4  10  21  45  68  92 137 187 234 272 344 404
#     4  12  27  45  68 102 135 181 234 294 330 404
#     4  11  22  40  63  96 134 174 214 271 338 408
#     4  11  24  42  69 102 140 183 220 284 349 412
#     4  10  22  38  62  98 138 162 214 268 334 414
#
# _framework density 22.958625000000001
#
# number of rings (size 3 to 8) (size 9 to 14) (size 15 to 20)
#    0.000    1.231    1.538    4.154    6.462    3.692 
#    5.538    1.538    0.000    0.000    0.000    0.000 
#    0.000    0.000    0.000    0.000    0.000    0.000 
#
# Total GULP energy -145286.617045 kJ/mol
# GULP energy per Si atom -5587.946809 kJ/mol
# Density = 2.290637 g / cm^3
# Si number density = 22.958625 Si / 1000 Ang^3
#
#
#
# Elastic Constant Matrix: (Units=GPa)
#
#
# Indices 1 2 3 4 5 6 
#
# 1 64.8286 25.0401 -2.5082 0.0000 6.4625 0.0000
# 2 25.0401 72.2902 23.5009 0.0000 21.1072 0.0000
# 3 -2.5082 23.5009 94.1132 0.0000 25.1954 0.0000
# 4 0.0000 0.0000 0.0000 17.2732 0.0000 10.3158
# 5 6.4625 21.1072 25.1954 0.0000 34.3507 0.0000
# 6 0.0000 0.0000 0.0000 10.3158 0.0000 29.9581
#
#
#
# Elastic Compliance Matrix: (Units=1/GPa)
#
#
# Indices 1 2 3 4 5 6 
#
# 1 0.018261 -0.006820 0.002473 0.000000 -0.001059 0.000000
# 2 -0.006820 0.019650 -0.002737 0.000000 -0.008783 0.000000
# 3 0.002473 -0.002737 0.013749 0.000000 -0.008868 0.000000
# 4 0.000000 0.000000 0.000000 0.072881 0.000000 -0.025096
# 5 -0.001059 -0.008783 -0.008868 0.000000 0.041212 0.000000
# 6 0.000000 0.000000 0.000000 -0.025096 0.000000 0.042022
#
#
# Mechanical properties :
#
#
# Convention : Reuss Voigt Hill
#
# Bulk Modulus (GPa) = 26.67260 35.92193 31.29726
# Shear Modulus (GPa) = 21.32748 28.66300 24.99524
#
# Velocity S-wave (km/s) = 3.05118 3.53719 3.30314
# Velocity P-wave (km/s) = 4.90467 5.68882 5.31124
#
# Compressibility (1/GPa) = 0.03749166
#
# Stress axis : x y z
#
# Youngs Moduli (GPa) = 54.76215 50.89095 72.73264
#
# Poissons Ratio (x) = 0.34708 -0.17988
# Poissons Ratio (y) = 0.37348 0.19907
# Poissons Ratio (z) = -0.13544 0.13929
#
# Static dielectric constant tensor:
#      x y z
#    x 1.933920 0.000000 -0.044850 
#    y 0.000000 1.805260 0.000000 
#    z -0.044850 0.000000 1.862910 
# 
# From -- ./inp_files/148149.got.cif
#   From: 2010.05.17/outbox.cif.g08.bks.cpg/sg15_75_cif.got.tgz:148149.got - 2010.06.03 18:47:42.
