data_PCOD9286306
_publ_section_title
;
Structure prediction by ZEFSAII (Michael W. Deem and Ramdas Pophale) SiO2 
 PCOD9286306
Probable space group: C 2/C
;
_chemical_formula_sum "Si O2"
_cell_formula_units_Z 56
_cell_length_a 18.642165
_cell_length_b 8.895537
_cell_length_c 19.627671
_cell_angle_alpha 90.000000
_cell_angle_beta 118.370915
_cell_angle_gamma 90.000000
_cell_volume 2863.951245
_symmetry_space_group_name_H-M "C 2/C"
_symmetry_group_IT_number 15
_symmetry_cell_setting 'monoclinic'
loop_
_space_group_symop_operation_xyz
x,y,z
-x,y,1/2-z
-x,-y,-z
x,-y,1/2+z
1/2+x,1/2+y,z
1/2-x,1/2+y,1/2-z
1/2-x,1/2-y,-z
1/2+x,1/2-y,1/2+z
loop_
_atom_site_type_symbol
_atom_site_label
_atom_site_fract_x
_atom_site_fract_y
_atom_site_fract_z
Si Si1 0.491850 0.104140 0.063067
Si Si2 0.857405 0.461883 0.783543
Si Si3 0.302748 0.727550 0.321475
Si Si4 0.887381 0.561626 0.143875
Si Si5 0.725129 0.416478 0.010228
Si Si6 0.416906 0.585606 0.472206
Si Si7 0.712711 0.326996 0.415325
O O1 0.582660 0.117621 0.135184
O O2 0.443838 0.026952 0.104759
O O3 0.442986 0.256237 0.020504
O O4 0.500000 0.000000 0.000000
O O5 0.773126 0.367790 0.741318
O O6 0.834808 0.632488 0.792931
O O7 0.902208 0.468775 0.729913
O O8 0.375812 0.623527 0.381046
O O9 0.268827 0.795543 0.376878
O O10 0.801279 0.482262 0.087490
O O11 0.871508 0.741812 0.134808
O O12 0.645891 0.475607 0.015997
O O13 0.750000 0.250000 0.000000
O O14 0.712369 0.500515 0.932631
O O15 0.500000 0.500000 0.500000
O O16 0.750000 0.250000 0.500000
#
# Coordination Sequence:
#
# PCOD9286306 Si02
#       7
#     8   8   8   8   8   8   8
#     4  12  25  42  71 101 131 186 237 291 352 423
#     4  11  25  41  71  98 140 183 229 284 358 431
#     4  11  23  44  66  99 134 181 224 285 349 426
#     4  10  21  43  66  93 138 177 230 282 347 420
#     4  11  22  37  69 102 135 183 229 284 356 420
#     4  12  25  43  65 103 145 172 237 303 353 414
#     4   9  16  37  65  88 126 170 219 276 328 411
#
# _framework density 19.553405999999999
#
# number of rings (size 3 to 8) (size 9 to 14) (size 15 to 20)
#    0.000    1.143    7.143    1.286    4.000    1.143 
#    0.000    0.000    0.000    0.000    0.000    0.000 
#    0.000    0.000    0.000    0.000    0.000    0.000 
#
# Total GULP energy -155984.641686 kJ/mol
# GULP energy per Si atom -5570.880060 kJ/mol
# Density = 1.950890 g / cm^3
# Si number density = 19.553406 Si / 1000 Ang^3
#
#
#
# Elastic Constant Matrix: (Units=GPa)
#
#
# Indices 1 2 3 4 5 6 
#
# 1 98.4203 49.2458 51.6147 0.0000 9.2932 0.0000
# 2 49.2458 124.0513 43.2608 0.0000 -0.0856 0.0000
# 3 51.6147 43.2608 128.0429 0.0000 9.8286 0.0000
# 4 0.0000 0.0000 0.0000 26.8168 0.0000 -2.8189
# 5 9.2932 -0.0856 9.8286 0.0000 40.7240 0.0000
# 6 0.0000 0.0000 0.0000 -2.8189 0.0000 29.9005
#
#
#
# Elastic Compliance Matrix: (Units=1/GPa)
#
#
# Indices 1 2 3 4 5 6 
#
# 1 0.014844 -0.004388 -0.004321 0.000000 -0.002354 0.000000
# 2 -0.004388 0.010459 -0.001878 0.000000 0.001477 0.000000
# 3 -0.004321 -0.001878 0.010302 0.000000 -0.001504 0.000000
# 4 0.000000 0.000000 0.000000 0.037663 0.000000 0.003551
# 5 -0.002354 0.001477 -0.001504 0.000000 0.025459 0.000000
# 6 0.000000 0.000000 0.000000 0.003551 0.000000 0.033779
#
#
# Mechanical properties :
#
#
# Convention : Reuss Voigt Hill
#
# Bulk Modulus (GPa) = 69.29300 70.97300 70.13300
# Shear Modulus (GPa) = 31.54779 33.24780 32.39780
#
# Velocity S-wave (km/s) = 4.02109 4.12801 4.07490
# Velocity P-wave (km/s) = 7.55471 7.68742 7.62136
#
# Compressibility (1/GPa) = 0.01443147
#
# Stress axis : x y z
#
# Youngs Moduli (GPa) = 67.36703 95.61086 97.07207
#
# Poissons Ratio (x) = 0.41951 0.41941
# Poissons Ratio (y) = 0.29558 0.18234
# Poissons Ratio (z) = 0.29107 0.17959
#
# Static dielectric constant tensor:
#      x y z
#    x 1.746380 0.000000 0.026580 
#    y 0.000000 1.813850 0.000000 
#    z 0.026580 0.000000 1.742150 
# 
# From -- ./inp_files/247587.got.cif
#   From: 2010.05.17/outbox.cif.g08.bks.cpg/sg15_124_cif.got.tgz:247587.got - 2010.06.03 18:47:42.
