data_PCOD9286990
_publ_section_title
;
Structure prediction by ZEFSAII (Michael W. Deem and Ramdas Pophale) SiO2 
 PCOD9286990
Probable space group: C 2/C
;
_chemical_formula_sum "Si O2"
_cell_formula_units_Z 56
_cell_length_a 9.074607
_cell_length_b 18.961685
_cell_length_c 14.398504
_cell_angle_alpha 90.000000
_cell_angle_beta 64.919353
_cell_angle_gamma 90.000000
_cell_volume 2243.945276
_symmetry_space_group_name_H-M "C 2/C"
_symmetry_group_IT_number 15
_symmetry_cell_setting 'monoclinic'
loop_
_space_group_symop_operation_xyz
x,y,z
-x,y,1/2-z
-x,-y,-z
x,-y,1/2+z
1/2+x,1/2+y,z
1/2-x,1/2+y,1/2-z
1/2-x,1/2-y,-z
1/2+x,1/2-y,1/2+z
loop_
_atom_site_type_symbol
_atom_site_label
_atom_site_fract_x
_atom_site_fract_y
_atom_site_fract_z
Si Si1 0.154914 0.398517 0.309202
Si Si2 0.500000 0.772116 0.250000
Si Si3 0.806395 0.988699 0.114383
Si Si4 0.998292 0.459529 0.863214
Si Si5 0.433644 0.727060 0.967753
Si Si6 0.500000 0.661955 0.750000
Si Si7 0.491174 0.603479 0.428997
Si Si8 0.209464 0.332392 0.887491
O O1 0.053047 0.327601 0.316995
O O2 0.196267 0.433072 0.198070
O O3 0.070228 0.465588 0.380058
O O4 0.331641 0.380794 0.302174
O O5 0.655944 0.720450 0.195025
O O6 0.695645 0.031730 0.070620
O O7 0.939951 0.939229 0.033841
O O8 0.892225 0.048476 0.154794
O O9 0.100786 0.392329 0.866617
O O10 0.000000 0.454141 0.750000
O O11 0.502262 0.703513 0.847597
O O12 0.569598 0.782184 0.964569
O O13 0.250000 0.750000 0.000000
O O14 0.422010 0.671260 0.054266
O O15 0.326048 0.624840 0.424703
#
# Coordination Sequence:
#
# PCOD9286990 Si02
#       8
#     8   4   8   8   8   4   8   8
#     4  11  23  44  72 102 144 200 251 310 371 455
#     4  12  24  45  69 110 150 200 246 316 378 449
#     4  10  21  45  70  96 145 187 250 304 383 447
#     4  10  24  42  70 101 143 187 251 309 373 450
#     4  12  28  48  71 107 155 202 247 316 389 456
#     4  12  26  45  75 102 142 196 264 296 384 449
#     4  11  25  43  70 103 143 192 246 319 373 459
#     4  12  28  42  73 109 150 193 253 314 387 445
#
# _framework density 24.956045
#
# number of rings (size 3 to 8) (size 9 to 14) (size 15 to 20)
#    0.000    0.857    5.000    1.286    9.000    1.714 
#    0.000    0.000    0.000    0.000    0.000    0.000 
#    0.000    0.000    0.000    0.000    0.000    0.000 
#
# Total GULP energy -156272.372668 kJ/mol
# GULP energy per Si atom -5581.156167 kJ/mol
# Density = 2.489924 g / cm^3
# Si number density = 24.956045 Si / 1000 Ang^3
#
#
#
# Elastic Constant Matrix: (Units=GPa)
#
#
# Indices 1 2 3 4 5 6 
#
# 1 171.6061 77.6833 6.6150 0.0000 -21.4272 0.0000
# 2 77.6833 147.2142 18.3427 0.0000 -10.0552 0.0000
# 3 6.6150 18.3427 40.9900 0.0000 -9.5010 0.0000
# 4 0.0000 0.0000 0.0000 2.2584 0.0000 -11.0679
# 5 -21.4272 -10.0552 -9.5010 0.0000 38.8975 0.0000
# 6 0.0000 0.0000 0.0000 -11.0679 0.0000 75.7224
#
#
#
# Elastic Compliance Matrix: (Units=1/GPa)
#
#
# Indices 1 2 3 4 5 6 
#
# 1 0.008153 -0.004226 0.001445 0.000000 0.003752 0.000000
# 2 -0.004226 0.009432 -0.003724 0.000000 -0.000799 0.000000
# 3 0.001445 -0.003724 0.027339 0.000000 0.006511 0.000000
# 4 0.000000 0.000000 0.000000 1.560870 0.000000 0.228142
# 5 0.003752 -0.000799 0.006511 0.000000 0.029159 0.000000
# 6 0.000000 0.000000 0.000000 0.228142 0.000000 0.046552
#
#
# Mechanical properties :
#
#
# Convention : Reuss Voigt Hill
#
# Bulk Modulus (GPa) = 31.33458 62.78804 47.06131
# Shear Modulus (GPa) = 2.93229 40.52026 21.72627
#
# Velocity S-wave (km/s) = 1.08514 4.03384 2.95376
# Velocity P-wave (km/s) = 3.76208 6.84908 5.52554
#
# Compressibility (1/GPa) = 0.03191362
#
# Stress axis : x y z
#
# Youngs Moduli (GPa) = 122.65204 106.01839 36.57818
#
# Poissons Ratio (x) = 0.44805 -0.05286
# Poissons Ratio (y) = 0.51834 0.13622
# Poissons Ratio (z) = -0.17723 0.39483
#
# Static dielectric constant tensor:
#      x y z
#    x 2.067000 0.000000 -0.057580 
#    y 0.000000 2.016490 0.000000 
#    z -0.057580 0.000000 2.111300 
# 
# From -- ./inp_files/190948.got.cif
#   From: 2010.05.17/outbox.cif.g08.bks.cpg/sg15_96_cif.got.tgz:190948.got - 2010.06.03 18:47:42.
