data_PCOD9286405
_publ_section_title
;
Structure prediction by ZEFSAII (Michael W. Deem and Ramdas Pophale) SiO2 
 PCOD9286405
Probable space group: C 2/C
;
_chemical_formula_sum "Si O2"
_cell_formula_units_Z 52
_cell_length_a 15.845931
_cell_length_b 11.215087
_cell_length_c 14.304216
_cell_angle_alpha 90.000000
_cell_angle_beta 69.776276
_cell_angle_gamma 90.000000
_cell_volume 2385.334613
_symmetry_space_group_name_H-M "C 2/C"
_symmetry_group_IT_number 15
_symmetry_cell_setting 'monoclinic'
loop_
_space_group_symop_operation_xyz
x,y,z
-x,y,1/2-z
-x,-y,-z
x,-y,1/2+z
1/2+x,1/2+y,z
1/2-x,1/2+y,1/2-z
1/2-x,1/2-y,-z
1/2+x,1/2-y,1/2+z
loop_
_atom_site_type_symbol
_atom_site_label
_atom_site_fract_x
_atom_site_fract_y
_atom_site_fract_z
Si Si1 0.000000 0.625364 0.250000
Si Si2 0.955825 0.833754 0.003864
Si Si3 0.695858 0.828841 0.633034
Si Si4 0.592875 0.444278 0.675564
Si Si5 0.734503 0.091263 0.911193
Si Si6 0.867058 0.935025 0.630466
Si Si7 0.426718 0.932287 0.587277
O O1 0.091311 0.693213 0.191793
O O2 0.036231 0.551494 0.322937
O O3 0.926666 0.858829 0.906108
O O4 0.064606 0.850666 0.955821
O O5 0.928259 0.705818 0.054941
O O6 0.910530 0.936136 0.086349
O O7 0.697409 0.858901 0.522833
O O8 0.746920 0.712049 0.651556
O O9 0.761511 0.932006 0.646581
O O10 0.500000 0.500608 0.750000
O O11 0.668305 0.533353 0.610539
O O12 0.627593 0.396921 0.762638
O O13 0.668139 0.995522 0.892923
O O14 0.500000 0.000000 0.500000
#
# Coordination Sequence:
#
# PCOD9286405 Si02
#       7
#     4   8   8   8   8   8   8
#     4  12  28  46  76 106 140 200 248 288 378 432
#     4  10  23  42  73 103 146 191 240 306 362 422
#     4  11  24  44  71 105 141 191 242 300 360 436
#     4  10  22  42  68 104 137 186 237 295 356 428
#     4  11  24  44  72 100 149 186 236 304 363 424
#     4  10  21  43  68 108 140 187 248 295 359 434
#     4  12  26  50  69 109 146 190 241 304 364 439
#
# _framework density 21.799876000000001
#
# number of rings (size 3 to 8) (size 9 to 14) (size 15 to 20)
#    0.000    1.231    3.077    1.846    5.385    0.615 
#    6.923    0.000    0.000    0.000    0.000    0.000 
#    0.000    0.000    0.000    0.000    0.000    0.000 
#
# Total GULP energy -144830.920135 kJ/mol
# GULP energy per Si atom -5570.420005 kJ/mol
# Density = 2.175026 g / cm^3
# Si number density = 21.799876 Si / 1000 Ang^3
#
#
#
# Elastic Constant Matrix: (Units=GPa)
#
#
# Indices 1 2 3 4 5 6 
#
# 1 143.3385 50.4708 55.8861 0.0000 -12.9297 0.0000
# 2 50.4708 83.6351 31.0177 0.0000 -6.7938 0.0000
# 3 55.8861 31.0177 98.1817 0.0000 6.6058 0.0000
# 4 0.0000 0.0000 0.0000 -13.0873 0.0000 -5.3602
# 5 -12.9297 -6.7938 6.6058 0.0000 51.1970 0.0000
# 6 0.0000 0.0000 0.0000 -5.3602 0.0000 30.3787
#
#
#
# Elastic Compliance Matrix: (Units=1/GPa)
#
#
# Indices 1 2 3 4 5 6 
#
# 1 0.010675 -0.004415 -0.004866 0.000000 0.002738 0.000000
# 2 -0.004415 0.015661 -0.002521 0.000000 0.001288 0.000000
# 3 -0.004866 -0.002521 0.013978 0.000000 -0.003367 0.000000
# 4 0.000000 0.000000 0.000000 -0.071260 0.000000 -0.012574
# 5 0.002738 0.001288 -0.003367 0.000000 0.020829 0.000000
# 6 0.000000 0.000000 0.000000 -0.012574 0.000000 0.030699
#
#
# Mechanical properties :
#
#
# Convention : Reuss Voigt Hill
#
# Bulk Modulus (GPa) = 59.84547 66.65607 63.25077
# Shear Modulus (GPa) = 100.48977 26.21638 63.35308
#
# Velocity S-wave (km/s) = 6.79681 3.47160 5.39669
# Velocity P-wave (km/s) = 9.43966 6.83463 8.24073
#
# Compressibility (1/GPa) = 0.01670970
#
# Stress axis : x y z
#
# Youngs Moduli (GPa) = 93.67510 63.85397 71.54157
#
# Poissons Ratio (x) = 0.28192 0.34811
# Poissons Ratio (y) = 0.41359 0.18037
# Poissons Ratio (z) = 0.45581 0.16098
#
# Static dielectric constant tensor:
#      x y z
#    x 1.851990 0.000000 -0.001960 
#    y 0.000000 1.781940 0.000000 
#    z -0.001960 0.000000 1.837770 
# 
# From -- ./inp_files/152557.got.cif
#   From: 2010.05.17/outbox.cif.g08.bks.cpg/sg15_77_cif.got.tgz:152557.got - 2010.06.03 18:47:42.
