data_PCOD9286759
_publ_section_title
;
Structure prediction by ZEFSAII (Michael W. Deem and Ramdas Pophale) SiO2 
 PCOD9286759
Probable space group: C 2/C
;
_chemical_formula_sum "Si O2"
_cell_formula_units_Z 56
_cell_length_a 28.673017
_cell_length_b 17.698636
_cell_length_c 5.295205
_cell_angle_alpha 90.000000
_cell_angle_beta 80.720550
_cell_angle_gamma 90.000000
_cell_volume 2652.009698
_symmetry_space_group_name_H-M "C 2/C"
_symmetry_group_IT_number 15
_symmetry_cell_setting 'monoclinic'
loop_
_space_group_symop_operation_xyz
x,y,z
-x,y,1/2-z
-x,-y,-z
x,-y,1/2+z
1/2+x,1/2+y,z
1/2-x,1/2+y,1/2-z
1/2-x,1/2-y,-z
1/2+x,1/2-y,1/2+z
loop_
_atom_site_type_symbol
_atom_site_label
_atom_site_fract_x
_atom_site_fract_y
_atom_site_fract_z
Si Si1 0.500000 0.261287 0.750000
Si Si2 0.554100 0.971756 0.511355
Si Si3 0.083182 0.691806 0.989701
Si Si4 0.500000 0.549102 0.750000
Si Si5 0.930329 0.838470 0.168042
Si Si6 0.186520 0.264715 0.290134
Si Si7 0.145318 0.950926 0.457765
Si Si8 0.288441 0.326392 0.236686
O O1 0.542975 0.213095 0.822198
O O2 0.523967 0.314447 0.527263
O O3 0.563521 0.887843 0.608286
O O4 0.500000 0.000000 0.500000
O O5 0.575031 0.975296 0.211262
O O6 0.136603 0.692056 0.841886
O O7 0.084141 0.761604 0.183657
O O8 0.500000 0.500000 0.500000
O O9 0.548148 0.597008 0.676247
O O10 0.891016 0.880659 0.039774
O O11 0.232025 0.317093 0.301704
O O12 0.189901 0.201953 0.513752
O O13 0.194149 0.227255 0.008957
O O14 0.194968 0.909542 0.356593
O O15 0.139592 0.989426 0.734218
#
# Coordination Sequence:
#
# PCOD9286759 Si02
#       8
#     4   8   8   4   8   8   8   8
#     4  12  25  40  68  95 140 176 244 294 325 394
#     4  10  24  42  63  90 131 170 214 267 347 411
#     4  12  25  42  71 100 133 182 234 291 334 415
#     4  12  25  42  56  81 130 180 222 280 333 370
#     4  12  26  41  63  97 131 184 248 278 332 402
#     4  10  22  41  74  99 133 167 228 296 338 404
#     4  12  26  43  68  98 144 189 228 288 351 418
#     4  10  21  44  68 103 132 171 225 287 354 410
#
# _framework density 21.116063
#
# number of rings (size 3 to 8) (size 9 to 14) (size 15 to 20)
#    0.000    0.857    2.857    3.857    8.000    0.000 
#    0.000    1.429    0.000    0.000    0.000    0.000 
#    0.000    0.000    0.000    0.000    0.000    0.000 
#
# Total GULP energy -156270.330542 kJ/mol
# GULP energy per Si atom -5581.083234 kJ/mol
# Density = 2.106800 g / cm^3
# Si number density = 21.116063 Si / 1000 Ang^3
#
#
#
# Elastic Constant Matrix: (Units=GPa)
#
#
# Indices 1 2 3 4 5 6 
#
# 1 124.3009 30.6369 9.0842 0.0000 -11.7333 0.0000
# 2 30.6369 86.9905 4.9682 0.0000 0.9253 0.0000
# 3 9.0842 4.9682 86.2143 0.0000 -1.7737 0.0000
# 4 0.0000 0.0000 0.0000 18.4571 0.0000 3.2997
# 5 -11.7333 0.9253 -1.7737 0.0000 21.1720 0.0000
# 6 0.0000 0.0000 0.0000 3.2997 0.0000 27.8159
#
#
#
# Elastic Compliance Matrix: (Units=1/GPa)
#
#
# Indices 1 2 3 4 5 6 
#
# 1 0.009418 -0.003334 -0.000691 0.000000 0.005307 0.000000
# 2 -0.003334 0.012720 -0.000432 0.000000 -0.002440 0.000000
# 3 -0.000691 -0.000432 0.011709 0.000000 0.000617 0.000000
# 4 0.000000 0.000000 0.000000 0.055354 0.000000 -0.006566
# 5 0.005307 -0.002440 0.000617 0.000000 0.050332 0.000000
# 6 0.000000 0.000000 0.000000 -0.006566 0.000000 0.036730
#
#
# Mechanical properties :
#
#
# Convention : Reuss Voigt Hill
#
# Bulk Modulus (GPa) = 40.10584 42.98715 41.54650
# Shear Modulus (GPa) = 25.84141 30.34344 28.09242
#
# Velocity S-wave (km/s) = 3.50205 3.79487 3.65140
# Velocity P-wave (km/s) = 5.94868 6.29310 6.12331
#
# Compressibility (1/GPa) = 0.02493402
#
# Stress axis : x y z
#
# Youngs Moduli (GPa) = 106.17732 78.61450 85.40142
#
# Poissons Ratio (x) = 0.26210 0.05902
# Poissons Ratio (y) = 0.35399 0.03689
# Poissons Ratio (z) = 0.07338 0.03396
#
# Static dielectric constant tensor:
#      x y z
#    x 1.861750 0.000000 0.005870 
#    y 0.000000 1.869730 0.000000 
#    z 0.005870 0.000000 1.849670 
# 
# From -- ./inp_files/18226.got.cif
#   From: 2010.05.17/outbox.cif.g08.bks.cpg/sg15_10_cif.got.tgz:18226.got - 2010.06.03 18:47:42.
