data_PCOD9286122
_publ_section_title
;
Structure prediction by ZEFSAII (Michael W. Deem and Ramdas Pophale) SiO2 
 PCOD9286122
Probable space group: C 2/C
;
_chemical_formula_sum "Si O2"
_cell_formula_units_Z 40
_cell_length_a 10.959263
_cell_length_b 9.515718
_cell_length_c 15.644385
_cell_angle_alpha 90.000000
_cell_angle_beta 76.744361
_cell_angle_gamma 90.000000
_cell_volume 1588.010715
_symmetry_space_group_name_H-M "C 2/C"
_symmetry_group_IT_number 15
_symmetry_cell_setting 'monoclinic'
loop_
_space_group_symop_operation_xyz
x,y,z
-x,y,1/2-z
-x,-y,-z
x,-y,1/2+z
1/2+x,1/2+y,z
1/2-x,1/2+y,1/2-z
1/2-x,1/2-y,-z
1/2+x,1/2-y,1/2+z
loop_
_atom_site_type_symbol
_atom_site_label
_atom_site_fract_x
_atom_site_fract_y
_atom_site_fract_z
Si Si1 0.198831 0.736290 0.716248
Si Si2 0.136076 0.953339 0.200412
Si Si3 0.842890 0.116381 0.995930
Si Si4 0.623534 0.027213 0.598773
Si Si5 0.936818 0.305077 0.562469
O O1 0.149324 0.892519 0.739780
O O2 0.252436 0.649021 0.787115
O O3 0.106972 0.638405 0.675996
O O4 0.318790 0.759274 0.635491
O O5 0.000000 0.896216 0.250000
O O6 0.145999 0.961910 0.096671
O O7 0.979515 0.179465 0.989742
O O8 0.750000 0.250000 0.000000
O O9 0.767034 0.027072 0.076979
O O10 0.605980 0.102352 0.510531
O O11 0.526681 0.898284 0.609819
#
# Coordination Sequence:
#
# PCOD9286122 Si02
#       5
#     8   8   8   8   8
#     4  12  27  44  69  97 142 182 230 283 346 413
#     4  12  28  47  65 105 142 186 231 285 352 414
#     4  10  22  43  73 100 135 178 232 282 344 409
#     4  10  23  43  69 105 129 176 234 284 336 415
#     4  10  21  42  72  96 135 174 225 284 344 403
#
# _framework density 25.188745999999998
#
# number of rings (size 3 to 8) (size 9 to 14) (size 15 to 20)
#    0.000    1.200    4.000    0.600    5.600    4.000 
#    0.000    0.000    0.000    0.000    0.000    0.000 
#    0.000    0.000    0.000    0.000    0.000    0.000 
#
# Total GULP energy -112071.444581 kJ/mol
# GULP energy per Si atom -5603.572229 kJ/mol
# Density = 2.513142 g / cm^3
# Si number density = 25.188746 Si / 1000 Ang^3
#
#
#
# Elastic Constant Matrix: (Units=GPa)
#
#
# Indices 1 2 3 4 5 6 
#
# 1 80.8149 20.2148 21.2684 0.0000 -9.9482 0.0000
# 2 20.2148 99.8565 16.7723 0.0000 14.5647 0.0000
# 3 21.2684 16.7723 57.2510 0.0000 -11.2621 0.0000
# 4 0.0000 0.0000 0.0000 36.9179 0.0000 7.9237
# 5 -9.9482 14.5647 -11.2621 0.0000 26.7849 0.0000
# 6 0.0000 0.0000 0.0000 7.9237 0.0000 19.9802
#
#
#
# Elastic Compliance Matrix: (Units=1/GPa)
#
#
# Indices 1 2 3 4 5 6 
#
# 1 0.014808 -0.003284 -0.003386 0.000000 0.005862 0.000000
# 2 -0.003284 0.012930 -0.004569 0.000000 -0.010172 0.000000
# 3 -0.003386 -0.004569 0.022136 0.000000 0.010534 0.000000
# 4 0.000000 0.000000 0.000000 0.029607 0.000000 -0.011741
# 5 0.005862 -0.010172 0.010534 0.000000 0.049472 0.000000
# 6 0.000000 0.000000 0.000000 -0.011741 0.000000 0.054706
#
#
# Mechanical properties :
#
#
# Convention : Reuss Voigt Hill
#
# Bulk Modulus (GPa) = 36.50162 39.38147 37.94154
# Shear Modulus (GPa) = 23.22678 28.71441 25.97060
#
# Velocity S-wave (km/s) = 3.03992 3.38001 3.21446
# Velocity P-wave (km/s) = 5.18114 5.55887 5.37333
#
# Compressibility (1/GPa) = 0.02739605
#
# Stress axis : x y z
#
# Youngs Moduli (GPa) = 67.53064 77.33801 45.17621
#
# Poissons Ratio (x) = 0.25398 0.15296
# Poissons Ratio (y) = 0.22177 0.20641
# Poissons Ratio (z) = 0.22865 0.35336
#
# Static dielectric constant tensor:
#      x y z
#    x 1.995150 0.000000 0.006480 
#    y 0.000000 2.029450 0.000000 
#    z 0.006480 0.000000 1.903040 
# 
# From -- ./inp_files/142386.got.cif
#   From: 2010.05.17/outbox.cif.g08.bks.cpg/sg15_72_cif.got.tgz:142386.got - 2010.06.03 18:47:42.
