data_PCOD9286712
_publ_section_title
;
Structure prediction by ZEFSAII (Michael W. Deem and Ramdas Pophale) SiO2 
 PCOD9286712
Probable space group: C 2/C
;
_chemical_formula_sum "Si O2"
_cell_formula_units_Z 56
_cell_length_a 11.845325
_cell_length_b 18.117193
_cell_length_c 13.963607
_cell_angle_alpha 90.000000
_cell_angle_beta 57.380663
_cell_angle_gamma 90.000000
_cell_volume 2523.986966
_symmetry_space_group_name_H-M "C 2/C"
_symmetry_group_IT_number 15
_symmetry_cell_setting 'monoclinic'
loop_
_space_group_symop_operation_xyz
x,y,z
-x,y,1/2-z
-x,-y,-z
x,-y,1/2+z
1/2+x,1/2+y,z
1/2-x,1/2+y,1/2-z
1/2-x,1/2-y,-z
1/2+x,1/2-y,1/2+z
loop_
_atom_site_type_symbol
_atom_site_label
_atom_site_fract_x
_atom_site_fract_y
_atom_site_fract_z
Si Si1 0.345836 0.972827 0.084361
Si Si2 0.139246 0.190447 0.274343
Si Si3 0.979493 0.086338 0.490283
Si Si4 0.970486 0.646300 0.654038
Si Si5 0.670939 0.358975 0.053564
Si Si6 0.351284 0.221100 0.312894
Si Si7 0.260568 0.617132 0.442490
O O1 0.365866 0.913673 0.160216
O O2 0.267225 0.926322 0.039065
O O3 0.258035 0.047518 0.121536
O O4 0.500000 0.000000 0.000000
O O5 0.074422 0.124541 0.366061
O O6 0.078868 0.269697 0.328709
O O7 0.292643 0.201451 0.237295
O O8 0.147492 0.174182 0.158103
O O9 0.029758 0.121957 0.567211
O O10 0.834072 0.098543 0.509029
O O11 0.000000 0.000000 0.500000
O O12 0.000000 0.627590 0.750000
O O13 0.111151 0.642998 0.533574
O O14 0.649526 0.306189 0.154100
O O15 0.754610 0.316143 0.934576
O O16 0.500000 0.191478 0.250000
#
# Coordination Sequence:
#
# PCOD9286712 Si02
#       7
#     8   8   8   8   8   8   8
#     4  10  22  43  67  94 134 172 218 277 334 394
#     4  11  25  44  68 100 135 180 230 280 336 406
#     4  11  23  43  67  99 140 177 220 272 343 404
#     4  11  25  45  70  99 130 177 233 282 336 401
#     4  10  21  44  66  95 134 165 223 278 323 402
#     4  10  23  39  68  98 126 172 219 275 336 393
#     4  11  25  45  69  99 137 179 220 283 342 401
#
# _framework density 22.18712
#
# number of rings (size 3 to 8) (size 9 to 14) (size 15 to 20)
#    0.000    1.429    2.857    1.286    4.000    4.571 
#    5.143    0.000    0.000    0.000    0.000    0.000 
#    0.000    0.000    0.000    0.000    0.000    0.000 
#
# Total GULP energy -156161.422498 kJ/mol
# GULP energy per Si atom -5577.193661 kJ/mol
# Density = 2.213662 g / cm^3
# Si number density = 22.187120 Si / 1000 Ang^3
#
#
#
# Elastic Constant Matrix: (Units=GPa)
#
#
# Indices 1 2 3 4 5 6 
#
# 1 137.0561 39.8051 9.5584 0.0000 7.2591 0.0000
# 2 39.8051 109.1155 27.7499 0.0000 3.5023 0.0000
# 3 9.5584 27.7499 48.7480 0.0000 9.0618 0.0000
# 4 0.0000 0.0000 0.0000 13.7354 0.0000 3.6790
# 5 7.2591 3.5023 9.0618 0.0000 29.1991 0.0000
# 6 0.0000 0.0000 0.0000 3.6790 0.0000 42.0725
#
#
#
# Elastic Compliance Matrix: (Units=1/GPa)
#
#
# Indices 1 2 3 4 5 6 
#
# 1 0.008252 -0.003071 0.000470 0.000000 -0.001829 0.000000
# 2 -0.003071 0.011870 -0.006402 0.000000 0.001326 0.000000
# 3 0.000470 -0.006402 0.025411 0.000000 -0.007235 0.000000
# 4 0.000000 0.000000 0.000000 0.074551 0.000000 -0.006519
# 5 -0.001829 0.001326 -0.007235 0.000000 0.036789 0.000000
# 6 0.000000 0.000000 0.000000 -0.006519 0.000000 0.024339
#
#
# Mechanical properties :
#
#
# Convention : Reuss Voigt Hill
#
# Bulk Modulus (GPa) = 36.32665 49.90513 43.11589
# Shear Modulus (GPa) = 23.99313 31.52180 27.75746
#
# Velocity S-wave (km/s) = 3.29203 3.77334 3.54087
# Velocity P-wave (km/s) = 5.55503 6.44405 6.01598
#
# Compressibility (1/GPa) = 0.02752800
#
# Stress axis : x y z
#
# Youngs Moduli (GPa) = 121.17733 84.24253 39.35373
#
# Poissons Ratio (x) = 0.25874 -0.01851
# Poissons Ratio (y) = 0.37218 0.25193
# Poissons Ratio (z) = -0.05699 0.53929
#
# Static dielectric constant tensor:
#      x y z
#    x 1.887550 0.000000 0.043230 
#    y 0.000000 1.845240 0.000000 
#    z 0.043230 0.000000 1.841410 
# 
# From -- ./inp_files/145970.got.cif
#   From: 2010.05.17/outbox.cif.g08.bks.cpg/sg15_73_cif.got.tgz:145970.got - 2010.06.03 18:47:42.
