data_PCOD9286403
_publ_section_title
;
Structure prediction by ZEFSAII (Michael W. Deem and Ramdas Pophale) SiO2 
 PCOD9286403
Probable space group: C 2/C
;
_chemical_formula_sum "Si O2"
_cell_formula_units_Z 48
_cell_length_a 22.155492
_cell_length_b 11.481173
_cell_length_c 28.106295
_cell_angle_alpha 90.000000
_cell_angle_beta 17.200175
_cell_angle_gamma 90.000000
_cell_volume 2114.164093
_symmetry_space_group_name_H-M "C 2/C"
_symmetry_group_IT_number 15
_symmetry_cell_setting 'monoclinic'
loop_
_space_group_symop_operation_xyz
x,y,z
-x,y,1/2-z
-x,-y,-z
x,-y,1/2+z
1/2+x,1/2+y,z
1/2-x,1/2+y,1/2-z
1/2-x,1/2-y,-z
1/2+x,1/2-y,1/2+z
loop_
_atom_site_type_symbol
_atom_site_label
_atom_site_fract_x
_atom_site_fract_y
_atom_site_fract_z
Si Si1 0.473897 0.366752 0.498971
Si Si2 0.354516 0.575741 0.929153
Si Si3 0.156698 0.698661 0.439137
Si Si4 0.450619 0.253902 0.150966
Si Si5 0.117259 0.170435 0.065373
Si Si6 0.181940 0.544708 0.955602
O O1 0.500000 0.500000 0.500000
O O2 0.590929 0.273860 0.443937
O O3 0.570980 0.356439 0.372469
O O4 0.240005 0.313051 0.680139
O O5 0.376939 0.693436 0.942972
O O6 0.307455 0.461899 0.995683
O O7 0.213858 0.553220 0.988815
O O8 0.590447 0.563714 0.735053
O O9 0.106349 0.775426 0.522257
O O10 0.396444 0.675969 0.255109
O O11 0.079962 0.569388 0.510074
O O12 0.544571 0.153608 0.047482
O O13 0.250000 0.250000 0.000000
#
# Coordination Sequence:
#
# PCOD9286403 Si02
#       6
#     8   8   8   8   8   8
#     4  12  29  46  69 102 146 189 244 291 349 445
#     4  10  21  43  68 101 136 173 228 293 352 421
#     4  11  24  43  66  99 139 180 229 285 349 415
#     4  12  25  47  69 101 140 189 236 291 361 417
#     4  11  21  40  69 101 132 175 226 287 349 407
#     4  10  22  42  71  96 134 180 231 286 353 422
#
# _framework density 22.704007000000001
#
# number of rings (size 3 to 8) (size 9 to 14) (size 15 to 20)
#    0.000    1.000    3.333    3.000    4.667    2.000 
#    0.000    0.000    0.000    0.000    0.000    0.000 
#    0.000    0.000    0.000    0.000    0.000    0.000 
#
# Total GULP energy -133708.127501 kJ/mol
# GULP energy per Si atom -5571.171979 kJ/mol
# Density = 2.265233 g / cm^3
# Si number density = 22.704007 Si / 1000 Ang^3
#
#
#
# Elastic Constant Matrix: (Units=GPa)
#
#
# Indices 1 2 3 4 5 6 
#
# 1 93.5379 3.3546 -6.5443 0.0499 10.1827 -0.0038
# 2 3.3546 150.6784 12.2929 -0.0027 -1.1775 -0.0068
# 3 -6.5443 12.2929 40.8367 -0.0031 0.6131 0.0147
# 4 0.0499 -0.0027 -0.0031 29.8641 0.0091 -1.6199
# 5 10.1827 -1.1775 0.6131 0.0091 31.5057 -0.0095
# 6 -0.0038 -0.0068 0.0147 -1.6199 -0.0095 37.9232
#
#
#
# Elastic Compliance Matrix: (Units=1/GPa)
#
#
# Indices 1 2 3 4 5 6 
#
# 1 0.011248 -0.000442 0.001991 -0.000018 -0.003691 -0.000001
# 2 -0.000442 0.006824 -0.002132 0.000001 0.000439 0.000002
# 3 0.001991 -0.002132 0.025467 -0.000001 -0.001219 -0.000010
# 4 -0.000018 0.000001 -0.000001 0.033563 -0.000003 0.001434
# 5 -0.003691 0.000439 -0.001219 -0.000003 0.032973 0.000008
# 6 -0.000001 0.000002 -0.000010 0.001434 0.000008 0.026430
#
#
# Mechanical properties :
#
#
# Convention : Reuss Voigt Hill
#
# Bulk Modulus (GPa) = 23.59957 33.69548 28.64753
# Shear Modulus (GPa) = 32.93941 38.25525 35.59733
#
# Velocity S-wave (km/s) = 3.81309 4.10927 3.96395
# Velocity P-wave (km/s) = 5.45924 6.11460 5.79619
#
# Compressibility (1/GPa) = 0.04237366
#
# Stress axis : x y z
#
# Youngs Moduli (GPa) = 88.90668 146.54558 39.26691
#
# Poissons Ratio (x) = 0.06472 -0.07817
# Poissons Ratio (y) = 0.03927 0.08370
# Poissons Ratio (z) = -0.17700 0.31236
#
# Static dielectric constant tensor:
#      x y z
#    x 1.900210 -0.000040 -0.006090 
#    y -0.000040 1.886320 0.000020 
#    z -0.006090 0.000020 1.860270 
# 
# From -- ./inp_files/300909.got.cif
#   From: 2010.05.17/outbox.cif.g08.bks.cpg/sg15_151_cif.got.tgz:300909.got - 2010.06.03 18:47:42.
