data_PCOD9286192
_publ_section_title
;
Structure prediction by ZEFSAII (Michael W. Deem and Ramdas Pophale) SiO2 
 PCOD9286192
Probable space group: C 2/C
;
_chemical_formula_sum "Si O2"
_cell_formula_units_Z 36
_cell_length_a 13.633139
_cell_length_b 14.144875
_cell_length_c 12.222391
_cell_angle_alpha 90.000000
_cell_angle_beta 40.442611
_cell_angle_gamma 90.000000
_cell_volume 1528.923401
_symmetry_space_group_name_H-M "C 2/C"
_symmetry_group_IT_number 15
_symmetry_cell_setting 'monoclinic'
loop_
_space_group_symop_operation_xyz
x,y,z
-x,y,1/2-z
-x,-y,-z
x,-y,1/2+z
1/2+x,1/2+y,z
1/2-x,1/2+y,1/2-z
1/2-x,1/2-y,-z
1/2+x,1/2-y,1/2+z
loop_
_atom_site_type_symbol
_atom_site_label
_atom_site_fract_x
_atom_site_fract_y
_atom_site_fract_z
Si Si1 0.893034 0.131766 0.744275
Si Si2 0.693146 0.319982 0.423812
Si Si3 0.000000 0.946644 0.750000
Si Si4 0.959662 0.372849 0.436038
Si Si5 0.933545 0.590061 0.419773
O O1 0.896823 0.164439 0.615879
O O2 0.000000 0.170953 0.750000
O O3 0.924958 0.019006 0.726644
O O4 0.722166 0.142552 0.927427
O O5 0.615222 0.385848 0.580567
O O6 0.869985 0.344470 0.249485
O O7 0.654787 0.212301 0.488676
O O8 0.963915 0.388057 0.563107
O O9 0.916346 0.476073 0.428992
O O10 0.000000 0.620457 0.250000
#
# Coordination Sequence:
#
# PCOD9286192 Si02
#       5
#     8   8   4   8   8
#     4   9  22  39  64  91 120 163 201 252 305 365
#     4  11  23  41  60  95 123 158 213 246 312 357
#     4  10  22  38  66  88 120 164 196 262 300 362
#     4  10  25  39  63  92 125 162 199 263 298 367
#     4  10  21  43  63  88 125 164 204 244 316 363
#
# _framework density 23.54598
#
# number of rings (size 3 to 8) (size 9 to 14) (size 15 to 20)
#    0.667    1.333    0.000    2.000    4.667    3.556 
#    0.000    4.444    0.000    0.000    0.000    0.000 
#    0.000    0.000    0.000    0.000    0.000    0.000 
#
# Total GULP energy -100632.853856 kJ/mol
# GULP energy per Si atom -5590.714103 kJ/mol
# Density = 2.349239 g / cm^3
# Si number density = 23.545980 Si / 1000 Ang^3
#
#
#
# Elastic Constant Matrix: (Units=GPa)
#
#
# Indices 1 2 3 4 5 6 
#
# 1 100.9756 22.2573 35.6137 0.0000 14.9751 0.0000
# 2 22.2573 128.5061 34.4286 0.0000 11.4426 0.0000
# 3 35.6137 34.4286 109.2462 0.0000 34.4303 0.0000
# 4 0.0000 0.0000 0.0000 9.7027 0.0000 -2.4064
# 5 14.9751 11.4426 34.4303 0.0000 37.7853 0.0000
# 6 0.0000 0.0000 0.0000 -2.4064 0.0000 34.3303
#
#
#
# Elastic Compliance Matrix: (Units=1/GPa)
#
#
# Indices 1 2 3 4 5 6 
#
# 1 0.011386 -0.001060 -0.002885 0.000000 -0.001562 0.000000
# 2 -0.001060 0.008599 -0.002351 0.000000 -0.000041 0.000000
# 3 -0.002885 -0.002351 0.014380 0.000000 -0.011248 0.000000
# 4 0.000000 0.000000 0.000000 0.104887 0.000000 0.007352
# 5 -0.001562 -0.000041 -0.011248 0.000000 0.037346 0.000000
# 6 0.000000 0.000000 0.000000 0.007352 0.000000 0.029644
#
#
# Mechanical properties :
#
#
# Convention : Reuss Voigt Hill
#
# Bulk Modulus (GPa) = 45.93050 58.14747 52.03898
# Shear Modulus (GPa) = 22.11471 32.79222 27.45347
#
# Velocity S-wave (km/s) = 3.06798 3.73592 3.41831
# Velocity P-wave (km/s) = 5.66561 6.58471 6.14237
#
# Compressibility (1/GPa) = 0.02177203
#
# Stress axis : x y z
#
# Youngs Moduli (GPa) = 87.82388 116.29305 69.54025
#
# Poissons Ratio (x) = 0.12327 0.20066
# Poissons Ratio (y) = 0.09309 0.16351
# Poissons Ratio (z) = 0.25341 0.27345
#
# Static dielectric constant tensor:
#      x y z
#    x 1.954790 0.000000 -0.011380 
#    y 0.000000 1.886680 0.000000 
#    z -0.011380 0.000000 1.842050 
# 
# From -- ./inp_files/96795.got.cif
#   From: 2010.05.17/outbox.cif.g08.bks.cpg/sg15_49_cif.got.tgz:96795.got - 2010.06.03 18:47:42.
