data_PCOD9286175
_publ_section_title
;
Structure prediction by ZEFSAII (Michael W. Deem and Ramdas Pophale) SiO2 
 PCOD9286175
Probable space group: C 2/C
;
_chemical_formula_sum "Si O2"
_cell_formula_units_Z 48
_cell_length_a 23.781003
_cell_length_b 5.281889
_cell_length_c 17.233677
_cell_angle_alpha 90.000000
_cell_angle_beta 77.517352
_cell_angle_gamma 90.000000
_cell_volume 2113.528155
_symmetry_space_group_name_H-M "C 2/C"
_symmetry_group_IT_number 15
_symmetry_cell_setting 'monoclinic'
loop_
_space_group_symop_operation_xyz
x,y,z
-x,y,1/2-z
-x,-y,-z
x,-y,1/2+z
1/2+x,1/2+y,z
1/2-x,1/2+y,1/2-z
1/2-x,1/2-y,-z
1/2+x,1/2-y,1/2+z
loop_
_atom_site_type_symbol
_atom_site_label
_atom_site_fract_x
_atom_site_fract_y
_atom_site_fract_z
Si Si1 0.171749 0.877510 0.024052
Si Si2 0.080317 0.690296 0.157506
Si Si3 0.612028 0.724766 0.380283
Si Si4 0.718954 0.341690 0.736634
Si Si5 0.184714 0.370028 0.084261
Si Si6 0.551543 0.770950 0.846566
O O1 0.118502 0.896455 0.101547
O O2 0.207198 0.647468 0.053091
O O3 0.190753 0.166623 0.014322
O O4 0.146449 0.786620 0.950453
O O5 0.118788 0.443435 0.127220
O O6 0.075425 0.734212 0.250769
O O7 0.016625 0.687122 0.141709
O O8 0.658791 0.693617 0.298248
O O9 0.568557 0.489208 0.383593
O O10 0.580134 0.990697 0.380294
O O11 0.738463 0.632893 0.737830
O O12 0.713974 0.252561 0.649903
#
# Coordination Sequence:
#
# PCOD9286175 Si02
#       6
#     8   8   8   8   8   8
#     4  10  22  39  64  88 136 167 193 254 319 364
#     4   9  23  38  65  91 128 174 206 238 317 366
#     4  12  24  42  60  97 129 156 212 266 305 363
#     4  12  25  44  70  90 117 164 218 270 321 365
#     4  10  21  43  62  88 127 163 206 252 309 374
#     4  11  23  37  66  93 128 168 212 248 294 379
#
# _framework density 22.710840000000001
#
# number of rings (size 3 to 8) (size 9 to 14) (size 15 to 20)
#    1.000    0.333    1.667    4.000    2.333    2.667 
#    0.000    5.000    0.000    0.000    0.000    0.000 
#    0.000    0.000    0.000    0.000    0.000    0.000 
#
# Total GULP energy -134130.357015 kJ/mol
# GULP energy per Si atom -5588.764876 kJ/mol
# Density = 2.265915 g / cm^3
# Si number density = 22.710840 Si / 1000 Ang^3
#
#
#
# Elastic Constant Matrix: (Units=GPa)
#
#
# Indices 1 2 3 4 5 6 
#
# 1 22.0238 -0.2663 -5.3229 0.0000 -1.4829 0.0000
# 2 -0.2663 69.3894 18.8986 0.0000 -5.0346 0.0000
# 3 -5.3229 18.8986 44.7086 0.0000 13.2128 0.0000
# 4 0.0000 0.0000 0.0000 28.0885 0.0000 1.4505
# 5 -1.4829 -5.0346 13.2128 0.0000 38.3331 0.0000
# 6 0.0000 0.0000 0.0000 1.4505 0.0000 4.4067
#
#
#
# Elastic Compliance Matrix: (Units=1/GPa)
#
#
# Indices 1 2 3 4 5 6 
#
# 1 0.046904 -0.001623 0.006455 0.000000 -0.000624 0.000000
# 2 -0.001623 0.017260 -0.009064 0.000000 0.005328 0.000000
# 3 0.006455 -0.009064 0.030335 0.000000 -0.011397 0.000000
# 4 0.000000 0.000000 0.000000 0.036217 0.000000 -0.011921
# 5 -0.000624 0.005328 -0.011397 0.000000 0.030691 0.000000
# 6 0.000000 0.000000 0.000000 -0.011921 0.000000 0.230852
#
#
# Mechanical properties :
#
#
# Convention : Reuss Voigt Hill
#
# Bulk Modulus (GPa) = 11.62331 18.08232 14.85281
# Shear Modulus (GPa) = 11.64406 22.35314 16.99860
#
# Velocity S-wave (km/s) = 2.26676 3.14068 2.73880
# Velocity P-wave (km/s) = 3.46122 4.59686 4.06885
#
# Compressibility (1/GPa) = 0.08603403
#
# Stress axis : x y z
#
# Youngs Moduli (GPa) = 21.32023 57.93589 32.96513
#
# Poissons Ratio (x) = 0.09404 -0.21278
# Poissons Ratio (y) = 0.03461 0.29880
# Poissons Ratio (z) = -0.13761 0.52514
#
# Static dielectric constant tensor:
#      x y z
#    x 1.924330 0.000000 -0.040340 
#    y 0.000000 1.872150 0.000000 
#    z -0.040340 0.000000 1.823230 
# 
# From -- ./inp_files/220647.got.cif
#   From: 2010.05.17/outbox.cif.g08.bks.cpg/sg15_111_cif.got.tgz:220647.got - 2010.06.03 18:47:42.
