data_PCOD9286362
_publ_section_title
;
Structure prediction by ZEFSAII (Michael W. Deem and Ramdas Pophale) SiO2 
 PCOD9286362
Probable space group: C 2/C
;
_chemical_formula_sum "Si O2"
_cell_formula_units_Z 60
_cell_length_a 13.269220
_cell_length_b 23.570452
_cell_length_c 8.711980
_cell_angle_alpha 90.000000
_cell_angle_beta 79.558077
_cell_angle_gamma 90.000000
_cell_volume 2679.647431
_symmetry_space_group_name_H-M "C 2/C"
_symmetry_group_IT_number 15
_symmetry_cell_setting 'monoclinic'
loop_
_space_group_symop_operation_xyz
x,y,z
-x,y,1/2-z
-x,-y,-z
x,-y,1/2+z
1/2+x,1/2+y,z
1/2-x,1/2+y,1/2-z
1/2-x,1/2-y,-z
1/2+x,1/2-y,1/2+z
loop_
_atom_site_type_symbol
_atom_site_label
_atom_site_fract_x
_atom_site_fract_y
_atom_site_fract_z
Si Si1 0.705479 0.524125 0.065403
Si Si2 0.571877 0.458142 0.860466
Si Si3 0.973973 0.163932 0.081395
Si Si4 0.000000 0.544700 0.250000
Si Si5 0.061274 0.366133 0.485500
Si Si6 0.738045 0.197721 0.118987
Si Si7 0.667372 0.948845 0.246109
Si Si8 0.569472 0.765948 0.884267
O O1 0.621281 0.498185 0.972008
O O2 0.776218 0.559424 0.930807
O O3 0.664205 0.560463 0.219941
O O4 0.759473 0.470503 0.135089
O O5 0.500000 0.486160 0.750000
O O6 0.517081 0.403530 0.946248
O O7 0.853558 0.176135 0.096674
O O8 0.000000 0.175030 0.250000
O O9 0.046356 0.204306 0.960692
O O10 0.991916 0.584425 0.400531
O O11 0.904286 0.503158 0.262466
O O12 0.158727 0.345486 0.560196
O O13 0.104819 0.394858 0.321022
O O14 0.982516 0.313899 0.493834
O O15 0.682733 0.218522 0.291893
O O16 0.750000 0.250000 0.000000
O O17 0.500000 0.768910 0.750000
#
# Coordination Sequence:
#
# PCOD9286362 Si02
#       8
#     8   8   8   4   8   8   8   8
#     4  10  22  40  65  92 128 167 218 258 320 393
#     4  10  22  43  66  90 130 168 213 271 323 379
#     4  11  24  43  63 100 133 160 210 284 329 375
#     4  12  22  40  64  94 140 174 206 268 328 392
#     4  11  21  40  65  95 129 174 218 261 323 396
#     4  11  21  42  73  92 123 174 221 266 318 397
#     4  11  23  39  60  98 133 168 212 263 319 391
#     4  10  21  43  67  93 124 172 226 257 316 400
#
# _framework density 22.391003999999999
#
# number of rings (size 3 to 8) (size 9 to 14) (size 15 to 20)
#    0.000    1.333    6.000    1.600    1.867    0.533 
#    6.000    3.333    0.000    0.000    0.000    0.000 
#    0.000    0.000    0.000    0.000    0.000    0.000 
#
# Total GULP energy -167541.838751 kJ/mol
# GULP energy per Si atom -5584.727958 kJ/mol
# Density = 2.234004 g / cm^3
# Si number density = 22.391004 Si / 1000 Ang^3
#
#
#
# Elastic Constant Matrix: (Units=GPa)
#
#
# Indices 1 2 3 4 5 6 
#
# 1 51.7511 6.0213 3.6685 0.0000 5.4592 0.0000
# 2 6.0213 96.5792 47.6809 0.0000 -17.1180 0.0000
# 3 3.6685 47.6809 99.2649 0.0000 -33.6821 0.0000
# 4 0.0000 0.0000 0.0000 34.0988 0.0000 -2.4104
# 5 5.4592 -17.1180 -33.6821 0.0000 41.0269 0.0000
# 6 0.0000 0.0000 0.0000 -2.4104 0.0000 15.6268
#
#
#
# Elastic Compliance Matrix: (Units=1/GPa)
#
#
# Indices 1 2 3 4 5 6 
#
# 1 0.020070 -0.001219 -0.001712 0.000000 -0.004585 0.000000
# 2 -0.001219 0.013652 -0.006272 0.000000 0.000709 0.000000
# 3 -0.001712 -0.006272 0.017104 0.000000 0.011653 0.000000
# 4 0.000000 0.000000 0.000000 0.029650 0.000000 0.004573
# 5 -0.004585 0.000709 0.011653 0.000000 0.034847 0.000000
# 6 0.000000 0.000000 0.000000 0.004573 0.000000 0.064698
#
#
# Mechanical properties :
#
#
# Convention : Reuss Voigt Hill
#
# Bulk Modulus (GPa) = 30.84416 40.25962 35.55189
# Shear Modulus (GPa) = 23.89673 30.83215 27.36444
#
# Velocity S-wave (km/s) = 3.27042 3.71480 3.49967
# Velocity P-wave (km/s) = 5.29774 6.03482 5.67825
#
# Compressibility (1/GPa) = 0.03242104
#
# Stress axis : x y z
#
# Youngs Moduli (GPa) = 49.82554 73.24720 58.46558
#
# Poissons Ratio (x) = 0.08926 0.10009
# Poissons Ratio (y) = 0.06072 0.36670
# Poissons Ratio (z) = 0.08530 0.45942
#
# Static dielectric constant tensor:
#      x y z
#    x 2.200290 0.000000 -0.085740 
#    y 0.000000 1.893610 0.000000 
#    z -0.085740 0.000000 1.847010 
# 
# From -- ./inp_files/42194.got.cif
#   From: 2010.05.17/outbox.cif.g08.bks.cpg/sg15_22_cif.got.tgz:42194.got - 2010.06.03 18:47:42.
