data_PCOD9286286
_publ_section_title
;
Structure prediction by ZEFSAII (Michael W. Deem and Ramdas Pophale) SiO2 
 PCOD9286286
Probable space group: C 2/C
;
_chemical_formula_sum "Si O2"
_cell_formula_units_Z 64
_cell_length_a 12.330304
_cell_length_b 13.402720
_cell_length_c 26.247603
_cell_angle_alpha 90.000000
_cell_angle_beta 37.903182
_cell_angle_gamma 90.000000
_cell_volume 2664.755763
_symmetry_space_group_name_H-M "C 2/C"
_symmetry_group_IT_number 15
_symmetry_cell_setting 'monoclinic'
loop_
_space_group_symop_operation_xyz
x,y,z
-x,y,1/2-z
-x,-y,-z
x,-y,1/2+z
1/2+x,1/2+y,z
1/2-x,1/2+y,1/2-z
1/2-x,1/2-y,-z
1/2+x,1/2-y,1/2+z
loop_
_atom_site_type_symbol
_atom_site_label
_atom_site_fract_x
_atom_site_fract_y
_atom_site_fract_z
Si Si1 0.275063 0.603814 0.609383
Si Si2 0.826420 0.826434 0.377154
Si Si3 0.341478 0.710694 0.682988
Si Si4 0.623369 0.613251 0.314637
Si Si5 0.807247 0.014638 0.802812
Si Si6 0.269187 0.710136 0.436404
Si Si7 0.484619 0.130829 0.049291
Si Si8 0.674640 0.609923 0.416936
O O1 0.259724 0.629887 0.674652
O O2 0.179029 0.693585 0.616266
O O3 0.484148 0.608699 0.515631
O O4 0.221983 0.493376 0.611431
O O5 0.981346 0.835170 0.170038
O O6 0.690839 0.882219 0.465164
O O7 0.776234 0.710079 0.393740
O O8 0.805505 0.876706 0.329668
O O9 0.210111 0.784441 0.761184
O O10 0.446907 0.784484 0.605230
O O11 0.700135 0.522827 0.252689
O O12 0.415601 0.625398 0.381449
O O13 0.647000 0.607481 0.366249
O O14 0.638099 0.960601 0.890262
O O15 0.000000 0.973787 0.750000
O O16 0.250000 0.750000 0.500000
O O17 0.091132 0.670599 0.476599
#
# Coordination Sequence:
#
# PCOD9286286 Si02
#       8
#     8   8   8   8   8   8   8   8
#     4  10  23  43  69 102 132 183 233 287 347 411
#     4  12  24  44  69 102 141 185 231 284 354 425
#     4  10  24  42  71  99 141 181 226 289 355 414
#     4  11  24  44  70 101 138 181 227 296 354 414
#     4  11  25  41  68  99 137 177 229 287 356 410
#     4  11  19  41  71 100 132 177 234 291 338 413
#     4  10  21  43  66 101 132 177 234 287 340 419
#     4  11  24  43  67  98 141 178 234 280 349 430
#
# _framework density 24.017209999999999
#
# number of rings (size 3 to 8) (size 9 to 14) (size 15 to 20)
#    0.000    1.250    5.000    0.750    3.500    0.000 
#    0.000    7.500    0.000    0.000    0.000    0.000 
#    0.000    0.000    0.000    0.000    0.000    0.000 
#
# Total GULP energy -178937.833715 kJ/mol
# GULP energy per Si atom -5591.807304 kJ/mol
# Density = 2.396255 g / cm^3
# Si number density = 24.017210 Si / 1000 Ang^3
#
#
#
# Elastic Constant Matrix: (Units=GPa)
#
#
# Indices 1 2 3 4 5 6 
#
# 1 50.8290 6.7920 8.9030 0.0001 8.7878 0.0000
# 2 6.7920 104.6225 3.4397 0.0000 0.4723 0.0000
# 3 8.9030 3.4397 54.9133 0.0005 5.8196 -0.0003
# 4 0.0001 0.0000 0.0005 33.9404 -0.0002 -0.1832
# 5 8.7878 0.4723 5.8196 -0.0002 33.9220 0.0000
# 6 0.0000 0.0000 -0.0003 -0.1832 0.0000 25.0617
#
#
#
# Elastic Compliance Matrix: (Units=1/GPa)
#
#
# Indices 1 2 3 4 5 6 
#
# 1 0.021200 -0.001261 -0.002829 0.000000 -0.004989 0.000000
# 2 -0.001261 0.009653 -0.000428 0.000000 0.000266 0.000000
# 3 -0.002829 -0.000428 0.018963 0.000000 -0.002514 0.000000
# 4 0.000000 0.000000 0.000000 0.029465 0.000000 0.000215
# 5 -0.004989 0.000266 -0.002514 0.000000 0.031199 0.000000
# 6 0.000000 0.000000 0.000000 0.000215 0.000000 0.039903
#
#
# Mechanical properties :
#
#
# Convention : Reuss Voigt Hill
#
# Bulk Modulus (GPa) = 24.52266 27.62603 26.07435
# Shear Modulus (GPa) = 28.89953 31.33351 30.11652
#
# Velocity S-wave (km/s) = 3.47260 3.61588 3.54497
# Velocity P-wave (km/s) = 5.12945 5.38148 5.25698
#
# Compressibility (1/GPa) = 0.04077861
#
# Stress axis : x y z
#
# Youngs Moduli (GPa) = 47.16879 103.59573 52.73554
#
# Poissons Ratio (x) = 0.13061 0.14921
# Poissons Ratio (y) = 0.05947 0.02259
# Poissons Ratio (z) = 0.13346 0.04438
#
# Static dielectric constant tensor:
#      x y z
#    x 1.867670 0.000000 0.010100 
#    y 0.000000 1.960970 0.000000 
#    z 0.010100 0.000000 1.923480 
# 
# From -- ./inp_files/274314.got.cif
#   From: 2010.05.17/outbox.cif.g08.bks.cpg/sg15_138_cif.got.tgz:274314.got - 2010.06.03 18:47:42.
