data_PCOD9286278
_publ_section_title
;
Structure prediction by ZEFSAII (Michael W. Deem and Ramdas Pophale) SiO2 
 PCOD9286278
Probable space group: C 2/C
;
_chemical_formula_sum "Si O2"
_cell_formula_units_Z 48
_cell_length_a 9.233602
_cell_length_b 17.107421
_cell_length_c 18.730842
_cell_angle_alpha 90.000000
_cell_angle_beta 141.055905
_cell_angle_gamma 90.000000
_cell_volume 1859.777483
_symmetry_space_group_name_H-M "C 2/C"
_symmetry_group_IT_number 15
_symmetry_cell_setting 'monoclinic'
loop_
_space_group_symop_operation_xyz
x,y,z
-x,y,1/2-z
-x,-y,-z
x,-y,1/2+z
1/2+x,1/2+y,z
1/2-x,1/2+y,1/2-z
1/2-x,1/2-y,-z
1/2+x,1/2-y,1/2+z
loop_
_atom_site_type_symbol
_atom_site_label
_atom_site_fract_x
_atom_site_fract_y
_atom_site_fract_z
Si Si1 0.500000 0.176340 0.750000
Si Si2 0.000000 0.412327 0.750000
Si Si3 0.286000 0.668740 0.124875
Si Si4 0.458786 0.665459 0.421772
Si Si5 0.000000 0.086583 0.750000
Si Si6 0.315748 0.033368 0.760711
Si Si7 0.000000 0.000000 0.500000
Si Si8 0.188842 0.306740 0.041809
O O1 0.307831 0.238193 0.652048
O O2 0.410527 0.118681 0.776628
O O3 0.032049 0.474482 0.828014
O O4 0.799689 0.358150 0.701837
O O5 0.500000 0.632833 0.250000
O O6 0.706167 0.462872 0.295642
O O7 0.354651 0.661433 0.068935
O O8 0.039197 0.641301 0.057259
O O9 0.512747 0.595978 0.497638
O O10 0.403381 0.751170 0.429994
O O11 0.898758 0.141505 0.648994
O O12 0.120131 0.006159 0.628669
O O13 0.250000 0.250000 0.000000
#
# Coordination Sequence:
#
# PCOD9286278 Si02
#       8
#     4   4   8   8   4   8   4   8
#     4   9  18  38  68  92 138 179 230 290 364 435
#     4   9  23  40  66  90 135 191 224 290 354 435
#     4  10  24  41  67 105 138 184 235 303 364 428
#     4  11  22  41  65  96 136 181 241 286 361 432
#     4  12  25  42  74 108 143 186 248 316 368 434
#     4  10  21  43  65  98 137 186 243 288 364 440
#     4  10  22  40  62  92 132 198 232 292 358 438
#     4  12  26  42  70 108 146 186 235 313 374 435
#
# _framework density 25.809539999999998
#
# number of rings (size 3 to 8) (size 9 to 14) (size 15 to 20)
#    0.500    1.000    0.000    5.000    4.667    4.000 
#    6.000    0.000    0.000   15.000    0.000    0.000 
#    0.000    0.000    0.000    0.000    0.000    0.000 
#
# Total GULP energy -133638.443758 kJ/mol
# GULP energy per Si atom -5568.268490 kJ/mol
# Density = 2.575080 g / cm^3
# Si number density = 25.809540 Si / 1000 Ang^3
#
#
#
# Elastic Constant Matrix: (Units=GPa)
#
#
# Indices 1 2 3 4 5 6 
#
# 1 158.7491 6.1389 7.3291 0.0000 0.9850 -0.0001
# 2 6.1389 78.0563 4.2552 0.0000 3.2446 0.0000
# 3 7.3291 4.2552 50.4105 0.0000 0.9749 0.0000
# 4 0.0000 0.0000 0.0000 23.5672 0.0000 7.5982
# 5 0.9850 3.2446 0.9749 0.0000 31.0887 -0.0001
# 6 -0.0001 0.0000 0.0000 7.5982 -0.0001 34.9420
#
#
#
# Elastic Compliance Matrix: (Units=1/GPa)
#
#
# Indices 1 2 3 4 5 6 
#
# 1 0.006358 -0.000447 -0.000884 0.000000 -0.000127 0.000000
# 2 -0.000447 0.012955 -0.001003 0.000000 -0.001306 0.000000
# 3 -0.000884 -0.001003 0.020060 0.000000 -0.000496 0.000000
# 4 0.000000 0.000000 0.000000 0.045631 0.000000 -0.009923
# 5 -0.000127 -0.001306 -0.000496 0.000000 0.032322 0.000000
# 6 0.000000 0.000000 0.000000 -0.009923 0.000000 0.030777
#
#
# Mechanical properties :
#
#
# Convention : Reuss Voigt Hill
#
# Bulk Modulus (GPa) = 28.81419 35.85137 32.33278
# Shear Modulus (GPa) = 30.42479 35.88577 33.15528
#
# Velocity S-wave (km/s) = 3.43712 3.73286 3.58804
# Velocity P-wave (km/s) = 5.19039 5.70087 5.45161
#
# Compressibility (1/GPa) = 0.03470512
#
# Stress axis : x y z
#
# Youngs Moduli (GPa) = 157.27897 77.18794 49.85045
#
# Poissons Ratio (x) = 0.03447 0.04408
# Poissons Ratio (y) = 0.07023 0.05002
# Poissons Ratio (z) = 0.13907 0.07745
#
# Static dielectric constant tensor:
#      x y z
#    x 2.114090 0.000000 0.215050 
#    y 0.000000 1.997680 0.000000 
#    z 0.215050 0.000000 2.529180 
# 
# From -- ./inp_files/192365.got.cif
#   From: 2010.05.17/outbox.cif.g08.bks.cpg/sg15_97_cif.got.tgz:192365.got - 2010.06.03 18:47:42.
