data_PCOD9286736
_publ_section_title
;
Structure prediction by ZEFSAII (Michael W. Deem and Ramdas Pophale) SiO2 
 PCOD9286736
Probable space group: C 2/C
;
_chemical_formula_sum "Si O2"
_cell_formula_units_Z 48
_cell_length_a 13.600875
_cell_length_b 20.583599
_cell_length_c 10.597292
_cell_angle_alpha 90.000000
_cell_angle_beta 49.093172
_cell_angle_gamma 90.000000
_cell_volume 2242.207683
_symmetry_space_group_name_H-M "C 2/C"
_symmetry_group_IT_number 15
_symmetry_cell_setting 'monoclinic'
loop_
_space_group_symop_operation_xyz
x,y,z
-x,y,1/2-z
-x,-y,-z
x,-y,1/2+z
1/2+x,1/2+y,z
1/2-x,1/2+y,1/2-z
1/2-x,1/2-y,-z
1/2+x,1/2-y,1/2+z
loop_
_atom_site_type_symbol
_atom_site_label
_atom_site_fract_x
_atom_site_fract_y
_atom_site_fract_z
Si Si1 0.749333 0.167241 0.271757
Si Si2 0.855505 0.692508 0.400304
Si Si3 0.000100 0.893891 0.036246
Si Si4 0.245268 0.678091 0.755170
Si Si5 0.885451 0.009691 0.438943
Si Si6 0.850800 0.406080 0.402257
O O1 0.684960 0.152668 0.189640
O O2 0.755181 0.245358 0.276193
O O3 0.671894 0.134339 0.450452
O O4 0.896562 0.140301 0.142382
O O5 0.750000 0.750000 0.500000
O O6 0.844727 0.661964 0.548379
O O7 0.000000 0.716556 0.250000
O O8 0.892458 0.842549 0.168523
O O9 0.914005 0.950081 0.042359
O O10 0.087398 0.933926 0.061573
O O11 0.199064 0.639118 0.671113
O O12 0.744622 0.031563 0.511245
O O13 0.000000 0.032077 0.250000
O O14 0.000000 0.422524 0.250000
#
# Coordination Sequence:
#
# PCOD9286736 Si02
#       6
#     8   8   8   8   8   8
#     4  11  23  39  66  99 138 173 220 278 341 408
#     4  10  23  38  57  87 134 181 220 259 323 403
#     4  10  23  40  69  97 128 185 226 281 325 403
#     4  10  24  39  66  98 141 179 220 269 349 412
#     4  10  21  44  67  93 130 176 241 275 324 391
#     4  11  23  42  68 100 135 174 220 287 344 398
#
# _framework density 21.407471999999999
#
# number of rings (size 3 to 8) (size 9 to 14) (size 15 to 20)
#    0.000    1.667    1.667    1.500   14.000    0.000 
#    0.000    1.667    0.000    0.000    0.000    0.000 
#    0.000    0.000    0.000    0.000    0.000    0.000 
#
# Total GULP energy -133925.813981 kJ/mol
# GULP energy per Si atom -5580.242249 kJ/mol
# Density = 2.135875 g / cm^3
# Si number density = 21.407472 Si / 1000 Ang^3
#
#
#
# Elastic Constant Matrix: (Units=GPa)
#
#
# Indices 1 2 3 4 5 6 
#
# 1 88.4632 39.6031 63.5524 0.0000 -5.1994 0.0000
# 2 39.6031 80.8912 38.9648 0.0000 -16.8847 0.0000
# 3 63.5524 38.9648 180.2054 0.0000 -19.7452 0.0000
# 4 0.0000 0.0000 0.0000 24.8643 0.0000 0.6025
# 5 -5.1994 -16.8847 -19.7452 0.0000 54.8479 0.0000
# 6 0.0000 0.0000 0.0000 0.6025 0.0000 16.0123
#
#
#
# Elastic Compliance Matrix: (Units=1/GPa)
#
#
# Indices 1 2 3 4 5 6 
#
# 1 0.017843 -0.006753 -0.005075 0.000000 -0.002215 0.000000
# 2 -0.006753 0.016956 -0.000815 0.000000 0.004286 0.000000
# 3 -0.005075 -0.000815 0.007740 0.000000 0.002055 0.000000
# 4 0.000000 0.000000 0.000000 0.040255 0.000000 -0.001515
# 5 -0.002215 0.004286 0.002055 0.000000 0.020081 0.000000
# 6 0.000000 0.000000 0.000000 -0.001515 0.000000 0.062509
#
#
# Mechanical properties :
#
#
# Convention : Reuss Voigt Hill
#
# Bulk Modulus (GPa) = 57.96222 70.42227 64.19225
# Shear Modulus (GPa) = 25.45531 32.97421 29.21476
#
# Velocity S-wave (km/s) = 3.45205 3.92894 3.69819
# Velocity P-wave (km/s) = 6.55922 7.31776 6.94885
#
# Compressibility (1/GPa) = 0.01725262
#
# Stress axis : x y z
#
# Youngs Moduli (GPa) = 56.04324 58.97661 129.19250
#
# Poissons Ratio (x) = 0.39829 0.65567
# Poissons Ratio (y) = 0.37848 0.10528
# Poissons Ratio (z) = 0.28443 0.04806
#
# Static dielectric constant tensor:
#      x y z
#    x 1.523320 0.000000 -0.305290 
#    y 0.000000 1.785280 0.000000 
#    z -0.305290 0.000000 1.423050 
# 
# From -- ./inp_files/99972.got.cif
#   From: 2010.05.17/outbox.cif.g08.bks.cpg/sg15_50_cif.got.tgz:99972.got - 2010.06.03 18:47:42.
