data_PCOD9286665
_publ_section_title
;
Structure prediction by ZEFSAII (Michael W. Deem and Ramdas Pophale) SiO2 
 PCOD9286665
Probable space group: C 2/C
;
_chemical_formula_sum "Si O2"
_cell_formula_units_Z 60
_cell_length_a 16.330997
_cell_length_b 11.713869
_cell_length_c 14.341194
_cell_angle_alpha 90.000000
_cell_angle_beta 70.983583
_cell_angle_gamma 90.000000
_cell_volume 2593.734809
_symmetry_space_group_name_H-M "C 2/C"
_symmetry_group_IT_number 15
_symmetry_cell_setting 'monoclinic'
loop_
_space_group_symop_operation_xyz
x,y,z
-x,y,1/2-z
-x,-y,-z
x,-y,1/2+z
1/2+x,1/2+y,z
1/2-x,1/2+y,1/2-z
1/2-x,1/2-y,-z
1/2+x,1/2-y,1/2+z
loop_
_atom_site_type_symbol
_atom_site_label
_atom_site_fract_x
_atom_site_fract_y
_atom_site_fract_z
Si Si1 0.961293 0.106730 0.609227
Si Si2 0.000000 0.689569 0.750000
Si Si3 0.355346 0.714110 0.962433
Si Si4 0.320677 0.055773 0.773314
Si Si5 0.755269 0.112587 0.498302
Si Si6 0.705688 0.088336 0.920786
Si Si7 0.595482 0.819777 0.747220
Si Si8 0.054895 0.892725 0.601210
O O1 0.918732 0.208904 0.682916
O O2 0.929395 0.107350 0.515957
O O3 0.061911 0.136844 0.560393
O O4 0.975326 0.981785 0.649501
O O5 0.913096 0.619206 0.756194
O O6 0.973593 0.773350 0.844620
O O7 0.273464 0.633571 0.974522
O O8 0.361356 0.777435 0.862526
O O9 0.362262 0.809270 0.039614
O O10 0.263197 0.074569 0.887306
O O11 0.272392 0.093065 0.696229
O O12 0.347703 0.925288 0.741708
O O13 0.750000 0.250000 0.500000
O O14 0.844960 0.084203 0.408180
O O15 0.685131 0.038566 0.464760
O O16 0.500000 0.860140 0.750000
#
# Coordination Sequence:
#
# PCOD9286665 Si02
#       8
#     8   4   8   8   8   8   8   8
#     4  10  23  43  71 102 126 187 235 283 358 412
#     4  12  26  48  66 100 142 180 242 296 346 422
#     4  10  21  44  64  99 136 169 230 294 337 413
#     4  12  26  45  72 103 138 192 238 288 365 424
#     4  12  26  49  66 104 152 183 232 293 362 429
#     4  11  25  42  71  98 140 184 226 295 356 421
#     4  10  22  41  70  95 134 174 238 289 335 413
#     4  11  25  45  71 101 143 182 234 295 352 432
#
# _framework density 23.132664999999999
#
# number of rings (size 3 to 8) (size 9 to 14) (size 15 to 20)
#    0.000    1.067    4.667    0.800    6.533    0.000 
#    2.400    2.667    0.000    0.000    0.000    0.000 
#    0.000    0.000    0.000    0.000    0.000    0.000 
#
# Total GULP energy -167159.067316 kJ/mol
# GULP energy per Si atom -5571.968911 kJ/mol
# Density = 2.308001 g / cm^3
# Si number density = 23.132665 Si / 1000 Ang^3
#
#
#
# Elastic Constant Matrix: (Units=GPa)
#
#
# Indices 1 2 3 4 5 6 
#
# 1 40.7804 7.1201 8.1135 0.0000 -6.1706 0.0000
# 2 7.1201 99.4000 24.5863 0.0000 -1.1716 0.0000
# 3 8.1135 24.5863 108.7029 0.0000 3.2086 0.0000
# 4 0.0000 0.0000 0.0000 51.9854 0.0000 -12.4836
# 5 -6.1706 -1.1716 3.2086 0.0000 33.3193 0.0000
# 6 0.0000 0.0000 0.0000 -12.4836 0.0000 27.7217
#
#
#
# Elastic Compliance Matrix: (Units=1/GPa)
#
#
# Indices 1 2 3 4 5 6 
#
# 1 0.025853 -0.001357 -0.001768 0.000000 0.004910 0.000000
# 2 -0.001357 0.010740 -0.002338 0.000000 0.000352 0.000000
# 3 -0.001768 -0.002338 0.009900 0.000000 -0.001363 0.000000
# 4 0.000000 0.000000 0.000000 0.021569 0.000000 0.009713
# 5 0.004910 0.000352 -0.001363 0.000000 0.031066 0.000000
# 6 0.000000 0.000000 0.000000 0.009713 0.000000 0.040447
#
#
# Mechanical properties :
#
#
# Convention : Reuss Voigt Hill
#
# Bulk Modulus (GPa) = 28.11506 36.50256 32.30881
# Shear Modulus (GPa) = 30.79647 36.54282 33.66964
#
# Velocity S-wave (km/s) = 3.65265 3.97886 3.81924
# Velocity P-wave (km/s) = 5.47443 6.07638 5.78324
#
# Compressibility (1/GPa) = 0.03556812
#
# Stress axis : x y z
#
# Youngs Moduli (GPa) = 38.67992 93.10933 101.00569
#
# Poissons Ratio (x) = 0.12633 0.17855
# Poissons Ratio (y) = 0.05248 0.23618
# Poissons Ratio (z) = 0.06838 0.21772
#
# Static dielectric constant tensor:
#      x y z
#    x 1.824930 0.000000 -0.045420 
#    y 0.000000 2.071580 0.000000 
#    z -0.045420 0.000000 1.826510 
# 
# From -- ./inp_files/161292.got.cif
#   From: 2010.05.17/outbox.cif.g08.bks.cpg/sg15_81_cif.got.tgz:161292.got - 2010.06.03 18:47:42.
