data_PCOD9286946
_publ_section_title
;
Structure prediction by ZEFSAII (Michael W. Deem and Ramdas Pophale) SiO2 
 PCOD9286946
Probable space group: C 2/C
;
_chemical_formula_sum "Si O2"
_cell_formula_units_Z 44
_cell_length_a 11.882852
_cell_length_b 27.770702
_cell_length_c 8.466785
_cell_angle_alpha 90.000000
_cell_angle_beta 58.233596
_cell_angle_gamma 90.000000
_cell_volume 2375.461312
_symmetry_space_group_name_H-M "C 2/C"
_symmetry_group_IT_number 15
_symmetry_cell_setting 'monoclinic'
loop_
_space_group_symop_operation_xyz
x,y,z
-x,y,1/2-z
-x,-y,-z
x,-y,1/2+z
1/2+x,1/2+y,z
1/2-x,1/2+y,1/2-z
1/2-x,1/2-y,-z
1/2+x,1/2-y,1/2+z
loop_
_atom_site_type_symbol
_atom_site_label
_atom_site_fract_x
_atom_site_fract_y
_atom_site_fract_z
Si Si1 0.000000 0.355479 0.250000
Si Si2 0.000000 0.987988 0.250000
Si Si3 0.500000 0.360922 0.750000
Si Si4 0.354603 0.762880 0.788466
Si Si5 0.899643 0.626813 0.172707
Si Si6 0.272437 0.299650 0.070056
Si Si7 0.364868 0.565032 0.134197
O O1 0.963958 0.379269 0.448487
O O2 0.868551 0.325063 0.306214
O O3 0.919530 0.955434 0.430926
O O4 0.893474 0.021718 0.237365
O O5 0.626212 0.330893 0.604602
O O6 0.541201 0.393316 0.867447
O O7 0.500000 0.762112 0.750000
O O8 0.343555 0.817646 0.726491
O O9 0.339405 0.718751 0.679683
O O10 0.250000 0.750000 0.000000
O O11 0.780609 0.588113 0.270605
O O12 0.000000 0.621566 0.250000
O O13 0.250000 0.250000 0.000000
#
# Coordination Sequence:
#
# PCOD9286946 Si02
#       7
#     4   4   4   8   8   8   8
#     4  12  23  42  63  92 132 182 224 275 328 371
#     4   9  22  42  79  94 128 152 202 299 338 407
#     4  11  23  38  66  94 124 178 222 266 322 398
#     4  11  25  39  57  88 133 177 232 277 315 369
#     4  11  24  43  64  93 138 181 217 269 331 399
#     4  12  23  37  62  87 128 179 229 272 314 368
#     4  10  21  45  67 102 125 160 218 270 347 404
#
# _framework density 18.522718000000001
#
# number of rings (size 3 to 8) (size 9 to 14) (size 15 to 20)
#    0.000    1.091    3.636    2.727    5.091    2.909 
#    3.273    0.909    0.000    0.000    0.000    0.000 
#    0.000    0.000    0.000    0.000    0.000    0.000 
#
# Total GULP energy -122635.021207 kJ/mol
# GULP energy per Si atom -5574.319146 kJ/mol
# Density = 1.848056 g / cm^3
# Si number density = 18.522718 Si / 1000 Ang^3
#
#
#
# Elastic Constant Matrix: (Units=GPa)
#
#
# Indices 1 2 3 4 5 6 
#
# 1 132.0289 66.6800 73.1528 0.0000 -6.7958 0.0000
# 2 66.6800 101.4187 80.3503 0.0000 -9.9649 0.0000
# 3 73.1528 80.3503 143.3277 0.0000 -2.6724 0.0000
# 4 0.0000 0.0000 0.0000 -3.5294 0.0000 -13.7412
# 5 -6.7958 -9.9649 -2.6724 0.0000 39.3650 0.0000
# 6 0.0000 0.0000 0.0000 -13.7412 0.0000 19.8172
#
#
#
# Elastic Compliance Matrix: (Units=1/GPa)
#
#
# Indices 1 2 3 4 5 6 
#
# 1 0.012057 -0.005415 -0.003109 0.000000 0.000500 0.000000
# 2 -0.005415 0.020764 -0.008807 0.000000 0.003723 0.000000
# 3 -0.003109 -0.008807 0.013466 0.000000 -0.001852 0.000000
# 4 0.000000 0.000000 0.000000 -0.076584 0.000000 -0.053103
# 5 0.000500 0.003723 -0.001852 0.000000 0.026306 0.000000
# 6 0.000000 0.000000 0.000000 -0.053103 0.000000 0.013639
#
#
# Mechanical properties :
#
#
# Convention : Reuss Voigt Hill
#
# Bulk Modulus (GPa) = 86.01816 90.79349 88.40582
# Shear Modulus (GPa) = 103.76443 21.57003 62.66723
#
# Velocity S-wave (km/s) = 7.49278 3.41621 5.82289
# Velocity P-wave (km/s) = 11.01797 8.04266 9.64573
#
# Compressibility (1/GPa) = 0.01162545
#
# Stress axis : x y z
#
# Youngs Moduli (GPa) = 82.93817 48.16079 74.25900
#
# Poissons Ratio (x) = 0.26080 0.23085
# Poissons Ratio (y) = 0.44913 0.65400
# Poissons Ratio (z) = 0.25783 0.42415
#
# Static dielectric constant tensor:
#      x y z
#    x 1.392750 0.000000 -0.236620 
#    y 0.000000 1.619660 0.000000 
#    z -0.236620 0.000000 1.338580 
# 
# From -- ./inp_files/32771.got.cif
#   From: 2010.05.17/outbox.cif.g08.bks.cpg/sg15_17_cif.got.tgz:32771.got - 2010.06.03 18:47:42.
