data_PCOD9286929
_publ_section_title
;
Structure prediction by ZEFSAII (Michael W. Deem and Ramdas Pophale) SiO2 
 PCOD9286929
Probable space group: C 2/C
;
_chemical_formula_sum "Si O2"
_cell_formula_units_Z 40
_cell_length_a 12.223804
_cell_length_b 7.322946
_cell_length_c 24.758782
_cell_angle_alpha 90.000000
_cell_angle_beta 136.511221
_cell_angle_gamma 90.000000
_cell_volume 1525.260570
_symmetry_space_group_name_H-M "C 2/C"
_symmetry_group_IT_number 15
_symmetry_cell_setting 'monoclinic'
loop_
_space_group_symop_operation_xyz
x,y,z
-x,y,1/2-z
-x,-y,-z
x,-y,1/2+z
1/2+x,1/2+y,z
1/2-x,1/2+y,1/2-z
1/2-x,1/2-y,-z
1/2+x,1/2-y,1/2+z
loop_
_atom_site_type_symbol
_atom_site_label
_atom_site_fract_x
_atom_site_fract_y
_atom_site_fract_z
Si Si1 0.410342 0.738322 0.852619
Si Si2 0.101634 0.503663 0.841984
Si Si3 0.374763 0.523490 0.253266
Si Si4 0.155531 0.699180 0.602258
Si Si5 0.838171 0.689675 0.445221
O O1 0.437349 0.547600 0.832559
O O2 0.434366 0.747500 0.925067
O O3 0.505533 0.890516 0.852763
O O4 0.224187 0.792355 0.781631
O O5 0.255221 0.378713 0.884480
O O6 0.176403 0.695343 0.887900
O O7 0.000000 0.511869 0.750000
O O8 0.500000 0.523387 0.250000
O O9 0.246403 0.371883 0.187538
O O10 0.185617 0.526313 0.572494
O O11 0.966401 0.721252 0.537784
#
# Coordination Sequence:
#
# PCOD9286929 Si02
#       5
#     8   8   8   8   8
#     4  11  23  39  65  97 122 176 228 255 336 397
#     4  12  22  43  66  97 134 170 223 277 323 391
#     4  11  22  42  63  92 133 165 219 280 316 389
#     4  10  21  45  64  93 142 170 211 285 324 382
#     4  10  25  41  66  99 134 173 220 270 332 391
#
# _framework density 26.225027000000001
#
# number of rings (size 3 to 8) (size 9 to 14) (size 15 to 20)
#    0.000    1.200    4.000    1.800    0.000    8.000 
#    0.000    9.000    0.000    0.000    0.000    0.000 
#    0.000    0.000    0.000    0.000    0.000    0.000 
#
# Total GULP energy -112009.864514 kJ/mol
# GULP energy per Si atom -5600.493226 kJ/mol
# Density = 2.616534 g / cm^3
# Si number density = 26.225027 Si / 1000 Ang^3
#
#
#
# Elastic Constant Matrix: (Units=GPa)
#
#
# Indices 1 2 3 4 5 6 
#
# 1 80.0016 6.2763 28.7336 0.0000 -16.2712 0.0000
# 2 6.2763 113.0864 33.5008 0.0000 1.0528 0.0000
# 3 28.7336 33.5008 117.9437 0.0000 12.3918 0.0000
# 4 0.0000 0.0000 0.0000 41.2230 0.0000 7.8104
# 5 -16.2712 1.0528 12.3918 0.0000 22.0885 0.0000
# 6 0.0000 0.0000 0.0000 7.8104 0.0000 38.4893
#
#
#
# Elastic Compliance Matrix: (Units=1/GPa)
#
#
# Indices 1 2 3 4 5 6 
#
# 1 0.018205 0.000736 -0.006428 0.000000 0.016981 0.000000
# 2 0.000736 0.009712 -0.003131 0.000000 0.001836 0.000000
# 3 -0.006428 -0.003131 0.012131 0.000000 -0.011391 0.000000
# 4 0.000000 0.000000 0.000000 0.025228 0.000000 -0.005119
# 5 0.016981 0.001836 -0.011391 0.000000 0.064085 0.000000
# 6 0.000000 0.000000 0.000000 -0.005119 0.000000 0.027020
#
#
# Mechanical properties :
#
#
# Convention : Reuss Voigt Hill
#
# Bulk Modulus (GPa) = 44.64011 49.78369 47.21190
# Shear Modulus (GPa) = 27.54911 36.52824 32.03868
#
# Velocity S-wave (km/s) = 3.24464 3.73618 3.49905
# Velocity P-wave (km/s) = 5.57636 6.13486 5.86227
#
# Compressibility (1/GPa) = 0.02240138
#
# Stress axis : x y z
#
# Youngs Moduli (GPa) = 54.93134 102.96175 82.43485
#
# Poissons Ratio (x) = -0.07576 0.52991
# Poissons Ratio (y) = -0.04042 0.25809
# Poissons Ratio (z) = 0.35311 0.32236
#
# Static dielectric constant tensor:
#      x y z
#    x 2.048400 0.000000 0.005300 
#    y 0.000000 2.067730 0.000000 
#    z 0.005300 0.000000 2.086530 
# 
# From -- ./inp_files/235921.got.cif
#   From: 2010.05.17/outbox.cif.g08.bks.cpg/sg15_118_cif.got.tgz:235921.got - 2010.06.03 18:47:42.
