data_PCOD9286834
_publ_section_title
;
Structure prediction by ZEFSAII (Michael W. Deem and Ramdas Pophale) SiO2 
 PCOD9286834
Probable space group: C 2/C
;
_chemical_formula_sum "Si O2"
_cell_formula_units_Z 44
_cell_length_a 7.949538
_cell_length_b 18.940013
_cell_length_c 14.178888
_cell_angle_alpha 90.000000
_cell_angle_beta 118.765208
_cell_angle_gamma 90.000000
_cell_volume 1871.394433
_symmetry_space_group_name_H-M "C 2/C"
_symmetry_group_IT_number 15
_symmetry_cell_setting 'monoclinic'
loop_
_space_group_symop_operation_xyz
x,y,z
-x,y,1/2-z
-x,-y,-z
x,-y,1/2+z
1/2+x,1/2+y,z
1/2-x,1/2+y,1/2-z
1/2-x,1/2-y,-z
1/2+x,1/2-y,1/2+z
loop_
_atom_site_type_symbol
_atom_site_label
_atom_site_fract_x
_atom_site_fract_y
_atom_site_fract_z
Si Si1 0.500000 0.278962 0.250000
Si Si2 0.619875 0.903596 0.995991
Si Si3 0.250000 0.250000 0.000000
Si Si4 0.765758 0.167282 0.020724
Si Si5 0.500000 0.386647 0.750000
Si Si6 0.784820 0.632545 0.697868
Si Si7 0.337238 0.007044 0.321276
O O1 0.388319 0.239368 0.134272
O O2 0.340062 0.325273 0.260842
O O3 0.755043 0.836870 0.015509
O O4 0.431681 0.866594 0.993959
O O5 0.535029 0.949594 0.886926
O O6 0.693597 0.962468 0.089495
O O7 0.927302 0.156724 0.141672
O O8 0.750000 0.250000 0.000000
O O9 0.805046 0.134541 0.929793
O O10 0.326373 0.435854 0.734050
O O11 0.814031 0.553054 0.738656
O O12 0.000000 0.664626 0.750000
#
# Coordination Sequence:
#
# PCOD9286834 Si02
#       7
#     4   8   4   8   4   8   8
#     4  12  27  48  76 114 161 198 266 334 390 477
#     4  10  22  44  73 102 154 196 250 320 390 454
#     4  12  24  50  72 112 152 206 248 332 396 458
#     4  11  24  45  72 108 147 199 249 313 387 462
#     4  10  25  44  72 110 147 192 260 316 368 477
#     4  12  24  46  79 109 149 210 253 317 400 466
#     4  10  21  44  70 106 148 198 245 324 380 460
#
# _framework density 23.511880999999999
#
# number of rings (size 3 to 8) (size 9 to 14) (size 15 to 20)
#    0.000    1.091    3.636    1.636    1.273    0.727 
#   14.727    0.000    0.000    0.000    0.000    0.000 
#    0.000    0.000    0.000    0.000    0.000    0.000 
#
# Total GULP energy -122588.731196 kJ/mol
# GULP energy per Si atom -5572.215054 kJ/mol
# Density = 2.345837 g / cm^3
# Si number density = 23.511881 Si / 1000 Ang^3
#
#
#
# Elastic Constant Matrix: (Units=GPa)
#
#
# Indices 1 2 3 4 5 6 
#
# 1 81.3369 17.5321 35.4829 0.0000 -0.5483 0.0000
# 2 17.5321 118.3937 65.2453 0.0000 4.7493 0.0000
# 3 35.4829 65.2453 215.7334 0.0000 6.9398 0.0000
# 4 0.0000 0.0000 0.0000 32.5634 0.0000 4.9372
# 5 -0.5483 4.7493 6.9398 0.0000 24.9174 0.0000
# 6 0.0000 0.0000 0.0000 4.9372 0.0000 3.8389
#
#
#
# Elastic Compliance Matrix: (Units=1/GPa)
#
#
# Indices 1 2 3 4 5 6 
#
# 1 0.013353 -0.000948 -0.001942 0.000000 0.001015 0.000000
# 2 -0.000948 0.010232 -0.002901 0.000000 -0.001163 0.000000
# 3 -0.001942 -0.002901 0.005868 0.000000 -0.001124 0.000000
# 4 0.000000 0.000000 0.000000 0.038148 0.000000 -0.049063
# 5 0.001015 -0.001163 -0.001124 0.000000 0.040690 0.000000
# 6 0.000000 0.000000 0.000000 -0.049063 0.000000 0.323593
#
#
# Mechanical properties :
#
#
# Convention : Reuss Voigt Hill
#
# Bulk Modulus (GPa) = 55.95636 72.44274 64.19955
# Shear Modulus (GPa) = 11.12534 32.07752 21.60143
#
# Velocity S-wave (km/s) = 2.17763 3.69767 3.03437
# Velocity P-wave (km/s) = 5.49305 7.00773 6.29611
#
# Compressibility (1/GPa) = 0.01787107
#
# Stress axis : x y z
#
# Youngs Moduli (GPa) = 74.88968 97.73007 170.40335
#
# Poissons Ratio (x) = 0.09262 0.33097
# Poissons Ratio (y) = 0.07097 0.49439
# Poissons Ratio (z) = 0.14546 0.28354
#
# Static dielectric constant tensor:
#      x y z
#    x 1.961650 0.000000 -0.001660 
#    y 0.000000 1.853860 0.000000 
#    z -0.001660 0.000000 1.932150 
# 
# From -- ./inp_files/134985.got.cif
#   From: 2010.05.17/outbox.cif.g08.bks.cpg/sg15_68_cif.got.tgz:134985.got - 2010.06.03 18:47:42.
