data_PCOD9286902
_publ_section_title
;
Structure prediction by ZEFSAII (Michael W. Deem and Ramdas Pophale) SiO2 
 PCOD9286902
Probable space group: C 2/C
;
_chemical_formula_sum "Si O2"
_cell_formula_units_Z 40
_cell_length_a 18.886010
_cell_length_b 8.831088
_cell_length_c 13.235936
_cell_angle_alpha 90.000000
_cell_angle_beta 137.191178
_cell_angle_gamma 90.000000
_cell_volume 1500.144978
_symmetry_space_group_name_H-M "C 2/C"
_symmetry_group_IT_number 15
_symmetry_cell_setting 'monoclinic'
loop_
_space_group_symop_operation_xyz
x,y,z
-x,y,1/2-z
-x,-y,-z
x,-y,1/2+z
1/2+x,1/2+y,z
1/2-x,1/2+y,1/2-z
1/2-x,1/2-y,-z
1/2+x,1/2-y,1/2+z
loop_
_atom_site_type_symbol
_atom_site_label
_atom_site_fract_x
_atom_site_fract_y
_atom_site_fract_z
Si Si1 0.753107 0.574588 0.481049
Si Si2 0.076821 0.453736 0.195894
Si Si3 0.240206 0.616045 0.691717
Si Si4 0.403836 0.350945 0.072753
Si Si5 0.466496 0.738204 0.959864
O O1 0.750000 0.750000 0.500000
O O2 0.867216 0.523681 0.639842
O O3 0.741150 0.536576 0.351408
O O4 0.662809 0.484076 0.445789
O O5 0.169995 0.417533 0.214381
O O6 0.026933 0.609247 0.104336
O O7 0.004583 0.306274 0.106013
O O8 0.182798 0.727019 0.551321
O O9 0.349133 0.686244 0.836679
O O10 0.500000 0.316586 0.250000
O O11 0.460441 0.378056 0.024295
#
# Coordination Sequence:
#
# PCOD9286902 Si02
#       5
#     8   8   8   8   8
#     4  12  26  44  66 106 151 186 240 315 371 427
#     4  10  24  44  72 110 145 184 250 314 369 429
#     4  11  23  44  79  98 149 201 242 304 373 455
#     4  11  21  42  73 101 130 193 256 289 356 454
#     4  10  21  44  75 102 136 193 253 293 358 453
#
# _framework density 26.664090999999999
#
# number of rings (size 3 to 8) (size 9 to 14) (size 15 to 20)
#    0.000    1.200    4.000    1.800    2.800    0.000 
#    3.600    3.000    0.000    0.000    0.000    0.000 
#    0.000    0.000    0.000    0.000    0.000    0.000 
#
# Total GULP energy -112159.991246 kJ/mol
# GULP energy per Si atom -5607.999562 kJ/mol
# Density = 2.660340 g / cm^3
# Si number density = 26.664091 Si / 1000 Ang^3
#
#
#
# Elastic Constant Matrix: (Units=GPa)
#
#
# Indices 1 2 3 4 5 6 
#
# 1 84.2600 48.8006 38.7923 0.0000 4.3846 0.0000
# 2 48.8006 68.0179 25.4675 0.0000 2.3209 0.0000
# 3 38.7923 25.4675 167.1380 0.0000 13.4422 0.0000
# 4 0.0000 0.0000 0.0000 48.6623 0.0000 -2.1082
# 5 4.3846 2.3209 13.4422 0.0000 36.8781 0.0000
# 6 0.0000 0.0000 0.0000 -2.1082 0.0000 39.1527
#
#
#
# Elastic Compliance Matrix: (Units=1/GPa)
#
#
# Indices 1 2 3 4 5 6 
#
# 1 0.021486 -0.014365 -0.002746 0.000000 -0.000650 0.000000
# 2 -0.014365 0.025196 -0.000531 0.000000 0.000316 0.000000
# 3 -0.002746 -0.000531 0.006874 0.000000 -0.002146 0.000000
# 4 0.000000 0.000000 0.000000 0.020598 0.000000 0.001109
# 5 -0.000650 0.000316 -0.002146 0.000000 0.027956 0.000000
# 6 0.000000 0.000000 0.000000 0.001109 0.000000 0.025601
#
#
# Mechanical properties :
#
#
# Convention : Reuss Voigt Hill
#
# Bulk Modulus (GPa) = 54.72486 60.61518 57.67002
# Shear Modulus (GPa) = 29.57111 38.69564 34.13338
#
# Velocity S-wave (km/s) = 3.33381 3.81363 3.58177
# Velocity P-wave (km/s) = 5.94873 6.49415 6.22741
#
# Compressibility (1/GPa) = 0.01827323
#
# Stress axis : x y z
#
# Youngs Moduli (GPa) = 46.54262 39.68826 145.48095
#
# Poissons Ratio (x) = 0.57012 0.39944
# Poissons Ratio (y) = 0.66859 0.07719
# Poissons Ratio (z) = 0.12779 0.02106
#
# Static dielectric constant tensor:
#      x y z
#    x 2.049410 0.000000 -0.004380 
#    y 0.000000 2.118440 0.000000 
#    z -0.004380 0.000000 2.113140 
# 
# From -- ./inp_files/218826.got.cif
#   From: 2010.05.17/outbox.cif.g08.bks.cpg/sg15_110_cif.got.tgz:218826.got - 2010.06.03 18:47:42.
