data_PCOD9286640
_publ_section_title
;
Structure prediction by ZEFSAII (Michael W. Deem and Ramdas Pophale) SiO2 
 PCOD9286640
Probable space group: C 2/C
;
_chemical_formula_sum "Si O2"
_cell_formula_units_Z 56
_cell_length_a 25.363430
_cell_length_b 12.121017
_cell_length_c 14.271822
_cell_angle_alpha 90.000000
_cell_angle_beta 31.841835
_cell_angle_gamma 90.000000
_cell_volume 2314.790387
_symmetry_space_group_name_H-M "C 2/C"
_symmetry_group_IT_number 15
_symmetry_cell_setting 'monoclinic'
loop_
_space_group_symop_operation_xyz
x,y,z
-x,y,1/2-z
-x,-y,-z
x,-y,1/2+z
1/2+x,1/2+y,z
1/2-x,1/2+y,1/2-z
1/2-x,1/2-y,-z
1/2+x,1/2-y,1/2+z
loop_
_atom_site_type_symbol
_atom_site_label
_atom_site_fract_x
_atom_site_fract_y
_atom_site_fract_z
Si Si1 0.000000 0.276466 0.750000
Si Si2 0.377420 0.726048 0.227265
Si Si3 0.341006 0.755622 0.490255
Si Si4 0.932207 0.909008 0.484961
Si Si5 0.689385 0.862302 0.570541
Si Si6 0.000000 0.913100 0.750000
Si Si7 0.387666 0.965593 0.171879
Si Si8 0.713076 0.988841 0.863953
O O1 0.922786 0.339053 0.799173
O O2 0.065431 0.196297 0.586419
O O3 0.348627 0.694982 0.375938
O O4 0.277421 0.742105 0.316098
O O5 0.449212 0.644871 0.062284
O O6 0.401953 0.852350 0.205842
O O7 0.420576 0.674359 0.416364
O O8 0.354599 0.885137 0.495299
O O9 0.820672 0.957383 0.658414
O O10 0.007651 0.997413 0.324324
O O11 0.750000 0.750000 0.500000
O O12 0.679108 0.943160 0.674846
O O13 0.737220 0.932660 0.414618
O O14 0.347540 0.953566 0.127315
O O15 0.500000 0.000000 0.000000
#
# Coordination Sequence:
#
# PCOD9286640 Si02
#       8
#     4   8   8   8   8   4   8   8
#     4  11  24  49  68 106 156 181 232 313 354 428
#     4  10  21  44  63  92 133 188 222 276 364 425
#     4  10  23  41  69  92 137 177 226 291 358 417
#     4  10  23  45  69  96 137 189 226 294 366 412
#     4  12  26  46  74 110 143 195 248 296 364 445
#     4  11  24  39  66 108 128 173 242 291 346 422
#     4  12  25  40  71 104 140 189 237 291 366 434
#     4  11  24  47  70 101 144 188 239 296 359 435
#
# _framework density 24.192254999999999
#
# number of rings (size 3 to 8) (size 9 to 14) (size 15 to 20)
#    0.000    1.143    1.429    4.286    2.000    5.714 
#    2.571    0.000    0.000    0.000    0.000    0.000 
#    0.000    0.000    0.000    0.000    0.000    0.000 
#
# Total GULP energy -155920.496928 kJ/mol
# GULP energy per Si atom -5568.589176 kJ/mol
# Density = 2.413719 g / cm^3
# Si number density = 24.192255 Si / 1000 Ang^3
#
#
#
# Elastic Constant Matrix: (Units=GPa)
#
#
# Indices 1 2 3 4 5 6 
#
# 1 52.8656 7.0459 9.3151 0.0000 18.0713 0.0000
# 2 7.0459 78.8283 13.3182 0.0000 19.0039 0.0000
# 3 9.3151 13.3182 77.3691 0.0000 23.1321 0.0000
# 4 0.0000 0.0000 0.0000 31.8501 0.0000 6.2343
# 5 18.0713 19.0039 23.1321 0.0000 34.6161 0.0000
# 6 0.0000 0.0000 0.0000 6.2343 0.0000 24.4131
#
#
#
# Elastic Compliance Matrix: (Units=1/GPa)
#
#
# Indices 1 2 3 4 5 6 
#
# 1 0.023154 0.000964 0.001023 0.000000 -0.013300 0.000000
# 2 0.000964 0.014662 -0.000104 0.000000 -0.008484 0.000000
# 3 0.001023 -0.000104 0.016199 0.000000 -0.011302 0.000000
# 4 0.000000 0.000000 0.000000 0.033049 0.000000 -0.008440
# 5 -0.013300 -0.008484 -0.011302 0.000000 0.048041 0.000000
# 6 0.000000 0.000000 0.000000 -0.008440 0.000000 0.043117
#
#
# Mechanical properties :
#
#
# Convention : Reuss Voigt Hill
#
# Bulk Modulus (GPa) = 17.30659 29.82460 23.56559
# Shear Modulus (GPa) = 25.81102 30.13480 27.97291
#
# Velocity S-wave (km/s) = 3.26991 3.53319 3.40409
# Velocity P-wave (km/s) = 4.62879 5.38512 5.02121
#
# Compressibility (1/GPa) = 0.05778147
#
# Stress axis : x y z
#
# Youngs Moduli (GPa) = 43.18988 68.20194 61.73290
#
# Poissons Ratio (x) = -0.06575 -0.06315
# Poissons Ratio (y) = -0.04164 0.00639
# Poissons Ratio (z) = -0.04418 0.00706
#
# Static dielectric constant tensor:
#      x y z
#    x 2.027600 0.000000 -0.064780 
#    y 0.000000 1.876450 0.000000 
#    z -0.064780 0.000000 1.796760 
# 
# From -- ./inp_files/181962.got.cif
#   From: 2010.05.17/outbox.cif.g08.bks.cpg/sg15_91_cif.got.tgz:181962.got - 2010.06.03 18:47:42.
