data_PCOD9286444
_publ_section_title
;
Structure prediction by ZEFSAII (Michael W. Deem and Ramdas Pophale) SiO2 
 PCOD9286444
Probable space group: C 2/C
;
_chemical_formula_sum "Si O2"
_cell_formula_units_Z 60
_cell_length_a 23.493660
_cell_length_b 7.377463
_cell_length_c 17.243826
_cell_angle_alpha 90.000000
_cell_angle_beta 126.480695
_cell_angle_gamma 90.000000
_cell_volume 2403.135804
_symmetry_space_group_name_H-M "C 2/C"
_symmetry_group_IT_number 15
_symmetry_cell_setting 'monoclinic'
loop_
_space_group_symop_operation_xyz
x,y,z
-x,y,1/2-z
-x,-y,-z
x,-y,1/2+z
1/2+x,1/2+y,z
1/2-x,1/2+y,1/2-z
1/2-x,1/2-y,-z
1/2+x,1/2-y,1/2+z
loop_
_atom_site_type_symbol
_atom_site_label
_atom_site_fract_x
_atom_site_fract_y
_atom_site_fract_z
Si Si1 0.000000 0.410754 0.750000
Si Si2 0.500066 0.262995 0.945473
Si Si3 0.957732 0.871646 0.082260
Si Si4 0.832748 0.244735 0.912921
Si Si5 0.897733 0.525856 0.772671
Si Si6 0.701577 0.739769 0.851531
Si Si7 0.695314 0.501941 0.482637
Si Si8 0.771178 0.583642 0.771006
O O1 0.017526 0.277664 0.835736
O O2 0.066823 0.537986 0.783232
O O3 0.465237 0.304839 0.000037
O O4 0.583657 0.232623 0.022646
O O5 0.539180 0.908913 0.121739
O O6 0.497779 0.438793 0.886106
O O7 0.876775 0.916788 0.039308
O O8 0.797267 0.412876 0.841399
O O9 0.806923 0.199555 0.979468
O O10 0.802912 0.081645 0.835133
O O11 0.868412 0.320217 0.744819
O O12 0.829994 0.627952 0.753618
O O13 0.733765 0.895565 0.933043
O O14 0.758365 0.719971 0.830484
O O15 0.689539 0.554367 0.888073
#
# Coordination Sequence:
#
# PCOD9286444 Si02
#       8
#     4   8   8   8   8   8   8   8
#     4  12  26  44  74 108 154 206 254 316 412 446
#     4  10  25  45  74 110 153 200 270 313 398 465
#     4  10  22  44  72 106 148 205 248 332 379 475
#     4  11  23  43  69 107 151 198 252 317 380 464
#     4  12  25  48  71 114 150 207 260 325 384 472
#     4  11  23  43  71 103 149 198 249 321 380 462
#     4  10  21  43  69 102 144 194 250 307 402 447
#     4  12  24  44  69 106 149 198 256 312 379 459
#
# _framework density 24.967379000000001
#
# number of rings (size 3 to 8) (size 9 to 14) (size 15 to 20)
#    0.000    1.067    4.000    1.600    0.000    6.400 
#    0.000    2.667    0.000    0.000    0.000    0.000 
#    0.000    0.000    0.000    0.000    0.000    0.000 
#
# Total GULP energy -167423.975009 kJ/mol
# GULP energy per Si atom -5580.799167 kJ/mol
# Density = 2.491055 g / cm^3
# Si number density = 24.967379 Si / 1000 Ang^3
#
#
#
# Elastic Constant Matrix: (Units=GPa)
#
#
# Indices 1 2 3 4 5 6 
#
# 1 156.8184 25.2474 46.2876 0.0000 -3.4616 0.0000
# 2 25.2474 68.0952 45.0092 0.0000 5.0088 0.0000
# 3 46.2876 45.0092 96.9751 0.0000 10.9638 0.0000
# 4 0.0000 0.0000 0.0000 44.8075 0.0000 0.4211
# 5 -3.4616 5.0088 10.9638 0.0000 37.4688 0.0000
# 6 0.0000 0.0000 0.0000 0.4211 0.0000 33.7104
#
#
#
# Elastic Compliance Matrix: (Units=1/GPa)
#
#
# Indices 1 2 3 4 5 6 
#
# 1 0.007556 -0.000599 -0.003533 0.000000 0.001812 0.000000
# 2 -0.000599 0.021232 -0.009557 0.000000 -0.000097 0.000000
# 3 -0.003533 -0.009557 0.016885 0.000000 -0.003990 0.000000
# 4 0.000000 0.000000 0.000000 0.022320 0.000000 -0.000279
# 5 0.001812 -0.000097 -0.003990 0.000000 0.028037 0.000000
# 6 0.000000 0.000000 0.000000 -0.000279 0.000000 0.029668
#
#
# Mechanical properties :
#
#
# Convention : Reuss Voigt Hill
#
# Bulk Modulus (GPa) = 54.66486 61.66414 58.16450
# Shear Modulus (GPa) = 31.41171 36.88697 34.14934
#
# Velocity S-wave (km/s) = 3.55083 3.84787 3.70233
# Velocity P-wave (km/s) = 6.22521 6.67031 6.45160
#
# Compressibility (1/GPa) = 0.01829329
#
# Stress axis : x y z
#
# Youngs Moduli (GPa) = 132.34091 47.09906 59.22289
#
# Poissons Ratio (x) = 0.02823 0.20926
# Poissons Ratio (y) = 0.07933 0.56601
# Poissons Ratio (z) = 0.46761 0.45014
#
# Static dielectric constant tensor:
#      x y z
#    x 1.989460 0.000000 -0.011830 
#    y 0.000000 2.143620 0.000000 
#    z -0.011830 0.000000 1.994080 
# 
# From -- ./inp_files/218610.got.cif
#   From: 2010.05.17/outbox.cif.g08.bks.cpg/sg15_110_cif.got.tgz:218610.got - 2010.06.03 18:47:42.
