data_PCOD9286475
_publ_section_title
;
Structure prediction by ZEFSAII (Michael W. Deem and Ramdas Pophale) SiO2 
 PCOD9286475
Probable space group: C 2/C
;
_chemical_formula_sum "Si O2"
_cell_formula_units_Z 44
_cell_length_a 7.117913
_cell_length_b 16.960750
_cell_length_c 13.419149
_cell_angle_alpha 90.000000
_cell_angle_beta 82.620772
_cell_angle_gamma 90.000000
_cell_volume 1606.611264
_symmetry_space_group_name_H-M "C 2/C"
_symmetry_group_IT_number 15
_symmetry_cell_setting 'monoclinic'
loop_
_space_group_symop_operation_xyz
x,y,z
-x,y,1/2-z
-x,-y,-z
x,-y,1/2+z
1/2+x,1/2+y,z
1/2-x,1/2+y,1/2-z
1/2-x,1/2-y,-z
1/2+x,1/2-y,1/2+z
loop_
_atom_site_type_symbol
_atom_site_label
_atom_site_fract_x
_atom_site_fract_y
_atom_site_fract_z
Si Si1 0.088172 0.807383 0.136965
Si Si2 0.562395 0.302134 0.907126
Si Si3 0.714016 0.479725 0.099263
Si Si4 0.848501 0.573895 0.917433
Si Si5 0.250000 0.250000 0.000000
Si Si6 0.782650 0.439325 0.783384
O O1 0.292279 0.766794 0.126794
O O2 0.096640 0.900842 0.121943
O O3 0.000000 0.789574 0.250000
O O4 0.005889 0.780843 0.031725
O O5 0.347002 0.295799 0.890440
O O6 0.677206 0.379975 0.866880
O O7 0.684384 0.544291 0.185832
O O8 0.932320 0.449479 0.082734
O O9 0.705194 0.526660 0.998314
O O10 0.801407 0.530757 0.817811
O O11 0.825781 0.663883 0.945268
O O12 0.000000 0.410896 0.750000
#
# Coordination Sequence:
#
# PCOD9286475 Si02
#       6
#     8   8   8   8   4   8
#     4  11  24  43  72 100 135 186 239 287 347 424
#     4  11  25  46  68 104 143 179 240 292 348 419
#     4  10  21  43  69  97 135 189 231 281 347 424
#     4  10  22  43  67  99 144 177 231 286 352 409
#     4  12  26  42  70 102 140 184 210 308 356 394
#     4  10  22  42  73 100 139 191 235 287 353 423
#
# _framework density 27.386838000000001
#
# number of rings (size 3 to 8) (size 9 to 14) (size 15 to 20)
#    0.000    1.455    3.636    0.545    2.545    3.636 
#    0.000    2.727    0.000    0.000    0.000    0.000 
#    0.000    0.000    0.000    0.000    0.000    0.000 
#
# Total GULP energy -122609.904470 kJ/mol
# GULP energy per Si atom -5573.177476 kJ/mol
# Density = 2.732450 g / cm^3
# Si number density = 27.386838 Si / 1000 Ang^3
#
#
#
# Elastic Constant Matrix: (Units=GPa)
#
#
# Indices 1 2 3 4 5 6 
#
# 1 116.0468 55.4069 57.6262 0.0000 -59.1788 0.0000
# 2 55.4069 228.0807 64.8209 0.0000 -24.5529 0.0000
# 3 57.6262 64.8209 173.2664 0.0000 -41.7033 0.0000
# 4 0.0000 0.0000 0.0000 30.8749 0.0000 -21.2829
# 5 -59.1788 -24.5529 -41.7033 0.0000 54.0679 0.0000
# 6 0.0000 0.0000 0.0000 -21.2829 0.0000 35.2598
#
#
#
# Elastic Compliance Matrix: (Units=1/GPa)
#
#
# Indices 1 2 3 4 5 6 
#
# 1 0.021163 -0.002581 -0.000958 0.000000 0.021253 0.000000
# 2 -0.002581 0.005265 -0.001493 0.000000 -0.001586 0.000000
# 3 -0.000958 -0.001493 0.007654 0.000000 0.004177 0.000000
# 4 0.000000 0.000000 0.000000 0.055468 0.000000 0.033481
# 5 0.021253 -0.001586 0.004177 0.000000 0.044259 0.000000
# 6 0.000000 0.000000 0.000000 0.033481 0.000000 0.048570
#
#
# Mechanical properties :
#
#
# Convention : Reuss Voigt Hill
#
# Bulk Modulus (GPa) = 41.63392 97.01132 69.32262
# Shear Modulus (GPa) = 24.94404 46.67651 35.81027
#
# Velocity S-wave (km/s) = 3.02123 4.13285 3.61996
# Velocity P-wave (km/s) = 5.23503 7.63370 6.54519
#
# Compressibility (1/GPa) = 0.02401888
#
# Stress axis : x y z
#
# Youngs Moduli (GPa) = 47.25193 189.93293 130.65145
#
# Poissons Ratio (x) = 0.49023 0.12512
# Poissons Ratio (y) = 0.12196 0.19505
# Poissons Ratio (z) = 0.04525 0.28355
#
# Static dielectric constant tensor:
#      x y z
#    x 3.153750 0.000000 0.026050 
#    y 0.000000 2.210460 0.000000 
#    z 0.026050 0.000000 2.186790 
# 
# From -- ./inp_files/134259.got.cif
#   From: 2010.05.17/outbox.cif.g08.bks.cpg/sg15_68_cif.got.tgz:134259.got - 2010.06.03 18:47:42.
