data_PCOD9286013
_publ_section_title
;
Structure prediction by ZEFSAII (Michael W. Deem and Ramdas Pophale) SiO2 
 PCOD9286013
Probable space group: C 2/C
;
_chemical_formula_sum "Si O2"
_cell_formula_units_Z 64
_cell_length_a 27.818821
_cell_length_b 9.323091
_cell_length_c 13.590177
_cell_angle_alpha 90.000000
_cell_angle_beta 126.542132
_cell_angle_gamma 90.000000
_cell_volume 2831.822232
_symmetry_space_group_name_H-M "C 2/C"
_symmetry_group_IT_number 15
_symmetry_cell_setting 'monoclinic'
loop_
_space_group_symop_operation_xyz
x,y,z
-x,y,1/2-z
-x,-y,-z
x,-y,1/2+z
1/2+x,1/2+y,z
1/2-x,1/2+y,1/2-z
1/2-x,1/2-y,-z
1/2+x,1/2-y,1/2+z
loop_
_atom_site_type_symbol
_atom_site_label
_atom_site_fract_x
_atom_site_fract_y
_atom_site_fract_z
Si Si1 0.694737 0.675888 0.379270
Si Si2 0.883612 0.454688 0.420170
Si Si3 0.993357 0.387913 0.845449
Si Si4 0.427515 0.817078 0.281462
Si Si5 0.784923 0.250275 0.323880
Si Si6 0.692421 0.648280 0.946536
Si Si7 0.646576 0.737436 0.699326
Si Si8 0.525266 0.654988 0.502678
O O1 0.750000 0.750000 0.500000
O O2 0.631076 0.745008 0.337352
O O3 0.704592 0.696535 0.274083
O O4 0.697337 0.510333 0.410792
O O5 0.903679 0.339692 0.363390
O O6 0.824224 0.391656 0.395039
O O7 0.866951 0.600538 0.347402
O O8 0.943068 0.465668 0.556060
O O9 0.947787 0.521759 0.779002
O O10 0.980907 0.276171 0.917960
O O11 0.000000 0.309275 0.750000
O O12 0.486196 0.717305 0.364417
O O13 0.809969 0.143279 0.438295
O O14 0.715195 0.286771 0.252608
O O15 0.642883 0.717102 0.813467
O O16 0.750000 0.750000 0.000000
O O17 0.597014 0.644514 0.582140
O O18 0.500000 0.500000 0.500000
#
# Coordination Sequence:
#
# PCOD9286013 Si02
#       8
#     8   8   8   8   8   8   8   8
#     4  11  26  46  73 103 148 196 236 306 366 437
#     4  10  21  42  69  98 135 187 234 297 355 435
#     4  11  23  42  72 104 131 188 250 299 358 442
#     4  10  21  45  68  98 135 179 249 287 361 428
#     4  10  26  41  71 102 147 187 248 297 364 445
#     4  10  25  41  65 108 144 188 243 290 364 440
#     4  11  22  41  73  99 142 188 238 295 373 420
#     4  11  22  43  73  98 141 186 231 299 369 432
#
# _framework density 22.600290000000001
#
# number of rings (size 3 to 8) (size 9 to 14) (size 15 to 20)
#    0.000    1.500    2.500    1.500   12.250    1.000 
#    0.000    0.625    0.000    0.000    0.000    0.000 
#    0.000    0.000    0.000    0.000    0.000    0.000 
#
# Total GULP energy -178510.038243 kJ/mol
# GULP energy per Si atom -5578.438695 kJ/mol
# Density = 2.254885 g / cm^3
# Si number density = 22.600290 Si / 1000 Ang^3
#
#
#
# Elastic Constant Matrix: (Units=GPa)
#
#
# Indices 1 2 3 4 5 6 
#
# 1 85.0074 31.9184 57.1310 0.0000 19.9734 0.0000
# 2 31.9184 125.0127 49.6099 0.0000 15.3198 0.0000
# 3 57.1310 49.6099 127.6220 0.0000 15.1194 0.0000
# 4 0.0000 0.0000 0.0000 24.3702 0.0000 1.4883
# 5 19.9734 15.3198 15.1194 0.0000 49.1774 0.0000
# 6 0.0000 0.0000 0.0000 1.4883 0.0000 24.0601
#
#
#
# Elastic Compliance Matrix: (Units=1/GPa)
#
#
# Indices 1 2 3 4 5 6 
#
# 1 0.018093 -0.001233 -0.007052 0.000000 -0.004796 0.000000
# 2 -0.001233 0.009714 -0.003035 0.000000 -0.001592 0.000000
# 3 -0.007052 -0.003035 0.012164 0.000000 0.000070 0.000000
# 4 0.000000 0.000000 0.000000 0.041189 0.000000 -0.002548
# 5 -0.004796 -0.001592 0.000070 0.000000 0.022757 0.000000
# 6 0.000000 0.000000 0.000000 -0.002548 0.000000 0.041720
#
#
# Mechanical properties :
#
#
# Convention : Reuss Voigt Hill
#
# Bulk Modulus (GPa) = 57.70371 68.32895 63.01633
# Shear Modulus (GPa) = 28.72660 32.78708 30.75684
#
# Velocity S-wave (km/s) = 3.56908 3.81299 3.69305
# Velocity P-wave (km/s) = 6.52473 7.04872 6.79178
#
# Compressibility (1/GPa) = 0.01732991
#
# Stress axis : x y z
#
# Youngs Moduli (GPa) = 55.26992 102.94775 82.20946
#
# Poissons Ratio (x) = 0.12697 0.57973
# Poissons Ratio (y) = 0.06817 0.24953
# Poissons Ratio (z) = 0.38976 0.31247
#
# Static dielectric constant tensor:
#      x y z
#    x 1.961170 0.000000 0.013520 
#    y 0.000000 1.844280 0.000000 
#    z 0.013520 0.000000 1.977450 
# 
# From -- ./inp_files/181172.got.cif
#   From: 2010.05.17/outbox.cif.g08.bks.cpg/sg15_91_cif.got.tgz:181172.got - 2010.06.03 18:47:42.
