data_PCOD9286268
_publ_section_title
;
Structure prediction by ZEFSAII (Michael W. Deem and Ramdas Pophale) SiO2 
 PCOD9286268
Probable space group: C 2/C
;
_chemical_formula_sum "Si O2"
_cell_formula_units_Z 44
_cell_length_a 5.095045
_cell_length_b 30.291189
_cell_length_c 14.795889
_cell_angle_alpha 90.000000
_cell_angle_beta 126.204707
_cell_angle_gamma 90.000000
_cell_volume 1842.601712
_symmetry_space_group_name_H-M "C 2/C"
_symmetry_group_IT_number 15
_symmetry_cell_setting 'monoclinic'
loop_
_space_group_symop_operation_xyz
x,y,z
-x,y,1/2-z
-x,-y,-z
x,-y,1/2+z
1/2+x,1/2+y,z
1/2-x,1/2+y,1/2-z
1/2-x,1/2-y,-z
1/2+x,1/2-y,1/2+z
loop_
_atom_site_type_symbol
_atom_site_label
_atom_site_fract_x
_atom_site_fract_y
_atom_site_fract_z
Si Si1 0.457680 0.890622 0.575429
Si Si2 0.224242 0.623434 0.936775
Si Si3 0.500000 0.056669 0.750000
Si Si4 0.532489 0.799840 0.649657
Si Si5 0.895695 0.490367 0.579869
Si Si6 0.667966 0.719871 0.569080
O O1 0.498636 0.891444 0.474359
O O2 0.665994 0.847380 0.644944
O O3 0.506050 0.940064 0.620911
O O4 0.099429 0.879935 0.542008
O O5 0.140721 0.673714 0.892563
O O6 0.221147 0.591014 0.850076
O O7 0.581700 0.022777 0.686417
O O8 0.500000 0.801466 0.750000
O O9 0.693184 0.753300 0.656699
O O10 0.202683 0.794918 0.523760
O O11 0.500000 0.500000 0.500000
O O12 0.000000 0.500000 0.500000
O O13 0.750000 0.750000 0.500000
#
# Coordination Sequence:
#
# PCOD9286268 Si02
#       6
#     8   8   4   8   8   8
#     4  11  22  46  63  95 136 176 224 294 338 403
#     4  11  24  42  69  96 137 176 228 284 351 419
#     4  12  26  44  72 106 136 194 232 290 372 422
#     4  10  23  40  67  96 132 181 231 279 348 426
#     4  12  25  45  70  99 140 180 234 296 347 421
#     4  10  21  43  65  95 138 175 218 292 349 409
#
# _framework density 23.879280000000001
#
# number of rings (size 3 to 8) (size 9 to 14) (size 15 to 20)
#    0.000    1.091    5.455    0.000    1.273    5.091 
#    0.000    0.000    0.000    0.000    0.000    0.000 
#    0.000    0.000    0.000    0.000    0.000    0.000 
#
# Total GULP energy -122612.799057 kJ/mol
# GULP energy per Si atom -5573.309048 kJ/mol
# Density = 2.382493 g / cm^3
# Si number density = 23.879280 Si / 1000 Ang^3
#
#
#
# Elastic Constant Matrix: (Units=GPa)
#
#
# Indices 1 2 3 4 5 6 
#
# 1 95.7871 16.5706 22.2377 0.0000 -13.5665 0.0000
# 2 16.5706 259.5774 49.1976 0.0000 -20.0389 0.0000
# 3 22.2377 49.1976 87.3380 0.0000 -25.5846 0.0000
# 4 0.0000 0.0000 0.0000 18.4778 0.0000 -21.6998
# 5 -13.5665 -20.0389 -25.5846 0.0000 40.0003 0.0000
# 6 0.0000 0.0000 0.0000 -21.6998 0.0000 25.1272
#
#
#
# Elastic Compliance Matrix: (Units=1/GPa)
#
#
# Indices 1 2 3 4 5 6 
#
# 1 0.011292 -0.000138 -0.002087 0.000000 0.002426 0.000000
# 2 -0.000138 0.004333 -0.002195 0.000000 0.000720 0.000000
# 3 -0.002087 -0.002195 0.015613 0.000000 0.008179 0.000000
# 4 0.000000 0.000000 0.000000 -3.815664 0.000000 -3.295192
# 5 0.002426 0.000720 0.008179 0.000000 0.031415 0.000000
# 6 0.000000 0.000000 0.000000 -3.295192 0.000000 -2.805917
#
#
# Mechanical properties :
#
#
# Convention : Reuss Voigt Hill
#
# Bulk Modulus (GPa) = 44.64441 68.74604 56.69522
# Shear Modulus (GPa) = -0.76422 40.36748 19.80163
#
# Velocity S-wave (km/s) = -0.56633 4.11601 2.88278
# Velocity P-wave (km/s) = 4.27888 7.17218 5.90546
#
# Compressibility (1/GPa) = 0.02239922
#
# Stress axis : x y z
#
# Youngs Moduli (GPa) = 88.56051 230.80024 64.04798
#
# Poissons Ratio (x) = 0.03187 0.13365
# Poissons Ratio (y) = 0.01223 0.14056
# Poissons Ratio (z) = 0.18479 0.50650
#
# Static dielectric constant tensor:
#      x y z
#    x 1.965760 0.000000 0.057250 
#    y 0.000000 2.467990 0.000000 
#    z 0.057250 0.000000 1.922250 
# 
# From -- ./inp_files/130526.got.cif
#   From: 2010.05.17/outbox.cif.g08.bks.cpg/sg15_66_cif.got.tgz:130526.got - 2010.06.03 18:47:42.
