data_PCOD9286147
_publ_section_title
;
Structure prediction by ZEFSAII (Michael W. Deem and Ramdas Pophale) SiO2 
 PCOD9286147
Probable space group: C 2/C
;
_chemical_formula_sum "Si O2"
_cell_formula_units_Z 36
_cell_length_a 20.346699
_cell_length_b 4.821359
_cell_length_c 20.949254
_cell_angle_alpha 90.000000
_cell_angle_beta 138.750807
_cell_angle_gamma 90.000000
_cell_volume 1354.996808
_symmetry_space_group_name_H-M "C 2/C"
_symmetry_group_IT_number 15
_symmetry_cell_setting 'monoclinic'
loop_
_space_group_symop_operation_xyz
x,y,z
-x,y,1/2-z
-x,-y,-z
x,-y,1/2+z
1/2+x,1/2+y,z
1/2-x,1/2+y,1/2-z
1/2-x,1/2-y,-z
1/2+x,1/2-y,1/2+z
loop_
_atom_site_type_symbol
_atom_site_label
_atom_site_fract_x
_atom_site_fract_y
_atom_site_fract_z
Si Si1 0.796661 0.183681 0.905099
Si Si2 0.500000 0.951482 0.250000
Si Si3 0.299729 0.699120 0.605380
Si Si4 0.490221 0.399275 0.870331
Si Si5 0.916667 0.428431 0.885258
O O1 0.721615 0.385254 0.888874
O O2 0.826302 0.297391 0.857855
O O3 0.753861 0.876960 0.878341
O O4 0.901815 0.160730 0.019746
O O5 0.592812 0.162343 0.321281
O O6 0.502376 0.739372 0.192708
O O7 0.250000 0.750000 0.500000
O O8 0.462693 0.714417 0.867090
O O9 0.404212 0.219807 0.841960
O O10 0.000000 0.500000 0.000000
#
# Coordination Sequence:
#
# PCOD9286147 Si02
#       5
#     8   4   8   8   8
#     4  11  22  45  74 104 141 193 254 310 379 456
#     4  12  30  46  72 112 156 204 258 322 388 450
#     4  12  26  46  71 107 150 196 254 311 379 461
#     4  11  23  42  73 110 150 192 248 314 383 458
#     4  10  21  42  74 110 143 190 249 313 380 456
#
# _framework density 26.56833
#
# number of rings (size 3 to 8) (size 9 to 14) (size 15 to 20)
#    0.000    0.889    2.222    7.333    0.000    3.556 
#    0.000    4.444    0.000    0.000    0.000    0.000 
#    0.000    0.000    0.000    0.000    0.000    0.000 
#
# Total GULP energy -100944.633878 kJ/mol
# GULP energy per Si atom -5608.035215 kJ/mol
# Density = 2.650786 g / cm^3
# Si number density = 26.568330 Si / 1000 Ang^3
#
#
#
# Elastic Constant Matrix: (Units=GPa)
#
#
# Indices 1 2 3 4 5 6 
#
# 1 101.3393 14.8762 47.4947 -0.0059 9.0295 -0.0129
# 2 14.8762 144.6212 29.6153 -0.0132 5.3602 -0.0246
# 3 47.4947 29.6153 113.0142 -0.0056 27.8276 -0.0050
# 4 -0.0059 -0.0132 -0.0056 29.9317 -0.0017 0.0084
# 5 9.0295 5.3602 27.8276 -0.0017 33.4346 -0.0031
# 6 -0.0129 -0.0246 -0.0050 0.0084 -0.0031 49.7691
#
#
#
# Elastic Compliance Matrix: (Units=1/GPa)
#
#
# Indices 1 2 3 4 5 6 
#
# 1 0.012334 -0.000202 -0.005431 0.000001 0.001222 0.000003
# 2 -0.000202 0.007318 -0.001959 0.000003 0.000512 0.000003
# 3 -0.005431 -0.001959 0.014094 0.000000 -0.009950 -0.000002
# 4 0.000001 0.000003 0.000000 0.033409 0.000001 -0.000006
# 5 0.001222 0.000512 -0.009950 0.000001 0.037778 0.000002
# 6 0.000003 0.000003 -0.000002 -0.000006 0.000002 0.020093
#
#
# Mechanical properties :
#
#
# Convention : Reuss Voigt Hill
#
# Bulk Modulus (GPa) = 53.87356 60.32745 57.10051
# Shear Modulus (GPa) = 34.15354 40.42632 37.28993
#
# Velocity S-wave (km/s) = 3.58927 3.90500 3.75046
# Velocity P-wave (km/s) = 6.12361 6.56413 6.34769
#
# Compressibility (1/GPa) = 0.01856198
#
# Stress axis : x y z
#
# Youngs Moduli (GPa) = 81.07566 136.65843 70.95081
#
# Poissons Ratio (x) = 0.02757 0.38537
# Poissons Ratio (y) = 0.01636 0.13897
# Poissons Ratio (z) = 0.44036 0.26768
#
# Static dielectric constant tensor:
#      x y z
#    x 2.093680 0.000000 -0.014420 
#    y 0.000000 1.988790 0.000000 
#    z -0.014420 0.000000 2.148980 
# 
# From -- ./inp_files/275763.got.cif
#   From: 2010.05.17/outbox.cif.g08.bks.cpg/sg15_138_cif.got.tgz:275763.got - 2010.06.03 18:47:42.
