data_PCOD9286399
_publ_section_title
;
Structure prediction by ZEFSAII (Michael W. Deem and Ramdas Pophale) SiO2 
 PCOD9286399
Probable space group: C 2/C
;
_chemical_formula_sum "Si O2"
_cell_formula_units_Z 40
_cell_length_a 20.275210
_cell_length_b 17.589352
_cell_length_c 14.125586
_cell_angle_alpha 90.000000
_cell_angle_beta 157.980344
_cell_angle_gamma 90.000000
_cell_volume 1888.711709
_symmetry_space_group_name_H-M "C 2/C"
_symmetry_group_IT_number 15
_symmetry_cell_setting 'monoclinic'
loop_
_space_group_symop_operation_xyz
x,y,z
-x,y,1/2-z
-x,-y,-z
x,-y,1/2+z
1/2+x,1/2+y,z
1/2-x,1/2+y,1/2-z
1/2-x,1/2-y,-z
1/2+x,1/2-y,1/2+z
loop_
_atom_site_type_symbol
_atom_site_label
_atom_site_fract_x
_atom_site_fract_y
_atom_site_fract_z
Si Si1 0.573033 0.154994 0.256844
Si Si2 0.529417 0.320862 0.186380
Si Si3 0.864816 0.927612 0.814042
Si Si4 0.973529 0.582644 0.507101
Si Si5 0.810743 0.164490 0.050379
O O1 0.500000 0.107308 0.250000
O O2 0.465768 0.233967 0.105271
O O3 0.763635 0.176001 0.548155
O O4 0.589557 0.126180 0.171983
O O5 0.500000 0.357651 0.250000
O O6 0.448753 0.364355 0.992925
O O7 0.669916 0.931901 0.601213
O O8 0.844859 0.892504 0.683629
O O9 0.000000 0.000000 0.000000
O O10 0.000000 0.500000 0.500000
O O11 0.149709 0.625401 0.777754
O O12 0.000000 0.170875 0.250000
O O13 0.750000 0.250000 0.000000
#
# Coordination Sequence:
#
# PCOD9286399 Si02
#       5
#     8   8   8   8   8
#     4  10  23  39  72 101 134 173 226 289 350 417
#     4  10  21  43  68 100 132 175 227 284 350 414
#     4  12  27  45  72 100 145 190 238 291 354 427
#     4  12  27  46  69 103 145 188 237 294 353 425
#     4  12  28  50  76 106 144 193 245 298 363 435
#
# _framework density 21.178457000000002
#
# number of rings (size 3 to 8) (size 9 to 14) (size 15 to 20)
#    0.000    0.800    2.000    4.200    8.400    0.800 
#    0.000    0.000    0.000    0.000    0.000    0.000 
#    0.000    0.000    0.000    0.000    0.000    0.000 
#
# Total GULP energy -111422.052173 kJ/mol
# GULP energy per Si atom -5571.102609 kJ/mol
# Density = 2.113025 g / cm^3
# Si number density = 21.178457 Si / 1000 Ang^3
#
#
#
# Elastic Constant Matrix: (Units=GPa)
#
#
# Indices 1 2 3 4 5 6 
#
# 1 170.9970 41.4114 49.6946 0.0000 28.2218 0.0000
# 2 41.4114 103.4348 53.3643 0.0000 6.3936 0.0000
# 3 49.6946 53.3643 114.4832 0.0000 15.5095 0.0000
# 4 0.0000 0.0000 0.0000 36.2127 0.0000 0.2305
# 5 28.2218 6.3936 15.5095 0.0000 42.3436 0.0000
# 6 0.0000 0.0000 0.0000 0.2305 0.0000 34.5349
#
#
#
# Elastic Compliance Matrix: (Units=1/GPa)
#
#
# Indices 1 2 3 4 5 6 
#
# 1 0.007491 -0.001783 -0.001874 0.000000 -0.004037 0.000000
# 2 -0.001783 0.013156 -0.005525 0.000000 0.001225 0.000000
# 3 -0.001874 -0.005525 0.012459 0.000000 -0.002481 0.000000
# 4 0.000000 0.000000 0.000000 0.027616 0.000000 -0.000184
# 5 -0.004037 0.001225 -0.002481 0.000000 0.027031 0.000000
# 6 0.000000 0.000000 0.000000 -0.000184 0.000000 0.028957
#
#
# Mechanical properties :
#
#
# Convention : Reuss Voigt Hill
#
# Bulk Modulus (GPa) = 67.82308 75.31728 71.57018
# Shear Modulus (GPa) = 35.71762 38.91457 37.31609
#
# Velocity S-wave (km/s) = 4.11117 4.29121 4.20215
# Velocity P-wave (km/s) = 7.39119 7.75842 7.57703
#
# Compressibility (1/GPa) = 0.01474424
#
# Stress axis : x y z
#
# Youngs Moduli (GPa) = 133.50119 76.00944 80.26017
#
# Poissons Ratio (x) = 0.13551 0.15037
# Poissons Ratio (y) = 0.23800 0.44341
# Poissons Ratio (z) = 0.25012 0.41993
#
# Static dielectric constant tensor:
#      x y z
#    x 1.883790 0.000000 0.028680 
#    y 0.000000 1.815460 0.000000 
#    z 0.028680 0.000000 1.758440 
# 
# From -- ./inp_files/106891.got.cif
#   From: 2010.05.17/outbox.cif.g08.bks.cpg/sg15_54_cif.got.tgz:106891.got - 2010.06.03 18:47:42.
