data_PCOD9286312
_publ_section_title
;
Structure prediction by ZEFSAII (Michael W. Deem and Ramdas Pophale) SiO2 
 PCOD9286312
Probable space group: C 2/C
;
_chemical_formula_sum "Si O2"
_cell_formula_units_Z 52
_cell_length_a 18.153138
_cell_length_b 21.289683
_cell_length_c 8.919102
_cell_angle_alpha 90.000000
_cell_angle_beta 46.932547
_cell_angle_gamma 90.000000
_cell_volume 2518.211220
_symmetry_space_group_name_H-M "C 2/C"
_symmetry_group_IT_number 15
_symmetry_cell_setting 'monoclinic'
loop_
_space_group_symop_operation_xyz
x,y,z
-x,y,1/2-z
-x,-y,-z
x,-y,1/2+z
1/2+x,1/2+y,z
1/2-x,1/2+y,1/2-z
1/2-x,1/2-y,-z
1/2+x,1/2-y,1/2+z
loop_
_atom_site_type_symbol
_atom_site_label
_atom_site_fract_x
_atom_site_fract_y
_atom_site_fract_z
Si Si1 0.500000 0.920001 0.250000
Si Si2 0.500000 0.279116 0.750000
Si Si3 0.656961 0.149420 0.036780
Si Si4 0.380006 0.361739 0.135160
Si Si5 0.811023 0.498681 0.992953
Si Si6 0.994770 0.321383 0.509103
Si Si7 0.000000 0.903290 0.250000
Si Si8 0.169162 0.995775 0.437941
O O1 0.467221 0.876596 0.432885
O O2 0.407914 0.961408 0.321161
O O3 0.583775 0.323200 0.559190
O O4 0.473205 0.235161 0.645262
O O5 0.601862 0.186529 0.247808
O O6 0.586688 0.159923 0.989532
O O7 0.772628 0.164267 0.840098
O O8 0.662127 0.074582 0.062781
O O9 0.454864 0.363708 0.174069
O O10 0.369893 0.433998 0.092619
O O11 0.775384 0.512116 0.211670
O O12 0.709499 0.518630 0.047251
O O13 0.912076 0.949141 0.435852
#
# Coordination Sequence:
#
# PCOD9286312 Si02
#       8
#     4   4   8   8   8   8   4   8
#     4  11  20  34  61  99 136 170 203 270 308 388
#     4  11  27  46  62  98 120 173 231 276 312 360
#     4  10  21  43  66  95 127 172 207 264 328 398
#     4  11  25  42  67  94 131 169 221 263 321 382
#     4  11  22  35  64 102 136 167 208 248 332 397
#     4  10  23  42  66  90 131 169 222 268 318 369
#     4  12  23  42  63  93 132 179 202 266 320 394
#     4  11  22  39  60  98 132 173 204 257 321 398
#
# _framework density 20.649577000000001
#
# number of rings (size 3 to 8) (size 9 to 14) (size 15 to 20)
#    0.000    1.231    3.077    4.615    2.154    4.308 
#    0.000    0.000    0.000    0.000    0.000    0.000 
#    0.000    0.000    0.000    0.000    0.000    0.000 
#
# Total GULP energy -145084.571402 kJ/mol
# GULP energy per Si atom -5580.175823 kJ/mol
# Density = 2.060258 g / cm^3
# Si number density = 20.649577 Si / 1000 Ang^3
#
#
#
# Elastic Constant Matrix: (Units=GPa)
#
#
# Indices 1 2 3 4 5 6 
#
# 1 105.4105 25.1520 44.0861 0.0000 2.9783 0.0000
# 2 25.1520 41.3287 44.4249 0.0000 0.4659 0.0000
# 3 44.0861 44.4249 126.0662 0.0000 0.0411 0.0000
# 4 0.0000 0.0000 0.0000 -4.8070 0.0000 -60.7187
# 5 2.9783 0.4659 0.0411 0.0000 35.1937 0.0000
# 6 0.0000 0.0000 0.0000 -60.7187 0.0000 -157.2191
#
#
#
# Elastic Compliance Matrix: (Units=1/GPa)
#
#
# Indices 1 2 3 4 5 6 
#
# 1 0.011605 -0.004331 -0.002532 0.000000 -0.000922 0.000000
# 2 -0.004331 0.040575 -0.012784 0.000000 -0.000156 0.000000
# 3 -0.002532 -0.012784 0.013323 0.000000 0.000368 0.000000
# 4 0.000000 0.000000 0.000000 0.053640 0.000000 -0.020716
# 5 -0.000922 -0.000156 0.000368 0.000000 0.028494 0.000000
# 6 0.000000 0.000000 0.000000 -0.020716 0.000000 0.001640
#
#
# Mechanical properties :
#
#
# Convention : Reuss Voigt Hill
#
# Bulk Modulus (GPa) = 38.15356 55.57014 46.86185
# Shear Modulus (GPa) = 25.34129 -14.75699 5.29215
#
# Velocity S-wave (km/s) = 3.50695 -2.67617 1.60262
# Velocity P-wave (km/s) = 5.90890 4.17376 5.11543
#
# Compressibility (1/GPa) = 0.02620987
#
# Stress axis : x y z
#
# Youngs Moduli (GPa) = 86.16944 24.64557 75.06013
#
# Poissons Ratio (x) = 0.10673 0.19005
# Poissons Ratio (y) = 0.37316 0.95957
# Poissons Ratio (z) = 0.21818 0.31507
#
# Static dielectric constant tensor:
#      x y z
#    x 1.701130 0.000000 0.003650 
#    y 0.000000 1.750670 0.000000 
#    z 0.003650 0.000000 1.726730 
# 
# From -- ./inp_files/42089.got.cif
#   From: 2010.05.17/outbox.cif.g08.bks.cpg/sg15_22_cif.got.tgz:42089.got - 2010.06.03 18:47:42.
