data_PCOD9286524
_publ_section_title
;
Structure prediction by ZEFSAII (Michael W. Deem and Ramdas Pophale) SiO2 
 PCOD9286524
Probable space group: C 2/C
;
_chemical_formula_sum "Si O2"
_cell_formula_units_Z 40
_cell_length_a 18.271755
_cell_length_b 8.167980
_cell_length_c 11.426351
_cell_angle_alpha 90.000000
_cell_angle_beta 64.217636
_cell_angle_gamma 90.000000
_cell_volume 1535.547984
_symmetry_space_group_name_H-M "C 2/C"
_symmetry_group_IT_number 15
_symmetry_cell_setting 'monoclinic'
loop_
_space_group_symop_operation_xyz
x,y,z
-x,y,1/2-z
-x,-y,-z
x,-y,1/2+z
1/2+x,1/2+y,z
1/2-x,1/2+y,1/2-z
1/2-x,1/2-y,-z
1/2+x,1/2-y,1/2+z
loop_
_atom_site_type_symbol
_atom_site_label
_atom_site_fract_x
_atom_site_fract_y
_atom_site_fract_z
Si Si1 0.672799 0.293995 0.163677
Si Si2 0.275834 0.021729 0.968735
Si Si3 0.516705 0.604841 0.370703
Si Si4 0.835843 0.675686 0.693591
Si Si5 0.892590 0.659207 0.063558
O O1 0.762538 0.275819 0.159297
O O2 0.614859 0.272883 0.315116
O O3 0.663293 0.135733 0.089045
O O4 0.688708 0.452122 0.071451
O O5 0.287491 0.097937 0.835008
O O6 0.311528 0.141182 0.041295
O O7 0.500000 0.537506 0.250000
O O8 0.500000 0.500000 0.500000
O O9 0.608425 0.671748 0.314176
O O10 0.458156 0.762592 0.431970
O O11 0.894922 0.528169 0.607961
#
# Coordination Sequence:
#
# PCOD9286524 Si02
#       5
#     8   8   8   8   8
#     4   9  20  37  64 112 134 165 237 300 356 410
#     4   9  18  38  66  95 136 177 226 287 348 423
#     4  12  27  50  66 104 144 192 241 298 366 420
#     4  10  21  43  71 100 136 185 241 289 358 437
#     4  10  21  43  71 100 136 185 241 289 358 437
#
# _framework density 26.049333000000001
#
# number of rings (size 3 to 8) (size 9 to 14) (size 15 to 20)
#    0.000    2.000    2.000    0.600    0.000    5.600 
#   25.200    0.000    0.000    0.000    0.000    0.000 
#    0.000    0.000    0.000    0.000    0.000    0.000 
#
# Total GULP energy -111632.105206 kJ/mol
# GULP energy per Si atom -5581.605260 kJ/mol
# Density = 2.599004 g / cm^3
# Si number density = 26.049333 Si / 1000 Ang^3
#
#
#
# Elastic Constant Matrix: (Units=GPa)
#
#
# Indices 1 2 3 4 5 6 
#
# 1 28.8670 26.4331 18.1924 0.0000 8.6059 0.0000
# 2 26.4331 87.4905 41.5893 0.0000 -1.1231 0.0000
# 3 18.1924 41.5893 167.1155 0.0000 23.5272 0.0000
# 4 0.0000 0.0000 0.0000 28.5191 0.0000 -13.4956
# 5 8.6059 -1.1231 23.5272 0.0000 38.4041 0.0000
# 6 0.0000 0.0000 0.0000 -13.4956 0.0000 27.7167
#
#
#
# Elastic Compliance Matrix: (Units=1/GPa)
#
#
# Indices 1 2 3 4 5 6 
#
# 1 0.053201 -0.016229 -0.000008 0.000000 -0.012391 0.000000
# 2 -0.016229 0.018151 -0.003652 0.000000 0.006405 0.000000
# 3 -0.000008 -0.003652 0.007561 0.000000 -0.004737 0.000000
# 4 0.000000 0.000000 0.000000 0.045562 0.000000 0.022185
# 5 -0.012391 0.006405 -0.004737 0.000000 0.031905 0.000000
# 6 0.000000 0.000000 0.000000 0.022185 0.000000 0.046881
#
#
# Mechanical properties :
#
#
# Convention : Reuss Voigt Hill
#
# Bulk Modulus (GPa) = 25.55275 50.65585 38.10430
# Shear Modulus (GPa) = 19.52478 32.07853 25.80165
#
# Velocity S-wave (km/s) = 2.74073 3.51301 3.15062
# Velocity P-wave (km/s) = 4.45490 5.99528 5.28155
#
# Compressibility (1/GPa) = 0.03913474
#
# Stress axis : x y z
#
# Youngs Moduli (GPa) = 18.79655 55.09271 132.26516
#
# Poissons Ratio (x) = 0.89407 0.00110
# Poissons Ratio (y) = 0.30504 0.48307
# Poissons Ratio (z) = 0.00016 0.20121
#
# Static dielectric constant tensor:
#      x y z
#    x 2.032490 0.000000 0.035210 
#    y 0.000000 2.121460 0.000000 
#    z 0.035210 0.000000 2.116060 
# 
# From -- ./inp_files/116166.got.cif
#   From: 2010.05.17/outbox.cif.g08.bks.cpg/sg15_59_cif.got.tgz:116166.got - 2010.06.03 18:47:42.
