data_PCOD9286394
_publ_section_title
;
Structure prediction by ZEFSAII (Michael W. Deem and Ramdas Pophale) SiO2 
 PCOD9286394
Probable space group: C 2/C
;
_chemical_formula_sum "Si O2"
_cell_formula_units_Z 40
_cell_length_a 8.755866
_cell_length_b 22.065289
_cell_length_c 9.237565
_cell_angle_alpha 90.000000
_cell_angle_beta 114.980731
_cell_angle_gamma 90.000000
_cell_volume 1617.744838
_symmetry_space_group_name_H-M "C 2/C"
_symmetry_group_IT_number 15
_symmetry_cell_setting 'monoclinic'
loop_
_space_group_symop_operation_xyz
x,y,z
-x,y,1/2-z
-x,-y,-z
x,-y,1/2+z
1/2+x,1/2+y,z
1/2-x,1/2+y,1/2-z
1/2-x,1/2-y,-z
1/2+x,1/2-y,1/2+z
loop_
_atom_site_type_symbol
_atom_site_label
_atom_site_fract_x
_atom_site_fract_y
_atom_site_fract_z
Si Si1 0.898971 0.600101 0.514868
Si Si2 0.720395 0.209005 0.843454
Si Si3 0.420877 0.267583 0.987548
Si Si4 0.366032 0.606332 0.316559
Si Si5 0.351763 0.037679 0.068982
O O1 0.830207 0.641738 0.618217
O O2 0.801895 0.625687 0.337188
O O3 0.836965 0.530737 0.509030
O O4 0.088817 0.585121 0.532536
O O5 0.591243 0.225220 0.661979
O O6 0.750000 0.250000 0.000000
O O7 0.905775 0.226881 0.853657
O O8 0.422866 0.334209 0.919937
O O9 0.250000 0.250000 0.000000
O O10 0.500000 0.587273 0.250000
O O11 0.314164 0.557863 0.414533
O O12 0.500000 0.036283 0.250000
#
# Coordination Sequence:
#
# PCOD9286394 Si02
#       5
#     8   8   8   8   8
#     4  10  21  43  67  98 137 179 248 289 362 429
#     4  12  24  45  72 104 142 192 236 302 361 439
#     4  12  27  45  69 104 146 192 242 295 373 435
#     4  11  21  44  66  95 140 181 235 296 367 420
#     4   9  22  40  68 100 134 187 236 300 356 434
#
# _framework density 24.725777000000001
#
# number of rings (size 3 to 8) (size 9 to 14) (size 15 to 20)
#    0.000    1.200    4.000    1.200    2.800    4.000 
#    7.200    0.000    0.000    0.000    0.000    0.000 
#    0.000    0.000    0.000    0.000    0.000    0.000 
#
# Total GULP energy -111510.848142 kJ/mol
# GULP energy per Si atom -5575.542407 kJ/mol
# Density = 2.466950 g / cm^3
# Si number density = 24.725777 Si / 1000 Ang^3
#
#
#
# Elastic Constant Matrix: (Units=GPa)
#
#
# Indices 1 2 3 4 5 6 
#
# 1 160.5363 61.1612 24.0827 0.0000 -33.7260 0.0000
# 2 61.1612 91.8835 24.2834 0.0000 -12.8560 0.0000
# 3 24.0827 24.2834 80.3577 0.0000 2.3549 0.0000
# 4 0.0000 0.0000 0.0000 4.8130 0.0000 -4.8270
# 5 -33.7260 -12.8560 2.3549 0.0000 59.9008 0.0000
# 6 0.0000 0.0000 0.0000 -4.8270 0.0000 36.5013
#
#
#
# Elastic Compliance Matrix: (Units=1/GPa)
#
#
# Indices 1 2 3 4 5 6 
#
# 1 0.009307 -0.005264 -0.001321 0.000000 0.004162 0.000000
# 2 -0.005264 0.015252 -0.003044 0.000000 0.000429 0.000000
# 3 -0.001321 -0.003044 0.013817 0.000000 -0.001940 0.000000
# 4 0.000000 0.000000 0.000000 0.239539 0.000000 0.031677
# 5 0.004162 0.000429 -0.001940 0.000000 0.019206 0.000000
# 6 0.000000 0.000000 0.000000 0.031677 0.000000 0.031585
#
#
# Mechanical properties :
#
#
# Convention : Reuss Voigt Hill
#
# Bulk Modulus (GPa) = 52.30422 61.31468 56.80945
# Shear Modulus (GPa) = 14.11092 35.12637 24.61864
#
# Velocity S-wave (km/s) = 2.39152 3.77322 3.15884
# Velocity P-wave (km/s) = 5.36893 6.62078 6.02744
#
# Compressibility (1/GPa) = 0.01911892
#
# Stress axis : x y z
#
# Youngs Moduli (GPa) = 107.44546 65.56671 72.37539
#
# Poissons Ratio (x) = 0.34513 0.09558
# Poissons Ratio (y) = 0.56556 0.22031
# Poissons Ratio (z) = 0.14189 0.19958
#
# Static dielectric constant tensor:
#      x y z
#    x 2.097080 0.000000 -0.046170 
#    y 0.000000 1.880080 0.000000 
#    z -0.046170 0.000000 1.964680 
# 
# From -- ./inp_files/78760.got.cif
#   From: 2010.05.17/outbox.cif.g08.bks.cpg/sg15_40_cif.got.tgz:78760.got - 2010.06.03 18:47:42.
