data_PCOD9286401
_publ_section_title
;
Structure prediction by ZEFSAII (Michael W. Deem and Ramdas Pophale) SiO2 
 PCOD9286401
Probable space group: C 2/C
;
_chemical_formula_sum "Si O2"
_cell_formula_units_Z 36
_cell_length_a 9.834919
_cell_length_b 13.926376
_cell_length_c 13.553877
_cell_angle_alpha 90.000000
_cell_angle_beta 48.305632
_cell_angle_gamma 90.000000
_cell_volume 1386.183328
_symmetry_space_group_name_H-M "C 2/C"
_symmetry_group_IT_number 15
_symmetry_cell_setting 'monoclinic'
loop_
_space_group_symop_operation_xyz
x,y,z
-x,y,1/2-z
-x,-y,-z
x,-y,1/2+z
1/2+x,1/2+y,z
1/2-x,1/2+y,1/2-z
1/2-x,1/2-y,-z
1/2+x,1/2-y,1/2+z
loop_
_atom_site_type_symbol
_atom_site_label
_atom_site_fract_x
_atom_site_fract_y
_atom_site_fract_z
Si Si1 0.073233 0.335878 0.825380
Si Si2 0.146204 0.553887 0.797202
Si Si3 0.050082 0.744162 0.920869
Si Si4 0.353099 0.436887 0.008627
Si Si5 0.500000 0.464869 0.250000
O O1 0.089486 0.446281 0.852907
O O2 0.274118 0.290602 0.716857
O O3 0.000000 0.333190 0.750000
O O4 0.947455 0.278562 0.963120
O O5 0.016700 0.641135 0.888724
O O6 0.186148 0.548002 0.661694
O O7 0.339034 0.582342 0.761100
O O8 0.899642 0.825337 0.983053
O O9 0.500000 0.500000 0.000000
O O10 0.378587 0.476712 0.887087
#
# Coordination Sequence:
#
# PCOD9286401 Si02
#       5
#     8   8   8   8   4
#     4  12  27  44  70 103 142 179 232 291 343 407
#     4  11  25  45  68 104 141 177 236 282 344 410
#     4  12  24  46  70 106 134 183 233 285 346 407
#     4  10  21  43  68 100 138 179 224 280 339 411
#     4  10  22  42  76  96 140 190 218 286 346 412
#
# _framework density 25.970593000000001
#
# number of rings (size 3 to 8) (size 9 to 14) (size 15 to 20)
#    0.000    0.889    6.667    1.333    4.667    0.000 
#    2.000    2.222    0.000    0.000    0.000    0.000 
#    0.000    0.000    0.000    0.000    0.000    0.000 
#
# Total GULP energy -100726.015145 kJ/mol
# GULP energy per Si atom -5595.889730 kJ/mol
# Density = 2.591148 g / cm^3
# Si number density = 25.970593 Si / 1000 Ang^3
#
#
#
# Elastic Constant Matrix: (Units=GPa)
#
#
# Indices 1 2 3 4 5 6 
#
# 1 75.8393 16.0431 20.4643 -0.0001 7.2081 0.0001
# 2 16.0431 145.5803 53.2000 -0.0001 -5.8051 0.0001
# 3 20.4643 53.2000 162.8573 -0.0003 12.5419 0.0002
# 4 -0.0001 -0.0001 -0.0003 57.8352 0.0002 -2.1845
# 5 7.2081 -5.8051 12.5419 0.0002 41.3551 -0.0001
# 6 0.0001 0.0001 0.0002 -2.1845 -0.0001 21.5658
#
#
#
# Elastic Compliance Matrix: (Units=1/GPa)
#
#
# Indices 1 2 3 4 5 6 
#
# 1 0.013973 -0.001193 -0.001194 0.000000 -0.002241 0.000000
# 2 -0.001193 0.008053 -0.002645 0.000000 0.002141 0.000000
# 3 -0.001194 -0.002645 0.007338 0.000000 -0.002389 0.000000
# 4 0.000000 0.000000 0.000000 0.017357 0.000000 0.001758
# 5 -0.002241 0.002141 -0.002389 0.000000 0.025596 0.000000
# 6 0.000000 0.000000 0.000000 0.001758 0.000000 0.046548
#
#
# Mechanical properties :
#
#
# Convention : Reuss Voigt Hill
#
# Bulk Modulus (GPa) = 51.81287 62.63242 57.22265
# Shear Modulus (GPa) = 36.93769 43.78916 40.36343
#
# Velocity S-wave (km/s) = 3.77542 4.11068 3.94661
# Velocity P-wave (km/s) = 6.24491 6.83368 6.54592
#
# Compressibility (1/GPa) = 0.01930022
#
# Stress axis : x y z
#
# Youngs Moduli (GPa) = 71.56549 124.18292 136.26805
#
# Poissons Ratio (x) = 0.14816 0.16264
# Poissons Ratio (y) = 0.08538 0.36049
# Poissons Ratio (z) = 0.08542 0.32852
#
# Static dielectric constant tensor:
#      x y z
#    x 2.167630 0.000000 -0.053870 
#    y 0.000000 1.970970 0.000000 
#    z -0.053870 0.000000 1.977190 
# 
# From -- ./inp_files/142757.got.cif
#   From: 2010.05.17/outbox.cif.g08.bks.cpg/sg15_72_cif.got.tgz:142757.got - 2010.06.03 18:47:42.
