data_PCOD9286426
_publ_section_title
;
Structure prediction by ZEFSAII (Michael W. Deem and Ramdas Pophale) SiO2 
 PCOD9286426
Probable space group: C 2/C
;
_chemical_formula_sum "Si O2"
_cell_formula_units_Z 44
_cell_length_a 10.088548
_cell_length_b 16.761967
_cell_length_c 13.497870
_cell_angle_alpha 90.000000
_cell_angle_beta 51.238002
_cell_angle_gamma 90.000000
_cell_volume 1779.820322
_symmetry_space_group_name_H-M "C 2/C"
_symmetry_group_IT_number 15
_symmetry_cell_setting 'monoclinic'
loop_
_space_group_symop_operation_xyz
x,y,z
-x,y,1/2-z
-x,-y,-z
x,-y,1/2+z
1/2+x,1/2+y,z
1/2-x,1/2+y,1/2-z
1/2-x,1/2-y,-z
1/2+x,1/2-y,1/2+z
loop_
_atom_site_type_symbol
_atom_site_label
_atom_site_fract_x
_atom_site_fract_y
_atom_site_fract_z
Si Si1 0.514505 0.408678 0.517787
Si Si2 0.000000 0.652435 0.250000
Si Si3 0.782668 0.615339 0.748952
Si Si4 0.875300 0.316545 0.486925
Si Si5 0.746639 0.068602 0.291791
Si Si6 0.974783 0.783567 0.399738
O O1 0.500000 0.500000 0.500000
O O2 0.407092 0.363571 0.482577
O O3 0.709645 0.390184 0.396324
O O4 0.425976 0.398637 0.664368
O O5 0.791264 0.609156 0.085529
O O6 0.101425 0.716224 0.133635
O O7 0.763302 0.527888 0.707971
O O8 0.645354 0.677761 0.769089
O O9 0.031594 0.650440 0.849367
O O10 0.750000 0.250000 0.500000
O O11 0.964892 0.266102 0.532968
O O12 0.610240 0.099933 0.273822
#
# Coordination Sequence:
#
# PCOD9286426 Si02
#       6
#     8   4   8   8   8   8
#     4   8  18  40  66  89 130 170 216 271 325 396
#     4  10  22  38  66 100 124 166 206 280 322 394
#     4   9  21  44  67  92 135 173 220 273 328 405
#     4  11  24  40  64  98 133 175 220 275 331 399
#     4  10  21  43  68  95 129 177 224 268 335 402
#     4   9  22  40  63  94 131 163 217 270 334 385
#
# _framework density 24.721596999999999
#
# number of rings (size 3 to 8) (size 9 to 14) (size 15 to 20)
#    1.091    1.455    0.000    0.545    5.091    2.909 
#    3.273    2.727    0.000    0.000    0.000    0.000 
#    0.000    0.000    0.000    0.000    0.000    0.000 
#
# Total GULP energy -122540.518214 kJ/mol
# GULP energy per Si atom -5570.023555 kJ/mol
# Density = 2.466533 g / cm^3
# Si number density = 24.721597 Si / 1000 Ang^3
#
#
#
# Elastic Constant Matrix: (Units=GPa)
#
#
# Indices 1 2 3 4 5 6 
#
# 1 106.2766 62.8920 54.2411 0.0000 -12.4392 0.0000
# 2 62.8920 140.5679 76.2198 0.0000 -23.7870 0.0000
# 3 54.2411 76.2198 168.4011 0.0000 -36.2477 0.0000
# 4 0.0000 0.0000 0.0000 43.8407 0.0000 -9.7226
# 5 -12.4392 -23.7870 -36.2477 0.0000 38.8104 0.0000
# 6 0.0000 0.0000 0.0000 -9.7226 0.0000 33.9643
#
#
#
# Elastic Compliance Matrix: (Units=1/GPa)
#
#
# Indices 1 2 3 4 5 6 
#
# 1 0.013364 -0.004889 -0.002271 0.000000 -0.000834 0.000000
# 2 -0.004889 0.011375 -0.003017 0.000000 0.002587 0.000000
# 3 -0.002271 -0.003017 0.009363 0.000000 0.006168 0.000000
# 4 0.000000 0.000000 0.000000 0.024356 0.000000 0.006972
# 5 -0.000834 0.002587 0.006168 0.000000 0.032845 0.000000
# 6 0.000000 0.000000 0.000000 0.006972 0.000000 0.031439
#
#
# Mechanical properties :
#
#
# Convention : Reuss Voigt Hill
#
# Bulk Modulus (GPa) = 72.73968 89.10574 80.92271
# Shear Modulus (GPa) = 33.85743 38.11592 35.98668
#
# Velocity S-wave (km/s) = 3.70476 3.93084 3.81947
# Velocity P-wave (km/s) = 6.91286 7.53153 7.22882
#
# Compressibility (1/GPa) = 0.01374766
#
# Stress axis : x y z
#
# Youngs Moduli (GPa) = 74.82718 87.91218 106.80584
#
# Poissons Ratio (x) = 0.42979 0.24259
# Poissons Ratio (y) = 0.36582 0.32222
# Poissons Ratio (z) = 0.16996 0.26522
#
# Static dielectric constant tensor:
#      x y z
#    x 2.720700 0.000000 0.122430 
#    y 0.000000 1.984240 0.000000 
#    z 0.122430 0.000000 2.154360 
# 
# From -- ./inp_files/198520.got.cif
#   From: 2010.05.17/outbox.cif.g08.bks.cpg/sg15_100_cif.got.tgz:198520.got - 2010.06.03 18:47:42.
