data_PCOD9286014
_publ_section_title
;
Structure prediction by ZEFSAII (Michael W. Deem and Ramdas Pophale) SiO2 
 PCOD9286014
Probable space group: C 2/C
;
_chemical_formula_sum "Si O2"
_cell_formula_units_Z 40
_cell_length_a 12.338915
_cell_length_b 10.197678
_cell_length_c 14.305721
_cell_angle_alpha 90.000000
_cell_angle_beta 106.463403
_cell_angle_gamma 90.000000
_cell_volume 1726.263372
_symmetry_space_group_name_H-M "C 2/C"
_symmetry_group_IT_number 15
_symmetry_cell_setting 'monoclinic'
loop_
_space_group_symop_operation_xyz
x,y,z
-x,y,1/2-z
-x,-y,-z
x,-y,1/2+z
1/2+x,1/2+y,z
1/2-x,1/2+y,1/2-z
1/2-x,1/2-y,-z
1/2+x,1/2-y,1/2+z
loop_
_atom_site_type_symbol
_atom_site_label
_atom_site_fract_x
_atom_site_fract_y
_atom_site_fract_z
Si Si1 0.350310 0.499946 0.862781
Si Si2 0.180364 0.618113 0.965290
Si Si3 0.440648 0.223852 0.928065
Si Si4 0.470466 0.720045 0.639707
Si Si5 0.242959 0.948768 0.349889
O O1 0.247519 0.531280 0.906631
O O2 0.429056 0.380906 0.915263
O O3 0.423238 0.631502 0.865431
O O4 0.298786 0.471192 0.748944
O O5 0.053305 0.661960 0.913298
O O6 0.250000 0.750000 0.000000
O O7 0.189640 0.540589 0.063916
O O8 0.331381 0.166081 0.850229
O O9 0.440522 0.195653 0.040586
O O10 0.500000 0.778894 0.750000
O O11 0.365772 0.621018 0.630982
#
# Coordination Sequence:
#
# PCOD9286014 Si02
#       5
#     8   8   8   8   8
#     4  11  25  46  71 105 142 188 242 292 356 433
#     4  12  25  45  73 101 143 187 241 295 352 430
#     4  12  24  45  72  98 147 188 236 299 357 423
#     4  10  21  42  69  98 137 191 234 286 362 422
#     4  11  26  44  67 106 142 187 237 294 367 422
#
# _framework density 23.171436
#
# number of rings (size 3 to 8) (size 9 to 14) (size 15 to 20)
#    0.000    0.800    4.000    3.000    2.800    0.800 
#    0.000    0.000    0.000    0.000    0.000    0.000 
#    0.000    0.000    0.000    0.000    0.000    0.000 
#
# Total GULP energy -111903.509635 kJ/mol
# GULP energy per Si atom -5595.175482 kJ/mol
# Density = 2.311870 g / cm^3
# Si number density = 23.171436 Si / 1000 Ang^3
#
#
#
# Elastic Constant Matrix: (Units=GPa)
#
#
# Indices 1 2 3 4 5 6 
#
# 1 102.5626 21.3037 63.2209 0.0000 -13.6674 0.0000
# 2 21.3037 25.1047 -14.2932 0.0000 21.5510 0.0000
# 3 63.2209 -14.2932 38.3519 0.0000 42.0785 0.0000
# 4 0.0000 0.0000 0.0000 24.8179 0.0000 7.3386
# 5 -13.6674 21.5510 42.0785 0.0000 -5.6067 0.0000
# 6 0.0000 0.0000 0.0000 7.3386 0.0000 30.1376
#
#
#
# Elastic Compliance Matrix: (Units=1/GPa)
#
#
# Indices 1 2 3 4 5 6 
#
# 1 0.007888 0.002516 -0.000171 0.000000 -0.010841 0.000000
# 2 0.002516 0.022283 -0.008998 0.000000 0.011990 0.000000
# 3 -0.000171 -0.008998 0.006551 0.000000 0.014995 0.000000
# 4 0.000000 0.000000 0.000000 0.043420 0.000000 -0.010573
# 5 -0.010841 0.011990 0.014995 0.000000 0.006695 0.000000
# 6 0.000000 0.000000 0.000000 -0.010573 0.000000 0.035756
#
#
# Mechanical properties :
#
#
# Convention : Reuss Voigt Hill
#
# Bulk Modulus (GPa) = 42.70584 34.05355 38.37970
# Shear Modulus (GPa) = 34.79398 16.25560 25.52479
#
# Velocity S-wave (km/s) = 3.87924 2.65153 3.32258
# Velocity P-wave (km/s) = 6.20766 4.90942 5.59631
#
# Compressibility (1/GPa) = 0.02341600
#
# Stress axis : x y z
#
# Youngs Moduli (GPa) = 126.77174 44.87778 152.65430
#
# Poissons Ratio (x) = -0.11290 0.02608
# Poissons Ratio (y) = -0.31891 1.37353
# Poissons Ratio (z) = 0.02166 0.40379
#
# Static dielectric constant tensor:
#      x y z
#    x 1.864040 0.000000 -0.007000 
#    y 0.000000 2.172030 0.000000 
#    z -0.007000 0.000000 1.905430 
# 
# From -- ./inp_files/142131.got.cif
#   From: 2010.05.17/outbox.cif.g08.bks.cpg/sg15_72_cif.got.tgz:142131.got - 2010.06.03 18:47:42.
