data_PCOD9286373
_publ_section_title
;
Structure prediction by ZEFSAII (Michael W. Deem and Ramdas Pophale) SiO2 
 PCOD9286373
Probable space group: C 2/C
;
_chemical_formula_sum "Si O2"
_cell_formula_units_Z 48
_cell_length_a 9.969736
_cell_length_b 27.942757
_cell_length_c 16.347995
_cell_angle_alpha 90.000000
_cell_angle_beta 146.219334
_cell_angle_gamma 90.000000
_cell_volume 2532.235267
_symmetry_space_group_name_H-M "C 2/C"
_symmetry_group_IT_number 15
_symmetry_cell_setting 'monoclinic'
loop_
_space_group_symop_operation_xyz
x,y,z
-x,y,1/2-z
-x,-y,-z
x,-y,1/2+z
1/2+x,1/2+y,z
1/2-x,1/2+y,1/2-z
1/2-x,1/2-y,-z
1/2+x,1/2-y,1/2+z
loop_
_atom_site_type_symbol
_atom_site_label
_atom_site_fract_x
_atom_site_fract_y
_atom_site_fract_z
Si Si1 0.886331 0.627359 0.281900
Si Si2 0.032678 0.204085 0.172595
Si Si3 0.225419 0.365061 0.114083
Si Si4 0.753253 0.522912 0.843589
Si Si5 0.497781 0.811570 0.341616
Si Si6 0.744844 0.519364 0.168249
O O1 0.697107 0.668318 0.205952
O O2 0.758654 0.574439 0.210545
O O3 0.000000 0.633959 0.250000
O O4 0.080353 0.635538 0.454055
O O5 0.126519 0.258882 0.223051
O O6 0.000000 0.188176 0.250000
O O7 0.773640 0.200332 0.000277
O O8 0.500000 0.345696 0.250000
O O9 0.242483 0.421481 0.136415
O O10 0.100435 0.341510 0.130768
O O11 0.500000 0.502378 0.750000
O O12 0.756036 0.515418 0.749710
O O13 0.000000 0.500000 0.000000
O O14 0.500000 0.832437 0.250000
O O15 0.000000 0.515159 0.250000
O O16 0.500000 0.500000 0.000000
#
# Coordination Sequence:
#
# PCOD9286373 Si02
#       6
#     8   8   8   8   8   8
#     4  11  25  43  66  93 131 176 214 266 326 391
#     4  10  21  43  67  94 131 169 218 271 325 386
#     4  11  25  43  65  95 133 171 217 267 326 392
#     4  11  23  41  64  92 128 169 214 267 323 384
#     4  10  23  41  66  98 131 168 215 274 326 383
#     4  11  25  43  65  95 131 169 219 271 323 386
#
# _framework density 18.955584999999999
#
# number of rings (size 3 to 8) (size 9 to 14) (size 15 to 20)
#    0.000    1.333    3.333    1.000    9.333    4.667 
#    0.000    1.667    0.000    0.000    0.000    0.000 
#    0.000    0.000    0.000    0.000    0.000    0.000 
#
# Total GULP energy -133609.186305 kJ/mol
# GULP energy per Si atom -5567.049429 kJ/mol
# Density = 1.891244 g / cm^3
# Si number density = 18.955585 Si / 1000 Ang^3
#
#
#
# Elastic Constant Matrix: (Units=GPa)
#
#
# Indices 1 2 3 4 5 6 
#
# 1 110.5423 41.7840 63.8502 0.0000 -4.6403 0.0000
# 2 41.7840 42.5933 32.6486 0.0000 17.9963 0.0000
# 3 63.8502 32.6486 152.7016 0.0000 -8.5231 0.0000
# 4 0.0000 0.0000 0.0000 27.1320 0.0000 -2.2406
# 5 -4.6403 17.9963 -8.5231 0.0000 38.1720 0.0000
# 6 0.0000 0.0000 0.0000 -2.2406 0.0000 38.8507
#
#
#
# Elastic Compliance Matrix: (Units=1/GPa)
#
#
# Indices 1 2 3 4 5 6 
#
# 1 0.019561 -0.022282 -0.002730 0.000000 0.012273 0.000000
# 2 -0.022282 0.065075 -0.006542 0.000000 -0.034849 0.000000
# 3 -0.002730 -0.006542 0.009359 0.000000 0.004842 0.000000
# 4 0.000000 0.000000 0.000000 0.037033 0.000000 0.002136
# 5 0.012273 -0.034849 0.004842 0.000000 0.045200 0.000000
# 6 0.000000 0.000000 0.000000 0.002136 0.000000 0.025863
#
#
# Mechanical properties :
#
#
# Convention : Reuss Voigt Hill
#
# Bulk Modulus (GPa) = 32.37543 64.71141 48.54342
# Shear Modulus (GPa) = 18.14913 32.00124 25.07519
#
# Velocity S-wave (km/s) = 3.09764 4.11326 3.64103
# Velocity P-wave (km/s) = 5.46905 7.53466 6.58337
#
# Compressibility (1/GPa) = 0.03088762
#
# Stress axis : x y z
#
# Youngs Moduli (GPa) = 51.12239 15.36677 106.84763
#
# Poissons Ratio (x) = 0.34241 0.29169
# Poissons Ratio (y) = 1.13913 0.69896
# Poissons Ratio (z) = 0.13956 0.10052
#
# Static dielectric constant tensor:
#      x y z
#    x 1.721440 0.000000 -0.050330 
#    y 0.000000 1.644740 0.000000 
#    z -0.050330 0.000000 1.700040 
# 
# From -- ./inp_files/139028.got.cif
#   From: 2010.05.17/outbox.cif.g08.bks.cpg/sg15_70_cif.got.tgz:139028.got - 2010.06.03 18:47:42.
