data_PCOD9286217
_publ_section_title
;
Structure prediction by ZEFSAII (Michael W. Deem and Ramdas Pophale) SiO2 
 PCOD9286217
Probable space group: C 2/C
;
_chemical_formula_sum "Si O2"
_cell_formula_units_Z 48
_cell_length_a 21.047757
_cell_length_b 10.152083
_cell_length_c 22.213608
_cell_angle_alpha 90.000000
_cell_angle_beta 26.667648
_cell_angle_gamma 90.000000
_cell_volume 2130.330328
_symmetry_space_group_name_H-M "C 2/C"
_symmetry_group_IT_number 15
_symmetry_cell_setting 'monoclinic'
loop_
_space_group_symop_operation_xyz
x,y,z
-x,y,1/2-z
-x,-y,-z
x,-y,1/2+z
1/2+x,1/2+y,z
1/2-x,1/2+y,1/2-z
1/2-x,1/2-y,-z
1/2+x,1/2-y,1/2+z
loop_
_atom_site_type_symbol
_atom_site_label
_atom_site_fract_x
_atom_site_fract_y
_atom_site_fract_z
Si Si1 0.371595 0.221163 0.811538
Si Si2 0.725984 0.224958 0.866992
Si Si3 0.402691 0.158384 0.117049
Si Si4 0.332376 0.071153 0.376385
Si Si5 0.523903 0.890393 0.391971
Si Si6 0.737262 0.002543 0.940853
O O1 0.500000 0.216602 0.750000
O O2 0.408942 0.216163 0.708898
O O3 0.297200 0.356608 0.891113
O O4 0.300120 0.079743 0.883747
O O5 0.779815 0.334470 0.868152
O O6 0.783345 0.261396 0.752692
O O7 0.785022 0.087880 0.843559
O O8 0.556396 0.210210 0.009350
O O9 0.387249 0.003113 0.148246
O O10 0.419042 0.166990 0.031428
O O11 0.500000 0.091123 0.250000
O O12 0.246069 0.083649 0.512015
O O13 0.429974 0.976778 0.425659
#
# Coordination Sequence:
#
# PCOD9286217 Si02
#       6
#     8   8   8   8   8   8
#     4  11  22  38  62  90 124 165 216 254 324 383
#     4  11  23  43  65  99 128 163 219 261 322 376
#     4  10  23  42  67  92 127 173 212 259 317 384
#     4  11  20  40  65  92 127 170 207 258 334 388
#     4  10  21  43  64  84 127 179 208 248 329 394
#     4  11  23  38  63  94 125 162 214 273 310 375
#
# _framework density 22.531717
#
# number of rings (size 3 to 8) (size 9 to 14) (size 15 to 20)
#    0.000    1.333    5.000    2.000    2.333    2.000 
#    0.000    0.833    0.000    0.000    0.000    0.000 
#    0.000    0.000    0.000    0.000    0.000    0.000 
#
# Total GULP energy -133972.483252 kJ/mol
# GULP energy per Si atom -5582.186802 kJ/mol
# Density = 2.248043 g / cm^3
# Si number density = 22.531717 Si / 1000 Ang^3
#
#
#
# Elastic Constant Matrix: (Units=GPa)
#
#
# Indices 1 2 3 4 5 6 
#
# 1 86.6836 15.6840 18.3022 0.0001 23.3466 0.0000
# 2 15.6840 88.2907 19.2453 0.0001 -7.7991 -0.0001
# 3 18.3022 19.2453 71.3423 0.0003 25.2462 -0.0002
# 4 0.0001 0.0001 0.0003 28.1269 -0.0003 3.9784
# 5 23.3466 -7.7991 25.2462 -0.0003 33.2710 0.0001
# 6 0.0000 -0.0001 -0.0002 3.9784 0.0001 31.0995
#
#
#
# Elastic Compliance Matrix: (Units=1/GPa)
#
#
# Indices 1 2 3 4 5 6 
#
# 1 0.015520 -0.004359 0.001927 0.000000 -0.013375 0.000000
# 2 -0.004359 0.014678 -0.007028 0.000000 0.011832 0.000000
# 3 0.001927 -0.007028 0.022530 0.000000 -0.020096 0.000000
# 4 0.000000 0.000000 0.000000 0.036208 0.000001 -0.004632
# 5 -0.013375 0.011832 -0.020096 0.000001 0.057464 0.000000
# 6 0.000000 0.000000 0.000000 -0.004632 0.000000 0.032747
#
#
# Mechanical properties :
#
#
# Convention : Reuss Voigt Hill
#
# Bulk Modulus (GPa) = 29.57873 39.19773 34.38823
# Shear Modulus (GPa) = 23.88505 31.37183 27.62844
#
# Velocity S-wave (km/s) = 3.25939 3.73546 3.50552
# Velocity P-wave (km/s) = 5.22695 6.00327 5.62851
#
# Compressibility (1/GPa) = 0.03380807
#
# Stress axis : x y z
#
# Youngs Moduli (GPa) = 64.43249 68.13058 44.38549
#
# Poissons Ratio (x) = 0.29695 -0.08554
# Poissons Ratio (y) = 0.28083 0.31196
# Poissons Ratio (z) = -0.12417 0.47885
#
# Static dielectric constant tensor:
#      x y z
#    x 1.897140 0.000000 -0.016620 
#    y 0.000000 1.852100 0.000000 
#    z -0.016620 0.000000 1.960840 
# 
# From -- ./inp_files/252511.got.cif
#   From: 2010.05.17/outbox.cif.g08.bks.cpg/sg15_127_cif.got.tgz:252511.got - 2010.06.03 18:47:42.
