data_PCOD9286133
_publ_section_title
;
Structure prediction by ZEFSAII (Michael W. Deem and Ramdas Pophale) SiO2 
 PCOD9286133
Probable space group: C 2/C
;
_chemical_formula_sum "Si O2"
_cell_formula_units_Z 40
_cell_length_a 20.737030
_cell_length_b 12.975993
_cell_length_c 16.102229
_cell_angle_alpha 90.000000
_cell_angle_beta 155.464956
_cell_angle_gamma 90.000000
_cell_volume 1799.212723
_symmetry_space_group_name_H-M "C 2/C"
_symmetry_group_IT_number 15
_symmetry_cell_setting 'monoclinic'
loop_
_space_group_symop_operation_xyz
x,y,z
-x,y,1/2-z
-x,-y,-z
x,-y,1/2+z
1/2+x,1/2+y,z
1/2-x,1/2+y,1/2-z
1/2-x,1/2-y,-z
1/2+x,1/2-y,1/2+z
loop_
_atom_site_type_symbol
_atom_site_label
_atom_site_fract_x
_atom_site_fract_y
_atom_site_fract_z
Si Si1 0.641677 0.975911 0.360367
Si Si2 0.388649 0.690003 0.432433
Si Si3 0.122629 0.885548 0.753867
Si Si4 0.777404 0.817295 0.393790
Si Si5 0.677115 0.807725 0.836599
O O1 0.500000 0.937301 0.250000
O O2 0.796701 0.975341 0.599646
O O3 0.681292 0.904407 0.328575
O O4 0.598777 0.088792 0.278276
O O5 0.390093 0.604916 0.360920
O O6 0.294933 0.785132 0.279636
O O7 0.555993 0.732753 0.650594
O O8 0.303582 0.658682 0.416576
O O9 0.242228 0.788810 0.901936
O O10 0.955544 0.850856 0.592787
O O11 0.750000 0.750000 0.000000
#
# Coordination Sequence:
#
# PCOD9286133 Si02
#       5
#     8   8   8   8   8
#     4  12  26  42  69 107 141 179 225 290 350 414
#     4  10  22  46  70  97 134 186 228 281 339 412
#     4  10  21  43  70 107 137 177 232 287 347 405
#     4  10  21  42  73 102 143 175 232 284 350 405
#     4  12  26  48  69  96 142 188 233 279 352 417
#
# _framework density 22.231945
#
# number of rings (size 3 to 8) (size 9 to 14) (size 15 to 20)
#    1.200    0.000    2.000    4.200    2.800    4.000 
#    3.600    2.000    0.000    0.000    0.000    0.000 
#    0.000    0.000    0.000    0.000    0.000    0.000 
#
# Total GULP energy -111669.159068 kJ/mol
# GULP energy per Si atom -5583.457953 kJ/mol
# Density = 2.218134 g / cm^3
# Si number density = 22.231945 Si / 1000 Ang^3
#
#
#
# Elastic Constant Matrix: (Units=GPa)
#
#
# Indices 1 2 3 4 5 6 
#
# 1 125.5237 7.9341 21.8718 0.0000 10.6434 0.0000
# 2 7.9341 26.4388 -8.2494 0.0001 -7.3479 0.0000
# 3 21.8718 -8.2494 67.6166 0.0001 3.2021 0.0000
# 4 0.0000 0.0001 0.0001 2.0886 0.0001 21.1153
# 5 10.6434 -7.3479 3.2021 0.0001 54.0383 0.0000
# 6 0.0000 0.0000 0.0000 21.1153 0.0000 -3.9185
#
#
#
# Elastic Compliance Matrix: (Units=1/GPa)
#
#
# Indices 1 2 3 4 5 6 
#
# 1 0.009007 -0.004348 -0.003341 0.000000 -0.002167 0.000000
# 2 -0.004348 0.042858 0.006337 0.000000 0.006309 0.000000
# 3 -0.003341 0.006337 0.016618 0.000000 0.000535 0.000000
# 4 0.000000 0.000000 0.000000 0.008630 0.000000 0.046505
# 5 -0.002167 0.006309 0.000535 0.000000 0.019758 0.000000
# 6 0.000000 0.000000 0.000000 0.046505 0.000000 -0.004600
#
#
# Mechanical properties :
#
#
# Convention : Reuss Voigt Hill
#
# Bulk Modulus (GPa) = 15.20270 29.18799 22.19535
# Shear Modulus (GPa) = 42.77012 23.64319 33.20665
#
# Velocity S-wave (km/s) = 4.39089 3.26464 3.86896
# Velocity P-wave (km/s) = 5.70610 5.23143 5.47391
#
# Compressibility (1/GPa) = 0.06577778
#
# Stress axis : x y z
#
# Youngs Moduli (GPa) = 111.01919 23.33269 60.17628
#
# Poissons Ratio (x) = 0.10145 0.20108
# Poissons Ratio (y) = 0.48271 -0.38131
# Poissons Ratio (z) = 0.37096 -0.14785
#
# Static dielectric constant tensor:
#      x y z
#    x 1.853670 0.000000 -0.017650 
#    y 0.000000 1.854750 0.000000 
#    z -0.017650 0.000000 1.805140 
# 
# From -- ./inp_files/215825.got.cif
#   From: 2010.05.17/outbox.cif.g08.bks.cpg/sg15_108_cif.got.tgz:215825.got - 2010.06.03 18:47:42.
