data_PCOD9286507
_publ_section_title
;
Structure prediction by ZEFSAII (Michael W. Deem and Ramdas Pophale) SiO2 
 PCOD9286507
Probable space group: C 2/C
;
_chemical_formula_sum "Si O2"
_cell_formula_units_Z 56
_cell_length_a 8.082151
_cell_length_b 18.274747
_cell_length_c 17.091465
_cell_angle_alpha 90.000000
_cell_angle_beta 61.372226
_cell_angle_gamma 90.000000
_cell_volume 2215.791392
_symmetry_space_group_name_H-M "C 2/C"
_symmetry_group_IT_number 15
_symmetry_cell_setting 'monoclinic'
loop_
_space_group_symop_operation_xyz
x,y,z
-x,y,1/2-z
-x,-y,-z
x,-y,1/2+z
1/2+x,1/2+y,z
1/2-x,1/2+y,1/2-z
1/2-x,1/2-y,-z
1/2+x,1/2-y,1/2+z
loop_
_atom_site_type_symbol
_atom_site_label
_atom_site_fract_x
_atom_site_fract_y
_atom_site_fract_z
Si Si1 0.243229 0.517003 0.030086
Si Si2 0.502100 0.291233 0.843297
Si Si3 0.694960 0.993925 0.866927
Si Si4 0.484684 0.278316 0.132731
Si Si5 0.925104 0.124549 0.501498
Si Si6 0.848995 0.628844 0.226535
Si Si7 0.705524 0.161631 0.828909
O O1 0.379299 0.577270 0.036426
O O2 0.022113 0.533856 0.075869
O O3 0.296751 0.502616 0.926876
O O4 0.277664 0.437829 0.060779
O O5 0.500000 0.294851 0.750000
O O6 0.376935 0.340948 0.927606
O O7 0.709451 0.324307 0.812246
O O8 0.512216 0.206766 0.865173
O O9 0.689543 0.075207 0.834625
O O10 0.769117 0.932291 0.791932
O O11 0.448180 0.191720 0.151179
O O12 0.683744 0.308373 0.119657
O O13 0.333884 0.315905 0.225706
O O14 0.447558 0.308430 0.055534
O O15 0.000000 0.592776 0.250000
#
# Coordination Sequence:
#
# PCOD9286507 Si02
#       7
#     8   8   8   8   8   8   8
#     4  10  24  40  60 101 136 159 225 273 318 407
#     4  11  24  42  65  96 130 165 218 273 322 396
#     4  11  23  41  65  96 134 174 207 282 334 374
#     4  10  21  43  70  94 125 175 226 265 311 413
#     4  11  23  43  67  93 128 180 212 269 333 389
#     4  11  22  42  65  95 130 172 224 265 319 398
#     4  10  22  43  66  96 129 170 221 266 327 394
#
# _framework density 25.273137999999999
#
# number of rings (size 3 to 8) (size 9 to 14) (size 15 to 20)
#    0.000    1.429    4.286    1.714    0.000    9.143 
#    2.571    4.286    0.000    0.000    0.000    0.000 
#    0.000    0.000    0.000    0.000    0.000    0.000 
#
# Total GULP energy -156525.427948 kJ/mol
# GULP energy per Si atom -5590.193855 kJ/mol
# Density = 2.521562 g / cm^3
# Si number density = 25.273138 Si / 1000 Ang^3
#
#
#
# Elastic Constant Matrix: (Units=GPa)
#
#
# Indices 1 2 3 4 5 6 
#
# 1 68.8134 14.0444 8.1001 0.0000 15.1651 0.0000
# 2 14.0444 187.1171 37.0653 0.0000 24.3574 0.0000
# 3 8.1001 37.0653 53.4505 0.0000 34.2460 0.0000
# 4 0.0000 0.0000 0.0000 33.7252 0.0000 7.8827
# 5 15.1651 24.3574 34.2460 0.0000 36.2737 0.0000
# 6 0.0000 0.0000 0.0000 7.8827 0.0000 35.2350
#
#
#
# Elastic Compliance Matrix: (Units=1/GPa)
#
#
# Indices 1 2 3 4 5 6 
#
# 1 0.016599 -0.000823 0.005435 0.000000 -0.011518 0.000000
# 2 -0.000823 0.006237 -0.004397 0.000000 0.000308 0.000000
# 3 0.005435 -0.004397 0.051881 0.000000 -0.048300 0.000000
# 4 0.000000 0.000000 0.000000 0.031287 0.000000 -0.007000
# 5 -0.011518 0.000308 -0.048300 0.000000 0.077777 0.000000
# 6 0.000000 0.000000 0.000000 -0.007000 0.000000 0.029947
#
#
# Mechanical properties :
#
#
# Convention : Reuss Voigt Hill
#
# Bulk Modulus (GPa) = 13.30762 47.53341 30.42052
# Shear Modulus (GPa) = 20.97781 37.72484 29.35133
#
# Velocity S-wave (km/s) = 2.88417 3.86772 3.41158
# Velocity P-wave (km/s) = 4.04577 6.22851 5.25179
#
# Compressibility (1/GPa) = 0.07514491
#
# Stress axis : x y z
#
# Youngs Moduli (GPa) = 60.24603 160.33203 19.27503
#
# Poissons Ratio (x) = 0.13197 -0.10476
# Poissons Ratio (y) = 0.04959 0.08476
# Poissons Ratio (z) = -0.32743 0.70505
#
# Static dielectric constant tensor:
#      x y z
#    x 2.091410 0.000000 -0.038030 
#    y 0.000000 1.977540 0.000000 
#    z -0.038030 0.000000 2.050140 
# 
# From -- ./inp_files/190892.got.cif
#   From: 2010.05.17/outbox.cif.g08.bks.cpg/sg15_96_cif.got.tgz:190892.got - 2010.06.03 18:47:42.
