data_PCOD9286637
_publ_section_title
;
Structure prediction by ZEFSAII (Michael W. Deem and Ramdas Pophale) SiO2 
 PCOD9286637
Probable space group: C 2/C
;
_chemical_formula_sum "Si O2"
_cell_formula_units_Z 52
_cell_length_a 22.229265
_cell_length_b 16.995892
_cell_length_c 8.459412
_cell_angle_alpha 90.000000
_cell_angle_beta 132.917877
_cell_angle_gamma 90.000000
_cell_volume 2340.541505
_symmetry_space_group_name_H-M "C 2/C"
_symmetry_group_IT_number 15
_symmetry_cell_setting 'monoclinic'
loop_
_space_group_symop_operation_xyz
x,y,z
-x,y,1/2-z
-x,-y,-z
x,-y,1/2+z
1/2+x,1/2+y,z
1/2-x,1/2+y,1/2-z
1/2-x,1/2-y,-z
1/2+x,1/2-y,1/2+z
loop_
_atom_site_type_symbol
_atom_site_label
_atom_site_fract_x
_atom_site_fract_y
_atom_site_fract_z
Si Si1 0.153401 0.118321 0.753971
Si Si2 0.278760 0.811322 0.269010
Si Si3 0.097784 0.973191 0.459477
Si Si4 0.060037 0.603350 0.565802
Si Si5 0.500000 0.964086 0.250000
Si Si6 0.016692 0.240947 0.596781
Si Si7 0.850594 0.170054 0.243664
O O1 0.240782 0.154509 0.860927
O O2 0.145004 0.063945 0.894199
O O3 0.092771 0.192310 0.669643
O O4 0.122911 0.060116 0.559184
O O5 0.359660 0.857487 0.361270
O O6 0.306159 0.720239 0.304763
O O7 0.210600 0.825497 0.011876
O O8 0.121777 0.914537 0.645340
O O9 0.000000 0.970829 0.250000
O O10 0.061539 0.586724 0.754658
O O11 0.984141 0.664438 0.406960
O O12 0.047021 0.522035 0.452117
O O13 0.935373 0.214936 0.356983
O O14 0.000000 0.217649 0.750000
#
# Coordination Sequence:
#
# PCOD9286637 Si02
#       7
#     8   8   8   8   4   8   8
#     4  12  25  40  65 100 135 180 223 268 345 387
#     4  10  25  41  64  99 136 174 209 281 334 403
#     4  12  24  41  64  97 132 178 229 282 318 397
#     4  10  23  44  70  99 129 165 226 274 335 386
#     4  10  22  44  76  96 122 172 220 280 322 400
#     4  11  21  42  68  94 128 177 227 273 313 405
#     4  10  21  44  63  89 137 171 222 273 323 390
#
# _framework density 22.217081
#
# number of rings (size 3 to 8) (size 9 to 14) (size 15 to 20)
#    0.000    1.231    3.846    1.385    2.154    6.769 
#    0.000    3.077    0.000    0.000    0.000    0.000 
#    0.000    0.000    0.000    0.000    0.000    0.000 
#
# Total GULP energy -145296.784746 kJ/mol
# GULP energy per Si atom -5588.337875 kJ/mol
# Density = 2.216651 g / cm^3
# Si number density = 22.217081 Si / 1000 Ang^3
#
#
#
# Elastic Constant Matrix: (Units=GPa)
#
#
# Indices 1 2 3 4 5 6 
#
# 1 120.2733 43.0693 -2.4409 0.0000 -3.8068 0.0000
# 2 43.0693 104.6292 0.2461 0.0000 2.9821 0.0000
# 3 -2.4409 0.2461 50.3676 0.0000 3.5053 0.0000
# 4 0.0000 0.0000 0.0000 20.0717 0.0000 -0.5121
# 5 -3.8068 2.9821 3.5053 0.0000 23.1135 0.0000
# 6 0.0000 0.0000 0.0000 -0.5121 0.0000 30.9369
#
#
#
# Elastic Compliance Matrix: (Units=1/GPa)
#
#
# Indices 1 2 3 4 5 6 
#
# 1 0.009864 -0.004121 0.000352 0.000000 0.002103 0.000000
# 2 -0.004121 0.011315 -0.000107 0.000000 -0.002122 0.000000
# 3 0.000352 -0.000107 0.020079 0.000000 -0.002973 0.000000
# 4 0.000000 0.000000 0.000000 0.049842 0.000000 0.000825
# 5 0.002103 -0.002122 -0.002973 0.000000 0.044336 0.000000
# 6 0.000000 0.000000 0.000000 0.000825 0.000000 0.032338
#
#
# Mechanical properties :
#
#
# Convention : Reuss Voigt Hill
#
# Bulk Modulus (GPa) = 29.84729 39.66879 34.75804
# Shear Modulus (GPa) = 26.78179 30.45079 28.61629
#
# Velocity S-wave (km/s) = 3.47574 3.70618 3.59281
# Velocity P-wave (km/s) = 5.43794 6.01733 5.73496
#
# Compressibility (1/GPa) = 0.03350388
#
# Stress axis : x y z
#
# Youngs Moduli (GPa) = 101.38044 88.38067 49.80445
#
# Poissons Ratio (x) = 0.36422 -0.01752
# Poissons Ratio (y) = 0.41780 0.00534
# Poissons Ratio (z) = -0.03567 0.00948
#
# Static dielectric constant tensor:
#      x y z
#    x 1.834960 0.000000 -0.048400 
#    y 0.000000 1.842160 0.000000 
#    z -0.048400 0.000000 1.847970 
# 
# From -- ./inp_files/57067.got.cif
#   From: 2010.05.17/outbox.cif.g08.bks.cpg/sg15_29_cif.got.tgz:57067.got - 2010.06.03 18:47:42.
