data_PCOD9286233
_publ_section_title
;
Structure prediction by ZEFSAII (Michael W. Deem and Ramdas Pophale) SiO2 
 PCOD9286233
Probable space group: C 2/C
;
_chemical_formula_sum "Si O2"
_cell_formula_units_Z 40
_cell_length_a 9.696039
_cell_length_b 14.187358
_cell_length_c 34.558755
_cell_angle_alpha 90.000000
_cell_angle_beta 156.894046
_cell_angle_gamma 90.000000
_cell_volume 1865.602683
_symmetry_space_group_name_H-M "C 2/C"
_symmetry_group_IT_number 15
_symmetry_cell_setting 'monoclinic'
loop_
_space_group_symop_operation_xyz
x,y,z
-x,y,1/2-z
-x,-y,-z
x,-y,1/2+z
1/2+x,1/2+y,z
1/2-x,1/2+y,1/2-z
1/2-x,1/2-y,-z
1/2+x,1/2-y,1/2+z
loop_
_atom_site_type_symbol
_atom_site_label
_atom_site_fract_x
_atom_site_fract_y
_atom_site_fract_z
Si Si1 0.238540 0.016897 0.349130
Si Si2 0.417570 0.521279 0.109119
Si Si3 0.345118 0.321687 0.357772
Si Si4 0.715189 0.639035 0.496885
Si Si5 0.632683 0.344292 0.512014
O O1 0.023059 0.050411 0.331305
O O2 0.569351 0.086061 0.427717
O O3 0.000000 0.014882 0.250000
O O4 0.412102 0.914929 0.402569
O O5 0.606374 0.423937 0.148240
O O6 0.478379 0.594785 0.090418
O O7 0.000000 0.500000 0.000000
O O8 0.341789 0.333589 0.403323
O O9 0.680448 0.256878 0.435126
O O10 0.000000 0.276735 0.250000
O O11 0.750000 0.750000 0.500000
O O12 0.513095 0.621369 0.484904
#
# Coordination Sequence:
#
# PCOD9286233 Si02
#       5
#     8   8   8   8   8
#     4  11  24  42  69  98 131 171 219 265 328 393
#     4  10  21  43  64  94 130 172 206 273 325 376
#     4  11  24  40  69  96 131 173 221 263 329 390
#     4  11  24  43  67  92 134 176 217 268 328 374
#     4  11  23  43  66  95 134 172 215 273 322 388
#
# _framework density 21.440792999999999
#
# number of rings (size 3 to 8) (size 9 to 14) (size 15 to 20)
#    0.000    1.200    4.000    3.600    5.600    0.000 
#    0.000    1.000    0.000    0.000    0.000    0.000 
#    0.000    0.000    0.000    0.000    0.000    0.000 
#
# Total GULP energy -111816.682728 kJ/mol
# GULP energy per Si atom -5590.834136 kJ/mol
# Density = 2.139199 g / cm^3
# Si number density = 21.440793 Si / 1000 Ang^3
#
#
#
# Elastic Constant Matrix: (Units=GPa)
#
#
# Indices 1 2 3 4 5 6 
#
# 1 166.5338 27.8580 43.0050 -0.0004 -48.4701 0.0002
# 2 27.8580 89.4877 13.3485 0.0024 -10.4807 0.0005
# 3 43.0050 13.3485 111.4870 0.0046 -40.1588 0.0006
# 4 -0.0004 0.0024 0.0046 16.0331 -0.0008 -6.0628
# 5 -48.4701 -10.4807 -40.1588 -0.0008 40.6007 -0.0005
# 6 0.0002 0.0005 0.0006 -6.0628 -0.0005 27.3739
#
#
#
# Elastic Compliance Matrix: (Units=1/GPa)
#
#
# Indices 1 2 3 4 5 6 
#
# 1 0.009475 -0.001700 0.000723 0.000001 0.011587 0.000000
# 2 -0.001700 0.011845 -0.000609 -0.000002 0.000425 -0.000001
# 3 0.000723 -0.000609 0.014009 -0.000003 0.014562 -0.000001
# 4 0.000001 -0.000002 -0.000003 0.068072 -0.000001 0.015077
# 5 0.011587 0.000425 0.014562 -0.000001 0.052977 0.000000
# 6 0.000000 -0.000001 -0.000001 0.015077 0.000000 0.039870
#
#
# Mechanical properties :
#
#
# Convention : Reuss Voigt Hill
#
# Bulk Modulus (GPa) = 31.09897 59.54794 45.32345
# Shear Modulus (GPa) = 23.79358 35.68802 29.74080
#
# Velocity S-wave (km/s) = 3.33488 4.08424 3.72844
# Velocity P-wave (km/s) = 5.41892 7.07636 6.30236
#
# Compressibility (1/GPa) = 0.03215540
#
# Stress axis : x y z
#
# Youngs Moduli (GPa) = 105.53861 84.42589 71.38104
#
# Poissons Ratio (x) = 0.14355 -0.05158
# Poissons Ratio (y) = 0.17945 0.04348
# Poissons Ratio (z) = -0.07626 0.05143
#
# Static dielectric constant tensor:
#      x y z
#    x 1.851500 0.000000 -0.014130 
#    y 0.000000 1.788500 0.000000 
#    z -0.014130 0.000000 1.793640 
# 
# From -- ./inp_files/133154.got.cif
#   From: 2010.05.17/outbox.cif.g08.bks.cpg/sg15_67_cif.got.tgz:133154.got - 2010.06.03 18:47:42.
