data_PCOD9286458
_publ_section_title
;
Structure prediction by ZEFSAII (Michael W. Deem and Ramdas Pophale) SiO2 
 PCOD9286458
Probable space group: C 2/C
;
_chemical_formula_sum "Si O2"
_cell_formula_units_Z 64
_cell_length_a 13.904140
_cell_length_b 18.691968
_cell_length_c 23.211721
_cell_angle_alpha 90.000000
_cell_angle_beta 32.137798
_cell_angle_gamma 90.000000
_cell_volume 3209.100245
_symmetry_space_group_name_H-M "C 2/C"
_symmetry_group_IT_number 15
_symmetry_cell_setting 'monoclinic'
loop_
_space_group_symop_operation_xyz
x,y,z
-x,y,1/2-z
-x,-y,-z
x,-y,1/2+z
1/2+x,1/2+y,z
1/2-x,1/2+y,1/2-z
1/2-x,1/2-y,-z
1/2+x,1/2-y,1/2+z
loop_
_atom_site_type_symbol
_atom_site_label
_atom_site_fract_x
_atom_site_fract_y
_atom_site_fract_z
Si Si1 0.731728 0.976626 0.774152
Si Si2 0.209527 0.059847 0.126827
Si Si3 0.996217 0.947625 0.447075
Si Si4 0.677140 0.312723 0.792689
Si Si5 0.159426 0.457171 0.540236
Si Si6 0.447804 0.295342 0.024187
Si Si7 0.920525 0.707639 0.440058
Si Si8 0.333625 0.718931 0.398187
O O1 0.701498 0.969178 0.858747
O O2 0.801185 0.897755 0.723384
O O3 0.535762 0.989516 0.846273
O O4 0.873285 0.029617 0.672224
O O5 0.238321 0.140778 0.087475
O O6 0.000000 0.057766 0.250000
O O7 0.254309 0.005553 0.053160
O O8 0.794519 0.951773 0.524682
O O9 0.043779 0.868877 0.445176
O O10 0.000000 0.000000 0.500000
O O11 0.545235 0.289578 0.806905
O O12 0.880837 0.281733 0.690083
O O13 0.569297 0.299298 0.905596
O O14 0.123628 0.376067 0.538347
O O15 0.538579 0.234895 0.017098
O O16 0.245764 0.274444 0.107634
O O17 0.750000 0.750000 0.500000
O O18 0.250000 0.750000 0.500000
#
# Coordination Sequence:
#
# PCOD9286458 Si02
#       8
#     8   8   8   8   8   8   8   8
#     4  11  23  43  72  99 136 182 231 277 348 410
#     4  12  22  43  74  98 139 184 223 291 349 401
#     4  12  24  45  70 100 140 176 236 283 339 416
#     4  10  21  43  69  93 130 183 220 273 353 412
#     4  11  25  45  71 100 134 180 236 277 343 419
#     4  11  24  43  68 100 137 177 221 291 341 409
#     4  11  24  45  63  96 135 179 228 277 334 410
#     4  10  22  41  69 100 133 173 225 280 353 412
#
# _framework density 19.943284999999999
#
# number of rings (size 3 to 8) (size 9 to 14) (size 15 to 20)
#    0.000    1.000    5.000    1.875    1.750    1.000 
#    9.000    1.250    0.000    0.000    0.000    0.000 
#    0.000    0.000    0.000    0.000    0.000    0.000 
#
# Total GULP energy -178507.844607 kJ/mol
# GULP energy per Si atom -5578.370144 kJ/mol
# Density = 1.989789 g / cm^3
# Si number density = 19.943285 Si / 1000 Ang^3
#
#
#
# Elastic Constant Matrix: (Units=GPa)
#
#
# Indices 1 2 3 4 5 6 
#
# 1 141.8027 49.2265 52.9921 -0.0055 -15.7765 -0.0004
# 2 49.2265 58.4007 41.5192 -0.0016 -6.2859 0.0022
# 3 52.9921 41.5192 94.0020 0.0048 -8.7197 0.0038
# 4 -0.0055 -0.0016 0.0048 32.6640 -0.0009 5.7396
# 5 -15.7765 -6.2859 -8.7197 -0.0009 41.5444 -0.0006
# 6 -0.0004 0.0022 0.0038 5.7396 -0.0006 39.6288
#
#
#
# Elastic Compliance Matrix: (Units=1/GPa)
#
#
# Indices 1 2 3 4 5 6 
#
# 1 0.010734 -0.006769 -0.002834 0.000002 0.002457 0.000001
# 2 -0.006769 0.029321 -0.009139 0.000002 -0.000052 -0.000001
# 3 -0.002834 -0.009139 0.016363 -0.000003 0.000975 -0.000001
# 4 0.000002 0.000002 -0.000003 0.031414 0.000001 -0.004550
# 5 0.002457 -0.000052 0.000975 0.000001 0.025201 0.000000
# 6 0.000001 -0.000001 -0.000001 -0.004550 0.000000 0.025893
#
#
# Mechanical properties :
#
#
# Convention : Reuss Voigt Hill
#
# Bulk Modulus (GPa) = 52.81613 64.63123 58.72368
# Shear Modulus (GPa) = 27.36420 32.79863 30.08142
#
# Velocity S-wave (km/s) = 3.70821 4.05976 3.88796
# Velocity P-wave (km/s) = 6.69888 7.37926 7.04729
#
# Compressibility (1/GPa) = 0.01893361
#
# Stress axis : x y z
#
# Youngs Moduli (GPa) = 93.16028 34.10568 61.11483
#
# Poissons Ratio (x) = 0.23086 0.17317
# Poissons Ratio (y) = 0.63060 0.55855
# Poissons Ratio (z) = 0.26397 0.31171
#
# Static dielectric constant tensor:
#      x y z
#    x 1.838610 -0.000090 0.025170 
#    y -0.000090 1.581320 -0.000040 
#    z 0.025170 -0.000040 1.752340 
# 
# From -- ./inp_files/274809.got.cif
#   From: 2010.05.17/outbox.cif.g08.bks.cpg/sg15_138_cif.got.tgz:274809.got - 2010.06.03 18:47:42.
