data_PCOD9286739
_publ_section_title
;
Structure prediction by ZEFSAII (Michael W. Deem and Ramdas Pophale) SiO2 
 PCOD9286739
Probable space group: C 2/C
;
_chemical_formula_sum "Si O2"
_cell_formula_units_Z 52
_cell_length_a 28.502862
_cell_length_b 9.307333
_cell_length_c 10.510180
_cell_angle_alpha 90.000000
_cell_angle_beta 51.724799
_cell_angle_gamma 90.000000
_cell_volume 2188.860987
_symmetry_space_group_name_H-M "C 2/C"
_symmetry_group_IT_number 15
_symmetry_cell_setting 'monoclinic'
loop_
_space_group_symop_operation_xyz
x,y,z
-x,y,1/2-z
-x,-y,-z
x,-y,1/2+z
1/2+x,1/2+y,z
1/2-x,1/2+y,1/2-z
1/2-x,1/2-y,-z
1/2+x,1/2-y,1/2+z
loop_
_atom_site_type_symbol
_atom_site_label
_atom_site_fract_x
_atom_site_fract_y
_atom_site_fract_z
Si Si1 0.046178 0.913339 0.337225
Si Si2 0.500000 0.825118 0.750000
Si Si3 0.596104 0.311828 0.672134
Si Si4 0.296602 0.293210 0.812004
Si Si5 0.631025 0.210237 0.333514
Si Si6 0.094097 0.510060 0.699163
Si Si7 0.289790 0.994037 0.669741
O O1 0.007443 0.781662 0.353385
O O2 0.107537 0.841781 0.286839
O O3 0.065604 0.035637 0.206354
O O4 0.000000 0.000000 0.500000
O O5 0.557915 0.921853 0.655519
O O6 0.643253 0.321578 0.709256
O O7 0.618735 0.268085 0.494984
O O8 0.562769 0.164232 0.765524
O O9 0.296113 0.153076 0.719497
O O10 0.272765 0.436818 0.781540
O O11 0.250000 0.250000 0.000000
O O12 0.595464 0.077214 0.328040
O O13 0.693820 0.127830 0.251269
O O14 0.161199 0.517451 0.527517
#
# Coordination Sequence:
#
# PCOD9286739 Si02
#       7
#     8   4   8   8   8   8   8
#     4  11  25  41  65 100 137 180 225 283 343 398
#     4  10  24  42  66  96 136 174 230 272 344 406
#     4  11  24  41  71 100 139 176 230 279 343 407
#     4  12  24  46  71 102 139 180 229 287 346 411
#     4  10  21  44  67  93 139 173 223 281 336 410
#     4  10  22  45  71  99 134 184 229 284 340 413
#     4  11  24  44  71 102 136 178 234 279 349 413
#
# _framework density 23.756647000000001
#
# number of rings (size 3 to 8) (size 9 to 14) (size 15 to 20)
#    0.000    1.231    4.615    0.923    4.308    3.077 
#    5.538    9.231    0.000    0.000    0.000    0.000 
#    0.000    0.000    0.000    0.000    0.000    0.000 
#
# Total GULP energy -144776.129402 kJ/mol
# GULP energy per Si atom -5568.312669 kJ/mol
# Density = 2.370258 g / cm^3
# Si number density = 23.756647 Si / 1000 Ang^3
#
#
#
# Elastic Constant Matrix: (Units=GPa)
#
#
# Indices 1 2 3 4 5 6 
#
# 1 119.9202 59.6725 10.0648 0.0000 18.6017 0.0000
# 2 59.6725 123.8961 17.0171 0.0000 6.9413 0.0000
# 3 10.0648 17.0171 36.2382 0.0000 9.7989 0.0000
# 4 0.0000 0.0000 0.0000 28.2513 0.0000 7.2902
# 5 18.6017 6.9413 9.7989 0.0000 21.1060 0.0000
# 6 0.0000 0.0000 0.0000 7.2902 0.0000 113.9435
#
#
#
# Elastic Compliance Matrix: (Units=1/GPa)
#
#
# Indices 1 2 3 4 5 6 
#
# 1 0.012622 -0.005779 0.001947 0.000000 -0.010128 0.000000
# 2 -0.005779 0.011296 -0.004657 0.000000 0.003541 0.000000
# 3 0.001947 -0.004657 0.033496 0.000000 -0.015736 0.000000
# 4 0.000000 0.000000 0.000000 0.035991 0.000000 -0.002303
# 5 -0.010128 0.003541 -0.015736 0.000000 0.062447 0.000000
# 6 0.000000 0.000000 0.000000 -0.002303 0.000000 0.008924
#
#
# Mechanical properties :
#
#
# Convention : Reuss Voigt Hill
#
# Bulk Modulus (GPa) = 24.73050 50.39594 37.56322
# Shear Modulus (GPa) = 25.61041 45.54682 35.57862
#
# Velocity S-wave (km/s) = 3.28690 4.38336 3.87412
# Velocity P-wave (km/s) = 4.98372 6.84675 5.98813
#
# Compressibility (1/GPa) = 0.04043590
#
# Stress axis : x y z
#
# Youngs Moduli (GPa) = 79.22510 88.52678 29.85417
#
# Poissons Ratio (x) = 0.51162 -0.05812
# Poissons Ratio (y) = 0.45786 0.13902
# Poissons Ratio (z) = -0.15423 0.41225
#
# Static dielectric constant tensor:
#      x y z
#    x 2.001300 0.000000 0.008060 
#    y 0.000000 1.985680 0.000000 
#    z 0.008060 0.000000 1.930870 
# 
# From -- ./inp_files/125503.got.cif
#   From: 2010.05.17/outbox.cif.g08.bks.cpg/sg15_63_cif.got.tgz:125503.got - 2010.06.03 18:47:42.
