data_PCOD9286389
_publ_section_title
;
Structure prediction by ZEFSAII (Michael W. Deem and Ramdas Pophale) SiO2 
 PCOD9286389
Probable space group: C 2/C
;
_chemical_formula_sum "Si O2"
_cell_formula_units_Z 44
_cell_length_a 12.324224
_cell_length_b 9.349991
_cell_length_c 24.166576
_cell_angle_alpha 90.000000
_cell_angle_beta 143.095417
_cell_angle_gamma 90.000000
_cell_volume 1672.197136
_symmetry_space_group_name_H-M "C 2/C"
_symmetry_group_IT_number 15
_symmetry_cell_setting 'monoclinic'
loop_
_space_group_symop_operation_xyz
x,y,z
-x,y,1/2-z
-x,-y,-z
x,-y,1/2+z
1/2+x,1/2+y,z
1/2-x,1/2+y,1/2-z
1/2-x,1/2-y,-z
1/2+x,1/2-y,1/2+z
loop_
_atom_site_type_symbol
_atom_site_label
_atom_site_fract_x
_atom_site_fract_y
_atom_site_fract_z
Si Si1 0.885139 0.134477 0.145934
Si Si2 0.872511 0.976564 0.341102
Si Si3 0.920373 0.294749 0.534054
Si Si4 0.696488 0.798033 0.851129
Si Si5 0.478636 0.938502 0.172857
Si Si6 0.000000 0.500000 0.500000
O O1 0.886595 0.292121 0.119953
O O2 0.000000 0.130722 0.250000
O O3 0.681380 0.097475 0.074221
O O4 0.980233 0.025421 0.142608
O O5 0.683859 0.935786 0.236120
O O6 0.942973 0.836635 0.402496
O O7 0.810663 0.110710 0.353705
O O8 0.750000 0.250000 0.500000
O O9 0.839340 0.311298 0.436967
O O10 0.977493 0.457767 0.560552
O O11 0.500000 0.740975 0.750000
O O12 0.633230 0.914420 0.871590
O O13 0.500000 0.928032 0.250000
#
# Coordination Sequence:
#
# PCOD9286389 Si02
#       6
#     8   8   8   8   8   4
#     4  11  23  44  68 101 144 184 237 292 363 446
#     4  10  21  43  67  98 133 185 232 295 355 424
#     4  12  24  44  65  95 143 177 228 299 356 429
#     4   9  21  42  69  96 128 178 233 290 356 424
#     4   8  18  40  68  92 128 179 226 284 353 422
#     4  12  26  44  68 102 136 190 238 296 372 424
#
# _framework density 26.312688000000001
#
# number of rings (size 3 to 8) (size 9 to 14) (size 15 to 20)
#    0.000    2.182    1.818    3.818    0.000    6.545 
#    6.545    1.818    0.000    0.000    0.000    0.000 
#    0.000    0.000    0.000    0.000    0.000    0.000 
#
# Total GULP energy -122560.758563 kJ/mol
# GULP energy per Si atom -5570.943571 kJ/mol
# Density = 2.625280 g / cm^3
# Si number density = 26.312688 Si / 1000 Ang^3
#
#
#
# Elastic Constant Matrix: (Units=GPa)
#
#
# Indices 1 2 3 4 5 6 
#
# 1 63.1033 -27.6870 15.9584 0.0000 28.7216 0.0000
# 2 -27.6870 82.7716 43.9138 0.0000 -1.6456 0.0000
# 3 15.9584 43.9138 147.0434 0.0000 21.4726 0.0000
# 4 0.0000 0.0000 0.0000 17.7933 0.0000 -3.8346
# 5 28.7216 -1.6456 21.4726 0.0000 44.1333 0.0000
# 6 0.0000 0.0000 0.0000 -3.8346 0.0000 31.3000
#
#
#
# Elastic Compliance Matrix: (Units=1/GPa)
#
#
# Indices 1 2 3 4 5 6 
#
# 1 0.029885 0.011970 -0.004352 0.000000 -0.016885 0.000000
# 2 0.011970 0.019484 -0.006552 0.000000 -0.003876 0.000000
# 3 -0.004352 -0.006552 0.009529 0.000000 -0.002048 0.000000
# 4 0.000000 0.000000 0.000000 0.057725 0.000000 0.007072
# 5 -0.016885 -0.003876 -0.002048 0.000000 0.034499 0.000000
# 6 0.000000 0.000000 0.000000 0.007072 0.000000 0.032815
#
#
# Mechanical properties :
#
#
# Convention : Reuss Voigt Hill
#
# Bulk Modulus (GPa) = 16.38567 39.69872 28.04220
# Shear Modulus (GPa) = 24.73415 36.02752 30.38083
#
# Velocity S-wave (km/s) = 3.06928 3.70429 3.40164
# Velocity P-wave (km/s) = 4.33607 5.78064 5.10966
#
# Compressibility (1/GPa) = 0.06102893
#
# Stress axis : x y z
#
# Youngs Moduli (GPa) = 33.46184 51.32293 104.94407
#
# Poissons Ratio (x) = -0.61433 0.45676
# Poissons Ratio (y) = -0.40053 0.68760
# Poissons Ratio (z) = 0.14564 0.33627
#
# Static dielectric constant tensor:
#      x y z
#    x 1.942300 0.000000 -0.332300 
#    y 0.000000 1.206330 0.000000 
#    z -0.332300 0.000000 2.107770 
# 
# From -- ./inp_files/269374.got.cif
#   From: 2010.05.17/outbox.cif.g08.bks.cpg/sg15_135_cif.got.tgz:269374.got - 2010.06.03 18:47:42.
