data_PCOD9286395
_publ_section_title
;
Structure prediction by ZEFSAII (Michael W. Deem and Ramdas Pophale) SiO2 
 PCOD9286395
Probable space group: C 2/C
;
_chemical_formula_sum "Si O2"
_cell_formula_units_Z 32
_cell_length_a 7.945830
_cell_length_b 14.428901
_cell_length_c 20.274550
_cell_angle_alpha 90.000000
_cell_angle_beta 149.188191
_cell_angle_gamma 90.000000
_cell_volume 1190.639224
_symmetry_space_group_name_H-M "C 2/C"
_symmetry_group_IT_number 15
_symmetry_cell_setting 'monoclinic'
loop_
_space_group_symop_operation_xyz
x,y,z
-x,y,1/2-z
-x,-y,-z
x,-y,1/2+z
1/2+x,1/2+y,z
1/2-x,1/2+y,1/2-z
1/2-x,1/2-y,-z
1/2+x,1/2-y,1/2+z
loop_
_atom_site_type_symbol
_atom_site_label
_atom_site_fract_x
_atom_site_fract_y
_atom_site_fract_z
Si Si1 0.809565 0.673388 0.305199
Si Si2 0.284547 0.357686 0.526268
Si Si3 0.106520 0.142784 0.857583
Si Si4 0.480201 0.009142 0.822157
O O1 0.500000 0.679579 0.250000
O O2 0.042221 0.583695 0.386639
O O3 0.990357 0.771966 0.363934
O O4 0.635549 0.640400 0.178336
O O5 0.250000 0.250000 0.500000
O O6 0.989695 0.378983 0.478577
O O7 0.221276 0.416317 0.439180
O O8 0.000000 0.180586 0.750000
O O9 0.884736 0.052000 0.789501
O O10 0.500000 0.008631 0.750000
#
# Coordination Sequence:
#
# PCOD9286395 Si02
#       4
#     8   8   8   8
#     4  12  25  44  71 102 140 180 229 285 340 404
#     4  11  24  45  73  97 139 185 224 279 352 398
#     4  10  21  43  67  98 139 175 223 283 330 408
#     4  11  25  44  69 102 142 176 233 281 335 410
#
# _framework density 26.87632
#
# number of rings (size 3 to 8) (size 9 to 14) (size 15 to 20)
#    0.000    1.000    5.000    3.750    0.000    6.000 
#    0.000    0.000    0.000    0.000    0.000    0.000 
#    0.000    0.000    0.000    0.000    0.000    0.000 
#
# Total GULP energy -89516.979535 kJ/mol
# GULP energy per Si atom -5594.811221 kJ/mol
# Density = 2.681515 g / cm^3
# Si number density = 26.876320 Si / 1000 Ang^3
#
#
#
# Elastic Constant Matrix: (Units=GPa)
#
#
# Indices 1 2 3 4 5 6 
#
# 1 147.4074 35.4755 2.6347 -0.0015 1.0285 -0.0003
# 2 35.4755 157.9449 -33.4195 -0.0030 4.3801 -0.0007
# 3 2.6347 -33.4195 68.4964 -0.0031 -0.1366 -0.0020
# 4 -0.0015 -0.0030 -0.0031 28.6647 -0.0013 13.7954
# 5 1.0285 4.3801 -0.1366 -0.0013 41.9853 -0.0003
# 6 -0.0003 -0.0007 -0.0020 13.7954 -0.0003 47.7583
#
#
#
# Elastic Compliance Matrix: (Units=1/GPa)
#
#
# Indices 1 2 3 4 5 6 
#
# 1 0.007259 -0.001884 -0.001199 0.000000 0.000015 0.000000
# 2 -0.001884 0.007572 0.003765 0.000001 -0.000731 0.000000
# 3 -0.001199 0.003765 0.016482 0.000002 -0.000310 0.000000
# 4 0.000000 0.000001 0.000002 0.040519 0.000001 -0.011704
# 5 0.000015 -0.000731 -0.000310 0.000001 0.023893 0.000000
# 6 0.000000 0.000000 0.000000 -0.011704 0.000000 0.024320
#
#
# Mechanical properties :
#
#
# Convention : Reuss Voigt Hill
#
# Bulk Modulus (GPa) = 30.60296 42.58112 36.59204
# Shear Modulus (GPa) = 38.58884 48.29220 43.44052
#
# Velocity S-wave (km/s) = 3.79330 4.24350 4.02470
# Velocity P-wave (km/s) = 5.53144 6.31566 5.93651
#
# Compressibility (1/GPa) = 0.03267658
#
# Stress axis : x y z
#
# Youngs Moduli (GPa) = 137.76494 132.07371 60.67286
#
# Poissons Ratio (x) = 0.24888 0.07272
# Poissons Ratio (y) = 0.25960 -0.22844
# Poissons Ratio (z) = 0.16512 -0.49728
#
# Static dielectric constant tensor:
#      x y z
#    x 2.148280 0.000000 0.000350 
#    y 0.000000 2.376490 0.000000 
#    z 0.000350 0.000000 2.322500 
# 
# From -- ./inp_files/75289.got.cif
#   From: 2010.05.17/outbox.cif.g08.bks.cpg/sg15_38_cif.got.tgz:75289.got - 2010.06.03 18:47:42.
