data_PCOD9286570
_publ_section_title
;
Structure prediction by ZEFSAII (Michael W. Deem and Ramdas Pophale) SiO2 
 PCOD9286570
Probable space group: C 2/C
;
_chemical_formula_sum "Si O2"
_cell_formula_units_Z 60
_cell_length_a 25.966603
_cell_length_b 5.098857
_cell_length_c 19.800110
_cell_angle_alpha 90.000000
_cell_angle_beta 115.593944
_cell_angle_gamma 90.000000
_cell_volume 2364.304771
_symmetry_space_group_name_H-M "C 2/C"
_symmetry_group_IT_number 15
_symmetry_cell_setting 'monoclinic'
loop_
_space_group_symop_operation_xyz
x,y,z
-x,y,1/2-z
-x,-y,-z
x,-y,1/2+z
1/2+x,1/2+y,z
1/2-x,1/2+y,1/2-z
1/2-x,1/2-y,-z
1/2+x,1/2-y,1/2+z
loop_
_atom_site_type_symbol
_atom_site_label
_atom_site_fract_x
_atom_site_fract_y
_atom_site_fract_z
Si Si1 0.587583 0.375117 0.864370
Si Si2 0.696338 0.937436 0.470987
Si Si3 0.500000 0.021585 0.250000
Si Si4 0.790258 0.493882 0.669466
Si Si5 0.588052 0.930545 0.600319
Si Si6 0.715162 0.970540 0.130911
Si Si7 0.597832 0.723630 0.738111
Si Si8 0.983869 0.812938 0.552464
O O1 0.641912 0.245801 0.929723
O O2 0.547357 0.151424 0.811607
O O3 0.607974 0.536544 0.809234
O O4 0.547636 0.467645 0.904398
O O5 0.750000 0.750000 0.500000
O O6 0.702566 0.092172 0.405035
O O7 0.697748 0.080872 0.542727
O O8 0.466381 0.198069 0.282208
O O9 0.752232 0.267230 0.681082
O O10 0.855334 0.458564 0.730835
O O11 0.755646 0.767581 0.655697
O O12 0.653626 0.017365 0.630557
O O13 0.594237 0.680666 0.655411
O O14 0.539883 0.135123 0.601212
O O15 0.563765 0.867474 0.512024
O O16 0.000000 0.000000 0.500000
#
# Coordination Sequence:
#
# PCOD9286570 Si02
#       8
#     8   8   4   8   8   8   8   8
#     4  12  25  48  75 110 155 202 264 325 400 475
#     4  10  21  43  72 110 149 194 259 319 389 464
#     4  12  26  46  68 110 148 194 262 308 396 460
#     4  11  25  46  73 114 154 203 263 325 397 473
#     4  11  27  49  72 111 152 202 264 324 405 476
#     4  11  25  47  76 112 154 208 257 330 398 479
#     4  12  27  45  76 108 152 202 260 329 392 477
#     4  11  27  47  76 110 152 200 259 326 398 477
#
# _framework density 25.377438000000001
#
# number of rings (size 3 to 8) (size 9 to 14) (size 15 to 20)
#    0.000    0.800    4.000    2.400    5.600    3.200 
#    0.000    0.000    0.000    0.000    0.000    0.000 
#    0.000    0.000    0.000    0.000    0.000    0.000 
#
# Total GULP energy -167394.066111 kJ/mol
# GULP energy per Si atom -5579.802204 kJ/mol
# Density = 2.531968 g / cm^3
# Si number density = 25.377438 Si / 1000 Ang^3
#
#
#
# Elastic Constant Matrix: (Units=GPa)
#
#
# Indices 1 2 3 4 5 6 
#
# 1 161.3563 28.6168 56.8770 -0.0004 22.9108 0.0003
# 2 28.6168 69.2232 19.3003 -0.0029 21.4595 0.0016
# 3 56.8770 19.3003 109.7313 0.0001 0.2611 0.0002
# 4 -0.0004 -0.0029 0.0001 42.2316 -0.0002 8.7755
# 5 22.9108 21.4595 0.2611 -0.0002 59.0960 0.0001
# 6 0.0003 0.0016 0.0002 8.7755 0.0001 22.8706
#
#
#
# Elastic Compliance Matrix: (Units=1/GPa)
#
#
# Indices 1 2 3 4 5 6 
#
# 1 0.008247 -0.001471 -0.004010 0.000000 -0.002645 0.000000
# 2 -0.001471 0.017483 -0.002299 0.000002 -0.005768 -0.000002
# 3 -0.004010 -0.002299 0.011590 0.000000 0.002338 0.000000
# 4 0.000000 0.000002 0.000000 0.025730 0.000000 -0.009873
# 5 -0.002645 -0.005768 0.002338 0.000000 0.020031 0.000001
# 6 0.000000 -0.000002 0.000000 -0.009873 0.000001 0.047512
#
#
# Mechanical properties :
#
#
# Convention : Reuss Voigt Hill
#
# Bulk Modulus (GPa) = 45.95313 61.09987 53.52650
# Shear Modulus (GPa) = 32.59260 40.54077 36.56669
#
# Velocity S-wave (km/s) = 3.58762 4.00123 3.80005
# Velocity P-wave (km/s) = 5.94210 6.74352 6.35546
#
# Compressibility (1/GPa) = 0.02176130
#
# Stress axis : x y z
#
# Youngs Moduli (GPa) = 121.24920 57.19732 86.27890
#
# Poissons Ratio (x) = 0.08416 0.34596
# Poissons Ratio (y) = 0.17841 0.19833
# Poissons Ratio (z) = 0.48619 0.13148
#
# Static dielectric constant tensor:
#      x y z
#    x 2.008510 0.000000 -0.072910 
#    y 0.000000 2.079250 0.000000 
#    z -0.072910 0.000000 2.088100 
# 
# From -- ./inp_files/283010.got.cif
#   From: 2010.05.17/outbox.cif.g08.bks.cpg/sg15_142_cif.got.tgz:283010.got - 2010.06.03 18:47:42.
