data_PCOD9286653
_publ_section_title
;
Structure prediction by ZEFSAII (Michael W. Deem and Ramdas Pophale) SiO2 
 PCOD9286653
Probable space group: C 2/C
;
_chemical_formula_sum "Si O2"
_cell_formula_units_Z 44
_cell_length_a 9.305406
_cell_length_b 27.233964
_cell_length_c 7.775759
_cell_angle_alpha 90.000000
_cell_angle_beta 100.343242
_cell_angle_gamma 90.000000
_cell_volume 1938.534971
_symmetry_space_group_name_H-M "C 2/C"
_symmetry_group_IT_number 15
_symmetry_cell_setting 'monoclinic'
loop_
_space_group_symop_operation_xyz
x,y,z
-x,y,1/2-z
-x,-y,-z
x,-y,1/2+z
1/2+x,1/2+y,z
1/2-x,1/2+y,1/2-z
1/2-x,1/2-y,-z
1/2+x,1/2-y,1/2+z
loop_
_atom_site_type_symbol
_atom_site_label
_atom_site_fract_x
_atom_site_fract_y
_atom_site_fract_z
Si Si1 0.786748 0.664026 0.802136
Si Si2 0.161117 0.403743 0.717365
Si Si3 0.614262 0.469837 0.638712
Si Si4 0.500000 0.280232 0.250000
Si Si5 0.414858 0.807432 0.970442
Si Si6 0.169983 0.442416 0.332299
O O1 0.636598 0.686653 0.835589
O O2 0.776986 0.607626 0.744672
O O3 0.834418 0.692415 0.636348
O O4 0.924560 0.669941 0.957013
O O5 0.280255 0.424031 0.877079
O O6 0.182577 0.432132 0.539674
O O7 0.000000 0.415059 0.750000
O O8 0.166802 0.346283 0.670240
O O9 0.500000 0.448566 0.750000
O O10 0.500000 0.500000 0.500000
O O11 0.731190 0.512545 0.707374
O O12 0.557049 0.244133 0.112759
O O13 0.000000 0.450044 0.250000
#
# Coordination Sequence:
#
# PCOD9286653 Si02
#       6
#     8   8   8   4   8   8
#     4  10  22  41  65  93 132 171 218 270 329 387
#     4  11  23  44  68  93 128 178 224 262 320 403
#     4  12  27  43  65 101 136 163 218 280 335 380
#     4  12  22  38  68 102 126 168 218 284 334 368
#     4  10  21  44  64  92 131 172 222 264 318 407
#     4  11  23  45  68  90 131 182 220 259 325 406
#
# _framework density 22.697552000000002
#
# number of rings (size 3 to 8) (size 9 to 14) (size 15 to 20)
#    0.000    1.091    6.364    1.636    3.818    1.455 
#    0.000    0.000    4.000    0.000    0.000    0.000 
#    0.000    0.000    0.000    0.000    0.000    0.000 
#
# Total GULP energy -122916.437195 kJ/mol
# GULP energy per Si atom -5587.110782 kJ/mol
# Density = 2.264589 g / cm^3
# Si number density = 22.697552 Si / 1000 Ang^3
#
#
#
# Elastic Constant Matrix: (Units=GPa)
#
#
# Indices 1 2 3 4 5 6 
#
# 1 125.9370 64.2722 13.3323 0.0000 9.0895 0.0000
# 2 64.2722 108.5708 17.6469 0.0000 14.9938 0.0000
# 3 13.3323 17.6469 59.5634 0.0000 5.0554 0.0000
# 4 0.0000 0.0000 0.0000 23.1329 0.0000 -11.5192
# 5 9.0895 14.9938 5.0554 0.0000 29.3307 0.0000
# 6 0.0000 0.0000 0.0000 -11.5192 0.0000 -324.6650
#
#
#
# Elastic Compliance Matrix: (Units=1/GPa)
#
#
# Indices 1 2 3 4 5 6 
#
# 1 0.011397 -0.006648 -0.000579 0.000000 -0.000034 0.000000
# 2 -0.006648 0.014183 -0.002307 0.000000 -0.004792 0.000000
# 3 -0.000579 -0.002307 0.017746 0.000000 -0.001700 0.000000
# 4 0.000000 0.000000 0.000000 0.042478 0.000000 -0.001507
# 5 -0.000034 -0.004792 -0.001700 0.000000 0.036847 0.000000
# 6 0.000000 0.000000 0.000000 -0.001507 0.000000 -0.003027
#
#
# Mechanical properties :
#
#
# Convention : Reuss Voigt Hill
#
# Bulk Modulus (GPa) = 41.22275 53.84158 47.53217
# Shear Modulus (GPa) = 34.06483 -41.18563 -3.56040
#
# Velocity S-wave (km/s) = 3.87824 -4.26436 -1.25381
# Velocity P-wave (km/s) = 6.18510 0.68817 4.34637
#
# Compressibility (1/GPa) = 0.02425845
#
# Stress axis : x y z
#
# Youngs Moduli (GPa) = 87.74170 70.50661 56.35024
#
# Poissons Ratio (x) = 0.46874 0.03260
# Poissons Ratio (y) = 0.58333 0.13001
# Poissons Ratio (z) = 0.05076 0.16267
#
# Static dielectric constant tensor:
#      x y z
#    x 1.811500 0.000000 0.007740 
#    y 0.000000 2.056290 0.000000 
#    z 0.007740 0.000000 1.958420 
# 
# From -- ./inp_files/25441.got.cif
#   From: 2010.05.17/outbox.cif.g08.bks.cpg/sg15_13_cif.got.tgz:25441.got - 2010.06.03 18:47:42.
