data_PCOD9286775
_publ_section_title
;
Structure prediction by ZEFSAII (Michael W. Deem and Ramdas Pophale) SiO2 
 PCOD9286775
Probable space group: C 2/C
;
_chemical_formula_sum "Si O2"
_cell_formula_units_Z 40
_cell_length_a 27.094497
_cell_length_b 7.024823
_cell_length_c 18.666020
_cell_angle_alpha 90.000000
_cell_angle_beta 23.670885
_cell_angle_gamma 90.000000
_cell_volume 1426.378382
_symmetry_space_group_name_H-M "C 2/C"
_symmetry_group_IT_number 15
_symmetry_cell_setting 'monoclinic'
loop_
_space_group_symop_operation_xyz
x,y,z
-x,y,1/2-z
-x,-y,-z
x,-y,1/2+z
1/2+x,1/2+y,z
1/2-x,1/2+y,1/2-z
1/2-x,1/2-y,-z
1/2+x,1/2-y,1/2+z
loop_
_atom_site_type_symbol
_atom_site_label
_atom_site_fract_x
_atom_site_fract_y
_atom_site_fract_z
Si Si1 0.026993 0.711162 0.133439
Si Si2 0.585958 0.728529 0.961327
Si Si3 0.170353 0.560431 0.614305
Si Si4 0.245968 0.973066 0.839050
Si Si5 0.636549 0.481547 0.248705
O O1 0.973948 0.495766 0.199051
O O2 0.941124 0.832996 0.194792
O O3 0.000000 0.779080 0.250000
O O4 0.159571 0.791555 0.937897
O O5 0.631853 0.930047 0.869457
O O6 0.666004 0.656396 0.922336
O O7 0.625026 0.578160 0.846092
O O8 0.440140 0.680717 0.160002
O O9 0.250000 0.750000 0.500000
O O10 0.220232 0.479618 0.623003
O O11 0.228196 0.466747 0.464646
#
# Coordination Sequence:
#
# PCOD9286775 Si02
#       5
#     8   8   8   8   8
#     4  11  21  43  74  97 137 196 244 298 367 431
#     4  10  23  40  69  97 139 187 244 298 364 434
#     4  12  26  44  70 107 147 187 248 312 358 438
#     4  11  24  44  70 106 146 198 244 302 371 439
#     4  10  21  44  68  96 135 191 244 297 360 433
#
# _framework density 28.043047999999999
#
# number of rings (size 3 to 8) (size 9 to 14) (size 15 to 20)
#    0.000    1.200    4.000    1.800    2.800    1.600 
#    7.200    2.000    0.000    0.000    0.000    0.000 
#    0.000    0.000    0.000    0.000    0.000    0.000 
#
# Total GULP energy -111866.468691 kJ/mol
# GULP energy per Si atom -5593.323435 kJ/mol
# Density = 2.797922 g / cm^3
# Si number density = 28.043048 Si / 1000 Ang^3
#
#
#
# Elastic Constant Matrix: (Units=GPa)
#
#
# Indices 1 2 3 4 5 6 
#
# 1 107.6656 -0.4246 9.4849 -0.0003 7.5820 0.0000
# 2 -0.4246 96.4133 4.3853 -0.0016 -16.3223 0.0008
# 3 9.4849 4.3853 195.3689 -0.0017 6.2487 0.0008
# 4 -0.0003 -0.0016 -0.0017 35.4639 0.0010 -11.2196
# 5 7.5820 -16.3223 6.2487 0.0010 36.0864 -0.0001
# 6 0.0000 0.0008 0.0008 -11.2196 -0.0001 51.3885
#
#
#
# Elastic Compliance Matrix: (Units=1/GPa)
#
#
# Indices 1 2 3 4 5 6 
#
# 1 0.009466 -0.000288 -0.000387 0.000000 -0.002052 0.000000
# 2 -0.000288 0.011275 -0.000406 0.000000 0.005231 0.000000
# 3 -0.000387 -0.000406 0.005178 0.000000 -0.000999 0.000000
# 4 0.000000 0.000000 0.000000 0.030290 -0.000001 0.006613
# 5 -0.002052 0.005231 -0.000999 -0.000001 0.030681 0.000000
# 6 0.000000 0.000000 0.000000 0.006613 0.000000 0.020903
#
#
# Mechanical properties :
#
#
# Convention : Reuss Voigt Hill
#
# Bulk Modulus (GPa) = 42.09667 47.37100 44.73384
# Shear Modulus (GPa) = 42.41765 50.32122 46.36944
#
# Velocity S-wave (km/s) = 3.89342 4.24066 4.07075
# Velocity P-wave (km/s) = 5.93765 6.39582 6.17099
#
# Compressibility (1/GPa) = 0.02375485
#
# Stress axis : x y z
#
# Youngs Moduli (GPa) = 105.64661 88.69382 193.10953
#
# Poissons Ratio (x) = 0.02555 0.07482
# Poissons Ratio (y) = 0.03044 0.07848
# Poissons Ratio (z) = 0.04093 0.03604
#
# Static dielectric constant tensor:
#      x y z
#    x 2.065730 0.000000 0.023290 
#    y 0.000000 2.391050 0.000000 
#    z 0.023290 0.000000 2.215690 
# 
# From -- ./inp_files/258924.got.cif
#   From: 2010.05.17/outbox.cif.g08.bks.cpg/sg15_130_cif.got.tgz:258924.got - 2010.06.03 18:47:42.
