data_PCOD9286770
_publ_section_title
;
Structure prediction by ZEFSAII (Michael W. Deem and Ramdas Pophale) SiO2 
 PCOD9286770
Probable space group: C 2/C
;
_chemical_formula_sum "Si O2"
_cell_formula_units_Z 60
_cell_length_a 21.602272
_cell_length_b 20.131711
_cell_length_c 9.219940
_cell_angle_alpha 90.000000
_cell_angle_beta 49.629498
_cell_angle_gamma 90.000000
_cell_volume 3054.851885
_symmetry_space_group_name_H-M "C 2/C"
_symmetry_group_IT_number 15
_symmetry_cell_setting 'monoclinic'
loop_
_space_group_symop_operation_xyz
x,y,z
-x,y,1/2-z
-x,-y,-z
x,-y,1/2+z
1/2+x,1/2+y,z
1/2-x,1/2+y,1/2-z
1/2-x,1/2-y,-z
1/2+x,1/2-y,1/2+z
loop_
_atom_site_type_symbol
_atom_site_label
_atom_site_fract_x
_atom_site_fract_y
_atom_site_fract_z
Si Si1 0.891609 0.952513 0.654691
Si Si2 0.635270 0.018089 0.847047
Si Si3 0.573083 0.671179 0.540887
Si Si4 0.319998 0.301622 0.360642
Si Si5 0.467901 0.252570 0.965333
Si Si6 0.754157 0.549567 0.552066
Si Si7 0.500000 0.473687 0.750000
Si Si8 0.506794 0.898825 0.068245
O O1 0.868283 0.883287 0.618302
O O2 0.937527 0.937086 0.736888
O O3 0.821119 0.004301 0.786352
O O4 0.949755 0.985049 0.445035
O O5 0.673593 0.043544 0.939195
O O6 0.579390 0.076809 0.865644
O O7 0.709652 0.988339 0.642110
O O8 0.573651 0.955638 0.942036
O O9 0.500000 0.640694 0.750000
O O10 0.622593 0.708793 0.586832
O O11 0.531503 0.711441 0.475466
O O12 0.250000 0.250000 0.500000
O O13 0.281345 0.375876 0.412227
O O14 0.379580 0.285378 0.133756
O O15 0.500000 0.257609 0.750000
O O16 0.466317 0.175110 0.016376
O O17 0.500000 0.895568 0.250000
#
# Coordination Sequence:
#
# PCOD9286770 Si02
#       8
#     8   8   8   8   8   8   4   8
#     4  11  22  38  60  91 126 166 212 269 317 380
#     4  11  23  41  68  97 129 164 216 276 330 396
#     4  10  22  42  63  91 129 172 218 261 319 390
#     4  11  25  45  64  94 134 176 216 268 333 400
#     4  10  24  42  69  94 129 175 228 267 320 396
#     4  12  25  40  64  99 133 167 213 269 344 383
#     4  10  22  34  62  84 120 172 210 258 306 376
#     4  10  21  44  68  95 125 171 216 275 325 384
#
# _framework density 19.640886999999999
#
# number of rings (size 3 to 8) (size 9 to 14) (size 15 to 20)
#    0.000    1.333    2.000    3.200    8.400    1.067 
#    2.400    0.667    0.000    0.000    0.000    0.000 
#    0.000    0.000    0.000    0.000    0.000    0.000 
#
# Total GULP energy -167184.480945 kJ/mol
# GULP energy per Si atom -5572.816032 kJ/mol
# Density = 1.959618 g / cm^3
# Si number density = 19.640887 Si / 1000 Ang^3
#
#
#
# Elastic Constant Matrix: (Units=GPa)
#
#
# Indices 1 2 3 4 5 6 
#
# 1 73.5790 21.5528 29.5845 0.0000 4.1654 0.0000
# 2 21.5528 86.1378 27.8527 0.0000 -5.4155 0.0000
# 3 29.5845 27.8527 82.1468 0.0000 -0.3265 0.0000
# 4 0.0000 0.0000 0.0000 30.4201 0.0000 -11.5888
# 5 4.1654 -5.4155 -0.3265 0.0000 34.7606 0.0000
# 6 0.0000 0.0000 0.0000 -11.5888 0.0000 14.2212
#
#
#
# Elastic Compliance Matrix: (Units=1/GPa)
#
#
# Indices 1 2 3 4 5 6 
#
# 1 0.016545 -0.002655 -0.005068 0.000000 -0.002444 0.000000
# 2 -0.002655 0.013604 -0.003647 0.000000 0.002403 0.000000
# 3 -0.005068 -0.003647 0.015236 0.000000 0.000182 0.000000
# 4 0.000000 0.000000 0.000000 0.047673 0.000000 0.038848
# 5 -0.002444 0.002403 0.000182 0.000000 0.029437 0.000000
# 6 0.000000 0.000000 0.000000 0.038848 0.000000 0.101975
#
#
# Mechanical properties :
#
#
# Convention : Reuss Voigt Hill
#
# Bulk Modulus (GPa) = 44.15970 44.42707 44.29338
# Shear Modulus (GPa) = 19.62660 26.73861 23.18260
#
# Velocity S-wave (km/s) = 3.16456 3.69368 3.43931
# Velocity P-wave (km/s) = 5.99040 6.39217 6.19455
#
# Compressibility (1/GPa) = 0.02264508
#
# Stress axis : x y z
#
# Youngs Moduli (GPa) = 60.44303 73.50861 65.63483
#
# Poissons Ratio (x) = 0.19513 0.33264
# Poissons Ratio (y) = 0.16045 0.23937
# Poissons Ratio (z) = 0.30633 0.26808
#
# Static dielectric constant tensor:
#      x y z
#    x 1.678410 0.000000 0.005120 
#    y 0.000000 1.748960 0.000000 
#    z 0.005120 0.000000 1.737290 
# 
# From -- ./inp_files/58078.got.cif
#   From: 2010.05.17/outbox.cif.g08.bks.cpg/sg15_30_cif.got.tgz:58078.got - 2010.06.03 18:47:42.
