data_PCOD9286980
_publ_section_title
;
Structure prediction by ZEFSAII (Michael W. Deem and Ramdas Pophale) SiO2 
 PCOD9286980
Probable space group: C 2/C
;
_chemical_formula_sum "Si O2"
_cell_formula_units_Z 36
_cell_length_a 15.904231
_cell_length_b 10.885641
_cell_length_c 13.723499
_cell_angle_alpha 90.000000
_cell_angle_beta 142.270257
_cell_angle_gamma 90.000000
_cell_volume 1453.914079
_symmetry_space_group_name_H-M "C 2/C"
_symmetry_group_IT_number 15
_symmetry_cell_setting 'monoclinic'
loop_
_space_group_symop_operation_xyz
x,y,z
-x,y,1/2-z
-x,-y,-z
x,-y,1/2+z
1/2+x,1/2+y,z
1/2-x,1/2+y,1/2-z
1/2-x,1/2-y,-z
1/2+x,1/2-y,1/2+z
loop_
_atom_site_type_symbol
_atom_site_label
_atom_site_fract_x
_atom_site_fract_y
_atom_site_fract_z
Si Si1 0.736142 0.612968 0.946385
Si Si2 0.500000 0.448201 0.750000
Si Si3 0.519761 0.008227 0.135007
Si Si4 0.383872 0.742561 0.296940
Si Si5 0.114849 0.245999 0.661350
O O1 0.623903 0.533843 0.900824
O O2 0.667499 0.635371 0.776147
O O3 0.750000 0.750000 0.000000
O O4 0.878012 0.541174 0.058786
O O5 0.564018 0.361557 0.726736
O O6 0.609876 0.131379 0.222974
O O7 0.582893 0.876634 0.217089
O O8 0.500000 0.000000 0.000000
O O9 0.223927 0.733882 0.175174
O O10 0.467484 0.729575 0.475576
#
# Coordination Sequence:
#
# PCOD9286980 Si02
#       5
#     8   4   8   8   8
#     4  12  26  47  70 108 147 188 244 298 360 429
#     4  12  28  44  72 118 142 180 252 300 356 428
#     4  10  21  45  69  99 145 186 234 290 362 425
#     4  11  26  45  75 106 148 187 242 299 364 427
#     4  11  23  46  74 104 141 199 239 290 366 432
#
# _framework density 24.760749000000001
#
# number of rings (size 3 to 8) (size 9 to 14) (size 15 to 20)
#    0.000    0.889    4.444    4.000    0.000    8.000 
#    0.000    0.000    0.000    0.000    0.000    0.000 
#    0.000    0.000    0.000    0.000    0.000    0.000 
#
# Total GULP energy -100862.103391 kJ/mol
# GULP energy per Si atom -5603.450188 kJ/mol
# Density = 2.470439 g / cm^3
# Si number density = 24.760749 Si / 1000 Ang^3
#
#
#
# Elastic Constant Matrix: (Units=GPa)
#
#
# Indices 1 2 3 4 5 6 
#
# 1 99.5805 28.3288 -3.3330 0.0000 30.5591 0.0000
# 2 28.3288 134.3131 23.7249 0.0000 20.2901 0.0000
# 3 -3.3330 23.7249 49.2863 0.0000 13.3066 0.0000
# 4 0.0000 0.0000 0.0000 27.1888 0.0000 11.7164
# 5 30.5591 20.2901 13.3066 0.0000 53.5092 0.0000
# 6 0.0000 0.0000 0.0000 11.7164 0.0000 50.4945
#
#
#
# Elastic Compliance Matrix: (Units=1/GPa)
#
#
# Indices 1 2 3 4 5 6 
#
# 1 0.013200 -0.002349 0.004093 0.000000 -0.007665 0.000000
# 2 -0.002349 0.008819 -0.004142 0.000000 -0.000973 0.000000
# 3 0.004093 -0.004142 0.024406 0.000000 -0.006836 0.000000
# 4 0.000000 0.000000 0.000000 0.040866 0.000000 -0.009482
# 5 -0.007665 -0.000973 -0.006836 0.000000 0.025135 0.000000
# 6 0.000000 0.000000 0.000000 -0.009482 0.000000 0.022004
#
#
# Mechanical properties :
#
#
# Convention : Reuss Voigt Hill
#
# Bulk Modulus (GPa) = 24.02143 42.29124 33.15633
# Shear Modulus (GPa) = 32.65801 41.86912 37.26356
#
# Velocity S-wave (km/s) = 3.63567 4.11657 3.88357
# Velocity P-wave (km/s) = 5.22939 6.30174 5.79044
#
# Compressibility (1/GPa) = 0.04162949
#
# Stress axis : x y z
#
# Youngs Moduli (GPa) = 75.75910 113.38849 40.97400
#
# Poissons Ratio (x) = 0.26635 -0.16770
# Poissons Ratio (y) = 0.17796 0.16970
# Poissons Ratio (z) = -0.31008 0.46960
#
# Static dielectric constant tensor:
#      x y z
#    x 1.919050 0.000000 -0.080840 
#    y 0.000000 1.944300 0.000000 
#    z -0.080840 0.000000 2.041870 
# 
# From -- ./inp_files/46320.got.cif
#   From: 2010.05.17/outbox.cif.g08.bks.cpg/sg15_24_cif.got.tgz:46320.got - 2010.06.03 18:47:42.
