data_PCOD9286184
_publ_section_title
;
Structure prediction by ZEFSAII (Michael W. Deem and Ramdas Pophale) SiO2 
 PCOD9286184
Probable space group: C 2/C
;
_chemical_formula_sum "Si O2"
_cell_formula_units_Z 52
_cell_length_a 28.253918
_cell_length_b 5.686397
_cell_length_c 15.399202
_cell_angle_alpha 90.000000
_cell_angle_beta 59.151920
_cell_angle_gamma 90.000000
_cell_volume 2124.073321
_symmetry_space_group_name_H-M "C 2/C"
_symmetry_group_IT_number 15
_symmetry_cell_setting 'monoclinic'
loop_
_space_group_symop_operation_xyz
x,y,z
-x,y,1/2-z
-x,-y,-z
x,-y,1/2+z
1/2+x,1/2+y,z
1/2-x,1/2+y,1/2-z
1/2-x,1/2-y,-z
1/2+x,1/2-y,1/2+z
loop_
_atom_site_type_symbol
_atom_site_label
_atom_site_fract_x
_atom_site_fract_y
_atom_site_fract_z
Si Si1 0.500000 0.743112 0.250000
Si Si2 0.018273 0.597399 0.372648
Si Si3 0.697224 0.263987 0.221021
Si Si4 0.926660 0.235526 0.057307
Si Si5 0.781880 0.495092 0.456864
Si Si6 0.091818 0.959780 0.252985
Si Si7 0.680069 0.030130 0.897946
O O1 0.557063 0.609654 0.217984
O O2 0.488939 0.897353 0.345537
O O3 0.972961 0.792124 0.440607
O O4 0.051623 0.479952 0.420121
O O5 0.065884 0.702987 0.267677
O O6 0.699144 0.027159 0.160184
O O7 0.657083 0.434613 0.202987
O O8 0.757661 0.374170 0.174275
O O9 0.674825 0.188281 0.336461
O O10 0.865444 0.277707 0.082512
O O11 0.926188 0.049892 0.134499
O O12 0.750000 0.750000 0.500000
O O13 0.825327 0.483391 0.494473
O O14 0.750000 0.250000 0.500000
#
# Coordination Sequence:
#
# PCOD9286184 Si02
#       7
#     4   8   8   8   8   8   8
#     4  10  24  40  68  98 140 184 240 306 388 444
#     4  10  21  43  62  95 138 179 236 300 370 445
#     4  11  23  42  73 106 143 188 243 306 367 457
#     4  10  22  40  66  98 132 182 240 298 364 447
#     4  10  24  45  66 103 145 190 247 295 357 445
#     4  11  22  42  70 103 135 184 246 306 371 447
#     4  11  22  43  68 103 141 191 229 297 378 433
#
# _framework density 24.481263999999999
#
# number of rings (size 3 to 8) (size 9 to 14) (size 15 to 20)
#    0.000    1.538    1.538    2.769    0.000    4.923 
#    5.538    0.000    0.000    0.000    0.000    0.000 
#    0.000    0.000    0.000    0.000    0.000    0.000 
#
# Total GULP energy -145113.024619 kJ/mol
# GULP energy per Si atom -5581.270178 kJ/mol
# Density = 2.442554 g / cm^3
# Si number density = 24.481264 Si / 1000 Ang^3
#
#
#
# Elastic Constant Matrix: (Units=GPa)
#
#
# Indices 1 2 3 4 5 6 
#
# 1 201.2104 46.4798 39.5595 0.0000 -8.4189 -0.0004
# 2 46.4798 71.5469 7.1640 0.0007 -6.1371 -0.0004
# 3 39.5595 7.1640 38.5333 -0.0002 -2.7142 0.0000
# 4 0.0000 0.0007 -0.0002 32.2690 0.0000 -2.1594
# 5 -8.4189 -6.1371 -2.7142 0.0000 49.4659 0.0001
# 6 -0.0004 -0.0004 0.0000 -2.1594 0.0001 36.6990
#
#
#
# Elastic Compliance Matrix: (Units=1/GPa)
#
#
# Indices 1 2 3 4 5 6 
#
# 1 0.007211 -0.003989 -0.006636 0.000000 0.000368 0.000000
# 2 -0.003989 0.016580 0.001114 0.000000 0.001439 0.000000
# 3 -0.006636 0.001114 0.032613 0.000000 0.000798 0.000000
# 4 0.000000 0.000000 0.000000 0.031112 0.000000 0.001831
# 5 0.000368 0.001439 0.000798 0.000000 0.020501 0.000000
# 6 0.000000 0.000000 0.000000 0.001831 0.000000 0.027356
#
#
# Mechanical properties :
#
#
# Convention : Reuss Voigt Hill
#
# Bulk Modulus (GPa) = 26.75004 55.29970 41.02487
# Shear Modulus (GPa) = 29.96578 38.22593 34.09586
#
# Velocity S-wave (km/s) = 3.50241 3.95579 3.73598
# Velocity P-wave (km/s) = 5.22554 6.59560 5.95014
#
# Compressibility (1/GPa) = 0.03738313
#
# Stress axis : x y z
#
# Youngs Moduli (GPa) = 138.66884 60.31341 30.66228
#
# Poissons Ratio (x) = 0.24058 0.20347
# Poissons Ratio (y) = 0.55312 -0.03415
# Poissons Ratio (z) = 0.92020 -0.06718
#
# Static dielectric constant tensor:
#      x y z
#    x 1.936910 0.000000 0.022150 
#    y 0.000000 1.991380 0.000000 
#    z 0.022150 0.000000 2.079260 
# 
# From -- ./inp_files/221164.got.cif
#   From: 2010.05.17/outbox.cif.g08.bks.cpg/sg15_111_cif.got.tgz:221164.got - 2010.06.03 18:47:42.
