data_PCOD9286883
_publ_section_title
;
Structure prediction by ZEFSAII (Michael W. Deem and Ramdas Pophale) SiO2 
 PCOD9286883
Probable space group: C 2/C
;
_chemical_formula_sum "Si O2"
_cell_formula_units_Z 56
_cell_length_a 7.990632
_cell_length_b 22.537920
_cell_length_c 18.613000
_cell_angle_alpha 90.000000
_cell_angle_beta 50.790834
_cell_angle_gamma 90.000000
_cell_volume 2597.318812
_symmetry_space_group_name_H-M "C 2/C"
_symmetry_group_IT_number 15
_symmetry_cell_setting 'monoclinic'
loop_
_space_group_symop_operation_xyz
x,y,z
-x,y,1/2-z
-x,-y,-z
x,-y,1/2+z
1/2+x,1/2+y,z
1/2-x,1/2+y,1/2-z
1/2-x,1/2-y,-z
1/2+x,1/2-y,1/2+z
loop_
_atom_site_type_symbol
_atom_site_label
_atom_site_fract_x
_atom_site_fract_y
_atom_site_fract_z
Si Si1 0.535910 0.476549 0.824953
Si Si2 0.889497 0.255733 0.355748
Si Si3 0.299468 0.119445 0.880297
Si Si4 0.977631 0.858364 0.593814
Si Si5 0.010558 0.105956 0.661558
Si Si6 0.500000 0.017305 0.750000
Si Si7 0.500000 0.812858 0.750000
Si Si8 0.555200 0.271017 0.099675
O O1 0.500000 0.475136 0.750000
O O2 0.453399 0.414413 0.877011
O O3 0.430481 0.539263 0.879235
O O4 0.786929 0.482931 0.781285
O O5 0.946886 0.323830 0.360670
O O6 0.642352 0.265545 0.401894
O O7 0.000000 0.239371 0.250000
O O8 0.931592 0.204474 0.401484
O O9 0.425100 0.057398 0.839531
O O10 0.210166 0.121017 0.822250
O O11 0.087760 0.123769 0.988268
O O12 0.718328 0.849583 0.672743
O O13 0.134464 0.164952 0.606551
O O14 0.000000 0.104225 0.750000
O O15 0.517432 0.769282 0.813639
O O16 0.750000 0.250000 0.000000
#
# Coordination Sequence:
#
# PCOD9286883 Si02
#       8
#     8   8   8   8   8   4   4   8
#     4  10  23  43  67  94 134 180 232 271 338 410
#     4  11  21  42  66  93 136 177 212 275 344 406
#     4  10  22  40  68  98 128 173 231 273 344 406
#     4  12  25  42  65 100 138 178 218 285 344 411
#     4   9  19  40  64  91 127 172 215 272 323 394
#     4  10  21  44  72  96 127 182 234 284 334 404
#     4  12  23  38  68  96 137 174 224 284 348 402
#     4  11  23  41  65 103 132 171 230 282 344 407
#
# _framework density 21.560696
#
# number of rings (size 3 to 8) (size 9 to 14) (size 15 to 20)
#    0.000    1.429    2.857    3.000    0.000    2.286 
#    7.714    2.143    0.000    0.000    0.000    0.000 
#    0.000    0.000    0.000    0.000    0.000    0.000 
#
# Total GULP energy -155886.538495 kJ/mol
# GULP energy per Si atom -5567.376375 kJ/mol
# Density = 2.151162 g / cm^3
# Si number density = 21.560696 Si / 1000 Ang^3
#
#
#
# Elastic Constant Matrix: (Units=GPa)
#
#
# Indices 1 2 3 4 5 6 
#
# 1 56.4124 25.8740 27.1659 0.0000 9.5209 0.0000
# 2 25.8740 130.3147 23.6696 0.0000 10.3512 0.0000
# 3 27.1659 23.6696 97.5978 0.0000 -4.4532 0.0000
# 4 0.0000 0.0000 0.0000 39.3887 0.0000 16.0580
# 5 9.5209 10.3512 -4.4532 0.0000 21.2405 0.0000
# 6 0.0000 0.0000 0.0000 16.0580 0.0000 27.1607
#
#
#
# Elastic Compliance Matrix: (Units=1/GPa)
#
#
# Indices 1 2 3 4 5 6 
#
# 1 0.023911 -0.002715 -0.006488 0.000000 -0.010755 0.000000
# 2 -0.002715 0.008757 -0.001522 0.000000 -0.003370 0.000000
# 3 -0.006488 -0.001522 0.012709 0.000000 0.006314 0.000000
# 4 0.000000 0.000000 0.000000 0.033450 0.000000 -0.019777
# 5 -0.010755 -0.003370 0.006314 0.000000 0.054867 0.000000
# 6 0.000000 0.000000 0.000000 -0.019777 0.000000 0.048510
#
#
# Mechanical properties :
#
#
# Convention : Reuss Voigt Hill
#
# Bulk Modulus (GPa) = 41.79176 48.63821 45.21498
# Shear Modulus (GPa) = 23.62612 31.39901 27.51257
#
# Velocity S-wave (km/s) = 3.31387 3.82030 3.57606
# Velocity P-wave (km/s) = 5.83676 6.48593 6.16989
#
# Compressibility (1/GPa) = 0.02392816
#
# Stress axis : x y z
#
# Youngs Moduli (GPa) = 41.82124 114.19644 78.68306
#
# Poissons Ratio (x) = 0.31002 0.51049
# Poissons Ratio (y) = 0.11354 0.11974
# Poissons Ratio (z) = 0.27133 0.17379
#
# Static dielectric constant tensor:
#      x y z
#    x 1.843050 0.000000 -0.039090 
#    y 0.000000 1.916020 0.000000 
#    z -0.039090 0.000000 1.781410 
# 
# From -- ./inp_files/193244.got.cif
#   From: 2010.05.17/outbox.cif.g08.bks.cpg/sg15_97_cif.got.tgz:193244.got - 2010.06.03 18:47:42.
