data_PCOD9286237
_publ_section_title
;
Structure prediction by ZEFSAII (Michael W. Deem and Ramdas Pophale) SiO2 
 PCOD9286237
Probable space group: C 2/C
;
_chemical_formula_sum "Si O2"
_cell_formula_units_Z 40
_cell_length_a 22.799854
_cell_length_b 7.815059
_cell_length_c 17.920125
_cell_angle_alpha 90.000000
_cell_angle_beta 37.514728
_cell_angle_gamma 90.000000
_cell_volume 1944.455185
_symmetry_space_group_name_H-M "C 2/C"
_symmetry_group_IT_number 15
_symmetry_cell_setting 'monoclinic'
loop_
_space_group_symop_operation_xyz
x,y,z
-x,y,1/2-z
-x,-y,-z
x,-y,1/2+z
1/2+x,1/2+y,z
1/2-x,1/2+y,1/2-z
1/2-x,1/2-y,-z
1/2+x,1/2-y,1/2+z
loop_
_atom_site_type_symbol
_atom_site_label
_atom_site_fract_x
_atom_site_fract_y
_atom_site_fract_z
Si Si1 0.331457 0.441912 0.684822
Si Si2 0.991322 0.173706 0.582518
Si Si3 0.469377 0.982225 0.195307
Si Si4 0.735778 0.860600 0.147201
Si Si5 0.058944 0.142945 0.113940
O O1 0.388800 0.611442 0.654025
O O2 0.420345 0.325835 0.564784
O O3 0.280876 0.326464 0.798650
O O4 0.263173 0.508099 0.687091
O O5 0.984315 0.350311 0.631849
O O6 0.021895 0.019405 0.606254
O O7 0.500000 0.016029 0.250000
O O8 0.359607 0.921237 0.298318
O O9 0.532153 0.822647 0.102829
O O10 0.826267 0.863503 0.000025
O O11 0.000000 0.144517 0.250000
#
# Coordination Sequence:
#
# PCOD9286237 Si02
#       5
#     8   8   8   8   8
#     4  10  22  39  66  97 131 166 213 269 318 384
#     4  10  21  43  64  95 130 170 210 267 327 369
#     4  11  24  42  66  94 129 174 216 260 320 385
#     4  11  23  42  65 101 125 170 221 258 327 381
#     4  10  23  43  65  91 134 170 213 269 312 382
#
# _framework density 20.571314000000001
#
# number of rings (size 3 to 8) (size 9 to 14) (size 15 to 20)
#    0.000    1.600    2.000    1.800    2.800    4.000 
#    0.000    5.000    0.000    0.000    0.000    0.000 
#    0.000    0.000    0.000    0.000    0.000    0.000 
#
# Total GULP energy -111727.602889 kJ/mol
# GULP energy per Si atom -5586.380144 kJ/mol
# Density = 2.052449 g / cm^3
# Si number density = 20.571314 Si / 1000 Ang^3
#
#
#
# Elastic Constant Matrix: (Units=GPa)
#
#
# Indices 1 2 3 4 5 6 
#
# 1 88.4622 17.5054 19.0075 -0.0018 -28.6935 0.0017
# 2 17.5054 96.8073 30.1446 0.0031 -7.7593 0.0006
# 3 19.0075 30.1446 84.9674 -0.0028 -7.0921 -0.0006
# 4 -0.0018 0.0031 -0.0028 42.5116 -0.0005 34.5595
# 5 -28.6935 -7.7593 -7.0921 -0.0005 28.7373 0.0023
# 6 0.0017 0.0006 -0.0006 34.5595 0.0023 59.3117
#
#
#
# Elastic Compliance Matrix: (Units=1/GPa)
#
#
# Indices 1 2 3 4 5 6 
#
# 1 0.017325 -0.001162 -0.002089 0.000003 0.016469 -0.000003
# 2 -0.001162 0.011824 -0.003844 -0.000002 0.001083 0.000001
# 3 -0.002089 -0.003844 0.013620 0.000002 0.000238 -0.000001
# 4 0.000003 -0.000002 0.000002 0.044694 0.000006 -0.026042
# 5 0.016469 0.001083 0.000238 0.000006 0.051593 -0.000006
# 6 -0.000003 0.000001 -0.000001 -0.026042 -0.000006 0.032034
#
#
# Mechanical properties :
#
#
# Convention : Reuss Voigt Hill
#
# Bulk Modulus (GPa) = 34.99161 44.83909 39.91535
# Shear Modulus (GPa) = 25.66640 39.68407 32.67523
#
# Velocity S-wave (km/s) = 3.53608 4.39691 3.98978
# Velocity P-wave (km/s) = 5.80678 6.90082 6.37730
#
# Compressibility (1/GPa) = 0.02857828
#
# Stress axis : x y z
#
# Youngs Moduli (GPa) = 57.72000 84.57438 73.42025
#
# Poissons Ratio (x) = 0.09831 0.15334
# Poissons Ratio (y) = 0.06710 0.28226
# Poissons Ratio (z) = 0.12055 0.32514
#
# Static dielectric constant tensor:
#      x y z
#    x 1.769220 0.000000 0.028010 
#    y 0.000000 1.716030 0.000000 
#    z 0.028010 0.000000 1.740580 
# 
# From -- ./inp_files/109798.got.cif
#   From: 2010.05.17/outbox.cif.g08.bks.cpg/sg15_55_cif.got.tgz:109798.got - 2010.06.03 18:47:42.
