data_PCOD9286170
_publ_section_title
;
Structure prediction by ZEFSAII (Michael W. Deem and Ramdas Pophale) SiO2 
 PCOD9286170
Probable space group: C 2/C
;
_chemical_formula_sum "Si O2"
_cell_formula_units_Z 36
_cell_length_a 27.694932
_cell_length_b 5.504612
_cell_length_c 13.711242
_cell_angle_alpha 90.000000
_cell_angle_beta 135.886341
_cell_angle_gamma 90.000000
_cell_volume 1455.008220
_symmetry_space_group_name_H-M "C 2/C"
_symmetry_group_IT_number 15
_symmetry_cell_setting 'monoclinic'
loop_
_space_group_symop_operation_xyz
x,y,z
-x,y,1/2-z
-x,-y,-z
x,-y,1/2+z
1/2+x,1/2+y,z
1/2-x,1/2+y,1/2-z
1/2-x,1/2-y,-z
1/2+x,1/2-y,1/2+z
loop_
_atom_site_type_symbol
_atom_site_label
_atom_site_fract_x
_atom_site_fract_y
_atom_site_fract_z
Si Si1 0.500000 0.059789 0.750000
Si Si2 0.050148 0.780543 0.154036
Si Si3 0.886986 0.081977 0.083037
Si Si4 0.103718 0.875301 0.604096
Si Si5 0.756252 0.691459 0.696149
O O1 0.460557 0.924679 0.780834
O O2 0.561724 0.216550 0.884459
O O3 0.075364 0.995683 0.264690
O O4 0.104158 0.848058 0.146734
O O5 0.974259 0.784413 0.993802
O O6 0.807518 0.163347 0.971229
O O7 0.888629 0.875398 0.002012
O O8 0.167147 0.722514 0.737461
O O9 0.754750 0.447677 0.761187
#
# Coordination Sequence:
#
# PCOD9286170 Si02
#       5
#     4   8   8   8   8
#     4  12  20  38  64  92 126 172 212 284 318 398
#     4  11  22  39  65  91 127 166 224 269 330 393
#     4  11  22  41  64  93 128 173 217 274 328 397
#     4  10  21  43  61  93 127 172 216 271 330 400
#     4  10  23  42  68  94 135 178 217 269 339 393
#
# _framework density 24.742128999999998
#
# number of rings (size 3 to 8) (size 9 to 14) (size 15 to 20)
#    0.000    1.333    4.444    1.333    3.111    1.778 
#    8.000    1.111    0.000    0.000    0.000    0.000 
#    0.000    0.000    0.000    0.000    0.000    0.000 
#
# Total GULP energy -100251.551820 kJ/mol
# GULP energy per Si atom -5569.530657 kJ/mol
# Density = 2.468581 g / cm^3
# Si number density = 24.742129 Si / 1000 Ang^3
#
#
#
# Elastic Constant Matrix: (Units=GPa)
#
#
# Indices 1 2 3 4 5 6 
#
# 1 44.9454 16.3516 42.9333 0.0000 -1.8892 0.0000
# 2 16.3516 89.3457 43.7909 0.0001 6.0527 0.0000
# 3 42.9333 43.7909 152.6017 0.0000 17.2938 0.0000
# 4 0.0000 0.0001 0.0000 27.7469 0.0000 5.9068
# 5 -1.8892 6.0527 17.2938 0.0000 48.1121 0.0000
# 6 0.0000 0.0000 0.0000 5.9068 0.0000 16.3685
#
#
#
# Elastic Compliance Matrix: (Units=1/GPa)
#
#
# Indices 1 2 3 4 5 6 
#
# 1 0.031597 -0.001725 -0.008923 0.000000 0.004665 0.000000
# 2 -0.001725 0.013123 -0.003217 0.000000 -0.000562 0.000000
# 3 -0.008923 -0.003217 0.010404 0.000000 -0.003685 0.000000
# 4 0.000000 0.000000 0.000000 0.039039 0.000000 -0.014088
# 5 0.004665 -0.000562 -0.003685 0.000000 0.022363 0.000000
# 6 0.000000 0.000000 0.000000 -0.014088 0.000000 0.066177
#
#
# Mechanical properties :
#
#
# Convention : Reuss Voigt Hill
#
# Bulk Modulus (GPa) = 36.50470 54.78271 45.64371
# Shear Modulus (GPa) = 22.77239 30.69996 26.73617
#
# Velocity S-wave (km/s) = 3.03708 3.52632 3.29080
# Velocity P-wave (km/s) = 5.20429 6.22651 5.73821
#
# Compressibility (1/GPa) = 0.02739373
#
# Stress axis : x y z
#
# Youngs Moduli (GPa) = 31.64900 76.20263 96.11546
#
# Poissons Ratio (x) = 0.13147 0.85764
# Poissons Ratio (y) = 0.05460 0.30917
# Poissons Ratio (z) = 0.28241 0.24512
#
# Static dielectric constant tensor:
#      x y z
#    x 2.059170 0.000000 -0.064290 
#    y 0.000000 2.121080 0.000000 
#    z -0.064290 0.000000 1.996560 
# 
# From -- ./inp_files/165036.got.cif
#   From: 2010.05.17/outbox.cif.g08.bks.cpg/sg15_83_cif.got.tgz:165036.got - 2010.06.03 18:47:42.
