data_PCOD9286624
_publ_section_title
;
Structure prediction by ZEFSAII (Michael W. Deem and Ramdas Pophale) SiO2 
 PCOD9286624
Probable space group: C 2/C
;
_chemical_formula_sum "Si O2"
_cell_formula_units_Z 48
_cell_length_a 7.104288
_cell_length_b 13.410605
_cell_length_c 18.531663
_cell_angle_alpha 90.000000
_cell_angle_beta 69.633107
_cell_angle_gamma 90.000000
_cell_volume 1655.186133
_symmetry_space_group_name_H-M "C 2/C"
_symmetry_group_IT_number 15
_symmetry_cell_setting 'monoclinic'
loop_
_space_group_symop_operation_xyz
x,y,z
-x,y,1/2-z
-x,-y,-z
x,-y,1/2+z
1/2+x,1/2+y,z
1/2-x,1/2+y,1/2-z
1/2-x,1/2-y,-z
1/2+x,1/2-y,1/2+z
loop_
_atom_site_type_symbol
_atom_site_label
_atom_site_fract_x
_atom_site_fract_y
_atom_site_fract_z
Si Si1 0.717788 0.616815 0.003921
Si Si2 0.890376 0.314774 0.627181
Si Si3 0.315103 0.390108 0.217498
Si Si4 0.782212 0.116815 0.996079
Si Si5 0.684897 0.390108 0.782502
Si Si6 0.609624 0.185226 0.872819
O O1 0.253555 0.639622 0.915320
O O2 0.893360 0.674316 0.938618
O O3 0.753555 0.860378 0.915320
O O4 0.243911 0.500000 0.010921
O O5 0.828262 0.204977 0.663566
O O6 0.871381 0.379000 0.702556
O O7 0.106640 0.325684 0.561382
O O8 0.500000 0.382168 0.250000
O O9 0.323069 0.500000 0.181967
O O10 0.128619 0.379000 0.297444
O O11 1.000000 0.138583 1.000000
O O12 0.500000 0.382168 0.750000
O O13 0.671738 0.295023 0.836434
#
# Coordination Sequence:
#
# PCOD9286624 Si02
#       6
#     8   8   8   8   8   8
#     4  10  21  43  80 122 163 213 272 335 403 480
#     4  10  21  45  81 118 158 210 271 337 405 477
#     4  10  22  45  80 116 160 214 269 329 404 485
#     4  10  21  43  80 122 163 213 272 335 403 480
#     4  10  22  45  80 116 160 214 269 329 404 485
#     4  10  21  45  81 118 158 210 271 337 405 477
#
# _framework density 28.999760999999999
#
# number of rings (size 3 to 8) (size 9 to 14) (size 15 to 20)
#    0.000    2.000    0.000    4.000    0.000    0.000 
#   12.000   15.000    0.000   36.000    0.000    0.000 
#    0.000    0.000    0.000    0.000    0.000    0.000 
#
# Total GULP energy -134975.926916 kJ/mol
# GULP energy per Si atom -5623.996955 kJ/mol
# Density = 2.893376 g / cm^3
# Si number density = 28.999761 Si / 1000 Ang^3
#
#
#
# Elastic Constant Matrix: (Units=GPa)
#
#
# Indices 1 2 3 4 5 6 
#
# 1 110.0634 23.1135 78.5601 0.0000 17.0435 0.0000
# 2 23.1135 260.4470 77.6214 0.0000 16.9621 0.0000
# 3 78.5601 77.6214 235.2124 0.0000 1.5199 0.0000
# 4 0.0000 0.0000 0.0000 50.4958 0.0000 6.0986
# 5 17.0435 16.9621 1.5199 0.0000 67.5540 0.0000
# 6 0.0000 0.0000 0.0000 6.0986 0.0000 45.4053
#
#
#
# Elastic Compliance Matrix: (Units=1/GPa)
#
#
# Indices 1 2 3 4 5 6 
#
# 1 0.012567 0.000372 -0.004300 0.000000 -0.003167 0.000000
# 2 0.000372 0.004343 -0.001550 0.000000 -0.001150 0.000000
# 3 -0.004300 -0.001550 0.006191 0.000000 0.001335 0.000000
# 4 0.000000 0.000000 0.000000 0.020130 0.000000 -0.002704
# 5 -0.003167 -0.001150 0.001335 0.000000 0.015861 0.000000
# 6 0.000000 0.000000 0.000000 -0.002704 0.000000 0.022387
#
#
# Mechanical properties :
#
#
# Convention : Reuss Voigt Hill
#
# Bulk Modulus (GPa) = 82.33351 107.14589 94.73970
# Shear Modulus (GPa) = 51.82275 61.11954 56.47114
#
# Velocity S-wave (km/s) = 4.23189 4.59583 4.41761
# Velocity P-wave (km/s) = 7.23403 8.07400 7.66553
#
# Compressibility (1/GPa) = 0.01214572
#
# Stress axis : x y z
#
# Youngs Moduli (GPa) = 79.57364 230.23332 161.53567
#
# Poissons Ratio (x) = -0.08576 0.69457
# Poissons Ratio (y) = -0.02964 0.25043
# Poissons Ratio (z) = 0.34215 0.35694
#
# Static dielectric constant tensor:
#      x y z
#    x 2.352740 0.000000 -0.044110 
#    y 0.000000 2.173960 0.000000 
#    z -0.044110 0.000000 2.217750 
# 
# From -- ./inp_files/263717.got.cif
#   From: 2010.05.17/outbox.cif.g08.bks.cpg/sg15_132_cif.got.tgz:263717.got - 2010.06.03 18:47:42.
