data_PCOD9286443
_publ_section_title
;
Structure prediction by ZEFSAII (Michael W. Deem and Ramdas Pophale) SiO2 
 PCOD9286443
Probable space group: C 2/C
;
_chemical_formula_sum "Si O2"
_cell_formula_units_Z 56
_cell_length_a 16.972595
_cell_length_b 9.719631
_cell_length_c 16.572905
_cell_angle_alpha 90.000000
_cell_angle_beta 112.940744
_cell_angle_gamma 90.000000
_cell_volume 2517.753042
_symmetry_space_group_name_H-M "C 2/C"
_symmetry_group_IT_number 15
_symmetry_cell_setting 'monoclinic'
loop_
_space_group_symop_operation_xyz
x,y,z
-x,y,1/2-z
-x,-y,-z
x,-y,1/2+z
1/2+x,1/2+y,z
1/2-x,1/2+y,1/2-z
1/2-x,1/2-y,-z
1/2+x,1/2-y,1/2+z
loop_
_atom_site_type_symbol
_atom_site_label
_atom_site_fract_x
_atom_site_fract_y
_atom_site_fract_z
Si Si1 0.587153 0.353148 0.631069
Si Si2 0.500000 0.769985 0.750000
Si Si3 0.193520 0.385212 0.993096
Si Si4 0.000000 0.257479 0.250000
Si Si5 0.404248 0.346461 0.342850
Si Si6 0.362539 0.988865 0.184375
Si Si7 0.494775 0.844945 0.526582
Si Si8 0.724687 0.874209 0.188179
O O1 0.547488 0.335593 0.703717
O O2 0.592914 0.510770 0.608570
O O3 0.526358 0.261997 0.551548
O O4 0.677586 0.273999 0.664838
O O5 0.512534 0.669637 0.679947
O O6 0.580074 0.874462 0.780765
O O7 0.199151 0.484065 0.916980
O O8 0.250000 0.250000 0.000000
O O9 0.215854 0.434534 0.093730
O O10 0.092748 0.347065 0.956714
O O11 0.072627 0.363649 0.311381
O O12 0.417235 0.209561 0.400391
O O13 0.321590 0.355717 0.254099
O O14 0.320574 0.951738 0.254279
O O15 0.500000 0.000000 0.500000
#
# Coordination Sequence:
#
# PCOD9286443 Si02
#       8
#     8   4   8   4   8   8   8   8
#     4  10  23  43  66  99 144 188 232 306 364 434
#     4  11  23  38  70 104 132 186 258 284 358 436
#     4  11  23  43  70 105 143 186 247 297 360 427
#     4   9  19  42  68  94 136 186 244 292 372 428
#     4  12  25  42  69 105 144 184 239 303 366 427
#     4  10  21  43  69 101 143 193 242 308 353 436
#     4  11  25  44  72 104 138 190 248 294 364 445
#     4  10  26  40  71 107 147 193 243 298 374 432
#
# _framework density 22.242054
#
# number of rings (size 3 to 8) (size 9 to 14) (size 15 to 20)
#    0.000    1.429    1.429    2.571   12.000    0.000 
#    0.000    0.000    0.000    4.286    0.000    0.000 
#    0.000    0.000    0.000    0.000    0.000    0.000 
#
# Total GULP energy -156226.657833 kJ/mol
# GULP energy per Si atom -5579.523494 kJ/mol
# Density = 2.219143 g / cm^3
# Si number density = 22.242054 Si / 1000 Ang^3
#
#
#
# Elastic Constant Matrix: (Units=GPa)
#
#
# Indices 1 2 3 4 5 6 
#
# 1 67.8767 29.9503 30.3120 0.0000 -4.2681 0.0000
# 2 29.9503 115.8616 59.9641 0.0000 5.4174 0.0000
# 3 30.3120 59.9641 141.8688 0.0000 7.9166 0.0000
# 4 0.0000 0.0000 0.0000 29.0338 0.0000 -3.1737
# 5 -4.2681 5.4174 7.9166 0.0000 34.3087 0.0000
# 6 0.0000 0.0000 0.0000 -3.1737 0.0000 28.2099
#
#
#
# Elastic Compliance Matrix: (Units=1/GPa)
#
#
# Indices 1 2 3 4 5 6 
#
# 1 0.017555 -0.003399 -0.002498 0.000000 0.003297 0.000000
# 2 -0.003399 0.011721 -0.004155 0.000000 -0.001315 0.000000
# 3 -0.002498 -0.004155 0.009441 0.000000 -0.001833 0.000000
# 4 0.000000 0.000000 0.000000 0.034871 0.000000 0.003923
# 5 0.003297 -0.001315 -0.001833 0.000000 0.030188 0.000000
# 6 0.000000 0.000000 0.000000 0.003923 0.000000 0.035890
#
#
# Mechanical properties :
#
#
# Convention : Reuss Voigt Hill
#
# Bulk Modulus (GPa) = 53.72432 62.89555 58.30994
# Shear Modulus (GPa) = 30.12488 32.00254 31.06371
#
# Velocity S-wave (km/s) = 3.68422 3.79731 3.74119
# Velocity P-wave (km/s) = 6.50422 6.89675 6.70336
#
# Compressibility (1/GPa) = 0.01861354
#
# Stress axis : x y z
#
# Youngs Moduli (GPa) = 56.96234 85.31374 105.92250
#
# Poissons Ratio (x) = 0.29001 0.26461
# Poissons Ratio (y) = 0.19364 0.44007
# Poissons Ratio (z) = 0.14230 0.35445
#
# Static dielectric constant tensor:
#      x y z
#    x 1.817710 0.000000 -0.028770 
#    y 0.000000 1.828600 0.000000 
#    z -0.028770 0.000000 1.951920 
# 
# From -- ./inp_files/209661.got.cif
#   From: 2010.05.17/outbox.cif.g08.bks.cpg/sg15_105_cif.got.tgz:209661.got - 2010.06.03 18:47:42.
