data_PCOD9286001
_publ_section_title
;
Structure prediction by ZEFSAII (Michael W. Deem and Ramdas Pophale) SiO2 
 PCOD9286001
Probable space group: C 2/C
;
_chemical_formula_sum "Si O2"
_cell_formula_units_Z 64
_cell_length_a 28.335796
_cell_length_b 9.116035
_cell_length_c 15.027134
_cell_angle_alpha 90.000000
_cell_angle_beta 50.643120
_cell_angle_gamma 90.000000
_cell_volume 3001.342851
_symmetry_space_group_name_H-M "C 2/C"
_symmetry_group_IT_number 15
_symmetry_cell_setting 'monoclinic'
loop_
_space_group_symop_operation_xyz
x,y,z
-x,y,1/2-z
-x,-y,-z
x,-y,1/2+z
1/2+x,1/2+y,z
1/2-x,1/2+y,1/2-z
1/2-x,1/2-y,-z
1/2+x,1/2-y,1/2+z
loop_
_atom_site_type_symbol
_atom_site_label
_atom_site_fract_x
_atom_site_fract_y
_atom_site_fract_z
Si Si1 0.118872 0.828537 0.295899
Si Si2 0.930327 0.069590 0.013588
Si Si3 0.746900 0.169070 0.649641
Si Si4 0.749609 0.182622 0.170919
Si Si5 0.333502 0.686219 0.403215
Si Si6 0.996193 0.330148 0.491293
Si Si7 0.850285 0.877997 0.431833
Si Si8 0.025999 0.138999 0.312491
O O1 0.185496 0.760971 0.230219
O O2 0.109437 0.832229 0.200341
O O3 0.068086 0.722807 0.395460
O O4 0.108494 0.978330 0.365932
O O5 0.891245 0.078784 0.968918
O O6 0.951167 0.228356 0.025734
O O7 0.993320 0.981729 0.915190
O O8 0.730246 0.260797 0.756631
O O9 0.700627 0.211656 0.625809
O O10 0.812482 0.223249 0.529604
O O11 0.746137 0.995598 0.672937
O O12 0.798930 0.224584 0.036139
O O13 0.314040 0.514890 0.429661
O O14 0.403213 0.669560 0.290808
O O15 0.000027 0.288856 0.383264
O O16 0.000000 0.500000 0.500000
O O17 0.000000 0.097627 0.250000
#
# Coordination Sequence:
#
# PCOD9286001 Si02
#       8
#     8   8   8   8   8   8   8   8
#     4  11  24  45  68  98 142 176 236 292 342 422
#     4  11  24  45  75 105 133 189 236 290 349 426
#     4  10  25  43  67  97 137 186 233 291 356 419
#     4  11  25  43  67 103 136 185 231 293 354 422
#     4  10  21  42  69  97 134 181 235 288 349 430
#     4  11  27  45  65 101 143 184 225 289 358 416
#     4  11  23  41  74 103 133 180 237 286 349 422
#     4  11  22  41  73 104 133 180 240 287 350 427
#
# _framework density 21.323789000000001
#
# number of rings (size 3 to 8) (size 9 to 14) (size 15 to 20)
#    0.000    1.250    1.250    4.875    8.750    0.000 
#    4.500    0.000    0.000    0.000    0.000    0.000 
#    0.000    0.000    0.000    0.000    0.000    0.000 
#
# Total GULP energy -178403.611309 kJ/mol
# GULP energy per Si atom -5575.112853 kJ/mol
# Density = 2.127525 g / cm^3
# Si number density = 21.323789 Si / 1000 Ang^3
#
#
#
# Elastic Constant Matrix: (Units=GPa)
#
#
# Indices 1 2 3 4 5 6 
#
# 1 76.9741 23.1160 43.3644 0.0000 -3.8145 -0.0001
# 2 23.1160 101.3390 39.1524 0.0000 -3.0076 -0.0001
# 3 43.3644 39.1524 199.2207 0.0000 -3.8027 0.0000
# 4 0.0000 0.0000 0.0000 27.9494 0.0000 3.3605
# 5 -3.8145 -3.0076 -3.8027 0.0000 42.8739 0.0000
# 6 -0.0001 -0.0001 0.0000 3.3605 0.0000 24.2600
#
#
#
# Elastic Compliance Matrix: (Units=1/GPa)
#
#
# Indices 1 2 3 4 5 6 
#
# 1 0.015361 -0.002371 -0.002860 0.000000 0.000947 0.000000
# 2 -0.002371 0.011058 -0.001649 0.000000 0.000419 0.000000
# 3 -0.002860 -0.001649 0.005969 0.000000 0.000159 0.000000
# 4 0.000000 0.000000 0.000000 0.036385 0.000000 -0.005040
# 5 0.000947 0.000419 0.000159 0.000000 0.023452 0.000000
# 6 0.000000 0.000000 0.000000 -0.005040 0.000000 0.041918
#
#
# Mechanical properties :
#
#
# Convention : Reuss Voigt Hill
#
# Bulk Modulus (GPa) = 53.67965 65.42217 59.55091
# Shear Modulus (GPa) = 32.44361 37.14338 34.79350
#
# Velocity S-wave (km/s) = 3.90484 4.17811 4.04378
# Velocity P-wave (km/s) = 6.74971 7.34999 7.05624
#
# Compressibility (1/GPa) = 0.01862904
#
# Stress axis : x y z
#
# Youngs Moduli (GPa) = 65.09831 90.42985 167.52752
#
# Poissons Ratio (x) = 0.21442 0.47907
# Poissons Ratio (y) = 0.15435 0.27628
# Poissons Ratio (z) = 0.18616 0.14913
#
# Static dielectric constant tensor:
#      x y z
#    x 1.851790 0.000000 0.018880 
#    y 0.000000 1.782800 0.000000 
#    z 0.018880 0.000000 1.873710 
# 
# From -- ./inp_files/181141.got.cif
#   From: 2010.05.17/outbox.cif.g08.bks.cpg/sg15_91_cif.got.tgz:181141.got - 2010.06.03 18:47:42.
