data_PCOD9286797
_publ_section_title
;
Structure prediction by ZEFSAII (Michael W. Deem and Ramdas Pophale) SiO2 
 PCOD9286797
Probable space group: C 2/C
;
_chemical_formula_sum "Si O2"
_cell_formula_units_Z 56
_cell_length_a 5.310997
_cell_length_b 20.813627
_cell_length_c 27.894357
_cell_angle_alpha 90.000000
_cell_angle_beta 63.506925
_cell_angle_gamma 90.000000
_cell_volume 2759.672390
_symmetry_space_group_name_H-M "C 2/C"
_symmetry_group_IT_number 15
_symmetry_cell_setting 'monoclinic'
loop_
_space_group_symop_operation_xyz
x,y,z
-x,y,1/2-z
-x,-y,-z
x,-y,1/2+z
1/2+x,1/2+y,z
1/2-x,1/2+y,1/2-z
1/2-x,1/2-y,-z
1/2+x,1/2-y,1/2+z
loop_
_atom_site_type_symbol
_atom_site_label
_atom_site_fract_x
_atom_site_fract_y
_atom_site_fract_z
Si Si1 0.676129 0.098689 0.783079
Si Si2 0.131888 0.313572 0.483168
Si Si3 0.270543 0.707874 0.408065
Si Si4 0.300657 0.864722 0.885849
Si Si5 0.673852 0.055969 0.282267
Si Si6 0.444251 0.153618 0.902175
Si Si7 0.008377 0.923116 0.999994
O O1 0.500000 0.116738 0.750000
O O2 0.562912 0.124639 0.843376
O O3 0.000000 0.119117 0.750000
O O4 0.669570 0.021203 0.787028
O O5 0.250000 0.250000 0.500000
O O6 0.259921 0.380894 0.490490
O O7 0.811692 0.308231 0.529628
O O8 0.151115 0.315424 0.424431
O O9 0.580654 0.678220 0.373871
O O10 0.266140 0.784128 0.402463
O O11 0.024365 0.676901 0.397298
O O12 0.500065 0.911920 0.839411
O O13 0.097881 0.904632 0.938456
O O14 0.500000 0.073654 0.250000
O O15 0.000000 0.076040 0.250000
O O16 0.270957 0.102614 0.949072
O O17 0.000000 0.000000 0.000000
#
# Coordination Sequence:
#
# PCOD9286797 Si02
#       7
#     8   8   8   8   8   8   8
#     4  10  25  44  67  95 130 176 231 283 345 414
#     4  11  22  41  66  95 140 186 229 265 352 437
#     4  11  23  39  66  97 131 177 220 266 338 418
#     4  11  23  42  62  99 130 165 223 281 327 406
#     4  10  21  44  69  90 126 180 224 276 349 415
#     4  12  23  42  68  95 135 183 225 283 354 408
#     4  11  24  39  63 101 136 169 222 284 342 403
#
# _framework density 20.292263999999999
#
# number of rings (size 3 to 8) (size 9 to 14) (size 15 to 20)
#    0.000    1.143    2.857    3.857    2.000    0.571 
#    5.143    4.286    0.000    0.000    0.000    0.000 
#    0.000    0.000    0.000    0.000    0.000    0.000 
#
# Total GULP energy -156074.347110 kJ/mol
# GULP energy per Si atom -5574.083825 kJ/mol
# Density = 2.024608 g / cm^3
# Si number density = 20.292264 Si / 1000 Ang^3
#
#
#
# Elastic Constant Matrix: (Units=GPa)
#
#
# Indices 1 2 3 4 5 6 
#
# 1 126.9239 54.6727 63.8309 0.0000 -10.6895 0.0000
# 2 54.6727 117.1580 59.0665 0.0000 -7.9394 0.0000
# 3 63.8309 59.0665 172.3977 0.0000 -9.3864 0.0000
# 4 0.0000 0.0000 0.0000 98.3684 0.0000 45.9355
# 5 -10.6895 -7.9394 -9.3864 0.0000 27.4836 0.0000
# 6 0.0000 0.0000 0.0000 45.9355 0.0000 62.3342
#
#
#
# Elastic Compliance Matrix: (Units=1/GPa)
#
#
# Indices 1 2 3 4 5 6 
#
# 1 0.010988 -0.003606 -0.002707 0.000000 0.002307 0.000000
# 2 -0.003606 0.011590 -0.002578 0.000000 0.001065 0.000000
# 3 -0.002707 -0.002578 0.007732 0.000000 0.000843 0.000000
# 4 0.000000 0.000000 0.000000 0.015500 0.000000 -0.011422
# 5 0.002307 0.001065 0.000843 0.000000 0.037878 0.000000
# 6 0.000000 0.000000 0.000000 -0.011422 0.000000 0.024460
#
#
# Mechanical properties :
#
#
# Convention : Reuss Voigt Hill
#
# Bulk Modulus (GPa) = 79.82372 85.73551 82.77962
# Shear Modulus (GPa) = 38.43011 53.56454 45.99732
#
# Velocity S-wave (km/s) = 4.35654 5.14333 4.76620
# Velocity P-wave (km/s) = 8.04539 8.80987 8.43630
#
# Compressibility (1/GPa) = 0.01252760
#
# Stress axis : x y z
#
# Youngs Moduli (GPa) = 91.00884 86.27959 129.33389
#
# Poissons Ratio (x) = 0.31116 0.35012
# Poissons Ratio (y) = 0.32822 0.33339
# Poissons Ratio (z) = 0.24637 0.22240
#
# Static dielectric constant tensor:
#      x y z
#    x 1.824500 0.000000 -0.039730 
#    y 0.000000 1.712430 0.000000 
#    z -0.039730 0.000000 1.652630 
# 
# From -- ./inp_files/286320.got.cif
#   From: 2010.05.17/outbox.cif.g08.bks.cpg/sg15_144_cif.got.tgz:286320.got - 2010.06.03 18:47:42.
