data_PCOD9286244
_publ_section_title
;
Structure prediction by ZEFSAII (Michael W. Deem and Ramdas Pophale) SiO2 
 PCOD9286244
Probable space group: C 2/C
;
_chemical_formula_sum "Si O2"
_cell_formula_units_Z 52
_cell_length_a 28.268254
_cell_length_b 14.468698
_cell_length_c 9.134073
_cell_angle_alpha 90.000000
_cell_angle_beta 136.209069
_cell_angle_gamma 90.000000
_cell_volume 2585.336993
_symmetry_space_group_name_H-M "C 2/C"
_symmetry_group_IT_number 15
_symmetry_cell_setting 'monoclinic'
loop_
_space_group_symop_operation_xyz
x,y,z
-x,y,1/2-z
-x,-y,-z
x,-y,1/2+z
1/2+x,1/2+y,z
1/2-x,1/2+y,1/2-z
1/2-x,1/2-y,-z
1/2+x,1/2-y,1/2+z
loop_
_atom_site_type_symbol
_atom_site_label
_atom_site_fract_x
_atom_site_fract_y
_atom_site_fract_z
Si Si1 0.778677 0.591283 0.848961
Si Si2 0.000000 0.213412 0.250000
Si Si3 0.596853 0.131312 0.866453
Si Si4 0.369772 0.996832 0.804347
Si Si5 0.064278 0.952668 0.065226
Si Si6 0.845327 0.951399 0.957881
Si Si7 0.748177 0.214145 0.162617
O O1 0.826778 0.560283 0.820748
O O2 0.709179 0.534008 0.674894
O O3 0.761857 0.698788 0.797873
O O4 0.817590 0.559642 0.082981
O O5 0.951309 0.280131 0.234986
O O6 0.043155 0.144738 0.448530
O O7 0.587428 0.062519 0.708319
O O8 0.675586 0.165773 0.032461
O O9 0.589547 0.073595 0.000853
O O10 0.126258 0.940275 0.316298
O O11 0.091029 0.020697 0.999714
O O12 0.000000 0.000000 0.000000
O O13 0.806885 0.861081 0.816459
O O14 0.750000 0.250000 0.000000
#
# Coordination Sequence:
#
# PCOD9286244 Si02
#       7
#     8   4   8   8   8   8   8
#     4  11  21  39  63 101 138 164 219 283 350 408
#     4  12  28  48  68  98 142 190 240 282 334 430
#     4  11  25  44  70  97 139 179 237 282 346 417
#     4  10  21  43  64  96 132 174 216 292 351 394
#     4  12  26  47  65  98 140 192 227 276 345 424
#     4  12  24  42  73  99 139 182 227 291 352 403
#     4  12  23  37  70 108 132 178 222 293 350 404
#
# _framework density 20.113430999999999
#
# number of rings (size 3 to 8) (size 9 to 14) (size 15 to 20)
#    0.000    0.615    6.154    2.769    4.308    1.231 
#    0.000    0.000    0.000    0.000    0.000    0.000 
#    0.000    0.000    0.000    0.000    0.000    0.000 
#
# Total GULP energy -145479.243066 kJ/mol
# GULP energy per Si atom -5595.355503 kJ/mol
# Density = 2.006765 g / cm^3
# Si number density = 20.113431 Si / 1000 Ang^3
#
#
#
# Elastic Constant Matrix: (Units=GPa)
#
#
# Indices 1 2 3 4 5 6 
#
# 1 57.4380 34.1067 27.5200 0.0000 -11.7746 0.0000
# 2 34.1067 138.3552 30.9035 0.0000 0.8819 0.0000
# 3 27.5200 30.9035 70.7428 0.0000 -14.9922 0.0000
# 4 0.0000 0.0000 0.0000 15.5566 0.0000 -4.6761
# 5 -11.7746 0.8819 -14.9922 0.0000 26.8020 0.0000
# 6 0.0000 0.0000 0.0000 -4.6761 0.0000 29.8781
#
#
#
# Elastic Compliance Matrix: (Units=1/GPa)
#
#
# Indices 1 2 3 4 5 6 
#
# 1 0.024658 -0.004821 -0.005851 0.000000 0.007719 0.000000
# 2 -0.004821 0.009105 -0.002966 0.000000 -0.004077 0.000000
# 3 -0.005851 -0.002966 0.019494 0.000000 0.008432 0.000000
# 4 0.000000 0.000000 0.000000 0.067455 0.000000 0.010557
# 5 0.007719 -0.004077 0.008432 0.000000 0.045552 0.000000
# 6 0.000000 0.000000 0.000000 0.010557 0.000000 0.035122
#
#
# Mechanical properties :
#
#
# Convention : Reuss Voigt Hill
#
# Bulk Modulus (GPa) = 38.48771 50.17737 44.33254
# Shear Modulus (GPa) = 21.06847 26.04771 23.55809
#
# Velocity S-wave (km/s) = 3.24000 3.60257 3.42608
# Velocity P-wave (km/s) = 5.75965 6.50431 6.14328
#
# Compressibility (1/GPa) = 0.02598232
#
# Stress axis : x y z
#
# Youngs Moduli (GPa) = 40.55425 109.83385 51.29740
#
# Poissons Ratio (x) = 0.52951 0.30012
# Poissons Ratio (y) = 0.19551 0.15214
# Poissons Ratio (z) = 0.23727 0.32574
#
# Static dielectric constant tensor:
#      x y z
#    x 1.698430 0.000000 0.012660 
#    y 0.000000 1.683780 0.000000 
#    z 0.012660 0.000000 1.688550 
# 
# From -- ./inp_files/70200.got.cif
#   From: 2010.05.17/outbox.cif.g08.bks.cpg/sg15_36_cif.got.tgz:70200.got - 2010.06.03 18:47:42.
