data_PCOD9286675
_publ_section_title
;
Structure prediction by ZEFSAII (Michael W. Deem and Ramdas Pophale) SiO2 
 PCOD9286675
Probable space group: C 2/C
;
_chemical_formula_sum "Si O2"
_cell_formula_units_Z 60
_cell_length_a 10.918473
_cell_length_b 14.889499
_cell_length_c 14.366980
_cell_angle_alpha 90.000000
_cell_angle_beta 98.526716
_cell_angle_gamma 90.000000
_cell_volume 2309.832148
_symmetry_space_group_name_H-M "C 2/C"
_symmetry_group_IT_number 15
_symmetry_cell_setting 'monoclinic'
loop_
_space_group_symop_operation_xyz
x,y,z
-x,y,1/2-z
-x,-y,-z
x,-y,1/2+z
1/2+x,1/2+y,z
1/2-x,1/2+y,1/2-z
1/2-x,1/2-y,-z
1/2+x,1/2-y,1/2+z
loop_
_atom_site_type_symbol
_atom_site_label
_atom_site_fract_x
_atom_site_fract_y
_atom_site_fract_z
Si Si1 0.286954 0.194303 0.095829
Si Si2 0.770050 0.485778 0.514755
Si Si3 0.859657 0.357148 0.157842
Si Si4 0.277702 0.987275 0.296946
Si Si5 0.956724 0.898835 0.928181
Si Si6 0.603615 0.759576 0.504297
Si Si7 0.179002 0.699497 0.207850
Si Si8 0.000000 0.999110 0.250000
O O1 0.359163 0.231727 0.192701
O O2 0.151440 0.168002 0.119985
O O3 0.250000 0.250000 0.000000
O O4 0.125353 0.035788 0.017276
O O5 0.840247 0.400559 0.566892
O O6 0.796551 0.484632 0.409303
O O7 0.798962 0.573305 0.576767
O O8 0.868343 0.422947 0.248417
O O9 0.785738 0.270608 0.189774
O O10 0.951680 0.311026 0.092245
O O11 0.290508 0.093264 0.275731
O O12 0.136361 0.955351 0.255578
O O13 0.015495 0.941657 0.844293
O O14 0.046616 0.838715 0.998148
O O15 0.750000 0.750000 0.500000
O O16 0.592580 0.798829 0.606120
#
# Coordination Sequence:
#
# PCOD9286675 Si02
#       8
#     8   8   8   8   8   8   8   4
#     4  10  21  44  65  93 127 182 229 285 337 413
#     4  10  22  39  64  93 135 173 225 284 345 409
#     4  11  21  38  59  97 128 181 223 266 351 405
#     4  12  22  38  59 100 131 179 224 284 337 421
#     4  10  23  40  60 100 129 176 223 281 345 409
#     4  10  22  37  62  92 137 175 222 276 339 415
#     4  11  21  37  63  94 130 178 226 274 348 405
#     4  12  20  34  62  86 142 168 214 278 348 396
#
# _framework density 25.975914
#
# number of rings (size 3 to 8) (size 9 to 14) (size 15 to 20)
#    0.800    0.533    5.333    2.400    1.867    2.667 
#    0.000    0.667    0.000    0.800    3.467    0.000 
#    0.000    0.000    0.000    0.000    0.000    0.000 
#
# Total GULP energy -167312.186605 kJ/mol
# GULP energy per Si atom -5577.072887 kJ/mol
# Density = 2.591679 g / cm^3
# Si number density = 25.975914 Si / 1000 Ang^3
#
#
#
# Elastic Constant Matrix: (Units=GPa)
#
#
# Indices 1 2 3 4 5 6 
#
# 1 60.0692 6.8446 15.2688 0.0000 -9.2108 0.0000
# 2 6.8446 142.9278 63.6980 0.0000 -6.1070 0.0000
# 3 15.2688 63.6980 243.6443 0.0000 -29.7614 0.0000
# 4 0.0000 0.0000 0.0000 53.8765 0.0000 3.6198
# 5 -9.2108 -6.1070 -29.7614 0.0000 26.0237 0.0000
# 6 0.0000 0.0000 0.0000 3.6198 0.0000 27.8878
#
#
#
# Elastic Compliance Matrix: (Units=1/GPa)
#
#
# Indices 1 2 3 4 5 6 
#
# 1 0.017665 -0.000476 -0.000270 0.000000 0.005831 0.000000
# 2 -0.000476 0.007940 -0.002138 0.000000 -0.000750 0.000000
# 3 -0.000270 -0.002138 0.005355 0.000000 0.005527 0.000000
# 4 0.000000 0.000000 0.000000 0.018724 0.000000 -0.002430
# 5 0.005831 -0.000750 0.005527 0.000000 0.046635 0.000000
# 6 0.000000 0.000000 0.000000 -0.002430 0.000000 0.036173
#
#
# Mechanical properties :
#
#
# Convention : Reuss Voigt Hill
#
# Bulk Modulus (GPa) = 39.69571 68.69600 54.19585
# Shear Modulus (GPa) = 34.09286 45.61295 39.85291
#
# Velocity S-wave (km/s) = 3.62675 4.19498 3.92117
# Velocity P-wave (km/s) = 5.73172 7.06875 6.43505
#
# Compressibility (1/GPa) = 0.02519164
#
# Stress axis : x y z
#
# Youngs Moduli (GPa) = 56.61045 125.94545 186.73227
#
# Poissons Ratio (x) = 0.06000 0.05045
# Poissons Ratio (y) = 0.02697 0.39915
# Poissons Ratio (z) = 0.01529 0.26922
#
# Static dielectric constant tensor:
#      x y z
#    x 2.165730 0.000000 0.093000 
#    y 0.000000 1.566820 0.000000 
#    z 0.093000 0.000000 2.075690 
# 
# From -- ./inp_files/153995.got.cif
#   From: 2010.05.17/outbox.cif.g08.bks.cpg/sg15_77_cif.got.tgz:153995.got - 2010.06.03 18:47:42.
