data_PCOD9286167
_publ_section_title
;
Structure prediction by ZEFSAII (Michael W. Deem and Ramdas Pophale) SiO2 
 PCOD9286167
Probable space group: C 2/C
;
_chemical_formula_sum "Si O2"
_cell_formula_units_Z 48
_cell_length_a 21.893459
_cell_length_b 5.212700
_cell_length_c 18.346275
_cell_angle_alpha 90.000000
_cell_angle_beta 111.524229
_cell_angle_gamma 90.000000
_cell_volume 1947.737954
_symmetry_space_group_name_H-M "C 2/C"
_symmetry_group_IT_number 15
_symmetry_cell_setting 'monoclinic'
loop_
_space_group_symop_operation_xyz
x,y,z
-x,y,1/2-z
-x,-y,-z
x,-y,1/2+z
1/2+x,1/2+y,z
1/2-x,1/2+y,1/2-z
1/2-x,1/2-y,-z
1/2+x,1/2-y,1/2+z
loop_
_atom_site_type_symbol
_atom_site_label
_atom_site_fract_x
_atom_site_fract_y
_atom_site_fract_z
Si Si1 0.308397 0.177026 0.346810
Si Si2 0.160051 0.921910 0.527320
Si Si3 0.141461 0.379014 0.779532
Si Si4 0.780552 0.939881 0.081777
Si Si5 0.940457 0.659006 0.941685
Si Si6 0.941997 0.876988 0.783281
O O1 0.323310 0.452869 0.387994
O O2 0.303320 0.140190 0.258936
O O3 0.241576 0.104670 0.358621
O O4 0.374785 0.012793 0.396053
O O5 0.182213 0.087520 0.467074
O O6 0.209805 0.687917 0.534039
O O7 0.085441 0.844101 0.504883
O O8 0.171146 0.280332 0.867700
O O9 0.108330 0.655095 0.764637
O O10 0.089466 0.159554 0.732546
O O11 0.958442 0.798871 0.873913
O O12 0.000000 0.500000 0.000000
O O13 0.000000 0.872222 0.750000
#
# Coordination Sequence:
#
# PCOD9286167 Si02
#       6
#     8   8   8   8   8   8
#     4  10  22  40  63  92 133 165 223 271 330 403
#     4  10  21  43  60  96 132 164 228 273 330 407
#     4  11  25  43  68 100 130 181 223 273 343 395
#     4  10  24  37  67  95 131 174 217 276 337 399
#     4  10  23  41  64  93 127 179 218 279 337 395
#     4  11  25  46  66  98 137 172 233 280 323 404
#
# _framework density 24.643969999999999
#
# number of rings (size 3 to 8) (size 9 to 14) (size 15 to 20)
#    0.000    1.667    1.667    1.000    7.000    2.000 
#    0.000    0.000    0.000    0.000    0.000    0.000 
#    0.000    0.000    0.000    0.000    0.000    0.000 
#
# Total GULP energy -134096.175828 kJ/mol
# GULP energy per Si atom -5587.340660 kJ/mol
# Density = 2.458788 g / cm^3
# Si number density = 24.643970 Si / 1000 Ang^3
#
#
#
# Elastic Constant Matrix: (Units=GPa)
#
#
# Indices 1 2 3 4 5 6 
#
# 1 143.1841 31.9986 46.1359 0.0000 -42.5126 0.0000
# 2 31.9986 68.9462 -2.6109 0.0000 1.3774 0.0001
# 3 46.1359 -2.6109 84.3816 0.0000 -11.8498 0.0000
# 4 0.0000 0.0000 0.0000 26.8061 0.0000 1.3179
# 5 -42.5126 1.3774 -11.8498 0.0000 46.3018 0.0000
# 6 0.0000 0.0001 0.0000 1.3179 0.0000 39.8327
#
#
#
# Elastic Compliance Matrix: (Units=1/GPa)
#
#
# Indices 1 2 3 4 5 6 
#
# 1 0.013920 -0.006924 -0.006225 0.000000 0.011394 0.000000
# 2 -0.006924 0.017970 0.003500 0.000000 -0.005996 0.000000
# 3 -0.006225 0.003500 0.015088 0.000000 -0.001958 0.000000
# 4 0.000000 0.000000 0.000000 0.037366 0.000000 -0.001236
# 5 0.011394 -0.005996 -0.001958 0.000000 0.031736 0.000000
# 6 0.000000 0.000000 0.000000 -0.001236 0.000000 0.025146
#
#
# Mechanical properties :
#
#
# Convention : Reuss Voigt Hill
#
# Bulk Modulus (GPa) = 36.12837 49.72880 42.92858
# Shear Modulus (GPa) = 29.45511 37.32066 33.38789
#
# Velocity S-wave (km/s) = 3.46095 3.89574 3.68477
# Velocity P-wave (km/s) = 5.53741 6.36070 5.96328
#
# Compressibility (1/GPa) = 0.02767908
#
# Stress axis : x y z
#
# Youngs Moduli (GPa) = 71.83908 55.64901 66.27897
#
# Poissons Ratio (x) = 0.38530 0.41259
# Poissons Ratio (y) = 0.49740 -0.23195
# Poissons Ratio (z) = 0.44720 -0.19475
#
# Static dielectric constant tensor:
#      x y z
#    x 1.949900 0.000000 -0.065690 
#    y 0.000000 2.095720 0.000000 
#    z -0.065690 0.000000 2.154260 
# 
# From -- ./inp_files/217818.got.cif
#   From: 2010.05.17/outbox.cif.g08.bks.cpg/sg15_109_cif.got.tgz:217818.got - 2010.06.03 18:47:42.
