data_PCOD9286816
_publ_section_title
;
Structure prediction by ZEFSAII (Michael W. Deem and Ramdas Pophale) SiO2 
 PCOD9286816
Probable space group: C 2/C
;
_chemical_formula_sum "Si O2"
_cell_formula_units_Z 44
_cell_length_a 10.889996
_cell_length_b 18.144210
_cell_length_c 15.198282
_cell_angle_alpha 90.000000
_cell_angle_beta 142.132137
_cell_angle_gamma 90.000000
_cell_volume 1843.390066
_symmetry_space_group_name_H-M "C 2/C"
_symmetry_group_IT_number 15
_symmetry_cell_setting 'monoclinic'
loop_
_space_group_symop_operation_xyz
x,y,z
-x,y,1/2-z
-x,-y,-z
x,-y,1/2+z
1/2+x,1/2+y,z
1/2-x,1/2+y,1/2-z
1/2-x,1/2-y,-z
1/2+x,1/2-y,1/2+z
loop_
_atom_site_type_symbol
_atom_site_label
_atom_site_fract_x
_atom_site_fract_y
_atom_site_fract_z
Si Si1 0.500000 0.668789 0.750000
Si Si2 0.719893 0.048061 0.274097
Si Si3 0.735190 0.211805 0.268810
Si Si4 0.522966 0.558463 0.906778
Si Si5 0.078881 0.600164 0.697508
Si Si6 0.631538 0.771225 0.518926
O O1 0.381507 0.725960 0.744321
O O2 0.604912 0.610461 0.875662
O O3 0.646263 0.130495 0.221320
O O4 0.817014 0.045144 0.426668
O O5 0.909823 0.019831 0.321555
O O6 0.548320 0.987254 0.164631
O O7 0.954476 0.212956 0.433688
O O8 0.757945 0.227987 0.178539
O O9 0.320966 0.600303 0.828074
O O10 0.000000 0.619094 0.750000
O O11 0.976891 0.651574 0.567341
O O12 0.750000 0.750000 0.500000
#
# Coordination Sequence:
#
# PCOD9286816 Si02
#       6
#     4   8   8   8   8   8
#     4  12  24  46  72 104 156 188 244 302 378 452
#     4   9  22  44  68 102 142 184 242 291 379 431
#     4  12  26  44  72 109 140 192 244 306 367 446
#     4   9  21  45  67 102 143 192 227 303 372 444
#     4  10  21  44  69  99 138 189 234 303 360 429
#     4  12  27  47  72 103 144 191 251 305 366 427
#
# _framework density 23.869067000000001
#
# number of rings (size 3 to 8) (size 9 to 14) (size 15 to 20)
#    1.091    0.364    1.818    2.727    3.818    3.636 
#    6.545    0.000    0.000    0.000    0.000    0.000 
#    0.000    0.000    0.000    0.000    0.000    0.000 
#
# Total GULP energy -122685.954355 kJ/mol
# GULP energy per Si atom -5576.634289 kJ/mol
# Density = 2.381474 g / cm^3
# Si number density = 23.869067 Si / 1000 Ang^3
#
#
#
# Elastic Constant Matrix: (Units=GPa)
#
#
# Indices 1 2 3 4 5 6 
#
# 1 56.0122 33.9077 -4.7850 -0.0004 -16.5152 -0.0003
# 2 33.9077 152.3991 14.5377 -0.0004 -8.7223 -0.0002
# 3 -4.7850 14.5377 35.0501 -0.0011 -7.5479 -0.0007
# 4 -0.0004 -0.0004 -0.0011 31.8258 -0.0002 -5.8201
# 5 -16.5152 -8.7223 -7.5479 -0.0002 22.8466 -0.0001
# 6 -0.0003 -0.0002 -0.0007 -5.8201 -0.0001 24.6296
#
#
#
# Elastic Compliance Matrix: (Units=1/GPa)
#
#
# Indices 1 2 3 4 5 6 
#
# 1 0.029322 -0.006328 0.011489 0.000001 0.022576 0.000001
# 2 -0.006328 0.008267 -0.004950 0.000000 -0.003054 0.000000
# 3 0.011489 -0.004950 0.036102 0.000002 0.018343 0.000002
# 4 0.000001 0.000000 0.000002 0.032840 0.000001 0.007760
# 5 0.022576 -0.003054 0.018343 0.000001 0.064984 0.000001
# 6 0.000001 0.000000 0.000002 0.007760 0.000001 0.042435
#
#
# Mechanical properties :
#
#
# Convention : Reuss Voigt Hill
#
# Bulk Modulus (GPa) = 13.49280 36.75358 25.12319
# Shear Modulus (GPa) = 20.98784 29.18048 25.08416
#
# Velocity S-wave (km/s) = 2.96850 3.50025 3.24529
# Velocity P-wave (km/s) = 4.17306 5.63623 4.95891
#
# Compressibility (1/GPa) = 0.07411358
#
# Stress axis : x y z
#
# Youngs Moduli (GPa) = 34.10420 120.96180 27.69896
#
# Poissons Ratio (x) = 0.76542 -0.31824
# Poissons Ratio (y) = 0.21580 0.13712
# Poissons Ratio (z) = -0.39183 0.59881
#
# Static dielectric constant tensor:
#      x y z
#    x 1.954970 0.000000 0.031660 
#    y 0.000000 1.978170 0.000000 
#    z 0.031660 0.000000 1.836700 
# 
# From -- ./inp_files/147251.got.cif
#   From: 2010.05.17/outbox.cif.g08.bks.cpg/sg15_74_cif.got.tgz:147251.got - 2010.06.03 18:47:42.
