data_PCOD9286543
_publ_section_title
;
Structure prediction by ZEFSAII (Michael W. Deem and Ramdas Pophale) SiO2 
 PCOD9286543
Probable space group: C 2/C
;
_chemical_formula_sum "Si O2"
_cell_formula_units_Z 32
_cell_length_a 8.056692
_cell_length_b 13.169136
_cell_length_c 14.288751
_cell_angle_alpha 90.000000
_cell_angle_beta 71.365364
_cell_angle_gamma 90.000000
_cell_volume 1436.554476
_symmetry_space_group_name_H-M "C 2/C"
_symmetry_group_IT_number 15
_symmetry_cell_setting 'monoclinic'
loop_
_space_group_symop_operation_xyz
x,y,z
-x,y,1/2-z
-x,-y,-z
x,-y,1/2+z
1/2+x,1/2+y,z
1/2-x,1/2+y,1/2-z
1/2-x,1/2-y,-z
1/2+x,1/2-y,1/2+z
loop_
_atom_site_type_symbol
_atom_site_label
_atom_site_fract_x
_atom_site_fract_y
_atom_site_fract_z
Si Si1 0.045985 0.801477 0.848762
Si Si2 0.166135 0.964398 0.532712
Si Si3 0.194155 0.129523 0.691331
Si Si4 0.682213 0.984118 0.675463
O O1 0.160432 0.709515 0.869084
O O2 0.000000 0.778719 0.750000
O O3 0.875487 0.848825 0.930356
O O4 0.178638 0.896634 0.828230
O O5 0.323599 0.985220 0.432452
O O6 0.176611 0.037645 0.620344
O O7 0.000000 0.000000 0.500000
O O8 0.260520 0.082108 0.776289
O O9 0.000000 0.172115 0.750000
O O10 0.500000 0.949352 0.750000
#
# Coordination Sequence:
#
# PCOD9286543 Si02
#       4
#     8   8   8   8
#     4  11  22  44  68 100 138 181 225 280 342 402
#     4  10  21  43  71  93 142 181 222 284 340 396
#     4  12  22  43  70 100 140 180 223 282 339 403
#     4  11  23  43  67 100 137 180 227 281 340 403
#
# _framework density 22.275521000000001
#
# number of rings (size 3 to 8) (size 9 to 14) (size 15 to 20)
#    0.000    1.000    7.500    1.500    0.000    5.000 
#    4.500    2.500    0.000    0.000    0.000    0.000 
#    0.000    0.000    0.000    0.000    0.000    0.000 
#
# Total GULP energy -89340.684293 kJ/mol
# GULP energy per Si atom -5583.792768 kJ/mol
# Density = 2.222482 g / cm^3
# Si number density = 22.275521 Si / 1000 Ang^3
#
#
#
# Elastic Constant Matrix: (Units=GPa)
#
#
# Indices 1 2 3 4 5 6 
#
# 1 49.2811 28.1759 25.4805 0.0000 -4.5647 0.0000
# 2 28.1759 107.7243 20.2126 0.0000 -4.3539 0.0000
# 3 25.4805 20.2126 116.0533 0.0000 -7.4137 0.0000
# 4 0.0000 0.0000 0.0000 9.0210 0.0000 -5.4125
# 5 -4.5647 -4.3539 -7.4137 0.0000 30.4028 0.0000
# 6 0.0000 0.0000 0.0000 -5.4125 0.0000 51.5048
#
#
#
# Elastic Compliance Matrix: (Units=1/GPa)
#
#
# Indices 1 2 3 4 5 6 
#
# 1 0.026239 -0.005920 -0.004604 0.000000 0.001969 0.000000
# 2 -0.005920 0.010961 -0.000575 0.000000 0.000541 0.000000
# 3 -0.004604 -0.000575 0.009831 0.000000 0.001624 0.000000
# 4 0.000000 0.000000 0.000000 0.118312 0.000000 0.012433
# 5 0.001969 0.000541 0.001624 0.000000 0.033661 0.000000
# 6 0.000000 0.000000 0.000000 0.012433 0.000000 0.020722
#
#
# Mechanical properties :
#
#
# Convention : Reuss Voigt Hill
#
# Bulk Modulus (GPa) = 40.26668 46.75519 43.51093
# Shear Modulus (GPa) = 19.98386 31.46502 25.72444
#
# Velocity S-wave (km/s) = 2.99845 3.76245 3.40197
# Velocity P-wave (km/s) = 5.48666 6.31742 5.91664
#
# Compressibility (1/GPa) = 0.02483443
#
# Stress axis : x y z
#
# Youngs Moduli (GPa) = 38.11094 91.23301 101.71404
#
# Poissons Ratio (x) = 0.54006 0.46832
# Poissons Ratio (y) = 0.22560 0.05847
# Poissons Ratio (z) = 0.17547 0.05244
#
# Static dielectric constant tensor:
#      x y z
#    x 1.892730 0.000000 -0.110460 
#    y 0.000000 1.818180 0.000000 
#    z -0.110460 0.000000 1.889660 
# 
# From -- ./inp_files/75545.got.cif
#   From: 2010.05.17/outbox.cif.g08.bks.cpg/sg15_38_cif.got.tgz:75545.got - 2010.06.03 18:47:42.
