data_PCOD9286471
_publ_section_title
;
Structure prediction by ZEFSAII (Michael W. Deem and Ramdas Pophale) SiO2 
 PCOD9286471
Probable space group: C 2/C
;
_chemical_formula_sum "Si O2"
_cell_formula_units_Z 52
_cell_length_a 9.041094
_cell_length_b 18.446334
_cell_length_c 18.905761
_cell_angle_alpha 90.000000
_cell_angle_beta 126.280583
_cell_angle_gamma 90.000000
_cell_volume 2541.731595
_symmetry_space_group_name_H-M "C 2/C"
_symmetry_group_IT_number 15
_symmetry_cell_setting 'monoclinic'
loop_
_space_group_symop_operation_xyz
x,y,z
-x,y,1/2-z
-x,-y,-z
x,-y,1/2+z
1/2+x,1/2+y,z
1/2-x,1/2+y,1/2-z
1/2-x,1/2-y,-z
1/2+x,1/2-y,1/2+z
loop_
_atom_site_type_symbol
_atom_site_label
_atom_site_fract_x
_atom_site_fract_y
_atom_site_fract_z
Si Si1 0.006241 0.233609 0.630331
Si Si2 0.269695 0.652438 0.448060
Si Si3 0.681172 0.337703 0.838205
Si Si4 0.980954 0.068580 0.090823
Si Si5 0.892693 0.515060 0.042952
Si Si6 0.248041 0.506494 0.214340
Si Si7 0.500000 0.618315 0.750000
O O1 0.866777 0.290851 0.627580
O O2 0.902414 0.196484 0.536124
O O3 0.165364 0.280591 0.639216
O O4 0.046507 0.170346 0.697497
O O5 0.386280 0.602503 0.429559
O O6 0.147405 0.599976 0.461717
O O7 0.500000 0.308379 0.750000
O O8 0.614770 0.362777 0.896603
O O9 0.726717 0.416550 0.817695
O O10 0.118946 0.020316 0.179951
O O11 0.805705 0.023443 0.014169
O O12 0.028074 0.495312 0.147281
O O13 0.000000 0.500000 0.000000
O O14 0.332238 0.438456 0.195737
#
# Coordination Sequence:
#
# PCOD9286471 Si02
#       7
#     8   8   8   8   8   8   4
#     4  11  25  43  65  99 143 181 227 293 360 424
#     4  11  25  42  65 103 138 181 238 286 360 426
#     4  10  21  43  69  96 136 187 231 281 350 428
#     4  11  23  41  72  97 138 183 241 296 338 423
#     4  12  21  40  71  96 135 182 232 290 349 402
#     4  11  21  43  70  98 131 184 240 277 348 421
#     4  12  24  42  72 102 138 178 240 298 340 418
#
# _framework density 20.458494000000002
#
# number of rings (size 3 to 8) (size 9 to 14) (size 15 to 20)
#    0.000    0.923    5.385    2.308    4.308    2.462 
#    2.769    0.000    0.000    0.000    0.000    0.000 
#    0.000    0.000    0.000    0.000    0.000    0.000 
#
# Total GULP energy -144895.638088 kJ/mol
# GULP energy per Si atom -5572.909157 kJ/mol
# Density = 2.041193 g / cm^3
# Si number density = 20.458494 Si / 1000 Ang^3
#
#
#
# Elastic Constant Matrix: (Units=GPa)
#
#
# Indices 1 2 3 4 5 6 
#
# 1 83.9710 53.6809 50.8990 0.0000 14.4149 0.0000
# 2 53.6809 121.1974 48.6496 0.0000 12.7197 0.0000
# 3 50.8990 48.6496 109.0201 0.0000 34.4847 0.0000
# 4 0.0000 0.0000 0.0000 19.2745 0.0000 10.8849
# 5 14.4149 12.7197 34.4847 0.0000 31.3565 0.0000
# 6 0.0000 0.0000 0.0000 10.8849 0.0000 48.4782
#
#
#
# Elastic Compliance Matrix: (Units=1/GPa)
#
#
# Indices 1 2 3 4 5 6 
#
# 1 0.019789 -0.006138 -0.006763 0.000000 0.000830 0.000000
# 2 -0.006138 0.011990 -0.002820 0.000000 0.001059 0.000000
# 3 -0.006763 -0.002820 0.018774 0.000000 -0.016394 0.000000
# 4 0.000000 0.000000 0.000000 0.059416 0.000000 -0.013341
# 5 0.000830 0.001059 -0.016394 0.000000 0.049110 0.000000
# 6 0.000000 0.000000 0.000000 -0.013341 0.000000 0.023623
#
#
# Mechanical properties :
#
#
# Convention : Reuss Voigt Hill
#
# Bulk Modulus (GPa) = 52.32076 68.96083 60.64079
# Shear Modulus (GPa) = 22.67417 30.55244 26.61330
#
# Velocity S-wave (km/s) = 3.33273 3.86863 3.61063
# Velocity P-wave (km/s) = 6.35917 7.33048 6.86203
#
# Compressibility (1/GPa) = 0.01911287
#
# Stress axis : x y z
#
# Youngs Moduli (GPa) = 50.53235 83.40059 53.26430
#
# Poissons Ratio (x) = 0.51187 0.36022
# Poissons Ratio (y) = 0.31014 0.15021
# Poissons Ratio (z) = 0.34174 0.23520
#
# Static dielectric constant tensor:
#      x y z
#    x 1.764870 0.000000 0.008380 
#    y 0.000000 1.717550 0.000000 
#    z 0.008380 0.000000 1.802970 
# 
# From -- ./inp_files/233104.got.cif
#   From: 2010.05.17/outbox.cif.g08.bks.cpg/sg15_117_cif.got.tgz:233104.got - 2010.06.03 18:47:42.
