data_PCOD9286178
_publ_section_title
;
Structure prediction by ZEFSAII (Michael W. Deem and Ramdas Pophale) SiO2 
 PCOD9286178
Probable space group: C 2/C
;
_chemical_formula_sum "Si O2"
_cell_formula_units_Z 52
_cell_length_a 7.932866
_cell_length_b 14.754765
_cell_length_c 29.325501
_cell_angle_alpha 90.000000
_cell_angle_beta 138.758407
_cell_angle_gamma 90.000000
_cell_volume 2262.811804
_symmetry_space_group_name_H-M "C 2/C"
_symmetry_group_IT_number 15
_symmetry_cell_setting 'monoclinic'
loop_
_space_group_symop_operation_xyz
x,y,z
-x,y,1/2-z
-x,-y,-z
x,-y,1/2+z
1/2+x,1/2+y,z
1/2-x,1/2+y,1/2-z
1/2-x,1/2-y,-z
1/2+x,1/2-y,1/2+z
loop_
_atom_site_type_symbol
_atom_site_label
_atom_site_fract_x
_atom_site_fract_y
_atom_site_fract_z
Si Si1 0.125962 0.674005 0.141404
Si Si2 0.695973 0.364317 0.725026
Si Si3 0.041637 0.749279 0.614701
Si Si4 0.500000 0.972923 0.250000
Si Si5 0.224693 0.552824 0.483864
Si Si6 0.718073 0.638150 0.615931
Si Si7 0.045286 0.362900 0.482615
O O1 0.177355 0.683628 0.205552
O O2 0.392779 0.634097 0.174933
O O3 0.088519 0.768987 0.107872
O O4 0.902485 0.603467 0.084635
O O5 0.718519 0.312825 0.681247
O O6 0.816671 0.462358 0.742430
O O7 0.944387 0.672014 0.629447
O O8 0.122587 0.700901 0.584578
O O9 0.791947 0.807571 0.549840
O O10 0.669361 0.913134 0.317957
O O11 0.522653 0.574916 0.548839
O O12 0.146696 0.449108 0.474836
O O13 0.104108 0.601617 0.504101
#
# Coordination Sequence:
#
# PCOD9286178 Si02
#       7
#     8   8   8   4   8   8   8
#     4  10  22  44  67  88 126 175 204 261 317 388
#     4  10  22  43  64  85 128 166 216 255 318 373
#     4  10  21  43  62  91 126 170 196 269 313 376
#     4  12  26  40  62  96 122 168 210 276 308 372
#     4  11  22  40  65 102 121 169 208 266 308 386
#     4  11  23  40  64  94 131 160 214 254 326 375
#     4  10  22  37  65  93 129 159 212 251 321 365
#
# _framework density 22.980259
#
# number of rings (size 3 to 8) (size 9 to 14) (size 15 to 20)
#    0.000    1.538    3.077    3.231    4.308    1.846 
#    2.769    0.000    0.000    0.000    0.000    0.000 
#    0.000    0.000    0.000    0.000    0.000    0.000 
#
# Total GULP energy -145524.838610 kJ/mol
# GULP energy per Si atom -5597.109177 kJ/mol
# Density = 2.292796 g / cm^3
# Si number density = 22.980259 Si / 1000 Ang^3
#
#
#
# Elastic Constant Matrix: (Units=GPa)
#
#
# Indices 1 2 3 4 5 6 
#
# 1 53.0070 -0.2582 -5.4052 0.0000 -6.3835 0.0000
# 2 -0.2582 58.3156 16.3006 0.0000 -4.3407 0.0000
# 3 -5.4052 16.3006 126.6598 0.0000 -12.8413 0.0000
# 4 0.0000 0.0000 0.0000 34.4840 0.0000 -22.9978
# 5 -6.3835 -4.3407 -12.8413 0.0000 37.2059 0.0000
# 6 0.0000 0.0000 0.0000 -22.9978 0.0000 14.1822
#
#
#
# Elastic Compliance Matrix: (Units=1/GPa)
#
#
# Indices 1 2 3 4 5 6 
#
# 1 0.019441 0.000028 0.001207 0.000000 0.003755 0.000000
# 2 0.000028 0.017852 -0.002160 0.000000 0.001342 0.000000
# 3 0.001207 -0.002160 0.008518 0.000000 0.002895 0.000001
# 4 0.000000 0.000000 0.000000 -0.355974 0.000001 -0.577246
# 5 0.003755 0.001342 0.002895 0.000001 0.028678 0.000001
# 6 0.000000 0.000000 0.000001 -0.577246 0.000001 -0.865550
#
#
# Mechanical properties :
#
#
# Convention : Reuss Voigt Hill
#
# Bulk Modulus (GPa) = 22.74762 28.80629 25.77695
# Shear Modulus (GPa) = -4.42270 32.33076 13.95403
#
# Velocity S-wave (km/s) = -1.38879 3.75493 2.46685
# Velocity P-wave (km/s) = 2.71083 5.60016 4.39945
#
# Compressibility (1/GPa) = 0.04396064
#
# Stress axis : x y z
#
# Youngs Moduli (GPa) = 51.43799 56.01641 117.39606
#
# Poissons Ratio (x) = -0.00159 -0.14167
# Poissons Ratio (y) = -0.00146 0.25360
# Poissons Ratio (z) = -0.06207 0.12101
#
# Static dielectric constant tensor:
#      x y z
#    x 1.918260 0.000000 0.009320 
#    y 0.000000 1.814960 0.000000 
#    z 0.009320 0.000000 1.817620 
# 
# From -- ./inp_files/308339.got.cif
#   From: 2010.05.17/outbox.cif.g08.bks.cpg/sg15_155_cif.got.tgz:308339.got - 2010.06.03 18:47:42.
