data_PCOD9286719
_publ_section_title
;
Structure prediction by ZEFSAII (Michael W. Deem and Ramdas Pophale) SiO2 
 PCOD9286719
Probable space group: C 2/C
;
_chemical_formula_sum "Si O2"
_cell_formula_units_Z 64
_cell_length_a 20.384719
_cell_length_b 19.591953
_cell_length_c 11.569056
_cell_angle_alpha 90.000000
_cell_angle_beta 34.010844
_cell_angle_gamma 90.000000
_cell_volume 2584.424621
_symmetry_space_group_name_H-M "C 2/C"
_symmetry_group_IT_number 15
_symmetry_cell_setting 'monoclinic'
loop_
_space_group_symop_operation_xyz
x,y,z
-x,y,1/2-z
-x,-y,-z
x,-y,1/2+z
1/2+x,1/2+y,z
1/2-x,1/2+y,1/2-z
1/2-x,1/2-y,-z
1/2+x,1/2-y,1/2+z
loop_
_atom_site_type_symbol
_atom_site_label
_atom_site_fract_x
_atom_site_fract_y
_atom_site_fract_z
Si Si1 0.559961 0.244996 0.774617
Si Si2 0.057921 0.188707 0.502090
Si Si3 0.208458 0.518150 0.526915
Si Si4 0.079276 0.388586 0.792309
Si Si5 0.779101 0.606411 0.207980
Si Si6 0.900649 0.935272 0.325254
Si Si7 0.348198 0.177491 0.532112
Si Si8 0.765423 0.848739 0.079753
O O1 0.500000 0.212470 0.750000
O O2 0.500156 0.271881 0.979203
O O3 0.659802 0.195134 0.677552
O O4 0.618619 0.313315 0.636007
O O5 0.185808 0.156347 0.281784
O O6 0.102407 0.246117 0.527089
O O7 0.970216 0.130499 0.675129
O O8 0.109489 0.466998 0.718484
O O9 0.180418 0.553183 0.446722
O O10 0.328916 0.475327 0.334158
O O11 0.242041 0.574823 0.572728
O O12 0.108989 0.370209 0.880907
O O13 0.161767 0.344189 0.585418
O O14 0.949567 0.369984 0.941406
O O15 0.696320 0.580863 0.434849
O O16 0.000000 0.976680 0.250000
O O17 0.241216 0.163957 0.773260
#
# Coordination Sequence:
#
# PCOD9286719 Si02
#       8
#     8   8   8   8   8   8   8   8
#     4  10  22  43  66 104 131 178 232 265 348 391
#     4  10  21  44  66  97 136 167 224 291 330 403
#     4  11  23  43  64  97 140 173 221 276 337 405
#     4  10  25  43  65  96 126 179 227 266 339 402
#     4  10  22  42  64  95 134 172 216 279 340 396
#     4   9  22  39  65  96 132 176 221 276 340 400
#     4  10  24  46  66  95 131 172 231 281 326 400
#     4  10  23  44  67  93 143 171 218 292 316 407
#
# _framework density 24.763732000000001
#
# number of rings (size 3 to 8) (size 9 to 14) (size 15 to 20)
#    0.000    2.000    1.250    0.000    8.750    7.500 
#    6.750    0.000    0.000    0.000    0.000    0.000 
#    0.000    0.000    0.000    0.000    0.000    0.000 
#
# Total GULP energy -178792.681608 kJ/mol
# GULP energy per Si atom -5587.271300 kJ/mol
# Density = 2.470737 g / cm^3
# Si number density = 24.763732 Si / 1000 Ang^3
#
#
#
# Elastic Constant Matrix: (Units=GPa)
#
#
# Indices 1 2 3 4 5 6 
#
# 1 124.7252 12.6705 2.6707 0.0000 16.4317 0.0000
# 2 12.6705 106.7315 14.4867 0.0000 2.9340 0.0000
# 3 2.6707 14.4867 29.8692 0.0000 19.8104 0.0000
# 4 0.0000 0.0000 0.0000 28.8470 0.0000 2.6991
# 5 16.4317 2.9340 19.8104 0.0000 42.7411 0.0000
# 6 0.0000 0.0000 0.0000 2.6991 0.0000 32.8741
#
#
#
# Elastic Compliance Matrix: (Units=1/GPa)
#
#
# Indices 1 2 3 4 5 6 
#
# 1 0.008693 -0.001300 0.002903 0.000000 -0.004598 0.000000
# 2 -0.001300 0.010378 -0.006896 0.000000 0.002983 0.000000
# 3 0.002903 -0.006896 0.053409 0.000000 -0.025398 0.000000
# 4 0.000000 0.000000 0.000000 0.034934 0.000000 -0.002868
# 5 -0.004598 0.002983 -0.025398 0.000000 0.036731 0.000000
# 6 0.000000 0.000000 0.000000 -0.002868 0.000000 0.030655
#
#
# Mechanical properties :
#
#
# Convention : Reuss Voigt Hill
#
# Bulk Modulus (GPa) = 16.15643 35.66464 25.91053
# Shear Modulus (GPa) = 24.26993 36.32564 30.29778
#
# Velocity S-wave (km/s) = 3.13399 3.83415 3.50161
# Velocity P-wave (km/s) = 4.43105 5.83388 5.18018
#
# Compressibility (1/GPa) = 0.06189487
#
# Stress axis : x y z
#
# Youngs Moduli (GPa) = 115.03118 96.36215 18.72348
#
# Poissons Ratio (x) = 0.12523 -0.05435
# Poissons Ratio (y) = 0.14950 0.12911
# Poissons Ratio (z) = -0.33392 0.66448
#
# Static dielectric constant tensor:
#      x y z
#    x 2.053840 0.000000 -0.018720 
#    y 0.000000 2.003480 0.000000 
#    z -0.018720 0.000000 2.023880 
# 
# From -- ./inp_files/114232.got.cif
#   From: 2010.05.17/outbox.cif.g08.bks.cpg/sg15_58_cif.got.tgz:114232.got - 2010.06.03 18:47:42.
