data_PCOD9286724
_publ_section_title
;
Structure prediction by ZEFSAII (Michael W. Deem and Ramdas Pophale) SiO2 
 PCOD9286724
Probable space group: C 2/C
;
_chemical_formula_sum "Si O2"
_cell_formula_units_Z 48
_cell_length_a 5.148295
_cell_length_b 28.802702
_cell_length_c 15.201686
_cell_angle_alpha 90.000000
_cell_angle_beta 61.637071
_cell_angle_gamma 90.000000
_cell_volume 1983.578675
_symmetry_space_group_name_H-M "C 2/C"
_symmetry_group_IT_number 15
_symmetry_cell_setting 'monoclinic'
loop_
_space_group_symop_operation_xyz
x,y,z
-x,y,1/2-z
-x,-y,-z
x,-y,1/2+z
1/2+x,1/2+y,z
1/2-x,1/2+y,1/2-z
1/2-x,1/2-y,-z
1/2+x,1/2-y,1/2+z
loop_
_atom_site_type_symbol
_atom_site_label
_atom_site_fract_x
_atom_site_fract_y
_atom_site_fract_z
Si Si1 0.901525 0.295797 0.527743
Si Si2 0.464147 0.729291 0.856719
Si Si3 0.850511 0.364321 0.686847
Si Si4 0.345694 0.057074 0.944943
Si Si5 0.284246 0.152532 0.865407
Si Si6 0.832535 0.548719 0.424912
O O1 0.133596 0.261261 0.441873
O O2 0.809792 0.259393 0.620990
O O3 0.975217 0.337940 0.581917
O O4 0.778981 0.323261 0.462788
O O5 0.500000 0.738370 0.750000
O O6 0.485999 0.673824 0.872217
O O7 0.500000 0.359971 0.750000
O O8 0.000000 0.344627 0.750000
O O9 0.952250 0.417394 0.661299
O O10 0.355841 0.099419 0.875334
O O11 0.373478 0.005741 0.899641
O O12 0.582963 0.057674 0.985813
O O13 0.010722 0.060155 0.037100
O O14 0.500000 0.167640 0.750000
#
# Coordination Sequence:
#
# PCOD9286724 Si02
#       6
#     8   8   8   8   8   8
#     4  11  25  45  68  98 143 183 227 301 354 422
#     4  11  24  45  71 101 136 182 238 291 361 433
#     4  12  26  43  71 104 143 191 244 288 354 428
#     4  10  22  40  73  99 140 186 236 286 365 411
#     4  12  24  41  68 102 134 183 230 295 352 432
#     4  10  21  44  67 101 140 190 233 296 350 422
#
# _framework density 24.198688000000001
#
# number of rings (size 3 to 8) (size 9 to 14) (size 15 to 20)
#    0.000    1.000    3.333    3.000    2.333    1.333 
#    0.000    0.000    0.000    0.000    0.000    0.000 
#    0.000    0.000    0.000    0.000    0.000    0.000 
#
# Total GULP energy -133717.541907 kJ/mol
# GULP energy per Si atom -5571.564246 kJ/mol
# Density = 2.414361 g / cm^3
# Si number density = 24.198688 Si / 1000 Ang^3
#
#
#
# Elastic Constant Matrix: (Units=GPa)
#
#
# Indices 1 2 3 4 5 6 
#
# 1 85.2739 23.1217 40.8590 0.0000 12.6647 0.0000
# 2 23.1217 145.2129 45.9121 0.0000 14.0048 0.0000
# 3 40.8590 45.9121 155.3290 0.0000 26.6908 0.0000
# 4 0.0000 0.0000 0.0000 78.2410 0.0000 -29.7073
# 5 12.6647 14.0048 26.6908 0.0000 37.5191 0.0000
# 6 0.0000 0.0000 0.0000 -29.7073 0.0000 12.1570
#
#
#
# Elastic Compliance Matrix: (Units=1/GPa)
#
#
# Indices 1 2 3 4 5 6 
#
# 1 0.013738 -0.001052 -0.002932 0.000000 -0.002159 0.000000
# 2 -0.001052 0.007743 -0.001796 0.000000 -0.001258 0.000000
# 3 -0.002932 -0.001796 0.008493 0.000000 -0.004382 0.000000
# 4 0.000000 0.000000 0.000000 0.177091 0.000000 0.432747
# 5 -0.002159 -0.001258 -0.004382 0.000000 0.030968 0.000000
# 6 0.000000 0.000000 0.000000 0.432747 0.000000 1.139739
#
#
# Mechanical properties :
#
#
# Convention : Reuss Voigt Hill
#
# Bulk Modulus (GPa) = 54.30644 67.28906 60.79775
# Shear Modulus (GPa) = 3.58302 43.97830 23.78066
#
# Velocity S-wave (km/s) = 1.21815 4.26770 3.13825
# Velocity P-wave (km/s) = 4.94663 7.22161 6.18954
#
# Compressibility (1/GPa) = 0.01841402
#
# Stress axis : x y z
#
# Youngs Moduli (GPa) = 72.79310 129.14810 117.74590
#
# Poissons Ratio (x) = 0.13590 0.34519
# Poissons Ratio (y) = 0.07660 0.21145
# Poissons Ratio (z) = 0.21340 0.23192
#
# Static dielectric constant tensor:
#      x y z
#    x 2.074450 0.000000 -0.097400 
#    y 0.000000 1.980940 0.000000 
#    z -0.097400 0.000000 1.953200 
# 
# From -- ./inp_files/130586.got.cif
#   From: 2010.05.17/outbox.cif.g08.bks.cpg/sg15_66_cif.got.tgz:130586.got - 2010.06.03 18:47:42.
