data_PCOD9286897
_publ_section_title
;
Structure prediction by ZEFSAII (Michael W. Deem and Ramdas Pophale) SiO2 
 PCOD9286897
Probable space group: C 2/C
;
_chemical_formula_sum "Si O2"
_cell_formula_units_Z 40
_cell_length_a 8.508597
_cell_length_b 14.021048
_cell_length_c 14.864170
_cell_angle_alpha 90.000000
_cell_angle_beta 66.386283
_cell_angle_gamma 90.000000
_cell_volume 1624.804345
_symmetry_space_group_name_H-M "C 2/C"
_symmetry_group_IT_number 15
_symmetry_cell_setting 'monoclinic'
loop_
_space_group_symop_operation_xyz
x,y,z
-x,y,1/2-z
-x,-y,-z
x,-y,1/2+z
1/2+x,1/2+y,z
1/2-x,1/2+y,1/2-z
1/2-x,1/2-y,-z
1/2+x,1/2-y,1/2+z
loop_
_atom_site_type_symbol
_atom_site_label
_atom_site_fract_x
_atom_site_fract_y
_atom_site_fract_z
Si Si1 0.595411 0.318802 0.808180
Si Si2 0.494629 0.472923 0.359099
Si Si3 0.535773 0.162627 0.332241
Si Si4 0.931616 0.698765 0.978539
Si Si5 0.714545 0.006080 0.562697
O O1 0.500000 0.265069 0.750000
O O2 0.488965 0.411103 0.860641
O O3 0.766647 0.361822 0.728261
O O4 0.589894 0.245558 0.889679
O O5 0.500000 0.446702 0.250000
O O6 0.329024 0.452186 0.459798
O O7 0.660791 0.453385 0.385817
O O8 0.500000 0.221050 0.250000
O O9 0.526656 0.214439 0.427536
O O10 0.412642 0.071937 0.365909
O O11 0.895689 0.589818 0.958438
O O12 0.750000 0.750000 0.000000
#
# Coordination Sequence:
#
# PCOD9286897 Si02
#       5
#     8   8   8   8   8
#     4  11  22  45  72 101 146 193 226 298 365 423
#     4  10  21  44  74 105 148 190 233 301 361 424
#     4  12  26  47  71 105 145 191 240 301 356 431
#     4  12  24  45  74 105 145 189 242 297 367 430
#     4  11  24  43  75 107 140 194 248 286 360 445
#
# _framework density 24.618348000000001
#
# number of rings (size 3 to 8) (size 9 to 14) (size 15 to 20)
#    0.000    0.800    6.000    1.800    0.000    1.600 
#    3.600    1.000    0.000    1.200    0.000    0.000 
#    0.000    0.000    0.000    0.000    0.000    0.000 
#
# Total GULP energy -111667.965665 kJ/mol
# GULP energy per Si atom -5583.398283 kJ/mol
# Density = 2.456232 g / cm^3
# Si number density = 24.618348 Si / 1000 Ang^3
#
#
#
# Elastic Constant Matrix: (Units=GPa)
#
#
# Indices 1 2 3 4 5 6 
#
# 1 82.7169 12.1137 72.3182 0.0000 7.7217 0.0000
# 2 12.1137 55.2750 36.2659 0.0000 -6.3713 0.0000
# 3 72.3182 36.2659 209.8592 0.0000 13.0612 0.0000
# 4 0.0000 0.0000 0.0000 27.2048 0.0000 -4.6602
# 5 7.7217 -6.3713 13.0612 0.0000 70.1772 0.0000
# 6 0.0000 0.0000 0.0000 -4.6602 0.0000 14.3156
#
#
#
# Elastic Compliance Matrix: (Units=1/GPa)
#
#
# Indices 1 2 3 4 5 6 
#
# 1 0.017347 -0.000006 -0.005927 0.000000 -0.000806 0.000000
# 2 -0.000006 0.020862 -0.003765 0.000000 0.002595 0.000000
# 3 -0.005927 -0.003765 0.007526 0.000000 -0.001090 0.000000
# 4 0.000000 0.000000 0.000000 0.038929 0.000000 0.012673
# 5 -0.000806 0.002595 -0.001090 0.000000 0.014777 0.000000
# 6 0.000000 0.000000 0.000000 0.012673 0.000000 0.073979
#
#
# Mechanical properties :
#
#
# Convention : Reuss Voigt Hill
#
# Bulk Modulus (GPa) = 37.96489 65.47183 51.71836
# Shear Modulus (GPa) = 24.80224 37.48308 31.14266
#
# Velocity S-wave (km/s) = 3.17751 3.90624 3.56057
# Velocity P-wave (km/s) = 5.37745 6.85547 6.16094
#
# Compressibility (1/GPa) = 0.02634013
#
# Stress axis : x y z
#
# Youngs Moduli (GPa) = 57.64628 47.93457 132.87517
#
# Poissons Ratio (x) = 0.00029 0.78751
# Poissons Ratio (y) = 0.00035 0.50022
# Poissons Ratio (z) = 0.34165 0.18045
#
# Static dielectric constant tensor:
#      x y z
#    x 2.126770 0.000000 0.110200 
#    y 0.000000 1.903670 0.000000 
#    z 0.110200 0.000000 1.777770 
# 
# From -- ./inp_files/76912.got.cif
#   From: 2010.05.17/outbox.cif.g08.bks.cpg/sg15_39_cif.got.tgz:76912.got - 2010.06.03 18:47:42.
