data_PCOD9286535
_publ_section_title
;
Structure prediction by ZEFSAII (Michael W. Deem and Ramdas Pophale) SiO2 
 PCOD9286535
Probable space group: C 2/C
;
_chemical_formula_sum "Si O2"
_cell_formula_units_Z 40
_cell_length_a 6.655330
_cell_length_b 17.763904
_cell_length_c 21.656943
_cell_angle_alpha 90.000000
_cell_angle_beta 42.452606
_cell_angle_gamma 90.000000
_cell_volume 1728.208528
_symmetry_space_group_name_H-M "C 2/C"
_symmetry_group_IT_number 15
_symmetry_cell_setting 'monoclinic'
loop_
_space_group_symop_operation_xyz
x,y,z
-x,y,1/2-z
-x,-y,-z
x,-y,1/2+z
1/2+x,1/2+y,z
1/2-x,1/2+y,1/2-z
1/2-x,1/2-y,-z
1/2+x,1/2-y,1/2+z
loop_
_atom_site_type_symbol
_atom_site_label
_atom_site_fract_x
_atom_site_fract_y
_atom_site_fract_z
Si Si1 0.308361 0.840310 0.034663
Si Si2 0.363419 0.891648 0.660729
Si Si3 0.140192 0.699399 0.650055
Si Si4 0.250987 0.277597 0.650957
Si Si5 0.831063 0.563931 0.648428
O O1 0.361781 0.769585 0.067602
O O2 0.319271 0.911309 0.079318
O O3 0.982980 0.819439 0.082973
O O4 0.514783 0.856449 0.930038
O O5 0.564275 0.849387 0.667744
O O6 0.000000 0.885415 0.750000
O O7 0.440509 0.979916 0.637980
O O8 0.000000 0.707316 0.750000
O O9 0.026433 0.770517 0.635234
O O10 0.017977 0.626249 0.642263
O O11 0.000000 0.236522 0.750000
O O12 0.500000 0.565962 0.750000
#
# Coordination Sequence:
#
# PCOD9286535 Si02
#       5
#     8   8   8   8   8
#     4  11  22  45  74  99 132 191 239 278 347 433
#     4  11  27  46  65 102 153 178 223 301 362 414
#     4  11  20  40  77  99 132 178 246 291 331 429
#     4  11  24  44  68 100 133 184 231 284 355 416
#     4  10  21  43  71 106 133 182 233 289 354 418
#
# _framework density 23.145354999999999
#
# number of rings (size 3 to 8) (size 9 to 14) (size 15 to 20)
#    0.000    1.200    4.000    2.400    2.800    2.400 
#    7.200    0.000    0.000    0.000    0.000    0.000 
#    0.000    0.000    0.000    0.000    0.000    0.000 
#
# Total GULP energy -111689.798157 kJ/mol
# GULP energy per Si atom -5584.489908 kJ/mol
# Density = 2.309268 g / cm^3
# Si number density = 23.145355 Si / 1000 Ang^3
#
#
#
# Elastic Constant Matrix: (Units=GPa)
#
#
# Indices 1 2 3 4 5 6 
#
# 1 203.7586 96.2665 79.4423 0.0004 12.1125 0.0001
# 2 96.2665 161.5595 23.3972 0.0000 8.3721 -0.0006
# 3 79.4423 23.3972 151.4889 -0.0001 21.6952 -0.0011
# 4 0.0004 0.0000 -0.0001 18.7913 0.0000 -7.1987
# 5 12.1125 8.3721 21.6952 0.0000 38.8055 0.0005
# 6 0.0001 -0.0006 -0.0011 -7.1987 0.0005 46.8090
#
#
#
# Elastic Compliance Matrix: (Units=1/GPa)
#
#
# Indices 1 2 3 4 5 6 
#
# 1 0.008523 -0.004548 -0.003834 0.000000 0.000464 0.000000
# 2 -0.004548 0.008786 0.001191 0.000000 -0.001142 0.000000
# 3 -0.003834 0.001191 0.009015 0.000000 -0.004100 0.000000
# 4 0.000000 0.000000 0.000000 0.056548 0.000000 0.008696
# 5 0.000464 -0.001142 -0.004100 0.000000 0.028164 0.000000
# 6 0.000000 0.000000 0.000000 0.008696 0.000000 0.022701
#
#
# Mechanical properties :
#
#
# Convention : Reuss Voigt Hill
#
# Bulk Modulus (GPa) = 83.72261 101.66879 92.69570
# Shear Modulus (GPa) = 32.87352 42.06121 37.46737
#
# Velocity S-wave (km/s) = 3.77279 4.26756 4.02778
# Velocity P-wave (km/s) = 7.43166 8.26465 7.85920
#
# Compressibility (1/GPa) = 0.01194421
#
# Stress axis : x y z
#
# Youngs Moduli (GPa) = 117.32271 113.81678 110.92748
#
# Poissons Ratio (x) = 0.51759 0.42529
# Poissons Ratio (y) = 0.53354 -0.13216
# Poissons Ratio (z) = 0.44980 -0.13560
#
# Static dielectric constant tensor:
#      x y z
#    x 1.911600 0.000000 -0.021100 
#    y 0.000000 1.924500 0.000000 
#    z -0.021100 0.000000 1.897050 
# 
# From -- ./inp_files/227456.got.cif
#   From: 2010.05.17/outbox.cif.g08.bks.cpg/sg15_114_cif.got.tgz:227456.got - 2010.06.03 18:47:42.
