data_PCOD9286489
_publ_section_title
;
Structure prediction by ZEFSAII (Michael W. Deem and Ramdas Pophale) SiO2 
 PCOD9286489
Probable space group: C 2/C
;
_chemical_formula_sum "Si O2"
_cell_formula_units_Z 44
_cell_length_a 13.356642
_cell_length_b 16.492971
_cell_length_c 8.453056
_cell_angle_alpha 90.000000
_cell_angle_beta 66.834607
_cell_angle_gamma 90.000000
_cell_volume 1711.991983
_symmetry_space_group_name_H-M "C 2/C"
_symmetry_group_IT_number 15
_symmetry_cell_setting 'monoclinic'
loop_
_space_group_symop_operation_xyz
x,y,z
-x,y,1/2-z
-x,-y,-z
x,-y,1/2+z
1/2+x,1/2+y,z
1/2-x,1/2+y,1/2-z
1/2-x,1/2-y,-z
1/2+x,1/2-y,1/2+z
loop_
_atom_site_type_symbol
_atom_site_label
_atom_site_fract_x
_atom_site_fract_y
_atom_site_fract_z
Si Si1 0.500000 0.398593 0.250000
Si Si2 0.850206 0.346225 0.100658
Si Si3 0.632171 0.284474 0.396979
Si Si4 0.723079 0.523869 0.507403
Si Si5 0.825350 0.592420 0.137056
Si Si6 0.500000 0.758716 0.250000
Si Si7 0.500000 0.878662 0.750000
O O1 0.542045 0.338325 0.360933
O O2 0.398613 0.455060 0.364823
O O3 0.740626 0.308252 0.235152
O O4 0.807927 0.434919 0.079369
O O5 0.939024 0.318735 0.169056
O O6 0.909658 0.324797 0.896891
O O7 0.649083 0.187414 0.388892
O O8 0.590446 0.294925 0.603910
O O9 0.740434 0.564799 0.326551
O O10 0.771360 0.434235 0.503318
O O11 0.939674 0.567562 0.154285
#
# Coordination Sequence:
#
# PCOD9286489 Si02
#       7
#     4   8   8   8   8   4   4
#     4  10  25  52  72 100 139 204 236 298 353 442
#     4  10  24  44  66 105 140 187 234 304 354 433
#     4  11  25  45  73 104 144 185 256 287 360 419
#     4  10  26  44  72  99 147 186 243 289 368 424
#     4  11  24  43  68 105 137 190 232 303 348 440
#     4  12  24  41  68 106 141 184 234 318 350 411
#     4  10  21  43  70 100 140 184 234 292 375 411
#
# _framework density 25.701055
#
# number of rings (size 3 to 8) (size 9 to 14) (size 15 to 20)
#    0.000    1.455    1.818    1.091    7.636    8.000 
#    0.000    0.909    0.000    0.000    0.000    0.000 
#    0.000    0.000    0.000    0.000    0.000    0.000 
#
# Total GULP energy -122535.843373 kJ/mol
# GULP energy per Si atom -5569.811062 kJ/mol
# Density = 2.564256 g / cm^3
# Si number density = 25.701055 Si / 1000 Ang^3
#
#
#
# Elastic Constant Matrix: (Units=GPa)
#
#
# Indices 1 2 3 4 5 6 
#
# 1 88.9707 30.3990 45.3965 0.0000 -27.9953 0.0000
# 2 30.3990 57.7898 24.5864 0.0000 -10.5937 0.0000
# 3 45.3965 24.5864 177.9827 0.0000 -32.2301 0.0000
# 4 0.0000 0.0000 0.0000 23.1667 0.0000 -5.2756
# 5 -27.9953 -10.5937 -32.2301 0.0000 43.6075 0.0000
# 6 0.0000 0.0000 0.0000 -5.2756 0.0000 15.2103
#
#
#
# Elastic Compliance Matrix: (Units=1/GPa)
#
#
# Indices 1 2 3 4 5 6 
#
# 1 0.016993 -0.006655 -0.002000 0.000000 0.007814 0.000000
# 2 -0.006655 0.021335 -0.001252 0.000000 -0.000015 0.000000
# 3 -0.002000 -0.001252 0.006943 0.000000 0.003544 0.000000
# 4 0.000000 0.000000 0.000000 0.046867 0.000000 0.016256
# 5 0.007814 -0.000015 0.003544 0.000000 0.030564 0.000000
# 6 0.000000 0.000000 0.000000 0.016256 0.000000 0.071383
#
#
# Mechanical properties :
#
#
# Convention : Reuss Voigt Hill
#
# Bulk Modulus (GPa) = 39.28364 58.38968 48.83666
# Shear Modulus (GPa) = 22.48341 31.35431 26.91886
#
# Velocity S-wave (km/s) = 2.96092 3.49658 3.23984
# Velocity P-wave (km/s) = 5.19686 6.25057 5.74791
#
# Compressibility (1/GPa) = 0.02545589
#
# Stress axis : x y z
#
# Youngs Moduli (GPa) = 58.84828 46.87119 144.02342
#
# Poissons Ratio (x) = 0.31195 0.28802
# Poissons Ratio (y) = 0.39166 0.18038
# Poissons Ratio (z) = 0.11768 0.05870
#
# Static dielectric constant tensor:
#      x y z
#    x 2.079570 0.000000 0.032640 
#    y 0.000000 2.208910 0.000000 
#    z 0.032640 0.000000 2.096700 
# 
# From -- ./inp_files/40647.got.cif
#   From: 2010.05.17/outbox.cif.g08.bks.cpg/sg15_21_cif.got.tgz:40647.got - 2010.06.03 18:47:42.
