data_PCOD9286581
_publ_section_title
;
Structure prediction by ZEFSAII (Michael W. Deem and Ramdas Pophale) SiO2 
 PCOD9286581
Probable space group: C 2/C
;
_chemical_formula_sum "Si O2"
_cell_formula_units_Z 44
_cell_length_a 13.664022
_cell_length_b 8.588477
_cell_length_c 18.780734
_cell_angle_alpha 90.000000
_cell_angle_beta 111.642612
_cell_angle_gamma 90.000000
_cell_volume 2048.603021
_symmetry_space_group_name_H-M "C 2/C"
_symmetry_group_IT_number 15
_symmetry_cell_setting 'monoclinic'
loop_
_space_group_symop_operation_xyz
x,y,z
-x,y,1/2-z
-x,-y,-z
x,-y,1/2+z
1/2+x,1/2+y,z
1/2-x,1/2+y,1/2-z
1/2-x,1/2-y,-z
1/2+x,1/2-y,1/2+z
loop_
_atom_site_type_symbol
_atom_site_label
_atom_site_fract_x
_atom_site_fract_y
_atom_site_fract_z
Si Si1 0.901855 0.571892 0.671758
Si Si2 0.171729 0.749935 0.290302
Si Si3 0.401376 0.362927 0.867047
Si Si4 0.445829 0.147550 0.520593
Si Si5 0.184969 0.210220 0.635670
Si Si6 0.500000 0.485151 0.750000
O O1 0.865812 0.393748 0.672853
O O2 0.917825 0.601555 0.593180
O O3 0.809506 0.687736 0.670732
O O4 0.000000 0.588973 0.750000
O O5 0.298947 0.749398 0.330638
O O6 0.149322 0.714064 0.200677
O O7 0.102462 0.902149 0.289976
O O8 0.473362 0.289898 0.947319
O O9 0.360691 0.534828 0.875787
O O10 0.468627 0.390055 0.812551
O O11 0.352626 0.200452 0.443866
O O12 0.500000 0.000000 0.500000
#
# Coordination Sequence:
#
# PCOD9286581 Si02
#       6
#     8   8   8   8   8   4
#     4  11  22  41  68  96 131 175 229 279 343 422
#     4  10  21  43  72  99 131 179 236 288 348 416
#     4  10  24  44  69 101 131 184 234 282 348 423
#     4  12  26  42  65  98 141 179 221 289 352 410
#     4  10  23  44  66  97 136 176 225 288 346 417
#     4  10  22  42  74 100 138 180 238 298 342 416
#
# _framework density 21.47805
#
# number of rings (size 3 to 8) (size 9 to 14) (size 15 to 20)
#    0.000    1.455    0.909    3.273    6.364    2.909 
#    3.273    1.818    0.000    0.000    0.000    0.000 
#    0.000    0.000    0.000    0.000    0.000    0.000 
#
# Total GULP energy -122989.586999 kJ/mol
# GULP energy per Si atom -5590.435773 kJ/mol
# Density = 2.142916 g / cm^3
# Si number density = 21.478050 Si / 1000 Ang^3
#
#
#
# Elastic Constant Matrix: (Units=GPa)
#
#
# Indices 1 2 3 4 5 6 
#
# 1 102.3219 20.0550 29.9158 0.0000 -0.2852 0.0000
# 2 20.0550 43.4773 10.0448 0.0000 -3.4090 0.0000
# 3 29.9158 10.0448 79.9971 0.0000 5.6110 0.0000
# 4 0.0000 0.0000 0.0000 32.7706 0.0000 -5.0397
# 5 -0.2852 -3.4090 5.6110 0.0000 38.4486 0.0000
# 6 0.0000 0.0000 0.0000 -5.0397 0.0000 25.7734
#
#
#
# Elastic Compliance Matrix: (Units=1/GPa)
#
#
# Indices 1 2 3 4 5 6 
#
# 1 0.011789 -0.004527 -0.003858 0.000000 0.000249 0.000000
# 2 -0.004527 0.025678 -0.001706 0.000000 0.002492 0.000000
# 3 -0.003858 -0.001706 0.014316 0.000000 -0.002269 0.000000
# 4 0.000000 0.000000 0.000000 0.031461 0.000000 0.006152
# 5 0.000249 0.002492 -0.002269 0.000000 0.026563 0.000000
# 6 0.000000 0.000000 0.000000 0.006152 0.000000 0.040003
#
#
# Mechanical properties :
#
#
# Convention : Reuss Voigt Hill
#
# Bulk Modulus (GPa) = 31.64363 38.42528 35.03445
# Shear Modulus (GPa) = 27.69682 30.45056 29.07369
#
# Velocity S-wave (km/s) = 3.59491 3.76939 3.68319
# Velocity P-wave (km/s) = 5.65652 6.07237 5.86813
#
# Compressibility (1/GPa) = 0.03160194
#
# Stress axis : x y z
#
# Youngs Moduli (GPa) = 84.82517 38.94332 69.84975
#
# Poissons Ratio (x) = 0.17630 0.26945
# Poissons Ratio (y) = 0.38402 0.11917
# Poissons Ratio (z) = 0.32722 0.06644
#
# Static dielectric constant tensor:
#      x y z
#    x 1.832000 0.000000 0.002560 
#    y 0.000000 1.784350 0.000000 
#    z 0.002560 0.000000 1.734760 
# 
# From -- ./inp_files/203071.got.cif
#   From: 2010.05.17/outbox.cif.g08.bks.cpg/sg15_102_cif.got.tgz:203071.got - 2010.06.03 18:47:42.
