data_PCOD9286061
_publ_section_title
;
Structure prediction by ZEFSAII (Michael W. Deem and Ramdas Pophale) SiO2 
 PCOD9286061
Probable space group: C 2/C
;
_chemical_formula_sum "Si O2"
_cell_formula_units_Z 60
_cell_length_a 5.304492
_cell_length_b 27.671311
_cell_length_c 19.765716
_cell_angle_alpha 90.000000
_cell_angle_beta 95.181981
_cell_angle_gamma 90.000000
_cell_volume 2889.398362
_symmetry_space_group_name_H-M "C 2/C"
_symmetry_group_IT_number 15
_symmetry_cell_setting 'monoclinic'
loop_
_space_group_symop_operation_xyz
x,y,z
-x,y,1/2-z
-x,-y,-z
x,-y,1/2+z
1/2+x,1/2+y,z
1/2-x,1/2+y,1/2-z
1/2-x,1/2-y,-z
1/2+x,1/2-y,1/2+z
loop_
_atom_site_type_symbol
_atom_site_label
_atom_site_fract_x
_atom_site_fract_y
_atom_site_fract_z
Si Si1 0.168472 0.500329 0.436904
Si Si2 0.739674 0.675905 0.705258
Si Si3 0.193666 0.900321 0.522326
Si Si4 0.139079 0.547422 0.192905
Si Si5 0.737434 0.210735 0.205418
Si Si6 0.434752 0.408288 0.385077
Si Si7 0.761675 0.628487 0.402138
Si Si8 0.500000 0.467187 0.250000
O O1 0.362134 0.543949 0.456768
O O2 0.269310 0.447696 0.421410
O O3 0.000000 0.500000 0.500000
O O4 0.020685 0.520212 0.368230
O O5 0.500000 0.669816 0.750000
O O6 0.749929 0.732423 0.687134
O O7 0.701378 0.640572 0.641059
O O8 0.000000 0.663097 0.750000
O O9 0.470640 0.885573 0.556142
O O10 0.166717 0.897555 0.440882
O O11 0.969345 0.869882 0.551149
O O12 0.298696 0.586185 0.154359
O O13 0.273379 0.504767 0.236816
O O14 0.000000 0.575830 0.250000
O O15 0.500000 0.204211 0.250000
O O16 0.708884 0.177217 0.139533
O O17 0.000000 0.198755 0.250000
O O18 0.501326 0.435098 0.316875
#
# Coordination Sequence:
#
# PCOD9286061 Si02
#       8
#     8   8   8   8   8   8   8   4
#     4  11  23  42  63  89 134 182 220 259 325 398
#     4  10  24  42  66 100 132 164 220 273 334 397
#     4  11  25  43  61  96 127 179 219 261 317 411
#     4  11  23  36  56  93 122 159 217 273 311 383
#     4  10  21  42  70  99 128 169 211 276 343 392
#     4  12  23  41  66  89 133 177 219 268 333 376
#     4  11  24  42  66  91 132 166 217 271 331 386
#     4  12  24  36  60  94 126 168 216 274 324 384
#
# _framework density 20.765568999999999
#
# number of rings (size 3 to 8) (size 9 to 14) (size 15 to 20)
#    0.000    1.067    2.000    4.800    4.667    2.133 
#    0.000    1.333    0.000    0.000    0.000    0.000 
#    0.000    0.000    0.000    0.000    0.000    0.000 
#
# Total GULP energy -167632.062056 kJ/mol
# GULP energy per Si atom -5587.735402 kJ/mol
# Density = 2.071831 g / cm^3
# Si number density = 20.765569 Si / 1000 Ang^3
#
#
#
# Elastic Constant Matrix: (Units=GPa)
#
#
# Indices 1 2 3 4 5 6 
#
# 1 102.4787 31.3276 43.4395 0.0000 2.0816 0.0000
# 2 31.3276 100.2425 48.6057 0.0000 18.5076 0.0000
# 3 43.4395 48.6057 124.8944 0.0000 -5.0625 0.0000
# 4 0.0000 0.0000 0.0000 308.0336 0.0000 35.9465
# 5 2.0816 18.5076 -5.0625 0.0000 26.1492 0.0000
# 6 0.0000 0.0000 0.0000 35.9465 0.0000 11.0714
#
#
#
# Elastic Compliance Matrix: (Units=1/GPa)
#
#
# Indices 1 2 3 4 5 6 
#
# 1 0.011791 -0.002061 -0.003304 0.000000 -0.000120 0.000000
# 2 -0.002061 0.015706 -0.005886 0.000000 -0.012092 0.000000
# 3 -0.003304 -0.005886 0.011718 0.000000 0.006697 0.000000
# 4 0.000000 0.000000 0.000000 0.005227 0.000000 -0.016970
# 5 -0.000120 -0.012092 0.006697 0.000000 0.048106 0.000000
# 6 0.000000 0.000000 0.000000 -0.016970 0.000000 0.145421
#
#
# Mechanical properties :
#
#
# Convention : Reuss Voigt Hill
#
# Bulk Modulus (GPa) = 59.82931 63.81789 61.82360
# Shear Modulus (GPa) = 18.79403 82.66703 50.73053
#
# Velocity S-wave (km/s) = 3.01168 6.31633 4.94805
# Velocity P-wave (km/s) = 6.40062 9.16483 7.90449
#
# Compressibility (1/GPa) = 0.01671422
#
# Stress axis : x y z
#
# Youngs Moduli (GPa) = 84.81032 63.66874 85.33899
#
# Poissons Ratio (x) = 0.13121 0.28195
# Poissons Ratio (y) = 0.17478 0.50229
# Poissons Ratio (z) = 0.28020 0.37474
#
# Static dielectric constant tensor:
#      x y z
#    x 1.804930 0.000000 -0.061960 
#    y 0.000000 1.750930 0.000000 
#    z -0.061960 0.000000 1.668380 
# 
# From -- ./inp_files/186201.got.cif
#   From: 2010.05.17/outbox.cif.g08.bks.cpg/sg15_94_cif.got.tgz:186201.got - 2010.06.03 18:47:42.
