data_PCOD9286939
_publ_section_title
;
Structure prediction by ZEFSAII (Michael W. Deem and Ramdas Pophale) SiO2 
 PCOD9286939
Probable space group: C 2/C
;
_chemical_formula_sum "Si O2"
_cell_formula_units_Z 40
_cell_length_a 14.156303
_cell_length_b 12.427755
_cell_length_c 13.903342
_cell_angle_alpha 90.000000
_cell_angle_beta 45.375921
_cell_angle_gamma 90.000000
_cell_volume 1740.914965
_symmetry_space_group_name_H-M "C 2/C"
_symmetry_group_IT_number 15
_symmetry_cell_setting 'monoclinic'
loop_
_space_group_symop_operation_xyz
x,y,z
-x,y,1/2-z
-x,-y,-z
x,-y,1/2+z
1/2+x,1/2+y,z
1/2-x,1/2+y,1/2-z
1/2-x,1/2-y,-z
1/2+x,1/2-y,1/2+z
loop_
_atom_site_type_symbol
_atom_site_label
_atom_site_fract_x
_atom_site_fract_y
_atom_site_fract_z
Si Si1 0.206802 0.712527 0.424593
Si Si2 0.752329 0.259893 0.882370
Si Si3 0.000000 0.989368 0.750000
Si Si4 0.433680 0.674230 0.127363
Si Si5 0.500000 0.871461 0.750000
Si Si6 0.294543 0.961457 0.045862
O O1 0.250000 0.750000 0.500000
O O2 0.329223 0.740521 0.268065
O O3 0.187902 0.583243 0.431146
O O4 0.068871 0.768899 0.501443
O O5 0.654359 0.346303 0.904227
O O6 0.697449 0.142380 0.890623
O O7 0.903016 0.296533 0.754856
O O8 0.750000 0.250000 0.000000
O O9 0.973274 0.920154 0.672631
O O10 0.861610 0.046891 0.869317
O O11 0.598720 0.941933 0.614551
#
# Coordination Sequence:
#
# PCOD9286939 Si02
#       6
#     8   8   4   8   4   8
#     4  11  22  42  69 104 137 172 225 286 352 402
#     4  10  24  45  62  95 137 183 226 278 340 404
#     4  10  21  45  66 104 136 176 219 293 356 402
#     4  11  23  41  70  93 141 178 216 287 346 400
#     4  10  23  43  68  92 134 180 233 281 328 412
#     4  10  22  41  72  95 138 174 231 275 344 411
#
# _framework density 22.976424000000002
#
# number of rings (size 3 to 8) (size 9 to 14) (size 15 to 20)
#    0.000    1.600    4.000    0.600    8.400    0.800 
#    3.600    4.000    0.000    0.000    0.000    0.000 
#    0.000    0.000    0.000    0.000    0.000    0.000 
#
# Total GULP energy -111461.525577 kJ/mol
# GULP energy per Si atom -5573.076279 kJ/mol
# Density = 2.292413 g / cm^3
# Si number density = 22.976424 Si / 1000 Ang^3
#
#
#
# Elastic Constant Matrix: (Units=GPa)
#
#
# Indices 1 2 3 4 5 6 
#
# 1 100.7920 0.4301 17.6503 0.0000 -4.6549 0.0000
# 2 0.4301 62.9917 -6.9219 0.0000 4.2837 0.0000
# 3 17.6503 -6.9219 117.2331 0.0000 -27.3627 0.0000
# 4 0.0000 0.0000 0.0000 46.0640 0.0000 -11.1233
# 5 -4.6549 4.2837 -27.3627 0.0000 52.8716 0.0000
# 6 0.0000 0.0000 0.0000 -11.1233 0.0000 15.4361
#
#
#
# Elastic Compliance Matrix: (Units=1/GPa)
#
#
# Indices 1 2 3 4 5 6 
#
# 1 0.010194 -0.000245 -0.001519 0.000000 0.000131 0.000000
# 2 -0.000245 0.016024 0.000768 0.000000 -0.000923 0.000000
# 3 -0.001519 0.000768 0.009962 0.000000 0.004960 0.000000
# 4 0.000000 0.000000 0.000000 0.026282 0.000000 0.018939
# 5 0.000131 -0.000923 0.004960 0.000000 0.021567 0.000000
# 6 0.000000 0.000000 0.000000 0.018939 0.000000 0.078431
#
#
# Mechanical properties :
#
#
# Convention : Reuss Voigt Hill
#
# Bulk Modulus (GPa) = 29.25068 33.70374 31.47721
# Shear Modulus (GPa) = 28.43367 40.86491 34.64929
#
# Velocity S-wave (km/s) = 3.52165 4.22187 3.88756
# Velocity P-wave (km/s) = 5.41243 6.20212 5.82068
#
# Compressibility (1/GPa) = 0.03418723
#
# Stress axis : x y z
#
# Youngs Moduli (GPa) = 98.09227 62.40682 100.38590
#
# Poissons Ratio (x) = 0.01532 0.15245
# Poissons Ratio (y) = 0.02407 -0.07707
# Poissons Ratio (z) = 0.14897 -0.04791
#
# Static dielectric constant tensor:
#      x y z
#    x 2.044880 0.000000 0.115370 
#    y 0.000000 1.936900 0.000000 
#    z 0.115370 0.000000 1.910050 
# 
# From -- ./inp_files/153772.got.cif
#   From: 2010.05.17/outbox.cif.g08.bks.cpg/sg15_77_cif.got.tgz:153772.got - 2010.06.03 18:47:42.
