data_PCOD9286118
_publ_section_title
;
Structure prediction by ZEFSAII (Michael W. Deem and Ramdas Pophale) SiO2 
 PCOD9286118
Probable space group: C 2/C
;
_chemical_formula_sum "Si O2"
_cell_formula_units_Z 64
_cell_length_a 14.560157
_cell_length_b 14.959422
_cell_length_c 17.702712
_cell_angle_alpha 90.000000
_cell_angle_beta 126.163506
_cell_angle_gamma 90.000000
_cell_volume 3112.971690
_symmetry_space_group_name_H-M "C 2/C"
_symmetry_group_IT_number 15
_symmetry_cell_setting 'monoclinic'
loop_
_space_group_symop_operation_xyz
x,y,z
-x,y,1/2-z
-x,-y,-z
x,-y,1/2+z
1/2+x,1/2+y,z
1/2-x,1/2+y,1/2-z
1/2-x,1/2-y,-z
1/2+x,1/2-y,1/2+z
loop_
_atom_site_type_symbol
_atom_site_label
_atom_site_fract_x
_atom_site_fract_y
_atom_site_fract_z
Si Si1 0.158192 0.647149 0.518803
Si Si2 0.217392 0.936784 0.693134
Si Si3 0.481566 0.867235 0.406251
Si Si4 0.398111 0.292792 0.758641
Si Si5 0.159432 0.856669 0.503953
Si Si6 0.019653 0.444957 0.670126
Si Si7 0.687251 0.747441 0.550058
Si Si8 0.926970 0.917885 0.428262
O O1 0.114663 0.613080 0.577908
O O2 0.177651 0.752981 0.532043
O O3 0.272845 0.610635 0.536543
O O4 0.059206 0.625371 0.410898
O O5 0.135430 0.873648 0.702204
O O6 0.207548 0.907497 0.600626
O O7 0.347218 0.929665 0.780795
O O8 0.170638 0.037689 0.669396
O O9 0.438543 0.791686 0.327641
O O10 0.589324 0.822666 0.500462
O O11 0.512231 0.957259 0.377417
O O12 0.500000 0.315134 0.750000
O O13 0.284450 0.266487 0.658337
O O14 0.024911 0.867919 0.430029
O O15 0.000000 0.442122 0.750000
O O16 0.750000 0.750000 0.500000
O O17 0.627405 0.652218 0.539442
O O18 0.000000 0.000000 0.500000
#
# Coordination Sequence:
#
# PCOD9286118 Si02
#       8
#     8   8   8   8   8   8   8   8
#     4  11  22  43  69  98 135 179 232 285 350 417
#     4  11  23  45  67  98 138 179 232 287 352 427
#     4  12  24  45  68 104 141 179 239 291 355 423
#     4  12  25  45  70 101 143 183 235 301 360 431
#     4  10  21  42  72  95 127 179 228 282 345 425
#     4  12  26  43  67 102 142 186 230 293 357 421
#     4  12  25  42  73 104 136 191 236 291 364 437
#     4  10  22  42  69  96 131 176 230 285 350 414
#
# _framework density 20.559132999999999
#
# number of rings (size 3 to 8) (size 9 to 14) (size 15 to 20)
#    0.000    0.750    5.000    3.000    1.750    0.000 
#    2.250    0.000    0.000    0.000    0.000    0.000 
#    0.000    0.000    0.000    0.000    0.000    0.000 
#
# Total GULP energy -178818.060049 kJ/mol
# GULP energy per Si atom -5588.064377 kJ/mol
# Density = 2.051234 g / cm^3
# Si number density = 20.559133 Si / 1000 Ang^3
#
#
#
# Elastic Constant Matrix: (Units=GPa)
#
#
# Indices 1 2 3 4 5 6 
#
# 1 137.2253 9.4654 16.9344 0.0000 -2.7248 0.0000
# 2 9.4654 29.8494 0.7441 0.0000 7.7103 0.0000
# 3 16.9344 0.7441 52.8675 0.0000 14.0221 0.0000
# 4 0.0000 0.0000 0.0000 35.0772 0.0000 -1.2539
# 5 -2.7248 7.7103 14.0221 0.0000 36.8940 0.0000
# 6 0.0000 0.0000 0.0000 -1.2539 0.0000 18.9432
#
#
#
# Elastic Compliance Matrix: (Units=1/GPa)
#
#
# Indices 1 2 3 4 5 6 
#
# 1 0.007934 -0.003063 -0.003140 0.000000 0.002419 0.000000
# 2 -0.003063 0.036722 0.002847 0.000000 -0.008982 0.000000
# 3 -0.003140 0.002847 0.022354 0.000000 -0.009323 0.000000
# 4 0.000000 0.000000 0.000000 0.028576 0.000000 0.001892
# 5 0.002419 -0.008982 -0.009323 0.000000 0.032704 0.000000
# 6 0.000000 0.000000 0.000000 0.001892 0.000000 0.052914
#
#
# Mechanical properties :
#
#
# Convention : Reuss Voigt Hill
#
# Bulk Modulus (GPa) = 16.58449 30.47001 23.52725
# Shear Modulus (GPa) = 24.03671 31.03610 27.53641
#
# Velocity S-wave (km/s) = 3.42299 3.88957 3.66372
# Velocity P-wave (km/s) = 4.86896 5.91816 5.41901
#
# Compressibility (1/GPa) = 0.06029732
#
# Stress axis : x y z
#
# Youngs Moduli (GPa) = 126.03869 27.23172 44.73557
#
# Poissons Ratio (x) = 0.08340 0.14047
# Poissons Ratio (y) = 0.38601 -0.12734
# Poissons Ratio (z) = 0.39576 -0.07752
#
# Static dielectric constant tensor:
#      x y z
#    x 1.770770 0.000000 0.015680 
#    y 0.000000 1.730590 0.000000 
#    z 0.015680 0.000000 1.722040 
# 
# From -- ./inp_files/205756.got.cif
#   From: 2010.05.17/outbox.cif.g08.bks.cpg/sg15_103_cif.got.tgz:205756.got - 2010.06.03 18:47:42.
