data_PCOD9286451
_publ_section_title
;
Structure prediction by ZEFSAII (Michael W. Deem and Ramdas Pophale) SiO2 
 PCOD9286451
Probable space group: C 2/C
;
_chemical_formula_sum "Si O2"
_cell_formula_units_Z 32
_cell_length_a 15.469448
_cell_length_b 7.689045
_cell_length_c 11.830266
_cell_angle_alpha 90.000000
_cell_angle_beta 119.166364
_cell_angle_gamma 90.000000
_cell_volume 1228.738875
_symmetry_space_group_name_H-M "C 2/C"
_symmetry_group_IT_number 15
_symmetry_cell_setting 'monoclinic'
loop_
_space_group_symop_operation_xyz
x,y,z
-x,y,1/2-z
-x,-y,-z
x,-y,1/2+z
1/2+x,1/2+y,z
1/2-x,1/2+y,1/2-z
1/2-x,1/2-y,-z
1/2+x,1/2-y,1/2+z
loop_
_atom_site_type_symbol
_atom_site_label
_atom_site_fract_x
_atom_site_fract_y
_atom_site_fract_z
Si Si1 0.084317 0.667815 0.220620
Si Si2 0.721046 0.181705 0.608583
Si Si3 0.518416 0.695733 0.051815
Si Si4 0.151045 0.634850 0.932585
O O1 0.175636 0.797696 0.262729
O O2 0.021324 0.669437 0.067918
O O3 0.125997 0.491692 0.308093
O O4 0.000000 0.740966 0.250000
O O5 0.750000 0.250000 0.500000
O O6 0.636614 0.281815 0.624120
O O7 0.677071 0.995656 0.552217
O O8 0.500000 0.500000 0.000000
O O9 0.444905 0.746118 0.106381
O O10 0.250000 0.750000 0.000000
#
# Coordination Sequence:
#
# PCOD9286451 Si02
#       4
#     8   8   8   8
#     4  11  24  46  76 105 156 198 247 309 392 434
#     4  10  21  43  69 106 154 190 251 315 368 452
#     4  12  25  47  77 112 152 199 254 315 377 456
#     4  11  25  46  74 109 155 194 256 318 376 452
#
# _framework density 26.042960999999998
#
# number of rings (size 3 to 8) (size 9 to 14) (size 15 to 20)
#    0.000    1.000    5.000    3.750    0.000    4.000 
#    4.500    0.000    0.000    0.000    0.000    0.000 
#    0.000    0.000    0.000    0.000    0.000    0.000 
#
# Total GULP energy -89385.520353 kJ/mol
# GULP energy per Si atom -5586.595022 kJ/mol
# Density = 2.598369 g / cm^3
# Si number density = 26.042961 Si / 1000 Ang^3
#
#
#
# Elastic Constant Matrix: (Units=GPa)
#
#
# Indices 1 2 3 4 5 6 
#
# 1 200.7258 69.1605 33.6295 0.0000 58.9725 0.0000
# 2 69.1605 144.7258 25.9740 0.0000 18.8747 0.0000
# 3 33.6295 25.9740 98.6556 0.0000 34.1515 0.0000
# 4 0.0000 0.0000 0.0000 37.4213 0.0000 7.4290
# 5 58.9725 18.8747 34.1515 0.0000 51.5843 0.0000
# 6 0.0000 0.0000 0.0000 7.4290 0.0000 54.9133
#
#
#
# Elastic Compliance Matrix: (Units=1/GPa)
#
#
# Indices 1 2 3 4 5 6 
#
# 1 0.008656 -0.003103 0.001166 0.000000 -0.009533 0.000000
# 2 -0.003103 0.008496 -0.001727 0.000000 0.001581 0.000000
# 3 0.001166 -0.001727 0.013539 0.000000 -0.009665 0.000000
# 4 0.000000 0.000000 0.000000 0.027460 0.000000 -0.003715
# 5 -0.009533 0.001581 -0.009665 0.000000 0.036104 0.000000
# 6 0.000000 0.000000 0.000000 -0.003715 0.000000 0.018713
#
#
# Mechanical properties :
#
#
# Convention : Reuss Voigt Hill
#
# Bulk Modulus (GPa) = 42.79918 77.95945 60.37932
# Shear Modulus (GPa) = 39.03709 49.80664 44.42187
#
# Velocity S-wave (km/s) = 3.87583 4.37794 4.13451
# Velocity P-wave (km/s) = 6.04145 7.45352 6.78433
#
# Compressibility (1/GPa) = 0.02336493
#
# Stress axis : x y z
#
# Youngs Moduli (GPa) = 115.52301 117.70367 73.86033
#
# Poissons Ratio (x) = 0.36519 -0.08613
# Poissons Ratio (y) = 0.35843 0.12753
# Poissons Ratio (z) = -0.13471 0.20323
#
# Static dielectric constant tensor:
#      x y z
#    x 2.333280 0.000000 -0.077330 
#    y 0.000000 2.089230 0.000000 
#    z -0.077330 0.000000 2.117020 
# 
# From -- ./inp_files/150439.got.cif
#   From: 2010.05.17/outbox.cif.g08.bks.cpg/sg15_76_cif.got.tgz:150439.got - 2010.06.03 18:47:42.
