data_PCOD9286718
_publ_section_title
;
Structure prediction by ZEFSAII (Michael W. Deem and Ramdas Pophale) SiO2 
 PCOD9286718
Probable space group: C 2/C
;
_chemical_formula_sum "Si O2"
_cell_formula_units_Z 60
_cell_length_a 8.957180
_cell_length_b 20.855663
_cell_length_c 20.428697
_cell_angle_alpha 90.000000
_cell_angle_beta 48.443995
_cell_angle_gamma 90.000000
_cell_volume 2855.723572
_symmetry_space_group_name_H-M "C 2/C"
_symmetry_group_IT_number 15
_symmetry_cell_setting 'monoclinic'
loop_
_space_group_symop_operation_xyz
x,y,z
-x,y,1/2-z
-x,-y,-z
x,-y,1/2+z
1/2+x,1/2+y,z
1/2-x,1/2+y,1/2-z
1/2-x,1/2-y,-z
1/2+x,1/2-y,1/2+z
loop_
_atom_site_type_symbol
_atom_site_label
_atom_site_fract_x
_atom_site_fract_y
_atom_site_fract_z
Si Si1 0.082288 0.155861 0.490013
Si Si2 0.682676 0.524823 0.244672
Si Si3 0.757278 0.826754 0.981740
Si Si4 0.530554 0.145427 0.317632
Si Si5 0.880679 0.966227 0.093963
Si Si6 0.000000 0.325853 0.250000
Si Si7 0.840278 0.266667 0.614317
Si Si8 0.480116 0.082478 0.646812
O O1 0.312336 0.140401 0.413809
O O2 0.963817 0.150776 0.454834
O O3 0.980369 0.104111 0.567294
O O4 0.029106 0.226740 0.532226
O O5 0.500000 0.539689 0.250000
O O6 0.830008 0.584673 0.210290
O O7 0.618018 0.501944 0.336823
O O8 0.811050 0.466699 0.175571
O O9 0.721650 0.825228 0.914774
O O10 0.750000 0.750000 0.000000
O O11 0.588708 0.872111 0.062559
O O12 0.500000 0.153621 0.250000
O O13 0.628510 0.207166 0.322674
O O14 0.655311 0.956846 0.133194
O O15 0.000000 0.000000 0.000000
O O16 0.159143 0.282917 0.166867
O O17 0.895325 0.370105 0.226800
#
# Coordination Sequence:
#
# PCOD9286718 Si02
#       8
#     8   8   8   8   8   4   8   8
#     4  10  21  44  66  97 133 180 224 271 345 413
#     4  12  27  45  65 101 134 178 237 295 343 399
#     4   9  19  38  67 102 128 171 216 277 334 405
#     4  12  28  44  66  96 138 184 228 286 346 405
#     4  11  21  41  71  94 128 174 226 273 346 416
#     4  12  20  40  74  98 134 180 222 268 348 404
#     4  11  24  40  67 101 138 178 227 279 337 416
#     4  11  20  42  70  94 131 176 226 269 341 417
#
# _framework density 21.010437
#
# number of rings (size 3 to 8) (size 9 to 14) (size 15 to 20)
#    0.000    1.067    5.333    2.800    2.800    3.200 
#    0.000    7.333    0.000    0.000    0.000    0.000 
#    0.000    0.000    0.000    0.000    0.000    0.000 
#
# Total GULP energy -167579.315894 kJ/mol
# GULP energy per Si atom -5585.977196 kJ/mol
# Density = 2.096262 g / cm^3
# Si number density = 21.010437 Si / 1000 Ang^3
#
#
#
# Elastic Constant Matrix: (Units=GPa)
#
#
# Indices 1 2 3 4 5 6 
#
# 1 95.6770 50.0071 42.9508 0.0000 8.3527 0.0000
# 2 50.0071 86.4209 38.6192 0.0000 11.2097 0.0000
# 3 42.9508 38.6192 81.5966 0.0000 0.3203 0.0000
# 4 0.0000 0.0000 0.0000 38.7326 0.0000 6.0911
# 5 8.3527 11.2097 0.3203 0.0000 24.0198 0.0000
# 6 0.0000 0.0000 0.0000 6.0911 0.0000 15.1737
#
#
#
# Elastic Compliance Matrix: (Units=1/GPa)
#
#
# Indices 1 2 3 4 5 6 
#
# 1 0.016770 -0.006891 -0.005556 0.000000 -0.002541 0.000000
# 2 -0.006891 0.018692 -0.005195 0.000000 -0.006258 0.000000
# 3 -0.005556 -0.005195 0.017622 0.000000 0.004121 0.000000
# 4 0.000000 0.000000 0.000000 0.027558 0.000000 -0.011062
# 5 -0.002541 -0.006258 0.004121 0.000000 0.045381 0.000000
# 6 0.000000 0.000000 0.000000 -0.011062 0.000000 0.070344
#
#
# Mechanical properties :
#
#
# Convention : Reuss Voigt Hill
#
# Bulk Modulus (GPa) = 56.17850 58.53875 57.35862
# Shear Modulus (GPa) = 21.04519 24.39305 22.71912
#
# Velocity S-wave (km/s) = 3.16833 3.41104 3.29192
# Velocity P-wave (km/s) = 6.33883 6.59058 6.46593
#
# Compressibility (1/GPa) = 0.01780041
#
# Stress axis : x y z
#
# Youngs Moduli (GPa) = 59.63192 53.49879 56.74658
#
# Poissons Ratio (x) = 0.36868 0.31526
# Poissons Ratio (y) = 0.41095 0.29479
# Poissons Ratio (z) = 0.33129 0.27791
#
# Static dielectric constant tensor:
#      x y z
#    x 1.758430 0.000000 0.015310 
#    y 0.000000 1.786150 0.000000 
#    z 0.015310 0.000000 1.803450 
# 
# From -- ./inp_files/234068.got.cif
#   From: 2010.05.17/outbox.cif.g08.bks.cpg/sg15_118_cif.got.tgz:234068.got - 2010.06.03 18:47:42.
