data_PCOD9286795
_publ_section_title
;
Structure prediction by ZEFSAII (Michael W. Deem and Ramdas Pophale) SiO2 
 PCOD9286795
Probable space group: C 2/C
;
_chemical_formula_sum "Si O2"
_cell_formula_units_Z 40
_cell_length_a 27.210218
_cell_length_b 5.707445
_cell_length_c 10.545526
_cell_angle_alpha 90.000000
_cell_angle_beta 99.730360
_cell_angle_gamma 90.000000
_cell_volume 1614.168580
_symmetry_space_group_name_H-M "C 2/C"
_symmetry_group_IT_number 15
_symmetry_cell_setting 'monoclinic'
loop_
_space_group_symop_operation_xyz
x,y,z
-x,y,1/2-z
-x,-y,-z
x,-y,1/2+z
1/2+x,1/2+y,z
1/2-x,1/2+y,1/2-z
1/2-x,1/2-y,-z
1/2+x,1/2-y,1/2+z
loop_
_atom_site_type_symbol
_atom_site_label
_atom_site_fract_x
_atom_site_fract_y
_atom_site_fract_z
Si Si1 0.501726 0.811933 0.391257
Si Si2 0.418506 0.447103 0.427058
Si Si3 0.866030 0.366675 0.716351
Si Si4 0.343490 0.183547 0.943113
Si Si5 0.740102 0.357846 0.314691
O O1 0.500000 0.910531 0.250000
O O2 0.453447 0.651049 0.389203
O O3 0.550661 0.658555 0.442824
O O4 0.500000 0.000000 0.500000
O O5 0.409257 0.269835 0.307763
O O6 0.365662 0.555283 0.446913
O O7 0.853237 0.571118 0.809459
O O8 0.873115 0.435941 0.573081
O O9 0.817879 0.193644 0.685037
O O10 0.284801 0.139083 0.936773
O O11 0.744168 0.618937 0.255622
#
# Coordination Sequence:
#
# PCOD9286795 Si02
#       5
#     8   8   8   8   8
#     4  11  26  46  71 101 135 177 227 293 360 432
#     4  11  24  44  70 100 138 180 232 289 356 428
#     4  11  24  43  67 101 139 186 237 293 353 422
#     4  11  24  43  67 101 139 186 237 293 353 422
#     4  10  21  44  69 104 145 196 249 302 357 426
#
# _framework density 24.780557999999999
#
# number of rings (size 3 to 8) (size 9 to 14) (size 15 to 20)
#    0.000    1.200    2.000    3.000    0.000   11.200 
#    0.000    5.000    0.000    0.000    0.000    0.000 
#    0.000    0.000    0.000    0.000    0.000    0.000 
#
# Total GULP energy -111764.425552 kJ/mol
# GULP energy per Si atom -5588.221278 kJ/mol
# Density = 2.472416 g / cm^3
# Si number density = 24.780558 Si / 1000 Ang^3
#
#
#
# Elastic Constant Matrix: (Units=GPa)
#
#
# Indices 1 2 3 4 5 6 
#
# 1 55.0957 14.4813 15.1983 0.0000 18.5726 0.0000
# 2 14.4813 74.5695 23.1814 0.0000 -5.7198 0.0000
# 3 15.1983 23.1814 182.8837 0.0000 5.4777 0.0000
# 4 0.0000 0.0000 0.0000 28.9062 0.0000 7.6886
# 5 18.5726 -5.7198 5.4777 0.0000 34.9807 0.0000
# 6 0.0000 0.0000 0.0000 7.6886 0.0000 52.7790
#
#
#
# Elastic Compliance Matrix: (Units=1/GPa)
#
#
# Indices 1 2 3 4 5 6 
#
# 1 0.024498 -0.005526 -0.000923 0.000000 -0.013766 0.000000
# 2 -0.005526 0.015441 -0.001669 0.000000 0.005720 0.000000
# 3 -0.000923 -0.001669 0.005777 0.000000 -0.000687 0.000000
# 4 0.000000 0.000000 0.000000 0.035989 0.000000 -0.005243
# 5 -0.013766 0.005720 -0.000687 0.000000 0.036939 0.000000
# 6 0.000000 0.000000 0.000000 -0.005243 0.000000 0.019711
#
#
# Mechanical properties :
#
#
# Convention : Reuss Voigt Hill
#
# Bulk Modulus (GPa) = 33.92312 46.47454 40.19883
# Shear Modulus (GPa) = 30.41017 40.64571 35.52794
#
# Velocity S-wave (km/s) = 3.50691 4.05436 3.79053
# Velocity P-wave (km/s) = 5.48790 6.38062 5.95102
#
# Compressibility (1/GPa) = 0.02947842
#
# Stress axis : x y z
#
# Youngs Moduli (GPa) = 40.81978 64.76156 173.10463
#
# Poissons Ratio (x) = 0.35790 0.15978
# Poissons Ratio (y) = 0.22559 0.28897
# Poissons Ratio (z) = 0.03768 0.10811
#
# Static dielectric constant tensor:
#      x y z
#    x 2.049140 0.000000 -0.030220 
#    y 0.000000 1.996940 0.000000 
#    z -0.030220 0.000000 1.988030 
# 
# From -- ./inp_files/120734.got.cif
#   From: 2010.05.17/outbox.cif.g08.bks.cpg/sg15_61_cif.got.tgz:120734.got - 2010.06.03 18:47:42.
