data_PCOD9286757
_publ_section_title
;
Structure prediction by ZEFSAII (Michael W. Deem and Ramdas Pophale) SiO2 
 PCOD9286757
Probable space group: C 2/C
;
_chemical_formula_sum "Si O2"
_cell_formula_units_Z 52
_cell_length_a 8.567185
_cell_length_b 17.232421
_cell_length_c 17.100799
_cell_angle_alpha 90.000000
_cell_angle_beta 111.583277
_cell_angle_gamma 90.000000
_cell_volume 2347.629554
_symmetry_space_group_name_H-M "C 2/C"
_symmetry_group_IT_number 15
_symmetry_cell_setting 'monoclinic'
loop_
_space_group_symop_operation_xyz
x,y,z
-x,y,1/2-z
-x,-y,-z
x,-y,1/2+z
1/2+x,1/2+y,z
1/2-x,1/2+y,1/2-z
1/2-x,1/2-y,-z
1/2+x,1/2-y,1/2+z
loop_
_atom_site_type_symbol
_atom_site_label
_atom_site_fract_x
_atom_site_fract_y
_atom_site_fract_z
Si Si1 0.434861 0.893922 0.455403
Si Si2 0.500000 0.231537 0.250000
Si Si3 0.735747 0.821270 0.937121
Si Si4 0.211348 0.559841 0.107655
Si Si5 0.191308 0.491958 0.764571
Si Si6 0.832171 0.330812 0.274700
Si Si7 0.959934 0.938731 0.926349
O O1 0.321116 0.886592 0.511343
O O2 0.617817 0.886141 0.527718
O O3 0.396060 0.836104 0.376927
O O4 0.394911 0.979456 0.415228
O O5 0.400771 0.191319 0.157712
O O6 0.662218 0.278318 0.242619
O O7 0.917455 0.850479 0.941645
O O8 0.750000 0.750000 0.000000
O O9 0.221763 0.571026 0.202005
O O10 0.397943 0.552390 0.111803
O O11 0.234017 0.581640 0.754591
O O12 0.288448 0.466363 0.857682
O O13 0.000000 0.492186 0.750000
O O14 0.000000 0.315224 0.250000
O O15 0.000000 0.000000 0.000000
#
# Coordination Sequence:
#
# PCOD9286757 Si02
#       7
#     8   4   8   8   8   8   8
#     4  10  21  44  68 101 139 183 233 307 363 437
#     4  12  28  48  74  96 152 200 238 304 380 456
#     4  12  27  48  70 102 144 194 243 295 379 453
#     4  10  22  40  71 103 138 175 237 304 366 428
#     4  10  23  41  69 104 142 179 238 314 370 430
#     4  10  24  44  73 103 138 191 252 293 372 451
#     4  12  26  41  71 105 140 185 246 301 369 443
#
# _framework density 22.150003000000002
#
# number of rings (size 3 to 8) (size 9 to 14) (size 15 to 20)
#    0.000    1.231    3.077    1.385   16.154    0.000 
#    2.769    1.538    0.000    0.000    0.000    0.000 
#    0.000    0.000    0.000    0.000    0.000    0.000 
#
# Total GULP energy -144830.145013 kJ/mol
# GULP energy per Si atom -5570.390193 kJ/mol
# Density = 2.209959 g / cm^3
# Si number density = 22.150003 Si / 1000 Ang^3
#
#
#
# Elastic Constant Matrix: (Units=GPa)
#
#
# Indices 1 2 3 4 5 6 
#
# 1 78.7163 19.7044 23.6973 0.0000 -7.5633 0.0000
# 2 19.7044 50.7132 36.2835 0.0000 1.6582 0.0000
# 3 23.6973 36.2835 148.1992 0.0000 -6.6236 0.0000
# 4 0.0000 0.0000 0.0000 13.1474 0.0000 5.8233
# 5 -7.5633 1.6582 -6.6236 0.0000 37.9209 0.0000
# 6 0.0000 0.0000 0.0000 5.8233 0.0000 36.1002
#
#
#
# Elastic Compliance Matrix: (Units=1/GPa)
#
#
# Indices 1 2 3 4 5 6 
#
# 1 0.014543 -0.005065 -0.000953 0.000000 0.002956 0.000000
# 2 -0.005065 0.025835 -0.005655 0.000000 -0.003128 0.000000
# 3 -0.000953 -0.005655 0.008352 0.000000 0.001516 0.000000
# 4 0.000000 0.000000 0.000000 0.081913 0.000000 -0.013213
# 5 0.002956 -0.003128 0.001516 0.000000 0.027362 0.000000
# 6 0.000000 0.000000 0.000000 -0.013213 0.000000 0.029832
#
#
# Mechanical properties :
#
#
# Convention : Reuss Voigt Hill
#
# Bulk Modulus (GPa) = 39.39597 48.55545 43.97571
# Shear Modulus (GPa) = 22.76404 30.62993 26.69699
#
# Velocity S-wave (km/s) = 3.20929 3.72269 3.47548
# Velocity P-wave (km/s) = 5.61759 6.35977 6.00017
#
# Compressibility (1/GPa) = 0.02538331
#
# Stress axis : x y z
#
# Youngs Moduli (GPa) = 68.76304 38.70721 119.72652
#
# Poissons Ratio (x) = 0.19606 0.11413
# Poissons Ratio (y) = 0.34829 0.67706
# Poissons Ratio (z) = 0.06555 0.21889
#
# Static dielectric constant tensor:
#      x y z
#    x 1.926340 0.000000 -0.029510 
#    y 0.000000 1.889240 0.000000 
#    z -0.029510 0.000000 1.863560 
# 
# From -- ./inp_files/191112.got.cif
#   From: 2010.05.17/outbox.cif.g08.bks.cpg/sg15_96_cif.got.tgz:191112.got - 2010.06.03 18:47:42.
