data_PCOD9286914
_publ_section_title
;
Structure prediction by ZEFSAII (Michael W. Deem and Ramdas Pophale) SiO2 
 PCOD9286914
Probable space group: C 2/C
;
_chemical_formula_sum "Si O2"
_cell_formula_units_Z 56
_cell_length_a 7.184482
_cell_length_b 12.828812
_cell_length_c 26.193468
_cell_angle_alpha 90.000000
_cell_angle_beta 57.955875
_cell_angle_gamma 90.000000
_cell_volume 2046.379676
_symmetry_space_group_name_H-M "C 2/C"
_symmetry_group_IT_number 15
_symmetry_cell_setting 'monoclinic'
loop_
_space_group_symop_operation_xyz
x,y,z
-x,y,1/2-z
-x,-y,-z
x,-y,1/2+z
1/2+x,1/2+y,z
1/2-x,1/2+y,1/2-z
1/2-x,1/2-y,-z
1/2+x,1/2-y,1/2+z
loop_
_atom_site_type_symbol
_atom_site_label
_atom_site_fract_x
_atom_site_fract_y
_atom_site_fract_z
Si Si1 0.489171 0.707303 0.311395
Si Si2 0.473827 0.031480 0.328851
Si Si3 0.768511 0.181738 0.445035
Si Si4 0.366055 0.525068 0.712149
Si Si5 0.702667 0.835993 0.463897
Si Si6 0.433506 0.501614 0.567144
Si Si7 0.141172 0.765801 0.164428
O O1 0.304352 0.731907 0.382661
O O2 0.493783 0.581231 0.307917
O O3 0.710778 0.744384 0.307491
O O4 0.702084 0.979449 0.284108
O O5 0.500000 0.744382 0.250000
O O6 0.488808 0.156762 0.325976
O O7 0.301206 0.993684 0.310515
O O8 0.750000 0.250000 0.500000
O O9 0.534324 0.122107 0.483322
O O10 0.972325 0.103461 0.421539
O O11 0.169637 0.505918 0.603327
O O12 0.488900 0.633415 0.691297
O O13 0.750000 0.750000 0.500000
O O14 0.913838 0.909999 0.431676
O O15 0.704613 0.788663 0.406790
O O16 0.500000 0.500000 0.500000
#
# Coordination Sequence:
#
# PCOD9286914 Si02
#       7
#     8   8   8   8   8   8   8
#     4  11  25  48  82 120 170 223 289 360 430 515
#     4  10  21  44  80 120 167 219 286 346 427 520
#     4  12  23  48  79 119 160 224 283 345 430 511
#     4  10  22  46  81 118 169 223 276 348 433 516
#     4  12  25  44  81 122 162 219 286 346 428 511
#     4  12  24  45  79 125 170 217 279 362 418 507
#     4  11  21  48  83 123 170 223 283 355 431 515
#
# _framework density 27.365400999999999
#
# number of rings (size 3 to 8) (size 9 to 14) (size 15 to 20)
#    0.000    0.857    5.714    2.143    0.000    2.286 
#    5.143    2.857   12.571    0.000    0.000    0.000 
#    0.000    0.000    0.000    0.000    0.000    0.000 
#
# Total GULP energy -156766.498095 kJ/mol
# GULP energy per Si atom -5598.803503 kJ/mol
# Density = 2.730312 g / cm^3
# Si number density = 27.365401 Si / 1000 Ang^3
#
#
#
# Elastic Constant Matrix: (Units=GPa)
#
#
# Indices 1 2 3 4 5 6 
#
# 1 68.8608 48.7421 48.7468 0.0000 8.5403 0.0000
# 2 48.7421 168.0000 49.8410 0.0000 -20.5382 0.0000
# 3 48.7468 49.8410 246.3885 -0.0001 -10.4002 0.0000
# 4 0.0000 0.0000 -0.0001 35.1904 0.0000 -6.8902
# 5 8.5403 -20.5382 -10.4002 0.0000 73.7849 0.0000
# 6 0.0000 0.0000 0.0000 -6.8902 0.0000 41.3114
#
#
#
# Elastic Compliance Matrix: (Units=1/GPa)
#
#
# Indices 1 2 3 4 5 6 
#
# 1 0.021540 -0.005838 -0.003274 0.000000 -0.004580 0.000000
# 2 -0.005838 0.008106 -0.000363 0.000000 0.002881 0.000000
# 3 -0.003274 -0.000363 0.004820 0.000000 0.000957 0.000000
# 4 0.000000 0.000000 0.000000 0.029376 0.000000 0.004900
# 5 -0.004580 0.002881 0.000957 0.000000 0.015020 0.000000
# 6 0.000000 0.000000 0.000000 0.004900 0.000000 0.025024
#
#
# Mechanical properties :
#
#
# Convention : Reuss Voigt Hill
#
# Bulk Modulus (GPa) = 64.44892 86.43436 75.44164
# Shear Modulus (GPa) = 39.06000 52.45196 45.75598
#
# Velocity S-wave (km/s) = 3.78213 4.38279 4.09349
# Velocity P-wave (km/s) = 6.53261 7.56741 7.06897
#
# Compressibility (1/GPa) = 0.01551616
#
# Stress axis : x y z
#
# Youngs Moduli (GPa) = 46.42520 123.36403 207.45896
#
# Poissons Ratio (x) = 0.72020 0.67921
# Poissons Ratio (y) = 0.27103 0.07533
# Poissons Ratio (z) = 0.15199 0.04480
#
# Static dielectric constant tensor:
#      x y z
#    x 2.233580 0.000000 0.016610 
#    y 0.000000 2.025530 0.000000 
#    z 0.016610 0.000000 2.329290 
# 
# From -- ./inp_files/307425.got.cif
#   From: 2010.05.17/outbox.cif.g08.bks.cpg/sg15_154_cif.got.tgz:307425.got - 2010.06.03 18:47:42.
