data_PCOD9286571
_publ_section_title
;
Structure prediction by ZEFSAII (Michael W. Deem and Ramdas Pophale) SiO2 
 PCOD9286571
Probable space group: C 2/C
;
_chemical_formula_sum "Si O2"
_cell_formula_units_Z 40
_cell_length_a 11.330763
_cell_length_b 14.762022
_cell_length_c 8.990862
_cell_angle_alpha 90.000000
_cell_angle_beta 76.645403
_cell_angle_gamma 90.000000
_cell_volume 1463.190836
_symmetry_space_group_name_H-M "C 2/C"
_symmetry_group_IT_number 15
_symmetry_cell_setting 'monoclinic'
loop_
_space_group_symop_operation_xyz
x,y,z
-x,y,1/2-z
-x,-y,-z
x,-y,1/2+z
1/2+x,1/2+y,z
1/2-x,1/2+y,1/2-z
1/2-x,1/2-y,-z
1/2+x,1/2-y,1/2+z
loop_
_atom_site_type_symbol
_atom_site_label
_atom_site_fract_x
_atom_site_fract_y
_atom_site_fract_z
Si Si1 0.072693 0.085788 0.537824
Si Si2 0.330425 0.368860 0.175859
Si Si3 0.829825 0.338702 0.507996
Si Si4 0.823394 0.420301 0.809054
Si Si5 0.597674 0.893054 0.380641
O O1 0.126636 0.076309 0.688725
O O2 0.182544 0.096099 0.392415
O O3 0.964705 0.161715 0.580490
O O4 0.000000 0.000000 0.500000
O O5 0.206821 0.328660 0.288843
O O6 0.265307 0.408405 0.044248
O O7 0.750000 0.250000 0.500000
O O8 0.847033 0.345463 0.677674
O O9 0.961460 0.357107 0.402172
O O10 0.869841 0.510569 0.707859
O O11 0.888700 0.409086 0.947005
#
# Coordination Sequence:
#
# PCOD9286571 Si02
#       5
#     8   8   8   8   8
#     4  10  21  43  72 112 150 181 244 314 396 441
#     4  10  23  43  71 104 149 197 239 311 379 456
#     4  12  28  49  67 105 151 204 260 311 384 463
#     4  11  24  45  80 116 144 194 253 330 385 455
#     4  11  23  48  81 114 150 191 262 328 387 450
#
# _framework density 27.337515
#
# number of rings (size 3 to 8) (size 9 to 14) (size 15 to 20)
#    0.000    1.200    2.000    3.000    2.800    2.400 
#   14.400    3.000    0.000    0.000    0.000    0.000 
#    0.000    0.000    0.000    0.000    0.000    0.000 
#
# Total GULP energy -111446.733429 kJ/mol
# GULP energy per Si atom -5572.336671 kJ/mol
# Density = 2.727529 g / cm^3
# Si number density = 27.337515 Si / 1000 Ang^3
#
#
#
# Elastic Constant Matrix: (Units=GPa)
#
#
# Indices 1 2 3 4 5 6 
#
# 1 314.6337 64.1545 110.8257 0.0000 -34.2609 0.0000
# 2 64.1545 89.6550 36.5214 0.0000 -20.3411 0.0000
# 3 110.8257 36.5214 194.9693 0.0000 -18.9401 0.0000
# 4 0.0000 0.0000 0.0000 35.1414 0.0000 -5.5288
# 5 -34.2609 -20.3411 -18.9401 0.0000 67.7238 0.0000
# 6 0.0000 0.0000 0.0000 -5.5288 0.0000 30.7330
#
#
#
# Elastic Compliance Matrix: (Units=1/GPa)
#
#
# Indices 1 2 3 4 5 6 
#
# 1 0.004436 -0.002113 -0.002024 0.000000 0.001043 0.000000
# 2 -0.002113 0.013740 -0.001106 0.000000 0.002749 0.000000
# 3 -0.002024 -0.001106 0.006533 0.000000 0.000471 0.000000
# 4 0.000000 0.000000 0.000000 0.029285 0.000000 0.005268
# 5 0.001043 0.002749 0.000471 0.000000 0.016251 0.000000
# 6 0.000000 0.000000 0.000000 0.005268 0.000000 0.033486
#
#
# Mechanical properties :
#
#
# Convention : Reuss Voigt Hill
#
# Bulk Modulus (GPa) = 70.31140 113.58459 91.94800
# Shear Modulus (GPa) = 42.03208 52.57007 47.30107
#
# Velocity S-wave (km/s) = 3.92538 4.38996 4.16415
# Velocity P-wave (km/s) = 6.80591 8.20578 7.53841
#
# Compressibility (1/GPa) = 0.01422244
#
# Stress axis : x y z
#
# Youngs Moduli (GPa) = 225.44209 72.78142 153.08034
#
# Poissons Ratio (x) = 0.15377 0.30988
# Poissons Ratio (y) = 0.47631 0.16927
# Poissons Ratio (z) = 0.45636 0.08048
#
# Static dielectric constant tensor:
#      x y z
#    x 2.205910 0.000000 0.041080 
#    y 0.000000 3.163650 0.000000 
#    z 0.041080 0.000000 2.299490 
# 
# From -- ./inp_files/47704.got.cif
#   From: 2010.05.17/outbox.cif.g08.bks.cpg/sg15_24_cif.got.tgz:47704.got - 2010.06.03 18:47:42.
