data_PCOD9286690
_publ_section_title
;
Structure prediction by ZEFSAII (Michael W. Deem and Ramdas Pophale) SiO2 
 PCOD9286690
Probable space group: C 2/C
;
_chemical_formula_sum "Si O2"
_cell_formula_units_Z 64
_cell_length_a 14.554070
_cell_length_b 8.484647
_cell_length_c 29.771564
_cell_angle_alpha 90.000000
_cell_angle_beta 50.478306
_cell_angle_gamma 90.000000
_cell_volume 2835.896256
_symmetry_space_group_name_H-M "C 2/C"
_symmetry_group_IT_number 15
_symmetry_cell_setting 'monoclinic'
loop_
_space_group_symop_operation_xyz
x,y,z
-x,y,1/2-z
-x,-y,-z
x,-y,1/2+z
1/2+x,1/2+y,z
1/2-x,1/2+y,1/2-z
1/2-x,1/2-y,-z
1/2+x,1/2-y,1/2+z
loop_
_atom_site_type_symbol
_atom_site_label
_atom_site_fract_x
_atom_site_fract_y
_atom_site_fract_z
Si Si1 0.188880 0.375342 0.105662
Si Si2 0.246890 0.524017 0.679731
Si Si3 0.373835 0.089139 0.537489
Si Si4 0.772220 0.347297 0.166606
Si Si5 0.934764 0.499572 0.692369
Si Si6 0.126859 0.032288 0.093526
Si Si7 0.901037 0.945050 0.495991
Si Si8 0.920317 0.872033 0.203848
O O1 0.254589 0.366978 0.133573
O O2 0.132881 0.213822 0.105459
O O3 0.075511 0.486102 0.147505
O O4 0.282428 0.456302 0.043823
O O5 0.259009 0.340444 0.663499
O O6 0.121532 0.555757 0.743274
O O7 0.341491 0.548706 0.689644
O O8 0.320936 0.091360 0.604360
O O9 0.386143 0.260783 0.511273
O O10 0.500000 0.000000 0.500000
O O11 0.265824 0.009266 0.544637
O O12 0.869767 0.401233 0.173461
O O13 0.646742 0.402700 0.227972
O O14 0.907868 0.314007 0.698415
O O15 0.066381 0.987784 0.065071
O O16 0.053495 0.934668 0.154010
O O17 0.000000 0.000000 0.500000
#
# Coordination Sequence:
#
# PCOD9286690 Si02
#       8
#     8   8   8   8   8   8   8   8
#     4  12  24  43  69 100 143 182 236 290 353 426
#     4  10  21  44  66 101 136 186 232 282 356 418
#     4  12  28  47  72 102 142 187 238 295 353 425
#     4  10  23  44  72 100 138 188 233 282 363 413
#     4  10  23  39  71 100 138 182 227 293 346 424
#     4  12  28  45  68 110 138 187 235 295 353 417
#     4  12  27  48  74  97 136 189 240 297 355 423
#     4  10  23  44  71 102 143 177 236 293 350 425
#
# _framework density 22.567820999999999
#
# number of rings (size 3 to 8) (size 9 to 14) (size 15 to 20)
#    0.000    1.000    1.250    4.125    7.000    1.500 
#    2.250    0.000    0.000    0.000    0.000    0.000 
#    0.000    0.000    0.000    0.000    0.000    0.000 
#
# Total GULP energy -178930.009726 kJ/mol
# GULP energy per Si atom -5591.562804 kJ/mol
# Density = 2.251646 g / cm^3
# Si number density = 22.567821 Si / 1000 Ang^3
#
#
#
# Elastic Constant Matrix: (Units=GPa)
#
#
# Indices 1 2 3 4 5 6 
#
# 1 89.4197 17.0723 46.7587 0.0000 5.9476 0.0001
# 2 17.0723 69.3722 43.4441 0.0001 9.3245 0.0000
# 3 46.7587 43.4441 145.8284 0.0000 11.4626 0.0000
# 4 0.0000 0.0001 0.0000 25.1536 0.0000 -5.2093
# 5 5.9476 9.3245 11.4626 0.0000 48.5656 0.0000
# 6 0.0001 0.0000 0.0000 -5.2093 0.0000 35.4036
#
#
#
# Elastic Compliance Matrix: (Units=1/GPa)
#
#
# Indices 1 2 3 4 5 6 
#
# 1 0.013482 -0.000692 -0.004073 0.000000 -0.000557 0.000000
# 2 -0.000692 0.017990 -0.004965 0.000000 -0.002197 0.000000
# 3 -0.004073 -0.004965 0.009708 0.000000 -0.000839 0.000000
# 4 0.000000 0.000000 0.000000 0.041005 0.000000 0.006034
# 5 -0.000557 -0.002197 -0.000839 0.000000 0.021279 0.000000
# 6 0.000000 0.000000 0.000000 0.006034 0.000000 0.029133
#
#
# Mechanical properties :
#
#
# Convention : Reuss Voigt Hill
#
# Bulk Modulus (GPa) = 46.03964 57.68561 51.86262
# Shear Modulus (GPa) = 31.38765 34.98091 33.18428
#
# Velocity S-wave (km/s) = 3.73341 3.94132 3.83877
# Velocity P-wave (km/s) = 6.24734 6.80650 6.53291
#
# Compressibility (1/GPa) = 0.02172041
#
# Stress axis : x y z
#
# Youngs Moduli (GPa) = 74.17169 55.58687 103.00439
#
# Poissons Ratio (x) = 0.03849 0.41953
# Poissons Ratio (y) = 0.05136 0.51138
# Poissons Ratio (z) = 0.30209 0.27597
#
# Static dielectric constant tensor:
#      x y z
#    x 1.898150 0.000000 -0.011680 
#    y 0.000000 3.551560 -0.000010 
#    z -0.011680 -0.000010 1.976830 
# 
# From -- ./inp_files/313152.got.cif
#   From: 2010.05.17/outbox.cif.g08.bks.cpg/sg15_157_cif.got.tgz:313152.got - 2010.06.03 18:47:42.
