data_PCOD9286812
_publ_section_title
;
Structure prediction by ZEFSAII (Michael W. Deem and Ramdas Pophale) SiO2 
 PCOD9286812
Probable space group: C 2/C
;
_chemical_formula_sum "Si O2"
_cell_formula_units_Z 56
_cell_length_a 14.302216
_cell_length_b 23.302122
_cell_length_c 8.274942
_cell_angle_alpha 90.000000
_cell_angle_beta 114.408565
_cell_angle_gamma 90.000000
_cell_volume 2511.318824
_symmetry_space_group_name_H-M "C 2/C"
_symmetry_group_IT_number 15
_symmetry_cell_setting 'monoclinic'
loop_
_space_group_symop_operation_xyz
x,y,z
-x,y,1/2-z
-x,-y,-z
x,-y,1/2+z
1/2+x,1/2+y,z
1/2-x,1/2+y,1/2-z
1/2-x,1/2-y,-z
1/2+x,1/2-y,1/2+z
loop_
_atom_site_type_symbol
_atom_site_label
_atom_site_fract_x
_atom_site_fract_y
_atom_site_fract_z
Si Si1 0.500000 0.876902 0.250000
Si Si2 0.613840 0.933310 0.791052
Si Si3 0.500000 0.521020 0.250000
Si Si4 0.679372 0.687078 0.794789
Si Si5 0.387910 0.428399 0.371417
Si Si6 0.201063 0.318467 0.786323
Si Si7 0.164341 0.453967 0.178229
Si Si8 0.793821 0.314048 0.050995
O O1 0.566443 0.919154 0.180067
O O2 0.411840 0.834314 0.118795
O O3 0.500000 0.952145 0.750000
O O4 0.617213 0.867123 0.752205
O O5 0.650655 0.977902 0.684617
O O6 0.677902 0.939596 0.000733
O O7 0.414881 0.477316 0.260137
O O8 0.540567 0.559496 0.425054
O O9 0.602199 0.635572 0.695222
O O10 0.652860 0.754292 0.750220
O O11 0.766459 0.675980 0.719469
O O12 0.721655 0.681151 0.006533
O O13 0.270072 0.438142 0.341852
O O14 0.252693 0.337363 0.652382
O O15 0.750000 0.250000 0.000000
#
# Coordination Sequence:
#
# PCOD9286812 Si02
#       8
#     4   8   4   8   8   8   8   8
#     4  12  22  42  69 103 146 190 232 304 362 450
#     4  12  24  39  58 104 143 185 236 286 369 453
#     4  10  26  44  75  99 144 192 254 314 382 442
#     4  10  21  44  69  97 140 183 240 302 360 427
#     4  11  22  48  69 105 140 191 251 316 371 447
#     4  10  22  40  67  94 135 192 232 292 358 431
#     4  12  25  39  70  99 147 188 234 305 371 446
#     4  10  22  41  69  99 139 190 237 292 357 433
#
# _framework density 22.299040999999999
#
# number of rings (size 3 to 8) (size 9 to 14) (size 15 to 20)
#    0.000    1.143    3.571    2.143    2.000    1.143 
#    3.857    2.857    3.143    0.000    0.000    0.000 
#    0.000    0.000    0.000    0.000    0.000    0.000 
#
# Total GULP energy -155938.223404 kJ/mol
# GULP energy per Si atom -5569.222264 kJ/mol
# Density = 2.224829 g / cm^3
# Si number density = 22.299041 Si / 1000 Ang^3
#
#
#
# Elastic Constant Matrix: (Units=GPa)
#
#
# Indices 1 2 3 4 5 6 
#
# 1 60.0726 28.9072 19.9138 0.0000 -2.8671 0.0000
# 2 28.9072 178.2227 38.5195 0.0000 14.6622 0.0000
# 3 19.9138 38.5195 111.8604 0.0000 -20.9037 0.0000
# 4 0.0000 0.0000 0.0000 27.9583 0.0000 4.9623
# 5 -2.8671 14.6622 -20.9037 0.0000 30.5358 0.0000
# 6 0.0000 0.0000 0.0000 4.9623 0.0000 35.1051
#
#
#
# Elastic Compliance Matrix: (Units=1/GPa)
#
#
# Indices 1 2 3 4 5 6 
#
# 1 0.018727 -0.002719 -0.002092 0.000000 0.001632 0.000000
# 2 -0.002719 0.007197 -0.003082 0.000000 -0.005821 0.000000
# 3 -0.002092 -0.003082 0.012170 0.000000 0.009615 0.000000
# 4 0.000000 0.000000 0.000000 0.036688 0.000000 -0.005186
# 5 0.001632 -0.005821 0.009615 0.000000 0.042278 0.000000
# 6 0.000000 0.000000 0.000000 -0.005186 0.000000 0.029219
#
#
# Mechanical properties :
#
#
# Convention : Reuss Voigt Hill
#
# Bulk Modulus (GPa) = 44.83049 58.31521 51.57285
# Shear Modulus (GPa) = 29.49812 36.24086 32.86949
#
# Velocity S-wave (km/s) = 3.64104 4.03578 3.84348
# Velocity P-wave (km/s) = 6.15013 6.92278 6.54786
#
# Compressibility (1/GPa) = 0.02230625
#
# Stress axis : x y z
#
# Youngs Moduli (GPa) = 53.39998 138.94640 82.16773
#
# Poissons Ratio (x) = 0.37785 0.17193
# Poissons Ratio (y) = 0.14521 0.25324
# Poissons Ratio (z) = 0.11174 0.42823
#
# Static dielectric constant tensor:
#      x y z
#    x 1.964680 0.000000 -0.092980 
#    y 0.000000 1.872810 0.000000 
#    z -0.092980 0.000000 1.931890 
# 
# From -- ./inp_files/42774.got.cif
#   From: 2010.05.17/outbox.cif.g08.bks.cpg/sg15_22_cif.got.tgz:42774.got - 2010.06.03 18:47:42.
