data_PCOD9286088
_publ_section_title
;
Structure prediction by ZEFSAII (Michael W. Deem and Ramdas Pophale) SiO2 
 PCOD9286088
Probable space group: C 2/C
;
_chemical_formula_sum "Si O2"
_cell_formula_units_Z 44
_cell_length_a 9.228232
_cell_length_b 14.031985
_cell_length_c 16.354140
_cell_angle_alpha 90.000000
_cell_angle_beta 115.646463
_cell_angle_gamma 90.000000
_cell_volume 1909.072003
_symmetry_space_group_name_H-M "C 2/C"
_symmetry_group_IT_number 15
_symmetry_cell_setting 'monoclinic'
loop_
_space_group_symop_operation_xyz
x,y,z
-x,y,1/2-z
-x,-y,-z
x,-y,1/2+z
1/2+x,1/2+y,z
1/2-x,1/2+y,1/2-z
1/2-x,1/2-y,-z
1/2+x,1/2-y,1/2+z
loop_
_atom_site_type_symbol
_atom_site_label
_atom_site_fract_x
_atom_site_fract_y
_atom_site_fract_z
Si Si1 0.605251 0.043506 0.927547
Si Si2 0.727948 0.012512 0.136472
Si Si3 0.545873 0.247520 0.589223
Si Si4 0.000000 0.837411 0.750000
Si Si5 0.382859 0.317744 0.156819
Si Si6 0.580680 0.404997 0.055429
O O1 0.530693 0.143985 0.937717
O O2 0.733659 0.065473 0.888617
O O3 0.451047 0.979080 0.870151
O O4 0.696778 0.005860 0.030754
O O5 0.850339 0.095707 0.188100
O O6 0.808050 0.912525 0.181206
O O7 0.551400 0.274852 0.685481
O O8 0.726976 0.245001 0.597791
O O9 0.435603 0.324348 0.517559
O O10 0.500000 0.268306 0.250000
O O11 0.488247 0.359069 0.108684
O O12 0.500000 0.500000 0.000000
#
# Coordination Sequence:
#
# PCOD9286088 Si02
#       6
#     8   8   8   4   8   8
#     4  10  22  43  68  98 124 183 228 272 335 416
#     4  10  21  42  71  93 135 174 227 280 338 409
#     4  11  26  41  66 101 134 180 226 279 341 409
#     4  12  22  42  68 100 140 184 226 290 348 394
#     4  11  24  43  66  97 139 173 223 290 342 395
#     4  12  23  44  69  97 131 181 225 274 343 411
#
# _framework density 23.047847000000001
#
# number of rings (size 3 to 8) (size 9 to 14) (size 15 to 20)
#    0.000    1.091    4.545    1.091    2.545    0.000 
#    3.273    0.000    0.000    0.000    0.000    0.000 
#    0.000    0.000    0.000    0.000    0.000    0.000 
#
# Total GULP energy -123015.373064 kJ/mol
# GULP energy per Si atom -5591.607867 kJ/mol
# Density = 2.299539 g / cm^3
# Si number density = 23.047847 Si / 1000 Ang^3
#
#
#
# Elastic Constant Matrix: (Units=GPa)
#
#
# Indices 1 2 3 4 5 6 
#
# 1 182.1486 1.5784 37.2562 0.0000 14.2875 0.0000
# 2 1.5784 48.5943 6.7583 0.0000 7.4111 0.0000
# 3 37.2562 6.7583 62.8530 0.0000 8.3100 0.0000
# 4 0.0000 0.0000 0.0000 13.6006 0.0000 2.8267
# 5 14.2875 7.4111 8.3100 0.0000 38.4192 0.0000
# 6 0.0000 0.0000 0.0000 2.8267 0.0000 35.5379
#
#
#
# Elastic Compliance Matrix: (Units=1/GPa)
#
#
# Indices 1 2 3 4 5 6 
#
# 1 0.006355 0.000552 -0.003603 0.000000 -0.001691 0.000000
# 2 0.000552 0.021448 -0.002120 0.000000 -0.003884 0.000000
# 3 -0.003603 -0.002120 0.018574 0.000000 -0.002269 0.000000
# 4 0.000000 0.000000 0.000000 0.074762 0.000000 -0.005947
# 5 -0.001691 -0.003884 -0.002269 0.000000 0.027897 0.000000
# 6 0.000000 0.000000 0.000000 -0.005947 0.000000 0.028612
#
#
# Mechanical properties :
#
#
# Convention : Reuss Voigt Hill
#
# Bulk Modulus (GPa) = 27.75047 42.75351 35.25199
# Shear Modulus (GPa) = 25.00003 34.04509 29.52256
#
# Velocity S-wave (km/s) = 3.29705 3.84754 3.58288
# Velocity P-wave (km/s) = 5.15370 6.19098 5.69600
#
# Compressibility (1/GPa) = 0.03603543
#
# Stress axis : x y z
#
# Youngs Moduli (GPa) = 157.36335 46.62476 53.84004
#
# Poissons Ratio (x) = -0.02576 0.19397
# Poissons Ratio (y) = -0.08694 0.11415
# Poissons Ratio (z) = 0.56693 0.09885
#
# Static dielectric constant tensor:
#      x y z
#    x 1.948880 0.000000 0.005680 
#    y 0.000000 1.803660 0.000000 
#    z 0.005680 0.000000 1.864080 
# 
# From -- ./inp_files/182259.got.cif
#   From: 2010.05.17/outbox.cif.g08.bks.cpg/sg15_92_cif.got.tgz:182259.got - 2010.06.03 18:47:42.
