data_PCOD9286473
_publ_section_title
;
Structure prediction by ZEFSAII (Michael W. Deem and Ramdas Pophale) SiO2 
 PCOD9286473
Probable space group: C 2/C
;
_chemical_formula_sum "Si O2"
_cell_formula_units_Z 48
_cell_length_a 14.134649
_cell_length_b 11.934758
_cell_length_c 21.056365
_cell_angle_alpha 90.000000
_cell_angle_beta 41.618204
_cell_angle_gamma 90.000000
_cell_volume 2359.159080
_symmetry_space_group_name_H-M "C 2/C"
_symmetry_group_IT_number 15
_symmetry_cell_setting 'monoclinic'
loop_
_space_group_symop_operation_xyz
x,y,z
-x,y,1/2-z
-x,-y,-z
x,-y,1/2+z
1/2+x,1/2+y,z
1/2-x,1/2+y,1/2-z
1/2-x,1/2-y,-z
1/2+x,1/2-y,1/2+z
loop_
_atom_site_type_symbol
_atom_site_label
_atom_site_fract_x
_atom_site_fract_y
_atom_site_fract_z
Si Si1 0.500000 0.603618 0.750000
Si Si2 0.423434 0.032746 0.472062
Si Si3 0.207085 0.706286 0.876210
Si Si4 0.864980 0.907207 0.900288
Si Si5 0.349852 0.063233 0.720026
Si Si6 0.500000 0.785966 0.250000
Si Si7 0.576350 0.564662 0.405696
O O1 0.373393 0.681356 0.790988
O O2 0.438404 0.516901 0.832429
O O3 0.352342 0.149264 0.529386
O O4 0.500000 0.000000 0.500000
O O5 0.300794 0.942466 0.515180
O O6 0.538915 0.032880 0.358169
O O7 0.151942 0.643793 0.840445
O O8 0.161680 0.832763 0.893024
O O9 0.896942 0.798618 0.840980
O O10 0.951670 0.891764 0.921634
O O11 0.409661 0.135083 0.748502
O O12 0.195002 0.011393 0.811013
O O13 0.500000 0.500000 0.500000
#
# Coordination Sequence:
#
# PCOD9286473 Si02
#       7
#     4   8   8   8   8   4   8
#     4   9  18  41  72  92 124 177 220 257 330 404
#     4   9  22  41  67  97 131 171 220 270 325 397
#     4  10  21  44  68  96 130 181 215 268 338 389
#     4  10  21  43  69  97 130 173 224 267 327 395
#     4  11  24  42  65 101 134 166 225 280 326 388
#     4  11  24  39  74 100 130 179 218 281 334 374
#     4  12  27  43  65  99 138 170 222 275 326 394
#
# _framework density 20.346233000000002
#
# number of rings (size 3 to 8) (size 9 to 14) (size 15 to 20)
#    0.000    1.667    3.333    0.000    4.667    5.333 
#    0.000    1.667    0.000    0.000    0.000    0.000 
#    0.000    0.000    0.000    0.000    0.000    0.000 
#
# Total GULP energy -133928.536808 kJ/mol
# GULP energy per Si atom -5580.355700 kJ/mol
# Density = 2.029992 g / cm^3
# Si number density = 20.346233 Si / 1000 Ang^3
#
#
#
# Elastic Constant Matrix: (Units=GPa)
#
#
# Indices 1 2 3 4 5 6 
#
# 1 113.3898 25.1072 26.2310 0.0000 -8.8208 0.0000
# 2 25.1072 81.3834 25.9250 0.0000 3.8068 0.0000
# 3 26.2310 25.9250 108.9676 0.0000 -3.7186 0.0000
# 4 0.0000 0.0000 0.0000 12.5424 0.0000 -0.3307
# 5 -8.8208 3.8068 -3.7186 0.0000 28.5268 0.0000
# 6 0.0000 0.0000 0.0000 -0.3307 0.0000 24.3585
#
#
#
# Elastic Compliance Matrix: (Units=1/GPa)
#
#
# Indices 1 2 3 4 5 6 
#
# 1 0.010061 -0.002727 -0.001662 0.000000 0.003258 0.000000
# 2 -0.002727 0.014173 -0.002821 0.000000 -0.003102 0.000000
# 3 -0.001662 -0.002821 0.010289 0.000000 0.001204 0.000000
# 4 0.000000 0.000000 0.000000 0.079758 0.000000 0.001083
# 5 0.003258 -0.003102 0.001204 0.000000 0.036633 0.000000
# 6 0.000000 0.000000 0.000000 0.001083 0.000000 0.041068
#
#
# Mechanical properties :
#
#
# Convention : Reuss Voigt Hill
#
# Bulk Modulus (GPa) = 49.74452 50.91856 50.33154
# Shear Modulus (GPa) = 23.46281 28.18404 25.82342
#
# Velocity S-wave (km/s) = 3.39953 3.72589 3.56645
# Velocity P-wave (km/s) = 6.31753 6.60228 6.46147
#
# Compressibility (1/GPa) = 0.02010272
#
# Stress axis : x y z
#
# Youngs Moduli (GPa) = 99.39521 70.55858 97.18713
#
# Poissons Ratio (x) = 0.19240 0.16152
# Poissons Ratio (y) = 0.27103 0.27420
# Poissons Ratio (z) = 0.16519 0.19907
#
# Static dielectric constant tensor:
#      x y z
#    x 1.928740 0.000000 -0.013830 
#    y 0.000000 1.713000 0.000000 
#    z -0.013830 0.000000 1.736740 
# 
# From -- ./inp_files/181725.got.cif
#   From: 2010.05.17/outbox.cif.g08.bks.cpg/sg15_91_cif.got.tgz:181725.got - 2010.06.03 18:47:42.
