data_PCOD9286437
_publ_section_title
;
Structure prediction by ZEFSAII (Michael W. Deem and Ramdas Pophale) SiO2 
 PCOD9286437
Probable space group: C 2/C
;
_chemical_formula_sum "Si O2"
_cell_formula_units_Z 56
_cell_length_a 11.234466
_cell_length_b 26.480387
_cell_length_c 9.480182
_cell_angle_alpha 90.000000
_cell_angle_beta 63.011796
_cell_angle_gamma 90.000000
_cell_volume 2513.158429
_symmetry_space_group_name_H-M "C 2/C"
_symmetry_group_IT_number 15
_symmetry_cell_setting 'monoclinic'
loop_
_space_group_symop_operation_xyz
x,y,z
-x,y,1/2-z
-x,-y,-z
x,-y,1/2+z
1/2+x,1/2+y,z
1/2-x,1/2+y,1/2-z
1/2-x,1/2-y,-z
1/2+x,1/2-y,1/2+z
loop_
_atom_site_type_symbol
_atom_site_label
_atom_site_fract_x
_atom_site_fract_y
_atom_site_fract_z
Si Si1 0.127649 0.461225 0.583161
Si Si2 0.250823 0.147205 0.088109
Si Si3 0.788517 0.695831 0.543931
Si Si4 0.171659 0.114860 0.419284
Si Si5 0.968896 0.573156 0.918518
Si Si6 0.454926 0.231141 0.938000
Si Si7 0.098026 0.160743 0.898793
O O1 0.260683 0.438888 0.582283
O O2 0.112030 0.521381 0.569567
O O3 0.000000 0.448211 0.750000
O O4 0.097568 0.438763 0.444056
O O5 0.153902 0.132928 0.267409
O O6 0.374496 0.110715 0.050613
O O7 0.313627 0.203237 0.043018
O O8 0.189360 0.135438 0.969234
O O9 0.750000 0.750000 0.500000
O O10 0.777190 0.654573 0.428055
O O11 0.684203 0.678175 0.719406
O O12 0.931807 0.701106 0.537774
O O13 0.028010 0.125388 0.565211
O O14 0.000000 0.596413 0.750000
O O15 0.500000 0.231415 0.750000
O O16 0.452634 0.287391 0.000947
#
# Coordination Sequence:
#
# PCOD9286437 Si02
#       7
#     8   8   8   8   8   8   8
#     4  10  21  43  68  99 130 168 218 281 333 391
#     4  12  24  42  68  97 131 177 221 275 333 403
#     4  12  26  44  65  94 131 175 226 280 325 389
#     4  12  25  42  65  95 137 175 214 270 342 397
#     4  10  22  40  69 101 130 163 222 281 331 388
#     4  12  24  42  67  93 129 179 230 271 327 385
#     4  12  27  44  63  95 137 179 222 268 328 411
#
# _framework density 22.282717000000002
#
# number of rings (size 3 to 8) (size 9 to 14) (size 15 to 20)
#    0.000    0.571    4.286    4.286    2.000    1.143 
#    0.000    0.714    0.000    1.714    0.000    0.000 
#    0.000    0.000    0.000    0.000    0.000    0.000 
#
# Total GULP energy -156605.816568 kJ/mol
# GULP energy per Si atom -5593.064877 kJ/mol
# Density = 2.223200 g / cm^3
# Si number density = 22.282717 Si / 1000 Ang^3
#
#
#
# Elastic Constant Matrix: (Units=GPa)
#
#
# Indices 1 2 3 4 5 6 
#
# 1 89.5372 22.2646 3.7631 0.0000 1.5737 0.0000
# 2 22.2646 61.6443 4.4848 0.0000 -3.0823 0.0000
# 3 3.7631 4.4848 92.6532 0.0000 13.0809 0.0000
# 4 0.0000 0.0000 0.0000 22.2008 0.0000 8.0008
# 5 1.5737 -3.0823 13.0809 0.0000 32.2813 0.0000
# 6 0.0000 0.0000 0.0000 8.0008 0.0000 30.4628
#
#
#
# Elastic Compliance Matrix: (Units=1/GPa)
#
#
# Indices 1 2 3 4 5 6 
#
# 1 0.012306 -0.004483 -0.000146 0.000000 -0.000969 0.000000
# 2 -0.004483 0.018033 -0.001023 0.000000 0.002355 0.000000
# 3 -0.000146 -0.001023 0.011520 0.000000 -0.004759 0.000000
# 4 0.000000 0.000000 0.000000 0.049753 0.000000 -0.013067
# 5 -0.000969 0.002355 -0.004759 0.000000 0.033178 0.000000
# 6 0.000000 0.000000 0.000000 -0.013067 0.000000 0.036259
#
#
# Mechanical properties :
#
#
# Convention : Reuss Voigt Hill
#
# Bulk Modulus (GPa) = 32.72686 33.87330 33.30008
# Shear Modulus (GPa) = 27.39144 31.21048 29.30096
#
# Velocity S-wave (km/s) = 3.50990 3.74660 3.63018
# Velocity P-wave (km/s) = 5.58075 5.82671 5.70506
#
# Compressibility (1/GPa) = 0.03055594
#
# Stress axis : x y z
#
# Youngs Moduli (GPa) = 81.25876 55.45293 86.80371
#
# Poissons Ratio (x) = 0.24857 0.01268
# Poissons Ratio (y) = 0.36425 0.08883
# Poissons Ratio (z) = 0.01187 0.05675
#
# Static dielectric constant tensor:
#      x y z
#    x 1.845170 0.000000 -0.043160 
#    y 0.000000 1.832760 0.000000 
#    z -0.043160 0.000000 2.030090 
# 
# From -- ./inp_files/35147.got.cif
#   From: 2010.05.17/outbox.cif.g08.bks.cpg/sg15_18_cif.got.tgz:35147.got - 2010.06.03 18:47:42.
