data_PCOD9286423
_publ_section_title
;
Structure prediction by ZEFSAII (Michael W. Deem and Ramdas Pophale) SiO2 
 PCOD9286423
Probable space group: C 2/C
;
_chemical_formula_sum "Si O2"
_cell_formula_units_Z 56
_cell_length_a 15.875334
_cell_length_b 12.729343
_cell_length_c 11.998126
_cell_angle_alpha 90.000000
_cell_angle_beta 64.283037
_cell_angle_gamma 90.000000
_cell_volume 2184.450911
_symmetry_space_group_name_H-M "C 2/C"
_symmetry_group_IT_number 15
_symmetry_cell_setting 'monoclinic'
loop_
_space_group_symop_operation_xyz
x,y,z
-x,y,1/2-z
-x,-y,-z
x,-y,1/2+z
1/2+x,1/2+y,z
1/2-x,1/2+y,1/2-z
1/2-x,1/2-y,-z
1/2+x,1/2-y,1/2+z
loop_
_atom_site_type_symbol
_atom_site_label
_atom_site_fract_x
_atom_site_fract_y
_atom_site_fract_z
Si Si1 0.337909 0.402707 0.797907
Si Si2 0.391848 0.797203 0.141911
Si Si3 0.840855 0.554475 0.877168
Si Si4 0.500000 0.914017 0.750000
Si Si5 0.758799 0.593415 0.571614
Si Si6 0.613239 0.255288 0.525280
Si Si7 0.102405 0.220919 0.786881
Si Si8 0.000000 0.060407 0.750000
O O1 0.340945 0.311171 0.705823
O O2 0.254897 0.487886 0.845181
O O3 0.363384 0.344223 0.899364
O O4 0.425077 0.481503 0.742546
O O5 0.361833 0.887367 0.248679
O O6 0.350021 0.840396 0.051108
O O7 0.502464 0.773299 0.085739
O O8 0.935026 0.492327 0.855958
O O9 0.833212 0.652883 0.963628
O O10 0.763749 0.464238 0.948033
O O11 0.569019 0.837671 0.778122
O O12 0.672807 0.669214 0.656077
O O13 0.645648 0.285471 0.383871
O O14 0.008124 0.149239 0.842766
#
# Coordination Sequence:
#
# PCOD9286423 Si02
#       8
#     8   8   8   4   8   8   8   4
#     4  10  21  43  68  94 140 182 236 291 335 430
#     4  11  23  43  69 105 132 184 240 283 352 417
#     4  11  24  42  71  99 138 183 230 288 349 425
#     4  11  22  45  68  96 140 181 232 287 340 430
#     4  11  27  41  63 107 142 176 225 294 369 408
#     4  11  22  43  73 100 128 188 247 287 335 425
#     4  10  25  40  65 100 138 178 231 287 356 418
#     4   9  18  45  62  94 132 181 232 281 344 422
#
# _framework density 25.635732999999998
#
# number of rings (size 3 to 8) (size 9 to 14) (size 15 to 20)
#    0.000    1.429    2.857    1.714    6.000    3.429 
#    0.000    2.857    0.000    0.000    0.000    0.000 
#    0.000    0.000    0.000    0.000    0.000    0.000 
#
# Total GULP energy -156140.448844 kJ/mol
# GULP energy per Si atom -5576.444602 kJ/mol
# Density = 2.557738 g / cm^3
# Si number density = 25.635733 Si / 1000 Ang^3
#
#
#
# Elastic Constant Matrix: (Units=GPa)
#
#
# Indices 1 2 3 4 5 6 
#
# 1 59.4938 28.1393 5.6900 0.0000 -12.8742 0.0000
# 2 28.1393 124.4274 16.1719 0.0000 1.2154 0.0000
# 3 5.6900 16.1719 52.4801 0.0000 -6.7217 0.0000
# 4 0.0000 0.0000 0.0000 -36.8354 0.0000 8.1182
# 5 -12.8742 1.2154 -6.7217 0.0000 33.4170 0.0000
# 6 0.0000 0.0000 0.0000 8.1182 0.0000 37.7178
#
#
#
# Elastic Compliance Matrix: (Units=1/GPa)
#
#
# Indices 1 2 3 4 5 6 
#
# 1 0.020857 -0.004835 0.000288 0.000000 0.008269 0.000000
# 2 -0.004835 0.009516 -0.002762 0.000000 -0.002764 0.000000
# 3 0.000288 -0.002762 0.020428 0.000000 0.004320 0.000000
# 4 0.000000 0.000000 0.000000 -0.025918 0.000000 0.005579
# 5 0.008269 -0.002764 0.004320 0.000000 0.034080 0.000000
# 6 0.000000 0.000000 0.000000 0.005579 0.000000 0.025312
#
#
# Mechanical properties :
#
#
# Convention : Reuss Voigt Hill
#
# Bulk Modulus (GPa) = 27.63777 37.37820 32.50798
# Shear Modulus (GPa) = 45.06300 19.28656 32.17478
#
# Velocity S-wave (km/s) = 4.19718 2.74584 3.54655
# Velocity P-wave (km/s) = 5.85601 4.96639 5.42945
#
# Compressibility (1/GPa) = 0.03618237
#
# Stress axis : x y z
#
# Youngs Moduli (GPa) = 47.94497 105.08303 48.95192
#
# Poissons Ratio (x) = 0.50808 -0.01408
# Poissons Ratio (y) = 0.23182 0.13522
# Poissons Ratio (z) = -0.01379 0.29027
#
# Static dielectric constant tensor:
#      x y z
#    x 2.158110 0.000000 -0.093660 
#    y 0.000000 1.953870 0.000000 
#    z -0.093660 0.000000 2.196720 
# 
# From -- ./inp_files/161269.got.cif
#   From: 2010.05.17/outbox.cif.g08.bks.cpg/sg15_81_cif.got.tgz:161269.got - 2010.06.03 18:47:42.
