data_PCOD9286669
_publ_section_title
;
Structure prediction by ZEFSAII (Michael W. Deem and Ramdas Pophale) SiO2 
 PCOD9286669
Probable space group: C 2/C
;
_chemical_formula_sum "Si O2"
_cell_formula_units_Z 44
_cell_length_a 16.973976
_cell_length_b 7.558837
_cell_length_c 28.183479
_cell_angle_alpha 90.000000
_cell_angle_beta 35.165753
_cell_angle_gamma 90.000000
_cell_volume 2082.635484
_symmetry_space_group_name_H-M "C 2/C"
_symmetry_group_IT_number 15
_symmetry_cell_setting 'monoclinic'
loop_
_space_group_symop_operation_xyz
x,y,z
-x,y,1/2-z
-x,-y,-z
x,-y,1/2+z
1/2+x,1/2+y,z
1/2-x,1/2+y,1/2-z
1/2-x,1/2-y,-z
1/2+x,1/2-y,1/2+z
loop_
_atom_site_type_symbol
_atom_site_label
_atom_site_fract_x
_atom_site_fract_y
_atom_site_fract_z
Si Si1 0.154784 0.205482 0.002603
Si Si2 0.359811 0.129501 0.250670
Si Si3 0.196621 0.493901 0.403626
Si Si4 0.000000 0.134404 0.750000
Si Si5 0.623992 0.869004 0.338896
Si Si6 0.645283 0.407687 0.940980
O O1 0.168862 0.345463 0.952300
O O2 0.190210 0.013163 0.965242
O O3 0.250000 0.250000 0.000000
O O4 0.996428 0.227925 0.094734
O O5 0.403508 0.975060 0.194962
O O6 0.257261 0.069614 0.343723
O O7 0.483414 0.236149 0.213267
O O8 0.267110 0.266261 0.266515
O O9 0.360757 0.474216 0.319944
O O10 0.137971 0.494592 0.378737
O O11 0.140038 0.303922 0.450184
O O12 0.500000 0.500000 0.000000
#
# Coordination Sequence:
#
# PCOD9286669 Si02
#       6
#     8   8   8   4   8   8
#     4  12  26  41  63  99 125 165 219 253 317 375
#     4  10  22  39  66  89 126 163 207 260 316 368
#     4  10  23  44  65  87 131 168 206 261 311 377
#     4   8  20  44  60  90 128 162 206 252 326 354
#     4  10  23  41  62  96 121 165 214 252 317 381
#     4  10  21  44  65  90 127 168 205 260 317 373
#
# _framework density 21.127077
#
# number of rings (size 3 to 8) (size 9 to 14) (size 15 to 20)
#    0.000    2.182    3.636    0.545    7.636    3.636 
#    0.000    0.000    0.000    0.000    0.000    0.000 
#    0.000    0.000    0.000    0.000    0.000    0.000 
#
# Total GULP energy -122824.248752 kJ/mol
# GULP energy per Si atom -5582.920398 kJ/mol
# Density = 2.107899 g / cm^3
# Si number density = 21.127077 Si / 1000 Ang^3
#
#
#
# Elastic Constant Matrix: (Units=GPa)
#
#
# Indices 1 2 3 4 5 6 
#
# 1 58.5381 -17.1016 3.8241 0.0003 -11.3823 0.0004
# 2 -17.1016 34.1772 14.5617 -0.0023 14.3751 0.0002
# 3 3.8241 14.5617 40.0799 0.0000 -6.2549 -0.0001
# 4 0.0003 -0.0023 0.0000 19.2330 0.0000 3.3521
# 5 -11.3823 14.3751 -6.2549 0.0000 33.0429 0.0006
# 6 0.0004 0.0002 -0.0001 3.3521 0.0006 27.7353
#
#
#
# Elastic Compliance Matrix: (Units=1/GPa)
#
#
# Indices 1 2 3 4 5 6 
#
# 1 0.021581 0.013743 -0.007033 0.000001 0.000124 -0.000001
# 2 0.013743 0.058149 -0.026428 0.000007 -0.025566 -0.000001
# 3 -0.007033 -0.026428 0.037754 -0.000003 0.016221 0.000000
# 4 0.000001 0.000007 -0.000003 0.053113 -0.000003 -0.006419
# 5 0.000124 -0.025566 0.016221 -0.000003 0.044499 0.000000
# 6 -0.000001 -0.000001 0.000000 -0.006419 0.000000 0.036831
#
#
# Mechanical properties :
#
#
# Convention : Reuss Voigt Hill
#
# Bulk Modulus (GPa) = 12.81226 15.04039 13.92633
# Shear Modulus (GPa) = 15.75401 24.76965 20.26183
#
# Velocity S-wave (km/s) = 2.73367 3.42777 3.10021
# Velocity P-wave (km/s) = 4.00519 4.77499 4.40693
#
# Compressibility (1/GPa) = 0.07805025
#
# Stress axis : x y z
#
# Youngs Moduli (GPa) = 46.33617 17.19713 26.48699
#
# Poissons Ratio (x) = -0.23634 0.18628
# Poissons Ratio (y) = -0.63681 0.69999
# Poissons Ratio (z) = 0.32588 0.45448
#
# Static dielectric constant tensor:
#      x y z
#    x 1.774510 0.000000 0.000020 
#    y 0.000000 1.768230 0.000000 
#    z 0.000020 0.000000 1.769560 
# 
# From -- ./inp_files/294999.got.cif
#   From: 2010.05.17/outbox.cif.g08.bks.cpg/sg15_148_cif.got.tgz:294999.got - 2010.06.03 18:47:42.
