data_PCOD9286107
_publ_section_title
;
Structure prediction by ZEFSAII (Michael W. Deem and Ramdas Pophale) SiO2 
 PCOD9286107
Probable space group: C 2/C
;
_chemical_formula_sum "Si O2"
_cell_formula_units_Z 40
_cell_length_a 14.635586
_cell_length_b 23.723364
_cell_length_c 10.533592
_cell_angle_alpha 90.000000
_cell_angle_beta 154.325314
_cell_angle_gamma 90.000000
_cell_volume 1584.573592
_symmetry_space_group_name_H-M "C 2/C"
_symmetry_group_IT_number 15
_symmetry_cell_setting 'monoclinic'
loop_
_space_group_symop_operation_xyz
x,y,z
-x,y,1/2-z
-x,-y,-z
x,-y,1/2+z
1/2+x,1/2+y,z
1/2-x,1/2+y,1/2-z
1/2-x,1/2-y,-z
1/2+x,1/2-y,1/2+z
loop_
_atom_site_type_symbol
_atom_site_label
_atom_site_fract_x
_atom_site_fract_y
_atom_site_fract_z
Si Si1 0.467431 0.825563 0.910786
Si Si2 0.792408 0.121854 0.630483
Si Si3 0.144001 0.002208 0.306485
Si Si4 0.719008 0.381070 0.805068
Si Si5 0.930960 0.233162 0.283962
O O1 0.284708 0.838296 0.579884
O O2 0.421495 0.857652 0.985371
O O3 0.670431 0.852816 0.098701
O O4 0.483839 0.761452 0.978094
O O5 0.731487 0.056554 0.527184
O O6 0.037834 0.114942 0.969419
O O7 0.259593 0.061204 0.427961
O O8 0.000000 0.007212 0.250000
O O9 0.000000 0.000000 0.000000
O O10 0.617320 0.332980 0.764128
O O11 0.163876 0.244223 0.485763
#
# Coordination Sequence:
#
# PCOD9286107 Si02
#       5
#     8   8   8   8   8
#     4  11  24  43  67 103 138 183 230 287 352 417
#     4  10  23  44  68 102 141 173 235 287 351 422
#     4  10  21  42  72 102 138 183 231 286 354 421
#     4  11  23  43  72  99 137 185 227 289 351 419
#     4  12  24  44  63  95 140 176 236 283 337 420
#
# _framework density 25.243385
#
# number of rings (size 3 to 8) (size 9 to 14) (size 15 to 20)
#    0.000    1.200    2.000    4.800    0.000    3.200 
#    3.600    6.000    0.000    0.000    0.000    0.000 
#    0.000    0.000    0.000    0.000    0.000    0.000 
#
# Total GULP energy -111626.206295 kJ/mol
# GULP energy per Si atom -5581.310315 kJ/mol
# Density = 2.518593 g / cm^3
# Si number density = 25.243385 Si / 1000 Ang^3
#
#
#
# Elastic Constant Matrix: (Units=GPa)
#
#
# Indices 1 2 3 4 5 6 
#
# 1 186.3938 47.3628 14.2331 0.0000 11.1437 0.0000
# 2 47.3628 141.8323 14.0690 0.0000 -19.8760 0.0000
# 3 14.2331 14.0690 101.7006 0.0001 -9.6825 0.0001
# 4 0.0000 0.0000 0.0001 4.5696 0.0000 7.4079
# 5 11.1437 -19.8760 -9.6825 0.0000 41.9176 0.0000
# 6 0.0000 0.0000 0.0001 7.4079 0.0000 35.5646
#
#
#
# Elastic Compliance Matrix: (Units=1/GPa)
#
#
# Indices 1 2 3 4 5 6 
#
# 1 0.006220 -0.002414 -0.000821 0.000000 -0.002988 0.000000
# 2 -0.002414 0.008541 -0.000406 0.000000 0.004598 0.000000
# 3 -0.000821 -0.000406 0.010231 0.000000 0.002389 0.000000
# 4 0.000000 0.000000 0.000000 0.330400 0.000000 -0.068820
# 5 -0.002988 0.004598 0.002389 0.000000 0.027383 0.000000
# 6 0.000000 0.000000 0.000000 -0.068820 0.000000 0.042453
#
#
# Mechanical properties :
#
#
# Convention : Reuss Voigt Hill
#
# Bulk Modulus (GPa) = 56.46485 64.58406 60.52446
# Shear Modulus (GPa) = 11.40476 40.02783 25.71629
#
# Velocity S-wave (km/s) = 2.12785 3.98637 3.19522
# Velocity P-wave (km/s) = 5.33420 6.84312 6.13523
#
# Compressibility (1/GPa) = 0.01771013
#
# Stress axis : x y z
#
# Youngs Moduli (GPa) = 160.77740 117.07642 97.73940
#
# Poissons Ratio (x) = 0.28266 0.08024
# Poissons Ratio (y) = 0.38816 0.03968
# Poissons Ratio (z) = 0.13199 0.04753
#
# Static dielectric constant tensor:
#      x y z
#    x 2.036030 0.000000 0.120510 
#    y 0.000000 1.996400 0.000000 
#    z 0.120510 0.000000 2.218270 
# 
# From -- ./inp_files/7495.got.cif
#   From: 2010.05.17/outbox.cif.g08.bks.cpg/sg15_4_cif.got.tgz:7495.got - 2010.06.03 18:47:42.
