data_PCOD9286881
_publ_section_title
;
Structure prediction by ZEFSAII (Michael W. Deem and Ramdas Pophale) SiO2 
 PCOD9286881
Probable space group: C 2/C
;
_chemical_formula_sum "Si O2"
_cell_formula_units_Z 48
_cell_length_a 14.492852
_cell_length_b 11.532832
_cell_length_c 14.790622
_cell_angle_alpha 90.000000
_cell_angle_beta 110.386102
_cell_angle_gamma 90.000000
_cell_volume 2317.318324
_symmetry_space_group_name_H-M "C 2/C"
_symmetry_group_IT_number 15
_symmetry_cell_setting 'monoclinic'
loop_
_space_group_symop_operation_xyz
x,y,z
-x,y,1/2-z
-x,-y,-z
x,-y,1/2+z
1/2+x,1/2+y,z
1/2-x,1/2+y,1/2-z
1/2-x,1/2-y,-z
1/2+x,1/2-y,1/2+z
loop_
_atom_site_type_symbol
_atom_site_label
_atom_site_fract_x
_atom_site_fract_y
_atom_site_fract_z
Si Si1 0.861080 0.477015 0.330185
Si Si2 0.764414 0.578535 0.609203
Si Si3 0.503847 0.178934 0.143222
Si Si4 0.542051 0.627934 0.530106
Si Si5 0.795629 0.375387 0.492506
Si Si6 0.466590 0.206377 0.641537
O O1 0.799716 0.472732 0.217068
O O2 0.901780 0.606572 0.360333
O O3 0.802061 0.415427 0.390801
O O4 0.960213 0.402033 0.348045
O O5 0.659181 0.636230 0.582527
O O6 0.744460 0.475683 0.531891
O O7 0.854240 0.660918 0.608045
O O8 0.500000 0.171140 0.250000
O O9 0.500876 0.309179 0.105091
O O10 0.407027 0.122539 0.067546
O O11 0.500000 0.500000 0.500000
O O12 0.516665 0.705729 0.434250
O O13 0.750000 0.250000 0.500000
O O14 0.500000 0.256822 0.750000
#
# Coordination Sequence:
#
# PCOD9286881 Si02
#       6
#     8   8   8   8   8   8
#     4  11  22  43  74 102 128 172 234 287 321 391
#     4  11  24  43  67 102 133 173 233 270 333 408
#     4  12  23  45  74  97 135 177 229 277 338 400
#     4  12  27  45  62  99 145 176 214 279 352 405
#     4  12  24  41  69 103 136 174 220 276 335 402
#     4  10  21  44  72  95 129 178 227 277 329 399
#
# _framework density 20.713598000000001
#
# number of rings (size 3 to 8) (size 9 to 14) (size 15 to 20)
#    0.000    0.667    5.000    3.500    2.333    0.667 
#    6.000    0.000    0.000    0.000    0.000    0.000 
#    0.000    0.000    0.000    0.000    0.000    0.000 
#
# Total GULP energy -134143.680158 kJ/mol
# GULP energy per Si atom -5589.320007 kJ/mol
# Density = 2.066645 g / cm^3
# Si number density = 20.713598 Si / 1000 Ang^3
#
#
#
# Elastic Constant Matrix: (Units=GPa)
#
#
# Indices 1 2 3 4 5 6 
#
# 1 49.4087 8.1054 19.2492 0.0000 -5.8519 0.0000
# 2 8.1054 66.8914 13.2837 0.0000 -7.0335 0.0000
# 3 19.2492 13.2837 66.5991 0.0000 -10.2042 0.0000
# 4 0.0000 0.0000 0.0000 -1.9620 0.0000 7.6035
# 5 -5.8519 -7.0335 -10.2042 0.0000 33.8854 0.0000
# 6 0.0000 0.0000 0.0000 7.6035 0.0000 34.3024
#
#
#
# Elastic Compliance Matrix: (Units=1/GPa)
#
#
# Indices 1 2 3 4 5 6 
#
# 1 0.023065 -0.001387 -0.006105 0.000000 0.001857 0.000000
# 2 -0.001387 0.015839 -0.002402 0.000000 0.002325 0.000000
# 3 -0.006105 -0.002402 0.017844 0.000000 0.003821 0.000000
# 4 0.000000 0.000000 0.000000 -0.274167 0.000000 0.060772
# 5 0.001857 0.002325 0.003821 0.000000 0.031465 0.000000
# 6 0.000000 0.000000 0.000000 0.060772 0.000000 0.015682
#
#
# Mechanical properties :
#
#
# Convention : Reuss Voigt Hill
#
# Bulk Modulus (GPa) = 27.05660 29.35284 28.20472
# Shear Modulus (GPa) = -36.18943 22.72921 -6.73011
#
# Velocity S-wave (km/s) = -4.18441 3.31616 -1.80449
# Velocity P-wave (km/s) = 3.20236 5.37253 3.05033
#
# Compressibility (1/GPa) = 0.03695956
#
# Stress axis : x y z
#
# Youngs Moduli (GPa) = 43.35487 63.13463 56.04006
#
# Poissons Ratio (x) = 0.08758 0.34215
# Poissons Ratio (y) = 0.06014 0.13461
# Poissons Ratio (z) = 0.26470 0.15166
#
# Static dielectric constant tensor:
#      x y z
#    x 1.784450 0.000000 -0.034860 
#    y 0.000000 1.742370 0.000000 
#    z -0.034860 0.000000 1.720580 
# 
# From -- ./inp_files/152743.got.cif
#   From: 2010.05.17/outbox.cif.g08.bks.cpg/sg15_77_cif.got.tgz:152743.got - 2010.06.03 18:47:42.
