data_PCOD9286499
_publ_section_title
;
Structure prediction by ZEFSAII (Michael W. Deem and Ramdas Pophale) SiO2 
 PCOD9286499
Probable space group: C 2/C
;
_chemical_formula_sum "Si O2"
_cell_formula_units_Z 64
_cell_length_a 6.928408
_cell_length_b 17.552309
_cell_length_c 27.433478
_cell_angle_alpha 90.000000
_cell_angle_beta 85.183736
_cell_angle_gamma 90.000000
_cell_volume 3324.393330
_symmetry_space_group_name_H-M "C 2/C"
_symmetry_group_IT_number 15
_symmetry_cell_setting 'monoclinic'
loop_
_space_group_symop_operation_xyz
x,y,z
-x,y,1/2-z
-x,-y,-z
x,-y,1/2+z
1/2+x,1/2+y,z
1/2-x,1/2+y,1/2-z
1/2-x,1/2-y,-z
1/2+x,1/2-y,1/2+z
loop_
_atom_site_type_symbol
_atom_site_label
_atom_site_fract_x
_atom_site_fract_y
_atom_site_fract_z
Si Si1 0.796818 0.985746 0.529505
Si Si2 0.454733 0.963537 0.651370
Si Si3 0.629565 0.630901 0.198644
Si Si4 0.695401 0.795723 0.374509
Si Si5 0.079719 0.620876 0.694011
Si Si6 0.178320 0.872867 0.881580
Si Si7 0.073439 0.560893 0.939226
Si Si8 0.920632 0.225550 0.696734
O O1 0.839896 0.932007 0.574283
O O2 0.664674 0.947752 0.490463
O O3 0.661334 0.056316 0.550330
O O4 0.000000 0.000000 0.500000
O O5 0.279528 0.938879 0.689772
O O6 0.610967 0.895756 0.644593
O O7 0.555908 0.038817 0.670140
O O8 0.384985 0.989724 0.598667
O O9 0.500000 0.633278 0.250000
O O10 0.481483 0.622043 0.157078
O O11 0.768025 0.705305 0.192291
O O12 0.545895 0.818832 0.334730
O O13 0.659612 0.714013 0.399488
O O14 0.664772 0.864848 0.412424
O O15 0.901618 0.783290 0.344097
O O16 0.297551 0.649003 0.692623
O O17 0.000000 0.619013 0.750000
O O18 0.000000 0.233094 0.750000
#
# Coordination Sequence:
#
# PCOD9286499 Si02
#       8
#     8   8   8   8   8   8   8   8
#     4  10  21  43  70  91 126 163 206 263 330 390
#     4  10  24  41  62  91 131 165 211 266 316 371
#     4  12  25  39  64  93 130 173 219 259 310 376
#     4  11  22  41  65  92 129 167 213 267 315 374
#     4  11  23  40  58  89 126 166 216 266 307 373
#     4  11  23  42  66  94 124 170 213 258 321 382
#     4   9  22  42  64  95 126 160 209 265 326 381
#     4  12  23  40  65  87 126 180 217 253 320 372
#
# _framework density 19.251632000000001
#
# number of rings (size 3 to 8) (size 9 to 14) (size 15 to 20)
#    0.000    1.250    3.750    1.875    1.750    5.500 
#    0.000    0.625    0.000    0.000    0.000    0.000 
#    0.000    0.000    0.000    0.000    0.000    0.000 
#
# Total GULP energy -178513.368908 kJ/mol
# GULP energy per Si atom -5578.542778 kJ/mol
# Density = 1.920781 g / cm^3
# Si number density = 19.251632 Si / 1000 Ang^3
#
#
#
# Elastic Constant Matrix: (Units=GPa)
#
#
# Indices 1 2 3 4 5 6 
#
# 1 107.7042 52.0762 64.9452 0.0000 -10.9396 0.0000
# 2 52.0762 98.5265 33.0444 0.0000 2.0246 0.0000
# 3 64.9452 33.0444 94.3661 0.0000 -0.2571 0.0000
# 4 0.0000 0.0000 0.0000 18.0597 0.0000 0.2941
# 5 -10.9396 2.0246 -0.2571 0.0000 41.5731 0.0000
# 6 0.0000 0.0000 0.0000 0.2941 0.0000 29.0632
#
#
#
# Elastic Compliance Matrix: (Units=1/GPa)
#
#
# Indices 1 2 3 4 5 6 
#
# 1 0.020024 -0.006890 -0.011354 0.000000 0.005535 0.000000
# 2 -0.006890 0.013885 -0.000127 0.000000 -0.002490 0.000000
# 3 -0.011354 -0.000127 0.018448 0.000000 -0.002867 0.000000
# 4 0.000000 0.000000 0.000000 0.055381 0.000000 -0.000560
# 5 0.005535 -0.002490 -0.002867 0.000000 0.025614 0.000000
# 6 0.000000 0.000000 0.000000 -0.000560 0.000000 0.034413
#
#
# Mechanical properties :
#
#
# Convention : Reuss Voigt Hill
#
# Bulk Modulus (GPa) = 64.03773 66.74759 65.39266
# Shear Modulus (GPa) = 23.84231 27.77461 25.80846
#
# Velocity S-wave (km/s) = 3.52299 3.80243 3.66537
# Velocity P-wave (km/s) = 7.06289 7.35013 7.20794
#
# Compressibility (1/GPa) = 0.01561579
#
# Stress axis : x y z
#
# Youngs Moduli (GPa) = 49.93951 72.02047 54.20769
#
# Poissons Ratio (x) = 0.49620 0.61545
# Poissons Ratio (y) = 0.34407 0.00690
# Poissons Ratio (z) = 0.56699 0.00916
#
# Static dielectric constant tensor:
#      x y z
#    x 1.709510 0.000000 -0.016530 
#    y 0.000000 1.695480 0.000000 
#    z -0.016530 0.000000 1.677370 
# 
# From -- ./inp_files/305793.got.cif
#   From: 2010.05.17/outbox.cif.g08.bks.cpg/sg15_153_cif.got.tgz:305793.got - 2010.06.03 18:47:42.
