data_PCOD9286266
_publ_section_title
;
Structure prediction by ZEFSAII (Michael W. Deem and Ramdas Pophale) SiO2 
 PCOD9286266
Probable space group: C 2/C
;
_chemical_formula_sum "Si O2"
_cell_formula_units_Z 52
_cell_length_a 8.775789
_cell_length_b 11.567913
_cell_length_c 30.217676
_cell_angle_alpha 90.000000
_cell_angle_beta 133.729342
_cell_angle_gamma 90.000000
_cell_volume 2216.706330
_symmetry_space_group_name_H-M "C 2/C"
_symmetry_group_IT_number 15
_symmetry_cell_setting 'monoclinic'
loop_
_space_group_symop_operation_xyz
x,y,z
-x,y,1/2-z
-x,-y,-z
x,-y,1/2+z
1/2+x,1/2+y,z
1/2-x,1/2+y,1/2-z
1/2-x,1/2-y,-z
1/2+x,1/2-y,1/2+z
loop_
_atom_site_type_symbol
_atom_site_label
_atom_site_fract_x
_atom_site_fract_y
_atom_site_fract_z
Si Si1 0.790177 0.641201 0.660722
Si Si2 0.205109 0.041352 0.377015
Si Si3 0.000000 0.980932 0.250000
Si Si4 0.258887 0.717544 0.753455
Si Si5 0.146328 0.768475 0.047858
Si Si6 0.753836 0.604771 0.181181
Si Si7 0.412750 0.210263 0.917047
O O1 0.699273 0.701148 0.686411
O O2 0.640776 0.645634 0.588255
O O3 0.859184 0.511054 0.684965
O O4 0.008071 0.707748 0.694603
O O5 0.342169 0.143137 0.425966
O O6 0.983095 0.054955 0.357730
O O7 0.144297 0.051629 0.312834
O O8 0.313554 0.916332 0.402845
O O9 0.139841 0.893765 0.249214
O O10 0.322676 0.834391 0.740988
O O11 0.364899 0.794560 0.065223
O O12 0.965596 0.766331 0.975004
O O13 0.735295 0.707550 0.141966
#
# Coordination Sequence:
#
# PCOD9286266 Si02
#       7
#     8   8   4   8   8   8   8
#     4  11  23  42  67 100 128 176 219 268 337 393
#     4  11  21  39  63  95 129 169 218 265 326 390
#     4  12  22  40  68  96 130 172 214 270 332 396
#     4  11  24  43  64  96 138 169 215 269 340 391
#     4  10  22  40  68  93 130 174 223 274 322 394
#     4  11  23  42  65  95 133 168 218 273 321 403
#     4  10  21  43  65  94 130 176 221 269 333 385
#
# _framework density 23.458227000000001
#
# number of rings (size 3 to 8) (size 9 to 14) (size 15 to 20)
#    0.000    1.231    6.154    0.462    2.154    1.846 
#    0.000    5.385    0.000    0.000    0.000    0.000 
#    0.000    0.000    0.000    0.000    0.000    0.000 
#
# Total GULP energy -145484.096038 kJ/mol
# GULP energy per Si atom -5595.542155 kJ/mol
# Density = 2.340484 g / cm^3
# Si number density = 23.458227 Si / 1000 Ang^3
#
#
#
# Elastic Constant Matrix: (Units=GPa)
#
#
# Indices 1 2 3 4 5 6 
#
# 1 58.6421 30.4411 15.9901 0.0000 -17.5054 0.0000
# 2 30.4411 154.9062 25.6667 0.0000 -7.5849 0.0000
# 3 15.9901 25.6667 152.0445 0.0000 -25.9162 0.0000
# 4 0.0000 0.0000 0.0000 28.7120 0.0000 -2.7600
# 5 -17.5054 -7.5849 -25.9162 0.0000 32.4727 0.0000
# 6 0.0000 0.0000 0.0000 -2.7600 0.0000 36.8769
#
#
#
# Elastic Compliance Matrix: (Units=1/GPa)
#
#
# Indices 1 2 3 4 5 6 
#
# 1 0.022393 -0.003884 0.000236 0.000000 0.011353 0.000000
# 2 -0.003884 0.007331 -0.001035 0.000000 -0.001207 0.000000
# 3 0.000236 -0.001035 0.007764 0.000000 0.006081 0.000000
# 4 0.000000 0.000000 0.000000 0.035081 0.000000 0.002626
# 5 0.011353 -0.001207 0.006081 0.000000 0.041487 0.000000
# 6 0.000000 0.000000 0.000000 0.002626 0.000000 0.027314
#
#
# Mechanical properties :
#
#
# Convention : Reuss Voigt Hill
#
# Bulk Modulus (GPa) = 35.55941 56.64319 46.10130
# Shear Modulus (GPa) = 31.22866 39.17864 35.20365
#
# Velocity S-wave (km/s) = 3.65258 4.09117 3.87808
# Velocity P-wave (km/s) = 5.74282 6.82025 6.30459
#
# Compressibility (1/GPa) = 0.02812195
#
# Stress axis : x y z
#
# Youngs Moduli (GPa) = 44.65613 136.40531 128.80784
#
# Poissons Ratio (x) = 0.52977 -0.03035
# Poissons Ratio (y) = 0.17343 0.13330
# Poissons Ratio (z) = -0.01052 0.14117
#
# Static dielectric constant tensor:
#      x y z
#    x 1.935250 0.000000 0.022850 
#    y 0.000000 1.900250 0.000000 
#    z 0.022850 0.000000 1.918280 
# 
# From -- ./inp_files/288135.got.cif
#   From: 2010.05.17/outbox.cif.g08.bks.cpg/sg15_145_cif.got.tgz:288135.got - 2010.06.03 18:47:42.
