data_PCOD9286600
_publ_section_title
;
Structure prediction by ZEFSAII (Michael W. Deem and Ramdas Pophale) SiO2 
 PCOD9286600
Probable space group: C 2/C
;
_chemical_formula_sum "Si O2"
_cell_formula_units_Z 56
_cell_length_a 22.910953
_cell_length_b 9.991214
_cell_length_c 9.900436
_cell_angle_alpha 90.000000
_cell_angle_beta 59.947697
_cell_angle_gamma 90.000000
_cell_volume 1961.630639
_symmetry_space_group_name_H-M "C 2/C"
_symmetry_group_IT_number 15
_symmetry_cell_setting 'monoclinic'
loop_
_space_group_symop_operation_xyz
x,y,z
-x,y,1/2-z
-x,-y,-z
x,-y,1/2+z
1/2+x,1/2+y,z
1/2-x,1/2+y,1/2-z
1/2-x,1/2-y,-z
1/2+x,1/2-y,1/2+z
loop_
_atom_site_type_symbol
_atom_site_label
_atom_site_fract_x
_atom_site_fract_y
_atom_site_fract_z
Si Si1 0.787204 0.059005 0.778702
Si Si2 0.945388 0.635269 0.428832
Si Si3 0.797513 0.299433 0.326349
Si Si4 0.548147 0.765274 0.010781
Si Si5 0.929829 0.855095 0.731079
Si Si6 0.159849 0.439143 0.833004
Si Si7 0.868188 0.087831 0.950889
O O1 0.745292 0.181005 0.761332
O O2 0.808854 0.091356 0.905763
O O3 0.843143 0.009899 0.603149
O O4 0.730441 0.942948 0.829289
O O5 0.893568 0.516416 0.510411
O O6 0.902811 0.770238 0.443138
O O7 0.000000 0.614578 0.250000
O O8 0.990123 0.641523 0.514023
O O9 0.750000 0.250000 0.500000
O O10 0.860474 0.199396 0.248423
O O11 0.826687 0.453123 0.302321
O O12 0.618009 0.802738 0.855355
O O13 0.565237 0.750007 0.148637
O O14 0.496859 0.638973 0.062898
O O15 0.920554 0.998339 0.807061
#
# Coordination Sequence:
#
# PCOD9286600 Si02
#       7
#     8   8   8   8   8   8   8
#     4  10  26  45  83 114 159 208 269 349 404 500
#     4  12  29  45  73 106 169 205 260 340 408 491
#     4  10  21  43  74 114 147 203 267 333 401 490
#     4  11  25  45  74 114 149 214 261 338 405 487
#     4  11  24  43  80 105 154 213 272 323 403 502
#     4  10  25  49  76 120 155 200 278 336 420 485
#     4  12  27  51  75 120 161 217 277 334 420 501
#
# _framework density 28.54768
#
# number of rings (size 3 to 8) (size 9 to 14) (size 15 to 20)
#    0.857    0.286    2.857    1.286    8.000    2.286 
#    2.571    0.000    0.000    0.000    0.000    0.000 
#    0.000    0.000    0.000    0.000    0.000    0.000 
#
# Total GULP energy -156262.881241 kJ/mol
# GULP energy per Si atom -5580.817187 kJ/mol
# Density = 2.848270 g / cm^3
# Si number density = 28.547680 Si / 1000 Ang^3
#
#
#
# Elastic Constant Matrix: (Units=GPa)
#
#
# Indices 1 2 3 4 5 6 
#
# 1 159.7529 40.3951 28.4383 0.0000 1.5443 0.0000
# 2 40.3951 125.8507 42.0484 0.0000 9.4988 0.0000
# 3 28.4383 42.0484 150.7059 0.0000 -19.1581 0.0000
# 4 0.0000 0.0000 0.0000 55.3282 0.0000 3.3203
# 5 1.5443 9.4988 -19.1581 0.0000 68.2702 0.0000
# 6 0.0000 0.0000 0.0000 3.3203 0.0000 31.3672
#
#
#
# Elastic Compliance Matrix: (Units=1/GPa)
#
#
# Indices 1 2 3 4 5 6 
#
# 1 0.006890 -0.001947 -0.000770 0.000000 -0.000101 0.000000
# 2 -0.001947 0.009578 -0.002560 0.000000 -0.002007 0.000000
# 3 -0.000770 -0.002560 0.007821 0.000000 0.002568 0.000000
# 4 0.000000 0.000000 0.000000 0.018190 0.000000 -0.001925
# 5 -0.000101 -0.002007 0.002568 0.000000 0.015650 0.000000
# 6 0.000000 0.000000 0.000000 -0.001925 0.000000 0.032084
#
#
# Mechanical properties :
#
#
# Convention : Reuss Voigt Hill
#
# Bulk Modulus (GPa) = 72.80176 73.11923 72.96050
# Shear Modulus (GPa) = 47.46337 52.68831 50.07584
#
# Velocity S-wave (km/s) = 4.08192 4.30073 4.19276
# Velocity P-wave (km/s) = 6.91182 7.09439 7.00370
#
# Compressibility (1/GPa) = 0.01373593
#
# Stress axis : x y z
#
# Youngs Moduli (GPa) = 145.13963 104.41060 127.85282
#
# Poissons Ratio (x) = 0.20325 0.09843
# Poissons Ratio (y) = 0.28254 0.32731
# Poissons Ratio (z) = 0.11173 0.26729
#
# Static dielectric constant tensor:
#      x y z
#    x 2.366160 0.000000 -0.011480 
#    y 0.000000 2.374790 0.000000 
#    z -0.011480 0.000000 2.235700 
# 
# From -- ./inp_files/122626.got.cif
#   From: 2010.05.17/outbox.cif.g08.bks.cpg/sg15_62_cif.got.tgz:122626.got - 2010.06.03 18:47:42.
