data_PCOD9286124
_publ_section_title
;
Structure prediction by ZEFSAII (Michael W. Deem and Ramdas Pophale) SiO2 
 PCOD9286124
Probable space group: C 2/C
;
_chemical_formula_sum "Si O2"
_cell_formula_units_Z 36
_cell_length_a 5.053637
_cell_length_b 31.724879
_cell_length_c 11.028828
_cell_angle_alpha 90.000000
_cell_angle_beta 107.260094
_cell_angle_gamma 90.000000
_cell_volume 1688.581622
_symmetry_space_group_name_H-M "C 2/C"
_symmetry_group_IT_number 15
_symmetry_cell_setting 'monoclinic'
loop_
_space_group_symop_operation_xyz
x,y,z
-x,y,1/2-z
-x,-y,-z
x,-y,1/2+z
1/2+x,1/2+y,z
1/2-x,1/2+y,1/2-z
1/2-x,1/2-y,-z
1/2+x,1/2-y,1/2+z
loop_
_atom_site_type_symbol
_atom_site_label
_atom_site_fract_x
_atom_site_fract_y
_atom_site_fract_z
Si Si1 0.349988 0.715655 0.609553
Si Si2 0.000000 0.532131 0.250000
Si Si3 0.861605 0.342638 0.110634
Si Si4 0.886412 0.967629 0.385733
Si Si5 0.937430 0.578504 0.985157
O O1 0.500000 0.733710 0.750000
O O2 0.250000 0.750000 0.500000
O O3 0.557447 0.677876 0.589790
O O4 0.065220 0.695971 0.616297
O O5 0.254371 0.499502 0.270149
O O6 0.032231 0.560372 0.374566
O O7 0.000000 0.363568 0.250000
O O8 0.932280 0.374988 0.012118
O O9 0.629169 0.946755 0.418875
O O10 0.120369 0.931520 0.400724
O O11 0.000000 0.000000 0.500000
#
# Coordination Sequence:
#
# PCOD9286124 Si02
#       5
#     8   4   8   8   8
#     4  10  21  42  72  98 130 164 210 254 313 394
#     4  10  22  40  60  86 126 166 222 282 314 368
#     4  10  22  41  63  96 129 165 203 257 317 386
#     4  10  22  38  57  83 116 165 219 260 317 365
#     4  11  23  40  60  89 124 165 216 266 321 373
#
# _framework density 21.319669999999999
#
# number of rings (size 3 to 8) (size 9 to 14) (size 15 to 20)
#    0.000    1.778    0.000    4.667    1.556    8.000 
#    2.000    0.000    0.000    0.000    0.000    0.000 
#    0.000    0.000    0.000    0.000    0.000    0.000 
#
# Total GULP energy -100283.981662 kJ/mol
# GULP energy per Si atom -5571.332315 kJ/mol
# Density = 2.127115 g / cm^3
# Si number density = 21.319670 Si / 1000 Ang^3
#
#
#
# Elastic Constant Matrix: (Units=GPa)
#
#
# Indices 1 2 3 4 5 6 
#
# 1 138.2508 10.6930 24.8622 0.0000 -2.7288 0.0000
# 2 10.6930 65.5002 56.8878 0.0000 -4.5760 0.0000
# 3 24.8622 56.8878 111.4924 0.0000 1.1285 0.0000
# 4 0.0000 0.0000 0.0000 32.7666 0.0000 -7.8639
# 5 -2.7288 -4.5760 1.1285 0.0000 22.8551 0.0000
# 6 0.0000 0.0000 0.0000 -7.8639 0.0000 27.5053
#
#
#
# Elastic Compliance Matrix: (Units=1/GPa)
#
#
# Indices 1 2 3 4 5 6 
#
# 1 0.007569 0.000571 -0.001991 0.000000 0.001116 0.000000
# 2 0.000571 0.028362 -0.014664 0.000000 0.006471 0.000000
# 3 -0.001991 -0.014664 0.016936 0.000000 -0.004010 0.000000
# 4 0.000000 0.000000 0.000000 0.032767 0.000000 0.009368
# 5 0.001116 0.006471 -0.004010 0.000000 0.045381 0.000000
# 6 0.000000 0.000000 0.000000 0.009368 0.000000 0.039035
#
#
# Mechanical properties :
#
#
# Convention : Reuss Voigt Hill
#
# Bulk Modulus (GPa) = 48.30982 55.56992 51.93987
# Shear Modulus (GPa) = 23.90995 31.47874 27.69435
#
# Velocity S-wave (km/s) = 3.35251 3.84671 3.60808
# Velocity P-wave (km/s) = 6.13960 6.77135 6.46320
#
# Compressibility (1/GPa) = 0.02069973
#
# Stress axis : x y z
#
# Youngs Moduli (GPa) = 132.11671 35.25826 59.04573
#
# Poissons Ratio (x) = -0.02014 0.11754
# Poissons Ratio (y) = -0.07546 0.86587
# Poissons Ratio (z) = 0.26299 0.51704
#
# Static dielectric constant tensor:
#      x y z
#    x 1.796930 0.000000 -0.015470 
#    y 0.000000 1.815800 0.000000 
#    z -0.015470 0.000000 1.904030 
# 
# From -- ./inp_files/73717.got.cif
#   From: 2010.05.17/outbox.cif.g08.bks.cpg/sg15_37_cif.got.tgz:73717.got - 2010.06.03 18:47:42.
