data_PCOD9286593
_publ_section_title
;
Structure prediction by ZEFSAII (Michael W. Deem and Ramdas Pophale) SiO2 
 PCOD9286593
Probable space group: C 2/C
;
_chemical_formula_sum "Si O2"
_cell_formula_units_Z 40
_cell_length_a 8.754744
_cell_length_b 11.719297
_cell_length_c 17.853486
_cell_angle_alpha 90.000000
_cell_angle_beta 119.190503
_cell_angle_gamma 90.000000
_cell_volume 1599.129888
_symmetry_space_group_name_H-M "C 2/C"
_symmetry_group_IT_number 15
_symmetry_cell_setting 'monoclinic'
loop_
_space_group_symop_operation_xyz
x,y,z
-x,y,1/2-z
-x,-y,-z
x,-y,1/2+z
1/2+x,1/2+y,z
1/2-x,1/2+y,1/2-z
1/2-x,1/2-y,-z
1/2+x,1/2-y,1/2+z
loop_
_atom_site_type_symbol
_atom_site_label
_atom_site_fract_x
_atom_site_fract_y
_atom_site_fract_z
Si Si1 0.250085 0.724768 0.913235
Si Si2 0.285927 0.307294 0.892463
Si Si3 0.628823 0.473357 0.148650
Si Si4 0.533866 0.884449 0.961607
Si Si5 0.500000 0.890357 0.250000
Si Si6 0.000000 0.833557 0.250000
O O1 0.365132 0.612828 0.919987
O O2 0.346373 0.829676 0.895727
O O3 0.065664 0.688614 0.833651
O O4 0.250000 0.750000 0.000000
O O5 0.409836 0.399375 0.883258
O O6 0.159934 0.381302 0.919161
O O7 0.165906 0.246794 0.801855
O O8 0.378381 0.208685 0.961992
O O9 0.508261 0.414164 0.180153
O O10 0.828974 0.464248 0.227784
O O11 0.500000 0.000000 0.000000
#
# Coordination Sequence:
#
# PCOD9286593 Si02
#       6
#     8   8   8   8   4   4
#     4  10  21  43  73 112 147 200 263 312 396 465
#     4  11  25  47  77 103 152 199 249 318 393 455
#     4  10  23  46  74 106 150 200 256 320 387 464
#     4  11  25  47  72 109 152 198 254 322 385 463
#     4   8  21  42  73 108 144 199 253 324 380 460
#     4  12  25  48  69 116 150 197 261 316 396 458
#
# _framework density 25.013603
#
# number of rings (size 3 to 8) (size 9 to 14) (size 15 to 20)
#    1.200    0.400    2.000    1.800    2.800    2.400 
#    3.600    4.000    0.000    0.000    0.000    0.000 
#    0.000    0.000    0.000    0.000    0.000    0.000 
#
# Total GULP energy -111916.923124 kJ/mol
# GULP energy per Si atom -5595.846156 kJ/mol
# Density = 2.495667 g / cm^3
# Si number density = 25.013603 Si / 1000 Ang^3
#
#
#
# Elastic Constant Matrix: (Units=GPa)
#
#
# Indices 1 2 3 4 5 6 
#
# 1 56.9398 31.6047 12.4999 0.0000 -10.9118 0.0000
# 2 31.6047 167.8195 41.6943 0.0000 -19.2720 0.0000
# 3 12.4999 41.6943 115.9793 0.0000 -6.6187 0.0000
# 4 0.0000 0.0000 0.0000 34.7408 0.0000 -4.5343
# 5 -10.9118 -19.2720 -6.6187 0.0000 46.5016 0.0000
# 6 0.0000 0.0000 0.0000 -4.5343 0.0000 44.1016
#
#
#
# Elastic Compliance Matrix: (Units=1/GPa)
#
#
# Indices 1 2 3 4 5 6 
#
# 1 0.020157 -0.003213 -0.000830 0.000000 0.003280 0.000000
# 2 -0.003213 0.007331 -0.002177 0.000000 0.001975 0.000000
# 3 -0.000830 -0.002177 0.009509 0.000000 0.000257 0.000000
# 4 0.000000 0.000000 0.000000 0.029176 0.000000 0.003000
# 5 0.003280 0.001975 0.000257 0.000000 0.023129 0.000000
# 6 0.000000 0.000000 0.000000 0.003000 0.000000 0.022983
#
#
# Mechanical properties :
#
#
# Convention : Reuss Voigt Hill
#
# Bulk Modulus (GPa) = 40.72125 56.92628 48.82376
# Shear Modulus (GPa) = 37.61910 42.06476 39.84193
#
# Velocity S-wave (km/s) = 3.88228 4.10527 3.99533
# Velocity P-wave (km/s) = 6.03416 6.72893 6.39100
#
# Compressibility (1/GPa) = 0.02455720
#
# Stress axis : x y z
#
# Youngs Moduli (GPa) = 49.61130 136.39888 105.16534
#
# Poissons Ratio (x) = 0.43826 0.08730
# Poissons Ratio (y) = 0.15941 0.22891
# Poissons Ratio (z) = 0.04118 0.29689
#
# Static dielectric constant tensor:
#      x y z
#    x 2.077420 0.000000 0.016720 
#    y 0.000000 1.938940 0.000000 
#    z 0.016720 0.000000 1.988140 
# 
# From -- ./inp_files/230032.got.cif
#   From: 2010.05.17/outbox.cif.g08.bks.cpg/sg15_116_cif.got.tgz:230032.got - 2010.06.03 18:47:42.
