data_PCOD9286658
_publ_section_title
;
Structure prediction by ZEFSAII (Michael W. Deem and Ramdas Pophale) SiO2 
 PCOD9286658
Probable space group: C 2/C
;
_chemical_formula_sum "Si O2"
_cell_formula_units_Z 48
_cell_length_a 25.597981
_cell_length_b 10.938845
_cell_length_c 24.301080
_cell_angle_alpha 90.000000
_cell_angle_beta 159.448336
_cell_angle_gamma 90.000000
_cell_volume 2388.768222
_symmetry_space_group_name_H-M "C 2/C"
_symmetry_group_IT_number 15
_symmetry_cell_setting 'monoclinic'
loop_
_space_group_symop_operation_xyz
x,y,z
-x,y,1/2-z
-x,-y,-z
x,-y,1/2+z
1/2+x,1/2+y,z
1/2-x,1/2+y,1/2-z
1/2-x,1/2-y,-z
1/2+x,1/2-y,1/2+z
loop_
_atom_site_type_symbol
_atom_site_label
_atom_site_fract_x
_atom_site_fract_y
_atom_site_fract_z
Si Si1 0.432113 0.579764 0.272603
Si Si2 0.694083 0.786714 0.104744
Si Si3 0.000000 0.513020 0.750000
Si Si4 0.000000 0.894457 0.250000
Si Si5 0.457190 0.181212 0.289180
Si Si6 0.169384 0.718396 0.977655
Si Si7 0.961197 0.081945 0.909842
O O1 0.404048 0.490686 0.191979
O O2 0.293402 0.670912 0.141705
O O3 0.573672 0.665538 0.400672
O O4 0.459559 0.498491 0.352764
O O5 0.818282 0.726280 0.187566
O O6 0.795321 0.860283 0.247619
O O7 0.584888 0.864092 0.957106
O O8 0.585545 0.687023 0.024728
O O9 0.904932 0.418514 0.693084
O O10 0.931092 0.603271 0.637515
O O11 0.966965 0.795202 0.169062
O O12 0.250000 0.750000 0.000000
O O13 0.000000 0.000000 0.000000
#
# Coordination Sequence:
#
# PCOD9286658 Si02
#       7
#     8   8   4   4   8   8   8
#     4  12  24  41  62  90 135 172 217 263 321 381
#     4  10  21  44  64  98 124 159 222 263 327 376
#     4  11  23  32  56  90 141 167 216 246 322 399
#     4  11  19  36  64  96 131 167 202 262 340 377
#     4  10  23  34  63  98 128 168 205 270 326 385
#     4  12  23  37  55  90 131 176 205 252 319 402
#     4  11  26  47  70  91 128 172 218 282 319 376
#
# _framework density 20.094038000000001
#
# number of rings (size 3 to 8) (size 9 to 14) (size 15 to 20)
#    0.000    1.000    6.667    1.000    4.667    2.667 
#    0.000    3.333    0.000    0.000    0.000    0.000 
#    0.000    0.000    0.000    0.000    0.000    0.000 
#
# Total GULP energy -133759.390491 kJ/mol
# GULP energy per Si atom -5573.307937 kJ/mol
# Density = 2.004830 g / cm^3
# Si number density = 20.094038 Si / 1000 Ang^3
#
#
#
# Elastic Constant Matrix: (Units=GPa)
#
#
# Indices 1 2 3 4 5 6 
#
# 1 49.0895 27.5626 30.2524 0.0006 -12.3826 0.0004
# 2 27.5626 105.7846 42.1985 -0.0022 -5.6706 -0.0003
# 3 30.2524 42.1985 110.5065 -0.0036 -4.8044 -0.0003
# 4 0.0006 -0.0022 -0.0036 35.9390 -0.0012 -8.4987
# 5 -12.3826 -5.6706 -4.8044 -0.0012 23.9953 0.0000
# 6 0.0004 -0.0003 -0.0003 -8.4987 0.0000 33.3218
#
#
#
# Elastic Compliance Matrix: (Units=1/GPa)
#
#
# Indices 1 2 3 4 5 6 
#
# 1 0.029953 -0.004785 -0.005800 -0.000001 0.013165 -0.000001
# 2 -0.004785 0.011994 -0.003283 0.000001 -0.000292 0.000000
# 3 -0.005800 -0.003283 0.011830 0.000001 -0.001400 0.000000
# 4 -0.000001 0.000001 0.000001 0.029611 0.000001 0.007552
# 5 0.013165 -0.000292 -0.001400 0.000001 0.048119 0.000000
# 6 -0.000001 0.000000 0.000000 0.007552 0.000000 0.031937
#
#
# Mechanical properties :
#
#
# Convention : Reuss Voigt Hill
#
# Bulk Modulus (GPa) = 38.40177 51.71197 45.05687
# Shear Modulus (GPa) = 25.01763 29.67571 27.34667
#
# Velocity S-wave (km/s) = 3.53232 3.84714 3.69309
# Velocity P-wave (km/s) = 5.98238 6.74721 6.37627
#
# Compressibility (1/GPa) = 0.02604046
#
# Stress axis : x y z
#
# Youngs Moduli (GPa) = 33.38572 83.37675 84.53170
#
# Poissons Ratio (x) = 0.39894 0.49032
# Poissons Ratio (y) = 0.15974 0.27750
# Poissons Ratio (z) = 0.19365 0.27371
#
# Static dielectric constant tensor:
#      x y z
#    x 1.681990 0.000000 0.009020 
#    y 0.000000 1.742740 0.000000 
#    z 0.009020 0.000000 1.811780 
# 
# From -- ./inp_files/283566.got.cif
#   From: 2010.05.17/outbox.cif.g08.bks.cpg/sg15_142_cif.got.tgz:283566.got - 2010.06.03 18:47:42.
