data_PCOD9286181
_publ_section_title
;
Structure prediction by ZEFSAII (Michael W. Deem and Ramdas Pophale) SiO2 
 PCOD9286181
Probable space group: C 2/C
;
_chemical_formula_sum "Si O2"
_cell_formula_units_Z 60
_cell_length_a 9.261401
_cell_length_b 10.880454
_cell_length_c 30.899213
_cell_angle_alpha 90.000000
_cell_angle_beta 73.437106
_cell_angle_gamma 90.000000
_cell_volume 2984.465688
_symmetry_space_group_name_H-M "C 2/C"
_symmetry_group_IT_number 15
_symmetry_cell_setting 'monoclinic'
loop_
_space_group_symop_operation_xyz
x,y,z
-x,y,1/2-z
-x,-y,-z
x,-y,1/2+z
1/2+x,1/2+y,z
1/2-x,1/2+y,1/2-z
1/2-x,1/2-y,-z
1/2+x,1/2-y,1/2+z
loop_
_atom_site_type_symbol
_atom_site_label
_atom_site_fract_x
_atom_site_fract_y
_atom_site_fract_z
Si Si1 0.132990 0.820885 0.816252
Si Si2 0.185216 0.763109 0.613414
Si Si3 0.579558 0.334801 0.199829
Si Si4 0.000000 0.926088 0.750000
Si Si5 0.993619 0.293541 0.620932
Si Si6 0.762397 0.977817 0.616567
Si Si7 0.064713 0.891339 0.540715
Si Si8 0.110923 0.165290 0.525238
O O1 0.251008 0.713716 0.816120
O O2 0.119126 0.847998 0.766631
O O3 0.968489 0.785384 0.847405
O O4 0.193417 0.937822 0.838362
O O5 0.326295 0.834165 0.622340
O O6 0.231006 0.620529 0.612590
O O7 0.151604 0.808771 0.567757
O O8 0.500000 0.282158 0.250000
O O9 0.570495 0.480364 0.208760
O O10 0.496936 0.287343 0.164227
O O11 0.112488 0.402793 0.617124
O O12 0.054158 0.210540 0.576383
O O13 0.903745 0.931134 0.575877
O O14 0.019577 0.826170 0.499922
O O15 0.148388 0.020163 0.524475
O O16 0.250000 0.250000 0.500000
#
# Coordination Sequence:
#
# PCOD9286181 Si02
#       8
#     8   8   8   4   8   8   8   8
#     4  10  23  40  63  95 126 166 205 260 321 369
#     4  11  24  40  66  96 128 163 215 260 312 379
#     4   9  23  43  63  91 127 160 208 261 306 379
#     4  10  22  38  68  88 126 160 212 256 314 372
#     4  11  22  41  68  91 126 172 209 256 321 375
#     4  10  21  43  62  92 130 167 209 261 314 374
#     4  10  23  41  64  93 128 166 210 267 313 368
#     4  11  22  41  68  90 128 173 211 259 322 377
#
# _framework density 20.104099000000001
#
# number of rings (size 3 to 8) (size 9 to 14) (size 15 to 20)
#    0.400    1.333    2.667    0.800    3.733    2.667 
#    2.400    1.333    0.000    0.000    0.000    0.000 
#    0.000    0.000    0.000    0.000    0.000    0.000 
#
# Total GULP energy -167523.168257 kJ/mol
# GULP energy per Si atom -5584.105609 kJ/mol
# Density = 2.005834 g / cm^3
# Si number density = 20.104099 Si / 1000 Ang^3
#
#
#
# Elastic Constant Matrix: (Units=GPa)
#
#
# Indices 1 2 3 4 5 6 
#
# 1 123.0576 48.7477 42.5020 0.0000 20.8429 0.0000
# 2 48.7477 64.1450 9.8504 0.0000 7.2230 0.0000
# 3 42.5020 9.8504 105.1656 0.0000 20.4232 0.0000
# 4 0.0000 0.0000 0.0000 24.0757 0.0000 1.5874
# 5 20.8429 7.2230 20.4232 0.0000 35.4115 0.0000
# 6 0.0000 0.0000 0.0000 1.5874 0.0000 29.9333
#
#
#
# Elastic Compliance Matrix: (Units=1/GPa)
#
#
# Indices 1 2 3 4 5 6 
#
# 1 0.013953 -0.009546 -0.003973 0.000000 -0.003974 0.000000
# 2 -0.009546 0.022576 0.001742 0.000000 0.000010 0.000000
# 3 -0.003973 0.001742 0.011899 0.000000 -0.004879 0.000000
# 4 0.000000 0.000000 0.000000 0.041681 0.000000 -0.002210
# 5 -0.003974 0.000010 -0.004879 0.000000 0.033391 0.000000
# 6 0.000000 0.000000 0.000000 -0.002210 0.000000 0.033525
#
#
# Mechanical properties :
#
#
# Convention : Reuss Voigt Hill
#
# Bulk Modulus (GPa) = 40.20500 54.95204 47.57852
# Shear Modulus (GPa) = 26.47298 30.63532 28.55415
#
# Velocity S-wave (km/s) = 3.63270 3.90787 3.77279
# Velocity P-wave (km/s) = 6.13492 6.91050 6.53423
#
# Compressibility (1/GPa) = 0.02487253
#
# Stress axis : x y z
#
# Youngs Moduli (GPa) = 71.66744 44.29481 84.04074
#
# Poissons Ratio (x) = 0.42285 0.33391
# Poissons Ratio (y) = 0.68416 -0.14637
# Poissons Ratio (z) = 0.28475 -0.07715
#
# Static dielectric constant tensor:
#      x y z
#    x 1.700000 0.000000 -0.004170 
#    y 0.000000 1.705330 0.000000 
#    z -0.004170 0.000000 1.738840 
# 
# From -- ./inp_files/307123.got.cif
#   From: 2010.05.17/outbox.cif.g08.bks.cpg/sg15_154_cif.got.tgz:307123.got - 2010.06.03 18:47:42.
