data_PCOD9286288
_publ_section_title
;
Structure prediction by ZEFSAII (Michael W. Deem and Ramdas Pophale) SiO2 
 PCOD9286288
Probable space group: C 2/C
;
_chemical_formula_sum "Si O2"
_cell_formula_units_Z 56
_cell_length_a 28.287627
_cell_length_b 12.873454
_cell_length_c 8.979758
_cell_angle_alpha 90.000000
_cell_angle_beta 116.281493
_cell_angle_gamma 90.000000
_cell_volume 2932.035729
_symmetry_space_group_name_H-M "C 2/C"
_symmetry_group_IT_number 15
_symmetry_cell_setting 'monoclinic'
loop_
_space_group_symop_operation_xyz
x,y,z
-x,y,1/2-z
-x,-y,-z
x,-y,1/2+z
1/2+x,1/2+y,z
1/2-x,1/2+y,1/2-z
1/2-x,1/2-y,-z
1/2+x,1/2-y,1/2+z
loop_
_atom_site_type_symbol
_atom_site_label
_atom_site_fract_x
_atom_site_fract_y
_atom_site_fract_z
Si Si1 0.369039 0.477354 0.829263
Si Si2 0.439722 0.402259 0.660188
Si Si3 0.552498 0.174138 0.755779
Si Si4 0.188492 0.368676 0.868764
Si Si5 0.469568 0.913224 0.556647
Si Si6 0.364203 0.969256 0.994540
Si Si7 0.685845 0.636614 0.973231
O O1 0.406467 0.419937 0.763762
O O2 0.332282 0.554048 0.679099
O O3 0.338715 0.401951 0.903398
O O4 0.407327 0.546226 0.983888
O O5 0.500000 0.441466 0.750000
O O6 0.442304 0.278996 0.646119
O O7 0.500000 0.120830 0.750000
O O8 0.539053 0.184813 0.563735
O O9 0.605347 0.109050 0.852294
O O10 0.159705 0.406007 0.677291
O O11 0.176078 0.456819 0.974663
O O12 0.250915 0.364280 0.927113
O O13 0.170687 0.254359 0.902102
O O14 0.500000 0.888384 0.750000
O O15 0.500000 0.000000 0.500000
O O16 0.412141 0.958261 0.508970
#
# Coordination Sequence:
#
# PCOD9286288 Si02
#       7
#     8   8   8   8   8   8   8
#     4  10  21  43  66  81 119 161 198 256 302 345
#     4  10  22  39  63  91 118 152 203 245 292 350
#     4  11  22  37  56  87 124 159 190 236 293 364
#     4  11  24  38  61  90 121 153 205 256 296 369
#     4  12  20  36  54  82 125 161 186 227 285 365
#     4  12  21  36  59  86 124 158 192 242 302 350
#     4  10  23  43  61  88 116 158 207 251 310 349
#
# _framework density 19.099357000000001
#
# number of rings (size 3 to 8) (size 9 to 14) (size 15 to 20)
#    0.000    1.143    4.286    2.143    2.000    0.000 
#    0.000    0.714    0.000    9.429    0.000    0.000 
#    0.000    0.000    0.000    0.000    0.000    0.000 
#
# Total GULP energy -156162.529676 kJ/mol
# GULP energy per Si atom -5577.233203 kJ/mol
# Density = 1.905589 g / cm^3
# Si number density = 19.099357 Si / 1000 Ang^3
#
#
#
# Elastic Constant Matrix: (Units=GPa)
#
#
# Indices 1 2 3 4 5 6 
#
# 1 81.3589 21.6851 33.2795 0.0000 2.1720 0.0000
# 2 21.6851 68.7815 27.1401 0.0000 1.3027 0.0000
# 3 33.2795 27.1401 121.4819 0.0000 -3.8890 0.0000
# 4 0.0000 0.0000 0.0000 11.4840 0.0000 4.0335
# 5 2.1720 1.3027 -3.8890 0.0000 27.7711 0.0000
# 6 0.0000 0.0000 0.0000 4.0335 0.0000 23.6440
#
#
#
# Elastic Compliance Matrix: (Units=1/GPa)
#
#
# Indices 1 2 3 4 5 6 
#
# 1 0.014549 -0.003256 -0.003305 0.000000 -0.001448 0.000000
# 2 -0.003256 0.016716 -0.002873 0.000000 -0.000932 0.000000
# 3 -0.003305 -0.002873 0.009835 0.000000 0.001771 0.000000
# 4 0.000000 0.000000 0.000000 0.092628 0.000000 -0.015802
# 5 -0.001448 -0.000932 0.001771 0.000000 0.036414 0.000000
# 6 0.000000 0.000000 0.000000 -0.015802 0.000000 0.044990
#
#
# Mechanical properties :
#
#
# Convention : Reuss Voigt Hill
#
# Bulk Modulus (GPa) = 44.97356 48.42576 46.69966
# Shear Modulus (GPa) = 20.71167 25.21433 22.96300
#
# Velocity S-wave (km/s) = 3.29662 3.63735 3.47117
# Velocity P-wave (km/s) = 6.17159 6.56126 6.36941
#
# Compressibility (1/GPa) = 0.02223528
#
# Stress axis : x y z
#
# Youngs Moduli (GPa) = 68.73121 59.82181 101.67312
#
# Poissons Ratio (x) = 0.19476 0.33601
# Poissons Ratio (y) = 0.22376 0.29206
# Poissons Ratio (z) = 0.22714 0.17184
#
# Static dielectric constant tensor:
#      x y z
#    x 1.706460 0.000000 -0.004730 
#    y 0.000000 1.701590 0.000000 
#    z -0.004730 0.000000 1.675590 
# 
# From -- ./inp_files/69454.got.cif
#   From: 2010.05.17/outbox.cif.g08.bks.cpg/sg15_35_cif.got.tgz:69454.got - 2010.06.03 18:47:42.
