data_PCOD9286706
_publ_section_title
;
Structure prediction by ZEFSAII (Michael W. Deem and Ramdas Pophale) SiO2 
 PCOD9286706
Probable space group: C 2/C
;
_chemical_formula_sum "Si O2"
_cell_formula_units_Z 44
_cell_length_a 12.690240
_cell_length_b 7.893211
_cell_length_c 22.801420
_cell_angle_alpha 90.000000
_cell_angle_beta 114.808984
_cell_angle_gamma 90.000000
_cell_volume 2073.162642
_symmetry_space_group_name_H-M "C 2/C"
_symmetry_group_IT_number 15
_symmetry_cell_setting 'monoclinic'
loop_
_space_group_symop_operation_xyz
x,y,z
-x,y,1/2-z
-x,-y,-z
x,-y,1/2+z
1/2+x,1/2+y,z
1/2-x,1/2+y,1/2-z
1/2-x,1/2-y,-z
1/2+x,1/2-y,1/2+z
loop_
_atom_site_type_symbol
_atom_site_label
_atom_site_fract_x
_atom_site_fract_y
_atom_site_fract_z
Si Si1 0.896942 0.376968 0.492488
Si Si2 0.548375 0.422955 0.572181
Si Si3 0.772385 0.393319 0.146422
Si Si4 0.825464 0.949428 0.596075
Si Si5 0.000000 0.488382 0.750000
Si Si6 0.592969 0.195088 0.373760
O O1 0.890760 0.247090 0.437030
O O2 0.777718 0.480678 0.468859
O O3 0.926083 0.290004 0.561315
O O4 0.000000 0.500000 0.500000
O O5 0.500000 0.500000 0.500000
O O6 0.641701 0.542601 0.627012
O O7 0.437676 0.385635 0.586831
O O8 0.879087 0.408524 0.217606
O O9 0.817116 0.538221 0.111482
O O10 0.775711 0.205264 0.121788
O O11 0.865453 0.121253 0.638208
O O12 0.994476 0.372629 0.807009
#
# Coordination Sequence:
#
# PCOD9286706 Si02
#       6
#     8   8   8   8   4   8
#     4  12  23  40  69 103 139 174 217 280 351 396
#     4  12  23  40  66 105 137 165 218 275 339 403
#     4  10  23  45  66  94 137 173 219 279 320 399
#     4  12  24  41  71 101 133 176 218 278 348 387
#     4   8  22  46  68  88 140 176 232 276 312 402
#     4  10  21  44  66  92 138 174 219 282 316 402
#
# _framework density 21.223611999999999
#
# number of rings (size 3 to 8) (size 9 to 14) (size 15 to 20)
#    1.091    0.000    3.636    3.818    0.000    2.909 
#    0.000    1.818    4.000    0.000    0.000    0.000 
#    0.000    0.000    0.000    0.000    0.000    0.000 
#
# Total GULP energy -122530.213800 kJ/mol
# GULP energy per Si atom -5569.555173 kJ/mol
# Density = 2.117531 g / cm^3
# Si number density = 21.223612 Si / 1000 Ang^3
#
#
#
# Elastic Constant Matrix: (Units=GPa)
#
#
# Indices 1 2 3 4 5 6 
#
# 1 77.6316 17.7508 33.4319 0.0000 23.3296 0.0000
# 2 17.7508 117.0978 28.5338 0.0000 3.1390 0.0000
# 3 33.4319 28.5338 104.4458 0.0000 29.5531 0.0000
# 4 0.0000 0.0000 0.0000 27.6590 0.0000 10.8232
# 5 23.3296 3.1390 29.5531 0.0000 25.6215 0.0000
# 6 0.0000 0.0000 0.0000 10.8232 0.0000 35.8004
#
#
#
# Elastic Compliance Matrix: (Units=1/GPa)
#
#
# Indices 1 2 3 4 5 6 
#
# 1 0.018411 -0.002147 -0.000946 0.000000 -0.015409 0.000000
# 2 -0.002147 0.009519 -0.003172 0.000000 0.004447 0.000000
# 3 -0.000946 -0.003172 0.015424 0.000000 -0.016540 0.000000
# 4 0.000000 0.000000 0.000000 0.041006 0.000000 -0.012397
# 5 -0.015409 0.004447 -0.016540 0.000000 0.071594 0.000000
# 6 0.000000 0.000000 0.000000 -0.012397 0.000000 0.031680
#
#
# Mechanical properties :
#
#
# Convention : Reuss Voigt Hill
#
# Bulk Modulus (GPa) = 32.44323 50.95645 41.69984
# Shear Modulus (GPa) = 23.76000 32.44677 28.10339
#
# Velocity S-wave (km/s) = 3.34953 3.91424 3.64284
# Velocity P-wave (km/s) = 5.50261 6.67006 6.11427
#
# Compressibility (1/GPa) = 0.03082307
#
# Stress axis : x y z
#
# Youngs Moduli (GPa) = 54.31677 105.05331 64.83469
#
# Poissons Ratio (x) = 0.22557 0.06136
# Poissons Ratio (y) = 0.11663 0.20563
# Poissons Ratio (z) = 0.05141 0.33318
#
# Static dielectric constant tensor:
#      x y z
#    x 1.790800 0.000000 0.035950 
#    y 0.000000 1.795110 0.000000 
#    z 0.035950 0.000000 1.807560 
# 
# From -- ./inp_files/312574.got.cif
#   From: 2010.05.17/outbox.cif.g08.bks.cpg/sg15_157_cif.got.tgz:312574.got - 2010.06.03 18:47:42.
