data_PCOD9286596
_publ_section_title
;
Structure prediction by ZEFSAII (Michael W. Deem and Ramdas Pophale) SiO2 
 PCOD9286596
Probable space group: C 2/C
;
_chemical_formula_sum "Si O2"
_cell_formula_units_Z 48
_cell_length_a 16.515993
_cell_length_b 13.316402
_cell_length_c 10.689801
_cell_angle_alpha 90.000000
_cell_angle_beta 55.773120
_cell_angle_gamma 90.000000
_cell_volume 1943.884660
_symmetry_space_group_name_H-M "C 2/C"
_symmetry_group_IT_number 15
_symmetry_cell_setting 'monoclinic'
loop_
_space_group_symop_operation_xyz
x,y,z
-x,y,1/2-z
-x,-y,-z
x,-y,1/2+z
1/2+x,1/2+y,z
1/2-x,1/2+y,1/2-z
1/2-x,1/2-y,-z
1/2+x,1/2-y,1/2+z
loop_
_atom_site_type_symbol
_atom_site_label
_atom_site_fract_x
_atom_site_fract_y
_atom_site_fract_z
Si Si1 0.551732 0.217927 0.998722
Si Si2 0.908724 0.431385 0.550489
Si Si3 0.910794 0.934536 0.422043
Si Si4 0.123115 0.681747 0.654361
Si Si5 0.337290 0.358467 0.056008
Si Si6 0.265174 0.903577 0.114353
O O1 0.586641 0.202991 0.824594
O O2 0.635209 0.156904 0.003040
O O3 0.443328 0.167170 0.099448
O O4 0.561186 0.333651 0.027836
O O5 0.916324 0.406275 0.397764
O O6 0.807663 0.494647 0.647454
O O7 0.000000 0.500000 0.500000
O O8 0.808159 0.921740 0.435805
O O9 0.000000 0.952102 0.250000
O O10 0.893664 0.036779 0.512411
O O11 0.235053 0.646912 0.569901
O O12 0.106953 0.777646 0.577894
O O13 0.298678 0.341131 0.229718
#
# Coordination Sequence:
#
# PCOD9286596 Si02
#       6
#     8   8   8   8   8   8
#     4  10  24  44  73 107 142 185 242 299 361 425
#     4  10  21  43  74 108 137 181 240 295 357 423
#     4  12  27  45  66 105 148 191 236 296 365 433
#     4  10  21  45  74 105 138 188 241 297 353 433
#     4  10  24  42  74 100 139 191 241 287 359 433
#     4  10  23  47  71 100 143 187 239 298 359 428
#
# _framework density 24.692822
#
# number of rings (size 3 to 8) (size 9 to 14) (size 15 to 20)
#    0.000    1.667    1.667    1.000    4.667    3.333 
#    3.000    3.333    0.000    0.000    0.000    0.000 
#    0.000    0.000    0.000    0.000    0.000    0.000 
#
# Total GULP energy -133855.453175 kJ/mol
# GULP energy per Si atom -5577.310549 kJ/mol
# Density = 2.463662 g / cm^3
# Si number density = 24.692822 Si / 1000 Ang^3
#
#
#
# Elastic Constant Matrix: (Units=GPa)
#
#
# Indices 1 2 3 4 5 6 
#
# 1 114.0098 41.4081 10.3182 0.0000 -14.9573 0.0000
# 2 41.4081 122.9525 17.7673 0.0000 -15.0930 0.0000
# 3 10.3182 17.7673 57.0697 0.0000 -10.9087 0.0000
# 4 0.0000 0.0000 0.0000 27.7544 0.0000 -6.5135
# 5 -14.9573 -15.0930 -10.9087 0.0000 30.5279 0.0000
# 6 0.0000 0.0000 0.0000 -6.5135 0.0000 48.7227
#
#
#
# Elastic Compliance Matrix: (Units=1/GPa)
#
#
# Indices 1 2 3 4 5 6 
#
# 1 0.010349 -0.003019 -0.000265 0.000000 0.003483 0.000000
# 2 -0.003019 0.009761 -0.001989 0.000000 0.002636 0.000000
# 3 -0.000265 -0.001989 0.019295 0.000000 0.005781 0.000000
# 4 0.000000 0.000000 0.000000 0.037197 0.000000 0.004973
# 5 0.003483 0.002636 0.005781 0.000000 0.037832 0.000000
# 6 0.000000 0.000000 0.000000 0.004973 0.000000 0.021189
#
#
# Mechanical properties :
#
#
# Convention : Reuss Voigt Hill
#
# Bulk Modulus (GPa) = 34.65379 48.11322 41.38350
# Shear Modulus (GPa) = 32.09448 36.37022 34.23235
#
# Velocity S-wave (km/s) = 3.60911 3.84201 3.72738
# Velocity P-wave (km/s) = 5.60643 6.26166 5.94308
#
# Compressibility (1/GPa) = 0.02885687
#
# Stress axis : x y z
#
# Youngs Moduli (GPa) = 96.63004 102.44756 51.82756
#
# Poissons Ratio (x) = 0.30933 0.01375
# Poissons Ratio (y) = 0.29176 0.10309
# Poissons Ratio (z) = 0.02564 0.20379
#
# Static dielectric constant tensor:
#      x y z
#    x 2.045800 0.000000 -0.044030 
#    y 0.000000 2.091190 0.000000 
#    z -0.044030 0.000000 1.927220 
# 
# From -- ./inp_files/111456.got.cif
#   From: 2010.05.17/outbox.cif.g08.bks.cpg/sg15_56_cif.got.tgz:111456.got - 2010.06.03 18:47:42.
