data_PCOD9286422
_publ_section_title
;
Structure prediction by ZEFSAII (Michael W. Deem and Ramdas Pophale) SiO2 
 PCOD9286422
Probable space group: C 2/C
;
_chemical_formula_sum "Si O2"
_cell_formula_units_Z 56
_cell_length_a 20.728916
_cell_length_b 26.630944
_cell_length_c 9.112957
_cell_angle_alpha 90.000000
_cell_angle_beta 32.565487
_cell_angle_gamma 90.000000
_cell_volume 2707.803727
_symmetry_space_group_name_H-M "C 2/C"
_symmetry_group_IT_number 15
_symmetry_cell_setting 'monoclinic'
loop_
_space_group_symop_operation_xyz
x,y,z
-x,y,1/2-z
-x,-y,-z
x,-y,1/2+z
1/2+x,1/2+y,z
1/2-x,1/2+y,1/2-z
1/2-x,1/2-y,-z
1/2+x,1/2-y,1/2+z
loop_
_atom_site_type_symbol
_atom_site_label
_atom_site_fract_x
_atom_site_fract_y
_atom_site_fract_z
Si Si1 0.360274 0.160016 0.493732
Si Si2 0.798663 0.193514 0.437296
Si Si3 0.142388 0.862408 0.971326
Si Si4 0.500000 0.116433 0.750000
Si Si5 0.802511 0.545587 0.200213
Si Si6 0.150846 0.695643 0.284890
Si Si7 0.500000 0.274671 0.750000
Si Si8 0.871831 0.451752 0.904824
O O1 0.347153 0.201509 0.392412
O O2 0.323122 0.104806 0.511844
O O3 0.292906 0.172179 0.769886
O O4 0.500000 0.156932 0.250000
O O5 0.750000 0.250000 0.500000
O O6 0.809335 0.157616 0.277751
O O7 0.928721 0.196017 0.262927
O O8 0.186218 0.918705 0.927628
O O9 0.218322 0.825161 0.928949
O O10 0.000000 0.857382 0.250000
O O11 0.608186 0.078681 0.573949
O O12 0.553904 0.151902 0.518891
O O13 0.865202 0.538933 0.240895
O O14 0.790534 0.492464 0.144195
O O15 0.101004 0.741147 0.475596
O O16 0.000000 0.454817 0.750000
#
# Coordination Sequence:
#
# PCOD9286422 Si02
#       8
#     8   8   8   4   8   8   4   8
#     4  11  25  40  67 102 141 172 226 274 343 411
#     4  12  27  45  67 103 135 180 223 285 343 405
#     4  11  26  47  70  91 137 185 230 271 342 404
#     4   9  18  34  64  92 136 172 204 274 341 398
#     4  11  23  39  67  99 142 176 225 276 345 403
#     4  10  21  43  68  94 134 175 223 279 336 403
#     4  11  24  42  72  98 132 172 234 276 343 400
#     4  11  23  37  66 108 136 174 219 281 345 402
#
# _framework density 20.680966000000002
#
# number of rings (size 3 to 8) (size 9 to 14) (size 15 to 20)
#    0.000    1.143    5.000    1.286    8.000    2.286 
#    0.000    0.714    1.571    0.000    0.000    0.000 
#    0.000    0.000    0.000    0.000    0.000    0.000 
#
# Total GULP energy -156245.036970 kJ/mol
# GULP energy per Si atom -5580.179892 kJ/mol
# Density = 2.063390 g / cm^3
# Si number density = 20.680966 Si / 1000 Ang^3
#
#
#
# Elastic Constant Matrix: (Units=GPa)
#
#
# Indices 1 2 3 4 5 6 
#
# 1 101.9800 32.1778 30.1851 0.0000 5.1851 0.0000
# 2 32.1778 59.4054 19.4379 0.0000 10.0462 0.0000
# 3 30.1851 19.4379 108.9944 0.0000 1.2372 0.0001
# 4 0.0000 0.0000 0.0000 15.8903 0.0000 13.0790
# 5 5.1851 10.0462 1.2372 0.0000 38.8076 0.0000
# 6 0.0000 0.0000 0.0001 13.0790 0.0000 29.3843
#
#
#
# Elastic Compliance Matrix: (Units=1/GPa)
#
#
# Indices 1 2 3 4 5 6 
#
# 1 0.012378 -0.005921 -0.002372 0.000000 -0.000045 0.000000
# 2 -0.005921 0.021541 -0.002148 0.000000 -0.004717 0.000000
# 3 -0.002372 -0.002148 0.010208 0.000000 0.000548 0.000000
# 4 0.000000 0.000000 0.000000 0.099316 0.000000 -0.044205
# 5 -0.000045 -0.004717 0.000548 0.000000 0.026978 0.000000
# 6 0.000000 0.000000 0.000000 -0.044205 0.000000 0.053708
#
#
# Mechanical properties :
#
#
# Convention : Reuss Voigt Hill
#
# Bulk Modulus (GPa) = 43.01802 48.22015 45.61909
# Shear Modulus (GPa) = 19.78154 29.38838 24.58496
#
# Velocity S-wave (km/s) = 3.09610 3.77375 3.45160
# Velocity P-wave (km/s) = 5.79889 6.50808 6.16369
#
# Compressibility (1/GPa) = 0.02324607
#
# Stress axis : x y z
#
# Youngs Moduli (GPa) = 80.78542 46.42213 97.95778
#
# Poissons Ratio (x) = 0.27488 0.23232
# Poissons Ratio (y) = 0.47835 0.21044
# Poissons Ratio (z) = 0.19159 0.09973
#
# Static dielectric constant tensor:
#      x y z
#    x 1.780120 0.000000 0.000210 
#    y 0.000000 1.787240 0.000000 
#    z 0.000210 0.000000 1.720080 
# 
# From -- ./inp_files/59355.got.cif
#   From: 2010.05.17/outbox.cif.g08.bks.cpg/sg15_30_cif.got.tgz:59355.got - 2010.06.03 18:47:42.
