data_PCOD9286620
_publ_section_title
;
Structure prediction by ZEFSAII (Michael W. Deem and Ramdas Pophale) SiO2 
 PCOD9286620
Probable space group: C 2/C
;
_chemical_formula_sum "Si O2"
_cell_formula_units_Z 40
_cell_length_a 31.823305
_cell_length_b 5.153767
_cell_length_c 13.603098
_cell_angle_alpha 90.000000
_cell_angle_beta 39.964024
_cell_angle_gamma 90.000000
_cell_volume 1433.013212
_symmetry_space_group_name_H-M "C 2/C"
_symmetry_group_IT_number 15
_symmetry_cell_setting 'monoclinic'
loop_
_space_group_symop_operation_xyz
x,y,z
-x,y,1/2-z
-x,-y,-z
x,-y,1/2+z
1/2+x,1/2+y,z
1/2-x,1/2+y,1/2-z
1/2-x,1/2-y,-z
1/2+x,1/2-y,1/2+z
loop_
_atom_site_type_symbol
_atom_site_label
_atom_site_fract_x
_atom_site_fract_y
_atom_site_fract_z
Si Si1 0.459772 0.511583 0.411980
Si Si2 0.149157 0.334898 0.503828
Si Si3 0.818044 0.210278 0.323322
Si Si4 0.080555 0.166777 0.811861
Si Si5 0.202294 0.700603 0.270170
O O1 0.500000 0.640001 0.250000
O O2 0.405866 0.324425 0.458083
O O3 0.511649 0.338146 0.379603
O O4 0.433994 0.699246 0.545410
O O5 0.177106 0.461928 0.250820
O O6 0.218828 0.188775 0.364279
O O7 0.128119 0.331606 0.655515
O O8 0.307705 0.458416 0.273232
O O9 0.750000 0.250000 0.500000
O O10 0.884187 0.117275 0.257810
O O11 0.665434 0.126714 0.437221
#
# Coordination Sequence:
#
# PCOD9286620 Si02
#       5
#     8   8   8   8   8
#     4   9  20  42  75 113 163 221 284 345 414 493
#     4  11  23  43  72 117 165 217 276 342 418 494
#     4  12  25  48  78 118 159 211 269 344 410 496
#     4  10  21  43  78 112 164 218 284 340 417 495
#     4  12  26  45  75 117 164 210 265 341 418 485
#
# _framework density 27.913208999999998
#
# number of rings (size 3 to 8) (size 9 to 14) (size 15 to 20)
#    0.000    1.200    4.000    1.800    0.000    0.000 
#    0.000    1.000    0.000    1.200    0.000    0.000 
#    0.000    0.000    0.000    0.000    0.000    0.000 
#
# Total GULP energy -111972.661147 kJ/mol
# GULP energy per Si atom -5598.633057 kJ/mol
# Density = 2.784968 g / cm^3
# Si number density = 27.913209 Si / 1000 Ang^3
#
#
#
# Elastic Constant Matrix: (Units=GPa)
#
#
# Indices 1 2 3 4 5 6 
#
# 1 163.1535 50.0275 75.3329 0.0011 1.1991 0.0077
# 2 50.0275 154.4138 58.0091 0.0021 19.1852 0.0125
# 3 75.3329 58.0091 236.5446 0.0034 39.3546 -0.0010
# 4 0.0011 0.0021 0.0034 34.7601 -0.0003 24.2501
# 5 1.1991 19.1852 39.3546 -0.0003 82.2459 -0.0006
# 6 0.0077 0.0125 -0.0010 24.2501 -0.0006 45.7428
#
#
#
# Elastic Compliance Matrix: (Units=1/GPa)
#
#
# Indices 1 2 3 4 5 6 
#
# 1 0.007714 -0.001830 -0.002238 0.000001 0.001386 -0.000001
# 2 -0.001830 0.007629 -0.001083 0.000002 -0.001235 -0.000003
# 3 -0.002238 -0.001083 0.005605 -0.000002 -0.002397 0.000002
# 4 0.000001 0.000002 -0.000002 0.045653 0.000000 -0.024203
# 5 0.001386 -0.001235 -0.002397 0.000000 0.013573 0.000000
# 6 -0.000001 -0.000003 0.000002 -0.024203 0.000000 0.034692
#
#
# Mechanical properties :
#
#
# Convention : Reuss Voigt Hill
#
# Bulk Modulus (GPa) = 93.93976 102.31675 98.12825
# Shear Modulus (GPa) = 38.84481 57.26594 48.05538
#
# Velocity S-wave (km/s) = 3.73450 4.53434 4.15372
# Velocity P-wave (km/s) = 7.23344 8.00928 7.63122
#
# Compressibility (1/GPa) = 0.01064512
#
# Stress axis : x y z
#
# Youngs Moduli (GPa) = 129.63890 131.07441 178.42604
#
# Poissons Ratio (x) = 0.23992 0.39936
# Poissons Ratio (y) = 0.23729 0.19316
# Poissons Ratio (z) = 0.29016 0.14190
#
# Static dielectric constant tensor:
#      x y z
#    x 2.377000 0.000000 -0.043200 
#    y 0.000000 2.177430 0.000000 
#    z -0.043200 0.000000 2.255210 
# 
# From -- ./inp_files/176048.got.cif
#   From: 2010.05.17/outbox.cif.g08.bks.cpg/sg15_89_cif.got.tgz:176048.got - 2010.06.03 18:47:42.
