data_PCOD9286222
_publ_section_title
;
Structure prediction by ZEFSAII (Michael W. Deem and Ramdas Pophale) SiO2 
 PCOD9286222
Probable space group: C 2/C
;
_chemical_formula_sum "Si O2"
_cell_formula_units_Z 40
_cell_length_a 18.307092
_cell_length_b 12.137191
_cell_length_c 28.405157
_cell_angle_alpha 90.000000
_cell_angle_beta 19.054329
_cell_angle_gamma 90.000000
_cell_volume 2060.491356
_symmetry_space_group_name_H-M "C 2/C"
_symmetry_group_IT_number 15
_symmetry_cell_setting 'monoclinic'
loop_
_space_group_symop_operation_xyz
x,y,z
-x,y,1/2-z
-x,-y,-z
x,-y,1/2+z
1/2+x,1/2+y,z
1/2-x,1/2+y,1/2-z
1/2-x,1/2-y,-z
1/2+x,1/2-y,1/2+z
loop_
_atom_site_type_symbol
_atom_site_label
_atom_site_fract_x
_atom_site_fract_y
_atom_site_fract_z
Si Si1 0.030058 0.237690 0.103342
Si Si2 0.580000 0.819429 0.433195
Si Si3 0.261390 0.958941 0.696330
Si Si4 0.732596 0.560172 0.804921
Si Si5 0.246315 0.398339 0.621664
O O1 0.033875 0.271975 0.045589
O O2 0.950428 0.113845 0.161155
O O3 0.846392 0.321433 0.236160
O O4 0.250000 0.250000 0.000000
O O5 0.408182 0.884236 0.571919
O O6 0.694160 0.716255 0.388700
O O7 0.755575 0.917479 0.313847
O O8 0.359237 0.987222 0.688378
O O9 0.754724 0.497377 0.840199
O O10 0.468111 0.577178 0.955267
O O11 0.000000 0.392043 0.750000
#
# Coordination Sequence:
#
# PCOD9286222 Si02
#       5
#     8   8   8   8   8
#     4  11  23  40  68  94 127 174 210 262 325 378
#     4  10  22  44  63  93 133 164 212 271 308 389
#     4  10  21  43  64  88 133 167 206 266 318 368
#     4  10  23  42  63  92 132 163 218 271 307 385
#     4  11  23  41  68  93 125 173 214 265 329 380
#
# _framework density 19.412845999999998
#
# number of rings (size 3 to 8) (size 9 to 14) (size 15 to 20)
#    0.000    1.600    4.000    0.000    2.800    0.800 
#   10.800    5.000    0.000    0.000    0.000    0.000 
#    0.000    0.000    0.000    0.000    0.000    0.000 
#
# Total GULP energy -111343.495039 kJ/mol
# GULP energy per Si atom -5567.174752 kJ/mol
# Density = 1.936866 g / cm^3
# Si number density = 19.412846 Si / 1000 Ang^3
#
#
#
# Elastic Constant Matrix: (Units=GPa)
#
#
# Indices 1 2 3 4 5 6 
#
# 1 95.9488 61.7568 65.8662 -0.0364 -5.8911 -0.0085
# 2 61.7568 102.1619 50.1371 -0.0503 -3.4053 -0.0181
# 3 65.8662 50.1371 89.3136 -0.1427 -10.5992 -0.0120
# 4 -0.0364 -0.0503 -0.1427 36.3277 -0.0475 19.1798
# 5 -5.8911 -3.4053 -10.5992 -0.0475 36.0427 -0.0187
# 6 -0.0085 -0.0181 -0.0120 19.1798 -0.0187 29.7244
#
#
#
# Elastic Compliance Matrix: (Units=1/GPa)
#
#
# Indices 1 2 3 4 5 6 
#
# 1 0.025612 -0.008548 -0.014184 -0.000062 -0.000793 0.000036
# 2 -0.008548 0.016397 -0.002987 -0.000003 -0.000726 0.000007
# 3 -0.014184 -0.002987 0.023858 0.000118 0.004415 -0.000069
# 4 -0.000062 -0.000003 0.000118 0.041751 0.000065 -0.026940
# 5 -0.000793 -0.000726 0.004415 0.000065 0.028845 -0.000023
# 6 0.000036 0.000007 -0.000069 -0.026940 -0.000023 0.051026
#
#
# Mechanical properties :
#
#
# Convention : Reuss Voigt Hill
#
# Bulk Modulus (GPa) = 69.30359 71.43826 70.37093
# Shear Modulus (GPa) = 20.51383 27.72989 24.12186
#
# Velocity S-wave (km/s) = 3.25424 3.78356 3.52884
# Velocity P-wave (km/s) = 7.06381 7.48107 7.27544
#
# Compressibility (1/GPa) = 0.01442927
#
# Stress axis : x y z
#
# Youngs Moduli (GPa) = 39.04348 60.98494 41.91505
#
# Poissons Ratio (x) = 0.52131 0.59452
# Poissons Ratio (y) = 0.33375 0.12520
# Poissons Ratio (z) = 0.55379 0.18216
#
# Static dielectric constant tensor:
#      x y z
#    x 1.727190 -0.000010 0.051580 
#    y -0.000010 1.726160 -0.000010 
#    z 0.051580 -0.000010 1.710380 
# 
# From -- ./inp_files/111366.got.cif
#   From: 2010.05.17/outbox.cif.g08.bks.cpg/sg15_56_cif.got.tgz:111366.got - 2010.06.03 18:47:42.
