data_PCOD9286429
_publ_section_title
;
Structure prediction by ZEFSAII (Michael W. Deem and Ramdas Pophale) SiO2 
 PCOD9286429
Probable space group: C 2/C
;
_chemical_formula_sum "Si O2"
_cell_formula_units_Z 48
_cell_length_a 9.073847
_cell_length_b 33.199371
_cell_length_c 15.212127
_cell_angle_alpha 90.000000
_cell_angle_beta 147.007297
_cell_angle_gamma 90.000000
_cell_volume 2495.369327
_symmetry_space_group_name_H-M "C 2/C"
_symmetry_group_IT_number 15
_symmetry_cell_setting 'monoclinic'
loop_
_space_group_symop_operation_xyz
x,y,z
-x,y,1/2-z
-x,-y,-z
x,-y,1/2+z
1/2+x,1/2+y,z
1/2-x,1/2+y,1/2-z
1/2-x,1/2-y,-z
1/2+x,1/2-y,1/2+z
loop_
_atom_site_type_symbol
_atom_site_label
_atom_site_fract_x
_atom_site_fract_y
_atom_site_fract_z
Si Si1 0.511838 0.282801 0.893024
Si Si2 0.063217 0.398370 0.017531
Si Si3 0.500000 0.668706 0.750000
Si Si4 0.982507 0.771959 0.399994
Si Si5 0.686907 0.471557 0.258873
Si Si6 0.500000 0.645838 0.250000
Si Si7 0.874494 0.466526 0.592225
O O1 0.540554 0.324273 0.853940
O O2 0.251459 0.261158 0.721226
O O3 0.750000 0.250000 0.000000
O O4 0.483059 0.288288 0.983915
O O5 0.250493 0.359605 0.101433
O O6 0.191175 0.427444 0.157231
O O7 0.083925 0.426076 0.942354
O O8 0.761466 0.382645 0.878170
O O9 0.579781 0.695048 0.705460
O O10 0.250000 0.750000 0.500000
O O11 0.500000 0.483559 0.250000
O O12 0.941731 0.499681 0.364966
O O13 0.450122 0.473047 0.067781
O O14 0.000000 0.463028 0.750000
#
# Coordination Sequence:
#
# PCOD9286429 Si02
#       7
#     8   8   4   8   8   4   8
#     4  12  23  44  64  95 125 166 222 279 330 394
#     4  11  24  42  63  92 138 176 215 267 337 392
#     4  12  22  42  67  92 132 172 214 278 341 384
#     4  12  23  40  71  93 121 167 221 276 332 396
#     4  10  21  43  68  96 129 179 215 258 322 395
#     4  12  26  40  67  96 134 178 222 280 341 384
#     4  11  23  41  71 101 133 171 220 269 314 394
#
# _framework density 19.235628999999999
#
# number of rings (size 3 to 8) (size 9 to 14) (size 15 to 20)
#    0.000    0.667    5.833    4.500    3.500    1.333 
#    0.000    0.000    0.000    0.000    0.000    0.000 
#    0.000    0.000    0.000    0.000    0.000    0.000 
#
# Total GULP energy -133989.050247 kJ/mol
# GULP energy per Si atom -5582.877094 kJ/mol
# Density = 1.919185 g / cm^3
# Si number density = 19.235629 Si / 1000 Ang^3
#
#
#
# Elastic Constant Matrix: (Units=GPa)
#
#
# Indices 1 2 3 4 5 6 
#
# 1 69.8432 29.0807 29.5017 0.0000 -4.0637 0.0000
# 2 29.0807 77.0129 12.9174 0.0000 0.5311 0.0000
# 3 29.5017 12.9174 96.0969 0.0000 4.4450 0.0000
# 4 0.0000 0.0000 0.0000 79.1856 0.0000 3.7203
# 5 -4.0637 0.5311 4.4450 0.0000 59.4362 0.0000
# 6 0.0000 0.0000 0.0000 3.7203 0.0000 30.0597
#
#
#
# Elastic Compliance Matrix: (Units=1/GPa)
#
#
# Indices 1 2 3 4 5 6 
#
# 1 0.019263 -0.006425 -0.005131 0.000000 0.001758 0.000000
# 2 -0.006425 0.015428 -0.000075 0.000000 -0.000572 0.000000
# 3 -0.005131 -0.000075 0.012049 0.000000 -0.001251 0.000000
# 4 0.000000 0.000000 0.000000 0.012702 0.000000 -0.001572
# 5 0.001758 -0.000572 -0.001251 0.000000 0.017044 0.000000
# 6 0.000000 0.000000 0.000000 -0.001572 0.000000 0.033462
#
#
# Mechanical properties :
#
#
# Convention : Reuss Voigt Hill
#
# Bulk Modulus (GPa) = 42.59475 42.88361 42.73918
# Shear Modulus (GPa) = 35.45193 45.16651 40.30922
#
# Velocity S-wave (km/s) = 4.29772 4.85094 4.58268
# Velocity P-wave (km/s) = 6.84243 7.32924 7.09002
#
# Compressibility (1/GPa) = 0.02347707
#
# Stress axis : x y z
#
# Youngs Moduli (GPa) = 51.91343 64.81908 82.99163
#
# Poissons Ratio (x) = 0.41648 0.42586
# Poissons Ratio (y) = 0.33356 0.00621
# Poissons Ratio (z) = 0.26638 0.00485
#
# Static dielectric constant tensor:
#      x y z
#    x 1.723280 0.000000 0.022940 
#    y 0.000000 1.652900 0.000000 
#    z 0.022940 0.000000 1.727600 
# 
# From -- ./inp_files/139671.got.cif
#   From: 2010.05.17/outbox.cif.g08.bks.cpg/sg15_70_cif.got.tgz:139671.got - 2010.06.03 18:47:42.
