data_PCOD9286556
_publ_section_title
;
Structure prediction by ZEFSAII (Michael W. Deem and Ramdas Pophale) SiO2 
 PCOD9286556
Probable space group: C 2/C
;
_chemical_formula_sum "Si O2"
_cell_formula_units_Z 56
_cell_length_a 5.107421
_cell_length_b 19.498745
_cell_length_c 23.774588
_cell_angle_alpha 90.000000
_cell_angle_beta 114.177467
_cell_angle_gamma 90.000000
_cell_volume 2159.981691
_symmetry_space_group_name_H-M "C 2/C"
_symmetry_group_IT_number 15
_symmetry_cell_setting 'monoclinic'
loop_
_space_group_symop_operation_xyz
x,y,z
-x,y,1/2-z
-x,-y,-z
x,-y,1/2+z
1/2+x,1/2+y,z
1/2-x,1/2+y,1/2-z
1/2-x,1/2-y,-z
1/2+x,1/2-y,1/2+z
loop_
_atom_site_type_symbol
_atom_site_label
_atom_site_fract_x
_atom_site_fract_y
_atom_site_fract_z
Si Si1 0.678308 0.316107 0.708328
Si Si2 0.926868 0.882075 0.920067
Si Si3 0.651039 0.021821 0.885843
Si Si4 0.507885 0.228466 0.432147
Si Si5 0.110961 0.809908 0.341085
Si Si6 0.002078 0.037007 0.687981
Si Si7 0.849471 0.657127 0.548521
O O1 0.500000 0.320769 0.750000
O O2 0.557182 0.358680 0.643850
O O3 0.730928 0.237273 0.691030
O O4 0.000000 0.342342 0.750000
O O5 0.843115 0.960053 0.924872
O O6 0.664573 0.840533 0.924998
O O7 0.225375 0.862910 0.977153
O O8 0.309161 0.016324 0.865236
O O9 0.746140 0.095240 0.918939
O O10 0.729714 0.019103 0.826978
O O11 0.750000 0.250000 0.500000
O O12 0.428828 0.257854 0.362067
O O13 0.251400 0.268335 0.441055
O O14 0.985904 0.879961 0.307455
O O15 0.315671 0.836833 0.410186
O O16 0.000000 0.007342 0.750000
#
# Coordination Sequence:
#
# PCOD9286556 Si02
#       7
#     8   8   8   8   8   8   8
#     4  11  27  45  67  97 139 183 228 281 340 414
#     4  10  24  44  68 102 139 184 226 286 357 421
#     4  11  24  45  67 104 137 182 229 292 351 416
#     4   9  19  38  63  96 133 168 217 273 341 417
#     4  10  22  40  68 101 131 173 230 287 345 400
#     4  11  24  43  71  96 137 184 241 285 337 407
#     4  10  21  43  71  99 137 174 233 289 351 419
#
# _framework density 25.926148000000001
#
# number of rings (size 3 to 8) (size 9 to 14) (size 15 to 20)
#    0.000    1.714    1.429    1.286    4.000   10.286 
#   10.286    2.143    0.000    0.000    0.000    0.000 
#    0.000    0.000    0.000    0.000    0.000    0.000 
#
# Total GULP energy -156233.705984 kJ/mol
# GULP energy per Si atom -5579.775214 kJ/mol
# Density = 2.586714 g / cm^3
# Si number density = 25.926148 Si / 1000 Ang^3
#
#
#
# Elastic Constant Matrix: (Units=GPa)
#
#
# Indices 1 2 3 4 5 6 
#
# 1 83.7870 -1.8245 28.9523 0.0000 -27.1972 0.0000
# 2 -1.8245 81.4586 4.0750 0.0000 -14.2293 0.0000
# 3 28.9523 4.0750 131.1541 0.0000 -15.4138 0.0000
# 4 0.0000 0.0000 0.0000 12.0418 0.0000 -3.5174
# 5 -27.1972 -14.2293 -15.4138 0.0000 50.9362 0.0000
# 6 0.0000 0.0000 0.0000 -3.5174 0.0000 9.7396
#
#
#
# Elastic Compliance Matrix: (Units=1/GPa)
#
#
# Indices 1 2 3 4 5 6 
#
# 1 0.015448 0.001871 -0.002527 0.000000 0.008006 0.000000
# 2 0.001871 0.013133 -0.000283 0.000000 0.004582 0.000000
# 3 -0.002527 -0.000283 0.008319 0.000000 0.001089 0.000000
# 4 0.000000 0.000000 0.000000 0.092838 0.000000 0.033527
# 5 0.008006 0.004582 0.001089 0.000000 0.025517 0.000000
# 6 0.000000 0.000000 0.000000 0.033527 0.000000 0.114782
#
#
# Mechanical properties :
#
#
# Convention : Reuss Voigt Hill
#
# Bulk Modulus (GPa) = 28.55347 39.86725 34.21036
# Shear Modulus (GPa) = 17.63123 32.22330 24.92726
#
# Velocity S-wave (km/s) = 2.61062 3.52929 3.10413
# Velocity P-wave (km/s) = 4.48602 5.65848 5.10602
#
# Compressibility (1/GPa) = 0.03502201
#
# Stress axis : x y z
#
# Youngs Moduli (GPa) = 64.73381 76.14622 120.20238
#
# Poissons Ratio (x) = -0.14247 0.30379
# Poissons Ratio (y) = -0.12111 0.03396
# Poissons Ratio (z) = 0.16360 0.02151
#
# Static dielectric constant tensor:
#      x y z
#    x 2.342270 0.000000 -0.080970 
#    y 0.000000 2.330750 0.000000 
#    z -0.080970 0.000000 2.154740 
# 
# From -- ./inp_files/261395.got.cif
#   From: 2010.05.17/outbox.cif.g08.bks.cpg/sg15_131_cif.got.tgz:261395.got - 2010.06.03 18:47:42.
