data_PCOD9286819
_publ_section_title
;
Structure prediction by ZEFSAII (Michael W. Deem and Ramdas Pophale) SiO2 
 PCOD9286819
Probable space group: C 2/C
;
_chemical_formula_sum "Si O2"
_cell_formula_units_Z 48
_cell_length_a 20.522924
_cell_length_b 22.583054
_cell_length_c 7.691542
_cell_angle_alpha 90.000000
_cell_angle_beta 34.117144
_cell_angle_gamma 90.000000
_cell_volume 1999.449775
_symmetry_space_group_name_H-M "C 2/C"
_symmetry_group_IT_number 15
_symmetry_cell_setting 'monoclinic'
loop_
_space_group_symop_operation_xyz
x,y,z
-x,y,1/2-z
-x,-y,-z
x,-y,1/2+z
1/2+x,1/2+y,z
1/2-x,1/2+y,1/2-z
1/2-x,1/2-y,-z
1/2+x,1/2-y,1/2+z
loop_
_atom_site_type_symbol
_atom_site_label
_atom_site_fract_x
_atom_site_fract_y
_atom_site_fract_z
Si Si1 0.689789 0.510927 0.152298
Si Si2 0.000000 0.902646 0.250000
Si Si3 0.364223 0.412100 0.036538
Si Si4 0.272518 0.669227 0.139561
Si Si5 0.000000 0.632904 0.250000
Si Si6 0.089976 0.424159 0.200131
Si Si7 0.235100 0.302822 0.312253
O O1 0.580469 0.550833 0.463015
O O2 0.675611 0.440019 0.191382
O O3 0.682397 0.532604 0.970361
O O4 0.814839 0.529330 0.946579
O O5 0.899828 0.858197 0.397443
O O6 0.319739 0.352556 0.045775
O O7 0.500000 0.407898 0.750000
O O8 0.169339 0.628374 0.441956
O O9 0.253884 0.734945 0.261508
O O10 0.259763 0.683949 0.962159
O O11 0.975820 0.596389 0.479399
O O12 0.890943 0.674164 0.454473
O O13 0.000000 0.443534 0.250000
#
# Coordination Sequence:
#
# PCOD9286819 Si02
#       7
#     8   4   8   8   4   8   8
#     4  11  25  43  70 103 134 180 232 289 361 413
#     4  10  21  44  70 100 134 182 229 288 356 414
#     4  12  25  43  68 102 140 177 230 296 351 428
#     4  10  23  43  71 102 140 187 228 290 354 415
#     4  12  23  46  68  96 142 184 233 284 340 414
#     4  11  24  46  72  99 139 182 237 286 344 422
#     4  11  24  43  68 104 141 181 235 288 349 421
#
# _framework density 24.006603999999999
#
# number of rings (size 3 to 8) (size 9 to 14) (size 15 to 20)
#    0.000    1.000    4.167    2.000    4.667    1.333 
#    4.500    1.667    0.000    0.000    0.000    0.000 
#    0.000    0.000    0.000    0.000    0.000    0.000 
#
# Total GULP energy -134129.212817 kJ/mol
# GULP energy per Si atom -5588.717201 kJ/mol
# Density = 2.395196 g / cm^3
# Si number density = 24.006604 Si / 1000 Ang^3
#
#
#
# Elastic Constant Matrix: (Units=GPa)
#
#
# Indices 1 2 3 4 5 6 
#
# 1 103.1284 25.6419 35.8261 0.0000 -52.0139 0.0000
# 2 25.6419 123.8887 10.7349 0.0000 -31.9850 0.0000
# 3 35.8261 10.7349 55.8623 0.0001 -22.1149 0.0000
# 4 0.0000 0.0000 0.0001 -28.5048 0.0000 18.2547
# 5 -52.0139 -31.9850 -22.1149 0.0000 49.9222 0.0000
# 6 0.0000 0.0000 0.0000 18.2547 0.0000 13.3718
#
#
#
# Elastic Compliance Matrix: (Units=1/GPa)
#
#
# Indices 1 2 3 4 5 6 
#
# 1 0.022248 0.001452 -0.006066 0.000000 0.021423 0.000000
# 2 0.001452 0.009790 0.000327 0.000000 0.007930 0.000000
# 3 -0.006066 0.000327 0.023416 0.000000 0.004262 0.000000
# 4 0.000000 0.000000 0.000000 -0.018718 0.000000 0.025553
# 5 0.021423 0.007930 0.004262 0.000000 0.049320 0.000000
# 6 0.000000 0.000000 0.000000 0.025553 0.000000 0.039901
#
#
# Mechanical properties :
#
#
# Convention : Reuss Voigt Hill
#
# Bulk Modulus (GPa) = 21.33146 47.47613 34.40379
# Shear Modulus (GPa) = 33.29794 21.00293 27.15044
#
# Velocity S-wave (km/s) = 3.72833 2.96105 3.36662
# Velocity P-wave (km/s) = 5.23821 5.61334 5.42902
#
# Compressibility (1/GPa) = 0.04687911
#
# Stress axis : x y z
#
# Youngs Moduli (GPa) = 44.94798 102.14216 42.70569
#
# Poissons Ratio (x) = -0.14828 0.25906
# Poissons Ratio (y) = -0.06525 -0.01396
# Poissons Ratio (z) = 0.27267 -0.03339
#
# Static dielectric constant tensor:
#      x y z
#    x 2.402790 0.000000 0.842860 
#    y 0.000000 2.005070 0.000000 
#    z 0.842860 0.000000 3.136230 
# 
# From -- ./inp_files/63907.got.cif
#   From: 2010.05.17/outbox.cif.g08.bks.cpg/sg15_32_cif.got.tgz:63907.got - 2010.06.03 18:47:42.
