data_PCOD9286085
_publ_section_title
;
Structure prediction by ZEFSAII (Michael W. Deem and Ramdas Pophale) SiO2 
 PCOD9286085
Probable space group: C 2/C
;
_chemical_formula_sum "Si O2"
_cell_formula_units_Z 56
_cell_length_a 8.644018
_cell_length_b 10.826140
_cell_length_c 29.345379
_cell_angle_alpha 90.000000
_cell_angle_beta 56.757884
_cell_angle_gamma 90.000000
_cell_volume 2296.799612
_symmetry_space_group_name_H-M "C 2/C"
_symmetry_group_IT_number 15
_symmetry_cell_setting 'monoclinic'
loop_
_space_group_symop_operation_xyz
x,y,z
-x,y,1/2-z
-x,-y,-z
x,-y,1/2+z
1/2+x,1/2+y,z
1/2-x,1/2+y,1/2-z
1/2-x,1/2-y,-z
1/2+x,1/2-y,1/2+z
loop_
_atom_site_type_symbol
_atom_site_label
_atom_site_fract_x
_atom_site_fract_y
_atom_site_fract_z
Si Si1 0.250393 0.389947 0.677950
Si Si2 0.280083 0.160968 0.796772
Si Si3 0.427799 0.637491 0.507909
Si Si4 0.879797 0.789066 0.910907
Si Si5 0.701604 0.503046 0.234919
Si Si6 0.508108 0.891005 0.961635
Si Si7 0.015785 0.380200 0.861671
O O1 0.262275 0.538512 0.666259
O O2 0.433314 0.308062 0.645680
O O3 0.216773 0.407065 0.737901
O O4 0.121822 0.347018 0.657332
O O5 0.500000 0.171364 0.750000
O O6 0.186265 0.125539 0.763676
O O7 0.173993 0.273685 0.836116
O O8 0.500000 0.500000 0.500000
O O9 0.229562 0.660823 0.565004
O O10 0.409805 0.665335 0.457556
O O11 0.538753 0.756610 0.509588
O O12 0.727169 0.881702 0.915552
O O13 0.500000 0.540138 0.250000
O O14 0.860605 0.501517 0.171919
O O15 0.420861 0.898303 0.925780
O O16 0.500000 0.000000 0.000000
#
# Coordination Sequence:
#
# PCOD9286085 Si02
#       7
#     8   8   8   8   8   8   8
#     4  10  22  44  71 113 158 188 260 311 394 489
#     4  10  23  45  70 114 160 196 258 317 396 492
#     4   9  21  44  74  98 143 203 260 320 397 452
#     4   9  21  44  72 100 144 197 250 328 387 456
#     4  10  21  42  71 111 155 193 245 317 388 490
#     4  10  24  47  70 113 148 200 282 329 394 472
#     4  12  23  44  77 106 152 211 247 329 402 461
#
# _framework density 24.381754000000001
#
# number of rings (size 3 to 8) (size 9 to 14) (size 15 to 20)
#    1.714    0.286    1.429    1.714    2.000    2.286 
#    5.143    2.857    0.000    0.000    0.000    0.000 
#    0.000    0.000    0.000    0.000    0.000    0.000 
#
# Total GULP energy -155965.525802 kJ/mol
# GULP energy per Si atom -5570.197350 kJ/mol
# Density = 2.432626 g / cm^3
# Si number density = 24.381754 Si / 1000 Ang^3
#
#
#
# Elastic Constant Matrix: (Units=GPa)
#
#
# Indices 1 2 3 4 5 6 
#
# 1 107.4715 31.4517 39.0081 0.0000 12.7875 0.0000
# 2 31.4517 164.7504 55.5241 0.0000 -1.4768 0.0000
# 3 39.0081 55.5241 99.2029 0.0000 19.8033 0.0000
# 4 0.0000 0.0000 0.0000 27.8801 0.0000 -5.3907
# 5 12.7875 -1.4768 19.8033 0.0000 39.9429 0.0000
# 6 0.0000 0.0000 0.0000 -5.3907 0.0000 26.0888
#
#
#
# Elastic Compliance Matrix: (Units=1/GPa)
#
#
# Indices 1 2 3 4 5 6 
#
# 1 0.011057 -0.000972 -0.003429 0.000000 -0.001876 0.000000
# 2 -0.000972 0.007820 -0.004567 0.000000 0.002864 0.000000
# 3 -0.003429 -0.004567 0.015315 0.000000 -0.006664 0.000000
# 4 0.000000 0.000000 0.000000 0.037361 0.000000 0.007720
# 5 -0.001876 0.002864 -0.006664 0.000000 0.029046 0.000000
# 6 0.000000 0.000000 0.000000 0.007720 0.000000 0.039926
#
#
# Mechanical properties :
#
#
# Convention : Reuss Voigt Hill
#
# Bulk Modulus (GPa) = 61.51393 69.26586 65.38990
# Shear Modulus (GPa) = 30.51030 35.14507 32.82769
#
# Velocity S-wave (km/s) = 3.54129 3.80076 3.67332
# Velocity P-wave (km/s) = 6.48115 6.90881 6.69839
#
# Compressibility (1/GPa) = 0.01625648
#
# Stress axis : x y z
#
# Youngs Moduli (GPa) = 90.43932 127.87726 65.29526
#
# Poissons Ratio (x) = 0.12428 0.22393
# Poissons Ratio (y) = 0.08790 0.29817
# Poissons Ratio (z) = 0.31016 0.58395
#
# Static dielectric constant tensor:
#      x y z
#    x 2.009480 0.000000 0.051990 
#    y 0.000000 2.050340 0.000000 
#    z 0.051990 0.000000 1.909050 
# 
# From -- ./inp_files/307395.got.cif
#   From: 2010.05.17/outbox.cif.g08.bks.cpg/sg15_154_cif.got.tgz:307395.got - 2010.06.03 18:47:42.
