data_PCOD9286606
_publ_section_title
;
Structure prediction by ZEFSAII (Michael W. Deem and Ramdas Pophale) SiO2 
 PCOD9286606
Probable space group: C 2/C
;
_chemical_formula_sum "Si O2"
_cell_formula_units_Z 60
_cell_length_a 15.653961
_cell_length_b 9.865995
_cell_length_c 18.354564
_cell_angle_alpha 90.000000
_cell_angle_beta 117.246133
_cell_angle_gamma 90.000000
_cell_volume 2520.196715
_symmetry_space_group_name_H-M "C 2/C"
_symmetry_group_IT_number 15
_symmetry_cell_setting 'monoclinic'
loop_
_space_group_symop_operation_xyz
x,y,z
-x,y,1/2-z
-x,-y,-z
x,-y,1/2+z
1/2+x,1/2+y,z
1/2-x,1/2+y,1/2-z
1/2-x,1/2-y,-z
1/2+x,1/2-y,1/2+z
loop_
_atom_site_type_symbol
_atom_site_label
_atom_site_fract_x
_atom_site_fract_y
_atom_site_fract_z
Si Si1 0.579302 0.350619 0.378446
Si Si2 0.089203 0.553124 0.368640
Si Si3 0.285115 0.318689 0.687579
Si Si4 0.963115 0.601792 0.921408
Si Si5 0.000000 0.078716 0.250000
Si Si6 0.242642 0.496139 0.307927
Si Si7 0.215250 0.535964 0.565400
Si Si8 0.928843 0.120054 0.457635
O O1 0.546390 0.202576 0.342751
O O2 0.514331 0.474138 0.323897
O O3 0.684853 0.385790 0.390949
O O4 0.593280 0.332223 0.469710
O O5 0.148868 0.519826 0.320592
O O6 0.165284 0.547482 0.466862
O O7 0.005298 0.453762 0.363309
O O8 0.401093 0.338165 0.723697
O O9 0.246994 0.420389 0.734922
O O10 0.237068 0.379590 0.595179
O O11 0.484813 0.259635 0.938526
O O12 0.752811 0.667220 0.694314
O O13 0.851588 0.599180 0.898030
O O14 0.000000 0.500000 0.000000
O O15 0.334287 0.560439 0.384601
O O16 0.000000 0.000000 0.500000
#
# Coordination Sequence:
#
# PCOD9286606 Si02
#       8
#     8   8   8   8   4   8   8   8
#     4  11  21  44  72 108 143 195 243 304 368 451
#     4  11  23  43  76 111 143 190 251 298 372 445
#     4  11  29  50  75 106 155 195 246 310 379 440
#     4  10  22  40  69 108 148 184 239 309 360 424
#     4  10  26  50  74 106 152 190 244 318 374 430
#     4  12  29  48  75 108 148 199 250 303 380 444
#     4  10  21  43  75 100 147 187 243 299 366 433
#     4  12  25  42  73 107 147 191 250 304 368 444
#
# _framework density 23.807666000000001
#
# number of rings (size 3 to 8) (size 9 to 14) (size 15 to 20)
#    0.000    1.067    4.000    2.000    9.333    4.800 
#    0.000    0.000    0.000    0.000    0.000    0.000 
#    0.000    0.000    0.000    0.000    0.000    0.000 
#
# Total GULP energy -167766.120657 kJ/mol
# GULP energy per Si atom -5592.204022 kJ/mol
# Density = 2.375348 g / cm^3
# Si number density = 23.807666 Si / 1000 Ang^3
#
#
#
# Elastic Constant Matrix: (Units=GPa)
#
#
# Indices 1 2 3 4 5 6 
#
# 1 95.9891 28.4865 1.6784 0.0000 -21.6657 0.0000
# 2 28.4865 186.1614 34.7481 0.0000 -10.1580 0.0000
# 3 1.6784 34.7481 109.2012 0.0000 -1.1888 0.0000
# 4 0.0000 0.0000 0.0000 28.0027 0.0000 -7.1492
# 5 -21.6657 -10.1580 -1.1888 0.0000 21.7533 0.0000
# 6 0.0000 0.0000 0.0000 -7.1492 0.0000 59.5540
#
#
#
# Elastic Compliance Matrix: (Units=1/GPa)
#
#
# Indices 1 2 3 4 5 6 
#
# 1 0.013800 -0.001472 0.000399 0.000000 0.013078 0.000000
# 2 -0.001472 0.006015 -0.001878 0.000000 0.001240 0.000000
# 3 0.000399 -0.001878 0.009749 0.000000 0.000053 0.000000
# 4 0.000000 0.000000 0.000000 0.036840 0.000000 0.004422
# 5 0.013078 0.001240 0.000053 0.000000 0.059578 0.000000
# 6 0.000000 0.000000 0.000000 0.004422 0.000000 0.017322
#
#
# Mechanical properties :
#
#
# Convention : Reuss Voigt Hill
#
# Bulk Modulus (GPa) = 42.26320 57.90863 50.08592
# Shear Modulus (GPa) = 31.82798 43.62457 37.72627
#
# Velocity S-wave (km/s) = 3.66030 4.28527 3.98506
# Velocity P-wave (km/s) = 5.97112 6.99007 6.50059
#
# Compressibility (1/GPa) = 0.02366124
#
# Stress axis : x y z
#
# Youngs Moduli (GPa) = 72.46485 166.24633 102.57023
#
# Poissons Ratio (x) = 0.24479 -0.04091
# Poissons Ratio (y) = 0.10670 0.19262
# Poissons Ratio (z) = -0.02890 0.31220
#
# Static dielectric constant tensor:
#      x y z
#    x 1.906110 0.000000 -0.008250 
#    y 0.000000 2.021800 0.000000 
#    z -0.008250 0.000000 1.991570 
# 
# From -- ./inp_files/205994.got.cif
#   From: 2010.05.17/outbox.cif.g08.bks.cpg/sg15_103_cif.got.tgz:205994.got - 2010.06.03 18:47:42.
