data_PCOD9286682
_publ_section_title
;
Structure prediction by ZEFSAII (Michael W. Deem and Ramdas Pophale) SiO2 
 PCOD9286682
Probable space group: C 2/C
;
_chemical_formula_sum "Si O2"
_cell_formula_units_Z 40
_cell_length_a 14.055515
_cell_length_b 10.661641
_cell_length_c 17.705077
_cell_angle_alpha 90.000000
_cell_angle_beta 36.551480
_cell_angle_gamma 90.000000
_cell_volume 1580.094570
_symmetry_space_group_name_H-M "C 2/C"
_symmetry_group_IT_number 15
_symmetry_cell_setting 'monoclinic'
loop_
_space_group_symop_operation_xyz
x,y,z
-x,y,1/2-z
-x,-y,-z
x,-y,1/2+z
1/2+x,1/2+y,z
1/2-x,1/2+y,1/2-z
1/2-x,1/2-y,-z
1/2+x,1/2-y,1/2+z
loop_
_atom_site_type_symbol
_atom_site_label
_atom_site_fract_x
_atom_site_fract_y
_atom_site_fract_z
Si Si1 0.691173 0.900284 0.636552
Si Si2 0.747158 0.452894 0.544110
Si Si3 0.645728 0.369369 0.215655
Si Si4 0.493451 0.735312 0.375842
Si Si5 0.672555 0.643421 0.869226
O O1 0.500000 0.907456 0.750000
O O2 0.726983 0.763202 0.645457
O O3 0.751941 0.931146 0.514244
O O4 0.758727 0.010637 0.645956
O O5 0.752719 0.512000 0.623533
O O6 0.596552 0.365245 0.619618
O O7 0.898035 0.366157 0.428593
O O8 0.500000 0.379666 0.250000
O O9 0.601062 0.371977 0.331648
O O10 0.447641 0.690959 0.489723
O O11 0.675343 0.763348 0.238064
#
# Coordination Sequence:
#
# PCOD9286682 Si02
#       5
#     8   8   8   8   8
#     4  10  21  44  65  97 138 181 231 285 353 416
#     4  10  22  41  70 100 137 181 236 290 351 411
#     4  11  27  42  67 100 144 188 231 293 349 417
#     4  10  24  42  76 105 138 181 240 294 347 423
#     4  11  25  45  71 105 140 189 238 287 352 425
#
# _framework density 25.31494
#
# number of rings (size 3 to 8) (size 9 to 14) (size 15 to 20)
#    0.000    1.600    2.000    0.600    5.600    5.600 
#    0.000    4.000    0.000    0.000    0.000    0.000 
#    0.000    0.000    0.000    0.000    0.000    0.000 
#
# Total GULP energy -112104.300027 kJ/mol
# GULP energy per Si atom -5605.215001 kJ/mol
# Density = 2.525732 g / cm^3
# Si number density = 25.314940 Si / 1000 Ang^3
#
#
#
# Elastic Constant Matrix: (Units=GPa)
#
#
# Indices 1 2 3 4 5 6 
#
# 1 101.2698 25.4190 39.8252 0.0000 13.1922 0.0000
# 2 25.4190 139.5905 53.9640 0.0000 14.7820 0.0000
# 3 39.8252 53.9640 130.3125 -0.0001 15.6071 0.0000
# 4 0.0000 0.0000 -0.0001 35.4288 0.0000 9.2712
# 5 13.1922 14.7820 15.6071 0.0000 60.1686 0.0000
# 6 0.0000 0.0000 0.0000 9.2712 0.0000 13.6253
#
#
#
# Elastic Compliance Matrix: (Units=1/GPa)
#
#
# Indices 1 2 3 4 5 6 
#
# 1 0.011446 -0.000762 -0.002997 0.000000 -0.001545 0.000000
# 2 -0.000762 0.008667 -0.003221 0.000000 -0.001127 0.000000
# 3 -0.002997 -0.003221 0.010063 0.000000 -0.001162 0.000000
# 4 0.000000 0.000000 0.000000 0.034340 0.000000 -0.023366
# 5 -0.001545 -0.001127 -0.001162 0.000000 0.017537 0.000000
# 6 0.000000 0.000000 0.000000 -0.023366 0.000000 0.089292
#
#
# Mechanical properties :
#
#
# Convention : Reuss Voigt Hill
#
# Bulk Modulus (GPa) = 61.67273 67.73212 64.70242
# Shear Modulus (GPa) = 26.21757 38.64219 32.42988
#
# Velocity S-wave (km/s) = 3.22165 3.91123 3.58307
# Velocity P-wave (km/s) = 6.18497 6.87101 6.53700
#
# Compressibility (1/GPa) = 0.01621462
#
# Stress axis : x y z
#
# Youngs Moduli (GPa) = 87.36768 115.37724 99.37304
#
# Poissons Ratio (x) = 0.08790 0.29787
# Poissons Ratio (y) = 0.06656 0.32012
# Poissons Ratio (z) = 0.26188 0.37168
#
# Static dielectric constant tensor:
#      x y z
#    x 2.000870 0.000000 -0.040160 
#    y 0.000000 1.989490 0.000000 
#    z -0.040160 0.000000 2.068980 
# 
# From -- ./inp_files/126349.got.cif
#   From: 2010.05.17/outbox.cif.g08.bks.cpg/sg15_64_cif.got.tgz:126349.got - 2010.06.03 18:47:42.
