data_PCOD9286781
_publ_section_title
;
Structure prediction by ZEFSAII (Michael W. Deem and Ramdas Pophale) SiO2 
 PCOD9286781
Probable space group: C 2/C
;
_chemical_formula_sum "Si O2"
_cell_formula_units_Z 52
_cell_length_a 8.095210
_cell_length_b 31.947513
_cell_length_c 9.248925
_cell_angle_alpha 90.000000
_cell_angle_beta 66.646794
_cell_angle_gamma 90.000000
_cell_volume 2196.020207
_symmetry_space_group_name_H-M "C 2/C"
_symmetry_group_IT_number 15
_symmetry_cell_setting 'monoclinic'
loop_
_space_group_symop_operation_xyz
x,y,z
-x,y,1/2-z
-x,-y,-z
x,-y,1/2+z
1/2+x,1/2+y,z
1/2-x,1/2+y,1/2-z
1/2-x,1/2-y,-z
1/2+x,1/2-y,1/2+z
loop_
_atom_site_type_symbol
_atom_site_label
_atom_site_fract_x
_atom_site_fract_y
_atom_site_fract_z
Si Si1 0.163838 0.715691 0.424623
Si Si2 0.868489 0.374932 0.584319
Si Si3 0.847981 0.532582 0.002523
Si Si4 0.162702 0.723966 0.812551
Si Si5 0.829387 0.980550 0.638456
Si Si6 0.500000 0.663287 0.750000
Si Si7 0.229088 0.887335 0.942006
O O1 0.250000 0.750000 0.500000
O O2 0.189436 0.668404 0.465692
O O3 0.261345 0.729639 0.244727
O O4 0.950611 0.722910 0.500681
O O5 0.868515 0.417628 0.495786
O O6 0.739071 0.376636 0.769021
O O7 0.075978 0.373469 0.565205
O O8 0.696245 0.527345 0.182993
O O9 0.806047 0.517234 0.857730
O O10 0.000000 0.500000 0.000000
O O11 0.330935 0.692288 0.758058
O O12 0.000000 0.714502 0.750000
O O13 0.783859 0.937957 0.565704
O O14 0.000000 0.000000 0.500000
O O15 0.577404 0.634135 0.592972
#
# Coordination Sequence:
#
# PCOD9286781 Si02
#       7
#     8   8   8   8   8   4   8
#     4  10  22  45  66  94 140 181 224 295 349 416
#     4  10  21  44  68  98 137 180 239 284 358 432
#     4  11  22  42  71  99 132 190 233 284 359 428
#     4  10  24  44  66  97 135 174 230 286 348 418
#     4  11  24  43  63 101 146 181 230 292 361 423
#     4  12  24  42  72 104 130 182 240 284 366 412
#     4  10  23  40  68 100 138 178 231 296 348 438
#
# _framework density 23.679199000000001
#
# number of rings (size 3 to 8) (size 9 to 14) (size 15 to 20)
#    0.000    1.538    3.077    0.923    4.308    1.846 
#    5.538    4.615    0.000    0.000    0.000    0.000 
#    0.000    0.000    0.000    0.000    0.000    0.000 
#
# Total GULP energy -144828.926354 kJ/mol
# GULP energy per Si atom -5570.343321 kJ/mol
# Density = 2.362530 g / cm^3
# Si number density = 23.679199 Si / 1000 Ang^3
#
#
#
# Elastic Constant Matrix: (Units=GPa)
#
#
# Indices 1 2 3 4 5 6 
#
# 1 58.1250 39.7269 34.4152 0.0000 -9.2688 0.0000
# 2 39.7269 207.7044 46.4984 0.0000 -10.6051 0.0000
# 3 34.4152 46.4984 80.4314 0.0000 -36.1969 0.0000
# 4 0.0000 0.0000 0.0000 43.5197 0.0000 -8.4379
# 5 -9.2688 -10.6051 -36.1969 0.0000 36.6664 0.0000
# 6 0.0000 0.0000 0.0000 -8.4379 0.0000 32.5803
#
#
#
# Elastic Compliance Matrix: (Units=1/GPa)
#
#
# Indices 1 2 3 4 5 6 
#
# 1 0.025052 -0.002380 -0.012242 0.000000 -0.006441 0.000000
# 2 -0.002380 0.005921 -0.003427 0.000000 -0.002273 0.000000
# 3 -0.012242 -0.003427 0.032055 0.000000 0.027558 0.000000
# 4 0.000000 0.000000 0.000000 0.024193 0.000000 0.006266
# 5 -0.006441 -0.002273 0.027558 0.000000 0.052193 0.000000
# 6 0.000000 0.000000 0.000000 0.006266 0.000000 0.032316
#
#
# Mechanical properties :
#
#
# Convention : Reuss Voigt Hill
#
# Bulk Modulus (GPa) = 37.13464 65.28242 51.20853
# Shear Modulus (GPa) = 23.06212 37.59463 30.32837
#
# Velocity S-wave (km/s) = 3.12419 3.98887 3.58271
# Velocity P-wave (km/s) = 5.36008 6.98886 6.22795
#
# Compressibility (1/GPa) = 0.02692903
#
# Stress axis : x y z
#
# Youngs Moduli (GPa) = 39.91649 168.89081 31.19648
#
# Poissons Ratio (x) = 0.40194 0.38192
# Poissons Ratio (y) = 0.09500 0.10692
# Poissons Ratio (z) = 0.48867 0.57887
#
# Static dielectric constant tensor:
#      x y z
#    x 2.291740 0.000000 0.110790 
#    y 0.000000 1.924710 0.000000 
#    z 0.110790 0.000000 2.137080 
# 
# From -- ./inp_files/81189.got.cif
#   From: 2010.05.17/outbox.cif.g08.bks.cpg/sg15_41_cif.got.tgz:81189.got - 2010.06.03 18:47:42.
