data_PCOD9286814
_publ_section_title
;
Structure prediction by ZEFSAII (Michael W. Deem and Ramdas Pophale) SiO2 
 PCOD9286814
Probable space group: C 2/C
;
_chemical_formula_sum "Si O2"
_cell_formula_units_Z 44
_cell_length_a 24.993491
_cell_length_b 6.543370
_cell_length_c 12.766249
_cell_angle_alpha 90.000000
_cell_angle_beta 88.858270
_cell_angle_gamma 90.000000
_cell_volume 2087.399039
_symmetry_space_group_name_H-M "C 2/C"
_symmetry_group_IT_number 15
_symmetry_cell_setting 'monoclinic'
loop_
_space_group_symop_operation_xyz
x,y,z
-x,y,1/2-z
-x,-y,-z
x,-y,1/2+z
1/2+x,1/2+y,z
1/2-x,1/2+y,1/2-z
1/2-x,1/2-y,-z
1/2+x,1/2-y,1/2+z
loop_
_atom_site_type_symbol
_atom_site_label
_atom_site_fract_x
_atom_site_fract_y
_atom_site_fract_z
Si Si1 0.468582 0.588367 0.403355
Si Si2 0.419803 0.223333 0.269996
Si Si3 0.881254 0.693833 0.043951
Si Si4 0.321124 0.837199 0.917944
Si Si5 0.000000 0.386869 0.250000
Si Si6 0.780260 0.945057 0.047924
O O1 0.500000 0.500000 0.500000
O O2 0.447528 0.420288 0.321094
O O3 0.416154 0.703793 0.450590
O O4 0.511323 0.735482 0.344957
O O5 0.418365 0.189841 0.145011
O O6 0.361608 0.204917 0.322960
O O7 0.454976 0.029445 0.299734
O O8 0.834400 0.845259 0.086088
O O9 0.852974 0.486235 0.000191
O O10 0.266862 0.951204 0.883163
O O11 0.300975 0.626019 0.970632
O O12 0.750000 0.750000 0.000000
#
# Coordination Sequence:
#
# PCOD9286814 Si02
#       6
#     8   8   8   8   4   8
#     4  12  26  45  68  97 138 181 229 293 345 413
#     4  12  26  43  69 104 129 186 232 275 354 413
#     4  11  23  43  68  97 138 179 226 285 342 406
#     4  10  21  44  69  98 139 177 223 285 342 408
#     4  12  26  44  66  98 134 172 236 276 348 414
#     4   9  20  43  70  98 138 178 220 282 342 402
#
# _framework density 21.078863999999999
#
# number of rings (size 3 to 8) (size 9 to 14) (size 15 to 20)
#    0.000    1.091    3.636    2.727    2.545    2.909 
#    9.818    0.000    0.000    0.000    0.000    0.000 
#    0.000    0.000    0.000    0.000    0.000    0.000 
#
# Total GULP energy -122535.002463 kJ/mol
# GULP energy per Si atom -5569.772839 kJ/mol
# Density = 2.103089 g / cm^3
# Si number density = 21.078864 Si / 1000 Ang^3
#
#
#
# Elastic Constant Matrix: (Units=GPa)
#
#
# Indices 1 2 3 4 5 6 
#
# 1 76.1595 34.2460 12.5367 0.0000 -27.1050 0.0000
# 2 34.2460 121.7439 45.4566 0.0000 -9.0780 0.0000
# 3 12.5367 45.4566 74.6189 0.0000 -11.6461 0.0000
# 4 0.0000 0.0000 0.0000 32.3933 0.0000 -12.4188
# 5 -27.1050 -9.0780 -11.6461 0.0000 39.9386 0.0000
# 6 0.0000 0.0000 0.0000 -12.4188 0.0000 35.1820
#
#
#
# Elastic Compliance Matrix: (Units=1/GPa)
#
#
# Indices 1 2 3 4 5 6 
#
# 1 0.019744 -0.005317 0.001912 0.000000 0.012748 0.000000
# 2 -0.005317 0.012076 -0.006912 0.000000 -0.002879 0.000000
# 3 0.001912 -0.006912 0.018071 0.000000 0.004996 0.000000
# 4 0.000000 0.000000 0.000000 0.035702 0.000000 0.012602
# 5 0.012748 -0.002879 0.004996 0.000000 0.034492 0.000000
# 6 0.000000 0.000000 0.000000 0.012602 0.000000 0.032872
#
#
# Mechanical properties :
#
#
# Convention : Reuss Voigt Hill
#
# Bulk Modulus (GPa) = 34.18269 50.77787 42.48028
# Shear Modulus (GPa) = 27.27113 33.52166 30.39639
#
# Velocity S-wave (km/s) = 3.60080 3.99218 3.80153
# Velocity P-wave (km/s) = 5.79132 6.73734 6.28217
#
# Compressibility (1/GPa) = 0.02925457
#
# Stress axis : x y z
#
# Youngs Moduli (GPa) = 50.64956 82.80983 55.33749
#
# Poissons Ratio (x) = 0.44029 -0.10578
# Poissons Ratio (y) = 0.26930 0.38252
# Poissons Ratio (z) = -0.09682 0.57242
#
# Static dielectric constant tensor:
#      x y z
#    x 1.798890 0.000000 -0.009640 
#    y 0.000000 1.811360 0.000000 
#    z -0.009640 0.000000 1.754250 
# 
# From -- ./inp_files/125003.got.cif
#   From: 2010.05.17/outbox.cif.g08.bks.cpg/sg15_63_cif.got.tgz:125003.got - 2010.06.03 18:47:42.
