data_PCOD9286533
_publ_section_title
;
Structure prediction by ZEFSAII (Michael W. Deem and Ramdas Pophale) SiO2 
 PCOD9286533
Probable space group: C 2/C
;
_chemical_formula_sum "Si O2"
_cell_formula_units_Z 52
_cell_length_a 8.889648
_cell_length_b 27.853244
_cell_length_c 9.805157
_cell_angle_alpha 90.000000
_cell_angle_beta 62.350779
_cell_angle_gamma 90.000000
_cell_volume 2150.567855
_symmetry_space_group_name_H-M "C 2/C"
_symmetry_group_IT_number 15
_symmetry_cell_setting 'monoclinic'
loop_
_space_group_symop_operation_xyz
x,y,z
-x,y,1/2-z
-x,-y,-z
x,-y,1/2+z
1/2+x,1/2+y,z
1/2-x,1/2+y,1/2-z
1/2-x,1/2-y,-z
1/2+x,1/2-y,1/2+z
loop_
_atom_site_type_symbol
_atom_site_label
_atom_site_fract_x
_atom_site_fract_y
_atom_site_fract_z
Si Si1 0.362614 0.157579 0.421108
Si Si2 0.863520 0.135839 0.534920
Si Si3 0.121092 0.445993 0.078091
Si Si4 0.500000 0.412485 0.250000
Si Si5 0.369163 0.292521 0.658571
Si Si6 0.600034 0.799990 0.020578
Si Si7 0.327337 0.948665 0.984249
O O1 0.500000 0.168633 0.250000
O O2 0.222303 0.197410 0.448482
O O3 0.457279 0.163397 0.524073
O O4 0.312326 0.102474 0.415846
O O5 0.781166 0.088760 0.502144
O O6 0.711807 0.175387 0.591271
O O7 0.933610 0.120792 0.653671
O O8 0.014947 0.159881 0.387121
O O9 0.000000 0.428008 0.250000
O O10 0.004131 0.447031 0.993006
O O11 0.173676 0.500715 0.091155
O O12 0.660754 0.445678 0.147953
O O13 0.494601 0.247488 0.599182
O O14 0.233402 0.290244 0.839083
#
# Coordination Sequence:
#
# PCOD9286533 Si02
#       7
#     8   8   8   4   8   8   8
#     4  10  21  43  71 105 146 187 236 295 363 435
#     4  12  25  46  70 104 146 187 241 297 362 430
#     4  11  24  44  72 102 141 193 237 294 359 432
#     4  12  26  46  70 108 144 188 246 302 364 428
#     4  11  25  46  74 109 145 189 247 301 369 435
#     4  11  25  47  74 108 142 195 240 306 367 435
#     4  11  23  46  68 106 143 187 240 290 362 431
#
# _framework density 24.179659999999998
#
# number of rings (size 3 to 8) (size 9 to 14) (size 15 to 20)
#    0.000    0.923    4.615    1.846    0.000    3.077 
#    6.923    0.000    0.000    0.000    0.000    0.000 
#    0.000    0.000    0.000    0.000    0.000    0.000 
#
# Total GULP energy -145278.957432 kJ/mol
# GULP energy per Si atom -5587.652209 kJ/mol
# Density = 2.412463 g / cm^3
# Si number density = 24.179660 Si / 1000 Ang^3
#
#
#
# Elastic Constant Matrix: (Units=GPa)
#
#
# Indices 1 2 3 4 5 6 
#
# 1 122.6215 63.7806 29.0801 0.0000 -2.3551 0.0000
# 2 63.7806 161.5857 33.5071 0.0000 -17.4415 0.0000
# 3 29.0801 33.5071 82.2572 0.0000 -21.0169 0.0000
# 4 0.0000 0.0000 0.0000 24.3242 0.0000 -6.3729
# 5 -2.3551 -17.4415 -21.0169 0.0000 28.0717 0.0000
# 6 0.0000 0.0000 0.0000 -6.3729 0.0000 28.6115
#
#
#
# Elastic Compliance Matrix: (Units=1/GPa)
#
#
# Indices 1 2 3 4 5 6 
#
# 1 0.010979 -0.004098 -0.003249 0.000000 -0.004057 0.000000
# 2 -0.004098 0.008452 -0.000915 0.000000 0.004222 0.000000
# 3 -0.003249 -0.000915 0.016648 0.000000 0.011623 0.000000
# 4 0.000000 0.000000 0.000000 0.043659 0.000000 0.009725
# 5 -0.004057 0.004222 0.011623 0.000000 0.046608 0.000000
# 6 0.000000 0.000000 0.000000 0.009725 0.000000 0.037117
#
#
# Mechanical properties :
#
#
# Convention : Reuss Voigt Hill
#
# Bulk Modulus (GPa) = 51.13803 68.79999 59.96901
# Shear Modulus (GPa) = 26.80887 32.20794 29.50840
#
# Velocity S-wave (km/s) = 3.33338 3.65365 3.49719
# Velocity P-wave (km/s) = 6.00086 6.80546 6.41579
#
# Compressibility (1/GPa) = 0.01955492
#
# Stress axis : x y z
#
# Youngs Moduli (GPa) = 91.08095 118.31895 60.06708
#
# Poissons Ratio (x) = 0.48487 0.19515
# Poissons Ratio (y) = 0.37325 0.05498
# Poissons Ratio (z) = 0.29591 0.10829
#
# Static dielectric constant tensor:
#      x y z
#    x 2.048180 0.000000 0.013680 
#    y 0.000000 1.921890 0.000000 
#    z 0.013680 0.000000 1.965320 
# 
# From -- ./inp_files/81156.got.cif
#   From: 2010.05.17/outbox.cif.g08.bks.cpg/sg15_41_cif.got.tgz:81156.got - 2010.06.03 18:47:42.
