data_PCOD9286276
_publ_section_title
;
Structure prediction by ZEFSAII (Michael W. Deem and Ramdas Pophale) SiO2 
 PCOD9286276
Probable space group: C 2/C
;
_chemical_formula_sum "Si O2"
_cell_formula_units_Z 60
_cell_length_a 13.957721
_cell_length_b 13.796244
_cell_length_c 13.759749
_cell_angle_alpha 90.000000
_cell_angle_beta 83.100530
_cell_angle_gamma 90.000000
_cell_volume 2630.446572
_symmetry_space_group_name_H-M "C 2/C"
_symmetry_group_IT_number 15
_symmetry_cell_setting 'monoclinic'
loop_
_space_group_symop_operation_xyz
x,y,z
-x,y,1/2-z
-x,-y,-z
x,-y,1/2+z
1/2+x,1/2+y,z
1/2-x,1/2+y,1/2-z
1/2-x,1/2-y,-z
1/2+x,1/2-y,1/2+z
loop_
_atom_site_type_symbol
_atom_site_label
_atom_site_fract_x
_atom_site_fract_y
_atom_site_fract_z
Si Si1 0.317149 0.330368 0.779847
Si Si2 0.500000 0.188009 0.750000
Si Si3 0.511936 0.832166 0.853150
Si Si4 0.058977 0.465403 0.397279
Si Si5 0.655509 0.187696 0.989412
Si Si6 0.678739 0.280156 0.420072
Si Si7 0.902010 0.117290 0.078055
Si Si8 0.119632 0.048860 0.050737
O O1 0.409895 0.259710 0.772907
O O2 0.231459 0.255608 0.815371
O O3 0.327171 0.385686 0.676530
O O4 0.322497 0.409543 0.865051
O O5 0.495940 0.114262 0.659757
O O6 0.500000 0.783678 0.750000
O O7 0.577993 0.775516 0.921799
O O8 0.565472 0.935916 0.835784
O O9 0.404414 0.841950 0.908396
O O10 0.153896 0.408305 0.422923
O O11 0.000000 0.500000 0.500000
O O12 0.591277 0.269320 0.943821
O O13 0.750000 0.250000 0.000000
O O14 0.750000 0.250000 0.500000
O O15 0.651431 0.389445 0.451367
O O16 0.007098 0.072515 0.087797
O O17 0.869426 0.060890 0.985129
#
# Coordination Sequence:
#
# PCOD9286276 Si02
#       8
#     8   4   8   8   8   8   8   8
#     4  11  22  40  70  97 132 177 243 286 356 428
#     4  12  20  42  72  96 128 180 236 294 334 436
#     4  11  24  45  67 101 147 185 242 295 365 437
#     4  10  23  41  69 100 135 182 229 289 361 415
#     4  11  24  43  68  96 142 185 227 297 359 426
#     4  10  24  43  69  98 137 186 236 301 363 435
#     4  11  21  41  68  94 136 175 235 283 356 426
#     4  10  21  43  65  98 132 181 226 296 354 424
#
# _framework density 22.809816000000001
#
# number of rings (size 3 to 8) (size 9 to 14) (size 15 to 20)
#    0.000    1.333    4.667    0.000    7.467    2.133 
#    7.200    0.000    0.000    0.000    0.000    0.000 
#    0.000    0.000    0.000    0.000    0.000    0.000 
#
# Total GULP energy -167249.433293 kJ/mol
# GULP energy per Si atom -5574.981110 kJ/mol
# Density = 2.275790 g / cm^3
# Si number density = 22.809816 Si / 1000 Ang^3
#
#
#
# Elastic Constant Matrix: (Units=GPa)
#
#
# Indices 1 2 3 4 5 6 
#
# 1 91.4549 8.6519 17.0903 0.0000 -4.8804 0.0000
# 2 8.6519 80.1545 21.9011 0.0000 3.7904 0.0000
# 3 17.0903 21.9011 103.3697 0.0000 -7.0506 0.0000
# 4 0.0000 0.0000 0.0000 43.3495 0.0000 4.2266
# 5 -4.8804 3.7904 -7.0506 0.0000 35.6915 0.0000
# 6 0.0000 0.0000 0.0000 4.2266 0.0000 29.5370
#
#
#
# Elastic Compliance Matrix: (Units=1/GPa)
#
#
# Indices 1 2 3 4 5 6 
#
# 1 0.011387 -0.000852 -0.001612 0.000000 0.001329 0.000000
# 2 -0.000852 0.013447 -0.002852 0.000000 -0.002108 0.000000
# 3 -0.001612 -0.002852 0.010694 0.000000 0.002195 0.000000
# 4 0.000000 0.000000 0.000000 0.023395 0.000000 -0.003348
# 5 0.001329 -0.002108 0.002195 0.000000 0.028857 0.000000
# 6 0.000000 0.000000 0.000000 -0.003348 0.000000 0.034335
#
#
# Mechanical properties :
#
#
# Convention : Reuss Voigt Hill
#
# Bulk Modulus (GPa) = 40.16398 41.14062 40.65230
# Shear Modulus (GPa) = 35.44982 36.87132 36.16057
#
# Velocity S-wave (km/s) = 3.94654 4.02489 3.98591
# Velocity P-wave (km/s) = 6.19785 6.29883 6.24854
#
# Compressibility (1/GPa) = 0.02489793
#
# Stress axis : x y z
#
# Youngs Moduli (GPa) = 87.81945 74.36738 93.50668
#
# Poissons Ratio (x) = 0.06333 0.15069
# Poissons Ratio (y) = 0.07479 0.26668
# Poissons Ratio (z) = 0.14152 0.21209
#
# Static dielectric constant tensor:
#      x y z
#    x 1.943560 0.000000 0.039800 
#    y 0.000000 1.838570 0.000000 
#    z 0.039800 0.000000 2.011050 
# 
# From -- ./inp_files/153943.got.cif
#   From: 2010.05.17/outbox.cif.g08.bks.cpg/sg15_77_cif.got.tgz:153943.got - 2010.06.03 18:47:42.
