data_PCOD9286021
_publ_section_title
;
Structure prediction by ZEFSAII (Michael W. Deem and Ramdas Pophale) SiO2 
 PCOD9286021
Probable space group: C 2/C
;
_chemical_formula_sum "Si O2"
_cell_formula_units_Z 56
_cell_length_a 18.452883
_cell_length_b 22.938975
_cell_length_c 10.860473
_cell_angle_alpha 90.000000
_cell_angle_beta 32.211044
_cell_angle_gamma 90.000000
_cell_volume 2450.452374
_symmetry_space_group_name_H-M "C 2/C"
_symmetry_group_IT_number 15
_symmetry_cell_setting 'monoclinic'
loop_
_space_group_symop_operation_xyz
x,y,z
-x,y,1/2-z
-x,-y,-z
x,-y,1/2+z
1/2+x,1/2+y,z
1/2-x,1/2+y,1/2-z
1/2-x,1/2-y,-z
1/2+x,1/2-y,1/2+z
loop_
_atom_site_type_symbol
_atom_site_label
_atom_site_fract_x
_atom_site_fract_y
_atom_site_fract_z
Si Si1 0.267521 0.216666 0.107029
Si Si2 0.345695 0.471302 0.518434
Si Si3 0.317061 0.630654 0.875020
Si Si4 0.500000 0.121299 0.750000
Si Si5 0.797476 0.416863 0.345971
Si Si6 0.500000 0.723215 0.750000
Si Si7 0.164487 0.686697 0.894249
Si Si8 0.585002 0.610528 0.355994
O O1 0.283327 0.268390 0.182200
O O2 0.137462 0.175022 0.312276
O O3 0.250000 0.250000 0.000000
O O4 0.384284 0.168196 0.953786
O O5 0.500000 0.486059 0.250000
O O6 0.292210 0.424682 0.495862
O O7 0.244076 0.525324 0.666600
O O8 0.360648 0.437854 0.626015
O O9 0.385302 0.679895 0.862883
O O10 0.191325 0.657299 0.985758
O O11 0.424456 0.612062 0.612780
O O12 0.578009 0.080995 0.736349
O O13 0.839981 0.363375 0.199267
O O14 0.658533 0.402224 0.621540
O O15 0.542224 0.768456 0.582836
#
# Coordination Sequence:
#
# PCOD9286021 Si02
#       8
#     8   8   8   4   8   4   8   8
#     4  11  21  41  66 102 138 179 220 288 345 424
#     4  10  23  45  71  99 139 178 241 294 345 410
#     4  11  23  42  71 103 136 184 223 294 352 411
#     4  10  24  44  63  99 148 178 230 276 360 414
#     4  11  26  44  68 105 138 190 232 290 349 416
#     4  12  24  48  63 103 142 186 228 282 362 428
#     4  12  26  39  69 104 137 177 237 283 355 424
#     4  10  21  42  70 101 136 175 233 285 355 400
#
# _framework density 22.852923000000001
#
# number of rings (size 3 to 8) (size 9 to 14) (size 15 to 20)
#    0.000    1.143    6.429    0.429    8.000    1.143 
#    2.571    3.571    0.000    0.000    0.000    0.000 
#    0.000    0.000    0.000    0.000    0.000    0.000 
#
# Total GULP energy -156283.730758 kJ/mol
# GULP energy per Si atom -5581.561813 kJ/mol
# Density = 2.280091 g / cm^3
# Si number density = 22.852923 Si / 1000 Ang^3
#
#
#
# Elastic Constant Matrix: (Units=GPa)
#
#
# Indices 1 2 3 4 5 6 
#
# 1 50.8784 36.3029 -4.5921 -0.0031 -1.3141 0.0007
# 2 36.3029 133.7953 20.1184 -0.0018 -1.3986 0.0000
# 3 -4.5921 20.1184 38.2278 -0.0066 13.4322 -0.0012
# 4 -0.0031 -0.0018 -0.0066 4.5690 0.0014 -5.2945
# 5 -1.3141 -1.3986 13.4322 0.0014 21.3591 -0.0005
# 6 0.0007 0.0000 -0.0012 -5.2945 -0.0005 22.6731
#
#
#
# Elastic Compliance Matrix: (Units=1/GPa)
#
#
# Indices 1 2 3 4 5 6 
#
# 1 0.026587 -0.008692 0.009491 0.000040 -0.004902 0.000009
# 2 -0.008692 0.011252 -0.009033 -0.000022 0.005883 -0.000005
# 3 0.009491 -0.009033 0.041148 0.000098 -0.025884 0.000024
# 4 0.000040 -0.000022 0.000098 0.300064 -0.000079 0.070069
# 5 -0.004902 0.005883 -0.025884 -0.000079 0.063180 -0.000018
# 6 0.000009 -0.000005 0.000024 0.070069 -0.000018 0.060467
#
#
# Mechanical properties :
#
#
# Convention : Reuss Voigt Hill
#
# Bulk Modulus (GPa) = 15.99542 36.28446 26.13994
# Shear Modulus (GPa) = 9.25915 21.12506 15.19211
#
# Velocity S-wave (km/s) = 2.01505 3.04368 2.58113
# Velocity P-wave (km/s) = 3.52539 5.31637 4.51067
#
# Compressibility (1/GPa) = 0.06251791
#
# Stress axis : x y z
#
# Youngs Moduli (GPa) = 37.61275 88.87063 24.30255
#
# Poissons Ratio (x) = 0.77248 -0.23064
# Poissons Ratio (y) = 0.32694 0.21952
# Poissons Ratio (z) = -0.35697 0.80277
#
# Static dielectric constant tensor:
#      x y z
#    x 1.924340 0.000000 0.074960 
#    y 0.000000 1.842160 0.000000 
#    z 0.074960 0.000000 2.041420 
# 
# From -- ./inp_files/114717.got.cif
#   From: 2010.05.17/outbox.cif.g08.bks.cpg/sg15_58_cif.got.tgz:114717.got - 2010.06.03 18:47:42.
