data_PCOD9286755
_publ_section_title
;
Structure prediction by ZEFSAII (Michael W. Deem and Ramdas Pophale) SiO2 
 PCOD9286755
Probable space group: C 2/C
;
_chemical_formula_sum "Si O2"
_cell_formula_units_Z 36
_cell_length_a 8.111525
_cell_length_b 12.756236
_cell_length_c 15.986959
_cell_angle_alpha 90.000000
_cell_angle_beta 53.980799
_cell_angle_gamma 90.000000
_cell_volume 1337.958932
_symmetry_space_group_name_H-M "C 2/C"
_symmetry_group_IT_number 15
_symmetry_cell_setting 'monoclinic'
loop_
_space_group_symop_operation_xyz
x,y,z
-x,y,1/2-z
-x,-y,-z
x,-y,1/2+z
1/2+x,1/2+y,z
1/2-x,1/2+y,1/2-z
1/2-x,1/2-y,-z
1/2+x,1/2-y,1/2+z
loop_
_atom_site_type_symbol
_atom_site_label
_atom_site_fract_x
_atom_site_fract_y
_atom_site_fract_z
Si Si1 0.250000 0.250000 0.500000
Si Si2 0.325273 0.010671 0.242541
Si Si3 0.217470 0.882421 0.138094
Si Si4 0.030329 0.183203 0.377973
Si Si5 0.684338 0.685245 0.894419
O O1 0.220555 0.124492 0.537701
O O2 0.504667 0.240531 0.412771
O O3 0.500000 0.054550 0.250000
O O4 0.360946 0.966595 0.139234
O O5 0.256430 0.904578 0.311329
O O6 0.147517 0.094670 0.294805
O O7 0.308850 0.763173 0.123825
O O8 0.000000 0.889889 0.250000
O O9 0.877574 0.247651 0.366402
O O10 0.903286 0.138480 0.493171
#
# Coordination Sequence:
#
# PCOD9286755 Si02
#       5
#     4   8   8   8   8
#     4  10  22  42  72  96 142 200 234 310 372 426
#     4  12  23  43  71 109 145 191 251 313 376 456
#     4  11  22  43  67 102 146 188 251 309 364 454
#     4  10  23  42  72  98 143 196 237 304 388 431
#     4  10  21  44  68 100 143 189 251 304 364 464
#
# _framework density 26.906655000000001
#
# number of rings (size 3 to 8) (size 9 to 14) (size 15 to 20)
#    0.000    1.333    4.444    1.333    0.000    0.000 
#    4.000    1.111    0.000    0.000    0.000    0.000 
#    0.000    0.000    0.000    0.000    0.000    0.000 
#
# Total GULP energy -100323.626827 kJ/mol
# GULP energy per Si atom -5573.534824 kJ/mol
# Density = 2.684541 g / cm^3
# Si number density = 26.906655 Si / 1000 Ang^3
#
#
#
# Elastic Constant Matrix: (Units=GPa)
#
#
# Indices 1 2 3 4 5 6 
#
# 1 92.7037 23.1501 -5.2050 0.0001 -25.0663 -0.0002
# 2 23.1501 67.3337 18.5577 0.0000 -0.8467 -0.0001
# 3 -5.2050 18.5577 47.3407 -0.0001 -3.8251 0.0000
# 4 0.0001 0.0000 -0.0001 6.4576 0.0000 -6.6698
# 5 -25.0663 -0.8467 -3.8251 0.0000 38.3190 0.0001
# 6 -0.0002 -0.0001 0.0000 -6.6698 0.0001 29.0852
#
#
#
# Elastic Compliance Matrix: (Units=1/GPa)
#
#
# Indices 1 2 3 4 5 6 
#
# 1 0.015600 -0.006658 0.005179 0.000000 0.010574 0.000000
# 2 -0.006658 0.019495 -0.008762 0.000000 -0.004799 0.000000
# 3 0.005179 -0.008762 0.025592 0.000001 0.005749 0.000000
# 4 0.000000 0.000000 0.000001 0.202917 0.000000 0.046533
# 5 0.010574 -0.004799 0.005749 0.000000 0.033482 0.000000
# 6 0.000000 0.000000 0.000000 0.046533 0.000000 0.045053
#
#
# Mechanical properties :
#
#
# Convention : Reuss Voigt Hill
#
# Bulk Modulus (GPa) = 24.87175 31.15375 28.01275
# Shear Modulus (GPa) = 13.29715 26.16406 19.73060
#
# Velocity S-wave (km/s) = 2.22546 3.12172 2.71089
# Velocity P-wave (km/s) = 3.98339 4.95954 4.49802
#
# Compressibility (1/GPa) = 0.04020625
#
# Stress axis : x y z
#
# Youngs Moduli (GPa) = 64.10365 51.29530 39.07448
#
# Poissons Ratio (x) = 0.34152 -0.20239
# Poissons Ratio (y) = 0.42680 0.34237
# Poissons Ratio (z) = -0.33202 0.44944
#
# Static dielectric constant tensor:
#      x y z
#    x 1.535660 0.000000 -0.724240 
#    y 0.000000 2.019190 0.000000 
#    z -0.724240 0.000000 1.458770 
# 
# From -- ./inp_files/188654.got.cif
#   From: 2010.05.17/outbox.cif.g08.bks.cpg/sg15_95_cif.got.tgz:188654.got - 2010.06.03 18:47:42.
