data_PCOD9286664
_publ_section_title
;
Structure prediction by ZEFSAII (Michael W. Deem and Ramdas Pophale) SiO2 
 PCOD9286664
Probable space group: C 2/C
;
_chemical_formula_sum "Si O2"
_cell_formula_units_Z 40
_cell_length_a 12.161135
_cell_length_b 25.139610
_cell_length_c 9.775552
_cell_angle_alpha 90.000000
_cell_angle_beta 143.452155
_cell_angle_gamma 90.000000
_cell_volume 1779.718073
_symmetry_space_group_name_H-M "C 2/C"
_symmetry_group_IT_number 15
_symmetry_cell_setting 'monoclinic'
loop_
_space_group_symop_operation_xyz
x,y,z
-x,y,1/2-z
-x,-y,-z
x,-y,1/2+z
1/2+x,1/2+y,z
1/2-x,1/2+y,1/2-z
1/2-x,1/2-y,-z
1/2+x,1/2-y,1/2+z
loop_
_atom_site_type_symbol
_atom_site_label
_atom_site_fract_x
_atom_site_fract_y
_atom_site_fract_z
Si Si1 0.984391 0.438406 0.999271
Si Si2 0.500000 0.866601 0.250000
Si Si3 0.678721 0.301625 0.508130
Si Si4 0.500000 0.120847 0.250000
Si Si5 0.882956 0.172753 0.256526
Si Si6 0.055530 0.947443 0.648450
O O1 0.767881 0.436266 0.819326
O O2 0.062420 0.414860 0.937493
O O3 0.081571 0.406673 0.217490
O O4 0.000000 0.500000 0.000000
O O5 0.672494 0.836140 0.490595
O O6 0.750000 0.250000 0.500000
O O7 0.630403 0.293515 0.618146
O O8 0.840592 0.344003 0.656149
O O9 0.500000 0.321802 0.250000
O O10 0.992269 0.116918 0.404629
O O11 0.000000 0.197268 0.250000
O O12 0.000000 0.961943 0.750000
O O13 0.000000 0.000000 0.500000
#
# Coordination Sequence:
#
# PCOD9286664 Si02
#       6
#     8   4   8   4   8   8
#     4  11  25  39  69 101 147 203 240 301 364 438
#     4  10  21  44  64  98 150 186 244 293 360 438
#     4  12  27  49  82 108 144 190 253 318 380 446
#     4  12  25  50  70 112 148 192 254 301 378 432
#     4  10  24  45  71 105 139 199 235 308 375 437
#     4  10  23  39  60  97 144 187 247 289 352 431
#
# _framework density 22.475469
#
# number of rings (size 3 to 8) (size 9 to 14) (size 15 to 20)
#    0.000    1.200    5.000    0.600   14.000    0.800 
#    0.000    1.000    2.200    0.000    0.000    0.000 
#    0.000    0.000    0.000    0.000    0.000    0.000 
#
# Total GULP energy -111392.258134 kJ/mol
# GULP energy per Si atom -5569.612907 kJ/mol
# Density = 2.242431 g / cm^3
# Si number density = 22.475469 Si / 1000 Ang^3
#
#
#
# Elastic Constant Matrix: (Units=GPa)
#
#
# Indices 1 2 3 4 5 6 
#
# 1 157.4598 20.7790 24.4764 0.0000 -39.8479 0.0000
# 2 20.7790 49.5776 0.2603 0.0000 -19.4196 0.0000
# 3 24.4764 0.2603 75.3827 0.0000 -14.4231 0.0000
# 4 0.0000 0.0000 0.0000 5.1192 0.0000 -18.9100
# 5 -39.8479 -19.4196 -14.4231 0.0000 59.4526 0.0000
# 6 0.0000 0.0000 0.0000 -18.9100 0.0000 35.4403
#
#
#
# Elastic Compliance Matrix: (Units=1/GPa)
#
#
# Indices 1 2 3 4 5 6 
#
# 1 0.007940 -0.001604 -0.001735 0.000000 0.004377 0.000000
# 2 -0.001604 0.023602 0.001792 0.000000 0.007069 0.000000
# 3 -0.001735 0.001792 0.014380 0.000000 0.002911 0.000000
# 4 0.000000 0.000000 0.000000 -0.201182 0.000000 -0.107345
# 5 0.004377 0.007069 0.002911 0.000000 0.022769 0.000000
# 6 0.000000 0.000000 0.000000 -0.107345 0.000000 -0.029060
#
#
# Mechanical properties :
#
#
# Convention : Reuss Voigt Hill
#
# Bulk Modulus (GPa) = 23.34977 41.49460 32.42219
# Shear Modulus (GPa) = -34.67874 35.79604 0.55865
#
# Velocity S-wave (km/s) = -3.93231 3.99516 0.49910
# Velocity P-wave (km/s) = 3.19467 6.30745 3.84565
#
# Compressibility (1/GPa) = 0.04282698
#
# Stress axis : x y z
#
# Youngs Moduli (GPa) = 125.94707 42.36878 69.54208
#
# Poissons Ratio (x) = 0.06797 0.12066
# Poissons Ratio (y) = 0.20205 -0.12461
# Poissons Ratio (z) = 0.21853 -0.07592
#
# Static dielectric constant tensor:
#      x y z
#    x -2.851970 0.000000 3.564960 
#    y 0.000000 1.812140 0.000000 
#    z 3.564960 0.000000 -0.718590 
# 
# From -- ./inp_files/35473.got.cif
#   From: 2010.05.17/outbox.cif.g08.bks.cpg/sg15_18_cif.got.tgz:35473.got - 2010.06.03 18:47:42.
