data_PCOD9286964
_publ_section_title
;
Structure prediction by ZEFSAII (Michael W. Deem and Ramdas Pophale) SiO2 
 PCOD9286964
Probable space group: C 2/C
;
_chemical_formula_sum "Si O2"
_cell_formula_units_Z 44
_cell_length_a 17.201321
_cell_length_b 8.008552
_cell_length_c 13.584723
_cell_angle_alpha 90.000000
_cell_angle_beta 57.123868
_cell_angle_gamma 90.000000
_cell_volume 1571.687790
_symmetry_space_group_name_H-M "C 2/C"
_symmetry_group_IT_number 15
_symmetry_cell_setting 'monoclinic'
loop_
_space_group_symop_operation_xyz
x,y,z
-x,y,1/2-z
-x,-y,-z
x,-y,1/2+z
1/2+x,1/2+y,z
1/2-x,1/2+y,1/2-z
1/2-x,1/2-y,-z
1/2+x,1/2-y,1/2+z
loop_
_atom_site_type_symbol
_atom_site_label
_atom_site_fract_x
_atom_site_fract_y
_atom_site_fract_z
Si Si1 0.424163 0.431060 0.197349
Si Si2 0.000000 0.753394 0.750000
Si Si3 0.117907 0.393855 0.292969
Si Si4 0.194817 0.526005 0.529184
Si Si5 0.202174 0.278279 0.829796
Si Si6 0.122682 0.821993 0.063304
O O1 0.428036 0.602047 0.257389
O O2 0.352561 0.389581 0.161390
O O3 0.526807 0.391936 0.088184
O O4 0.395907 0.306965 0.305918
O O5 0.009814 0.651659 0.849165
O O6 0.139309 0.410080 0.161062
O O7 0.145516 0.568963 0.321142
O O8 0.193996 0.261165 0.279626
O O9 0.208092 0.667586 0.438920
O O10 0.145599 0.364375 0.514509
O O11 0.290283 0.444428 0.503408
#
# Coordination Sequence:
#
# PCOD9286964 Si02
#       6
#     8   4   8   8   8   8
#     4  10  21  45  68  95 135 180 223 276 340 398
#     4  10  24  44  72  92 140 184 224 272 350 390
#     4  12  26  45  68 103 135 182 224 282 336 405
#     4  11  23  41  68 101 139 174 229 274 343 396
#     4  12  25  41  70  99 136 176 233 276 337 401
#     4   9  20  41  69  94 132 182 216 281 332 400
#
# _framework density 27.995380000000001
#
# number of rings (size 3 to 8) (size 9 to 14) (size 15 to 20)
#    0.000    1.455    1.818    4.909    5.091    0.727 
#    0.000    1.818    0.000    0.000    0.000    0.000 
#    0.000    0.000    0.000    0.000    0.000    0.000 
#
# Total GULP energy -122823.817589 kJ/mol
# GULP energy per Si atom -5582.900800 kJ/mol
# Density = 2.793166 g / cm^3
# Si number density = 27.995380 Si / 1000 Ang^3
#
#
#
# Elastic Constant Matrix: (Units=GPa)
#
#
# Indices 1 2 3 4 5 6 
#
# 1 151.8640 57.5562 -6.4455 0.0000 5.7944 0.0001
# 2 57.5562 129.9667 -1.0299 -0.0001 20.5059 0.0002
# 3 -6.4455 -1.0299 41.5051 0.0000 18.7420 0.0000
# 4 0.0000 -0.0001 0.0000 116.7633 0.0000 -206.0869
# 5 5.7944 20.5059 18.7420 0.0000 45.1198 0.0000
# 6 0.0001 0.0002 0.0000 -206.0869 0.0000 658.8093
#
#
#
# Elastic Compliance Matrix: (Units=1/GPa)
#
#
# Indices 1 2 3 4 5 6 
#
# 1 0.007968 -0.003541 0.001089 0.000000 0.000134 0.000000
# 2 -0.003541 0.010052 0.001917 0.000000 -0.004910 0.000000
# 3 0.001089 0.001917 0.030485 0.000000 -0.013674 0.000000
# 4 0.000000 0.000000 0.000000 0.019122 0.000000 0.005982
# 5 0.000134 -0.004910 -0.013674 0.000000 0.030057 0.000000
# 6 0.000000 0.000000 0.000000 0.005982 0.000000 0.003389
#
#
# Mechanical properties :
#
#
# Convention : Reuss Voigt Hill
#
# Bulk Modulus (GPa) = 21.08176 47.05524 34.06850
# Shear Modulus (GPa) = 42.38886 182.35550 112.37218
#
# Velocity S-wave (km/s) = 3.89541 8.07955 6.34245
# Velocity P-wave (km/s) = 5.27059 10.19233 8.11365
#
# Compressibility (1/GPa) = 0.04743438
#
# Stress axis : x y z
#
# Youngs Moduli (GPa) = 125.50115 99.47919 32.80342
#
# Poissons Ratio (x) = 0.35227 -0.03573
# Poissons Ratio (y) = 0.44442 -0.06287
# Poissons Ratio (z) = -0.13669 -0.19067
#
# Static dielectric constant tensor:
#      x y z
#    x -4.509140 0.000000 2.939820 
#    y 0.000000 2.364570 0.000000 
#    z 2.939820 0.000000 0.846350 
# 
# From -- ./inp_files/159656.got.cif
#   From: 2010.05.17/outbox.cif.g08.bks.cpg/sg15_80_cif.got.tgz:159656.got - 2010.06.03 18:47:42.
