data_PCOD9286029
_publ_section_title
;
Structure prediction by ZEFSAII (Michael W. Deem and Ramdas Pophale) SiO2 
 PCOD9286029
Probable space group: C 2/C
;
_chemical_formula_sum "Si O2"
_cell_formula_units_Z 40
_cell_length_a 22.578818
_cell_length_b 13.330881
_cell_length_c 11.640747
_cell_angle_alpha 90.000000
_cell_angle_beta 26.680479
_cell_angle_gamma 90.000000
_cell_volume 1573.263125
_symmetry_space_group_name_H-M "C 2/C"
_symmetry_group_IT_number 15
_symmetry_cell_setting 'monoclinic'
loop_
_space_group_symop_operation_xyz
x,y,z
-x,y,1/2-z
-x,-y,-z
x,-y,1/2+z
1/2+x,1/2+y,z
1/2-x,1/2+y,1/2-z
1/2-x,1/2-y,-z
1/2+x,1/2-y,1/2+z
loop_
_atom_site_type_symbol
_atom_site_label
_atom_site_fract_x
_atom_site_fract_y
_atom_site_fract_z
Si Si1 0.548473 0.799035 0.433477
Si Si2 0.220012 0.277875 0.354682
Si Si3 0.245836 0.389101 0.537880
Si Si4 0.374465 0.431992 0.731082
Si Si5 0.361715 0.130258 0.959862
O O1 0.613041 0.811466 0.447089
O O2 0.407325 0.856606 0.674747
O O3 0.567322 0.681062 0.368695
O O4 0.631888 0.845167 0.185080
O O5 0.262970 0.357792 0.374898
O O6 0.174335 0.185898 0.517169
O O7 0.339641 0.230651 0.072274
O O8 0.292784 0.502950 0.468498
O O9 0.500000 0.500000 0.500000
O O10 0.273454 0.429340 0.797602
O O11 0.500000 0.080472 0.750000
#
# Coordination Sequence:
#
# PCOD9286029 Si02
#       5
#     8   8   8   8   8
#     4  11  24  49  74 103 152 196 248 310 388 447
#     4  10  21  42  70 104 142 195 240 307 386 450
#     4  11  23  43  76 107 146 195 252 309 387 449
#     4  11  25  44  69 112 145 187 259 304 366 465
#     4  11  24  48  74 102 151 199 245 311 382 454
#
# _framework density 25.424862999999998
#
# number of rings (size 3 to 8) (size 9 to 14) (size 15 to 20)
#    0.000    1.200    2.000    5.400    0.000    4.000 
#   14.400    0.000    0.000    0.000    0.000    0.000 
#    0.000    0.000    0.000    0.000    0.000    0.000 
#
# Total GULP energy -111520.653372 kJ/mol
# GULP energy per Si atom -5576.032669 kJ/mol
# Density = 2.536700 g / cm^3
# Si number density = 25.424863 Si / 1000 Ang^3
#
#
#
# Elastic Constant Matrix: (Units=GPa)
#
#
# Indices 1 2 3 4 5 6 
#
# 1 134.0232 10.8861 45.8626 0.0000 5.5766 0.0000
# 2 10.8861 102.0769 46.4392 0.0000 -2.4915 0.0000
# 3 45.8626 46.4392 115.0538 0.0000 -7.6540 0.0000
# 4 0.0000 0.0000 0.0000 44.6588 0.0000 -2.7280
# 5 5.5766 -2.4915 -7.6540 0.0000 58.9137 0.0000
# 6 0.0000 0.0000 0.0000 -2.7280 0.0000 21.4538
#
#
#
# Elastic Compliance Matrix: (Units=1/GPa)
#
#
# Indices 1 2 3 4 5 6 
#
# 1 0.008791 0.000814 -0.003920 0.000000 -0.001307 0.000000
# 2 0.000814 0.012076 -0.005215 0.000000 -0.000244 0.000000
# 3 -0.003920 -0.005215 0.012477 0.000000 0.001771 0.000000
# 4 0.000000 0.000000 0.000000 0.022567 0.000000 0.002870
# 5 -0.001307 -0.000244 0.001771 0.000000 0.017318 0.000000
# 6 0.000000 0.000000 0.000000 0.002870 0.000000 0.046977
#
#
# Mechanical properties :
#
#
# Convention : Reuss Voigt Hill
#
# Bulk Modulus (GPa) = 59.87163 61.94777 60.90970
# Shear Modulus (GPa) = 35.10869 41.53631 38.32250
#
# Velocity S-wave (km/s) = 3.72005 4.04628 3.88659
# Velocity P-wave (km/s) = 6.48470 6.80057 6.64451
#
# Compressibility (1/GPa) = 0.01670240
#
# Stress axis : x y z
#
# Youngs Moduli (GPa) = 113.75289 82.80668 80.14867
#
# Poissons Ratio (x) = -0.06739 0.31416
# Poissons Ratio (y) = -0.09257 0.41797
# Poissons Ratio (z) = 0.44587 0.43184
#
# Static dielectric constant tensor:
#      x y z
#    x 2.026730 0.000000 -0.045880 
#    y 0.000000 2.069510 0.000000 
#    z -0.045880 0.000000 2.164170 
# 
# From -- ./inp_files/118676.got.cif
#   From: 2010.05.17/outbox.cif.g08.bks.cpg/sg15_60_cif.got.tgz:118676.got - 2010.06.03 18:47:42.
