data_PCOD9286555
_publ_section_title
;
Structure prediction by ZEFSAII (Michael W. Deem and Ramdas Pophale) SiO2 
 PCOD9286555
Probable space group: C 2/C
;
_chemical_formula_sum "Si O2"
_cell_formula_units_Z 64
_cell_length_a 26.669369
_cell_length_b 13.202514
_cell_length_c 11.617653
_cell_angle_alpha 90.000000
_cell_angle_beta 43.463588
_cell_angle_gamma 90.000000
_cell_volume 2813.901914
_symmetry_space_group_name_H-M "C 2/C"
_symmetry_group_IT_number 15
_symmetry_cell_setting 'monoclinic'
loop_
_space_group_symop_operation_xyz
x,y,z
-x,y,1/2-z
-x,-y,-z
x,-y,1/2+z
1/2+x,1/2+y,z
1/2-x,1/2+y,1/2-z
1/2-x,1/2-y,-z
1/2+x,1/2-y,1/2+z
loop_
_atom_site_type_symbol
_atom_site_label
_atom_site_fract_x
_atom_site_fract_y
_atom_site_fract_z
Si Si1 0.619133 0.686833 0.332172
Si Si2 0.033392 0.457551 0.065692
Si Si3 0.585848 0.422173 0.120691
Si Si4 0.290542 0.576431 0.502201
Si Si5 0.481047 0.713879 0.409375
Si Si6 0.337513 0.896706 0.132037
Si Si7 0.359340 0.296142 0.266047
Si Si8 0.702859 0.102466 0.055869
O O1 0.617950 0.613962 0.444732
O O2 0.681673 0.657763 0.136277
O O3 0.543440 0.678147 0.391308
O O4 0.626727 0.800906 0.364967
O O5 0.000000 0.487852 0.250000
O O6 0.024085 0.336213 0.078444
O O7 0.114917 0.503085 0.926025
O O8 0.000000 0.500000 0.000000
O O9 0.500000 0.445768 0.250000
O O10 0.638959 0.509133 0.082255
O O11 0.595031 0.329930 0.197303
O O12 0.247142 0.608779 0.688154
O O13 0.225212 0.509946 0.553656
O O14 0.500000 0.683224 0.250000
O O15 0.404994 0.670366 0.580240
O O16 0.338495 0.888511 0.994047
O O17 0.341738 0.177141 0.287708
O O18 0.282138 0.348294 0.407431
#
# Coordination Sequence:
#
# PCOD9286555 Si02
#       8
#     8   8   8   8   8   8   8   8
#     4  12  25  45  71 103 137 183 239 283 356 422
#     4  11  26  45  71 108 145 187 238 297 364 425
#     4  11  23  46  74 102 133 184 241 292 342 424
#     4  11  27  44  65 105 146 182 231 290 362 416
#     4  11  25  43  68 103 143 182 223 294 362 414
#     4  12  25  44  73  99 142 190 235 294 352 428
#     4  10  21  43  71  99 135 176 241 285 342 420
#     4  10  23  42  68 100 131 187 234 286 345 415
#
# _framework density 22.744218
#
# number of rings (size 3 to 8) (size 9 to 14) (size 15 to 20)
#    0.000    1.000    3.750    1.875    5.250    1.500 
#    2.250    0.000    0.000    0.000    0.000    0.000 
#    0.000    0.000    0.000    0.000    0.000    0.000 
#
# Total GULP energy -178739.963422 kJ/mol
# GULP energy per Si atom -5585.623857 kJ/mol
# Density = 2.269245 g / cm^3
# Si number density = 22.744218 Si / 1000 Ang^3
#
#
#
# Elastic Constant Matrix: (Units=GPa)
#
#
# Indices 1 2 3 4 5 6 
#
# 1 86.5907 12.1634 25.0284 0.0000 4.0405 0.0000
# 2 12.1634 43.1354 -4.6348 0.0000 8.7521 0.0000
# 3 25.0284 -4.6348 114.5877 0.0000 -0.2624 0.0000
# 4 0.0000 0.0000 0.0000 19.5542 0.0000 5.3668
# 5 4.0405 8.7521 -0.2624 0.0000 29.7477 0.0000
# 6 0.0000 0.0000 0.0000 5.3668 0.0000 13.2840
#
#
#
# Elastic Compliance Matrix: (Units=1/GPa)
#
#
# Indices 1 2 3 4 5 6 
#
# 1 0.012985 -0.003850 -0.002993 0.000000 -0.000657 0.000000
# 2 -0.003850 0.025907 0.001873 0.000000 -0.007083 0.000000
# 3 -0.002993 0.001873 0.009456 0.000000 -0.000061 0.000000
# 4 0.000000 0.000000 0.000000 0.057518 0.000000 -0.023237
# 5 -0.000657 -0.007083 -0.000061 0.000000 0.035789 0.000000
# 6 0.000000 0.000000 0.000000 -0.023237 0.000000 0.084667
#
#
# Mechanical properties :
#
#
# Convention : Reuss Voigt Hill
#
# Bulk Modulus (GPa) = 26.03713 34.38086 30.20900
# Shear Modulus (GPa) = 20.07509 26.63431 23.35470
#
# Velocity S-wave (km/s) = 2.97416 3.42575 3.20791
# Velocity P-wave (km/s) = 4.82357 5.54949 5.19921
#
# Compressibility (1/GPa) = 0.03840669
#
# Stress axis : x y z
#
# Youngs Moduli (GPa) = 77.01016 38.60017 105.74874
#
# Poissons Ratio (x) = 0.14860 0.31656
# Poissons Ratio (y) = 0.29648 -0.19802
# Poissons Ratio (z) = 0.23053 -0.07228
#
# Static dielectric constant tensor:
#      x y z
#    x 1.973750 0.000000 0.060110 
#    y 0.000000 1.928150 0.000000 
#    z 0.060110 0.000000 1.861370 
# 
# From -- ./inp_files/123522.got.cif
#   From: 2010.05.17/outbox.cif.g08.bks.cpg/sg15_62_cif.got.tgz:123522.got - 2010.06.03 18:47:42.
