data_PCOD9286541
_publ_section_title
;
Structure prediction by ZEFSAII (Michael W. Deem and Ramdas Pophale) SiO2 
 PCOD9286541
Probable space group: C 2/C
;
_chemical_formula_sum "Si O2"
_cell_formula_units_Z 36
_cell_length_a 15.887400
_cell_length_b 9.751013
_cell_length_c 7.911143
_cell_angle_alpha 90.000000
_cell_angle_beta 92.079497
_cell_angle_gamma 90.000000
_cell_volume 1224.773266
_symmetry_space_group_name_H-M "C 2/C"
_symmetry_group_IT_number 15
_symmetry_cell_setting 'monoclinic'
loop_
_space_group_symop_operation_xyz
x,y,z
-x,y,1/2-z
-x,-y,-z
x,-y,1/2+z
1/2+x,1/2+y,z
1/2-x,1/2+y,1/2-z
1/2-x,1/2-y,-z
1/2+x,1/2-y,1/2+z
loop_
_atom_site_type_symbol
_atom_site_label
_atom_site_fract_x
_atom_site_fract_y
_atom_site_fract_z
Si Si1 0.817656 0.881531 0.248797
Si Si2 0.584697 0.824440 0.566234
Si Si3 0.000000 0.758391 0.750000
Si Si4 0.825459 0.185023 0.372612
Si Si5 0.329498 0.950695 0.624965
O O1 0.892607 0.828415 0.371816
O O2 0.756146 0.747621 0.244750
O O3 0.844068 0.893466 0.056942
O O4 0.673052 0.841761 0.027199
O O5 0.508199 0.821284 0.429872
O O6 0.596757 0.910050 0.740687
O O7 0.651548 0.904080 0.455711
O O8 0.089956 0.832097 0.733202
O O9 0.767355 0.017134 0.309148
#
# Coordination Sequence:
#
# PCOD9286541 Si02
#       5
#     8   8   4   8   8
#     4  10  21  43  71  92 131 192 229 270 321 430
#     4  11  25  40  71  99 143 170 234 276 344 390
#     4  12  26  44  64 110 146 172 208 308 348 380
#     4  10  23  41  68 100 138 171 234 275 346 395
#     4  11  21  43  71 100 123 194 233 267 317 434
#
# _framework density 29.393194999999999
#
# number of rings (size 3 to 8) (size 9 to 14) (size 15 to 20)
#    0.000    1.333    4.444    0.667    3.111    1.778 
#    0.000    4.444    0.000    0.000    0.000    0.000 
#    0.000    0.000    0.000    0.000    0.000    0.000 
#
# Total GULP energy -100293.883946 kJ/mol
# GULP energy per Si atom -5571.882441 kJ/mol
# Density = 2.932630 g / cm^3
# Si number density = 29.393195 Si / 1000 Ang^3
#
#
#
# Elastic Constant Matrix: (Units=GPa)
#
#
# Indices 1 2 3 4 5 6 
#
# 1 133.2611 -10.7396 22.9146 0.0000 3.8642 0.0000
# 2 -10.7396 130.2467 44.3036 0.0000 -1.0133 0.0000
# 3 22.9146 44.3036 208.8688 0.0000 40.8444 0.0000
# 4 0.0000 0.0000 0.0000 57.5640 0.0000 -4.1290
# 5 3.8642 -1.0133 40.8444 0.0000 50.4360 0.0000
# 6 0.0000 0.0000 0.0000 -4.1290 0.0000 19.4481
#
#
#
# Elastic Compliance Matrix: (Units=1/GPa)
#
#
# Indices 1 2 3 4 5 6 
#
# 1 0.007773 0.001031 -0.001140 0.000000 0.000348 0.000000
# 2 0.001031 0.008565 -0.002315 0.000000 0.001968 0.000000
# 3 -0.001140 -0.002315 0.006411 0.000000 -0.005151 0.000000
# 4 0.000000 0.000000 0.000000 0.017641 0.000000 0.003745
# 5 0.000348 0.001968 -0.005151 0.000000 0.024011 0.000000
# 6 0.000000 0.000000 0.000000 0.003745 0.000000 0.052214
#
#
# Mechanical properties :
#
#
# Convention : Reuss Voigt Hill
#
# Bulk Modulus (GPa) = 55.85539 65.03706 60.44622
# Shear Modulus (GPa) = 39.23742 53.21615 46.22679
#
# Velocity S-wave (km/s) = 3.65761 4.25960 3.97004
# Velocity P-wave (km/s) = 6.07302 6.80933 6.45169
#
# Compressibility (1/GPa) = 0.01790338
#
# Stress axis : x y z
#
# Youngs Moduli (GPa) = 128.64986 116.74818 155.98259
#
# Poissons Ratio (x) = -0.12040 0.17775
# Poissons Ratio (y) = -0.13267 0.36106
# Poissons Ratio (z) = 0.14660 0.27024
#
# Static dielectric constant tensor:
#      x y z
#    x 2.579810 0.000000 -0.058100 
#    y 0.000000 2.658620 0.000000 
#    z -0.058100 0.000000 2.284950 
# 
# From -- ./inp_files/37665.got.cif
#   From: 2010.05.17/outbox.cif.g08.bks.cpg/sg15_19_cif.got.tgz:37665.got - 2010.06.03 18:47:42.
