data_PCOD9286431
_publ_section_title
;
Structure prediction by ZEFSAII (Michael W. Deem and Ramdas Pophale) SiO2 
 PCOD9286431
Probable space group: C 2/C
;
_chemical_formula_sum "Si O2"
_cell_formula_units_Z 36
_cell_length_a 18.200982
_cell_length_b 14.881936
_cell_length_c 8.678557
_cell_angle_alpha 90.000000
_cell_angle_beta 42.444638
_cell_angle_gamma 90.000000
_cell_volume 1586.451214
_symmetry_space_group_name_H-M "C 2/C"
_symmetry_group_IT_number 15
_symmetry_cell_setting 'monoclinic'
loop_
_space_group_symop_operation_xyz
x,y,z
-x,y,1/2-z
-x,-y,-z
x,-y,1/2+z
1/2+x,1/2+y,z
1/2-x,1/2+y,1/2-z
1/2-x,1/2-y,-z
1/2+x,1/2-y,1/2+z
loop_
_atom_site_type_symbol
_atom_site_label
_atom_site_fract_x
_atom_site_fract_y
_atom_site_fract_z
Si Si1 0.224366 0.691585 0.389278
Si Si2 0.349507 0.572918 0.388195
Si Si3 0.121791 0.722693 0.110115
Si Si4 0.000000 0.220676 0.250000
Si Si5 0.819269 0.890610 0.298678
O O1 0.250000 0.750000 0.500000
O O2 0.256273 0.594655 0.405726
O O3 0.098750 0.713102 0.552255
O O4 0.307536 0.727718 0.132914
O O5 0.445042 0.646778 0.218636
O O6 0.373627 0.470205 0.312513
O O7 0.320848 0.588158 0.613012
O O8 0.122339 0.798425 0.240646
O O9 0.000000 0.701227 0.250000
O O10 0.193882 0.634577 0.036655
#
# Coordination Sequence:
#
# PCOD9286431 Si02
#       5
#     8   8   8   4   8
#     4  10  21  43  68  97 130 171 217 266 328 390
#     4  11  24  42  68 100 132 169 224 270 327 387
#     4  11  25  45  69  95 135 175 219 269 331 390
#     4  10  22  40  74  94 130 170 218 268 330 378
#     4  11  25  43  64 103 132 170 224 270 325 392
#
# _framework density 22.692159
#
# number of rings (size 3 to 8) (size 9 to 14) (size 15 to 20)
#    0.000    1.333    4.444    1.333    7.778    0.889 
#    2.000    1.111    0.000    0.000    0.000    0.000 
#    0.000    0.000    0.000    0.000    0.000    0.000 
#
# Total GULP energy -100281.519618 kJ/mol
# GULP energy per Si atom -5571.195534 kJ/mol
# Density = 2.264051 g / cm^3
# Si number density = 22.692159 Si / 1000 Ang^3
#
#
#
# Elastic Constant Matrix: (Units=GPa)
#
#
# Indices 1 2 3 4 5 6 
#
# 1 103.7713 20.6279 47.0081 0.0000 -23.3026 0.0000
# 2 20.6279 51.5756 18.3780 0.0000 4.8020 0.0000
# 3 47.0081 18.3780 120.6035 0.0000 -0.9395 0.0000
# 4 0.0000 0.0000 0.0000 20.5772 0.0000 7.1610
# 5 -23.3026 4.8020 -0.9395 0.0000 53.5588 0.0000
# 6 0.0000 0.0000 0.0000 7.1610 0.0000 50.3547
#
#
#
# Elastic Compliance Matrix: (Units=1/GPa)
#
#
# Indices 1 2 3 4 5 6 
#
# 1 0.014164 -0.004568 -0.004774 0.000000 0.006489 0.000000
# 2 -0.004568 0.022169 -0.001629 0.000000 -0.004004 0.000000
# 3 -0.004774 -0.001629 0.010387 0.000000 -0.001749 0.000000
# 4 0.000000 0.000000 0.000000 0.051128 0.000000 -0.007271
# 5 0.006489 -0.004004 -0.001749 0.000000 0.021822 0.000000
# 6 0.000000 0.000000 0.000000 -0.007271 0.000000 0.020893
#
#
# Mechanical properties :
#
#
# Convention : Reuss Voigt Hill
#
# Bulk Modulus (GPa) = 40.35788 49.77537 45.06663
# Shear Modulus (GPa) = 29.27982 37.56056 33.42019
#
# Velocity S-wave (km/s) = 3.59598 4.07286 3.84182
# Velocity P-wave (km/s) = 5.92157 6.64080 6.29147
#
# Compressibility (1/GPa) = 0.02477831
#
# Stress axis : x y z
#
# Youngs Moduli (GPa) = 70.59948 45.10762 96.27304
#
# Poissons Ratio (x) = 0.20605 0.45963
# Poissons Ratio (y) = 0.32250 0.15682
# Poissons Ratio (z) = 0.33706 0.07348
#
# Static dielectric constant tensor:
#      x y z
#    x 1.998400 0.000000 -0.009330 
#    y 0.000000 2.003890 0.000000 
#    z -0.009330 0.000000 1.951760 
# 
# From -- ./inp_files/46890.got.cif
#   From: 2010.05.17/outbox.cif.g08.bks.cpg/sg15_24_cif.got.tgz:46890.got - 2010.06.03 18:47:42.
