data_PCOD9286280
_publ_section_title
;
Structure prediction by ZEFSAII (Michael W. Deem and Ramdas Pophale) SiO2 
 PCOD9286280
Probable space group: C 2/C
;
_chemical_formula_sum "Si O2"
_cell_formula_units_Z 44
_cell_length_a 19.076068
_cell_length_b 11.678059
_cell_length_c 11.171992
_cell_angle_alpha 90.000000
_cell_angle_beta 123.516789
_cell_angle_gamma 90.000000
_cell_volume 2074.973122
_symmetry_space_group_name_H-M "C 2/C"
_symmetry_group_IT_number 15
_symmetry_cell_setting 'monoclinic'
loop_
_space_group_symop_operation_xyz
x,y,z
-x,y,1/2-z
-x,-y,-z
x,-y,1/2+z
1/2+x,1/2+y,z
1/2-x,1/2+y,1/2-z
1/2-x,1/2-y,-z
1/2+x,1/2-y,1/2+z
loop_
_atom_site_type_symbol
_atom_site_label
_atom_site_fract_x
_atom_site_fract_y
_atom_site_fract_z
Si Si1 0.923104 0.769959 0.437998
Si Si2 0.000000 0.157958 0.250000
Si Si3 0.474213 0.924314 0.588273
Si Si4 0.369355 0.493275 0.775939
Si Si5 0.255504 0.836586 0.692998
Si Si6 0.207275 0.607585 0.517422
O O1 0.957652 0.768434 0.605052
O O2 0.828756 0.717602 0.343261
O O3 0.985519 0.699824 0.408827
O O4 0.914948 0.902293 0.387611
O O5 0.067920 0.078236 0.247226
O O6 0.500000 0.950631 0.750000
O O7 0.373772 0.939263 0.493957
O O8 0.500000 0.000000 0.500000
O O9 0.316534 0.409514 0.812653
O O10 0.295949 0.550830 0.628801
O O11 0.212704 0.735550 0.575918
O O12 0.305049 0.903774 0.635946
#
# Coordination Sequence:
#
# PCOD9286280 Si02
#       6
#     8   4   8   8   8   8
#     4  11  25  44  71 103 143 189 240 298 361 427
#     4  12  26  42  68 110 148 188 246 298 358 428
#     4  12  26  46  72 104 142 189 238 295 360 438
#     4  11  24  43  70 100 141 187 240 295 360 421
#     4  10  21  43  65  99 132 186 232 290 356 420
#     4  10  22  40  69  95 136 179 236 286 353 428
#
# _framework density 21.205093999999999
#
# number of rings (size 3 to 8) (size 9 to 14) (size 15 to 20)
#    0.000    1.091    1.818    3.818    2.545    0.727 
#    0.000    0.000    0.000    0.000    0.000    0.000 
#    0.000    0.000    0.000    0.000    0.000    0.000 
#
# Total GULP energy -122838.385188 kJ/mol
# GULP energy per Si atom -5583.562963 kJ/mol
# Density = 2.115683 g / cm^3
# Si number density = 21.205094 Si / 1000 Ang^3
#
#
#
# Elastic Constant Matrix: (Units=GPa)
#
#
# Indices 1 2 3 4 5 6 
#
# 1 136.7136 35.6211 33.5229 0.0000 -29.0836 0.0000
# 2 35.6211 66.4101 35.5882 0.0000 -20.4166 0.0000
# 3 33.5229 35.5882 147.5226 0.0000 -17.3614 0.0000
# 4 0.0000 0.0000 0.0000 23.4454 0.0000 -1.8212
# 5 -29.0836 -20.4166 -17.3614 0.0000 29.4630 0.0000
# 6 0.0000 0.0000 0.0000 -1.8212 0.0000 49.9195
#
#
#
# Elastic Compliance Matrix: (Units=1/GPa)
#
#
# Indices 1 2 3 4 5 6 
#
# 1 0.009734 -0.002555 -0.000723 0.000000 0.007412 0.000000
# 2 -0.002555 0.021409 -0.003369 0.000000 0.010328 0.000000
# 3 -0.000723 -0.003369 0.007948 0.000000 0.001635 0.000000
# 4 0.000000 0.000000 0.000000 0.042774 0.000000 0.001560
# 5 0.007412 0.010328 0.001635 0.000000 0.049378 0.000000
# 6 0.000000 0.000000 0.000000 0.001560 0.000000 0.020089
#
#
# Mechanical properties :
#
#
# Convention : Reuss Voigt Hill
#
# Bulk Modulus (GPa) = 38.76325 62.23453 50.49889
# Shear Modulus (GPa) = 28.86412 36.95987 32.91200
#
# Velocity S-wave (km/s) = 3.69343 4.17942 3.94392
# Velocity P-wave (km/s) = 6.04222 7.25966 6.67874
#
# Compressibility (1/GPa) = 0.02579763
#
# Stress axis : x y z
#
# Youngs Moduli (GPa) = 102.72745 46.70976 125.81687
#
# Poissons Ratio (x) = 0.11934 0.09101
# Poissons Ratio (y) = 0.26246 0.42382
# Poissons Ratio (z) = 0.07431 0.15734
#
# Static dielectric constant tensor:
#      x y z
#    x 1.770130 0.000000 0.007390 
#    y 0.000000 1.829020 0.000000 
#    z 0.007390 0.000000 1.792010 
# 
# From -- ./inp_files/47210.got.cif
#   From: 2010.05.17/outbox.cif.g08.bks.cpg/sg15_24_cif.got.tgz:47210.got - 2010.06.03 18:47:42.
