data_PCOD9286090
_publ_section_title
;
Structure prediction by ZEFSAII (Michael W. Deem and Ramdas Pophale) SiO2 
 PCOD9286090
Probable space group: C 2/C
;
_chemical_formula_sum "Si O2"
_cell_formula_units_Z 60
_cell_length_a 11.152772
_cell_length_b 15.084514
_cell_length_c 16.639041
_cell_angle_alpha 90.000000
_cell_angle_beta 64.799392
_cell_angle_gamma 90.000000
_cell_volume 2532.828860
_symmetry_space_group_name_H-M "C 2/C"
_symmetry_group_IT_number 15
_symmetry_cell_setting 'monoclinic'
loop_
_space_group_symop_operation_xyz
x,y,z
-x,y,1/2-z
-x,-y,-z
x,-y,1/2+z
1/2+x,1/2+y,z
1/2-x,1/2+y,1/2-z
1/2-x,1/2-y,-z
1/2+x,1/2-y,1/2+z
loop_
_atom_site_type_symbol
_atom_site_label
_atom_site_fract_x
_atom_site_fract_y
_atom_site_fract_z
Si Si1 0.079407 0.724794 0.370660
Si Si2 0.318600 0.289728 0.900942
Si Si3 0.362670 0.474958 0.618371
Si Si4 0.665056 0.483949 0.545256
Si Si5 0.400850 0.970496 0.705250
Si Si6 0.219195 0.396921 0.372943
Si Si7 0.500000 0.353445 0.250000
Si Si8 0.429553 0.726582 0.077728
O O1 0.235168 0.740915 0.347912
O O2 0.066279 0.624186 0.343505
O O3 0.021420 0.790469 0.321068
O O4 0.004402 0.741016 0.476100
O O5 0.304923 0.396251 0.912315
O O6 0.472485 0.269204 0.872975
O O7 0.250000 0.250000 0.000000
O O8 0.509260 0.506124 0.601809
O O9 0.320325 0.533355 0.553763
O O10 0.246460 0.467861 0.714934
O O11 0.387471 0.374727 0.580228
O O12 0.762886 0.561331 0.544320
O O13 0.500000 0.988668 0.750000
O O14 0.392200 0.048691 0.642507
O O15 0.365773 0.408889 0.295423
O O16 0.190183 0.293625 0.378206
#
# Coordination Sequence:
#
# PCOD9286090 Si02
#       8
#     8   8   8   8   8   8   4   8
#     4  11  23  44  68  96 139 180 224 280 340 408
#     4   9  20  42  67  96 127 175 228 275 328 395
#     4  10  23  45  68 100 136 178 233 277 340 403
#     4  10  21  42  71  94 130 183 229 277 320 413
#     4  12  27  43  64 100 142 178 215 290 353 399
#     4  12  26  43  67 102 132 179 226 278 342 411
#     4  12  26  42  68  98 136 176 226 280 348 400
#     4  10  24  42  71 101 132 179 233 277 336 410
#
# _framework density 23.688929999999999
#
# number of rings (size 3 to 8) (size 9 to 14) (size 15 to 20)
#    0.000    1.333    2.000    2.400    1.867    9.067 
#    0.000    1.333    0.000    0.000    0.000    0.000 
#    0.000    0.000    0.000    0.000    0.000    0.000 
#
# Total GULP energy -167849.376288 kJ/mol
# GULP energy per Si atom -5594.979210 kJ/mol
# Density = 2.363501 g / cm^3
# Si number density = 23.688930 Si / 1000 Ang^3
#
#
#
# Elastic Constant Matrix: (Units=GPa)
#
#
# Indices 1 2 3 4 5 6 
#
# 1 113.9144 43.2830 22.0420 0.0000 38.0222 0.0000
# 2 43.2830 71.3580 7.0260 0.0000 16.6708 0.0000
# 3 22.0420 7.0260 44.5743 0.0000 7.6860 0.0000
# 4 0.0000 0.0000 0.0000 26.8691 0.0000 0.3096
# 5 38.0222 16.6708 7.6860 0.0000 36.2032 0.0000
# 6 0.0000 0.0000 0.0000 0.3096 0.0000 44.0612
#
#
#
# Elastic Compliance Matrix: (Units=1/GPa)
#
#
# Indices 1 2 3 4 5 6 
#
# 1 0.016705 -0.006493 -0.004907 0.000000 -0.013513 0.000000
# 2 -0.006493 0.018297 0.000627 0.000000 -0.001739 0.000000
# 3 -0.004907 0.000627 0.024832 0.000000 -0.000407 0.000000
# 4 0.000000 0.000000 0.000000 0.037220 0.000000 -0.000262
# 5 -0.013513 -0.001739 -0.000407 0.000000 0.042701 0.000000
# 6 0.000000 0.000000 0.000000 -0.000262 0.000000 0.022698
#
#
# Mechanical properties :
#
#
# Convention : Reuss Voigt Hill
#
# Bulk Modulus (GPa) = 26.11806 41.61651 33.86729
# Shear Modulus (GPa) = 25.41122 31.92643 28.66882
#
# Velocity S-wave (km/s) = 3.27877 3.67514 3.48260
# Velocity P-wave (km/s) = 5.03817 5.96782 5.52259
#
# Compressibility (1/GPa) = 0.03828768
#
# Stress axis : x y z
#
# Youngs Moduli (GPa) = 59.86063 54.65457 40.26981
#
# Poissons Ratio (x) = 0.35486 0.19762
# Poissons Ratio (y) = 0.38866 -0.02523
# Poissons Ratio (z) = 0.29376 -0.03424
#
# Static dielectric constant tensor:
#      x y z
#    x 1.891860 0.000000 -0.000280 
#    y 0.000000 1.852050 0.000000 
#    z -0.000280 0.000000 1.929400 
# 
# From -- ./inp_files/198291.got.cif
#   From: 2010.05.17/outbox.cif.g08.bks.cpg/sg15_100_cif.got.tgz:198291.got - 2010.06.03 18:47:42.
