data_PCOD9286788
_publ_section_title
;
Structure prediction by ZEFSAII (Michael W. Deem and Ramdas Pophale) SiO2 
 PCOD9286788
Probable space group: C 2/C
;
_chemical_formula_sum "Si O2"
_cell_formula_units_Z 40
_cell_length_a 13.718905
_cell_length_b 13.585812
_cell_length_c 8.629519
_cell_angle_alpha 90.000000
_cell_angle_beta 104.350164
_cell_angle_gamma 90.000000
_cell_volume 1558.207778
_symmetry_space_group_name_H-M "C 2/C"
_symmetry_group_IT_number 15
_symmetry_cell_setting 'monoclinic'
loop_
_space_group_symop_operation_xyz
x,y,z
-x,y,1/2-z
-x,-y,-z
x,-y,1/2+z
1/2+x,1/2+y,z
1/2-x,1/2+y,1/2-z
1/2-x,1/2-y,-z
1/2+x,1/2-y,1/2+z
loop_
_atom_site_type_symbol
_atom_site_label
_atom_site_fract_x
_atom_site_fract_y
_atom_site_fract_z
Si Si1 0.813520 0.406166 0.053088
Si Si2 0.299623 0.556753 0.311737
Si Si3 0.380000 0.671832 0.580798
Si Si4 0.428722 0.217262 0.413905
Si Si5 0.000000 0.009486 0.250000
Si Si6 0.000000 0.534600 0.250000
O O1 0.728214 0.447874 0.135741
O O2 0.909155 0.470100 0.147637
O O3 0.764658 0.427995 0.866884
O O4 0.859927 0.297554 0.038249
O O5 0.283913 0.639113 0.441181
O O6 0.415209 0.567586 0.306372
O O7 0.461684 0.735880 0.519982
O O8 0.378290 0.723358 0.749939
O O9 0.432045 0.565907 0.626597
O O10 0.456951 0.108944 0.361424
#
# Coordination Sequence:
#
# PCOD9286788 Si02
#       6
#     8   8   8   8   4   4
#     4  12  24  41  74 109 135 191 250 292 352 433
#     4  12  24  41  76 107 137 190 249 291 353 432
#     4   9  21  43  68  95 150 193 221 296 368 413
#     4   9  21  43  68  97 143 200 222 291 371 410
#     4  10  21  44  71  98 146 188 240 304 345 428
#     4  10  21  44  69 100 148 186 244 300 347 430
#
# _framework density 25.670515999999999
#
# number of rings (size 3 to 8) (size 9 to 14) (size 15 to 20)
#    0.000    2.000    4.000    1.200    0.000    0.800 
#    0.000    5.000    0.000    0.000    0.000    0.000 
#    0.000    0.000    0.000    0.000    0.000    0.000 
#
# Total GULP energy -111543.306736 kJ/mol
# GULP energy per Si atom -5577.165337 kJ/mol
# Density = 2.561209 g / cm^3
# Si number density = 25.670516 Si / 1000 Ang^3
#
#
#
# Elastic Constant Matrix: (Units=GPa)
#
#
# Indices 1 2 3 4 5 6 
#
# 1 103.4073 41.2904 20.2747 0.0000 0.2270 0.0000
# 2 41.2904 73.1758 32.9311 0.0000 4.6004 0.0000
# 3 20.2747 32.9311 94.3489 0.0000 32.5154 0.0000
# 4 0.0000 0.0000 0.0000 20.3202 0.0000 -6.9325
# 5 0.2270 4.6004 32.5154 0.0000 28.7479 0.0000
# 6 0.0000 0.0000 0.0000 -6.9325 0.0000 43.7993
#
#
#
# Elastic Compliance Matrix: (Units=1/GPa)
#
#
# Indices 1 2 3 4 5 6 
#
# 1 0.012574 -0.006727 -0.001132 0.000000 0.002258 0.000000
# 2 -0.006727 0.020524 -0.007546 0.000000 0.005303 0.000000
# 3 -0.001132 -0.007546 0.021397 0.000000 -0.022985 0.000000
# 4 0.000000 0.000000 0.000000 0.052021 0.000000 0.008234
# 5 0.002258 0.005303 -0.022985 0.000000 0.059916 0.000000
# 6 0.000000 0.000000 0.000000 0.008234 0.000000 0.024135
#
#
# Mechanical properties :
#
#
# Convention : Reuss Voigt Hill
#
# Bulk Modulus (GPa) = 42.22063 51.10273 46.66168
# Shear Modulus (GPa) = 21.80821 30.33585 26.07203
#
# Velocity S-wave (km/s) = 2.91785 3.44137 3.19037
# Velocity P-wave (km/s) = 5.27586 5.97839 5.63808
#
# Compressibility (1/GPa) = 0.02368510
#
# Stress axis : x y z
#
# Youngs Moduli (GPa) = 79.53099 48.72324 46.73530
#
# Poissons Ratio (x) = 0.32778 0.05290
# Poissons Ratio (y) = 0.53504 0.35265
# Poissons Ratio (z) = 0.09002 0.36765
#
# Static dielectric constant tensor:
#      x y z
#    x 2.203790 0.000000 -0.000070 
#    y 0.000000 2.031510 0.000000 
#    z -0.000070 0.000000 2.123360 
# 
# From -- ./inp_files/38095.got.cif
#   From: 2010.05.17/outbox.cif.g08.bks.cpg/sg15_20_cif.got.tgz:38095.got - 2010.06.03 18:47:42.
