data_PCOD9286126
_publ_section_title
;
Structure prediction by ZEFSAII (Michael W. Deem and Ramdas Pophale) SiO2 
 PCOD9286126
Probable space group: C 2/C
;
_chemical_formula_sum "Si O2"
_cell_formula_units_Z 44
_cell_length_a 9.538237
_cell_length_b 13.770011
_cell_length_c 15.233200
_cell_angle_alpha 90.000000
_cell_angle_beta 127.106559
_cell_angle_gamma 90.000000
_cell_volume 1595.630504
_symmetry_space_group_name_H-M "C 2/C"
_symmetry_group_IT_number 15
_symmetry_cell_setting 'monoclinic'
loop_
_space_group_symop_operation_xyz
x,y,z
-x,y,1/2-z
-x,-y,-z
x,-y,1/2+z
1/2+x,1/2+y,z
1/2-x,1/2+y,1/2-z
1/2-x,1/2-y,-z
1/2+x,1/2-y,1/2+z
loop_
_atom_site_type_symbol
_atom_site_label
_atom_site_fract_x
_atom_site_fract_y
_atom_site_fract_z
Si Si1 0.429000 0.270619 0.624462
Si Si2 0.836124 0.412866 0.482120
Si Si3 0.400916 0.061696 0.826125
Si Si4 0.360029 0.781336 0.859081
Si Si5 0.500000 0.901118 0.750000
Si Si6 0.532629 0.387841 0.500981
O O1 0.250000 0.250000 0.500000
O O2 0.532188 0.168518 0.671338
O O3 0.331142 0.309121 0.676395
O O4 0.529825 0.341792 0.596489
O O5 0.933731 0.503784 0.564731
O O6 0.707564 0.374804 0.508813
O O7 0.767299 0.435009 0.358732
O O8 0.987268 0.332708 0.525389
O O9 0.362892 0.988148 0.732155
O O10 0.422073 0.821893 0.789738
O O11 0.387086 0.667448 0.886437
O O12 0.500000 0.500000 0.500000
#
# Coordination Sequence:
#
# PCOD9286126 Si02
#       6
#     8   8   8   8   4   8
#     4  12  27  45  68 103 143 182 232 296 354 408
#     4  10  23  42  76 101 132 186 236 285 348 422
#     4  10  21  42  72  99 136 177 236 280 355 412
#     4  11  25  46  70 102 141 188 235 285 356 418
#     4  10  24  42  70 102 136 180 236 286 344 414
#     4  12  27  46  71 105 145 184 239 289 344 419
#
# _framework density 27.575306999999999
#
# number of rings (size 3 to 8) (size 9 to 14) (size 15 to 20)
#    0.000    1.091    2.727    2.182   12.727    0.000 
#    1.636    0.000    0.000    0.000    0.000    0.000 
#    0.000    0.000    0.000    0.000    0.000    0.000 
#
# Total GULP energy -122712.643030 kJ/mol
# GULP energy per Si atom -5577.847410 kJ/mol
# Density = 2.751254 g / cm^3
# Si number density = 27.575307 Si / 1000 Ang^3
#
#
#
# Elastic Constant Matrix: (Units=GPa)
#
#
# Indices 1 2 3 4 5 6 
#
# 1 217.7906 66.4793 72.4824 0.0000 -52.9275 0.0000
# 2 66.4793 208.9403 58.4014 0.0000 -31.2965 0.0000
# 3 72.4824 58.4014 130.6518 0.0000 -67.7063 0.0000
# 4 0.0000 0.0000 0.0000 48.8455 0.0000 -15.2705
# 5 -52.9275 -31.2965 -67.7063 0.0000 72.8328 0.0000
# 6 0.0000 0.0000 0.0000 -15.2705 0.0000 38.0599
#
#
#
# Elastic Compliance Matrix: (Units=1/GPa)
#
#
# Indices 1 2 3 4 5 6 
#
# 1 0.006056 -0.001115 -0.001600 0.000000 0.002435 0.000000
# 2 -0.001115 0.005676 -0.002073 0.000000 -0.000299 0.000000
# 3 -0.001600 -0.002073 0.016216 0.000000 0.013021 0.000000
# 4 0.000000 0.000000 0.000000 0.023409 0.000000 0.009392
# 5 0.002435 -0.000299 0.013021 0.000000 0.027476 0.000000
# 6 0.000000 0.000000 0.000000 0.009392 0.000000 0.030043
#
#
# Mechanical properties :
#
#
# Convention : Reuss Voigt Hill
#
# Bulk Modulus (GPa) = 54.43100 105.78987 80.11043
# Shear Modulus (GPa) = 40.13664 55.94896 48.04280
#
# Velocity S-wave (km/s) = 3.81928 4.50928 4.17854
# Velocity P-wave (km/s) = 6.26347 8.09683 7.23843
#
# Compressibility (1/GPa) = 0.01837189
#
# Stress axis : x y z
#
# Youngs Moduli (GPa) = 165.12649 176.19361 61.66782
#
# Poissons Ratio (x) = 0.19647 0.09864
# Poissons Ratio (y) = 0.18413 0.12785
# Poissons Ratio (z) = 0.26412 0.36529
#
# Static dielectric constant tensor:
#      x y z
#    x 2.219050 0.000000 0.152910 
#    y 0.000000 2.214570 0.000000 
#    z 0.152910 0.000000 2.694800 
# 
# From -- ./inp_files/188878.got.cif
#   From: 2010.05.17/outbox.cif.g08.bks.cpg/sg15_95_cif.got.tgz:188878.got - 2010.06.03 18:47:42.
