data_PCOD9286758
_publ_section_title
;
Structure prediction by ZEFSAII (Michael W. Deem and Ramdas Pophale) SiO2 
 PCOD9286758
Probable space group: C 2/C
;
_chemical_formula_sum "Si O2"
_cell_formula_units_Z 32
_cell_length_a 13.953372
_cell_length_b 10.658504
_cell_length_c 10.413662
_cell_angle_alpha 90.000000
_cell_angle_beta 132.146956
_cell_angle_gamma 90.000000
_cell_volume 1148.277364
_symmetry_space_group_name_H-M "C 2/C"
_symmetry_group_IT_number 15
_symmetry_cell_setting 'monoclinic'
loop_
_space_group_symop_operation_xyz
x,y,z
-x,y,1/2-z
-x,-y,-z
x,-y,1/2+z
1/2+x,1/2+y,z
1/2-x,1/2+y,1/2-z
1/2-x,1/2-y,-z
1/2+x,1/2-y,1/2+z
loop_
_atom_site_type_symbol
_atom_site_label
_atom_site_fract_x
_atom_site_fract_y
_atom_site_fract_z
Si Si1 0.046833 0.202253 0.431811
Si Si2 0.771582 0.439630 0.428769
Si Si3 0.171867 0.598032 0.786148
Si Si4 0.415649 0.311415 0.068828
O O1 0.202307 0.189501 0.578916
O O2 0.000000 0.156653 0.250000
O O3 0.962347 0.331271 0.364207
O O4 0.992608 0.142056 0.514593
O O5 0.846603 0.520985 0.600043
O O6 0.785951 0.489771 0.297027
O O7 0.642412 0.420576 0.395712
O O8 0.810936 0.293882 0.438986
O O9 0.500000 0.237890 0.250000
#
# Coordination Sequence:
#
# PCOD9286758 Si02
#       4
#     8   8   8   8
#     4  11  25  44  72 104 148 186 235 301 360 419
#     4  10  24  42  72 105 143 187 243 292 366 425
#     4  11  25  47  74 106 144 191 241 295 361 433
#     4  10  21  44  68 101 148 190 230 299 362 429
#
# _framework density 27.867830000000001
#
# number of rings (size 3 to 8) (size 9 to 14) (size 15 to 20)
#    0.000    1.500    2.500    0.750    3.500    5.000 
#    0.000    5.000    0.000    0.000    0.000    0.000 
#    0.000    0.000    0.000    0.000    0.000    0.000 
#
# Total GULP energy -89249.409036 kJ/mol
# GULP energy per Si atom -5578.088065 kJ/mol
# Density = 2.780440 g / cm^3
# Si number density = 27.867830 Si / 1000 Ang^3
#
#
#
# Elastic Constant Matrix: (Units=GPa)
#
#
# Indices 1 2 3 4 5 6 
#
# 1 230.8706 57.7721 70.4126 0.0000 -60.2354 0.0000
# 2 57.7721 58.5555 14.0799 0.0000 1.5527 0.0000
# 3 70.4126 14.0799 137.7343 0.0000 -40.9767 0.0000
# 4 0.0000 0.0000 0.0000 26.4731 0.0000 28.2251
# 5 -60.2354 1.5527 -40.9767 0.0000 77.1562 0.0000
# 6 0.0000 0.0000 0.0000 28.2251 0.0000 -1.8711
#
#
#
# Elastic Compliance Matrix: (Units=1/GPa)
#
#
# Indices 1 2 3 4 5 6 
#
# 1 0.008367 -0.007988 -0.001745 0.000000 0.005766 0.000000
# 2 -0.007988 0.025292 -0.000604 0.000000 -0.007066 0.000000
# 3 -0.001745 -0.000604 0.009279 0.000000 0.003577 0.000000
# 4 0.000000 0.000000 0.000000 0.002211 0.000000 0.033355
# 5 0.005766 -0.007066 0.003577 0.000000 0.019504 0.000000
# 6 0.000000 0.000000 0.000000 0.033355 0.000000 -0.031285
#
#
# Mechanical properties :
#
#
# Convention : Reuss Voigt Hill
#
# Bulk Modulus (GPa) = 44.91897 79.07663 61.99780
# Shear Modulus (GPa) = 81.34833 39.34468 60.34650
#
# Velocity S-wave (km/s) = 5.40871 3.76151 4.65849
# Velocity P-wave (km/s) = 7.42692 6.87768 7.15757
#
# Compressibility (1/GPa) = 0.02226231
#
# Stress axis : x y z
#
# Youngs Moduli (GPa) = 119.51590 39.53849 107.77438
#
# Poissons Ratio (x) = 0.31585 0.18811
# Poissons Ratio (y) = 0.95473 0.06508
# Poissons Ratio (z) = 0.20861 0.02388
#
# Static dielectric constant tensor:
#      x y z
#    x 2.299140 0.000000 -0.006740 
#    y 0.000000 2.292590 0.000000 
#    z -0.006740 0.000000 2.357640 
# 
# From -- ./inp_files/94808.got.cif
#   From: 2010.05.17/outbox.cif.g08.bks.cpg/sg15_48_cif.got.tgz:94808.got - 2010.06.03 18:47:42.
