data_PCOD9286589
_publ_section_title
;
Structure prediction by ZEFSAII (Michael W. Deem and Ramdas Pophale) SiO2 
 PCOD9286589
Probable space group: C 2/C
;
_chemical_formula_sum "Si O2"
_cell_formula_units_Z 52
_cell_length_a 15.342019
_cell_length_b 8.454033
_cell_length_c 17.386045
_cell_angle_alpha 90.000000
_cell_angle_beta 111.493965
_cell_angle_gamma 90.000000
_cell_volume 2098.182077
_symmetry_space_group_name_H-M "C 2/C"
_symmetry_group_IT_number 15
_symmetry_cell_setting 'monoclinic'
loop_
_space_group_symop_operation_xyz
x,y,z
-x,y,1/2-z
-x,-y,-z
x,-y,1/2+z
1/2+x,1/2+y,z
1/2-x,1/2+y,1/2-z
1/2-x,1/2-y,-z
1/2+x,1/2-y,1/2+z
loop_
_atom_site_type_symbol
_atom_site_label
_atom_site_fract_x
_atom_site_fract_y
_atom_site_fract_z
Si Si1 0.182344 0.848750 0.216789
Si Si2 0.024895 0.536885 0.847876
Si Si3 0.673739 0.021833 0.137118
Si Si4 0.840908 0.648885 0.011447
Si Si5 0.000000 0.092413 0.750000
Si Si6 0.071450 0.892217 0.907998
Si Si7 0.118682 0.050989 0.066178
O O1 0.204941 0.692273 0.176528
O O2 0.079031 0.825232 0.222275
O O3 0.258552 0.889254 0.305305
O O4 0.186174 0.994213 0.156650
O O5 0.063338 0.709112 0.884943
O O6 0.000000 0.537070 0.750000
O O7 0.931036 0.505748 0.866123
O O8 0.099491 0.402876 0.896150
O O9 0.676441 0.003110 0.046769
O O10 0.890808 0.773113 0.970717
O O11 0.750000 0.750000 0.000000
O O12 0.067596 0.986332 0.826670
O O13 0.978594 0.961814 0.919535
O O14 0.141001 0.940559 0.999332
#
# Coordination Sequence:
#
# PCOD9286589 Si02
#       7
#     8   8   8   8   4   8   8
#     4  11  27  47  77 112 150 201 251 319 390 456
#     4  12  28  47  77 109 153 202 262 318 394 460
#     4  12  28  48  77 108 159 198 259 318 388 459
#     4  12  29  50  74 112 152 206 264 320 381 462
#     4  10  24  44  76 110 148 192 258 306 384 458
#     4  10  21  43  73 106 141 196 246 310 377 455
#     4  10  23  44  73 102 147 193 250 309 381 455
#
# _framework density 24.783360999999999
#
# number of rings (size 3 to 8) (size 9 to 14) (size 15 to 20)
#    0.000    0.923    2.308    2.308   16.154    0.000 
#    0.000    1.538    0.000    0.000    0.000    0.000 
#    0.000    0.000    0.000    0.000    0.000    0.000 
#
# Total GULP energy -145348.473017 kJ/mol
# GULP energy per Si atom -5590.325885 kJ/mol
# Density = 2.472695 g / cm^3
# Si number density = 24.783361 Si / 1000 Ang^3
#
#
#
# Elastic Constant Matrix: (Units=GPa)
#
#
# Indices 1 2 3 4 5 6 
#
# 1 81.8549 17.1940 25.2732 0.0000 -3.9565 0.0000
# 2 17.1940 116.6642 49.2107 0.0000 -1.1174 0.0000
# 3 25.2732 49.2107 168.3584 0.0000 -9.6491 0.0000
# 4 0.0000 0.0000 0.0000 43.4256 0.0000 -12.2389
# 5 -3.9565 -1.1174 -9.6491 0.0000 29.9554 0.0000
# 6 0.0000 0.0000 0.0000 -12.2389 0.0000 -18.1678
#
#
#
# Elastic Compliance Matrix: (Units=1/GPa)
#
#
# Indices 1 2 3 4 5 6 
#
# 1 0.013008 -0.001267 -0.001515 0.000000 0.001183 0.000000
# 2 -0.001267 0.009910 -0.002746 0.000000 -0.000682 0.000000
# 3 -0.001515 -0.002746 0.007083 0.000000 0.001979 0.000000
# 4 0.000000 0.000000 0.000000 0.019353 0.000000 -0.013038
# 5 0.001183 -0.000682 0.001979 0.000000 0.034151 0.000000
# 6 0.000000 0.000000 0.000000 -0.013038 0.000000 -0.046260
#
#
# Mechanical properties :
#
#
# Convention : Reuss Voigt Hill
#
# Bulk Modulus (GPa) = 52.77987 61.13702 56.95844
# Shear Modulus (GPa) = 91.54967 29.38929 60.46948
#
# Velocity S-wave (km/s) = 6.08442 3.44735 4.94492
# Velocity P-wave (km/s) = 8.40850 6.36928 7.45891
#
# Compressibility (1/GPa) = 0.01894662
#
# Stress axis : x y z
#
# Youngs Moduli (GPa) = 76.87782 100.90918 141.18297
#
# Poissons Ratio (x) = 0.12784 0.21383
# Poissons Ratio (y) = 0.09740 0.38762
# Poissons Ratio (z) = 0.11643 0.27705
#
# Static dielectric constant tensor:
#      x y z
#    x 2.051270 0.000000 0.057290 
#    y 0.000000 2.013280 0.000000 
#    z 0.057290 0.000000 2.028140 
# 
# From -- ./inp_files/209695.got.cif
#   From: 2010.05.17/outbox.cif.g08.bks.cpg/sg15_105_cif.got.tgz:209695.got - 2010.06.03 18:47:42.
