data_PCOD9286326
_publ_section_title
;
Structure prediction by ZEFSAII (Michael W. Deem and Ramdas Pophale) SiO2 
 PCOD9286326
Probable space group: C 2/C
;
_chemical_formula_sum "Si O2"
_cell_formula_units_Z 52
_cell_length_a 31.429729
_cell_length_b 10.380290
_cell_length_c 9.402712
_cell_angle_alpha 90.000000
_cell_angle_beta 124.719768
_cell_angle_gamma 90.000000
_cell_volume 2521.432690
_symmetry_space_group_name_H-M "C 2/C"
_symmetry_group_IT_number 15
_symmetry_cell_setting 'monoclinic'
loop_
_space_group_symop_operation_xyz
x,y,z
-x,y,1/2-z
-x,-y,-z
x,-y,1/2+z
1/2+x,1/2+y,z
1/2-x,1/2+y,1/2-z
1/2-x,1/2-y,-z
1/2+x,1/2-y,1/2+z
loop_
_atom_site_type_symbol
_atom_site_label
_atom_site_fract_x
_atom_site_fract_y
_atom_site_fract_z
Si Si1 0.665140 0.529532 0.141226
Si Si2 0.000000 0.938297 0.250000
Si Si3 0.097620 0.666033 0.139502
Si Si4 0.938391 0.467367 0.643518
Si Si5 0.573066 0.716720 0.068690
Si Si6 0.198310 0.170608 0.928125
Si Si7 0.919502 0.151468 0.116756
O O1 0.620159 0.619148 0.123207
O O2 0.696277 0.455478 0.322684
O O3 0.693609 0.617497 0.079792
O O4 0.637009 0.410647 0.006258
O O5 0.954880 0.029843 0.216901
O O6 0.021411 0.853523 0.417915
O O7 0.073261 0.581502 0.218911
O O8 0.149536 0.735444 0.296685
O O9 0.098499 0.573376 0.002310
O O10 0.066396 0.784885 0.007438
O O11 0.926225 0.342584 0.524643
O O12 0.000000 0.501394 0.750000
O O13 0.574170 0.743778 0.237269
O O14 0.250000 0.250000 0.000000
#
# Coordination Sequence:
#
# PCOD9286326 Si02
#       7
#     8   4   8   8   8   8   8
#     4  10  21  43  66  97 131 166 210 278 329 393
#     4  10  22  30  60  96 126 168 230 260 316 384
#     4  11  26  44  62  95 132 178 224 280 331 402
#     4  12  25  41  64  90 142 182 225 269 338 407
#     4  11  20  38  61  90 133 174 215 269 325 381
#     4  11  24  46  74 100 132 170 224 281 345 400
#     4  10  22  36  63  91 131 170 219 270 325 382
#
# _framework density 20.623194000000002
#
# number of rings (size 3 to 8) (size 9 to 14) (size 15 to 20)
#    0.000    1.231    3.846    1.846    3.231    1.231 
#    0.000    0.769    0.000    0.000    0.000    0.000 
#    0.000    0.000    0.000    0.000    0.000    0.000 
#
# Total GULP energy -145048.329931 kJ/mol
# GULP energy per Si atom -5578.781920 kJ/mol
# Density = 2.057625 g / cm^3
# Si number density = 20.623194 Si / 1000 Ang^3
#
#
#
# Elastic Constant Matrix: (Units=GPa)
#
#
# Indices 1 2 3 4 5 6 
#
# 1 83.2923 18.5230 45.9064 0.0000 -15.3830 0.0000
# 2 18.5230 73.2324 26.5737 0.0000 -3.4412 0.0000
# 3 45.9064 26.5737 78.5028 0.0000 -20.0697 0.0000
# 4 0.0000 0.0000 0.0000 50.9371 0.0000 -6.3391
# 5 -15.3830 -3.4412 -20.0697 0.0000 28.8716 0.0000
# 6 0.0000 0.0000 0.0000 -6.3391 0.0000 27.9866
#
#
#
# Elastic Compliance Matrix: (Units=1/GPa)
#
#
# Indices 1 2 3 4 5 6 
#
# 1 0.017955 -0.000985 -0.009425 0.000000 0.002897 0.000000
# 2 -0.000985 0.015737 -0.005358 0.000000 -0.002374 0.000000
# 3 -0.009425 -0.005358 0.022640 0.000000 0.010077 0.000000
# 4 0.000000 0.000000 0.000000 0.020201 0.000000 0.004576
# 5 0.002897 -0.002374 0.010077 0.000000 0.042902 0.000000
# 6 0.000000 0.000000 0.000000 0.004576 0.000000 0.036768
#
#
# Mechanical properties :
#
#
# Convention : Reuss Voigt Hill
#
# Bulk Modulus (GPa) = 40.33018 46.33707 43.33362
# Shear Modulus (GPa) = 25.50953 31.16067 28.33510
#
# Velocity S-wave (km/s) = 3.52082 3.89131 3.71070
# Velocity P-wave (km/s) = 6.01053 6.53506 6.27827
#
# Compressibility (1/GPa) = 0.02479533
#
# Stress axis : x y z
#
# Youngs Moduli (GPa) = 55.69526 63.54469 44.16928
#
# Poissons Ratio (x) = 0.06260 0.41631
# Poissons Ratio (y) = 0.05486 0.23665
# Poissons Ratio (z) = 0.52495 0.34046
#
# Static dielectric constant tensor:
#      x y z
#    x 1.739950 0.000000 -0.013170 
#    y 0.000000 1.778460 0.000000 
#    z -0.013170 0.000000 1.766580 
# 
# From -- ./inp_files/65618.got.cif
#   From: 2010.05.17/outbox.cif.g08.bks.cpg/sg15_33_cif.got.tgz:65618.got - 2010.06.03 18:47:42.
