data_PCOD9286480
_publ_section_title
;
Structure prediction by ZEFSAII (Michael W. Deem and Ramdas Pophale) SiO2 
 PCOD9286480
Probable space group: C 2/C
;
_chemical_formula_sum "Si O2"
_cell_formula_units_Z 24
_cell_length_a 7.217157
_cell_length_b 13.738502
_cell_length_c 11.111947
_cell_angle_alpha 90.000000
_cell_angle_beta 59.280655
_cell_angle_gamma 90.000000
_cell_volume 947.179829
_symmetry_space_group_name_H-M "C 2/C"
_symmetry_group_IT_number 15
_symmetry_cell_setting 'monoclinic'
loop_
_space_group_symop_operation_xyz
x,y,z
-x,y,1/2-z
-x,-y,-z
x,-y,1/2+z
1/2+x,1/2+y,z
1/2-x,1/2+y,1/2-z
1/2-x,1/2-y,-z
1/2+x,1/2-y,1/2+z
loop_
_atom_site_type_symbol
_atom_site_label
_atom_site_fract_x
_atom_site_fract_y
_atom_site_fract_z
Si Si1 0.500191 0.259436 0.881863
Si Si2 0.261258 0.058148 0.666580
Si Si3 0.284030 0.438602 0.587287
O O1 0.500000 0.307490 0.750000
O O2 0.616153 0.155807 0.834355
O O3 0.641346 0.327294 0.921852
O O4 0.250000 0.250000 0.000000
O O5 0.323645 0.043150 0.505998
O O6 0.000000 0.074067 0.750000
O O7 0.302236 0.977302 0.755932
O O8 0.500000 0.500000 0.500000
#
# Coordination Sequence:
#
# PCOD9286480 Si02
#       3
#     8   8   8
#     4  12  25  44  70 106 145 186 237 299 358 421
#     4  10  22  45  71 102 141 187 236 291 353 426
#     4  10  21  43  69  98 137 183 234 288 349 423
#
# _framework density 25.338377000000001
#
# number of rings (size 3 to 8) (size 9 to 14) (size 15 to 20)
#    0.000    1.333    0.000    8.000    0.000    0.000 
#    0.000   38.333    0.000    0.000    0.000    0.000 
#    0.000    0.000    0.000    0.000    0.000    0.000 
#
# Total GULP energy -67156.205286 kJ/mol
# GULP energy per Si atom -5596.350440 kJ/mol
# Density = 2.528071 g / cm^3
# Si number density = 25.338377 Si / 1000 Ang^3
#
#
#
# Elastic Constant Matrix: (Units=GPa)
#
#
# Indices 1 2 3 4 5 6 
#
# 1 197.4342 55.3518 68.2860 0.0000 31.7885 0.0000
# 2 55.3518 117.1941 27.3082 0.0000 12.3084 0.0000
# 3 68.2860 27.3082 222.2477 0.0000 18.6933 0.0000
# 4 0.0000 0.0000 0.0000 33.4277 0.0000 9.6791
# 5 31.7885 12.3084 18.6933 0.0000 57.0461 0.0000
# 6 0.0000 0.0000 0.0000 9.6791 0.0000 43.4469
#
#
#
# Elastic Compliance Matrix: (Units=1/GPa)
#
#
# Indices 1 2 3 4 5 6 
#
# 1 0.006744 -0.002544 -0.001532 0.000000 -0.002707 0.000000
# 2 -0.002544 0.009886 -0.000383 0.000000 -0.000590 0.000000
# 3 -0.001532 -0.000383 0.005078 0.000000 -0.000728 0.000000
# 4 0.000000 0.000000 0.000000 0.031978 0.000000 -0.007124
# 5 -0.002707 -0.000590 -0.000728 0.000000 0.019404 0.000000
# 6 0.000000 0.000000 0.000000 -0.007124 0.000000 0.024604
#
#
# Mechanical properties :
#
#
# Convention : Reuss Voigt Hill
#
# Bulk Modulus (GPa) = 78.18827 93.19645 85.69236
# Shear Modulus (GPa) = 45.09571 52.51281 48.80426
#
# Velocity S-wave (km/s) = 4.22327 4.55737 4.39350
# Velocity P-wave (km/s) = 7.39635 8.03451 7.72203
#
# Compressibility (1/GPa) = 0.01278964
#
# Stress axis : x y z
#
# Youngs Moduli (GPa) = 148.28334 101.15665 196.91001
#
# Poissons Ratio (x) = 0.25734 0.30162
# Poissons Ratio (y) = 0.37722 0.07550
# Poissons Ratio (z) = 0.22714 0.03879
#
# Static dielectric constant tensor:
#      x y z
#    x 2.053370 0.000000 0.011560 
#    y 0.000000 1.841250 0.000000 
#    z 0.011560 0.000000 2.077080 
# 
# From -- ./inp_files/143234.got.cif
#   From: 2010.05.17/outbox.cif.g08.bks.cpg/sg15_72_cif.got.tgz:143234.got - 2010.06.03 18:47:42.
