data_PCOD9286026
_publ_section_title
;
Structure prediction by ZEFSAII (Michael W. Deem and Ramdas Pophale) SiO2 
 PCOD9286026
Probable space group: C 2/C
;
_chemical_formula_sum "Si O2"
_cell_formula_units_Z 64
_cell_length_a 17.631526
_cell_length_b 8.795626
_cell_length_c 28.544588
_cell_angle_alpha 90.000000
_cell_angle_beta 136.010211
_cell_angle_gamma 90.000000
_cell_volume 3074.479108
_symmetry_space_group_name_H-M "C 2/C"
_symmetry_group_IT_number 15
_symmetry_cell_setting 'monoclinic'
loop_
_space_group_symop_operation_xyz
x,y,z
-x,y,1/2-z
-x,-y,-z
x,-y,1/2+z
1/2+x,1/2+y,z
1/2-x,1/2+y,1/2-z
1/2-x,1/2-y,-z
1/2+x,1/2-y,1/2+z
loop_
_atom_site_type_symbol
_atom_site_label
_atom_site_fract_x
_atom_site_fract_y
_atom_site_fract_z
Si Si1 0.200252 0.406158 0.271357
Si Si2 0.038253 0.421446 0.969327
Si Si3 0.260518 0.729972 0.448827
Si Si4 0.390007 0.195340 0.322233
Si Si5 0.140619 0.725132 0.981750
Si Si6 0.278207 0.898846 0.108781
Si Si7 0.954701 0.133573 0.678883
Si Si8 0.984097 0.209268 0.160579
O O1 0.306263 0.329343 0.296172
O O2 0.170189 0.563022 0.233036
O O3 0.218335 0.425548 0.334596
O O4 0.097951 0.292892 0.218743
O O5 0.109723 0.550366 0.974650
O O6 0.939866 0.373680 0.891888
O O7 0.118247 0.279098 0.012245
O O8 0.000000 0.500000 0.000000
O O9 0.250000 0.750000 0.500000
O O10 0.231306 0.558925 0.421808
O O11 0.173879 0.838542 0.384230
O O12 0.487639 0.261037 0.334108
O O13 0.046181 0.798941 0.908123
O O14 0.250000 0.750000 0.000000
O O15 0.173522 0.800569 0.045461
O O16 0.388319 0.810111 0.142138
O O17 0.000000 0.175666 0.750000
O O18 0.981872 0.958330 0.680858
#
# Coordination Sequence:
#
# PCOD9286026 Si02
#       8
#     8   8   8   8   8   8   8   8
#     4  12  25  45  68  96 145 184 234 294 360 431
#     4  12  26  47  72 105 148 189 238 301 369 434
#     4  12  23  45  74 104 143 186 237 299 353 428
#     4  12  27  47  67 100 142 191 237 298 367 429
#     4  10  21  42  70 102 137 186 232 289 356 421
#     4  11  23  41  72 106 134 181 239 290 355 427
#     4  12  25  43  72 104 138 182 243 294 357 427
#     4  11  22  43  70 102 139 182 233 293 356 426
#
# _framework density 20.816534000000001
#
# number of rings (size 3 to 8) (size 9 to 14) (size 15 to 20)
#    0.000    0.500    2.500    7.875    0.000    3.000 
#    2.250    1.250    0.000    0.000    0.000    0.000 
#    0.000    0.000    0.000    0.000    0.000    0.000 
#
# Total GULP energy -179124.926093 kJ/mol
# GULP energy per Si atom -5597.653940 kJ/mol
# Density = 2.076915 g / cm^3
# Si number density = 20.816534 Si / 1000 Ang^3
#
#
#
# Elastic Constant Matrix: (Units=GPa)
#
#
# Indices 1 2 3 4 5 6 
#
# 1 41.9494 22.5164 31.3684 0.0000 -12.2358 0.0000
# 2 22.5164 65.6419 11.0288 0.0000 1.2939 0.0000
# 3 31.3684 11.0288 132.4645 0.0000 -28.7669 0.0000
# 4 0.0000 0.0000 0.0000 47.7042 0.0000 7.9414
# 5 -12.2358 1.2939 -28.7669 0.0000 24.9328 0.0000
# 6 0.0000 0.0000 0.0000 7.9414 0.0000 28.4793
#
#
#
# Elastic Compliance Matrix: (Units=1/GPa)
#
#
# Indices 1 2 3 4 5 6 
#
# 1 0.038355 -0.012572 -0.005079 0.000000 0.013615 0.000000
# 2 -0.012572 0.019747 -0.000306 0.000000 -0.007547 0.000000
# 3 -0.005079 -0.000306 0.010994 0.000000 0.010208 0.000000
# 4 0.000000 0.000000 0.000000 0.021983 0.000000 -0.006130
# 5 0.013615 -0.007547 0.010208 0.000000 0.058959 0.000000
# 6 0.000000 0.000000 0.000000 -0.006130 0.000000 0.036823
#
#
# Mechanical properties :
#
#
# Convention : Reuss Voigt Hill
#
# Bulk Modulus (GPa) = 30.13653 41.09811 35.61732
# Shear Modulus (GPa) = 21.38251 31.89941 26.64096
#
# Velocity S-wave (km/s) = 3.20846 3.91884 3.58131
# Velocity P-wave (km/s) = 5.31359 6.34526 5.85220
#
# Compressibility (1/GPa) = 0.03318233
#
# Stress axis : x y z
#
# Youngs Moduli (GPa) = 26.07189 50.64153 90.95529
#
# Poissons Ratio (x) = 0.63664 0.46200
# Poissons Ratio (y) = 0.32776 0.02784
# Poissons Ratio (z) = 0.13243 0.01550
#
# Static dielectric constant tensor:
#      x y z
#    x 1.798650 0.000000 0.012210 
#    y 0.000000 1.729730 0.000000 
#    z 0.012210 0.000000 1.752420 
# 
# From -- ./inp_files/315721.got.cif
#   From: 2010.05.17/outbox.cif.g08.bks.cpg/sg15_158_cif.got.tgz:315721.got - 2010.06.03 18:47:42.
