data_PCOD9286523
_publ_section_title
;
Structure prediction by ZEFSAII (Michael W. Deem and Ramdas Pophale) SiO2 
 PCOD9286523
Probable space group: C 2/C
;
_chemical_formula_sum "Si O2"
_cell_formula_units_Z 60
_cell_length_a 22.552791
_cell_length_b 8.682442
_cell_length_c 17.064597
_cell_angle_alpha 90.000000
_cell_angle_beta 62.391989
_cell_angle_gamma 90.000000
_cell_volume 2961.010667
_symmetry_space_group_name_H-M "C 2/C"
_symmetry_group_IT_number 15
_symmetry_cell_setting 'monoclinic'
loop_
_space_group_symop_operation_xyz
x,y,z
-x,y,1/2-z
-x,-y,-z
x,-y,1/2+z
1/2+x,1/2+y,z
1/2-x,1/2+y,1/2-z
1/2-x,1/2-y,-z
1/2+x,1/2-y,1/2+z
loop_
_atom_site_type_symbol
_atom_site_label
_atom_site_fract_x
_atom_site_fract_y
_atom_site_fract_z
Si Si1 0.916092 0.761845 0.893460
Si Si2 0.500000 0.022214 0.750000
Si Si3 0.920030 0.279193 0.699485
Si Si4 0.533999 0.436031 0.057835
Si Si5 0.215851 0.155296 0.091240
Si Si6 0.307812 0.698965 0.882839
Si Si7 0.152989 0.383542 0.912112
Si Si8 0.339016 0.225927 0.532889
O O1 0.966576 0.632728 0.834314
O O2 0.859237 0.781338 0.861398
O O3 0.949081 0.925149 0.893438
O O4 0.882052 0.707439 0.995265
O O5 0.447255 0.913730 0.738438
O O6 0.864906 0.187548 0.783362
O O7 0.882147 0.342894 0.646768
O O8 0.983018 0.179654 0.631820
O O9 0.500000 0.500000 0.000000
O O10 0.602583 0.349325 0.991734
O O11 0.268070 0.160331 0.130925
O O12 0.208931 0.973590 0.077120
O O13 0.250000 0.250000 0.000000
O O14 0.237282 0.768969 0.896765
O O15 0.333754 0.793351 0.941732
O O16 0.145576 0.564286 0.935815
#
# Coordination Sequence:
#
# PCOD9286523 Si02
#       8
#     8   4   8   8   8   8   8   8
#     4  11  23  44  65 103 132 180 229 283 347 413
#     4  12  30  42  66  98 142 188 226 288 340 428
#     4  12  26  46  66 103 143 184 233 285 351 413
#     4  12  25  42  72 101 137 182 228 286 348 423
#     4   9  20  41  71  98 127 172 226 286 341 405
#     4  10  21  43  71 100 132 180 236 285 337 412
#     4  10  22  44  68  97 137 175 233 278 346 417
#     4  10  22  43  73  96 130 187 228 280 349 411
#
# _framework density 20.263351
#
# number of rings (size 3 to 8) (size 9 to 14) (size 15 to 20)
#    0.000    1.333    2.667    2.400    3.733    2.133 
#    9.600    0.000    0.000    0.000    0.000    0.000 
#    0.000    0.000    0.000    0.000    0.000    0.000 
#
# Total GULP energy -167543.643025 kJ/mol
# GULP energy per Si atom -5584.788101 kJ/mol
# Density = 2.021723 g / cm^3
# Si number density = 20.263351 Si / 1000 Ang^3
#
#
#
# Elastic Constant Matrix: (Units=GPa)
#
#
# Indices 1 2 3 4 5 6 
#
# 1 132.0302 49.8085 21.3621 0.0000 0.6762 -0.0001
# 2 49.8085 93.1815 18.7709 0.0000 -2.3987 0.0000
# 3 21.3621 18.7709 37.8255 0.0000 -5.5852 0.0000
# 4 0.0000 0.0000 0.0000 20.5715 0.0000 -0.1817
# 5 0.6762 -2.3987 -5.5852 0.0000 30.7090 0.0000
# 6 -0.0001 0.0000 0.0000 -0.1817 0.0000 34.3661
#
#
#
# Elastic Compliance Matrix: (Units=1/GPa)
#
#
# Indices 1 2 3 4 5 6 
#
# 1 0.009882 -0.004615 -0.003470 0.000000 -0.001209 0.000000
# 2 -0.004615 0.014079 -0.004319 0.000000 0.000416 0.000000
# 3 -0.003470 -0.004319 0.031343 0.000000 0.005440 0.000000
# 4 0.000000 0.000000 0.000000 0.048613 0.000000 0.000257
# 5 -0.001209 0.000416 0.005440 0.000000 0.033612 0.000000
# 6 0.000000 0.000000 0.000000 0.000257 0.000000 0.029100
#
#
# Mechanical properties :
#
#
# Convention : Reuss Voigt Hill
#
# Bulk Modulus (GPa) = 32.78922 49.21336 41.00129
# Shear Modulus (GPa) = 24.80116 28.66904 26.73510
#
# Velocity S-wave (km/s) = 3.50228 3.76549 3.63627
# Velocity P-wave (km/s) = 5.70713 6.57608 6.15695
#
# Compressibility (1/GPa) = 0.03049782
#
# Stress axis : x y z
#
# Youngs Moduli (GPa) = 101.18902 71.02660 31.90469
#
# Poissons Ratio (x) = 0.32777 0.11070
# Poissons Ratio (y) = 0.46696 0.13780
# Poissons Ratio (z) = 0.35109 0.30678
#
# Static dielectric constant tensor:
#      x y z
#    x 1.755670 0.000000 -0.031650 
#    y 0.000000 1.710200 0.000000 
#    z -0.031650 0.000000 1.690160 
# 
# From -- ./inp_files/218589.got.cif
#   From: 2010.05.17/outbox.cif.g08.bks.cpg/sg15_110_cif.got.tgz:218589.got - 2010.06.03 18:47:42.
