data_PCOD9286301
_publ_section_title
;
Structure prediction by ZEFSAII (Michael W. Deem and Ramdas Pophale) SiO2 
 PCOD9286301
Probable space group: C 2/C
;
_chemical_formula_sum "Si O2"
_cell_formula_units_Z 56
_cell_length_a 15.429489
_cell_length_b 11.618850
_cell_length_c 16.453828
_cell_angle_alpha 90.000000
_cell_angle_beta 49.363583
_cell_angle_gamma 90.000000
_cell_volume 2238.421589
_symmetry_space_group_name_H-M "C 2/C"
_symmetry_group_IT_number 15
_symmetry_cell_setting 'monoclinic'
loop_
_space_group_symop_operation_xyz
x,y,z
-x,y,1/2-z
-x,-y,-z
x,-y,1/2+z
1/2+x,1/2+y,z
1/2-x,1/2+y,1/2-z
1/2-x,1/2-y,-z
1/2+x,1/2-y,1/2+z
loop_
_atom_site_type_symbol
_atom_site_label
_atom_site_fract_x
_atom_site_fract_y
_atom_site_fract_z
Si Si1 0.340422 0.564327 0.629042
Si Si2 0.236628 0.118861 0.536151
Si Si3 0.338980 0.311914 0.684425
Si Si4 0.878829 0.473156 0.795562
Si Si5 0.256328 0.890408 0.592552
Si Si6 0.087210 0.202473 0.074171
Si Si7 0.130284 0.213522 0.736529
O O1 0.372289 0.431651 0.620924
O O2 0.200821 0.554409 0.711663
O O3 0.380384 0.622436 0.522186
O O4 0.394571 0.635765 0.670355
O O5 0.250000 0.250000 0.500000
O O6 0.289948 0.056687 0.423167
O O7 0.118349 0.145301 0.658907
O O8 0.285100 0.024139 0.570411
O O9 0.253746 0.343092 0.810568
O O10 0.455291 0.267972 0.650982
O O11 0.268193 0.236581 0.664510
O O12 0.911654 0.346256 0.738408
O O13 0.000000 0.523426 0.750000
O O14 0.134767 0.864470 0.623257
O O15 0.343094 0.818527 0.484836
#
# Coordination Sequence:
#
# PCOD9286301 Si02
#       7
#     8   8   8   8   8   8   8
#     4  11  21  42  64  94 135 167 228 287 327 406
#     4  10  21  43  66  92 132 173 218 273 336 397
#     4  11  23  41  65  93 130 174 224 277 347 394
#     4  10  23  42  65  93 134 181 222 273 349 410
#     4  11  22  43  64  94 134 168 222 279 331 413
#     4  11  24  40  63  95 131 179 218 275 342 405
#     4  10  22  41  64  94 133 169 221 290 326 406
#
# _framework density 25.01763
#
# number of rings (size 3 to 8) (size 9 to 14) (size 15 to 20)
#    0.000    1.429    4.286    0.857    0.000    2.286 
#    5.143    1.429    0.000    0.000    0.000    0.000 
#    0.000    0.000    0.000    0.000    0.000    0.000 
#
# Total GULP energy -155963.955516 kJ/mol
# GULP energy per Si atom -5570.141268 kJ/mol
# Density = 2.496069 g / cm^3
# Si number density = 25.017630 Si / 1000 Ang^3
#
#
#
# Elastic Constant Matrix: (Units=GPa)
#
#
# Indices 1 2 3 4 5 6 
#
# 1 111.5526 12.9021 15.3048 0.0000 -10.5873 0.0000
# 2 12.9021 111.8868 24.7319 0.0000 -2.3092 0.0000
# 3 15.3048 24.7319 70.0196 0.0000 14.2744 0.0000
# 4 0.0000 0.0000 0.0000 28.6339 0.0000 13.7982
# 5 -10.5873 -2.3092 14.2744 0.0000 27.5328 0.0000
# 6 0.0000 0.0000 0.0000 13.7982 0.0000 23.8722
#
#
#
# Elastic Compliance Matrix: (Units=1/GPa)
#
#
# Indices 1 2 3 4 5 6 
#
# 1 0.009954 -0.000336 -0.003166 0.000000 0.005441 0.000000
# 2 -0.000336 0.009917 -0.003995 0.000000 0.002774 0.000000
# 3 -0.003166 -0.003995 0.018675 0.000000 -0.011235 0.000000
# 4 0.000000 0.000000 0.000000 0.048406 0.000000 -0.027979
# 5 0.005441 0.002774 -0.011235 0.000000 0.044470 0.000000
# 6 0.000000 0.000000 0.000000 -0.027979 0.000000 0.058061
#
#
# Mechanical properties :
#
#
# Convention : Reuss Voigt Hill
#
# Bulk Modulus (GPa) = 42.45898 44.37072 43.41485
# Shear Modulus (GPa) = 23.54849 32.04246 27.79547
#
# Velocity S-wave (km/s) = 3.07135 3.58270 3.33684
# Velocity P-wave (km/s) = 5.43931 5.90666 5.67779
#
# Compressibility (1/GPa) = 0.02355214
#
# Stress axis : x y z
#
# Youngs Moduli (GPa) = 100.46166 100.84127 53.54689
#
# Poissons Ratio (x) = 0.03384 0.16955
# Poissons Ratio (y) = 0.03372 0.21391
# Poissons Ratio (z) = 0.31811 0.40284
#
# Static dielectric constant tensor:
#      x y z
#    x 2.052070 0.000000 0.006400 
#    y 0.000000 2.031870 0.000000 
#    z 0.006400 0.000000 1.995470 
# 
# From -- ./inp_files/204337.got.cif
#   From: 2010.05.17/outbox.cif.g08.bks.cpg/sg15_103_cif.got.tgz:204337.got - 2010.06.03 18:47:42.
