data_PCOD9286559
_publ_section_title
;
Structure prediction by ZEFSAII (Michael W. Deem and Ramdas Pophale) SiO2 
 PCOD9286559
Probable space group: C 2/C
;
_chemical_formula_sum "Si O2"
_cell_formula_units_Z 52
_cell_length_a 18.704366
_cell_length_b 16.872264
_cell_length_c 9.145430
_cell_angle_alpha 90.000000
_cell_angle_beta 129.092876
_cell_angle_gamma 90.000000
_cell_volume 2240.020820
_symmetry_space_group_name_H-M "C 2/C"
_symmetry_group_IT_number 15
_symmetry_cell_setting 'monoclinic'
loop_
_space_group_symop_operation_xyz
x,y,z
-x,y,1/2-z
-x,-y,-z
x,-y,1/2+z
1/2+x,1/2+y,z
1/2-x,1/2+y,1/2-z
1/2-x,1/2-y,-z
1/2+x,1/2-y,1/2+z
loop_
_atom_site_type_symbol
_atom_site_label
_atom_site_fract_x
_atom_site_fract_y
_atom_site_fract_z
Si Si1 0.000000 0.813904 0.250000
Si Si2 0.000000 0.490191 0.250000
Si Si3 0.319493 0.234381 0.345814
Si Si4 0.000000 0.787016 0.750000
Si Si5 0.121685 0.430759 0.665056
Si Si6 0.874887 0.178570 0.354367
Si Si7 0.360202 0.602051 0.777669
Si Si8 0.684626 0.482601 0.564031
O O1 0.074479 0.771617 0.449598
O O2 0.051642 0.868171 0.198003
O O3 0.936111 0.543863 0.269892
O O4 0.060090 0.438805 0.440441
O O5 0.414539 0.243013 0.559333
O O6 0.337158 0.157258 0.268995
O O7 0.224714 0.215936 0.308453
O O8 0.307549 0.316232 0.242564
O O9 0.942538 0.828594 0.804984
O O10 0.207850 0.490262 0.759619
O O11 0.853735 0.093937 0.400167
O O12 0.369875 0.557794 0.944663
O O13 0.318539 0.538276 0.611163
#
# Coordination Sequence:
#
# PCOD9286559 Si02
#       8
#     4   4   8   4   8   8   8   8
#     4  10  22  44  66 103 133 178 232 274 342 420
#     4  10  21  43  72 100 134 182 222 294 341 409
#     4  11  25  46  72 103 141 183 229 293 349 410
#     4  12  23  47  68 107 131 184 228 292 341 421
#     4  10  22  44  68 100 136 176 234 279 352 413
#     4  10  24  44  70  98 140 178 233 283 349 413
#     4  11  24  44  68  99 135 182 232 286 345 412
#     4  10  24  42  67  97 134 186 232 281 344 423
#
# _framework density 23.214071000000001
#
# number of rings (size 3 to 8) (size 9 to 14) (size 15 to 20)
#    0.000    1.538    1.538    1.846    2.154    9.231 
#   11.077    0.000    0.000    0.000    0.000    0.000 
#    0.000    0.000    0.000    0.000    0.000    0.000 
#
# Total GULP energy -145099.346690 kJ/mol
# GULP energy per Si atom -5580.744103 kJ/mol
# Density = 2.316123 g / cm^3
# Si number density = 23.214071 Si / 1000 Ang^3
#
#
#
# Elastic Constant Matrix: (Units=GPa)
#
#
# Indices 1 2 3 4 5 6 
#
# 1 165.4069 31.5477 63.2487 0.0000 -7.2782 0.0000
# 2 31.5477 70.2055 26.1324 0.0000 -24.6452 0.0000
# 3 63.2487 26.1324 100.8190 0.0000 -6.0765 0.0000
# 4 0.0000 0.0000 0.0000 -26.8095 0.0000 34.5376
# 5 -7.2782 -24.6452 -6.0765 0.0000 40.4912 0.0000
# 6 0.0000 0.0000 0.0000 34.5376 0.0000 -13.1707
#
#
#
# Elastic Compliance Matrix: (Units=1/GPa)
#
#
# Indices 1 2 3 4 5 6 
#
# 1 0.008198 -0.002151 -0.004618 0.000000 -0.000528 0.000000
# 2 -0.002151 0.020497 -0.003265 0.000000 0.011599 0.000000
# 3 -0.004618 -0.003265 0.013615 0.000000 -0.000774 0.000000
# 4 0.000000 0.000000 0.000000 0.015684 0.000000 0.041129
# 5 -0.000528 0.011599 -0.000774 0.000000 0.031546 0.000000
# 6 0.000000 0.000000 0.000000 0.041129 0.000000 0.031926
#
#
# Mechanical properties :
#
#
# Convention : Reuss Voigt Hill
#
# Bulk Modulus (GPa) = 44.95378 64.25436 54.60407
# Shear Modulus (GPa) = 33.56889 14.46902 24.01895
#
# Velocity S-wave (km/s) = 3.80683 2.49928 3.22012
# Velocity P-wave (km/s) = 6.22331 6.00564 6.11544
#
# Compressibility (1/GPa) = 0.02224507
#
# Stress axis : x y z
#
# Youngs Moduli (GPa) = 121.97600 48.78668 73.44756
#
# Poissons Ratio (x) = 0.10493 0.33915
# Poissons Ratio (y) = 0.26234 0.23978
# Poissons Ratio (z) = 0.56324 0.15927
#
# Static dielectric constant tensor:
#      x y z
#    x 1.830770 0.000000 0.045110 
#    y 0.000000 1.857650 0.000000 
#    z 0.045110 0.000000 2.015040 
# 
# From -- ./inp_files/49254.got.cif
#   From: 2010.05.17/outbox.cif.g08.bks.cpg/sg15_25_cif.got.tgz:49254.got - 2010.06.03 18:47:42.
