data_PCOD9286151
_publ_section_title
;
Structure prediction by ZEFSAII (Michael W. Deem and Ramdas Pophale) SiO2 
 PCOD9286151
Probable space group: C 2/C
;
_chemical_formula_sum "Si O2"
_cell_formula_units_Z 48
_cell_length_a 11.249365
_cell_length_b 15.186476
_cell_length_c 13.913844
_cell_angle_alpha 90.000000
_cell_angle_beta 127.545425
_cell_angle_gamma 90.000000
_cell_volume 1884.665937
_symmetry_space_group_name_H-M "C 2/C"
_symmetry_group_IT_number 15
_symmetry_cell_setting 'monoclinic'
loop_
_space_group_symop_operation_xyz
x,y,z
-x,y,1/2-z
-x,-y,-z
x,-y,1/2+z
1/2+x,1/2+y,z
1/2-x,1/2+y,1/2-z
1/2-x,1/2-y,-z
1/2+x,1/2-y,1/2+z
loop_
_atom_site_type_symbol
_atom_site_label
_atom_site_fract_x
_atom_site_fract_y
_atom_site_fract_z
Si Si1 0.914076 0.576180 0.612056
Si Si2 0.345942 0.114356 0.052444
Si Si3 0.079072 0.000845 0.189021
Si Si4 0.382141 0.211147 0.894563
Si Si5 0.112186 0.866645 0.039485
Si Si6 0.196132 0.641059 0.248853
O O1 0.847448 0.489059 0.531013
O O2 0.779973 0.638956 0.580831
O O3 0.000000 0.542870 0.750000
O O4 0.033333 0.628488 0.608892
O O5 0.520153 0.141935 0.146794
O O6 0.274390 0.125247 0.122112
O O7 0.286346 0.174467 0.937237
O O8 0.112384 0.914750 0.142609
O O9 0.000000 0.981163 0.250000
O O10 0.227292 0.061430 0.270081
O O11 0.970763 0.064127 0.072859
O O12 0.278244 0.266629 0.770953
O O13 0.514200 0.278966 0.988558
#
# Coordination Sequence:
#
# PCOD9286151 Si02
#       6
#     8   8   8   8   8   8
#     4  12  24  45  68  98 138 182 229 280 343 408
#     4  11  22  46  70  94 143 181 220 285 333 406
#     4  10  21  42  74  98 137 187 225 277 347 408
#     4  11  26  40  71 102 137 180 224 283 347 402
#     4  10  23  45  64 105 141 171 232 291 330 413
#     4  10  22  45  66 101 138 176 229 281 329 401
#
# _framework density 25.468703999999999
#
# number of rings (size 3 to 8) (size 9 to 14) (size 15 to 20)
#    0.000    1.333    3.333    1.500    4.667    2.667 
#    6.000    0.000    0.000    0.000    0.000    0.000 
#    0.000    0.000    0.000    0.000    0.000    0.000 
#
# Total GULP energy -134611.746359 kJ/mol
# GULP energy per Si atom -5608.822765 kJ/mol
# Density = 2.541074 g / cm^3
# Si number density = 25.468704 Si / 1000 Ang^3
#
#
#
# Elastic Constant Matrix: (Units=GPa)
#
#
# Indices 1 2 3 4 5 6 
#
# 1 103.9843 12.7130 14.7546 0.0000 -11.9852 0.0000
# 2 12.7130 126.1684 15.2416 0.0000 -15.8459 0.0000
# 3 14.7546 15.2416 56.0281 0.0000 -9.0050 0.0000
# 4 0.0000 0.0000 0.0000 21.1704 0.0000 -2.5759
# 5 -11.9852 -15.8459 -9.0050 0.0000 43.9360 0.0000
# 6 0.0000 0.0000 0.0000 -2.5759 0.0000 34.9181
#
#
#
# Elastic Compliance Matrix: (Units=1/GPa)
#
#
# Indices 1 2 3 4 5 6 
#
# 1 0.010241 -0.000493 -0.002215 0.000000 0.002162 0.000000
# 2 -0.000493 0.008513 -0.001773 0.000000 0.002573 0.000000
# 3 -0.002215 -0.001773 0.019351 0.000000 0.002723 0.000000
# 4 0.000000 0.000000 0.000000 0.047664 0.000000 0.003516
# 5 0.002162 0.002573 0.002723 0.000000 0.024836 0.000000
# 6 0.000000 0.000000 0.000000 0.003516 0.000000 0.028898
#
#
# Mechanical properties :
#
#
# Convention : Reuss Voigt Hill
#
# Bulk Modulus (GPa) = 34.31291 41.28877 37.80084
# Shear Modulus (GPa) = 31.61000 36.23634 33.92317
#
# Velocity S-wave (km/s) = 3.52679 3.77607 3.65356
# Velocity P-wave (km/s) = 5.48509 5.93787 5.71596
#
# Compressibility (1/GPa) = 0.02914355
#
# Stress axis : x y z
#
# Youngs Moduli (GPa) = 97.65072 117.47035 51.67598
#
# Poissons Ratio (x) = 0.05788 0.11448
# Poissons Ratio (y) = 0.04812 0.09160
# Poissons Ratio (z) = 0.21632 0.20822
#
# Static dielectric constant tensor:
#      x y z
#    x 1.946410 0.000000 -0.000380 
#    y 0.000000 1.973910 0.000000 
#    z -0.000380 0.000000 2.071970 
# 
# From -- ./inp_files/144392.got.cif
#   From: 2010.05.17/outbox.cif.g08.bks.cpg/sg15_73_cif.got.tgz:144392.got - 2010.06.03 18:47:42.
