data_PCOD9286487
_publ_section_title
;
Structure prediction by ZEFSAII (Michael W. Deem and Ramdas Pophale) SiO2 
 PCOD9286487
Probable space group: C 2/C
;
_chemical_formula_sum "Si O2"
_cell_formula_units_Z 28
_cell_length_a 13.078403
_cell_length_b 17.522944
_cell_length_c 5.067505
_cell_angle_alpha 90.000000
_cell_angle_beta 94.236125
_cell_angle_gamma 90.000000
_cell_volume 1158.158244
_symmetry_space_group_name_H-M "C 2/C"
_symmetry_group_IT_number 15
_symmetry_cell_setting 'monoclinic'
loop_
_space_group_symop_operation_xyz
x,y,z
-x,y,1/2-z
-x,-y,-z
x,-y,1/2+z
1/2+x,1/2+y,z
1/2-x,1/2+y,1/2-z
1/2-x,1/2-y,-z
1/2+x,1/2-y,1/2+z
loop_
_atom_site_type_symbol
_atom_site_label
_atom_site_fract_x
_atom_site_fract_y
_atom_site_fract_z
Si Si1 0.673284 0.840956 0.614602
Si Si2 0.500000 0.053724 0.250000
Si Si3 0.714480 0.554225 0.721190
Si Si4 0.395357 0.677320 0.073552
O O1 0.599146 0.892956 0.767071
O O2 0.693735 0.887885 0.344970
O O3 0.620933 0.759716 0.560771
O O4 0.790888 0.829977 0.731788
O O5 0.500000 0.000000 0.500000
O O6 0.715978 0.487929 0.498222
O O7 0.617714 0.608586 0.637709
O O8 0.500000 0.673029 0.250000
#
# Coordination Sequence:
#
# PCOD9286487 Si02
#       4
#     8   4   8   8
#     4   9  22  45  68 107 142 188 241 296 359 438
#     4  12  26  46  76 110 144 188 240 306 368 424
#     4  10  21  43  69  99 139 181 235 296 350 417
#     4   9  21  46  70 104 144 196 240 294 363 436
#
# _framework density 24.176316
#
# number of rings (size 3 to 8) (size 9 to 14) (size 15 to 20)
#    1.714    0.571    0.000    1.714    2.000    1.143 
#    5.143    4.286    0.000    0.000    0.000    0.000 
#    0.000    0.000    0.000    0.000    0.000    0.000 
#
# Total GULP energy -78254.163817 kJ/mol
# GULP energy per Si atom -5589.583130 kJ/mol
# Density = 2.412129 g / cm^3
# Si number density = 24.176316 Si / 1000 Ang^3
#
#
#
# Elastic Constant Matrix: (Units=GPa)
#
#
# Indices 1 2 3 4 5 6 
#
# 1 161.2326 51.6730 49.1285 0.0000 -4.1310 0.0000
# 2 51.6730 187.5555 49.1172 0.0000 1.5894 0.0000
# 3 49.1285 49.1172 86.5346 0.0000 3.0983 0.0000
# 4 0.0000 0.0000 0.0000 23.3856 0.0000 -21.7680
# 5 -4.1310 1.5894 3.0983 0.0000 28.2173 0.0000
# 6 0.0000 0.0000 0.0000 -21.7680 0.0000 34.2760
#
#
#
# Elastic Compliance Matrix: (Units=1/GPa)
#
#
# Indices 1 2 3 4 5 6 
#
# 1 0.007778 -0.001157 -0.003817 0.000000 0.001623 0.000000
# 2 -0.001157 0.006435 -0.002988 0.000000 -0.000204 0.000000
# 3 -0.003817 -0.002988 0.015494 0.000000 -0.002092 0.000000
# 4 0.000000 0.000000 0.000000 0.104590 0.000000 0.066423
# 5 0.001623 -0.000204 -0.002092 0.000000 0.035918 0.000000
# 6 0.000000 0.000000 0.000000 0.066423 0.000000 0.071359
#
#
# Mechanical properties :
#
#
# Convention : Reuss Voigt Hill
#
# Bulk Modulus (GPa) = 72.55792 81.68445 77.12118
# Shear Modulus (GPa) = 19.07727 36.20271 27.63999
#
# Velocity S-wave (km/s) = 2.81212 3.87388 3.38489
# Velocity P-wave (km/s) = 6.37347 7.33959 6.87353
#
# Compressibility (1/GPa) = 0.01378209
#
# Stress axis : x y z
#
# Youngs Moduli (GPa) = 128.57325 155.40496 64.54037
#
# Poissons Ratio (x) = 0.17980 0.24635
# Poissons Ratio (y) = 0.14875 0.19286
# Poissons Ratio (z) = 0.49077 0.46439
#
# Static dielectric constant tensor:
#      x y z
#    x 1.966800 0.000000 -0.005330 
#    y 0.000000 1.919970 0.000000 
#    z -0.005330 0.000000 1.955970 
# 
# From -- ./inp_files/6379.got.cif
#   From: 2010.05.17/outbox.cif.g08.bks.cpg/sg15_4_cif.got.tgz:6379.got - 2010.06.03 18:47:42.
