data_PCOD9286447
_publ_section_title
;
Structure prediction by ZEFSAII (Michael W. Deem and Ramdas Pophale) SiO2 
 PCOD9286447
Probable space group: C 2/C
;
_chemical_formula_sum "Si O2"
_cell_formula_units_Z 56
_cell_length_a 19.868775
_cell_length_b 23.016847
_cell_length_c 11.508608
_cell_angle_alpha 90.000000
_cell_angle_beta 25.495869
_cell_angle_gamma 90.000000
_cell_volume 2265.470527
_symmetry_space_group_name_H-M "C 2/C"
_symmetry_group_IT_number 15
_symmetry_cell_setting 'monoclinic'
loop_
_space_group_symop_operation_xyz
x,y,z
-x,y,1/2-z
-x,-y,-z
x,-y,1/2+z
1/2+x,1/2+y,z
1/2-x,1/2+y,1/2-z
1/2-x,1/2-y,-z
1/2+x,1/2-y,1/2+z
loop_
_atom_site_type_symbol
_atom_site_label
_atom_site_fract_x
_atom_site_fract_y
_atom_site_fract_z
Si Si1 0.336723 0.107065 0.522627
Si Si2 0.823628 0.087903 0.489519
Si Si3 0.338315 0.020858 0.307080
Si Si4 0.069755 0.172846 0.813501
Si Si5 0.770962 0.129908 0.164694
Si Si6 0.697911 0.277811 0.489111
Si Si7 0.067389 0.268999 0.996576
O O1 0.358607 0.056326 0.393918
O O2 0.175745 0.137304 0.738019
O O3 0.298604 0.088500 0.712499
O O4 0.500000 0.141452 0.250000
O O5 0.827026 0.154735 0.444798
O O6 0.000000 0.073658 0.250000
O O7 0.762770 0.036054 0.505714
O O8 0.256026 0.064856 0.341779
O O9 0.500000 0.000000 0.000000
O O10 0.157343 0.165045 0.555946
O O11 0.074879 0.236499 0.860057
O O12 0.900734 0.141427 0.061424
O O13 0.607803 0.162632 0.443962
O O14 0.729064 0.257580 0.309458
O O15 0.866204 0.266993 0.302846
O O16 0.500000 0.261145 0.750000
#
# Coordination Sequence:
#
# PCOD9286447 Si02
#       7
#     8   8   8   8   8   8   8
#     4  11  23  46  74 104 145 199 250 318 385 458
#     4  12  25  48  74 106 150 198 257 313 381 469
#     4  11  26  47  72 110 152 200 259 315 388 455
#     4  10  21  43  69 103 139 188 253 303 386 458
#     4  10  24  42  69 105 147 190 246 323 376 462
#     4  11  24  41  67 102 140 195 244 307 382 451
#     4  11  21  43  64  99 142 184 247 305 381 449
#
# _framework density 24.718926
#
# number of rings (size 3 to 8) (size 9 to 14) (size 15 to 20)
#    0.000    1.143    4.286    1.286    6.000    0.571 
#   12.857    0.000    0.000    0.000    0.000    0.000 
#    0.000    0.000    0.000    0.000    0.000    0.000 
#
# Total GULP energy -156089.807333 kJ/mol
# GULP energy per Si atom -5574.635976 kJ/mol
# Density = 2.466266 g / cm^3
# Si number density = 24.718926 Si / 1000 Ang^3
#
#
#
# Elastic Constant Matrix: (Units=GPa)
#
#
# Indices 1 2 3 4 5 6 
#
# 1 96.5605 16.1442 10.8319 -0.0063 -20.2808 0.0009
# 2 16.1442 86.3801 22.4994 0.0061 -17.1166 -0.0002
# 3 10.8319 22.4994 116.8154 -0.0027 -14.5251 -0.0016
# 4 -0.0063 0.0061 -0.0027 17.4275 0.0065 0.9240
# 5 -20.2808 -17.1166 -14.5251 0.0065 36.3431 -0.0041
# 6 0.0009 -0.0002 -0.0016 0.9240 -0.0041 22.6407
#
#
#
# Elastic Compliance Matrix: (Units=1/GPa)
#
#
# Indices 1 2 3 4 5 6 
#
# 1 0.011811 -0.000963 -0.000154 0.000002 0.006075 0.000001
# 2 -0.000963 0.013217 -0.001841 -0.000007 0.004952 0.000001
# 3 -0.000154 -0.001841 0.009272 0.000001 0.002753 0.000001
# 4 0.000002 -0.000007 0.000001 0.057505 -0.000012 -0.002347
# 5 0.006075 0.004952 0.002753 -0.000012 0.034338 0.000007
# 6 0.000001 0.000001 0.000001 -0.002347 0.000007 0.044264
#
#
# Mechanical properties :
#
#
# Convention : Reuss Voigt Hill
#
# Bulk Modulus (GPa) = 35.23212 44.30078 39.76645
# Shear Modulus (GPa) = 26.91292 31.96763 29.44027
#
# Velocity S-wave (km/s) = 3.30321 3.60007 3.45483
# Velocity P-wave (km/s) = 5.36957 5.93645 5.66011
#
# Compressibility (1/GPa) = 0.02838319
#
# Stress axis : x y z
#
# Youngs Moduli (GPa) = 84.66977 75.65745 107.85616
#
# Poissons Ratio (x) = 0.07288 0.01663
# Poissons Ratio (y) = 0.08156 0.19853
# Poissons Ratio (z) = 0.01305 0.13926
#
# Static dielectric constant tensor:
#      x y z
#    x 2.803870 0.000020 0.530900 
#    y 0.000020 1.987980 0.000020 
#    z 0.530900 0.000020 2.506820 
# 
# From -- ./inp_files/174710.got.cif
#   From: 2010.05.17/outbox.cif.g08.bks.cpg/sg15_88_cif.got.tgz:174710.got - 2010.06.03 18:47:42.
