data_PCOD9286660
_publ_section_title
;
Structure prediction by ZEFSAII (Michael W. Deem and Ramdas Pophale) SiO2 
 PCOD9286660
Probable space group: C 2/C
;
_chemical_formula_sum "Si O2"
_cell_formula_units_Z 44
_cell_length_a 16.038803
_cell_length_b 7.982439
_cell_length_c 20.415925
_cell_angle_alpha 90.000000
_cell_angle_beta 138.964194
_cell_angle_gamma 90.000000
_cell_volume 1716.056405
_symmetry_space_group_name_H-M "C 2/C"
_symmetry_group_IT_number 15
_symmetry_cell_setting 'monoclinic'
loop_
_space_group_symop_operation_xyz
x,y,z
-x,y,1/2-z
-x,-y,-z
x,-y,1/2+z
1/2+x,1/2+y,z
1/2-x,1/2+y,1/2-z
1/2-x,1/2-y,-z
1/2+x,1/2-y,1/2+z
loop_
_atom_site_type_symbol
_atom_site_label
_atom_site_fract_x
_atom_site_fract_y
_atom_site_fract_z
Si Si1 0.172855 0.009484 0.173091
Si Si2 0.059526 0.353110 0.146908
Si Si3 0.245833 0.068821 0.085249
Si Si4 0.000000 0.358992 0.250000
Si Si5 0.868772 0.100505 0.710357
Si Si6 0.274531 0.078870 0.474308
O O1 0.114801 0.194542 0.142561
O O2 0.160684 0.968008 0.088178
O O3 0.325475 0.986115 0.276791
O O4 0.117044 0.909325 0.202485
O O5 0.025945 0.271903 0.197583
O O6 0.924992 0.433043 0.047318
O O7 0.275167 0.250318 0.131564
O O8 0.381204 0.977404 0.166322
O O9 0.214339 0.055374 0.990175
O O10 0.000000 0.123702 0.750000
O O11 0.799197 0.938979 0.637261
O O12 0.250000 0.250000 0.500000
#
# Coordination Sequence:
#
# PCOD9286660 Si02
#       6
#     8   8   8   4   8   8
#     4  11  23  41  70 101 134 174 235 278 346 401
#     4  10  22  42  67 100 135 180 223 285 336 407
#     4  10  21  44  64  98 134 176 224 283 337 402
#     4   8  18  36  70  86 134 172 220 274 336 402
#     4  12  25  43  71 100 132 187 235 279 342 414
#     4  11  26  44  69 101 143 180 227 283 347 407
#
# _framework density 25.640183
#
# number of rings (size 3 to 8) (size 9 to 14) (size 15 to 20)
#    0.000    1.455    2.727    1.636    8.909    0.727 
#    0.000    3.636    0.000    0.000    0.000    0.000 
#    0.000    0.000    0.000    0.000    0.000    0.000 
#
# Total GULP energy -122772.924279 kJ/mol
# GULP energy per Si atom -5580.587467 kJ/mol
# Density = 2.558182 g / cm^3
# Si number density = 25.640183 Si / 1000 Ang^3
#
#
#
# Elastic Constant Matrix: (Units=GPa)
#
#
# Indices 1 2 3 4 5 6 
#
# 1 181.6710 19.8104 37.2819 0.0000 -14.8775 0.0000
# 2 19.8104 71.2962 9.7143 0.0000 -6.2313 0.0000
# 3 37.2819 9.7143 71.0889 0.0000 -0.6401 0.0000
# 4 0.0000 0.0000 0.0000 26.7372 0.0000 2.4385
# 5 -14.8775 -6.2313 -0.6401 0.0000 39.8862 0.0000
# 6 0.0000 0.0000 0.0000 2.4385 0.0000 35.5639
#
#
#
# Elastic Compliance Matrix: (Units=1/GPa)
#
#
# Indices 1 2 3 4 5 6 
#
# 1 0.006470 -0.001169 -0.003214 0.000000 0.002179 0.000000
# 2 -0.001169 0.014699 -0.001379 0.000000 0.001838 0.000000
# 3 -0.003214 -0.001379 0.015930 0.000000 -0.001158 0.000000
# 4 0.000000 0.000000 0.000000 0.037636 0.000000 -0.002581
# 5 0.002179 0.001838 -0.001158 0.000000 0.026153 0.000000
# 6 0.000000 0.000000 0.000000 -0.002581 0.000000 0.028295
#
#
# Mechanical properties :
#
#
# Convention : Reuss Voigt Hill
#
# Bulk Modulus (GPa) = 39.09948 50.85214 44.97581
# Shear Modulus (GPa) = 33.50461 37.58742 35.54602
#
# Velocity S-wave (km/s) = 3.61878 3.83294 3.72740
# Velocity P-wave (km/s) = 5.72217 6.28208 6.00865
#
# Compressibility (1/GPa) = 0.02557579
#
# Stress axis : x y z
#
# Youngs Moduli (GPa) = 154.56145 68.02972 62.77366
#
# Poissons Ratio (x) = 0.07956 0.20173
# Poissons Ratio (y) = 0.18075 0.08655
# Poissons Ratio (z) = 0.49671 0.09380
#
# Static dielectric constant tensor:
#      x y z
#    x 2.050110 0.000000 -0.063090 
#    y 0.000000 2.127380 0.000000 
#    z -0.063090 0.000000 2.098200 
# 
# From -- ./inp_files/242626.got.cif
#   From: 2010.05.17/outbox.cif.g08.bks.cpg/sg15_122_cif.got.tgz:242626.got - 2010.06.03 18:47:42.
