data_PCOD9286691
_publ_section_title
;
Structure prediction by ZEFSAII (Michael W. Deem and Ramdas Pophale) SiO2 
 PCOD9286691
Probable space group: C 2/C
;
_chemical_formula_sum "Si O2"
_cell_formula_units_Z 40
_cell_length_a 5.086503
_cell_length_b 13.924374
_cell_length_c 26.318379
_cell_angle_alpha 90.000000
_cell_angle_beta 130.429474
_cell_angle_gamma 90.000000
_cell_volume 1418.912585
_symmetry_space_group_name_H-M "C 2/C"
_symmetry_group_IT_number 15
_symmetry_cell_setting 'monoclinic'
loop_
_space_group_symop_operation_xyz
x,y,z
-x,y,1/2-z
-x,-y,-z
x,-y,1/2+z
1/2+x,1/2+y,z
1/2-x,1/2+y,1/2-z
1/2-x,1/2-y,-z
1/2+x,1/2-y,1/2+z
loop_
_atom_site_type_symbol
_atom_site_label
_atom_site_fract_x
_atom_site_fract_y
_atom_site_fract_z
Si Si1 0.164210 0.867206 0.072951
Si Si2 0.157613 0.684675 0.430885
Si Si3 0.376709 0.451612 0.291295
Si Si4 0.812241 0.961657 0.573340
Si Si5 0.123781 0.752783 0.320612
O O1 0.877723 0.798934 0.064523
O O2 0.143140 0.837773 0.201001
O O3 0.125643 0.977588 0.084730
O O4 0.026996 0.854327 0.997585
O O5 0.848606 0.639091 0.425449
O O6 0.480164 0.815212 0.367271
O O7 0.133708 0.675187 0.366986
O O8 0.500000 0.466378 0.250000
O O9 0.635644 0.492257 0.364666
O O10 0.000000 0.494655 0.250000
O O11 0.500000 0.000000 0.500000
O O12 0.000000 0.716366 0.250000
#
# Coordination Sequence:
#
# PCOD9286691 Si02
#       5
#     8   8   8   8   8
#     4  10  21  44  66 101 144 187 252 319 385 466
#     4  10  22  41  69 101 141 189 251 319 387 456
#     4  11  24  46  72 101 146 202 247 313 402 478
#     4  10  21  44  72 101 140 195 250 315 388 468
#     4  11  23  40  71 100 142 199 251 313 392 480
#
# _framework density 28.190602999999999
#
# number of rings (size 3 to 8) (size 9 to 14) (size 15 to 20)
#    0.000    1.600    2.000    3.000    0.000    0.000 
#   10.800    5.000    0.000    0.000    0.000    0.000 
#    0.000    0.000    0.000    0.000    0.000    0.000 
#
# Total GULP energy -111750.478666 kJ/mol
# GULP energy per Si atom -5587.523933 kJ/mol
# Density = 2.812644 g / cm^3
# Si number density = 28.190603 Si / 1000 Ang^3
#
#
#
# Elastic Constant Matrix: (Units=GPa)
#
#
# Indices 1 2 3 4 5 6 
#
# 1 119.8885 49.5668 70.8743 0.0000 31.5739 0.0000
# 2 49.5668 140.1874 72.9276 0.0000 5.0163 0.0000
# 3 70.8743 72.9276 248.5028 -0.0001 -21.0959 0.0005
# 4 0.0000 0.0000 -0.0001 33.4307 -0.0001 -8.8581
# 5 31.5739 5.0163 -21.0959 -0.0001 37.3135 0.0002
# 6 0.0000 0.0000 0.0005 -8.8581 0.0002 20.6947
#
#
#
# Elastic Compliance Matrix: (Units=1/GPa)
#
#
# Indices 1 2 3 4 5 6 
#
# 1 0.017417 -0.002555 -0.005714 0.000000 -0.017625 0.000000
# 2 -0.002555 0.009052 -0.001941 0.000000 -0.000152 0.000000
# 3 -0.005714 -0.001941 0.006991 0.000000 0.009048 0.000000
# 4 0.000000 0.000000 0.000000 0.033739 0.000000 0.014442
# 5 -0.017625 -0.000152 0.009048 0.000000 0.046850 -0.000001
# 6 0.000000 0.000000 0.000000 0.014442 -0.000001 0.054503
#
#
# Mechanical properties :
#
#
# Convention : Reuss Voigt Hill
#
# Bulk Modulus (GPa) = 76.68084 99.47955 88.08020
# Shear Modulus (GPa) = 25.86413 39.30177 32.58295
#
# Velocity S-wave (km/s) = 3.03227 3.73788 3.40341
# Velocity P-wave (km/s) = 6.28645 7.34804 6.83788
#
# Compressibility (1/GPa) = 0.01304107
#
# Stress axis : x y z
#
# Youngs Moduli (GPa) = 57.41537 110.47684 143.03480
#
# Poissons Ratio (x) = 0.28229 0.81726
# Poissons Ratio (y) = 0.14671 0.27756
# Poissons Ratio (z) = 0.32806 0.21438
#
# Static dielectric constant tensor:
#      x y z
#    x 2.361430 0.000000 0.004670 
#    y 0.000000 2.280740 0.000000 
#    z 0.004670 0.000000 2.221560 
# 
# From -- ./inp_files/261784.got.cif
#   From: 2010.05.17/outbox.cif.g08.bks.cpg/sg15_131_cif.got.tgz:261784.got - 2010.06.03 18:47:42.
