data_PCOD9286348
_publ_section_title
;
Structure prediction by ZEFSAII (Michael W. Deem and Ramdas Pophale) SiO2 
 PCOD9286348
Probable space group: C 2/C
;
_chemical_formula_sum "Si O2"
_cell_formula_units_Z 40
_cell_length_a 15.829445
_cell_length_b 14.610925
_cell_length_c 18.363545
_cell_angle_alpha 90.000000
_cell_angle_beta 27.807859
_cell_angle_gamma 90.000000
_cell_volume 1981.339925
_symmetry_space_group_name_H-M "C 2/C"
_symmetry_group_IT_number 15
_symmetry_cell_setting 'monoclinic'
loop_
_space_group_symop_operation_xyz
x,y,z
-x,y,1/2-z
-x,-y,-z
x,-y,1/2+z
1/2+x,1/2+y,z
1/2-x,1/2+y,1/2-z
1/2-x,1/2-y,-z
1/2+x,1/2-y,1/2+z
loop_
_atom_site_type_symbol
_atom_site_label
_atom_site_fract_x
_atom_site_fract_y
_atom_site_fract_z
Si Si1 0.679598 0.658941 0.159437
Si Si2 0.656048 0.026649 0.939261
Si Si3 0.074610 0.687550 0.116280
Si Si4 0.159439 0.835558 0.289435
Si Si5 0.003468 0.785628 0.936974
O O1 0.500000 0.670878 0.250000
O O2 0.780524 0.564108 0.067734
O O3 0.615137 0.657792 0.292887
O O4 0.820142 0.742199 0.044471
O O5 0.822108 0.069778 0.766651
O O6 0.604146 0.105916 0.036359
O O7 0.500000 0.000000 0.000000
O O8 0.000000 0.651662 0.250000
O O9 0.933025 0.758277 0.189233
O O10 0.250000 0.750000 0.000000
O O11 0.052647 0.837442 0.446800
O O12 0.364029 0.799199 0.145540
#
# Coordination Sequence:
#
# PCOD9286348 Si02
#       5
#     8   8   8   8   8
#     4  11  24  41  65  95 131 168 220 281 328 386
#     4  12  24  43  66  98 136 171 227 279 317 405
#     4  12  24  42  70  99 136 178 219 279 348 395
#     4  11  20  41  68  92 128 177 219 259 337 404
#     4  10  21  43  67  88 125 182 217 259 336 405
#
# _framework density 20.188358999999998
#
# number of rings (size 3 to 8) (size 9 to 14) (size 15 to 20)
#    0.000    0.800    6.000    1.800    2.800    0.800 
#    3.600    1.000    0.000    0.000    0.000    0.000 
#    0.000    0.000    0.000    0.000    0.000    0.000 
#
# Total GULP energy -111729.645930 kJ/mol
# GULP energy per Si atom -5586.482296 kJ/mol
# Density = 2.014241 g / cm^3
# Si number density = 20.188359 Si / 1000 Ang^3
#
#
#
# Elastic Constant Matrix: (Units=GPa)
#
#
# Indices 1 2 3 4 5 6 
#
# 1 76.4015 15.4419 15.2009 -0.0039 -10.2219 0.0013
# 2 15.4419 79.2656 12.7867 0.0031 4.7394 -0.0005
# 3 15.2009 12.7867 71.3215 0.0039 9.0881 -0.0013
# 4 -0.0039 0.0031 0.0039 34.7649 -0.0017 2.1424
# 5 -10.2219 4.7394 9.0881 -0.0017 49.7474 0.0001
# 6 0.0013 -0.0005 -0.0013 2.1424 0.0001 27.5035
#
#
#
# Elastic Compliance Matrix: (Units=1/GPa)
#
#
# Indices 1 2 3 4 5 6 
#
# 1 0.014761 -0.002595 -0.003173 0.000002 0.003860 -0.000001
# 2 -0.002595 0.013481 -0.001671 -0.000001 -0.001512 0.000000
# 3 -0.003173 -0.001671 0.015419 -0.000002 -0.003309 0.000001
# 4 0.000002 -0.000001 -0.000002 0.028903 0.000002 -0.002251
# 5 0.003860 -0.001512 -0.003309 0.000002 0.021643 -0.000001
# 6 -0.000001 0.000000 0.000001 -0.002251 -0.000001 0.036534
#
#
# Mechanical properties :
#
#
# Convention : Reuss Voigt Hill
#
# Bulk Modulus (GPa) = 34.74204 34.87197 34.80700
# Shear Modulus (GPa) = 32.21376 34.64044 33.42710
#
# Velocity S-wave (km/s) = 3.99890 4.14679 4.07352
# Velocity P-wave (km/s) = 6.21031 6.34339 6.27720
#
# Compressibility (1/GPa) = 0.02878357
#
# Stress axis : x y z
#
# Youngs Moduli (GPa) = 67.74706 74.17691 64.85698
#
# Poissons Ratio (x) = 0.19246 0.20577
# Poissons Ratio (y) = 0.17577 0.10839
# Poissons Ratio (z) = 0.21494 0.12397
#
# Static dielectric constant tensor:
#      x y z
#    x 1.740910 0.000000 0.003370 
#    y 0.000000 1.698880 0.000000 
#    z 0.003370 0.000000 1.731550 
# 
# From -- ./inp_files/37950.got.cif
#   From: 2010.05.17/outbox.cif.g08.bks.cpg/sg15_19_cif.got.tgz:37950.got - 2010.06.03 18:47:42.
