data_PCOD9286710
_publ_section_title
;
Structure prediction by ZEFSAII (Michael W. Deem and Ramdas Pophale) SiO2 
 PCOD9286710
Probable space group: C 2/C
;
_chemical_formula_sum "Si O2"
_cell_formula_units_Z 60
_cell_length_a 24.416695
_cell_length_b 11.882668
_cell_length_c 8.116747
_cell_angle_alpha 90.000000
_cell_angle_beta 82.758884
_cell_angle_gamma 90.000000
_cell_volume 2336.174349
_symmetry_space_group_name_H-M "C 2/C"
_symmetry_group_IT_number 15
_symmetry_cell_setting 'monoclinic'
loop_
_space_group_symop_operation_xyz
x,y,z
-x,y,1/2-z
-x,-y,-z
x,-y,1/2+z
1/2+x,1/2+y,z
1/2-x,1/2+y,1/2-z
1/2-x,1/2-y,-z
1/2+x,1/2-y,1/2+z
loop_
_atom_site_type_symbol
_atom_site_label
_atom_site_fract_x
_atom_site_fract_y
_atom_site_fract_z
Si Si1 0.332974 0.939402 0.560801
Si Si2 0.447066 0.562183 0.395472
Si Si3 0.492244 0.233835 0.488036
Si Si4 0.601840 0.357692 0.879278
Si Si5 0.407759 0.898459 0.806556
Si Si6 0.294524 0.346594 0.453527
Si Si7 0.500000 0.929732 0.250000
Si Si8 0.250364 0.564556 0.660301
O O1 0.369224 0.863431 0.669189
O O2 0.292363 0.875679 0.448731
O O3 0.369217 0.035255 0.452791
O O4 0.291601 0.007419 0.694718
O O5 0.500000 0.544107 0.250000
O O6 0.466448 0.660208 0.515077
O O7 0.428965 0.450858 0.497105
O O8 0.393338 0.591101 0.303806
O O9 0.443416 0.262940 0.637851
O O10 0.451682 0.195233 0.354617
O O11 0.518593 0.132289 0.576255
O O12 0.650775 0.310886 0.969984
O O13 0.447978 0.994820 0.724676
O O14 0.250000 0.250000 0.500000
O O15 0.279631 0.463432 0.551547
O O16 0.293346 0.369075 0.258292
#
# Coordination Sequence:
#
# PCOD9286710 Si02
#       8
#     8   8   8   8   8   8   4   8
#     4   9  20  37  65  84 128 176 214 271 348 391
#     4  10  21  44  66  94 129 177 225 281 330 395
#     4  11  22  39  63  91 132 176 218 269 333 407
#     4  11  23  41  71  92 129 169 231 271 342 394
#     4  11  22  37  60  93 132 176 221 261 343 405
#     4  11  24  42  75 102 133 184 229 283 353 411
#     4  12  22  40  56  94 136 176 212 274 324 398
#     4   9  21  44  65  94 136 166 225 295 329 403
#
# _framework density 25.683015000000001
#
# number of rings (size 3 to 8) (size 9 to 14) (size 15 to 20)
#    0.000    1.600    3.333    2.800    5.600    0.000 
#    3.600    2.667    5.867    0.000    0.000    0.000 
#    0.000    0.000    0.000    0.000    0.000    0.000 
#
# Total GULP energy -167373.969270 kJ/mol
# GULP energy per Si atom -5579.132309 kJ/mol
# Density = 2.562456 g / cm^3
# Si number density = 25.683015 Si / 1000 Ang^3
#
#
#
# Elastic Constant Matrix: (Units=GPa)
#
#
# Indices 1 2 3 4 5 6 
#
# 1 102.4911 18.0398 40.1761 0.0000 41.1063 0.0000
# 2 18.0398 64.4339 18.1860 0.0000 14.7281 0.0000
# 3 40.1761 18.1860 95.6069 0.0000 53.6474 0.0000
# 4 0.0000 0.0000 0.0000 23.3934 0.0000 5.3647
# 5 41.1063 14.7281 53.6474 0.0000 69.5966 0.0000
# 6 0.0000 0.0000 0.0000 5.3647 0.0000 29.9849
#
#
#
# Elastic Compliance Matrix: (Units=1/GPa)
#
#
# Indices 1 2 3 4 5 6 
#
# 1 0.013201 -0.001806 -0.001838 0.000000 -0.005998 0.000000
# 2 -0.001806 0.016788 -0.001832 0.000000 -0.001074 0.000000
# 3 -0.001838 -0.001832 0.018950 0.000000 -0.013134 0.000000
# 4 0.000000 0.000000 0.000000 0.044576 0.000000 -0.007975
# 5 -0.005998 -0.001074 -0.013134 0.000000 0.028262 0.000000
# 6 0.000000 0.000000 0.000000 -0.007975 0.000000 0.034777
#
#
# Mechanical properties :
#
#
# Convention : Reuss Voigt Hill
#
# Bulk Modulus (GPa) = 26.32493 46.14841 36.23667
# Shear Modulus (GPa) = 27.75166 37.00365 32.37765
#
# Velocity S-wave (km/s) = 3.29073 3.79988 3.55444
# Velocity P-wave (km/s) = 4.97099 6.10406 5.56643
#
# Compressibility (1/GPa) = 0.03798680
#
# Stress axis : x y z
#
# Youngs Moduli (GPa) = 75.75192 59.56664 52.76965
#
# Poissons Ratio (x) = 0.10759 0.09701
# Poissons Ratio (y) = 0.13682 0.09666
# Poissons Ratio (z) = 0.13925 0.10911
#
# Static dielectric constant tensor:
#      x y z
#    x 2.083080 0.000000 -0.002180 
#    y 0.000000 2.117160 0.000000 
#    z -0.002180 0.000000 2.182430 
# 
# From -- ./inp_files/65496.got.cif
#   From: 2010.05.17/outbox.cif.g08.bks.cpg/sg15_33_cif.got.tgz:65496.got - 2010.06.03 18:47:42.
