data_PCOD9286656
_publ_section_title
;
Structure prediction by ZEFSAII (Michael W. Deem and Ramdas Pophale) SiO2 
 PCOD9286656
Probable space group: C 2/C
;
_chemical_formula_sum "Si O2"
_cell_formula_units_Z 40
_cell_length_a 7.225153
_cell_length_b 11.832745
_cell_length_c 23.931745
_cell_angle_alpha 90.000000
_cell_angle_beta 51.632385
_cell_angle_gamma 90.000000
_cell_volume 1604.159652
_symmetry_space_group_name_H-M "C 2/C"
_symmetry_group_IT_number 15
_symmetry_cell_setting 'monoclinic'
loop_
_space_group_symop_operation_xyz
x,y,z
-x,y,1/2-z
-x,-y,-z
x,-y,1/2+z
1/2+x,1/2+y,z
1/2-x,1/2+y,1/2-z
1/2-x,1/2-y,-z
1/2+x,1/2-y,1/2+z
loop_
_atom_site_type_symbol
_atom_site_label
_atom_site_fract_x
_atom_site_fract_y
_atom_site_fract_z
Si Si1 0.523809 0.503556 0.655380
Si Si2 0.228623 0.528013 0.567136
Si Si3 0.837576 0.349764 0.524075
Si Si4 0.830453 0.422166 0.695401
Si Si5 0.614092 0.283854 0.384007
O O1 0.620251 0.406059 0.597298
O O2 0.694255 0.502596 0.676979
O O3 0.269863 0.463045 0.727028
O O4 0.532829 0.622365 0.621829
O O5 0.500000 0.500000 0.500000
O O6 0.093505 0.555455 0.534452
O O7 0.217594 0.636005 0.610412
O O8 0.103705 0.433541 0.627850
O O9 0.750000 0.250000 0.500000
O O10 0.989240 0.295927 0.546475
O O11 0.772003 0.296417 0.684332
#
# Coordination Sequence:
#
# PCOD9286656 Si02
#       5
#     8   8   8   8   8
#     4  10  21  44  64  96 135 169 232 280 339 412
#     4  11  22  43  64  98 136 173 225 278 332 413
#     4   9  20  38  64  97 129 172 218 274 331 395
#     4  10  25  42  65  95 132 177 220 283 344 402
#     4  10  22  43  67  94 131 179 220 280 342 401
#
# _framework density 24.935172000000001
#
# number of rings (size 3 to 8) (size 9 to 14) (size 15 to 20)
#    0.000    2.000    2.000    0.000    0.000   12.800 
#   10.800    4.000    0.000    0.000    0.000    0.000 
#    0.000    0.000    0.000    0.000    0.000    0.000 
#
# Total GULP energy -111483.446697 kJ/mol
# GULP energy per Si atom -5574.172335 kJ/mol
# Density = 2.487842 g / cm^3
# Si number density = 24.935172 Si / 1000 Ang^3
#
#
#
# Elastic Constant Matrix: (Units=GPa)
#
#
# Indices 1 2 3 4 5 6 
#
# 1 77.7551 28.3563 39.2881 -0.0001 13.4321 0.0000
# 2 28.3563 121.6680 58.1307 0.0000 10.4320 0.0000
# 3 39.2881 58.1307 180.8334 -0.0001 -9.6935 0.0001
# 4 -0.0001 0.0000 -0.0001 23.8381 0.0001 13.7079
# 5 13.4321 10.4320 -9.6935 0.0001 47.8920 0.0000
# 6 0.0000 0.0000 0.0001 13.7079 0.0000 49.5604
#
#
#
# Elastic Compliance Matrix: (Units=1/GPa)
#
#
# Indices 1 2 3 4 5 6 
#
# 1 0.015914 -0.001812 -0.003127 0.000000 -0.004702 0.000000
# 2 -0.001812 0.010296 -0.003042 0.000000 -0.002350 0.000000
# 3 -0.003127 -0.003042 0.007350 0.000000 0.003027 0.000000
# 4 0.000000 0.000000 0.000000 0.049884 0.000000 -0.013797
# 5 -0.004702 -0.002350 0.003027 0.000000 0.023324 0.000000
# 6 0.000000 0.000000 0.000000 -0.013797 0.000000 0.023994
#
#
# Mechanical properties :
#
#
# Convention : Reuss Voigt Hill
#
# Bulk Modulus (GPa) = 56.82568 70.20074 63.51321
# Shear Modulus (GPa) = 32.76783 41.22353 36.99568
#
# Velocity S-wave (km/s) = 3.62901 4.07040 3.85603
# Velocity P-wave (km/s) = 6.35598 7.09262 6.73438
#
# Compressibility (1/GPa) = 0.01759768
#
# Stress axis : x y z
#
# Youngs Moduli (GPa) = 62.83831 97.12133 136.06209
#
# Poissons Ratio (x) = 0.17596 0.42548
# Poissons Ratio (y) = 0.11385 0.41394
# Poissons Ratio (z) = 0.19650 0.29547
#
# Static dielectric constant tensor:
#      x y z
#    x 2.151950 0.000000 -0.085410 
#    y 0.000000 2.067860 0.000000 
#    z -0.085410 0.000000 2.042090 
# 
# From -- ./inp_files/287499.got.cif
#   From: 2010.05.17/outbox.cif.g08.bks.cpg/sg15_144_cif.got.tgz:287499.got - 2010.06.03 18:47:42.
