data_PCOD9286022
_publ_section_title
;
Structure prediction by ZEFSAII (Michael W. Deem and Ramdas Pophale) SiO2 
 PCOD9286022
Probable space group: C 2/C
;
_chemical_formula_sum "Si O2"
_cell_formula_units_Z 40
_cell_length_a 10.460490
_cell_length_b 32.410457
_cell_length_c 4.914262
_cell_angle_alpha 90.000000
_cell_angle_beta 74.806256
_cell_angle_gamma 90.000000
_cell_volume 1607.841032
_symmetry_space_group_name_H-M "C 2/C"
_symmetry_group_IT_number 15
_symmetry_cell_setting 'monoclinic'
loop_
_space_group_symop_operation_xyz
x,y,z
-x,y,1/2-z
-x,-y,-z
x,-y,1/2+z
1/2+x,1/2+y,z
1/2-x,1/2+y,1/2-z
1/2-x,1/2-y,-z
1/2+x,1/2-y,1/2+z
loop_
_atom_site_type_symbol
_atom_site_label
_atom_site_fract_x
_atom_site_fract_y
_atom_site_fract_z
Si Si1 0.844840 0.239552 0.695503
Si Si2 0.154866 0.111854 0.198296
Si Si3 0.000000 0.500000 0.000000
Si Si4 0.281690 0.524774 0.081787
Si Si5 0.746623 0.344827 0.164036
Si Si6 0.000000 0.702878 0.750000
O O1 0.750000 0.250000 0.500000
O O2 0.861372 0.190495 0.703432
O O3 0.966502 0.266220 0.517506
O O4 0.750000 0.250000 0.000000
O O5 0.172021 0.067305 0.324050
O O6 0.229680 0.143657 0.358925
O O7 0.000000 0.120874 0.250000
O O8 0.216757 0.115679 0.865671
O O9 0.881446 0.521265 0.321492
O O10 0.000000 0.464142 0.250000
O O11 0.324500 0.487962 0.259376
O O12 0.884317 0.325797 0.191845
#
# Coordination Sequence:
#
# PCOD9286022 Si02
#       6
#     8   8   4   8   8   4
#     4  10  22  42  73 106 147 196 256 318 382 460
#     4  12  27  47  68 103 156 202 247 312 382 464
#     4   8  16  34  60  96 132 160 228 288 356 440
#     4  10  21  42  70 101 136 188 249 302 378 458
#     4  11  25  47  70 110 149 198 251 317 394 446
#     4  10  24  48  78 114 150 200 268 326 390 472
#
# _framework density 24.878084000000001
#
# number of rings (size 3 to 8) (size 9 to 14) (size 15 to 20)
#    0.000    1.600    0.000    4.200    1.400    8.000 
#   23.400    0.000    0.000    0.000    0.000    0.000 
#    0.000    0.000    0.000    0.000    0.000    0.000 
#
# Total GULP energy -111462.242294 kJ/mol
# GULP energy per Si atom -5573.112115 kJ/mol
# Density = 2.482146 g / cm^3
# Si number density = 24.878084 Si / 1000 Ang^3
#
#
#
# Elastic Constant Matrix: (Units=GPa)
#
#
# Indices 1 2 3 4 5 6 
#
# 1 118.5570 19.0511 28.8096 0.0000 4.7331 0.0000
# 2 19.0511 87.0870 12.6195 0.0000 7.4977 0.0000
# 3 28.8096 12.6195 204.9995 0.0000 32.9884 0.0000
# 4 0.0000 0.0000 0.0000 16.4956 0.0000 -16.0636
# 5 4.7331 7.4977 32.9884 0.0000 30.2229 0.0000
# 6 0.0000 0.0000 0.0000 -16.0636 0.0000 -4.8782
#
#
#
# Elastic Compliance Matrix: (Units=1/GPa)
#
#
# Indices 1 2 3 4 5 6 
#
# 1 0.009008 -0.001826 -0.001212 0.000000 0.000366 0.000000
# 2 -0.001826 0.012120 -0.000063 0.000000 -0.002652 0.000000
# 3 -0.001212 -0.000063 0.006089 0.000000 -0.006440 0.000000
# 4 0.000000 0.000000 0.000000 0.014411 0.000000 -0.047454
# 5 0.000366 -0.002652 -0.006440 0.000000 0.040718 0.000000
# 6 0.000000 0.000000 0.000000 -0.047454 0.000000 -0.048730
#
#
# Mechanical properties :
#
#
# Convention : Reuss Voigt Hill
#
# Bulk Modulus (GPa) = 47.58763 59.06710 53.32736
# Shear Modulus (GPa) = 106.78594 31.71229 69.24911
#
# Velocity S-wave (km/s) = 6.55873 3.57418 5.28165
# Velocity P-wave (km/s) = 8.74790 6.38961 7.66005
#
# Compressibility (1/GPa) = 0.02101387
#
# Stress axis : x y z
#
# Youngs Moduli (GPa) = 111.00911 82.51003 164.23896
#
# Poissons Ratio (x) = 0.15070 0.19912
# Poissons Ratio (y) = 0.20275 0.01028
# Poissons Ratio (z) = 0.13459 0.00516
#
# Static dielectric constant tensor:
#      x y z
#    x 2.669350 0.000000 -0.180050 
#    y 0.000000 1.957340 0.000000 
#    z -0.180050 0.000000 2.214190 
# 
# From -- ./inp_files/5519.got.cif
#   From: 2010.05.17/outbox.cif.g08.bks.cpg/sg15_3_cif.got.tgz:5519.got - 2010.06.03 18:47:42.
