data_PCOD9286091
_publ_section_title
;
Structure prediction by ZEFSAII (Michael W. Deem and Ramdas Pophale) SiO2 
 PCOD9286091
Probable space group: C 2/C
;
_chemical_formula_sum "Si O2"
_cell_formula_units_Z 48
_cell_length_a 20.110943
_cell_length_b 16.743585
_cell_length_c 8.745063
_cell_angle_alpha 90.000000
_cell_angle_beta 47.805077
_cell_angle_gamma 90.000000
_cell_volume 2181.636486
_symmetry_space_group_name_H-M "C 2/C"
_symmetry_group_IT_number 15
_symmetry_cell_setting 'monoclinic'
loop_
_space_group_symop_operation_xyz
x,y,z
-x,y,1/2-z
-x,-y,-z
x,-y,1/2+z
1/2+x,1/2+y,z
1/2-x,1/2+y,1/2-z
1/2-x,1/2-y,-z
1/2+x,1/2-y,1/2+z
loop_
_atom_site_type_symbol
_atom_site_label
_atom_site_fract_x
_atom_site_fract_y
_atom_site_fract_z
Si Si1 0.986513 0.413623 0.591291
Si Si2 0.214678 0.804590 0.192387
Si Si3 0.589323 0.397397 0.806978
Si Si4 0.139689 0.288458 0.268257
Si Si5 0.381836 0.553368 0.579265
Si Si6 0.097239 0.683318 0.516586
O O1 0.059021 0.344855 0.446440
O O2 0.000000 0.424467 0.750000
O O3 0.000000 0.500000 0.500000
O O4 0.902124 0.380186 0.622193
O O5 0.284950 0.798071 0.221441
O O6 0.189025 0.896629 0.209813
O O7 0.122637 0.765101 0.395665
O O8 0.250000 0.750000 0.000000
O O9 0.609731 0.304150 0.801623
O O10 0.625504 0.459204 0.877714
O O11 0.629209 0.424155 0.581434
O O12 0.482807 0.417201 0.964458
O O13 0.162967 0.321727 0.061984
O O14 0.000000 0.683988 0.750000
#
# Coordination Sequence:
#
# PCOD9286091 Si02
#       6
#     8   8   8   8   8   8
#     4  11  23  44  70 103 137 185 238 288 350 440
#     4  12  25  41  64 103 146 181 235 299 367 421
#     4  10  22  42  71  99 134 187 238 294 343 427
#     4  11  23  41  67 101 136 189 230 294 365 422
#     4  10  22  42  66  99 138 179 240 286 353 423
#     4  10  21  42  71  94 130 186 238 285 343 435
#
# _framework density 22.001833000000001
#
# number of rings (size 3 to 8) (size 9 to 14) (size 15 to 20)
#    0.000    1.333    1.667    5.000    4.667    0.000 
#    6.000    1.667    0.000    0.000    0.000    0.000 
#    0.000    0.000    0.000    0.000    0.000    0.000 
#
# Total GULP energy -133811.152965 kJ/mol
# GULP energy per Si atom -5575.464707 kJ/mol
# Density = 2.195176 g / cm^3
# Si number density = 22.001833 Si / 1000 Ang^3
#
#
#
# Elastic Constant Matrix: (Units=GPa)
#
#
# Indices 1 2 3 4 5 6 
#
# 1 115.8465 66.0289 36.8810 0.0000 34.2723 0.0000
# 2 66.0289 176.7376 31.3366 0.0000 27.3890 0.0000
# 3 36.8810 31.3366 69.2584 0.0000 27.5078 0.0000
# 4 0.0000 0.0000 0.0000 32.4679 0.0000 9.6316
# 5 34.2723 27.3890 27.5078 0.0000 29.8723 0.0000
# 6 0.0000 0.0000 0.0000 9.6316 0.0000 35.8130
#
#
#
# Elastic Compliance Matrix: (Units=1/GPa)
#
#
# Indices 1 2 3 4 5 6 
#
# 1 0.014647 -0.003290 -0.001316 0.000000 -0.012576 0.000000
# 2 -0.003290 0.007371 -0.000628 0.000000 -0.002406 0.000000
# 3 -0.001316 -0.000628 0.023011 0.000000 -0.019104 0.000000
# 4 0.000000 0.000000 0.000000 0.033470 0.000000 -0.009001
# 5 -0.012576 -0.002406 -0.019104 0.000000 0.067702 0.000000
# 6 0.000000 0.000000 0.000000 -0.009001 0.000000 0.030344
#
#
# Mechanical properties :
#
#
# Convention : Reuss Voigt Hill
#
# Bulk Modulus (GPa) = 28.93369 70.03728 49.48548
# Shear Modulus (GPa) = 25.18477 34.80373 29.99425
#
# Velocity S-wave (km/s) = 3.38696 3.98157 3.69624
# Velocity P-wave (km/s) = 5.33615 7.28277 6.38409
#
# Compressibility (1/GPa) = 0.03456178
#
# Stress axis : x y z
#
# Youngs Moduli (GPa) = 68.27516 135.66069 43.45684
#
# Poissons Ratio (x) = 0.44629 0.05720
# Poissons Ratio (y) = 0.22461 0.02728
# Poissons Ratio (z) = 0.08987 0.08515
#
# Static dielectric constant tensor:
#      x y z
#    x 1.744230 0.000000 0.002270 
#    y 0.000000 1.731330 0.000000 
#    z 0.002270 0.000000 1.870250 
# 
# From -- ./inp_files/57709.got.cif
#   From: 2010.05.17/outbox.cif.g08.bks.cpg/sg15_29_cif.got.tgz:57709.got - 2010.06.03 18:47:42.
