data_PCOD9286579
_publ_section_title
;
Structure prediction by ZEFSAII (Michael W. Deem and Ramdas Pophale) SiO2 
 PCOD9286579
Probable space group: C 2/C
;
_chemical_formula_sum "Si O2"
_cell_formula_units_Z 64
_cell_length_a 24.796609
_cell_length_b 9.897767
_cell_length_c 11.289754
_cell_angle_alpha 90.000000
_cell_angle_beta 89.512145
_cell_angle_gamma 90.000000
_cell_volume 2770.755829
_symmetry_space_group_name_H-M "C 2/C"
_symmetry_group_IT_number 15
_symmetry_cell_setting 'monoclinic'
loop_
_space_group_symop_operation_xyz
x,y,z
-x,y,1/2-z
-x,-y,-z
x,-y,1/2+z
1/2+x,1/2+y,z
1/2-x,1/2+y,1/2-z
1/2-x,1/2-y,-z
1/2+x,1/2-y,1/2+z
loop_
_atom_site_type_symbol
_atom_site_label
_atom_site_fract_x
_atom_site_fract_y
_atom_site_fract_z
Si Si1 0.233002 0.384424 0.354360
Si Si2 0.407870 0.746960 0.892655
Si Si3 0.335313 0.631434 0.107649
Si Si4 0.578747 0.719094 0.229906
Si Si5 0.202332 0.646319 0.470174
Si Si6 0.497141 0.348357 0.546755
Si Si7 0.863210 0.461117 0.320652
Si Si8 0.160427 0.146388 0.796180
O O1 0.215459 0.232183 0.387595
O O2 0.227724 0.497190 0.455007
O O3 0.189253 0.443096 0.261349
O O4 0.291709 0.382399 0.297470
O O5 0.395168 0.658192 0.775792
O O6 0.384415 0.894376 0.862448
O O7 0.371688 0.686983 0.000268
O O8 0.468355 0.738540 0.943541
O O9 0.364057 0.655922 0.235114
O O10 0.334195 0.470532 0.106287
O O11 0.540499 0.666970 0.336095
O O12 0.554679 0.689613 0.101758
O O13 0.588301 0.879435 0.242298
O O14 0.250000 0.750000 0.500000
O O15 0.155651 0.625638 0.566133
O O16 0.174377 0.711756 0.356390
O O17 0.500000 0.500000 0.500000
#
# Coordination Sequence:
#
# PCOD9286579 Si02
#       8
#     8   8   8   8   8   8   8   8
#     4  11  23  41  61  89 137 179 228 276 332 405
#     4  11  24  41  66  94 132 173 223 284 341 413
#     4  10  23  40  62  92 128 179 221 277 342 403
#     4   9  22  42  69  95 131 170 216 277 341 410
#     4  12  25  41  63  96 137 187 231 282 335 396
#     4  10  21  43  72  98 129 168 216 282 351 412
#     4  11  23  43  67  95 136 180 227 279 341 406
#     4  12  25  36  61  96 130 173 236 281 334 397
#
# _framework density 23.098390999999999
#
# number of rings (size 3 to 8) (size 9 to 14) (size 15 to 20)
#    0.000    1.250    3.750    1.500    3.500    3.000 
#    0.000    0.000    0.000    0.000    0.000    0.000 
#    0.000    0.000    0.000    0.000    0.000    0.000 
#
# Total GULP energy -178676.765413 kJ/mol
# GULP energy per Si atom -5583.648919 kJ/mol
# Density = 2.304582 g / cm^3
# Si number density = 23.098391 Si / 1000 Ang^3
#
#
#
# Elastic Constant Matrix: (Units=GPa)
#
#
# Indices 1 2 3 4 5 6 
#
# 1 62.4162 29.7026 37.8474 0.0000 35.9890 0.0000
# 2 29.7026 114.7330 33.1333 0.0000 5.0929 0.0000
# 3 37.8474 33.1333 71.0225 0.0000 34.2266 0.0000
# 4 0.0000 0.0000 0.0000 40.9018 0.0000 -11.7738
# 5 35.9890 5.0929 34.2266 0.0000 60.9594 0.0000
# 6 0.0000 0.0000 0.0000 -11.7738 0.0000 32.2242
#
#
#
# Elastic Compliance Matrix: (Units=1/GPa)
#
#
# Indices 1 2 3 4 5 6 
#
# 1 0.030881 -0.005238 -0.007455 0.000000 -0.013608 0.000000
# 2 -0.005238 0.011239 -0.004784 0.000000 0.004839 0.000000
# 3 -0.007455 -0.004784 0.024637 0.000000 -0.009032 0.000000
# 4 0.000000 0.000000 0.000000 0.027322 0.000000 0.009983
# 5 -0.013608 0.004839 -0.009032 0.000000 0.029105 0.000000
# 6 0.000000 0.000000 0.000000 0.009983 0.000000 0.034680
#
#
# Mechanical properties :
#
#
# Convention : Reuss Voigt Hill
#
# Bulk Modulus (GPa) = 31.44299 49.94870 40.69584
# Shear Modulus (GPa) = 24.57992 36.64965 30.61478
#
# Velocity S-wave (km/s) = 3.26565 3.98763 3.64456
# Velocity P-wave (km/s) = 5.27840 6.54774 5.94703
#
# Compressibility (1/GPa) = 0.03180359
#
# Stress axis : x y z
#
# Youngs Moduli (GPa) = 32.38268 88.97920 40.58906
#
# Poissons Ratio (x) = 0.46604 0.30258
# Poissons Ratio (y) = 0.16961 0.19418
# Poissons Ratio (z) = 0.24140 0.42568
#
# Static dielectric constant tensor:
#      x y z
#    x 2.309080 0.000000 -0.066070 
#    y 0.000000 1.866680 0.000000 
#    z -0.066070 0.000000 1.950820 
# 
# From -- ./inp_files/125906.got.cif
#   From: 2010.05.17/outbox.cif.g08.bks.cpg/sg15_63_cif.got.tgz:125906.got - 2010.06.03 18:47:42.
