data_PCOD9286561
_publ_section_title
;
Structure prediction by ZEFSAII (Michael W. Deem and Ramdas Pophale) SiO2 
 PCOD9286561
Probable space group: C 2/C
;
_chemical_formula_sum "Si O2"
_cell_formula_units_Z 32
_cell_length_a 13.876189
_cell_length_b 7.169674
_cell_length_c 17.226482
_cell_angle_alpha 90.000000
_cell_angle_beta 132.836465
_cell_angle_gamma 90.000000
_cell_volume 1256.742476
_symmetry_space_group_name_H-M "C 2/C"
_symmetry_group_IT_number 15
_symmetry_cell_setting 'monoclinic'
loop_
_space_group_symop_operation_xyz
x,y,z
-x,y,1/2-z
-x,-y,-z
x,-y,1/2+z
1/2+x,1/2+y,z
1/2-x,1/2+y,1/2-z
1/2-x,1/2-y,-z
1/2+x,1/2-y,1/2+z
loop_
_atom_site_type_symbol
_atom_site_label
_atom_site_fract_x
_atom_site_fract_y
_atom_site_fract_z
Si Si1 0.752611 0.713765 0.203465
Si Si2 0.147806 0.316104 0.299137
Si Si3 0.466217 0.250384 0.139946
Si Si4 0.770900 0.491426 0.453018
O O1 0.789558 0.517354 0.184656
O O2 0.649714 0.712451 0.216523
O O3 0.716107 0.862481 0.117453
O O4 0.891935 0.772661 0.319685
O O5 0.000000 0.316196 0.250000
O O6 0.238551 0.196691 0.406817
O O7 0.500000 0.250665 0.250000
O O8 0.356256 0.408691 0.071462
O O9 0.397651 0.061459 0.072547
#
# Coordination Sequence:
#
# PCOD9286561 Si02
#       4
#     8   8   8   8
#     4  11  23  44  69 102 141 181 230 286 341 413
#     4  12  24  42  72 103 141 183 229 282 345 411
#     4   9  20  43  73  96 141 183 224 291 346 397
#     4  10  21  43  72 100 138 187 225 284 350 405
#
# _framework density 25.462653
#
# number of rings (size 3 to 8) (size 9 to 14) (size 15 to 20)
#    0.000    1.500    2.500    4.500    0.000    1.000 
#    0.000   26.250    0.000    0.000    0.000    0.000 
#    0.000    0.000    0.000    0.000    0.000    0.000 
#
# Total GULP energy -89590.120610 kJ/mol
# GULP energy per Si atom -5599.382538 kJ/mol
# Density = 2.540470 g / cm^3
# Si number density = 25.462653 Si / 1000 Ang^3
#
#
#
# Elastic Constant Matrix: (Units=GPa)
#
#
# Indices 1 2 3 4 5 6 
#
# 1 181.0833 39.6152 41.0289 0.0000 -3.3232 0.0000
# 2 39.6152 120.5884 13.7598 0.0000 -7.7160 0.0000
# 3 41.0289 13.7598 115.9254 0.0000 6.8638 0.0000
# 4 0.0000 0.0000 0.0000 48.0053 0.0000 -10.7177
# 5 -3.3232 -7.7160 6.8638 0.0000 21.8844 0.0000
# 6 0.0000 0.0000 0.0000 -10.7177 0.0000 32.5636
#
#
#
# Elastic Compliance Matrix: (Units=1/GPa)
#
#
# Indices 1 2 3 4 5 6 
#
# 1 0.006414 -0.001802 -0.002116 0.000000 0.001002 0.000000
# 2 -0.001802 0.009159 -0.000636 0.000000 0.003155 0.000000
# 3 -0.002116 -0.000636 0.009662 0.000000 -0.003576 0.000000
# 4 0.000000 0.000000 0.000000 0.022483 0.000000 0.007400
# 5 0.001002 0.003155 -0.003576 0.000000 0.048081 0.000000
# 6 0.000000 0.000000 0.000000 0.007400 0.000000 0.033145
#
#
# Mechanical properties :
#
#
# Convention : Reuss Voigt Hill
#
# Bulk Modulus (GPa) = 62.00266 67.37833 64.69049
# Shear Modulus (GPa) = 34.86080 42.03688 38.44884
#
# Velocity S-wave (km/s) = 3.70414 4.06756 3.89010
# Velocity P-wave (km/s) = 6.53433 6.96988 6.75562
#
# Compressibility (1/GPa) = 0.01612834
#
# Stress axis : x y z
#
# Youngs Moduli (GPa) = 155.90395 109.18176 103.49531
#
# Poissons Ratio (x) = 0.19670 0.21896
# Poissons Ratio (y) = 0.28088 0.06586
# Poissons Ratio (z) = 0.32984 0.06947
#
# Static dielectric constant tensor:
#      x y z
#    x 2.078010 0.000000 -0.026130 
#    y 0.000000 2.094800 0.000000 
#    z -0.026130 0.000000 1.987150 
# 
# From -- ./inp_files/202407.got.cif
#   From: 2010.05.17/outbox.cif.g08.bks.cpg/sg15_102_cif.got.tgz:202407.got - 2010.06.03 18:47:42.
