data_PCOD9286950
_publ_section_title
;
Structure prediction by ZEFSAII (Michael W. Deem and Ramdas Pophale) SiO2 
 PCOD9286950
Probable space group: C 2/C
;
_chemical_formula_sum "Si O2"
_cell_formula_units_Z 48
_cell_length_a 9.387303
_cell_length_b 23.128767
_cell_length_c 11.421986
_cell_angle_alpha 90.000000
_cell_angle_beta 107.683099
_cell_angle_gamma 90.000000
_cell_volume 2362.731710
_symmetry_space_group_name_H-M "C 2/C"
_symmetry_group_IT_number 15
_symmetry_cell_setting 'monoclinic'
loop_
_space_group_symop_operation_xyz
x,y,z
-x,y,1/2-z
-x,-y,-z
x,-y,1/2+z
1/2+x,1/2+y,z
1/2-x,1/2+y,1/2-z
1/2-x,1/2-y,-z
1/2+x,1/2-y,1/2+z
loop_
_atom_site_type_symbol
_atom_site_label
_atom_site_fract_x
_atom_site_fract_y
_atom_site_fract_z
Si Si1 0.417552 0.720852 0.855155
Si Si2 0.649516 0.441528 0.367176
Si Si3 0.720195 0.427418 0.950767
Si Si4 0.573204 0.360938 0.567000
Si Si5 0.674498 0.878509 0.282515
Si Si6 0.639092 0.851156 0.699484
O O1 0.500000 0.714442 0.750000
O O2 0.272327 0.679868 0.816091
O O3 0.382182 0.787973 0.862098
O O4 0.520513 0.696016 0.984285
O O5 0.500000 0.439059 0.250000
O O6 0.686930 0.507180 0.407946
O O7 0.619192 0.406225 0.477521
O O8 0.778789 0.410623 0.324852
O O9 0.568732 0.389413 0.904359
O O10 0.839994 0.399230 0.893839
O O11 0.774268 0.419415 0.097281
O O12 0.711232 0.349929 0.685520
O O13 0.500000 0.866911 0.250000
O O14 0.500000 0.862574 0.750000
#
# Coordination Sequence:
#
# PCOD9286950 Si02
#       6
#     8   8   8   8   8   8
#     4  10  21  45  67  94 128 180 225 263 327 403
#     4  12  22  44  71  93 131 178 229 266 323 404
#     4  11  26  42  67 100 132 177 226 268 325 398
#     4  11  22  44  70  95 128 178 227 266 328 394
#     4  11  25  41  67 100 130 174 220 276 336 382
#     4  11  27  41  66 103 137 170 215 282 340 380
#
# _framework density 20.315467999999999
#
# number of rings (size 3 to 8) (size 9 to 14) (size 15 to 20)
#    0.000    1.000    5.000    2.000    4.667    9.333 
#    0.000    0.000    0.000    0.000    0.000    0.000 
#    0.000    0.000    0.000    0.000    0.000    0.000 
#
# Total GULP energy -134326.302641 kJ/mol
# GULP energy per Si atom -5596.929277 kJ/mol
# Density = 2.026923 g / cm^3
# Si number density = 20.315468 Si / 1000 Ang^3
#
#
#
# Elastic Constant Matrix: (Units=GPa)
#
#
# Indices 1 2 3 4 5 6 
#
# 1 91.9862 15.4443 5.4066 0.0000 -5.1762 0.0000
# 2 15.4443 101.9232 15.6505 0.0000 -19.1526 0.0000
# 3 5.4066 15.6505 39.6506 0.0000 -9.8282 0.0000
# 4 0.0000 0.0000 0.0000 -3.6392 0.0000 28.0404
# 5 -5.1762 -19.1526 -9.8282 0.0000 28.1245 0.0000
# 6 0.0000 0.0000 0.0000 28.0404 0.0000 23.8722
#
#
#
# Elastic Compliance Matrix: (Units=1/GPa)
#
#
# Indices 1 2 3 4 5 6 
#
# 1 0.011202 -0.001426 -0.000760 0.000000 0.000825 0.000000
# 2 -0.001426 0.011720 -0.002757 0.000000 0.006755 0.000000
# 3 -0.000760 -0.002757 0.028369 0.000000 0.007896 0.000000
# 4 0.000000 0.000000 0.000000 -0.027341 0.000000 0.032114
# 5 0.000825 0.006755 0.007896 0.000000 0.043068 0.000000
# 6 0.000000 0.000000 0.000000 0.032114 0.000000 0.004168
#
#
# Mechanical properties :
#
#
# Convention : Reuss Voigt Hill
#
# Bulk Modulus (GPa) = 24.15147 34.06253 29.10700
# Shear Modulus (GPa) = 52.70144 22.80876 37.75510
#
# Velocity S-wave (km/s) = 5.09881 3.35435 4.31564
# Velocity P-wave (km/s) = 6.82480 5.63963 6.26032
#
# Compressibility (1/GPa) = 0.04140534
#
# Stress axis : x y z
#
# Youngs Moduli (GPa) = 89.27244 85.32328 35.24915
#
# Poissons Ratio (x) = 0.12164 0.02680
# Poissons Ratio (y) = 0.12727 0.09719
# Poissons Ratio (z) = 0.06786 0.23525
#
# Static dielectric constant tensor:
#      x y z
#    x 1.719490 0.000000 -0.000480 
#    y 0.000000 1.679760 0.000000 
#    z -0.000480 0.000000 1.698730 
# 
# From -- ./inp_files/79141.got.cif
#   From: 2010.05.17/outbox.cif.g08.bks.cpg/sg15_40_cif.got.tgz:79141.got - 2010.06.03 18:47:42.
