data_PCOD9286300
_publ_section_title
;
Structure prediction by ZEFSAII (Michael W. Deem and Ramdas Pophale) SiO2 
 PCOD9286300
Probable space group: C 2/C
;
_chemical_formula_sum "Si O2"
_cell_formula_units_Z 48
_cell_length_a 12.757219
_cell_length_b 14.329604
_cell_length_c 11.277192
_cell_angle_alpha 90.000000
_cell_angle_beta 74.611245
_cell_angle_gamma 90.000000
_cell_volume 1987.625939
_symmetry_space_group_name_H-M "C 2/C"
_symmetry_group_IT_number 15
_symmetry_cell_setting 'monoclinic'
loop_
_space_group_symop_operation_xyz
x,y,z
-x,y,1/2-z
-x,-y,-z
x,-y,1/2+z
1/2+x,1/2+y,z
1/2-x,1/2+y,1/2-z
1/2-x,1/2-y,-z
1/2+x,1/2-y,1/2+z
loop_
_atom_site_type_symbol
_atom_site_label
_atom_site_fract_x
_atom_site_fract_y
_atom_site_fract_z
Si Si1 0.877353 0.816238 0.784123
Si Si2 0.046649 0.545352 0.365071
Si Si3 0.408933 0.421581 0.532816
Si Si4 0.584876 0.223033 0.060215
Si Si5 0.786808 0.994856 0.872523
Si Si6 0.738125 0.688410 0.695191
O O1 0.876238 0.885880 0.670941
O O2 0.849418 0.897890 0.883287
O O3 0.790060 0.734777 0.795714
O O4 0.000000 0.778597 0.750000
O O5 0.174179 0.533710 0.346848
O O6 0.000000 0.511100 0.250000
O O7 0.000000 0.500000 0.500000
O O8 0.009339 0.651857 0.386485
O O9 0.500000 0.500000 0.500000
O O10 0.453038 0.326975 0.459192
O O11 0.301010 0.454066 0.495386
O O12 0.660832 0.238640 0.151371
O O13 0.657796 0.185833 0.927502
O O14 0.817396 0.086615 0.782328
#
# Coordination Sequence:
#
# PCOD9286300 Si02
#       6
#     8   8   8   8   8   8
#     4  11  22  39  63  93 129 173 224 289 340 409
#     4  12  26  44  68 105 141 180 232 291 348 411
#     4  10  21  43  66  92 130 177 232 278 348 420
#     4   9  19  41  66  88 127 180 221 273 337 429
#     4  11  23  41  67  95 129 179 222 286 341 411
#     4   9  19  39  66  87 126 177 229 258 345 423
#
# _framework density 24.149412000000002
#
# number of rings (size 3 to 8) (size 9 to 14) (size 15 to 20)
#    0.000    1.667    3.333    2.000    2.333    0.667 
#    9.000    0.833    0.000    0.000    0.000    0.000 
#    0.000    0.000    0.000    0.000    0.000    0.000 
#
# Total GULP energy -133795.093224 kJ/mol
# GULP energy per Si atom -5574.795551 kJ/mol
# Density = 2.409445 g / cm^3
# Si number density = 24.149412 Si / 1000 Ang^3
#
#
#
# Elastic Constant Matrix: (Units=GPa)
#
#
# Indices 1 2 3 4 5 6 
#
# 1 71.1046 20.3287 13.3470 0.0000 22.3531 0.0000
# 2 20.3287 84.7898 -5.4094 0.0000 -2.0170 0.0000
# 3 13.3470 -5.4094 52.8222 0.0000 6.3000 0.0000
# 4 0.0000 0.0000 0.0000 19.5229 0.0000 7.8721
# 5 22.3531 -2.0170 6.3000 0.0000 29.2706 0.0000
# 6 0.0000 0.0000 0.0000 7.8721 0.0000 58.4972
#
#
#
# Elastic Compliance Matrix: (Units=1/GPa)
#
#
# Indices 1 2 3 4 5 6 
#
# 1 0.021506 -0.005798 -0.004127 0.000000 -0.015934 0.000000
# 2 -0.005798 0.013444 0.002261 0.000000 0.004868 0.000000
# 3 -0.004127 0.002261 0.020333 0.000000 -0.001069 0.000000
# 4 0.000000 0.000000 0.000000 0.054161 0.000000 -0.007289
# 5 -0.015934 0.004868 -0.001069 0.000000 0.046898 0.000000
# 6 0.000000 0.000000 0.000000 -0.007289 0.000000 0.018076
#
#
# Mechanical properties :
#
#
# Convention : Reuss Voigt Hill
#
# Bulk Modulus (GPa) = 25.02858 29.47211 27.25034
# Shear Modulus (GPa) = 24.62272 33.48815 29.05544
#
# Velocity S-wave (km/s) = 3.19658 3.72789 3.47241
# Velocity P-wave (km/s) = 4.90007 5.54618 5.23311
#
# Compressibility (1/GPa) = 0.03995433
#
# Stress axis : x y z
#
# Youngs Moduli (GPa) = 46.49960 74.38192 49.18026
#
# Poissons Ratio (x) = 0.43130 0.20298
# Poissons Ratio (y) = 0.26962 -0.11121
# Poissons Ratio (z) = 0.19192 -0.16820
#
# Static dielectric constant tensor:
#      x y z
#    x 1.969790 0.000000 -0.052550 
#    y 0.000000 0.589490 0.000000 
#    z -0.052550 0.000000 2.156720 
# 
# From -- ./inp_files/96382.got.cif
#   From: 2010.05.17/outbox.cif.g08.bks.cpg/sg15_49_cif.got.tgz:96382.got - 2010.06.03 18:47:42.
