data_PCOD9286511
_publ_section_title
;
Structure prediction by ZEFSAII (Michael W. Deem and Ramdas Pophale) SiO2 
 PCOD9286511
Probable space group: C 2/C
;
_chemical_formula_sum "Si O2"
_cell_formula_units_Z 48
_cell_length_a 24.794951
_cell_length_b 13.767045
_cell_length_c 19.945226
_cell_angle_alpha 90.000000
_cell_angle_beta 162.702159
_cell_angle_gamma 90.000000
_cell_volume 2024.392287
_symmetry_space_group_name_H-M "C 2/C"
_symmetry_group_IT_number 15
_symmetry_cell_setting 'monoclinic'
loop_
_space_group_symop_operation_xyz
x,y,z
-x,y,1/2-z
-x,-y,-z
x,-y,1/2+z
1/2+x,1/2+y,z
1/2-x,1/2+y,1/2-z
1/2-x,1/2-y,-z
1/2+x,1/2-y,1/2+z
loop_
_atom_site_type_symbol
_atom_site_label
_atom_site_fract_x
_atom_site_fract_y
_atom_site_fract_z
Si Si1 0.270598 0.460612 0.795875
Si Si2 0.188207 0.174099 0.266588
Si Si3 0.823733 0.025266 0.002249
Si Si4 0.876254 0.341586 0.667923
Si Si5 0.404923 0.791312 0.233472
Si Si6 0.048640 0.346484 0.012948
O O1 0.359688 0.417156 0.835430
O O2 0.161812 0.554921 0.643450
O O3 0.126677 0.378855 0.651356
O O4 0.370370 0.488355 0.983032
O O5 0.391208 0.172651 0.539380
O O6 0.062038 0.199950 0.178699
O O7 0.155742 0.263258 0.177687
O O8 0.000000 0.059558 0.250000
O O9 0.685265 0.115312 0.837354
O O10 0.736392 0.935822 0.940506
O O11 0.750000 0.250000 0.500000
O O12 0.000000 0.363810 0.750000
O O13 0.993318 0.314776 0.872687
O O14 0.250000 0.750000 0.000000
#
# Coordination Sequence:
#
# PCOD9286511 Si02
#       6
#     8   8   8   8   8   8
#     4  10  21  43  70  95 131 185 222 276 344 406
#     4  12  22  42  69  98 133 173 231 278 337 414
#     4  11  24  47  70  95 141 182 229 280 348 407
#     4  11  26  42  67 103 139 178 224 278 342 406
#     4  12  26  43  70 101 135 179 225 285 349 406
#     4  10  22  42  67  95 135 177 226 272 339 409
#
# _framework density 23.710819000000001
#
# number of rings (size 3 to 8) (size 9 to 14) (size 15 to 20)
#    0.000    1.000    3.333    4.000    7.000    2.667 
#    0.000    0.833    0.000    0.000    0.000    0.000 
#    0.000    0.000    0.000    0.000    0.000    0.000 
#
# Total GULP energy -134173.263016 kJ/mol
# GULP energy per Si atom -5590.552626 kJ/mol
# Density = 2.365685 g / cm^3
# Si number density = 23.710819 Si / 1000 Ang^3
#
#
#
# Elastic Constant Matrix: (Units=GPa)
#
#
# Indices 1 2 3 4 5 6 
#
# 1 78.4759 29.2326 14.3258 0.0041 -30.8619 0.0029
# 2 29.2326 100.0338 10.7063 0.0059 -11.2782 0.0048
# 3 14.3258 10.7063 102.2408 0.0057 -29.3764 0.0046
# 4 0.0041 0.0059 0.0057 41.1205 0.0025 -4.2852
# 5 -30.8619 -11.2782 -29.3764 0.0025 34.4961 0.0023
# 6 0.0029 0.0048 0.0046 -4.2852 0.0023 38.4266
#
#
#
# Elastic Compliance Matrix: (Units=1/GPa)
#
#
# Indices 1 2 3 4 5 6 
#
# 1 0.022152 -0.004441 0.003493 -0.000004 0.021341 -0.000003
# 2 -0.004441 0.011271 -0.000848 -0.000001 -0.001011 -0.000001
# 3 0.003493 -0.000848 0.013502 -0.000003 0.014346 -0.000003
# 4 -0.000004 -0.000001 -0.000003 0.024605 -0.000008 0.002744
# 5 0.021341 -0.001011 0.014346 -0.000008 0.059968 -0.000008
# 6 -0.000003 -0.000001 -0.000003 0.002744 -0.000008 0.026330
#
#
# Mechanical properties :
#
#
# Convention : Reuss Voigt Hill
#
# Bulk Modulus (GPa) = 23.07743 43.25331 33.16537
# Shear Modulus (GPa) = 28.43084 37.90770 33.16927
#
# Velocity S-wave (km/s) = 3.46651 4.00278 3.74426
# Velocity P-wave (km/s) = 5.07703 6.29639 5.71930
#
# Compressibility (1/GPa) = 0.04333238
#
# Stress axis : x y z
#
# Youngs Moduli (GPa) = 45.14221 88.72085 74.06198
#
# Poissons Ratio (x) = 0.39403 -0.25870
# Poissons Ratio (y) = 0.20049 0.06284
# Poissons Ratio (z) = -0.15768 0.07527
#
# Static dielectric constant tensor:
#      x y z
#    x 1.967230 0.000000 0.018960 
#    y 0.000000 1.851000 0.000000 
#    z 0.018960 0.000000 1.909250 
# 
# From -- ./inp_files/257638.got.cif
#   From: 2010.05.17/outbox.cif.g08.bks.cpg/sg15_129_cif.got.tgz:257638.got - 2010.06.03 18:47:42.
