data_PCOD9286432
_publ_section_title
;
Structure prediction by ZEFSAII (Michael W. Deem and Ramdas Pophale) SiO2 
 PCOD9286432
Probable space group: C 2/C
;
_chemical_formula_sum "Si O2"
_cell_formula_units_Z 60
_cell_length_a 17.739756
_cell_length_b 8.766106
_cell_length_c 19.505606
_cell_angle_alpha 90.000000
_cell_angle_beta 59.459446
_cell_angle_gamma 90.000000
_cell_volume 2612.480037
_symmetry_space_group_name_H-M "C 2/C"
_symmetry_group_IT_number 15
_symmetry_cell_setting 'monoclinic'
loop_
_space_group_symop_operation_xyz
x,y,z
-x,y,1/2-z
-x,-y,-z
x,-y,1/2+z
1/2+x,1/2+y,z
1/2-x,1/2+y,1/2-z
1/2-x,1/2-y,-z
1/2+x,1/2-y,1/2+z
loop_
_atom_site_type_symbol
_atom_site_label
_atom_site_fract_x
_atom_site_fract_y
_atom_site_fract_z
Si Si1 0.456582 0.371083 0.920313
Si Si2 0.094296 0.893227 0.303403
Si Si3 0.750986 0.189772 0.863497
Si Si4 0.317514 0.538182 0.599381
Si Si5 0.000000 0.345921 0.750000
Si Si6 0.181036 0.657251 0.575049
Si Si7 0.368446 0.842104 0.916454
Si Si8 0.940062 0.351042 0.026194
O O1 0.519811 0.477314 0.845694
O O2 0.407414 0.250852 0.893891
O O3 0.516978 0.275731 0.945306
O O4 0.383179 0.454336 0.002776
O O5 0.183225 0.898787 0.217091
O O6 0.129403 0.882657 0.364314
O O7 0.047065 0.756297 0.285526
O O8 0.716756 0.366641 0.866549
O O9 0.807820 0.218386 0.907147
O O10 0.658132 0.106793 0.905783
O O11 0.228973 0.631660 0.624918
O O12 0.925898 0.421383 0.829177
O O13 0.250000 0.750000 0.500000
O O14 0.182139 0.492189 0.538194
O O15 0.424427 0.791840 0.955612
O O16 0.000000 0.500000 0.000000
#
# Coordination Sequence:
#
# PCOD9286432 Si02
#       8
#     8   8   8   8   4   8   8   8
#     4  11  22  42  70 103 135 180 231 285 357 410
#     4  11  23  46  66  99 139 179 232 285 340 423
#     4  10  24  44  65 100 136 183 230 278 357 407
#     4  10  21  43  72  99 135 183 226 289 351 421
#     4  10  24  42  68 100 128 178 228 280 350 398
#     4   9  20  41  65 100 133 171 222 278 350 406
#     4  10  21  43  68  97 135 174 226 282 340 421
#     4  12  23  42  71 105 134 179 233 292 344 425
#
# _framework density 22.966683
#
# number of rings (size 3 to 8) (size 9 to 14) (size 15 to 20)
#    0.000    1.600    2.667    1.600    1.867    0.000 
#   19.200    0.667    0.000    0.000    0.000    0.000 
#    0.000    0.000    0.000    0.000    0.000    0.000 
#
# Total GULP energy -167202.189144 kJ/mol
# GULP energy per Si atom -5573.406305 kJ/mol
# Density = 2.291441 g / cm^3
# Si number density = 22.966683 Si / 1000 Ang^3
#
#
#
# Elastic Constant Matrix: (Units=GPa)
#
#
# Indices 1 2 3 4 5 6 
#
# 1 162.4558 34.9081 34.5583 0.0000 -4.8295 0.0000
# 2 34.9081 67.6836 45.9073 0.0000 -2.0431 0.0001
# 3 34.5583 45.9073 110.9593 0.0000 -32.5596 0.0000
# 4 0.0000 0.0000 0.0000 20.5955 0.0000 -6.6752
# 5 -4.8295 -2.0431 -32.5596 0.0000 41.5811 0.0000
# 6 0.0000 0.0001 0.0000 -6.6752 0.0000 24.3189
#
#
#
# Elastic Compliance Matrix: (Units=1/GPa)
#
#
# Indices 1 2 3 4 5 6 
#
# 1 0.006995 -0.002934 -0.000998 0.000000 -0.000113 0.000000
# 2 -0.002934 0.023646 -0.011202 0.000000 -0.007951 0.000000
# 3 -0.000998 -0.011202 0.017868 0.000000 0.013325 0.000000
# 4 0.000000 0.000000 0.000000 0.053296 0.000000 0.014629
# 5 -0.000113 -0.007951 0.013325 0.000000 0.034079 0.000000
# 6 0.000000 0.000000 0.000000 0.014629 0.000000 0.045136
#
#
# Mechanical properties :
#
#
# Convention : Reuss Voigt Hill
#
# Bulk Modulus (GPa) = 54.82402 63.53843 59.18123
# Shear Modulus (GPa) = 23.00241 32.34743 27.67492
#
# Velocity S-wave (km/s) = 3.16817 3.75700 3.47508
# Velocity P-wave (km/s) = 6.10786 6.82244 6.47502
#
# Compressibility (1/GPa) = 0.01824018
#
# Stress axis : x y z
#
# Youngs Moduli (GPa) = 142.96080 42.29018 55.96669
#
# Poissons Ratio (x) = 0.12410 0.05584
# Poissons Ratio (y) = 0.41950 0.62695
# Poissons Ratio (z) = 0.14263 0.47375
#
# Static dielectric constant tensor:
#      x y z
#    x 1.841000 0.000000 0.047720 
#    y 0.000000 1.867110 0.000000 
#    z 0.047720 0.000000 1.897180 
# 
# From -- ./inp_files/247821.got.cif
#   From: 2010.05.17/outbox.cif.g08.bks.cpg/sg15_124_cif.got.tgz:247821.got - 2010.06.03 18:47:42.
