data_PCOD9286574
_publ_section_title
;
Structure prediction by ZEFSAII (Michael W. Deem and Ramdas Pophale) SiO2 
 PCOD9286574
Probable space group: C 2/C
;
_chemical_formula_sum "Si O2"
_cell_formula_units_Z 64
_cell_length_a 11.820788
_cell_length_b 12.947528
_cell_length_c 23.031964
_cell_angle_alpha 90.000000
_cell_angle_beta 52.061340
_cell_angle_gamma 90.000000
_cell_volume 2780.092602
_symmetry_space_group_name_H-M "C 2/C"
_symmetry_group_IT_number 15
_symmetry_cell_setting 'monoclinic'
loop_
_space_group_symop_operation_xyz
x,y,z
-x,y,1/2-z
-x,-y,-z
x,-y,1/2+z
1/2+x,1/2+y,z
1/2-x,1/2+y,1/2-z
1/2-x,1/2-y,-z
1/2+x,1/2-y,1/2+z
loop_
_atom_site_type_symbol
_atom_site_label
_atom_site_fract_x
_atom_site_fract_y
_atom_site_fract_z
Si Si1 0.674817 0.720283 0.903664
Si Si2 0.219291 0.098066 0.644949
Si Si3 0.968308 0.846321 0.625643
Si Si4 0.795776 0.036932 0.524139
Si Si5 0.545664 0.858114 0.047094
Si Si6 0.373099 0.666532 0.951276
Si Si7 0.344034 0.811814 0.776373
Si Si8 0.810457 0.122315 0.285471
O O1 0.710228 0.607045 0.916887
O O2 0.530963 0.709266 0.911480
O O3 0.798333 0.778315 0.830092
O O4 0.630649 0.795810 0.970720
O O5 0.388601 0.108597 0.577419
O O6 0.140081 0.119431 0.609178
O O7 0.172403 0.188537 0.705191
O O8 0.200818 0.985628 0.678306
O O9 0.083118 0.910514 0.554512
O O10 0.017996 0.727730 0.605510
O O11 0.943935 0.879573 0.699366
O O12 0.807449 0.852426 0.648814
O O13 0.644007 0.050961 0.539856
O O14 0.843163 0.919927 0.509363
O O15 0.250000 0.750000 0.000000
O O16 0.320755 0.854902 0.718731
O O17 0.000000 0.343214 0.750000
#
# Coordination Sequence:
#
# PCOD9286574 Si02
#       8
#     8   8   8   8   8   8   8   8
#     4  11  22  43  66 105 137 183 233 291 346 420
#     4  11  23  43  70 103 141 179 235 293 351 422
#     4   8  20  41  66 101 138 175 233 285 348 421
#     4  11  24  45  70 100 142 193 232 291 354 414
#     4  10  21  43  72  94 143 183 229 287 353 415
#     4  12  26  42  68 104 137 184 238 294 348 414
#     4   9  20  43  68  98 139 183 225 293 349 412
#     4  10  23  39  71 103 141 177 232 289 354 424
#
# _framework density 23.020816
#
# number of rings (size 3 to 8) (size 9 to 14) (size 15 to 20)
#    0.750    1.000    1.250    3.375    1.750    3.000 
#    0.000    5.000    0.000    0.000    0.000    0.000 
#    0.000    0.000    0.000    0.000    0.000    0.000 
#
# Total GULP energy -178793.921492 kJ/mol
# GULP energy per Si atom -5587.310047 kJ/mol
# Density = 2.296842 g / cm^3
# Si number density = 23.020816 Si / 1000 Ang^3
#
#
#
# Elastic Constant Matrix: (Units=GPa)
#
#
# Indices 1 2 3 4 5 6 
#
# 1 124.2266 9.4208 12.9551 0.0000 -3.1345 0.0000
# 2 9.4208 82.1826 39.0100 0.0000 20.0391 0.0000
# 3 12.9551 39.0100 77.1861 0.0000 20.5547 0.0000
# 4 0.0000 0.0000 0.0000 25.6044 0.0000 6.3188
# 5 -3.1345 20.0391 20.5547 0.0000 30.1367 0.0000
# 6 0.0000 0.0000 0.0000 6.3188 0.0000 22.7787
#
#
#
# Elastic Compliance Matrix: (Units=1/GPa)
#
#
# Indices 1 2 3 4 5 6 
#
# 1 0.008348 -0.000775 -0.001684 0.000000 0.002532 0.000000
# 2 -0.000775 0.017111 -0.006679 0.000000 -0.006902 0.000000
# 3 -0.001684 -0.006679 0.018913 0.000000 -0.008633 0.000000
# 4 0.000000 0.000000 0.000000 0.041926 0.000000 -0.011630
# 5 0.002532 -0.006902 -0.008633 0.000000 0.043923 0.000000
# 6 0.000000 0.000000 0.000000 -0.011630 0.000000 0.047127
#
#
# Mechanical properties :
#
#
# Convention : Reuss Voigt Hill
#
# Bulk Modulus (GPa) = 38.32137 45.15190 41.73663
# Shear Modulus (GPa) = 24.47104 30.51792 27.49448
#
# Velocity S-wave (km/s) = 3.26390 3.64492 3.45966
# Velocity P-wave (km/s) = 5.55757 6.11310 5.84194
#
# Compressibility (1/GPa) = 0.02609510
#
# Stress axis : x y z
#
# Youngs Moduli (GPa) = 119.78822 58.44360 52.87310
#
# Poissons Ratio (x) = 0.04530 0.08902
# Poissons Ratio (y) = 0.09286 0.35317
# Poissons Ratio (z) = 0.20169 0.39037
#
# Static dielectric constant tensor:
#      x y z
#    x 1.908230 0.000000 0.034840 
#    y 0.000000 1.837860 0.000000 
#    z 0.034840 0.000000 1.870330 
# 
# From -- ./inp_files/269242.got.cif
#   From: 2010.05.17/outbox.cif.g08.bks.cpg/sg15_135_cif.got.tgz:269242.got - 2010.06.03 18:47:42.
