data_PCOD9286915
_publ_section_title
;
Structure prediction by ZEFSAII (Michael W. Deem and Ramdas Pophale) SiO2 
 PCOD9286915
Probable space group: C 2/C
;
_chemical_formula_sum "Si O2"
_cell_formula_units_Z 40
_cell_length_a 11.226141
_cell_length_b 14.435427
_cell_length_c 10.028865
_cell_angle_alpha 90.000000
_cell_angle_beta 98.774636
_cell_angle_gamma 90.000000
_cell_volume 1606.197533
_symmetry_space_group_name_H-M "C 2/C"
_symmetry_group_IT_number 15
_symmetry_cell_setting 'monoclinic'
loop_
_space_group_symop_operation_xyz
x,y,z
-x,y,1/2-z
-x,-y,-z
x,-y,1/2+z
1/2+x,1/2+y,z
1/2-x,1/2+y,1/2-z
1/2-x,1/2-y,-z
1/2+x,1/2-y,1/2+z
loop_
_atom_site_type_symbol
_atom_site_label
_atom_site_fract_x
_atom_site_fract_y
_atom_site_fract_z
Si Si1 0.136112 0.357278 0.824697
Si Si2 0.160021 0.533587 0.992304
Si Si3 0.325681 0.734485 0.149377
Si Si4 0.438552 0.559932 0.103284
Si Si5 0.069948 0.357986 0.096513
O O1 0.161672 0.464485 0.866289
O O2 0.233438 0.318452 0.737637
O O3 0.000000 0.346717 0.750000
O O4 0.129788 0.314124 0.973667
O O5 0.072306 0.621580 0.958257
O O6 0.296879 0.548541 0.055582
O O7 0.107417 0.466342 0.096711
O O8 0.439124 0.672114 0.114820
O O9 0.376385 0.811169 0.263198
O O10 0.250000 0.750000 0.000000
O O11 0.500000 0.526683 0.250000
O O12 0.500000 0.500000 0.000000
#
# Coordination Sequence:
#
# PCOD9286915 Si02
#       5
#     8   8   8   8   8
#     4  10  21  44  81 118 153 210 273 339 412 491
#     4   9  22  48  86 111 150 211 284 334 404 497
#     4  12  28  48  74 122 168 205 265 343 424 487
#     4  12  29  50  74 109 162 218 270 331 419 503
#     4   9  22  47  84 114 153 202 274 347 396 488
#
# _framework density 24.903535999999999
#
# number of rings (size 3 to 8) (size 9 to 14) (size 15 to 20)
#    1.200    0.400    0.000    3.000    2.800    4.800 
#    3.600    5.000    0.000    0.000    0.000    0.000 
#    0.000    0.000    0.000    0.000    0.000    0.000 
#
# Total GULP energy -111381.001054 kJ/mol
# GULP energy per Si atom -5569.050053 kJ/mol
# Density = 2.484685 g / cm^3
# Si number density = 24.903536 Si / 1000 Ang^3
#
#
#
# Elastic Constant Matrix: (Units=GPa)
#
#
# Indices 1 2 3 4 5 6 
#
# 1 145.0516 61.1739 84.5886 0.0000 5.1748 0.0000
# 2 61.1739 103.1382 106.6750 0.0000 13.8873 0.0000
# 3 84.5886 106.6750 282.9950 0.0000 -8.1727 0.0000
# 4 0.0000 0.0000 0.0000 61.9651 0.0000 2.7384
# 5 5.1748 13.8873 -8.1727 0.0000 34.3990 0.0000
# 6 0.0000 0.0000 0.0000 2.7384 0.0000 40.7006
#
#
#
# Elastic Compliance Matrix: (Units=1/GPa)
#
#
# Indices 1 2 3 4 5 6 
#
# 1 0.009422 -0.004409 -0.001152 0.000000 0.000089 0.000000
# 2 -0.004409 0.020412 -0.006641 0.000000 -0.009155 0.000000
# 3 -0.001152 -0.006641 0.006508 0.000000 0.004400 0.000000
# 4 0.000000 0.000000 0.000000 0.016186 0.000000 -0.001089
# 5 0.000089 -0.009155 0.004400 0.000000 0.033799 0.000000
# 6 0.000000 0.000000 0.000000 -0.001089 0.000000 0.024643
#
#
# Mechanical properties :
#
#
# Convention : Reuss Voigt Hill
#
# Bulk Modulus (GPa) = 83.75937 115.11777 99.43857
# Shear Modulus (GPa) = 35.87985 45.99609 40.93797
#
# Velocity S-wave (km/s) = 3.79984 4.30230 4.05886
# Velocity P-wave (km/s) = 7.27724 8.42648 7.87286
#
# Compressibility (1/GPa) = 0.01193896
#
# Stress axis : x y z
#
# Youngs Moduli (GPa) = 106.13336 48.98996 153.65207
#
# Poissons Ratio (x) = 0.21602 0.17695
# Poissons Ratio (y) = 0.46798 1.02038
# Poissons Ratio (z) = 0.12223 0.32533
#
# Static dielectric constant tensor:
#      x y z
#    x 2.077010 0.000000 -0.048740 
#    y 0.000000 2.241490 0.000000 
#    z -0.048740 0.000000 1.990100 
# 
# From -- ./inp_files/29352.got.cif
#   From: 2010.05.17/outbox.cif.g08.bks.cpg/sg15_15_cif.got.tgz:29352.got - 2010.06.03 18:47:42.
