data_PCOD9286767
_publ_section_title
;
Structure prediction by ZEFSAII (Michael W. Deem and Ramdas Pophale) SiO2 
 PCOD9286767
Probable space group: C 2/C
;
_chemical_formula_sum "Si O2"
_cell_formula_units_Z 60
_cell_length_a 7.851057
_cell_length_b 13.197301
_cell_length_c 27.853237
_cell_angle_alpha 90.000000
_cell_angle_beta 94.133901
_cell_angle_gamma 90.000000
_cell_volume 2878.442462
_symmetry_space_group_name_H-M "C 2/C"
_symmetry_group_IT_number 15
_symmetry_cell_setting 'monoclinic'
loop_
_space_group_symop_operation_xyz
x,y,z
-x,y,1/2-z
-x,-y,-z
x,-y,1/2+z
1/2+x,1/2+y,z
1/2-x,1/2+y,1/2-z
1/2-x,1/2-y,-z
1/2+x,1/2-y,1/2+z
loop_
_atom_site_type_symbol
_atom_site_label
_atom_site_fract_x
_atom_site_fract_y
_atom_site_fract_z
Si Si1 0.060427 0.565920 0.455855
Si Si2 0.460684 0.081140 0.871116
Si Si3 0.924721 0.887984 0.002968
Si Si4 0.570082 0.267162 0.920319
Si Si5 0.072164 0.775287 0.086646
Si Si6 0.685545 0.603209 0.670391
Si Si7 0.500000 0.507329 0.750000
Si Si8 0.608263 0.457508 0.850935
O O1 0.054204 0.490147 0.411479
O O2 0.238524 0.608945 0.477271
O O3 0.000000 0.500000 0.500000
O O4 0.960435 0.662993 0.433362
O O5 0.433083 0.192137 0.893798
O O6 0.611186 0.096174 0.834202
O O7 0.279012 0.026632 0.857930
O O8 0.024681 0.811854 0.970425
O O9 0.938908 0.847763 0.057254
O O10 0.000000 0.000000 0.000000
O O11 0.739298 0.199568 0.929139
O O12 0.609924 0.359420 0.884568
O O13 0.101925 0.796674 0.143852
O O14 0.632196 0.579596 0.723934
O O15 0.569621 0.517000 0.641152
O O16 0.586012 0.440140 0.793260
#
# Coordination Sequence:
#
# PCOD9286767 Si02
#       8
#     8   8   8   8   8   8   4   8
#     4  12  25  38  59  96 132 181 232 262 327 402
#     4  11  23  41  69  94 133 178 217 277 338 398
#     4  12  24  37  60  91 133 180 215 279 319 396
#     4  11  22  41  64  96 130 172 228 260 334 408
#     4  11  22  39  63  91 135 171 222 274 330 393
#     4   9  22  43  65  96 126 168 222 274 341 404
#     4   8  22  42  72  92 132 160 216 288 336 404
#     4  10  21  44  68  92 133 169 211 289 332 403
#
# _framework density 20.844607
#
# number of rings (size 3 to 8) (size 9 to 14) (size 15 to 20)
#    0.800    0.533    1.333    5.600    3.733    0.533 
#    0.000    2.667    5.867    0.000    0.000    0.000 
#    0.000    0.000    0.000    0.000    0.000    0.000 
#
# Total GULP energy -167092.316887 kJ/mol
# GULP energy per Si atom -5569.743896 kJ/mol
# Density = 2.079716 g / cm^3
# Si number density = 20.844607 Si / 1000 Ang^3
#
#
#
# Elastic Constant Matrix: (Units=GPa)
#
#
# Indices 1 2 3 4 5 6 
#
# 1 66.5084 5.2468 2.7864 0.0000 10.8549 0.0000
# 2 5.2468 73.2726 -0.6052 0.0000 6.2298 0.0000
# 3 2.7864 -0.6052 73.3113 0.0000 -5.0732 0.0000
# 4 0.0000 0.0000 0.0000 26.9836 0.0000 -1.4778
# 5 10.8549 6.2298 -5.0732 0.0000 31.7978 0.0000
# 6 0.0000 0.0000 0.0000 -1.4778 0.0000 31.1672
#
#
#
# Elastic Compliance Matrix: (Units=1/GPa)
#
#
# Indices 1 2 3 4 5 6 
#
# 1 0.016029 -0.000689 -0.000995 0.000000 -0.005496 0.000000
# 2 -0.000689 0.013909 -0.000032 0.000000 -0.002495 0.000000
# 3 -0.000995 -0.000032 0.013855 0.000000 0.002556 0.000000
# 4 0.000000 0.000000 0.000000 0.037156 0.000000 0.001762
# 5 -0.005496 -0.002495 0.002556 0.000000 0.034221 0.000000
# 6 0.000000 0.000000 0.000000 0.001762 0.000000 0.032169
#
#
# Mechanical properties :
#
#
# Convention : Reuss Voigt Hill
#
# Bulk Modulus (GPa) = 24.77622 25.32759 25.05190
# Shear Modulus (GPa) = 30.44634 31.70067 31.07350
#
# Velocity S-wave (km/s) = 3.82597 3.90399 3.86517
# Velocity P-wave (km/s) = 5.60619 5.70075 5.65367
#
# Compressibility (1/GPa) = 0.04036129
#
# Stress axis : x y z
#
# Youngs Moduli (GPa) = 62.38827 71.89665 72.17651
#
# Poissons Ratio (x) = 0.04952 0.07183
# Poissons Ratio (y) = 0.04297 0.00229
# Poissons Ratio (z) = 0.06209 0.00228
#
# Static dielectric constant tensor:
#      x y z
#    x 1.826590 0.000000 0.042770 
#    y 0.000000 1.883440 0.000000 
#    z 0.042770 0.000000 1.873450 
# 
# From -- ./inp_files/307161.got.cif
#   From: 2010.05.17/outbox.cif.g08.bks.cpg/sg15_154_cif.got.tgz:307161.got - 2010.06.03 18:47:42.
