data_PCOD9286182
_publ_section_title
;
Structure prediction by ZEFSAII (Michael W. Deem and Ramdas Pophale) SiO2 
 PCOD9286182
Probable space group: C 2/C
;
_chemical_formula_sum "Si O2"
_cell_formula_units_Z 52
_cell_length_a 27.981616
_cell_length_b 7.902868
_cell_length_c 28.054021
_cell_angle_alpha 90.000000
_cell_angle_beta 19.712201
_cell_angle_gamma 90.000000
_cell_volume 2092.490464
_symmetry_space_group_name_H-M "C 2/C"
_symmetry_group_IT_number 15
_symmetry_cell_setting 'monoclinic'
loop_
_space_group_symop_operation_xyz
x,y,z
-x,y,1/2-z
-x,-y,-z
x,-y,1/2+z
1/2+x,1/2+y,z
1/2-x,1/2+y,1/2-z
1/2-x,1/2-y,-z
1/2+x,1/2-y,1/2+z
loop_
_atom_site_type_symbol
_atom_site_label
_atom_site_fract_x
_atom_site_fract_y
_atom_site_fract_z
Si Si1 0.708271 0.095540 0.329434
Si Si2 0.452149 0.277760 0.425670
Si Si3 0.305552 0.223727 0.050202
Si Si4 0.174432 0.899731 0.143742
Si Si5 0.069867 0.462648 0.277247
Si Si6 0.500000 0.825012 0.750000
Si Si7 0.569353 0.270433 0.950109
O O1 0.723811 0.154328 0.369171
O O2 0.582367 0.209247 0.425794
O O3 0.846910 0.123678 0.167651
O O4 0.659091 0.901937 0.374043
O O5 0.302265 0.207996 0.547317
O O6 0.539906 0.387522 0.305628
O O7 0.439715 0.354722 0.489456
O O8 0.546768 0.103036 0.339893
O O9 0.228979 0.402794 0.119155
O O10 0.225593 0.090809 0.090692
O O11 0.470263 0.195829 0.884153
O O12 0.126832 0.805918 0.140747
O O13 0.008260 0.554668 0.288141
#
# Coordination Sequence:
#
# PCOD9286182 Si02
#       7
#     8   8   8   8   8   4   8
#     4  11  24  40  63  94 130 172 219 257 314 361
#     4  10  21  43  62  94 126 175 204 270 314 376
#     4  11  23  43  61  97 130 175 199 272 313 386
#     4  10  22  41  68  91 131 156 223 254 327 376
#     4  10  23  42  68  90 136 158 218 254 337 371
#     4  10  24  44  70 102 112 174 206 274 314 396
#     4  11  23  42  63  93 130 173 216 268 296 383
#
# _framework density 24.850770000000001
#
# number of rings (size 3 to 8) (size 9 to 14) (size 15 to 20)
#    0.000    1.538    3.077    1.846    2.154    9.846 
#    2.769    0.000    0.000    0.000    0.000    0.000 
#    0.000    0.000    0.000    0.000    0.000    0.000 
#
# Total GULP energy -145579.628621 kJ/mol
# GULP energy per Si atom -5599.216485 kJ/mol
# Density = 2.479421 g / cm^3
# Si number density = 24.850770 Si / 1000 Ang^3
#
#
#
# Elastic Constant Matrix: (Units=GPa)
#
#
# Indices 1 2 3 4 5 6 
#
# 1 75.8111 11.2783 7.0453 0.0192 -1.4057 -0.0113
# 2 11.2783 62.0906 -0.9482 -0.0265 -9.9907 0.0023
# 3 7.0453 -0.9482 76.2737 -0.0023 3.5820 -0.0041
# 4 0.0192 -0.0265 -0.0023 28.7752 -0.0047 -3.8319
# 5 -1.4057 -9.9907 3.5820 -0.0047 33.7702 0.0048
# 6 -0.0113 0.0023 -0.0041 -3.8319 0.0048 32.1623
#
#
#
# Elastic Compliance Matrix: (Units=1/GPa)
#
#
# Indices 1 2 3 4 5 6 
#
# 1 0.013684 -0.002511 -0.001293 -0.000011 -0.000036 0.000003
# 2 -0.002511 0.017371 0.000213 0.000018 0.005012 -0.000001
# 3 -0.001293 0.000213 0.013299 0.000002 -0.001402 0.000002
# 4 -0.000011 0.000018 0.000002 0.035312 0.000009 0.004207
# 5 -0.000036 0.005012 -0.001402 0.000009 0.031242 -0.000004
# 6 0.000003 -0.000001 0.000002 0.004207 -0.000004 0.031594
#
#
# Mechanical properties :
#
#
# Convention : Reuss Voigt Hill
#
# Bulk Modulus (GPa) = 26.90370 27.65847 27.28108
# Shear Modulus (GPa) = 30.84978 32.06153 31.45566
#
# Velocity S-wave (km/s) = 3.52717 3.59578 3.56164
# Velocity P-wave (km/s) = 5.23809 5.32855 5.28351
#
# Compressibility (1/GPa) = 0.03716961
#
# Stress axis : x y z
#
# Youngs Moduli (GPa) = 73.07917 57.56596 75.19577
#
# Poissons Ratio (x) = 0.14456 0.09726
# Poissons Ratio (y) = 0.18351 -0.01598
# Poissons Ratio (z) = 0.09453 -0.01223
#
# Static dielectric constant tensor:
#      x y z
#    x 1.941880 0.000000 0.004470 
#    y 0.000000 1.982360 0.000020 
#    z 0.004470 0.000020 1.982840 
# 
# From -- ./inp_files/320182.got.cif
#   From: 2010.05.17/outbox.cif.g08.bks.cpg/sg15_161_cif.got.tgz:320182.got - 2010.06.03 18:47:42.
