data_PCOD9286299
_publ_section_title
;
Structure prediction by ZEFSAII (Michael W. Deem and Ramdas Pophale) SiO2 
 PCOD9286299
Probable space group: C 2/C
;
_chemical_formula_sum "Si O2"
_cell_formula_units_Z 64
_cell_length_a 23.260440
_cell_length_b 9.244488
_cell_length_c 30.585933
_cell_angle_alpha 90.000000
_cell_angle_beta 28.820991
_cell_angle_gamma 90.000000
_cell_volume 3170.566377
_symmetry_space_group_name_H-M "C 2/C"
_symmetry_group_IT_number 15
_symmetry_cell_setting 'monoclinic'
loop_
_space_group_symop_operation_xyz
x,y,z
-x,y,1/2-z
-x,-y,-z
x,-y,1/2+z
1/2+x,1/2+y,z
1/2-x,1/2+y,1/2-z
1/2-x,1/2-y,-z
1/2+x,1/2-y,1/2+z
loop_
_atom_site_type_symbol
_atom_site_label
_atom_site_fract_x
_atom_site_fract_y
_atom_site_fract_z
Si Si1 0.512515 0.844380 0.515328
Si Si2 0.895812 0.829943 0.626989
Si Si3 0.415645 0.579932 0.724110
Si Si4 0.085790 0.308078 0.657377
Si Si5 0.575166 0.665400 0.082120
Si Si6 0.234338 0.598783 0.919686
Si Si7 0.809881 0.445603 0.466812
Si Si8 0.677018 0.657900 0.808718
O O1 0.578408 0.736209 0.437649
O O2 0.598024 0.870552 0.499686
O O3 0.393563 0.766628 0.612201
O O4 0.500000 0.000000 0.500000
O O5 0.808324 0.721970 0.712094
O O6 0.021701 0.833979 0.569075
O O7 0.837536 0.991031 0.665291
O O8 0.506952 0.679486 0.689957
O O9 0.480762 0.430426 0.671125
O O10 0.299853 0.559006 0.831062
O O11 0.382661 0.651879 0.699853
O O12 0.199180 0.239145 0.605802
O O13 0.129168 0.410466 0.590539
O O14 0.000000 0.383549 0.750000
O O15 0.592933 0.822306 0.090859
O O16 0.706279 0.597091 0.001839
O O17 0.247001 0.476418 0.947946
#
# Coordination Sequence:
#
# PCOD9286299 Si02
#       8
#     8   8   8   8   8   8   8   8
#     4  12  25  42  67 101 130 177 225 277 338 400
#     4  11  24  46  63  98 134 173 228 270 334 402
#     4  10  21  43  66  92 126 172 211 268 328 394
#     4  10  22  39  62  96 124 166 217 262 321 394
#     4  10  24  41  64  91 133 164 212 267 339 387
#     4  11  22  39  70  92 127 168 225 265 322 397
#     4  11  22  42  63  98 126 168 210 273 327 391
#     4  11  24  42  70  93 135 177 219 280 329 398
#
# _framework density 20.185668
#
# number of rings (size 3 to 8) (size 9 to 14) (size 15 to 20)
#    0.000    1.250    2.500    3.000    5.250    1.000 
#    4.500    0.000    0.000    0.000    0.000    0.000 
#    0.000    0.000    0.000    0.000    0.000    0.000 
#
# Total GULP energy -178718.617824 kJ/mol
# GULP energy per Si atom -5584.956807 kJ/mol
# Density = 2.013972 g / cm^3
# Si number density = 20.185668 Si / 1000 Ang^3
#
#
#
# Elastic Constant Matrix: (Units=GPa)
#
#
# Indices 1 2 3 4 5 6 
#
# 1 71.3108 21.4390 11.3876 0.0064 -2.9729 -0.0014
# 2 21.4390 70.7736 23.6035 0.0076 6.7625 -0.0022
# 3 11.3876 23.6035 58.8642 0.0009 13.9046 0.0006
# 4 0.0064 0.0076 0.0009 8.7627 -0.0042 -11.6064
# 5 -2.9729 6.7625 13.9046 -0.0042 28.4975 0.0013
# 6 -0.0014 -0.0022 0.0006 -11.6064 0.0013 14.8732
#
#
#
# Elastic Compliance Matrix: (Units=1/GPa)
#
#
# Indices 1 2 3 4 5 6 
#
# 1 0.015863 -0.004439 -0.002180 0.000145 0.003772 0.000114
# 2 -0.004439 0.017568 -0.005755 0.000264 -0.001824 0.000208
# 3 -0.002180 -0.005755 0.021982 0.000051 -0.009587 0.000039
# 4 0.000145 0.000264 0.000051 -3.395772 -0.000452 -2.649913
# 5 0.003772 -0.001824 -0.009587 -0.000452 0.040595 -0.000356
# 6 0.000114 0.000208 0.000039 -2.649913 -0.000356 -2.000643
#
#
# Mechanical properties :
#
#
# Convention : Reuss Voigt Hill
#
# Bulk Modulus (GPa) = 32.60929 34.86764 33.73846
# Shear Modulus (GPa) = -0.94959 20.06124 9.55582
#
# Velocity S-wave (km/s) = -0.68662 3.15594 2.17813
# Velocity P-wave (km/s) = 3.94476 5.53090 4.80375
#
# Compressibility (1/GPa) = 0.03066611
#
# Stress axis : x y z
#
# Youngs Moduli (GPa) = 63.04019 56.92279 45.49121
#
# Poissons Ratio (x) = 0.25266 0.09917
# Poissons Ratio (y) = 0.27981 0.26179
# Poissons Ratio (z) = 0.13742 0.32758
#
# Static dielectric constant tensor:
#      x y z
#    x 1.724140 0.000000 0.017430 
#    y 0.000000 1.707890 0.000000 
#    z 0.017430 0.000000 1.724290 
# 
# From -- ./inp_files/318592.got.cif
#   From: 2010.05.17/outbox.cif.g08.bks.cpg/sg15_160_cif.got.tgz:318592.got - 2010.06.03 18:47:42.
