data_PCOD9286544
_publ_section_title
;
Structure prediction by ZEFSAII (Michael W. Deem and Ramdas Pophale) SiO2 
 PCOD9286544
Probable space group: C 2/C
;
_chemical_formula_sum "Si O2"
_cell_formula_units_Z 48
_cell_length_a 11.903099
_cell_length_b 22.263210
_cell_length_c 9.227248
_cell_angle_alpha 90.000000
_cell_angle_beta 70.220249
_cell_angle_gamma 90.000000
_cell_volume 2300.964091
_symmetry_space_group_name_H-M "C 2/C"
_symmetry_group_IT_number 15
_symmetry_cell_setting 'monoclinic'
loop_
_space_group_symop_operation_xyz
x,y,z
-x,y,1/2-z
-x,-y,-z
x,-y,1/2+z
1/2+x,1/2+y,z
1/2-x,1/2+y,1/2-z
1/2-x,1/2-y,-z
1/2+x,1/2-y,1/2+z
loop_
_atom_site_type_symbol
_atom_site_label
_atom_site_fract_x
_atom_site_fract_y
_atom_site_fract_z
Si Si1 0.442066 0.052772 0.431433
Si Si2 0.072799 0.668280 0.865122
Si Si3 0.838648 0.031250 0.953596
Si Si4 0.654772 0.632538 0.762243
Si Si5 0.524453 0.592686 0.081964
Si Si6 0.896525 0.240465 0.911959
O O1 0.500000 0.056264 0.250000
O O2 0.460572 0.114915 0.509123
O O3 0.302556 0.038272 0.468686
O O4 0.500000 0.000000 0.500000
O O5 0.209905 0.651845 0.770041
O O6 0.000000 0.666806 0.750000
O O7 0.060212 0.731078 0.956226
O O8 0.862220 0.064981 0.790047
O O9 0.886540 0.963740 0.930718
O O10 0.908674 0.065273 0.051901
O O11 0.613007 0.673498 0.646943
O O12 0.585860 0.637434 0.942439
O O13 0.500000 0.619328 0.250000
O O14 0.000000 0.265575 0.750000
O O15 0.750000 0.250000 0.000000
#
# Coordination Sequence:
#
# PCOD9286544 Si02
#       6
#     8   8   8   8   8   8
#     4  11  25  38  62  94 134 178 218 259 328 403
#     4  10  23  43  67  96 130 173 220 284 332 402
#     4  10  22  38  59  90 135 174 212 268 327 397
#     4  10  22  42  65  93 131 176 219 273 341 401
#     4  11  22  35  61  94 130 169 216 272 331 392
#     4  10  21  43  71  94 128 174 226 279 343 398
#
# _framework density 20.860821999999999
#
# number of rings (size 3 to 8) (size 9 to 14) (size 15 to 20)
#    0.000    1.667    0.000    4.500    9.333    0.000 
#    0.000    8.333    0.000    0.000    0.000    0.000 
#    0.000    0.000    0.000    0.000    0.000    0.000 
#
# Total GULP energy -133715.785495 kJ/mol
# GULP energy per Si atom -5571.491062 kJ/mol
# Density = 2.081334 g / cm^3
# Si number density = 20.860822 Si / 1000 Ang^3
#
#
#
# Elastic Constant Matrix: (Units=GPa)
#
#
# Indices 1 2 3 4 5 6 
#
# 1 131.2372 37.9826 75.3717 0.0000 13.4441 0.0000
# 2 37.9826 85.2636 52.4164 0.0000 12.3689 0.0000
# 3 75.3717 52.4164 186.8677 0.0000 4.8227 0.0000
# 4 0.0000 0.0000 0.0000 16.9175 0.0000 4.5057
# 5 13.4441 12.3689 4.8227 0.0000 36.5622 0.0000
# 6 0.0000 0.0000 0.0000 4.5057 0.0000 22.0165
#
#
#
# Elastic Compliance Matrix: (Units=1/GPa)
#
#
# Indices 1 2 3 4 5 6 
#
# 1 0.010576 -0.002102 -0.003606 0.000000 -0.002702 0.000000
# 2 -0.002102 0.015292 -0.003339 0.000000 -0.003960 0.000000
# 3 -0.003606 -0.003339 0.007706 0.000000 0.001439 0.000000
# 4 0.000000 0.000000 0.000000 0.062518 0.000000 -0.012794
# 5 -0.002702 -0.003960 0.001439 0.000000 0.029494 0.000000
# 6 0.000000 0.000000 0.000000 -0.012794 0.000000 0.048039
#
#
# Mechanical properties :
#
#
# Convention : Reuss Voigt Hill
#
# Bulk Modulus (GPa) = 64.60868 81.65666 73.13267
# Shear Modulus (GPa) = 25.39618 30.93909 28.16763
#
# Velocity S-wave (km/s) = 3.49293 3.85531 3.67858
# Velocity P-wave (km/s) = 6.87793 7.68416 7.29220
#
# Compressibility (1/GPa) = 0.01547780
#
# Stress axis : x y z
#
# Youngs Moduli (GPa) = 94.55108 65.39300 129.77709
#
# Poissons Ratio (x) = 0.13748 0.46803
# Poissons Ratio (y) = 0.19878 0.43336
# Poissons Ratio (z) = 0.34099 0.21836
#
# Static dielectric constant tensor:
#      x y z
#    x 1.773750 0.000000 -0.122920 
#    y 0.000000 1.837690 0.000000 
#    z -0.122920 0.000000 1.474070 
# 
# From -- ./inp_files/32504.got.cif
#   From: 2010.05.17/outbox.cif.g08.bks.cpg/sg15_17_cif.got.tgz:32504.got - 2010.06.03 18:47:42.
