data_PCOD9286960
_publ_section_title
;
Structure prediction by ZEFSAII (Michael W. Deem and Ramdas Pophale) SiO2 
 PCOD9286960
Probable space group: C 2/C
;
_chemical_formula_sum "Si O2"
_cell_formula_units_Z 40
_cell_length_a 7.371158
_cell_length_b 15.313440
_cell_length_c 21.291661
_cell_angle_alpha 90.000000
_cell_angle_beta 40.180931
_cell_angle_gamma 90.000000
_cell_volume 1550.653286
_symmetry_space_group_name_H-M "C 2/C"
_symmetry_group_IT_number 15
_symmetry_cell_setting 'monoclinic'
loop_
_space_group_symop_operation_xyz
x,y,z
-x,y,1/2-z
-x,-y,-z
x,-y,1/2+z
1/2+x,1/2+y,z
1/2-x,1/2+y,1/2-z
1/2-x,1/2-y,-z
1/2+x,1/2-y,1/2+z
loop_
_atom_site_type_symbol
_atom_site_label
_atom_site_fract_x
_atom_site_fract_y
_atom_site_fract_z
Si Si1 0.760385 0.717936 0.425813
Si Si2 0.799359 0.630230 0.953439
Si Si3 0.076759 0.078122 0.144244
Si Si4 0.340172 0.774526 0.230189
Si Si5 0.462628 0.969758 0.660613
O O1 0.750000 0.750000 0.500000
O O2 0.436885 0.703806 0.494087
O O3 0.009857 0.773965 0.329703
O O4 0.873182 0.620803 0.381110
O O5 0.082001 0.675534 0.853791
O O6 0.811836 0.546287 0.904401
O O7 0.751502 0.590626 0.034687
O O8 0.278051 0.039163 0.144825
O O9 0.963200 0.175764 0.190746
O O10 0.782750 0.024421 0.221889
O O11 0.500000 0.809625 0.250000
#
# Coordination Sequence:
#
# PCOD9286960 Si02
#       5
#     8   8   8   8   8
#     4  11  22  42  68  97 140 193 237 301 360 424
#     4  12  24  39  70 110 132 186 254 292 360 439
#     4  10  21  45  68  92 145 192 228 293 365 437
#     4  11  21  43  68  94 142 193 242 291 362 429
#     4  10  22  42  65  98 145 186 227 304 369 422
#
# _framework density 25.795580000000001
#
# number of rings (size 3 to 8) (size 9 to 14) (size 15 to 20)
#    0.000    1.200    6.000    1.800    0.000    4.800 
#    3.600    8.000    0.000    0.000    0.000    0.000 
#    0.000    0.000    0.000    0.000    0.000    0.000 
#
# Total GULP energy -111787.515730 kJ/mol
# GULP energy per Si atom -5589.375787 kJ/mol
# Density = 2.573687 g / cm^3
# Si number density = 25.795580 Si / 1000 Ang^3
#
#
#
# Elastic Constant Matrix: (Units=GPa)
#
#
# Indices 1 2 3 4 5 6 
#
# 1 95.0821 17.3597 62.2452 -0.0106 -14.3954 0.0069
# 2 17.3597 35.6227 46.1224 -0.0051 5.4009 0.0027
# 3 62.2452 46.1224 265.9994 -0.0150 7.4233 0.0120
# 4 -0.0106 -0.0051 -0.0150 40.4456 0.0071 9.6704
# 5 -14.3954 5.4009 7.4233 0.0071 44.0551 -0.0081
# 6 0.0069 0.0027 0.0120 9.6704 -0.0081 11.7328
#
#
#
# Elastic Compliance Matrix: (Units=1/GPa)
#
#
# Indices 1 2 3 4 5 6 
#
# 1 0.013853 -0.004110 -0.002682 0.000002 0.005483 -0.000002
# 2 -0.004110 0.037930 -0.005474 0.000004 -0.005071 -0.000008
# 3 -0.002682 -0.005474 0.005367 0.000002 -0.001110 -0.000005
# 4 0.000002 0.000004 0.000002 0.030793 -0.000010 -0.025380
# 5 0.005483 -0.005071 -0.001110 -0.000010 0.025299 0.000025
# 6 -0.000002 -0.000008 -0.000005 -0.025380 0.000025 0.106150
#
#
# Mechanical properties :
#
#
# Convention : Reuss Voigt Hill
#
# Bulk Modulus (GPa) = 30.65589 72.01765 51.33677
# Shear Modulus (GPa) = 19.62349 37.31183 28.46766
#
# Velocity S-wave (km/s) = 2.76113 3.80734 3.32563
# Velocity P-wave (km/s) = 4.69841 6.87801 5.88991
#
# Compressibility (1/GPa) = 0.03262015
#
# Stress axis : x y z
#
# Youngs Moduli (GPa) = 72.18396 26.36402 186.31909
#
# Poissons Ratio (x) = 0.10834 0.49975
# Poissons Ratio (y) = 0.29664 1.01986
# Poissons Ratio (z) = 0.19361 0.14431
#
# Static dielectric constant tensor:
#      x y z
#    x 2.144930 0.000020 0.005450 
#    y 0.000020 2.080060 0.000010 
#    z 0.005450 0.000010 2.007550 
# 
# From -- ./inp_files/76830.got.cif
#   From: 2010.05.17/outbox.cif.g08.bks.cpg/sg15_39_cif.got.tgz:76830.got - 2010.06.03 18:47:42.
