data_PCOD9286808
_publ_section_title
;
Structure prediction by ZEFSAII (Michael W. Deem and Ramdas Pophale) SiO2 
 PCOD9286808
Probable space group: C 2/C
;
_chemical_formula_sum "Si O2"
_cell_formula_units_Z 48
_cell_length_a 26.072661
_cell_length_b 8.439330
_cell_length_c 20.622113
_cell_angle_alpha 90.000000
_cell_angle_beta 25.880195
_cell_angle_gamma 90.000000
_cell_volume 1980.622018
_symmetry_space_group_name_H-M "C 2/C"
_symmetry_group_IT_number 15
_symmetry_cell_setting 'monoclinic'
loop_
_space_group_symop_operation_xyz
x,y,z
-x,y,1/2-z
-x,-y,-z
x,-y,1/2+z
1/2+x,1/2+y,z
1/2-x,1/2+y,1/2-z
1/2-x,1/2-y,-z
1/2+x,1/2-y,1/2+z
loop_
_atom_site_type_symbol
_atom_site_label
_atom_site_fract_x
_atom_site_fract_y
_atom_site_fract_z
Si Si1 0.288298 0.553628 0.733634
Si Si2 0.350163 0.812935 0.452430
Si Si3 0.025620 0.468947 0.074738
Si Si4 0.649374 0.248753 0.210588
Si Si5 0.670375 0.238652 0.764893
Si Si6 0.802077 0.020498 0.958393
O O1 0.327021 0.667725 0.747771
O O2 0.359743 0.390346 0.656627
O O3 0.275230 0.641651 0.680638
O O4 0.153504 0.501971 0.900311
O O5 0.449340 0.874405 0.387525
O O6 0.228950 0.800718 0.632272
O O7 0.368510 0.636197 0.405910
O O8 0.316581 0.944766 0.437926
O O9 0.961576 0.634529 0.159225
O O10 0.941306 0.366324 0.124795
O O11 0.759501 0.137123 0.063906
O O12 0.637837 0.376490 0.166034
#
# Coordination Sequence:
#
# PCOD9286808 Si02
#       6
#     8   8   8   8   8   8
#     4  11  25  46  68  98 135 173 226 280 338 394
#     4  10  22  45  67  99 132 180 217 281 331 398
#     4  11  23  44  68  99 135 177 226 269 348 390
#     4  11  22  43  69 102 133 178 219 282 329 402
#     4  11  22  44  69  95 133 176 220 284 332 399
#     4  10  21  44  69  94 141 170 223 273 336 392
#
# _framework density 24.234812000000002
#
# number of rings (size 3 to 8) (size 9 to 14) (size 15 to 20)
#    0.000    1.333    5.000    1.500    0.000    2.000 
#    3.000    5.833    0.000    0.000    0.000    0.000 
#    0.000    0.000    0.000    0.000    0.000    0.000 
#
# Total GULP energy -134419.749678 kJ/mol
# GULP energy per Si atom -5600.822903 kJ/mol
# Density = 2.417965 g / cm^3
# Si number density = 24.234812 Si / 1000 Ang^3
#
#
#
# Elastic Constant Matrix: (Units=GPa)
#
#
# Indices 1 2 3 4 5 6 
#
# 1 91.7454 48.8145 1.4656 0.0000 -22.6650 0.0000
# 2 48.8145 159.1131 20.4657 0.0008 -20.6537 -0.0005
# 3 1.4656 20.4657 57.9184 0.0005 -1.4455 -0.0001
# 4 0.0000 0.0008 0.0005 30.9278 -0.0002 -6.8504
# 5 -22.6650 -20.6537 -1.4455 -0.0002 15.2217 0.0000
# 6 0.0000 -0.0005 -0.0001 -6.8504 0.0000 57.3345
#
#
#
# Elastic Compliance Matrix: (Units=1/GPa)
#
#
# Indices 1 2 3 4 5 6 
#
# 1 0.018077 -0.002640 0.001060 0.000000 0.023434 0.000000
# 2 -0.002640 0.008375 -0.002714 0.000000 0.007175 0.000000
# 3 0.001060 -0.002714 0.018188 0.000000 -0.000376 0.000000
# 4 0.000000 0.000000 0.000000 0.033212 0.000001 0.003968
# 5 0.023434 0.007175 -0.000376 0.000001 0.110289 0.000000
# 6 0.000000 0.000000 0.000000 0.003968 0.000000 0.017916
#
#
# Mechanical properties :
#
#
# Convention : Reuss Voigt Hill
#
# Bulk Modulus (GPa) = 27.73655 50.02985 38.88320
# Shear Modulus (GPa) = 22.05926 36.56553 29.31239
#
# Velocity S-wave (km/s) = 3.02028 3.88854 3.48158
# Velocity P-wave (km/s) = 4.86133 6.39137 5.67812
#
# Compressibility (1/GPa) = 0.03605351
#
# Stress axis : x y z
#
# Youngs Moduli (GPa) = 55.31917 119.39970 54.98035
#
# Poissons Ratio (x) = 0.31525 -0.05830
# Poissons Ratio (y) = 0.14606 0.14919
# Poissons Ratio (z) = -0.05866 0.32400
#
# Static dielectric constant tensor:
#      x y z
#    x 1.951800 0.000000 0.052700 
#    y 0.000000 1.973000 0.000000 
#    z 0.052700 0.000000 1.927330 
# 
# From -- ./inp_files/281617.got.cif
#   From: 2010.05.17/outbox.cif.g08.bks.cpg/sg15_141_cif.got.tgz:281617.got - 2010.06.03 18:47:42.
