data_PCOD9286111
_publ_section_title
;
Structure prediction by ZEFSAII (Michael W. Deem and Ramdas Pophale) SiO2 
 PCOD9286111
Probable space group: C 2/C
;
_chemical_formula_sum "Si O2"
_cell_formula_units_Z 36
_cell_length_a 16.154736
_cell_length_b 9.442629
_cell_length_c 11.729901
_cell_angle_alpha 90.000000
_cell_angle_beta 81.465782
_cell_angle_gamma 90.000000
_cell_volume 1769.504022
_symmetry_space_group_name_H-M "C 2/C"
_symmetry_group_IT_number 15
_symmetry_cell_setting 'monoclinic'
loop_
_space_group_symop_operation_xyz
x,y,z
-x,y,1/2-z
-x,-y,-z
x,-y,1/2+z
1/2+x,1/2+y,z
1/2-x,1/2+y,1/2-z
1/2-x,1/2-y,-z
1/2+x,1/2-y,1/2+z
loop_
_atom_site_type_symbol
_atom_site_label
_atom_site_fract_x
_atom_site_fract_y
_atom_site_fract_z
Si Si1 0.924889 0.687380 0.856911
Si Si2 0.534299 0.657024 0.510011
Si Si3 0.500000 0.214350 0.250000
Si Si4 0.158755 0.458873 0.733506
Si Si5 0.318675 0.265445 0.687465
O O1 0.872192 0.542624 0.874410
O O2 0.864418 0.795124 0.800590
O O3 0.000000 0.664526 0.750000
O O4 0.966231 0.743087 0.961364
O O5 0.500000 0.500000 0.500000
O O6 0.539445 0.694213 0.641049
O O7 0.620499 0.683668 0.425272
O O8 0.425191 0.121151 0.212267
O O9 0.232184 0.348027 0.701178
O O10 0.185480 0.593229 0.806484
#
# Coordination Sequence:
#
# PCOD9286111 Si02
#       5
#     8   8   4   8   8
#     4   8  18  42  64  93 133 173 214 273 328 392
#     4  11  25  41  69 100 139 179 226 279 330 409
#     4  12  26  40  70  98 128 194 226 260 350 404
#     4  10  21  42  72 103 135 176 222 283 336 408
#     4   9  22  42  69 102 137 169 225 282 338 391
#
# _framework density 20.344683
#
# number of rings (size 3 to 8) (size 9 to 14) (size 15 to 20)
#    1.333    0.889    1.111    0.000    7.778    4.444 
#    0.000    4.444    0.000    0.000    0.000    0.000 
#    0.000    0.000    0.000    0.000    0.000    0.000 
#
# Total GULP energy -100222.375640 kJ/mol
# GULP energy per Si atom -5567.909758 kJ/mol
# Density = 2.029838 g / cm^3
# Si number density = 20.344683 Si / 1000 Ang^3
#
#
#
# Elastic Constant Matrix: (Units=GPa)
#
#
# Indices 1 2 3 4 5 6 
#
# 1 130.6940 59.8455 27.4273 0.0000 -25.3240 0.0000
# 2 59.8455 120.6670 38.0878 0.0000 -23.9196 0.0000
# 3 27.4273 38.0878 79.3626 0.0000 -6.5705 0.0000
# 4 0.0000 0.0000 0.0000 12.5337 0.0000 4.1047
# 5 -25.3240 -23.9196 -6.5705 0.0000 24.0524 0.0000
# 6 0.0000 0.0000 0.0000 4.1047 0.0000 60.8418
#
#
#
# Elastic Compliance Matrix: (Units=1/GPa)
#
#
# Indices 1 2 3 4 5 6 
#
# 1 0.011066 -0.003465 -0.001516 0.000000 0.007791 0.000000
# 2 -0.003465 0.012984 -0.004365 0.000000 0.008071 0.000000
# 3 -0.001516 -0.004365 0.015069 0.000000 -0.001821 0.000000
# 4 0.000000 0.000000 0.000000 0.081588 0.000000 -0.005504
# 5 0.007791 0.008071 -0.001821 0.000000 0.057307 0.000000
# 6 0.000000 0.000000 0.000000 -0.005504 0.000000 0.016807
#
#
# Mechanical properties :
#
#
# Convention : Reuss Voigt Hill
#
# Bulk Modulus (GPa) = 48.96090 64.60498 56.78294
# Shear Modulus (GPa) = 22.69397 33.17644 27.93520
#
# Velocity S-wave (km/s) = 3.34349 4.04260 3.70955
# Velocity P-wave (km/s) = 6.24686 7.32218 6.80579
#
# Compressibility (1/GPa) = 0.02042446
#
# Stress axis : x y z
#
# Youngs Moduli (GPa) = 90.36661 77.01959 66.36294
#
# Poissons Ratio (x) = 0.26690 0.10062
# Poissons Ratio (y) = 0.31315 0.28970
# Poissons Ratio (z) = 0.13702 0.33622
#
# Static dielectric constant tensor:
#      x y z
#    x 1.756770 0.000000 0.024700 
#    y 0.000000 1.767330 0.000000 
#    z 0.024700 0.000000 1.697970 
# 
# From -- ./inp_files/94433.got.cif
#   From: 2010.05.17/outbox.cif.g08.bks.cpg/sg15_48_cif.got.tgz:94433.got - 2010.06.03 18:47:42.
