data_PCOD9286934
_publ_section_title
;
Structure prediction by ZEFSAII (Michael W. Deem and Ramdas Pophale) SiO2 
 PCOD9286934
Probable space group: C 2/C
;
_chemical_formula_sum "Si O2"
_cell_formula_units_Z 36
_cell_length_a 14.488772
_cell_length_b 9.021500
_cell_length_c 13.597782
_cell_angle_alpha 90.000000
_cell_angle_beta 75.283704
_cell_angle_gamma 90.000000
_cell_volume 1719.066556
_symmetry_space_group_name_H-M "C 2/C"
_symmetry_group_IT_number 15
_symmetry_cell_setting 'monoclinic'
loop_
_space_group_symop_operation_xyz
x,y,z
-x,y,1/2-z
-x,-y,-z
x,-y,1/2+z
1/2+x,1/2+y,z
1/2-x,1/2+y,1/2-z
1/2-x,1/2-y,-z
1/2+x,1/2-y,1/2+z
loop_
_atom_site_type_symbol
_atom_site_label
_atom_site_fract_x
_atom_site_fract_y
_atom_site_fract_z
Si Si1 0.591745 0.701715 0.786679
Si Si2 0.084821 0.518472 0.398936
Si Si3 0.000000 0.678875 0.750000
Si Si4 0.528441 0.453945 0.603277
Si Si5 0.776918 0.133247 0.909812
O O1 0.500000 0.757544 0.750000
O O2 0.561380 0.534169 0.817947
O O3 0.687344 0.714336 0.698751
O O4 0.595307 0.806765 0.878243
O O5 0.183248 0.459542 0.414863
O O6 0.000000 0.500000 0.500000
O O7 0.064388 0.430502 0.301322
O O8 0.036775 0.792835 0.653282
O O9 0.500000 0.500000 0.500000
O O10 0.629625 0.536937 0.589585
O O11 0.750000 0.250000 0.000000
#
# Coordination Sequence:
#
# PCOD9286934 Si02
#       5
#     8   8   4   8   8
#     4  10  21  45  65  92 140 178 224 290 348 412
#     4  12  26  44  69 105 141 185 238 291 355 426
#     4  12  24  44  74  96 142 184 236 292 358 414
#     4  11  23  46  72 101 136 184 238 293 359 422
#     4  11  24  41  71  96 139 182 231 286 359 411
#
# _framework density 20.941597000000002
#
# number of rings (size 3 to 8) (size 9 to 14) (size 15 to 20)
#    0.000    0.889    4.444    5.333    3.111    1.778 
#    0.000    2.222    0.000    0.000    0.000    0.000 
#    0.000    0.000    0.000    0.000    0.000    0.000 
#
# Total GULP energy -100237.763418 kJ/mol
# GULP energy per Si atom -5568.764634 kJ/mol
# Density = 2.089393 g / cm^3
# Si number density = 20.941597 Si / 1000 Ang^3
#
#
#
# Elastic Constant Matrix: (Units=GPa)
#
#
# Indices 1 2 3 4 5 6 
#
# 1 103.8949 10.0380 30.6127 0.0000 -4.2944 0.0000
# 2 10.0380 55.9014 -6.3457 0.0000 -1.0527 0.0000
# 3 30.6127 -6.3457 99.5972 0.0000 -14.8772 0.0000
# 4 0.0000 0.0000 0.0000 46.0725 0.0000 -0.7027
# 5 -4.2944 -1.0527 -14.8772 0.0000 47.0318 0.0000
# 6 0.0000 0.0000 0.0000 -0.7027 0.0000 -7.2273
#
#
#
# Elastic Compliance Matrix: (Units=1/GPa)
#
#
# Indices 1 2 3 4 5 6 
#
# 1 0.010883 -0.002357 -0.003521 0.000000 -0.000173 0.000000
# 2 -0.002357 0.018559 0.002033 0.000000 0.000843 0.000000
# 3 -0.003521 0.002033 0.011767 0.000000 0.003446 0.000000
# 4 0.000000 0.000000 0.000000 0.021673 0.000000 -0.002107
# 5 -0.000173 0.000843 0.003446 0.000000 0.022355 0.000000
# 6 0.000000 0.000000 0.000000 -0.002107 0.000000 -0.138159
#
#
# Mechanical properties :
#
#
# Convention : Reuss Voigt Hill
#
# Bulk Modulus (GPa) = 29.83476 36.44481 33.13979
# Shear Modulus (GPa) = -146.80702 32.18129 -57.31286
#
# Velocity S-wave (km/s) = -8.38184 3.92435 -5.23711
# Velocity P-wave (km/s) = 8.91045 6.16238 4.55089
#
# Compressibility (1/GPa) = 0.03351795
#
# Stress axis : x y z
#
# Youngs Moduli (GPa) = 91.88464 53.88351 84.98341
#
# Poissons Ratio (x) = 0.12701 0.29924
# Poissons Ratio (y) = 0.21659 -0.17276
# Poissons Ratio (z) = 0.32354 -0.10954
#
# Static dielectric constant tensor:
#      x y z
#    x 1.731080 0.000000 0.055130 
#    y 0.000000 1.778990 0.000000 
#    z 0.055130 0.000000 1.890150 
# 
# From -- ./inp_files/150131.got.cif
#   From: 2010.05.17/outbox.cif.g08.bks.cpg/sg15_76_cif.got.tgz:150131.got - 2010.06.03 18:47:42.
