data_PCOD9286093
_publ_section_title
;
Structure prediction by ZEFSAII (Michael W. Deem and Ramdas Pophale) SiO2 
 PCOD9286093
Probable space group: C 2/C
;
_chemical_formula_sum "Si O2"
_cell_formula_units_Z 40
_cell_length_a 15.808654
_cell_length_b 13.446279
_cell_length_c 9.023334
_cell_angle_alpha 90.000000
_cell_angle_beta 102.126048
_cell_angle_gamma 90.000000
_cell_volume 1875.271954
_symmetry_space_group_name_H-M "C 2/C"
_symmetry_group_IT_number 15
_symmetry_cell_setting 'monoclinic'
loop_
_space_group_symop_operation_xyz
x,y,z
-x,y,1/2-z
-x,-y,-z
x,-y,1/2+z
1/2+x,1/2+y,z
1/2-x,1/2+y,1/2-z
1/2-x,1/2-y,-z
1/2+x,1/2-y,1/2+z
loop_
_atom_site_type_symbol
_atom_site_label
_atom_site_fract_x
_atom_site_fract_y
_atom_site_fract_z
Si Si1 0.578543 0.079957 0.047951
Si Si2 0.439519 0.459658 0.605603
Si Si3 0.162538 0.777528 0.056183
Si Si4 0.298237 0.397970 0.163659
Si Si5 0.306936 0.966350 0.641607
O O1 0.583434 0.198223 0.017003
O O2 0.615862 0.074704 0.228160
O O3 0.500000 0.000000 0.000000
O O4 0.649341 0.041851 0.956688
O O5 0.500000 0.410087 0.750000
O O6 0.500000 0.500000 0.500000
O O7 0.371233 0.381010 0.521314
O O8 0.389341 0.552220 0.658263
O O9 0.189250 0.798565 0.236632
O O10 0.250000 0.750000 0.000000
O O11 0.251757 0.475007 0.260921
O O12 0.245726 0.394498 0.989240
#
# Coordination Sequence:
#
# PCOD9286093 Si02
#       5
#     8   8   8   8   8
#     4  11  24  43  67 103 148 189 238 304 363 431
#     4  12  24  44  71 104 145 181 234 311 364 415
#     4  12  24  45  75 103 141 195 249 284 370 456
#     4  11  20  43  74 101 139 191 247 299 356 439
#     4  10  21  42  71  96 143 192 237 304 357 425
#
# _framework density 21.330238999999999
#
# number of rings (size 3 to 8) (size 9 to 14) (size 15 to 20)
#    0.000    0.800    6.000    1.800    0.000    2.400 
#    7.200    0.000    0.000    0.000    0.000    0.000 
#    0.000    0.000    0.000    0.000    0.000    0.000 
#
# Total GULP energy -111506.085317 kJ/mol
# GULP energy per Si atom -5575.304266 kJ/mol
# Density = 2.128169 g / cm^3
# Si number density = 21.330239 Si / 1000 Ang^3
#
#
#
# Elastic Constant Matrix: (Units=GPa)
#
#
# Indices 1 2 3 4 5 6 
#
# 1 114.5979 40.0332 46.2223 0.0000 -9.0632 0.0000
# 2 40.0332 79.8012 31.4330 0.0000 -2.0152 0.0000
# 3 46.2223 31.4330 150.4723 0.0000 11.5965 0.0000
# 4 0.0000 0.0000 0.0000 35.4100 0.0000 -0.9027
# 5 -9.0632 -2.0152 11.5965 0.0000 45.9588 0.0000
# 6 0.0000 0.0000 0.0000 -0.9027 0.0000 31.4545
#
#
#
# Elastic Compliance Matrix: (Units=1/GPa)
#
#
# Indices 1 2 3 4 5 6 
#
# 1 0.011737 -0.004697 -0.002842 0.000000 0.002826 0.000000
# 2 -0.004697 0.015616 -0.001836 0.000000 0.000222 0.000000
# 3 -0.002842 -0.001836 0.008109 0.000000 -0.002687 0.000000
# 4 0.000000 0.000000 0.000000 0.028261 0.000000 0.000811
# 5 0.002826 0.000222 -0.002687 0.000000 0.023004 0.000000
# 6 0.000000 0.000000 0.000000 0.000811 0.000000 0.031815
#
#
# Mechanical properties :
#
#
# Convention : Reuss Voigt Hill
#
# Bulk Modulus (GPa) = 59.83806 64.47205 62.15506
# Shear Modulus (GPa) = 34.99826 37.71019 36.35422
#
# Velocity S-wave (km/s) = 4.05505 4.20923 4.13286
# Velocity P-wave (km/s) = 7.07380 7.34267 7.20949
#
# Compressibility (1/GPa) = 0.01671177
#
# Stress axis : x y z
#
# Youngs Moduli (GPa) = 85.20235 64.03493 123.31335
#
# Poissons Ratio (x) = 0.30078 0.35044
# Poissons Ratio (y) = 0.40021 0.22646
# Poissons Ratio (z) = 0.24213 0.11760
#
# Static dielectric constant tensor:
#      x y z
#    x 1.762160 0.000000 0.030690 
#    y 0.000000 1.843430 0.000000 
#    z 0.030690 0.000000 1.804420 
# 
# From -- ./inp_files/46253.got.cif
#   From: 2010.05.17/outbox.cif.g08.bks.cpg/sg15_24_cif.got.tgz:46253.got - 2010.06.03 18:47:42.
