data_PCOD9286843
_publ_section_title
;
Structure prediction by ZEFSAII (Michael W. Deem and Ramdas Pophale) SiO2 
 PCOD9286843
Probable space group: C 2/C
;
_chemical_formula_sum "Si O2"
_cell_formula_units_Z 56
_cell_length_a 8.863856
_cell_length_b 27.457500
_cell_length_c 11.987092
_cell_angle_alpha 90.000000
_cell_angle_beta 61.810687
_cell_angle_gamma 90.000000
_cell_volume 2571.380934
_symmetry_space_group_name_H-M "C 2/C"
_symmetry_group_IT_number 15
_symmetry_cell_setting 'monoclinic'
loop_
_space_group_symop_operation_xyz
x,y,z
-x,y,1/2-z
-x,-y,-z
x,-y,1/2+z
1/2+x,1/2+y,z
1/2-x,1/2+y,1/2-z
1/2-x,1/2-y,-z
1/2+x,1/2-y,1/2+z
loop_
_atom_site_type_symbol
_atom_site_label
_atom_site_fract_x
_atom_site_fract_y
_atom_site_fract_z
Si Si1 0.803949 0.241144 0.803283
Si Si2 0.944564 0.664891 0.554285
Si Si3 0.742878 0.797763 0.077749
Si Si4 0.840329 0.351962 0.738415
Si Si5 0.335143 0.413758 0.388480
Si Si6 0.999462 0.882611 0.936632
Si Si7 0.412943 0.515543 0.406975
O O1 0.671860 0.212705 0.927704
O O2 0.757929 0.220991 0.697514
O O3 0.797579 0.299451 0.808627
O O4 0.000000 0.226277 0.750000
O O5 0.815912 0.619547 0.605907
O O6 0.066864 0.674662 0.614832
O O7 0.077990 0.657940 0.408623
O O8 0.750000 0.750000 0.000000
O O9 0.893913 0.833662 0.987921
O O10 0.660991 0.379430 0.796904
O O11 0.000000 0.375384 0.750000
O O12 0.500000 0.413249 0.250000
O O13 0.403791 0.391856 0.480065
O O14 0.285837 0.470017 0.430982
O O15 0.878954 0.928080 0.946485
O O16 0.500000 0.517205 0.250000
O O17 0.500000 0.500000 0.500000
#
# Coordination Sequence:
#
# PCOD9286843 Si02
#       7
#     8   8   8   8   8   8   8
#     4  11  25  42  64  91 135 188 229 275 336 413
#     4  12  23  40  63  94 132 175 229 279 335 392
#     4  12  25  41  62  98 138 178 223 285 335 406
#     4  11  24  38  64  97 136 178 232 281 330 409
#     4  10  21  44  70  95 125 175 230 284 344 415
#     4  11  23  41  68  95 134 178 226 275 354 412
#     4   9  21  40  70  99 130 174 227 285 347 421
#
# _framework density 21.778181
#
# number of rings (size 3 to 8) (size 9 to 14) (size 15 to 20)
#    0.000    1.143    2.857    3.429    2.000    1.143 
#    0.000    0.714    0.000    0.000    0.000    0.000 
#    0.000    0.000    0.000    0.000    0.000    0.000 
#
# Total GULP energy -156211.097986 kJ/mol
# GULP energy per Si atom -5578.967785 kJ/mol
# Density = 2.172861 g / cm^3
# Si number density = 21.778181 Si / 1000 Ang^3
#
#
#
# Elastic Constant Matrix: (Units=GPa)
#
#
# Indices 1 2 3 4 5 6 
#
# 1 98.8441 35.8709 13.2627 0.0000 -0.7443 0.0000
# 2 35.8709 122.7870 9.3734 0.0000 -11.3379 0.0000
# 3 13.2627 9.3734 94.7472 0.0000 3.3019 0.0000
# 4 0.0000 0.0000 0.0000 56.8167 0.0000 -36.2931
# 5 -0.7443 -11.3379 3.3019 0.0000 41.1715 0.0000
# 6 0.0000 0.0000 0.0000 -36.2931 0.0000 73.9150
#
#
#
# Elastic Compliance Matrix: (Units=1/GPa)
#
#
# Indices 1 2 3 4 5 6 
#
# 1 0.011484 -0.003315 -0.001259 0.000000 -0.000604 0.000000
# 2 -0.003315 0.009392 -0.000555 0.000000 0.002571 0.000000
# 3 -0.001259 -0.000555 0.010822 0.000000 -0.001043 0.000000
# 4 0.000000 0.000000 0.000000 0.025643 0.000000 0.012591
# 5 -0.000604 0.002571 -0.001043 0.000000 0.025069 0.000000
# 6 0.000000 0.000000 0.000000 0.012591 0.000000 0.019711
#
#
# Mechanical properties :
#
#
# Convention : Reuss Voigt Hill
#
# Bulk Modulus (GPa) = 46.63706 48.15470 47.39588
# Shear Modulus (GPa) = 41.83185 51.57206 46.70195
#
# Velocity S-wave (km/s) = 4.38746 4.87155 4.63583
# Velocity P-wave (km/s) = 6.86495 7.33499 7.10386
#
# Compressibility (1/GPa) = 0.02144217
#
# Stress axis : x y z
#
# Youngs Moduli (GPa) = 87.07627 106.47028 92.40585
#
# Poissons Ratio (x) = 0.35292 0.11630
# Poissons Ratio (y) = 0.28863 0.05127
# Poissons Ratio (z) = 0.10959 0.05907
#
# Static dielectric constant tensor:
#      x y z
#    x 1.807700 0.000000 0.004150 
#    y 0.000000 1.814350 0.000000 
#    z 0.004150 0.000000 1.956680 
# 
# From -- ./inp_files/82487.got.cif
#   From: 2010.05.17/outbox.cif.g08.bks.cpg/sg15_42_cif.got.tgz:82487.got - 2010.06.03 18:47:42.
