data_PCOD9286801
_publ_section_title
;
Structure prediction by ZEFSAII (Michael W. Deem and Ramdas Pophale) SiO2 
 PCOD9286801
Probable space group: C 2/C
;
_chemical_formula_sum "Si O2"
_cell_formula_units_Z 40
_cell_length_a 13.183436
_cell_length_b 8.641092
_cell_length_c 17.135651
_cell_angle_alpha 90.000000
_cell_angle_beta 107.443233
_cell_angle_gamma 90.000000
_cell_volume 1862.313488
_symmetry_space_group_name_H-M "C 2/C"
_symmetry_group_IT_number 15
_symmetry_cell_setting 'monoclinic'
loop_
_space_group_symop_operation_xyz
x,y,z
-x,y,1/2-z
-x,-y,-z
x,-y,1/2+z
1/2+x,1/2+y,z
1/2-x,1/2+y,1/2-z
1/2-x,1/2-y,-z
1/2+x,1/2-y,1/2+z
loop_
_atom_site_type_symbol
_atom_site_label
_atom_site_fract_x
_atom_site_fract_y
_atom_site_fract_z
Si Si1 0.461088 0.383063 0.056189
Si Si2 0.929554 0.828268 0.655047
Si Si3 0.601572 0.287115 0.218729
Si Si4 0.747107 0.055829 0.193560
Si Si5 0.434080 0.870856 0.438460
O O1 0.421186 0.500433 0.113600
O O2 0.556668 0.292739 0.120568
O O3 0.500000 0.500000 0.000000
O O4 0.395409 0.255597 0.993593
O O5 0.808270 0.812050 0.656921
O O6 0.000000 0.823405 0.750000
O O7 0.987069 0.714945 0.606115
O O8 0.500000 0.266845 0.250000
O O9 0.681448 0.144993 0.244372
O O10 0.664119 0.444401 0.249778
O O11 0.664773 0.950597 0.126995
O O12 0.500000 0.000000 0.500000
#
# Coordination Sequence:
#
# PCOD9286801 Si02
#       5
#     8   8   8   8   8
#     4  10  21  44  69  93 143 175 216 296 339 393
#     4  11  22  46  71  96 138 182 230 282 332 414
#     4  12  25  47  68 103 138 178 235 287 335 420
#     4  12  25  42  74  98 132 192 229 273 359 406
#     4  11  25  44  65 106 143 172 228 292 338 405
#
# _framework density 21.478660999999999
#
# number of rings (size 3 to 8) (size 9 to 14) (size 15 to 20)
#    0.000    0.800    6.000    1.200    2.800    4.000 
#    0.000    0.000    0.000    0.000    0.000    0.000 
#    0.000    0.000    0.000    0.000    0.000    0.000 
#
# Total GULP energy -111545.092612 kJ/mol
# GULP energy per Si atom -5577.254631 kJ/mol
# Density = 2.142977 g / cm^3
# Si number density = 21.478661 Si / 1000 Ang^3
#
#
#
# Elastic Constant Matrix: (Units=GPa)
#
#
# Indices 1 2 3 4 5 6 
#
# 1 136.1421 49.3589 33.3565 0.0000 -7.6550 0.0000
# 2 49.3589 86.7193 40.4190 0.0000 -12.0294 0.0000
# 3 33.3565 40.4190 88.9898 0.0000 -16.0693 0.0000
# 4 0.0000 0.0000 0.0000 36.3550 0.0000 -4.7234
# 5 -7.6550 -12.0294 -16.0693 0.0000 19.8302 0.0000
# 6 0.0000 0.0000 0.0000 -4.7234 0.0000 42.4933
#
#
#
# Elastic Compliance Matrix: (Units=1/GPa)
#
#
# Indices 1 2 3 4 5 6 
#
# 1 0.009391 -0.004728 -0.001448 0.000000 -0.000416 0.000000
# 2 -0.004728 0.017297 -0.005294 0.000000 0.004378 0.000000
# 3 -0.001448 -0.005294 0.015818 0.000000 0.009048 0.000000
# 4 0.000000 0.000000 0.000000 0.027910 0.000000 0.003102
# 5 -0.000416 0.004378 0.009048 0.000000 0.060255 0.000000
# 6 0.000000 0.000000 0.000000 0.003102 0.000000 0.023878
#
#
# Mechanical properties :
#
#
# Convention : Reuss Voigt Hill
#
# Bulk Modulus (GPa) = 51.10520 62.01332 56.55926
# Shear Modulus (GPa) = 27.17249 32.31681 29.74465
#
# Velocity S-wave (km/s) = 3.56067 3.88313 3.72539
# Velocity P-wave (km/s) = 6.38354 7.00283 6.70035
#
# Compressibility (1/GPa) = 0.01956748
#
# Stress axis : x y z
#
# Youngs Moduli (GPa) = 106.48820 57.81319 63.21900
#
# Poissons Ratio (x) = 0.27334 0.09152
# Poissons Ratio (y) = 0.50347 0.33465
# Poissons Ratio (z) = 0.15416 0.30604
#
# Static dielectric constant tensor:
#      x y z
#    x 1.808500 0.000000 -0.043670 
#    y 0.000000 1.826740 0.000000 
#    z -0.043670 0.000000 1.785620 
# 
# From -- ./inp_files/195186.got.cif
#   From: 2010.05.17/outbox.cif.g08.bks.cpg/sg15_98_cif.got.tgz:195186.got - 2010.06.03 18:47:42.
