data_PCOD9286415
_publ_section_title
;
Structure prediction by ZEFSAII (Michael W. Deem and Ramdas Pophale) SiO2 
 PCOD9286415
Probable space group: C 2/C
;
_chemical_formula_sum "Si O2"
_cell_formula_units_Z 40
_cell_length_a 19.452588
_cell_length_b 11.056286
_cell_length_c 13.806410
_cell_angle_alpha 90.000000
_cell_angle_beta 31.884331
_cell_angle_gamma 90.000000
_cell_volume 1568.450677
_symmetry_space_group_name_H-M "C 2/C"
_symmetry_group_IT_number 15
_symmetry_cell_setting 'monoclinic'
loop_
_space_group_symop_operation_xyz
x,y,z
-x,y,1/2-z
-x,-y,-z
x,-y,1/2+z
1/2+x,1/2+y,z
1/2-x,1/2+y,1/2-z
1/2-x,1/2-y,-z
1/2+x,1/2-y,1/2+z
loop_
_atom_site_type_symbol
_atom_site_label
_atom_site_fract_x
_atom_site_fract_y
_atom_site_fract_z
Si Si1 0.306716 0.996110 0.588443
Si Si2 0.081443 0.930153 0.984410
Si Si3 0.766578 0.501397 0.422319
Si Si4 0.528830 0.194719 0.812804
Si Si5 0.005204 0.683104 0.426776
O O1 0.244219 0.034834 0.561500
O O2 0.372722 0.105396 0.568906
O O3 0.212833 0.912478 0.763402
O O4 0.429773 0.915999 0.415134
O O5 0.140757 0.997293 0.005930
O O6 0.013989 0.809168 0.103799
O O7 0.000000 0.000000 0.000000
O O8 0.829824 0.367148 0.347784
O O9 0.874907 0.597963 0.250176
O O10 0.500000 0.270694 0.750000
O O11 0.490236 0.230370 0.967674
#
# Coordination Sequence:
#
# PCOD9286415 Si02
#       5
#     8   8   8   8   8
#     4  10  21  43  68  94 127 176 221 269 324 389
#     4  12  27  41  62  99 137 165 219 282 327 379
#     4  10  21  43  68  93 130 172 224 271 317 395
#     4   9  17  37  70  94 118 172 229 258 320 401
#     4  11  21  41  71  92 129 177 219 265 334 393
#
# _framework density 25.502873999999998
#
# number of rings (size 3 to 8) (size 9 to 14) (size 15 to 20)
#    0.000    1.600    4.000    3.000    2.800    1.600 
#    7.200    2.000    0.000    0.000    0.000    0.000 
#    0.000    0.000    0.000    0.000    0.000    0.000 
#
# Total GULP energy -111575.253047 kJ/mol
# GULP energy per Si atom -5578.762652 kJ/mol
# Density = 2.544483 g / cm^3
# Si number density = 25.502874 Si / 1000 Ang^3
#
#
#
# Elastic Constant Matrix: (Units=GPa)
#
#
# Indices 1 2 3 4 5 6 
#
# 1 179.6384 8.4613 12.3867 0.0000 11.5400 0.0000
# 2 8.4613 80.8053 26.1206 0.0000 -10.2947 0.0000
# 3 12.3867 26.1206 59.3683 0.0000 8.7266 0.0000
# 4 0.0000 0.0000 0.0000 23.8475 0.0000 -4.6153
# 5 11.5400 -10.2947 8.7266 0.0000 46.0397 0.0000
# 6 0.0000 0.0000 0.0000 -4.6153 0.0000 5.4224
#
#
#
# Elastic Compliance Matrix: (Units=1/GPa)
#
#
# Indices 1 2 3 4 5 6 
#
# 1 0.005735 -0.000538 -0.000752 0.000000 -0.001415 0.000000
# 2 -0.000538 0.015471 -0.007430 0.000000 0.005002 0.000000
# 3 -0.000752 -0.007430 0.021073 0.000000 -0.005467 0.000000
# 4 0.000000 0.000000 0.000000 0.050203 0.000000 0.042730
# 5 -0.001415 0.005002 -0.005467 0.000000 0.024230 0.000000
# 6 0.000000 0.000000 0.000000 0.042730 0.000000 0.220788
#
#
# Mechanical properties :
#
#
# Convention : Reuss Voigt Hill
#
# Bulk Modulus (GPa) = 40.25761 45.97213 43.11487
# Shear Modulus (GPa) = 13.76581 33.25148 23.50865
#
# Velocity S-wave (km/s) = 2.32583 3.61478 3.03942
# Velocity P-wave (km/s) = 4.79921 5.95714 5.40925
#
# Compressibility (1/GPa) = 0.02484002
#
# Stress axis : x y z
#
# Youngs Moduli (GPa) = 174.37321 64.63797 47.45297
#
# Poissons Ratio (x) = 0.03476 0.03568
# Poissons Ratio (y) = 0.09377 0.35257
# Poissons Ratio (z) = 0.13111 0.48025
#
# Static dielectric constant tensor:
#      x y z
#    x 2.178600 0.000000 0.040380 
#    y 0.000000 1.974470 0.000000 
#    z 0.040380 0.000000 2.075160 
# 
# From -- ./inp_files/110464.got.cif
#   From: 2010.05.17/outbox.cif.g08.bks.cpg/sg15_56_cif.got.tgz:110464.got - 2010.06.03 18:47:42.
