data_PCOD9286149
_publ_section_title
;
Structure prediction by ZEFSAII (Michael W. Deem and Ramdas Pophale) SiO2 
 PCOD9286149
Probable space group: C 2/C
;
_chemical_formula_sum "Si O2"
_cell_formula_units_Z 32
_cell_length_a 20.546803
_cell_length_b 9.212524
_cell_length_c 14.200380
_cell_angle_alpha 90.000000
_cell_angle_beta 25.815080
_cell_angle_gamma 90.000000
_cell_volume 1170.520829
_symmetry_space_group_name_H-M "C 2/C"
_symmetry_group_IT_number 15
_symmetry_cell_setting 'monoclinic'
loop_
_space_group_symop_operation_xyz
x,y,z
-x,y,1/2-z
-x,-y,-z
x,-y,1/2+z
1/2+x,1/2+y,z
1/2-x,1/2+y,1/2-z
1/2-x,1/2-y,-z
1/2+x,1/2-y,1/2+z
loop_
_atom_site_type_symbol
_atom_site_label
_atom_site_fract_x
_atom_site_fract_y
_atom_site_fract_z
Si Si1 0.197367 0.555767 0.413242
Si Si2 0.830066 0.959196 0.944200
Si Si3 0.248923 0.727807 0.164013
Si Si4 0.042222 0.650839 0.893688
O O1 0.291111 0.569460 0.386555
O O2 0.281600 0.625005 0.212525
O O3 0.172821 0.382046 0.435536
O O4 0.035051 0.628784 0.607854
O O5 0.000000 0.937420 0.750000
O O6 0.929437 0.759439 0.093035
O O7 0.787742 0.125172 0.026059
O O8 0.281490 0.858116 0.349424
O O9 0.000000 0.500000 0.000000
#
# Coordination Sequence:
#
# PCOD9286149 Si02
#       4
#     8   8   8   8
#     4  10  21  42  74  94 137 179 230 282 340 403
#     4  11  22  39  67 106 136 176 236 280 334 416
#     4   9  22  41  70 100 135 179 233 275 346 405
#     4   8  19  41  66  93 134 177 223 277 338 396
#
# _framework density 27.338256000000001
#
# number of rings (size 3 to 8) (size 9 to 14) (size 15 to 20)
#    1.500    1.000    0.000    1.500    0.000    7.000 
#    0.000    1.250    5.500    0.000    0.000    0.000 
#    0.000    0.000    0.000    0.000    0.000    0.000 
#
# Total GULP energy -89428.424072 kJ/mol
# GULP energy per Si atom -5589.276504 kJ/mol
# Density = 2.727603 g / cm^3
# Si number density = 27.338256 Si / 1000 Ang^3
#
#
#
# Elastic Constant Matrix: (Units=GPa)
#
#
# Indices 1 2 3 4 5 6 
#
# 1 170.5026 10.8058 63.7540 0.0000 -26.4488 0.0000
# 2 10.8058 124.8708 11.7909 0.0000 -1.6904 0.0000
# 3 63.7540 11.7909 131.0179 0.0000 -51.8461 0.0000
# 4 0.0000 0.0000 0.0000 24.2289 0.0000 4.9793
# 5 -26.4488 -1.6904 -51.8461 0.0000 65.2569 0.0000
# 6 0.0000 0.0000 0.0000 4.9793 0.0000 39.4239
#
#
#
# Elastic Compliance Matrix: (Units=1/GPa)
#
#
# Indices 1 2 3 4 5 6 
#
# 1 0.007182 -0.000299 -0.003383 0.000000 0.000216 0.000000
# 2 -0.000299 0.008102 -0.000800 0.000000 -0.000547 0.000000
# 3 -0.003383 -0.000800 0.012835 0.000000 0.008806 0.000000
# 4 0.000000 0.000000 0.000000 0.042373 0.000000 -0.005352
# 5 0.000216 -0.000547 0.008806 0.000000 0.022393 0.000000
# 6 0.000000 0.000000 0.000000 -0.005352 0.000000 0.026041
#
#
# Mechanical properties :
#
#
# Convention : Reuss Voigt Hill
#
# Bulk Modulus (GPa) = 52.20298 66.56588 59.38443
# Shear Modulus (GPa) = 37.23667 48.45131 42.84399
#
# Velocity S-wave (km/s) = 3.69463 4.21442 3.96306
# Velocity P-wave (km/s) = 6.11041 6.93424 6.53532
#
# Compressibility (1/GPa) = 0.01915599
#
# Stress axis : x y z
#
# Youngs Moduli (GPa) = 139.23172 123.42169 77.91125
#
# Poissons Ratio (x) = 0.03693 0.26354
# Poissons Ratio (y) = 0.04166 0.06233
# Poissons Ratio (z) = 0.47097 0.09874
#
# Static dielectric constant tensor:
#      x y z
#    x 2.289640 0.000000 -0.064890 
#    y 0.000000 2.191600 0.000000 
#    z -0.064890 0.000000 2.184740 
# 
# From -- ./inp_files/172222.got.cif
#   From: 2010.05.17/outbox.cif.g08.bks.cpg/sg15_87_cif.got.tgz:172222.got - 2010.06.03 18:47:42.
