data_PCOD9286421
_publ_section_title
;
Structure prediction by ZEFSAII (Michael W. Deem and Ramdas Pophale) SiO2 
 PCOD9286421
Probable space group: C 2/C
;
_chemical_formula_sum "Si O2"
_cell_formula_units_Z 60
_cell_length_a 9.801444
_cell_length_b 21.299650
_cell_length_c 20.677870
_cell_angle_alpha 90.000000
_cell_angle_beta 141.187411
_cell_angle_gamma 90.000000
_cell_volume 2705.702347
_symmetry_space_group_name_H-M "C 2/C"
_symmetry_group_IT_number 15
_symmetry_cell_setting 'monoclinic'
loop_
_space_group_symop_operation_xyz
x,y,z
-x,y,1/2-z
-x,-y,-z
x,-y,1/2+z
1/2+x,1/2+y,z
1/2-x,1/2+y,1/2-z
1/2-x,1/2-y,-z
1/2+x,1/2-y,1/2+z
loop_
_atom_site_type_symbol
_atom_site_label
_atom_site_fract_x
_atom_site_fract_y
_atom_site_fract_z
Si Si1 0.177910 0.049408 0.858804
Si Si2 0.500000 0.213917 0.250000
Si Si3 0.902443 0.279875 0.328464
Si Si4 0.129150 0.863692 0.555340
Si Si5 0.774058 0.496511 0.135851
Si Si6 0.857653 0.547550 0.523283
Si Si7 0.117424 0.120142 0.661056
Si Si8 0.817659 0.826509 0.557430
O O1 0.387579 0.060971 0.892327
O O2 0.000000 0.012668 0.750000
O O3 0.037890 0.106885 0.835233
O O4 0.280373 0.014897 0.958556
O O5 0.680434 0.254038 0.278359
O O6 0.639016 0.169207 0.348818
O O7 0.823878 0.336920 0.254576
O O8 0.042290 0.222401 0.349121
O O9 0.080401 0.302433 0.447270
O O10 0.148505 0.938851 0.574394
O O11 0.028036 0.849419 0.448643
O O12 0.965973 0.835924 0.548374
O O13 0.813391 0.460477 0.082758
O O14 0.681833 0.447402 0.154196
O O15 0.000000 0.518026 0.250000
O O16 0.727268 0.602621 0.438512
#
# Coordination Sequence:
#
# PCOD9286421 Si02
#       8
#     8   4   8   8   8   8   8   8
#     4  11  24  41  64 101 139 185 225 280 356 432
#     4  10  24  46  68  96 142 188 232 284 350 420
#     4  10  24  41  66  96 132 187 230 276 346 405
#     4  11  22  41  70 101 139 172 230 299 356 405
#     4  12  22  40  71 112 138 177 228 303 367 410
#     4  11  23  42  68 101 143 180 225 288 361 420
#     4  12  24  40  70 103 137 175 242 289 345 423
#     4  10  21  43  68  94 133 180 227 286 340 410
#
# _framework density 22.175388000000002
#
# number of rings (size 3 to 8) (size 9 to 14) (size 15 to 20)
#    0.000    1.067    3.333    3.600    2.800    0.533 
#    0.000    0.000   11.733    0.000    0.000    0.000 
#    0.000    0.000    0.000    0.000    0.000    0.000 
#
# Total GULP energy -167502.576697 kJ/mol
# GULP energy per Si atom -5583.419223 kJ/mol
# Density = 2.212492 g / cm^3
# Si number density = 22.175388 Si / 1000 Ang^3
#
#
#
# Elastic Constant Matrix: (Units=GPa)
#
#
# Indices 1 2 3 4 5 6 
#
# 1 89.9800 28.0752 44.2918 -0.0001 20.4521 -0.0002
# 2 28.0752 105.0612 41.2877 0.0001 10.3143 -0.0002
# 3 44.2918 41.2877 143.1082 0.0008 20.0414 -0.0011
# 4 -0.0001 0.0001 0.0008 26.2054 0.0002 10.6563
# 5 20.4521 10.3143 20.0414 0.0002 35.9406 -0.0005
# 6 -0.0002 -0.0002 -0.0011 10.6563 -0.0005 3.1732
#
#
#
# Elastic Compliance Matrix: (Units=1/GPa)
#
#
# Indices 1 2 3 4 5 6 
#
# 1 0.014659 -0.002115 -0.003084 -0.000002 -0.006015 0.000005
# 2 -0.002115 0.011112 -0.002466 -0.000001 -0.000611 0.000001
# 3 -0.003084 -0.002466 0.009013 0.000004 -0.002563 -0.000009
# 4 -0.000002 -0.000001 0.000004 -0.104373 0.000005 0.350511
# 5 -0.006015 -0.000611 -0.002563 0.000005 0.032851 -0.000012
# 6 0.000005 0.000001 -0.000009 0.350511 -0.000012 -0.861959
#
#
# Mechanical properties :
#
#
# Convention : Reuss Voigt Hill
#
# Bulk Modulus (GPa) = 51.40394 62.82877 57.11635
# Shear Modulus (GPa) = -5.70202 28.03015 11.16407
#
# Velocity S-wave (km/s) = -1.60528 3.55916 2.24619
# Velocity P-wave (km/s) = 4.44917 6.72937 5.70436
#
# Compressibility (1/GPa) = 0.01945376
#
# Stress axis : x y z
#
# Youngs Moduli (GPa) = 68.21841 89.98956 110.95413
#
# Poissons Ratio (x) = 0.19029 0.34224
# Poissons Ratio (y) = 0.14425 0.27362
# Poissons Ratio (z) = 0.21042 0.22192
#
# Static dielectric constant tensor:
#      x y z
#    x 1.809010 0.000000 0.009830 
#    y 0.000000 1.901740 0.000000 
#    z 0.009830 0.000000 1.825330 
# 
# From -- ./inp_files/234597.got.cif
#   From: 2010.05.17/outbox.cif.g08.bks.cpg/sg15_118_cif.got.tgz:234597.got - 2010.06.03 18:47:42.
