data_PCOD9286084
_publ_section_title
;
Structure prediction by ZEFSAII (Michael W. Deem and Ramdas Pophale) SiO2 
 PCOD9286084
Probable space group: C 2/C
;
_chemical_formula_sum "Si O2"
_cell_formula_units_Z 28
_cell_length_a 8.579325
_cell_length_b 21.074673
_cell_length_c 8.103516
_cell_angle_alpha 90.000000
_cell_angle_beta 129.384134
_cell_angle_gamma 90.000000
_cell_volume 1132.442075
_symmetry_space_group_name_H-M "C 2/C"
_symmetry_group_IT_number 15
_symmetry_cell_setting 'monoclinic'
loop_
_space_group_symop_operation_xyz
x,y,z
-x,y,1/2-z
-x,-y,-z
x,-y,1/2+z
1/2+x,1/2+y,z
1/2-x,1/2+y,1/2-z
1/2-x,1/2-y,-z
1/2+x,1/2-y,1/2+z
loop_
_atom_site_type_symbol
_atom_site_label
_atom_site_fract_x
_atom_site_fract_y
_atom_site_fract_z
Si Si1 0.772311 0.441460 0.025360
Si Si2 0.733025 0.191673 0.864975
Si Si3 0.736558 0.921801 0.870643
Si Si4 0.000000 0.822407 0.250000
O O1 0.676827 0.378751 0.042664
O O2 0.686412 0.510734 0.006346
O O3 0.000000 0.448551 0.250000
O O4 0.760025 0.427371 0.824128
O O5 0.500000 0.176963 0.750000
O O6 0.843191 0.212662 0.769346
O O7 0.750000 0.250000 0.000000
O O8 0.500000 0.913234 0.750000
O O9 0.852659 0.865709 0.040186
#
# Coordination Sequence:
#
# PCOD9286084 Si02
#       4
#     8   8   8   4
#     4  10  21  42  71 107 151 189 241 310 372 436
#     4  11  27  50  71 106 150 196 252 303 359 446
#     4  11  22  42  75 111 150 190 239 313 379 440
#     4  12  28  48  78 114 144 196 252 302 380 442
#
# _framework density 24.725325999999999
#
# number of rings (size 3 to 8) (size 9 to 14) (size 15 to 20)
#    0.000    1.143    0.000    8.571    4.000    5.714 
#    2.571    0.000    0.000    0.000    0.000    0.000 
#    0.000    0.000    0.000    0.000    0.000    0.000 
#
# Total GULP energy -78132.302607 kJ/mol
# GULP energy per Si atom -5580.878758 kJ/mol
# Density = 2.466905 g / cm^3
# Si number density = 24.725326 Si / 1000 Ang^3
#
#
#
# Elastic Constant Matrix: (Units=GPa)
#
#
# Indices 1 2 3 4 5 6 
#
# 1 213.8118 26.0260 52.4057 0.0000 -15.8056 0.0000
# 2 26.0260 64.5882 10.6389 0.0000 1.4155 0.0000
# 3 52.4057 10.6389 125.7119 0.0000 -6.2098 0.0000
# 4 0.0000 0.0000 0.0000 -20.1628 0.0000 -44.3322
# 5 -15.8056 1.4155 -6.2098 0.0000 43.0773 0.0000
# 6 0.0000 0.0000 0.0000 -44.3322 0.0000 12.8471
#
#
#
# Elastic Compliance Matrix: (Units=1/GPa)
#
#
# Indices 1 2 3 4 5 6 
#
# 1 0.005551 -0.001937 -0.002061 0.000000 0.001803 0.000000
# 2 -0.001937 0.016399 -0.000647 0.000000 -0.001343 0.000000
# 3 -0.002061 -0.000647 0.008896 0.000000 0.000547 0.000000
# 4 0.000000 0.000000 0.000000 -0.005776 0.000000 -0.019930
# 5 0.001803 -0.001343 0.000547 0.000000 0.023999 0.000000
# 6 0.000000 0.000000 0.000000 -0.019930 0.000000 0.009064
#
#
# Mechanical properties :
#
#
# Convention : Reuss Voigt Hill
#
# Bulk Modulus (GPa) = 46.38969 64.69478 55.54223
# Shear Modulus (GPa) = 67.01609 28.15508 47.58559
#
# Velocity S-wave (km/s) = 5.21182 3.37814 4.39175
# Velocity P-wave (km/s) = 7.41756 6.43724 6.94472
#
# Compressibility (1/GPa) = 0.02155651
#
# Stress axis : x y z
#
# Youngs Moduli (GPa) = 180.13843 60.97874 112.41377
#
# Poissons Ratio (x) = 0.11811 0.23170
# Poissons Ratio (y) = 0.34891 0.07270
# Poissons Ratio (z) = 0.37130 0.03944
#
# Static dielectric constant tensor:
#      x y z
#    x 1.904160 0.000000 -0.007720 
#    y 0.000000 2.146640 0.000000 
#    z -0.007720 0.000000 2.000000 
# 
# From -- ./inp_files/22621.got.cif
#   From: 2010.05.17/outbox.cif.g08.bks.cpg/sg15_12_cif.got.tgz:22621.got - 2010.06.03 18:47:42.
