data_PCOD9286318
_publ_section_title
;
Structure prediction by ZEFSAII (Michael W. Deem and Ramdas Pophale) SiO2 
 PCOD9286318
Probable space group: C 2/C
;
_chemical_formula_sum "Si O2"
_cell_formula_units_Z 56
_cell_length_a 7.851867
_cell_length_b 34.653660
_cell_length_c 9.833575
_cell_angle_alpha 90.000000
_cell_angle_beta 65.501466
_cell_angle_gamma 90.000000
_cell_volume 2434.789676
_symmetry_space_group_name_H-M "C 2/C"
_symmetry_group_IT_number 15
_symmetry_cell_setting 'monoclinic'
loop_
_space_group_symop_operation_xyz
x,y,z
-x,y,1/2-z
-x,-y,-z
x,-y,1/2+z
1/2+x,1/2+y,z
1/2-x,1/2+y,1/2-z
1/2-x,1/2-y,-z
1/2+x,1/2-y,1/2+z
loop_
_atom_site_type_symbol
_atom_site_label
_atom_site_fract_x
_atom_site_fract_y
_atom_site_fract_z
Si Si1 0.197856 0.486364 0.880927
Si Si2 0.701895 0.462014 0.929883
Si Si3 0.020671 0.847734 0.407891
Si Si4 0.089531 0.333788 0.538605
Si Si5 0.500000 0.101554 0.250000
Si Si6 0.118468 0.087944 0.082100
Si Si7 0.313684 0.790478 0.243624
Si Si8 0.500000 0.235763 0.250000
O O1 0.224346 0.490410 0.712167
O O2 0.224269 0.440918 0.909082
O O3 0.324575 0.516237 0.921296
O O4 0.000000 0.500000 0.000000
O O5 0.846637 0.426351 0.869120
O O6 0.510912 0.444411 0.943480
O O7 0.125391 0.880019 0.462975
O O8 0.147776 0.809711 0.387090
O O9 0.000000 0.855441 0.250000
O O10 0.802620 0.841742 0.521278
O O11 0.108867 0.326256 0.372680
O O12 0.960504 0.367872 0.640241
O O13 0.013136 0.293415 0.619961
O O14 0.000000 0.103818 0.250000
O O15 0.500000 0.773541 0.250000
O O16 0.188351 0.761104 0.196702
#
# Coordination Sequence:
#
# PCOD9286318 Si02
#       8
#     8   8   8   8   4   8   8   4
#     4  11  22  39  58  88 121 163 208 270 326 389
#     4  11  22  40  61  87 125 162 214 268 328 397
#     4  10  21  43  66  95 135 176 218 281 337 401
#     4  10  22  42  69  97 130 178 224 267 345 398
#     4  11  20  38  72  90 124 176 210 270 340 396
#     4  10  23  40  64  89 128 166 218 273 329 399
#     4  11  24  42  67  98 140 175 224 279 332 402
#     4  11  22  44  72  94 140 182 220 280 334 404
#
# _framework density 22.999932999999999
#
# number of rings (size 3 to 8) (size 9 to 14) (size 15 to 20)
#    0.000    1.429    5.000    0.857    0.000    4.000 
#    0.000    0.000    0.000    0.000    0.000    0.000 
#    0.000    0.000    0.000    0.000    0.000    0.000 
#
# Total GULP energy -156050.427564 kJ/mol
# GULP energy per Si atom -5573.229556 kJ/mol
# Density = 2.294758 g / cm^3
# Si number density = 22.999933 Si / 1000 Ang^3
#
#
#
# Elastic Constant Matrix: (Units=GPa)
#
#
# Indices 1 2 3 4 5 6 
#
# 1 81.6151 21.3346 3.4302 0.0000 0.0922 0.0000
# 2 21.3346 90.3596 26.7628 0.0000 -1.4964 0.0000
# 3 3.4302 26.7628 63.9993 0.0000 3.8512 0.0000
# 4 0.0000 0.0000 0.0000 34.8521 0.0000 1.8312
# 5 0.0922 -1.4964 3.8512 0.0000 29.5046 0.0000
# 6 0.0000 0.0000 0.0000 1.8312 0.0000 22.7591
#
#
#
# Elastic Compliance Matrix: (Units=1/GPa)
#
#
# Indices 1 2 3 4 5 6 
#
# 1 0.013087 -0.003301 0.000697 0.000000 -0.000299 0.000000
# 2 -0.003301 0.013517 -0.005561 0.000000 0.001422 0.000000
# 3 0.000697 -0.005561 0.018072 0.000000 -0.002643 0.000000
# 4 0.000000 0.000000 0.000000 0.028815 0.000000 -0.002318
# 5 -0.000299 0.001422 -0.002643 0.000000 0.034311 0.000000
# 6 0.000000 0.000000 0.000000 -0.002318 0.000000 0.044125
#
#
# Mechanical properties :
#
#
# Convention : Reuss Voigt Hill
#
# Bulk Modulus (GPa) = 35.27894 37.66990 36.47442
# Shear Modulus (GPa) = 28.13643 29.71958 28.92800
#
# Velocity S-wave (km/s) = 3.50140 3.59856 3.55031
# Velocity P-wave (km/s) = 5.63191 5.80345 5.71832
#
# Compressibility (1/GPa) = 0.02834552
#
# Stress axis : x y z
#
# Youngs Moduli (GPa) = 76.41377 73.98101 55.33317
#
# Poissons Ratio (x) = 0.24423 -0.03857
# Poissons Ratio (y) = 0.25226 0.30771
# Poissons Ratio (z) = -0.05327 0.41141
#
# Static dielectric constant tensor:
#      x y z
#    x 2.186130 0.000000 0.131350 
#    y 0.000000 1.878920 0.000000 
#    z 0.131350 0.000000 2.020590 
# 
# From -- ./inp_files/82496.got.cif
#   From: 2010.05.17/outbox.cif.g08.bks.cpg/sg15_42_cif.got.tgz:82496.got - 2010.06.03 18:47:42.
