data_PCOD9286128
_publ_section_title
;
Structure prediction by ZEFSAII (Michael W. Deem and Ramdas Pophale) SiO2 
 PCOD9286128
Probable space group: C 2/C
;
_chemical_formula_sum "Si O2"
_cell_formula_units_Z 44
_cell_length_a 11.208771
_cell_length_b 11.277339
_cell_length_c 15.697865
_cell_angle_alpha 90.000000
_cell_angle_beta 108.323086
_cell_angle_gamma 90.000000
_cell_volume 1883.684623
_symmetry_space_group_name_H-M "C 2/C"
_symmetry_group_IT_number 15
_symmetry_cell_setting 'monoclinic'
loop_
_space_group_symop_operation_xyz
x,y,z
-x,y,1/2-z
-x,-y,-z
x,-y,1/2+z
1/2+x,1/2+y,z
1/2-x,1/2+y,1/2-z
1/2-x,1/2-y,-z
1/2+x,1/2-y,1/2+z
loop_
_atom_site_type_symbol
_atom_site_label
_atom_site_fract_x
_atom_site_fract_y
_atom_site_fract_z
Si Si1 0.271028 0.375853 0.050100
Si Si2 0.636000 0.994347 0.868966
Si Si3 0.573775 0.810717 0.138810
Si Si4 0.982747 0.135697 0.970598
Si Si5 0.775709 0.169087 0.801607
Si Si6 0.500000 0.218928 0.250000
O O1 0.183083 0.382314 0.112177
O O2 0.420760 0.370101 0.088361
O O3 0.250000 0.250000 0.000000
O O4 0.220916 0.471034 0.970638
O O5 0.559732 0.875345 0.831045
O O6 0.537771 0.099972 0.863718
O O7 0.722059 0.036284 0.808554
O O8 0.650356 0.764990 0.238859
O O9 0.527697 0.712890 0.061291
O O10 0.850257 0.186895 0.907654
O O11 0.000000 0.000000 0.000000
O O12 0.883322 0.207235 0.760184
#
# Coordination Sequence:
#
# PCOD9286128 Si02
#       6
#     8   8   8   8   8   4
#     4  10  21  42  72  99 142 193 244 307 379 445
#     4  12  24  47  72 107 150 196 254 320 371 457
#     4  11  24  44  71 110 146 198 256 303 384 459
#     4  11  23  45  70 106 147 190 249 320 369 443
#     4  12  25  45  76 105 146 201 253 307 384 452
#     4  12  24  46  74 102 148 198 252 314 380 438
#
# _framework density 23.358474999999999
#
# number of rings (size 3 to 8) (size 9 to 14) (size 15 to 20)
#    0.000    0.727    3.636    6.000    0.000    0.727 
#    3.273    0.000    4.000    0.000    0.000    0.000 
#    0.000    0.000    0.000    0.000    0.000    0.000 
#
# Total GULP energy -122543.234548 kJ/mol
# GULP energy per Si atom -5570.147025 kJ/mol
# Density = 2.330531 g / cm^3
# Si number density = 23.358475 Si / 1000 Ang^3
#
#
#
# Elastic Constant Matrix: (Units=GPa)
#
#
# Indices 1 2 3 4 5 6 
#
# 1 118.8137 68.6763 39.6756 0.0000 9.3100 0.0000
# 2 68.6763 98.1571 49.9737 0.0000 -5.8240 0.0000
# 3 39.6756 49.9737 142.5486 0.0000 43.9594 0.0000
# 4 0.0000 0.0000 0.0000 40.9994 0.0000 -7.7339
# 5 9.3100 -5.8240 43.9594 0.0000 59.3669 0.0000
# 6 0.0000 0.0000 0.0000 -7.7339 0.0000 31.4896
#
#
#
# Elastic Compliance Matrix: (Units=1/GPa)
#
#
# Indices 1 2 3 4 5 6 
#
# 1 0.014862 -0.011212 0.001104 0.000000 -0.004248 0.000000
# 2 -0.011212 0.022585 -0.007804 0.000000 0.009753 0.000000
# 3 0.001104 -0.007804 0.012614 0.000000 -0.010279 0.000000
# 4 0.000000 0.000000 0.000000 0.025576 0.000000 0.006281
# 5 -0.004248 0.009753 -0.010279 0.000000 0.026079 0.000000
# 6 0.000000 0.000000 0.000000 0.006281 0.000000 0.033299
#
#
# Mechanical properties :
#
#
# Convention : Reuss Voigt Hill
#
# Bulk Modulus (GPa) = 70.24910 75.13009 72.68959
# Shear Modulus (GPa) = 28.47664 39.78411 34.13037
#
# Velocity S-wave (km/s) = 3.49537 4.13146 3.82665
# Velocity P-wave (km/s) = 6.81394 7.41568 7.12117
#
# Compressibility (1/GPa) = 0.01423506
#
# Stress axis : x y z
#
# Youngs Moduli (GPa) = 67.28788 44.27806 79.27983
#
# Poissons Ratio (x) = 0.49646 -0.08756
# Poissons Ratio (y) = 0.75445 0.61873
# Poissons Ratio (z) = -0.07431 0.34556
#
# Static dielectric constant tensor:
#      x y z
#    x 1.992840 0.000000 -0.028020 
#    y 0.000000 1.849870 0.000000 
#    z -0.028020 0.000000 2.048460 
# 
# From -- ./inp_files/196288.got.cif
#   From: 2010.05.17/outbox.cif.g08.bks.cpg/sg15_99_cif.got.tgz:196288.got - 2010.06.03 18:47:42.
