data_PCOD9286745
_publ_section_title
;
Structure prediction by ZEFSAII (Michael W. Deem and Ramdas Pophale) SiO2 
 PCOD9286745
Probable space group: C 2/C
;
_chemical_formula_sum "Si O2"
_cell_formula_units_Z 48
_cell_length_a 16.819503
_cell_length_b 14.551288
_cell_length_c 18.504178
_cell_angle_alpha 90.000000
_cell_angle_beta 29.128518
_cell_angle_gamma 90.000000
_cell_volume 2204.491345
_symmetry_space_group_name_H-M "C 2/C"
_symmetry_group_IT_number 15
_symmetry_cell_setting 'monoclinic'
loop_
_space_group_symop_operation_xyz
x,y,z
-x,y,1/2-z
-x,-y,-z
x,-y,1/2+z
1/2+x,1/2+y,z
1/2-x,1/2+y,1/2-z
1/2-x,1/2-y,-z
1/2+x,1/2-y,1/2+z
loop_
_atom_site_type_symbol
_atom_site_label
_atom_site_fract_x
_atom_site_fract_y
_atom_site_fract_z
Si Si1 0.055086 0.308631 0.623232
Si Si2 0.854473 0.969498 0.064061
Si Si3 0.726526 0.134820 0.444020
Si Si4 0.607820 0.608408 0.599502
Si Si5 0.466030 0.687774 0.385098
Si Si6 0.985108 0.483976 0.596919
O O1 0.241318 0.342982 0.479441
O O2 0.028283 0.201189 0.628112
O O3 0.976335 0.378109 0.628933
O O4 0.000000 0.324493 0.750000
O O5 0.901509 0.867240 0.004275
O O6 0.680561 0.973525 0.240397
O O7 0.853072 0.035668 0.993912
O O8 0.000000 0.000000 0.000000
O O9 0.576290 0.205774 0.571744
O O10 0.845725 0.151837 0.416931
O O11 0.643156 0.035642 0.505160
O O12 0.848260 0.161057 0.281616
O O13 0.500000 0.567140 0.750000
O O14 0.000000 0.500000 0.500000
#
# Coordination Sequence:
#
# PCOD9286745 Si02
#       6
#     8   8   8   8   8   8
#     4  10  21  44  67  97 122 167 220 265 323 384
#     4  12  26  42  62  95 133 173 215 268 328 390
#     4  10  22  41  67  94 125 165 213 263 317 382
#     4  10  23  40  71  95 126 165 217 272 321 386
#     4  10  22  41  66  95 124 165 214 263 318 382
#     4  12  26  42  63  93 134 175 214 266 330 388
#
# _framework density 21.773731000000002
#
# number of rings (size 3 to 8) (size 9 to 14) (size 15 to 20)
#    0.000    1.333    1.667    3.000    7.000    2.667 
#    0.000    3.333    0.000    0.000    0.000    0.000 
#    0.000    0.000    0.000    0.000    0.000    0.000 
#
# Total GULP energy -134039.011363 kJ/mol
# GULP energy per Si atom -5584.958807 kJ/mol
# Density = 2.172417 g / cm^3
# Si number density = 21.773731 Si / 1000 Ang^3
#
#
#
# Elastic Constant Matrix: (Units=GPa)
#
#
# Indices 1 2 3 4 5 6 
#
# 1 33.4367 8.1693 15.0888 0.0001 7.9989 0.0005
# 2 8.1693 99.9762 11.6512 0.0000 11.4568 -0.0001
# 3 15.0888 11.6512 146.2491 0.0004 2.2418 0.0005
# 4 0.0001 0.0000 0.0004 30.6929 0.0002 -5.3708
# 5 7.9989 11.4568 2.2418 0.0002 36.1659 0.0001
# 6 0.0005 -0.0001 0.0005 -5.3708 0.0001 12.0625
#
#
#
# Elastic Compliance Matrix: (Units=1/GPa)
#
#
# Indices 1 2 3 4 5 6 
#
# 1 0.033340 -0.001585 -0.003211 0.000000 -0.006673 -0.000001
# 2 -0.001585 0.010544 -0.000631 0.000000 -0.002950 0.000000
# 3 -0.003211 -0.000631 0.007212 0.000000 0.000463 0.000000
# 4 0.000000 0.000000 0.000000 0.035334 0.000000 0.015732
# 5 -0.006673 -0.002950 0.000463 0.000000 0.030032 0.000000
# 6 -0.000001 0.000000 0.000000 0.015732 0.000000 0.089907
#
#
# Mechanical properties :
#
#
# Convention : Reuss Voigt Hill
#
# Bulk Modulus (GPa) = 24.85084 38.83119 31.84101
# Shear Modulus (GPa) = 21.67910 32.10110 26.89010
#
# Velocity S-wave (km/s) = 3.15882 3.84383 3.51804
# Velocity P-wave (km/s) = 4.97415 6.12966 5.58189
#
# Compressibility (1/GPa) = 0.04024009
#
# Stress axis : x y z
#
# Youngs Moduli (GPa) = 29.99411 94.84453 138.65519
#
# Poissons Ratio (x) = 0.15037 0.44524
# Poissons Ratio (y) = 0.04755 0.08752
# Poissons Ratio (z) = 0.09632 0.05986
#
# Static dielectric constant tensor:
#      x y z
#    x 1.855450 0.000010 -0.055710 
#    y 0.000010 1.697320 -0.000020 
#    z -0.055710 -0.000020 1.939530 
# 
# From -- ./inp_files/211321.got.cif
#   From: 2010.05.17/outbox.cif.g08.bks.cpg/sg15_106_cif.got.tgz:211321.got - 2010.06.03 18:47:42.
