data_PCOD9286521
_publ_section_title
;
Structure prediction by ZEFSAII (Michael W. Deem and Ramdas Pophale) SiO2 
 PCOD9286521
Probable space group: C 2/C
;
_chemical_formula_sum "Si O2"
_cell_formula_units_Z 56
_cell_length_a 18.889603
_cell_length_b 15.858124
_cell_length_c 14.027133
_cell_angle_alpha 90.000000
_cell_angle_beta 145.226507
_cell_angle_gamma 90.000000
_cell_volume 2396.472909
_symmetry_space_group_name_H-M "C 2/C"
_symmetry_group_IT_number 15
_symmetry_cell_setting 'monoclinic'
loop_
_space_group_symop_operation_xyz
x,y,z
-x,y,1/2-z
-x,-y,-z
x,-y,1/2+z
1/2+x,1/2+y,z
1/2-x,1/2+y,1/2-z
1/2-x,1/2-y,-z
1/2+x,1/2-y,1/2+z
loop_
_atom_site_type_symbol
_atom_site_label
_atom_site_fract_x
_atom_site_fract_y
_atom_site_fract_z
Si Si1 0.549592 0.090902 0.096438
Si Si2 0.139142 0.684972 0.733288
Si Si3 0.371911 0.588963 0.016773
Si Si4 0.801686 0.145125 0.302288
Si Si5 0.000000 0.242180 0.250000
Si Si6 0.500000 0.049725 0.250000
Si Si7 0.735917 0.482910 0.910332
Si Si8 0.015219 0.077365 0.654137
O O1 0.695437 0.113759 0.257500
O O2 0.507237 0.098380 0.158580
O O3 0.486230 0.158138 0.957133
O O4 0.500000 0.000000 0.000000
O O5 0.236349 0.608874 0.827428
O O6 0.201223 0.764219 0.750139
O O7 0.102025 0.705800 0.802336
O O8 0.440043 0.678093 0.106534
O O9 0.343602 0.554881 0.091262
O O10 0.451463 0.514311 0.059493
O O11 0.775708 0.080379 0.188576
O O12 0.935362 0.138269 0.500413
O O13 0.625481 0.996150 0.400331
O O14 0.661774 0.567623 0.798884
O O15 0.000000 0.096708 0.750000
#
# Coordination Sequence:
#
# PCOD9286521 Si02
#       8
#     8   8   8   8   4   4   8   8
#     4  12  26  49  72 104 144 192 250 300 356 445
#     4  12  27  41  68 107 149 190 232 304 370 435
#     4  11  21  40  65 102 141 182 229 292 366 434
#     4  12  24  44  69 107 141 186 241 295 370 429
#     4  12  22  41  64 107 148 176 232 302 381 428
#     4  12  26  47  72 107 136 190 250 296 365 430
#     4  11  22  39  71 103 136 179 235 301 355 427
#     4  10  21  43  70  99 135 187 239 292 348 432
#
# _framework density 23.367674999999998
#
# number of rings (size 3 to 8) (size 9 to 14) (size 15 to 20)
#    0.000    0.571    5.000    5.143    2.000    0.571 
#    3.857    0.714    0.000    0.000    0.000    0.000 
#    0.000    0.000    0.000    0.000    0.000    0.000 
#
# Total GULP energy -156569.878897 kJ/mol
# GULP energy per Si atom -5591.781389 kJ/mol
# Density = 2.331449 g / cm^3
# Si number density = 23.367675 Si / 1000 Ang^3
#
#
#
# Elastic Constant Matrix: (Units=GPa)
#
#
# Indices 1 2 3 4 5 6 
#
# 1 82.9752 24.2292 -9.6003 0.0000 -1.6251 0.0000
# 2 24.2292 36.9132 8.4621 0.0000 -1.0677 0.0000
# 3 -9.6003 8.4621 110.9338 0.0000 9.9719 0.0000
# 4 0.0000 0.0000 0.0000 30.5948 0.0000 -1.2036
# 5 -1.6251 -1.0677 9.9719 0.0000 37.8649 0.0000
# 6 0.0000 0.0000 0.0000 -1.2036 0.0000 19.1992
#
#
#
# Elastic Compliance Matrix: (Units=1/GPa)
#
#
# Indices 1 2 3 4 5 6 
#
# 1 0.015395 -0.010606 0.002160 0.000000 -0.000207 0.000000
# 2 -0.010606 0.034948 -0.003719 0.000000 0.001510 0.000000
# 3 0.002160 -0.003719 0.009716 0.000000 -0.002571 0.000000
# 4 0.000000 0.000000 0.000000 0.032766 0.000000 0.002054
# 5 -0.000207 0.001510 -0.002571 0.000000 0.027120 0.000000
# 6 0.000000 0.000000 0.000000 0.002054 0.000000 0.052214
#
#
# Mechanical properties :
#
#
# Convention : Reuss Voigt Hill
#
# Bulk Modulus (GPa) = 27.98901 30.77824 29.38362
# Shear Modulus (GPa) = 23.99228 31.38053 27.68641
#
# Velocity S-wave (km/s) = 3.20774 3.66854 3.44585
# Velocity P-wave (km/s) = 5.07180 5.58069 5.33232
#
# Compressibility (1/GPa) = 0.03572831
#
# Stress axis : x y z
#
# Youngs Moduli (GPa) = 64.95775 28.61355 102.92155
#
# Poissons Ratio (x) = 0.30347 -0.22230
# Poissons Ratio (y) = 0.68894 0.38281
# Poissons Ratio (z) = -0.14030 0.10643
#
# Static dielectric constant tensor:
#      x y z
#    x 1.914890 0.000000 0.065560 
#    y 0.000000 1.896670 0.000000 
#    z 0.065560 0.000000 1.908230 
# 
# From -- ./inp_files/169206.got.cif
#   From: 2010.05.17/outbox.cif.g08.bks.cpg/sg15_85_cif.got.tgz:169206.got - 2010.06.03 18:47:42.
