data_PCOD9286566
_publ_section_title
;
Structure prediction by ZEFSAII (Michael W. Deem and Ramdas Pophale) SiO2 
 PCOD9286566
Probable space group: C 2/C
;
_chemical_formula_sum "Si O2"
_cell_formula_units_Z 24
_cell_length_a 13.607450
_cell_length_b 4.830296
_cell_length_c 14.437306
_cell_angle_alpha 90.000000
_cell_angle_beta 61.993108
_cell_angle_gamma 90.000000
_cell_volume 837.806644
_symmetry_space_group_name_H-M "C 2/C"
_symmetry_group_IT_number 15
_symmetry_cell_setting 'monoclinic'
loop_
_space_group_symop_operation_xyz
x,y,z
-x,y,1/2-z
-x,-y,-z
x,-y,1/2+z
1/2+x,1/2+y,z
1/2-x,1/2+y,1/2-z
1/2-x,1/2-y,-z
1/2+x,1/2-y,1/2+z
loop_
_atom_site_type_symbol
_atom_site_label
_atom_site_fract_x
_atom_site_fract_y
_atom_site_fract_z
Si Si1 0.152090 0.037033 0.518108
Si Si2 0.379475 0.187610 0.787212
Si Si3 0.596847 0.288379 0.350437
O O1 0.250000 0.250000 0.500000
O O2 0.034920 0.208569 0.565044
O O3 0.352331 0.703526 0.402796
O O4 0.160953 0.891373 0.413990
O O5 0.500000 0.045259 0.750000
O O6 0.395012 0.477236 0.729607
O O7 0.344664 0.980891 0.718597
#
# Coordination Sequence:
#
# PCOD9286566 Si02
#       3
#     8   8   8
#     4  10  23  46  80 115 152 207 272 325 389 478
#     4  10  21  43  72 106 154 206 251 316 400 468
#     4  10  23  45  73 110 158 203 252 325 401 467
#
# _framework density 28.646227
#
# number of rings (size 3 to 8) (size 9 to 14) (size 15 to 20)
#    0.000    2.000    0.000    3.000    0.000   14.667 
#    0.000   40.000    0.000    0.000    0.000    7.000 
#    0.000    0.000    0.000    0.000    0.000    0.000 
#
# Total GULP energy -67184.562525 kJ/mol
# GULP energy per Si atom -5598.713544 kJ/mol
# Density = 2.858103 g / cm^3
# Si number density = 28.646227 Si / 1000 Ang^3
#
#
#
# Elastic Constant Matrix: (Units=GPa)
#
#
# Indices 1 2 3 4 5 6 
#
# 1 137.0876 -5.7005 5.5841 0.0027 21.3703 0.0024
# 2 -5.7005 166.8010 60.7535 0.0039 13.5147 0.0084
# 3 5.5841 60.7535 212.8752 0.0013 53.4622 0.0001
# 4 0.0027 0.0039 0.0013 23.8963 -0.0003 43.6637
# 5 21.3703 13.5147 53.4622 -0.0003 42.6807 0.0000
# 6 0.0024 0.0084 0.0001 43.6637 0.0000 31.0994
#
#
#
# Elastic Compliance Matrix: (Units=1/GPa)
#
#
# Indices 1 2 3 4 5 6 
#
# 1 0.008126 0.000332 0.001080 0.000000 -0.005527 -0.000001
# 2 0.000332 0.006709 -0.001967 -0.000001 0.000173 0.000000
# 3 0.001080 -0.001967 0.007601 0.000001 -0.009439 -0.000001
# 4 0.000000 -0.000001 0.000001 -0.026732 0.000000 0.037532
# 5 -0.005527 0.000173 -0.009439 0.000000 0.037966 0.000001
# 6 -0.000001 0.000000 -0.000001 0.037532 0.000001 -0.020541
#
#
# Mechanical properties :
#
#
# Convention : Reuss Voigt Hill
#
# Bulk Modulus (GPa) = 46.88961 70.89312 58.89137
# Shear Modulus (GPa) = 234.22309 49.94372 142.08341
#
# Velocity S-wave (km/s) = 9.05216 4.18001 7.05032
# Velocity P-wave (km/s) = 11.20979 6.93529 9.32088
#
# Compressibility (1/GPa) = 0.02132668
#
# Stress axis : x y z
#
# Youngs Moduli (GPa) = 123.06225 149.05624 131.55808
#
# Poissons Ratio (x) = -0.04950 -0.14209
# Poissons Ratio (y) = -0.04087 0.25876
# Poissons Ratio (z) = -0.13291 0.29317
#
# Static dielectric constant tensor:
#      x y z
#    x 2.698430 0.000000 -0.365080 
#    y 0.000000 2.163240 0.000000 
#    z -0.365080 0.000000 2.473840 
# 
# From -- ./inp_files/149442.got.cif
#   From: 2010.05.17/outbox.cif.g08.bks.cpg/sg15_75_cif.got.tgz:149442.got - 2010.06.03 18:47:42.
