data_PCOD9286308
_publ_section_title
;
Structure prediction by ZEFSAII (Michael W. Deem and Ramdas Pophale) SiO2 
 PCOD9286308
Probable space group: C 2/C
;
_chemical_formula_sum "Si O2"
_cell_formula_units_Z 64
_cell_length_a 8.972476
_cell_length_b 29.537369
_cell_length_c 17.823557
_cell_angle_alpha 90.000000
_cell_angle_beta 42.404958
_cell_angle_gamma 90.000000
_cell_volume 3185.476045
_symmetry_space_group_name_H-M "C 2/C"
_symmetry_group_IT_number 15
_symmetry_cell_setting 'monoclinic'
loop_
_space_group_symop_operation_xyz
x,y,z
-x,y,1/2-z
-x,-y,-z
x,-y,1/2+z
1/2+x,1/2+y,z
1/2-x,1/2+y,1/2-z
1/2-x,1/2-y,-z
1/2+x,1/2-y,1/2+z
loop_
_atom_site_type_symbol
_atom_site_label
_atom_site_fract_x
_atom_site_fract_y
_atom_site_fract_z
Si Si1 0.643707 0.184966 0.022543
Si Si2 0.530217 0.047450 0.530945
Si Si3 0.874852 0.101016 0.874756
Si Si4 0.566932 0.985184 0.809683
Si Si5 0.590539 0.547936 0.499559
Si Si6 0.251769 0.757844 0.867917
Si Si7 0.649997 0.319995 0.762645
Si Si8 0.025383 0.919166 0.864727
O O1 0.726763 0.210778 0.066280
O O2 0.396385 0.171708 0.138771
O O3 0.822016 0.146294 0.939662
O O4 0.631909 0.214686 0.950065
O O5 0.367947 0.083884 0.558079
O O6 0.783428 0.062166 0.435652
O O7 0.500000 0.000000 0.500000
O O8 0.443070 0.032543 0.644509
O O9 0.989051 0.065374 0.890106
O O10 0.000000 0.106987 0.750000
O O11 0.500000 0.994324 0.750000
O O12 0.787154 0.954938 0.733001
O O13 0.352959 0.956524 0.914560
O O14 0.500000 0.500000 0.500000
O O15 0.547746 0.581583 0.446810
O O16 0.500000 0.744416 0.750000
O O17 0.157064 0.785850 0.831759
O O18 0.500000 0.302225 0.750000
O O19 0.562314 0.369321 0.819593
#
# Coordination Sequence:
#
# PCOD9286308 Si02
#       8
#     8   8   8   8   8   8   8   8
#     4  10  21  43  66  94 129 163 216 266 316 399
#     4  12  25  39  56  85 124 165 211 266 316 374
#     4  12  26  38  62  92 125 162 216 270 328 381
#     4  10  23  37  62  81 112 165 215 258 319 374
#     4  11  21  43  57  84 120 167 216 268 317 381
#     4   9  20  41  72  96 126 166 208 261 327 393
#     4  11  23  38  64 101 130 166 208 261 331 389
#     4  11  24  40  65  85 126 169 217 270 315 385
#
# _framework density 20.091187999999999
#
# number of rings (size 3 to 8) (size 9 to 14) (size 15 to 20)
#    0.000    1.250    2.500    2.625    7.000    4.000 
#    0.000    0.000    0.000    0.750    0.000    0.000 
#    0.000    0.000    0.000    0.000    0.000    0.000 
#
# Total GULP energy -178517.258586 kJ/mol
# GULP energy per Si atom -5578.664331 kJ/mol
# Density = 2.004546 g / cm^3
# Si number density = 20.091188 Si / 1000 Ang^3
#
#
#
# Elastic Constant Matrix: (Units=GPa)
#
#
# Indices 1 2 3 4 5 6 
#
# 1 97.9465 27.7169 49.3354 0.0000 3.2797 0.0000
# 2 27.7169 56.3042 40.6422 0.0000 4.9716 0.0000
# 3 49.3354 40.6422 122.1374 0.0000 10.2171 0.0000
# 4 0.0000 0.0000 0.0000 38.8097 0.0000 7.0686
# 5 3.2797 4.9716 10.2171 0.0000 42.4648 0.0000
# 6 0.0000 0.0000 0.0000 7.0686 0.0000 23.3496
#
#
#
# Elastic Compliance Matrix: (Units=1/GPa)
#
#
# Indices 1 2 3 4 5 6 
#
# 1 0.013334 -0.003537 -0.004243 0.000000 0.000405 0.000000
# 2 -0.003537 0.024346 -0.006590 0.000000 -0.000992 0.000000
# 3 -0.004243 -0.006590 0.012249 0.000000 -0.001848 0.000000
# 4 0.000000 0.000000 0.000000 0.027270 0.000000 -0.008256
# 5 0.000405 -0.000992 -0.001848 0.000000 0.024078 0.000000
# 6 0.000000 0.000000 0.000000 -0.008256 0.000000 0.045327
#
#
# Mechanical properties :
#
#
# Convention : Reuss Voigt Hill
#
# Bulk Modulus (GPa) = 47.19319 56.86413 52.02866
# Shear Modulus (GPa) = 27.41125 31.50439 29.45782
#
# Velocity S-wave (km/s) = 3.69771 3.96418 3.83326
# Velocity P-wave (km/s) = 6.46306 7.02264 6.74865
#
# Compressibility (1/GPa) = 0.02118950
#
# Stress axis : x y z
#
# Youngs Moduli (GPa) = 74.99503 41.07448 81.64101
#
# Poissons Ratio (x) = 0.14528 0.34641
# Poissons Ratio (y) = 0.26526 0.53798
# Poissons Ratio (z) = 0.31821 0.27067
#
# Static dielectric constant tensor:
#      x y z
#    x 1.633250 0.000000 -0.102030 
#    y 0.000000 1.761040 0.000000 
#    z -0.102030 0.000000 1.581150 
# 
# From -- ./inp_files/194227.got.cif
#   From: 2010.05.17/outbox.cif.g08.bks.cpg/sg15_98_cif.got.tgz:194227.got - 2010.06.03 18:47:42.
