data_PCOD9286350
_publ_section_title
;
Structure prediction by ZEFSAII (Michael W. Deem and Ramdas Pophale) SiO2 
 PCOD9286350
Probable space group: C 2/C
;
_chemical_formula_sum "Si O2"
_cell_formula_units_Z 60
_cell_length_a 17.430284
_cell_length_b 17.767271
_cell_length_c 9.237313
_cell_angle_alpha 90.000000
_cell_angle_beta 62.347688
_cell_angle_gamma 90.000000
_cell_volume 2533.942899
_symmetry_space_group_name_H-M "C 2/C"
_symmetry_group_IT_number 15
_symmetry_cell_setting 'monoclinic'
loop_
_space_group_symop_operation_xyz
x,y,z
-x,y,1/2-z
-x,-y,-z
x,-y,1/2+z
1/2+x,1/2+y,z
1/2-x,1/2+y,1/2-z
1/2-x,1/2-y,-z
1/2+x,1/2-y,1/2+z
loop_
_atom_site_type_symbol
_atom_site_label
_atom_site_fract_x
_atom_site_fract_y
_atom_site_fract_z
Si Si1 0.500000 0.514060 0.250000
Si Si2 0.821448 0.509256 0.396333
Si Si3 0.737967 0.690141 0.641137
Si Si4 0.650837 0.578613 0.504880
Si Si5 0.879026 0.418238 0.112296
Si Si6 0.550863 0.132795 0.343617
Si Si7 0.583972 0.343070 0.810428
Si Si8 0.599304 0.268107 0.497420
O O1 0.442409 0.459864 0.399915
O O2 0.433478 0.572983 0.236479
O O3 0.723503 0.514760 0.427870
O O4 0.866616 0.437232 0.289482
O O5 0.831690 0.517174 0.558510
O O6 0.872140 0.582941 0.289759
O O7 0.750000 0.750000 0.500000
O O8 0.681230 0.622763 0.620648
O O9 0.830488 0.658187 0.610841
O O10 0.682743 0.710940 0.830179
O O11 0.650462 0.641042 0.379526
O O12 0.976898 0.418732 0.976415
O O13 0.500000 0.170780 0.250000
O O14 0.578536 0.187021 0.448156
O O15 0.611913 0.287029 0.656628
O O16 0.490895 0.314128 0.950735
#
# Coordination Sequence:
#
# PCOD9286350 Si02
#       8
#     4   8   8   8   8   8   8   8
#     4  10  22  40  64  98 128 172 216 256 328 400
#     4  10  23  40  63  96 122 165 215 268 320 382
#     4  11  24  41  65  98 124 173 225 260 319 402
#     4  11  23  38  67  92 130 169 212 262 328 386
#     4  10  23  40  66  92 127 162 218 265 328 380
#     4  10  21  43  67  90 124 171 217 269 312 393
#     4  10  25  40  63  99 136 163 214 271 327 398
#     4  10  22  42  64  91 134 165 216 262 327 385
#
# _framework density 23.678512000000001
#
# number of rings (size 3 to 8) (size 9 to 14) (size 15 to 20)
#    0.000    1.867    0.000    4.000   11.200    0.000 
#    4.800    2.667    0.000    0.000    0.000    0.000 
#    0.000    0.000    0.000    0.000    0.000    0.000 
#
# Total GULP energy -167503.688700 kJ/mol
# GULP energy per Si atom -5583.456290 kJ/mol
# Density = 2.362462 g / cm^3
# Si number density = 23.678512 Si / 1000 Ang^3
#
#
#
# Elastic Constant Matrix: (Units=GPa)
#
#
# Indices 1 2 3 4 5 6 
#
# 1 45.9151 -0.4677 33.1475 0.0000 5.8027 0.0000
# 2 -0.4677 60.6361 28.7696 0.0000 10.5205 0.0000
# 3 33.1475 28.7696 114.1481 0.0000 -21.4414 0.0000
# 4 0.0000 0.0000 0.0000 27.0905 0.0000 -5.0566
# 5 5.8027 10.5205 -21.4414 0.0000 30.2586 0.0000
# 6 0.0000 0.0000 0.0000 -5.0566 0.0000 8.6884
#
#
#
# Elastic Compliance Matrix: (Units=1/GPa)
#
#
# Indices 1 2 3 4 5 6 
#
# 1 0.040281 0.014857 -0.020606 0.000000 -0.027492 0.000000
# 2 0.014857 0.028354 -0.015974 0.000000 -0.024027 0.000000
# 3 -0.020606 -0.015974 0.023712 0.000000 0.026308 0.000000
# 4 0.000000 0.000000 0.000000 0.041412 0.000000 0.024102
# 5 -0.027492 -0.024027 0.026308 0.000000 0.065316 0.000000
# 6 0.000000 0.000000 0.000000 0.024102 0.000000 0.129123
#
#
# Mechanical properties :
#
#
# Convention : Reuss Voigt Hill
#
# Bulk Modulus (GPa) = 20.44892 38.17757 29.31324
# Shear Modulus (GPa) = 12.88846 23.82416 18.35631
#
# Velocity S-wave (km/s) = 2.33558 3.17543 2.78732
# Velocity P-wave (km/s) = 3.99100 5.44084 4.77131
#
# Compressibility (1/GPa) = 0.04890233
#
# Stress axis : x y z
#
# Youngs Moduli (GPa) = 24.82557 35.26823 42.17287
#
# Poissons Ratio (x) = -0.52399 0.86901
# Poissons Ratio (y) = -0.36884 0.67366
# Poissons Ratio (z) = 0.51155 0.56337
#
# Static dielectric constant tensor:
#      x y z
#    x 1.934160 0.000000 0.021110 
#    y 0.000000 1.928240 0.000000 
#    z 0.021110 0.000000 1.921150 
# 
# From -- ./inp_files/56999.got.cif
#   From: 2010.05.17/outbox.cif.g08.bks.cpg/sg15_29_cif.got.tgz:56999.got - 2010.06.03 18:47:42.
