data_PCOD9286039
_publ_section_title
;
Structure prediction by ZEFSAII (Michael W. Deem and Ramdas Pophale) SiO2 
 PCOD9286039
Probable space group: C 2/C
;
_chemical_formula_sum "Si O2"
_cell_formula_units_Z 60
_cell_length_a 8.526583
_cell_length_b 25.693671
_cell_length_c 20.132993
_cell_angle_alpha 90.000000
_cell_angle_beta 139.659528
_cell_angle_gamma 90.000000
_cell_volume 2855.184312
_symmetry_space_group_name_H-M "C 2/C"
_symmetry_group_IT_number 15
_symmetry_cell_setting 'monoclinic'
loop_
_space_group_symop_operation_xyz
x,y,z
-x,y,1/2-z
-x,-y,-z
x,-y,1/2+z
1/2+x,1/2+y,z
1/2-x,1/2+y,1/2-z
1/2-x,1/2-y,-z
1/2+x,1/2-y,1/2+z
loop_
_atom_site_type_symbol
_atom_site_label
_atom_site_fract_x
_atom_site_fract_y
_atom_site_fract_z
Si Si1 0.098302 0.551750 0.995271
Si Si2 0.824801 0.569597 0.634707
Si Si3 0.146390 0.252006 0.864414
Si Si4 0.877579 0.648770 0.982876
Si Si5 0.360710 0.597735 0.311186
Si Si6 0.747463 0.695422 0.320691
Si Si7 0.000000 0.473815 0.750000
Si Si8 0.389914 0.645842 0.465400
O O1 0.374921 0.569360 0.106780
O O2 0.093860 0.554631 0.913646
O O3 0.000000 0.500000 0.000000
O O4 0.908371 0.595814 0.955390
O O5 0.627562 0.614372 0.562591
O O6 0.000000 0.590179 0.750000
O O7 0.786151 0.511463 0.652737
O O8 0.218952 0.192650 0.896998
O O9 0.370549 0.292207 0.944553
O O10 0.000000 0.261578 0.750000
O O11 0.955297 0.268522 0.858674
O O12 0.785873 0.638752 0.028209
O O13 0.145224 0.673175 0.076821
O O14 0.317776 0.645731 0.247184
O O15 0.324331 0.620125 0.373974
O O16 0.135226 0.557757 0.235638
O O17 0.500000 0.725727 0.250000
#
# Coordination Sequence:
#
# PCOD9286039 Si02
#       8
#     8   8   8   8   8   8   4   8
#     4  11  26  43  67 102 141 177 225 286 340 392
#     4   9  24  43  64  97 138 184 227 274 342 401
#     4  11  23  45  70  96 132 179 221 277 347 406
#     4  11  25  41  67 101 133 171 222 281 343 399
#     4  11  22  40  70  96 131 185 232 271 328 408
#     4  11  21  41  67 100 131 167 230 283 330 399
#     4  10  22  38  66  94 132 180 234 266 328 396
#     4  10  21  42  70  93 132 178 228 271 331 415
#
# _framework density 21.014403999999999
#
# number of rings (size 3 to 8) (size 9 to 14) (size 15 to 20)
#    0.400    1.067    2.667    3.200    5.600    2.133 
#    0.000   12.667    0.000    0.000    0.000    0.000 
#    0.000    0.000    0.000    0.000    0.000    0.000 
#
# Total GULP energy -167020.148182 kJ/mol
# GULP energy per Si atom -5567.338273 kJ/mol
# Density = 2.096657 g / cm^3
# Si number density = 21.014404 Si / 1000 Ang^3
#
#
#
# Elastic Constant Matrix: (Units=GPa)
#
#
# Indices 1 2 3 4 5 6 
#
# 1 53.5221 44.1740 8.8240 0.0000 11.8963 0.0000
# 2 44.1740 131.5647 30.4295 0.0000 23.3080 0.0000
# 3 8.8240 30.4295 77.5849 -0.0005 7.1915 -0.0001
# 4 0.0000 0.0000 -0.0005 17.8478 -0.0001 4.5400
# 5 11.8963 23.3080 7.1915 -0.0001 21.1575 -0.0001
# 6 0.0000 0.0000 -0.0001 4.5400 -0.0001 25.4377
#
#
#
# Elastic Compliance Matrix: (Units=1/GPa)
#
#
# Indices 1 2 3 4 5 6 
#
# 1 0.026546 -0.007935 0.000688 0.000000 -0.006418 0.000000
# 2 -0.007935 0.012458 -0.003227 0.000000 -0.008166 0.000000
# 3 0.000688 -0.003227 0.014231 0.000000 -0.001669 0.000000
# 4 0.000000 0.000000 0.000000 0.058694 0.000000 -0.010475
# 5 -0.006418 -0.008166 -0.001669 0.000000 0.060437 0.000000
# 6 0.000000 0.000000 0.000000 -0.010475 0.000000 0.041181
#
#
# Mechanical properties :
#
#
# Convention : Reuss Voigt Hill
#
# Bulk Modulus (GPa) = 30.97162 47.72520 39.34841
# Shear Modulus (GPa) = 20.38668 24.83821 22.61245
#
# Velocity S-wave (km/s) = 3.11807 3.44170 3.28387
# Velocity P-wave (km/s) = 5.26625 6.20916 5.75704
#
# Compressibility (1/GPa) = 0.03228762
#
# Stress axis : x y z
#
# Youngs Moduli (GPa) = 37.67001 80.26889 70.26829
#
# Poissons Ratio (x) = 0.63695 -0.04834
# Poissons Ratio (y) = 0.29892 0.22674
# Poissons Ratio (z) = -0.02592 0.25901
#
# Static dielectric constant tensor:
#      x y z
#    x 1.789620 0.000000 0.020780 
#    y 0.000000 1.812110 0.000000 
#    z 0.020780 0.000000 1.833820 
# 
# From -- ./inp_files/234791.got.cif
#   From: 2010.05.17/outbox.cif.g08.bks.cpg/sg15_118_cif.got.tgz:234791.got - 2010.06.03 18:47:42.
