data_PCOD9286847
_publ_section_title
;
Structure prediction by ZEFSAII (Michael W. Deem and Ramdas Pophale) SiO2 
 PCOD9286847
Probable space group: C 2/C
;
_chemical_formula_sum "Si O2"
_cell_formula_units_Z 64
_cell_length_a 14.482520
_cell_length_b 10.998114
_cell_length_c 19.496882
_cell_angle_alpha 90.000000
_cell_angle_beta 82.241881
_cell_angle_gamma 90.000000
_cell_volume 3077.046214
_symmetry_space_group_name_H-M "C 2/C"
_symmetry_group_IT_number 15
_symmetry_cell_setting 'monoclinic'
loop_
_space_group_symop_operation_xyz
x,y,z
-x,y,1/2-z
-x,-y,-z
x,-y,1/2+z
1/2+x,1/2+y,z
1/2-x,1/2+y,1/2-z
1/2-x,1/2-y,-z
1/2+x,1/2-y,1/2+z
loop_
_atom_site_type_symbol
_atom_site_label
_atom_site_fract_x
_atom_site_fract_y
_atom_site_fract_z
Si Si1 0.186810 0.080955 0.822177
Si Si2 0.417412 0.775677 0.591765
Si Si3 0.069898 0.683223 0.178969
Si Si4 0.440351 0.366304 0.688182
Si Si5 0.162194 0.477721 0.093450
Si Si6 0.126575 0.446956 0.443191
Si Si7 0.233257 0.685781 0.815107
Si Si8 0.953634 0.737367 0.939562
O O1 0.157921 0.212875 0.852315
O O2 0.238716 0.016160 0.879876
O O3 0.253422 0.095176 0.750234
O O4 0.097223 0.003304 0.810341
O O5 0.515371 0.759355 0.620229
O O6 0.419942 0.715734 0.516440
O O7 0.396512 0.917999 0.582009
O O8 0.092655 0.547147 0.151559
O O9 0.167438 0.748607 0.184520
O O10 0.000000 0.685375 0.250000
O O11 0.500000 0.343123 0.750000
O O12 0.349044 0.280304 0.694260
O O13 0.502910 0.333924 0.616090
O O14 0.128892 0.339361 0.087209
O O15 0.157649 0.538726 0.018986
O O16 0.202216 0.384914 0.386515
O O17 0.034225 0.363319 0.447700
#
# Coordination Sequence:
#
# PCOD9286847 Si02
#       8
#     8   8   8   8   8   8   8   8
#     4  12  27  41  63  99 135 174 217 268 330 391
#     4  11  23  43  68  96 132 171 220 266 328 389
#     4  12  23  40  68  98 127 172 221 274 320 378
#     4  11  26  46  64  95 137 176 216 271 331 391
#     4  11  22  43  69  99 128 168 226 272 317 396
#     4  10  22  42  70  99 128 169 219 275 326 379
#     4  11  26  43  67  97 132 176 221 274 325 391
#     4  10  21  44  70  96 129 171 220 270 326 388
#
# _framework density 20.799168000000002
#
# number of rings (size 3 to 8) (size 9 to 14) (size 15 to 20)
#    0.000    1.000    5.000    1.500    5.250    4.500 
#    2.250    0.000    0.000    0.000    0.000    0.000 
#    0.000    0.000    0.000    0.000    0.000    0.000 
#
# Total GULP energy -178887.947145 kJ/mol
# GULP energy per Si atom -5590.248348 kJ/mol
# Density = 2.075183 g / cm^3
# Si number density = 20.799168 Si / 1000 Ang^3
#
#
#
# Elastic Constant Matrix: (Units=GPa)
#
#
# Indices 1 2 3 4 5 6 
#
# 1 89.4396 7.6997 50.5705 0.0000 7.8243 0.0000
# 2 7.6997 35.6162 32.0736 0.0000 -6.4789 0.0000
# 3 50.5705 32.0736 114.1797 0.0000 -7.9876 0.0000
# 4 0.0000 0.0000 0.0000 18.0091 0.0000 -3.7080
# 5 7.8243 -6.4789 -7.9876 0.0000 41.5833 0.0000
# 6 0.0000 0.0000 0.0000 -3.7080 0.0000 21.7046
#
#
#
# Elastic Compliance Matrix: (Units=1/GPa)
#
#
# Indices 1 2 3 4 5 6 
#
# 1 0.015921 0.003244 -0.008248 0.000000 -0.004075 0.000000
# 2 0.003244 0.038874 -0.012139 0.000000 0.003115 0.000000
# 3 -0.008248 -0.012139 0.016013 0.000000 0.002736 0.000000
# 4 0.000000 0.000000 0.000000 0.057552 0.000000 0.009832
# 5 -0.004075 0.003115 0.002736 0.000000 0.025826 0.000000
# 6 0.000000 0.000000 0.000000 0.009832 0.000000 0.047753
#
#
# Mechanical properties :
#
#
# Convention : Reuss Voigt Hill
#
# Bulk Modulus (GPa) = 27.38024 46.65812 37.01918
# Shear Modulus (GPa) = 20.12903 26.18551 23.15727
#
# Velocity S-wave (km/s) = 3.11429 3.55204 3.34035
# Velocity P-wave (km/s) = 5.11121 6.26930 5.71964
#
# Compressibility (1/GPa) = 0.03652268
#
# Stress axis : x y z
#
# Youngs Moduli (GPa) = 62.80828 25.72429 62.45106
#
# Poissons Ratio (x) = -0.08346 0.51510
# Poissons Ratio (y) = -0.20378 0.75809
# Poissons Ratio (z) = 0.51805 0.31226
#
# Static dielectric constant tensor:
#      x y z
#    x 1.734540 0.000000 0.012660 
#    y 0.000000 1.753880 0.000000 
#    z 0.012660 0.000000 1.733450 
# 
# From -- ./inp_files/204457.got.cif
#   From: 2010.05.17/outbox.cif.g08.bks.cpg/sg15_103_cif.got.tgz:204457.got - 2010.06.03 18:47:42.
