data_PCOD9286108
_publ_section_title
;
Structure prediction by ZEFSAII (Michael W. Deem and Ramdas Pophale) SiO2 
 PCOD9286108
Probable space group: C 2/C
;
_chemical_formula_sum "Si O2"
_cell_formula_units_Z 40
_cell_length_a 25.589104
_cell_length_b 7.237813
_cell_length_c 13.148195
_cell_angle_alpha 90.000000
_cell_angle_beta 137.349612
_cell_angle_gamma 90.000000
_cell_volume 1649.881126
_symmetry_space_group_name_H-M "C 2/C"
_symmetry_group_IT_number 15
_symmetry_cell_setting 'monoclinic'
loop_
_space_group_symop_operation_xyz
x,y,z
-x,y,1/2-z
-x,-y,-z
x,-y,1/2+z
1/2+x,1/2+y,z
1/2-x,1/2+y,1/2-z
1/2-x,1/2-y,-z
1/2+x,1/2-y,1/2+z
loop_
_atom_site_type_symbol
_atom_site_label
_atom_site_fract_x
_atom_site_fract_y
_atom_site_fract_z
Si Si1 0.334798 0.774060 0.073739
Si Si2 0.001893 0.725690 0.374101
Si Si3 0.865009 0.026531 0.454862
Si Si4 0.214617 0.421556 0.156694
Si Si5 0.606036 0.995875 0.668385
O O1 0.391637 0.846107 0.242120
O O2 0.250000 0.750000 0.000000
O O3 0.365903 0.598925 0.056360
O O4 0.320589 0.937353 0.973193
O O5 0.050195 0.913344 0.460688
O O6 0.050257 0.560186 0.497056
O O7 0.000000 0.701827 0.250000
O O8 0.920670 0.690351 0.313621
O O9 0.823314 0.223311 0.414163
O O10 0.807215 0.928285 0.292752
O O11 0.188258 0.490716 0.231125
#
# Coordination Sequence:
#
# PCOD9286108 Si02
#       5
#     8   8   8   8   8
#     4  12  23  43  73 108 144 187 241 307 371 430
#     4  10  22  45  66  96 142 191 240 287 354 437
#     4  11  22  42  71 104 143 186 240 295 362 438
#     4  11  22  43  70 107 146 183 238 305 364 431
#     4  10  21  42  72 102 141 189 238 302 362 425
#
# _framework density 24.244171999999999
#
# number of rings (size 3 to 8) (size 9 to 14) (size 15 to 20)
#    0.000    1.200    4.000    3.600    0.000    0.800 
#    3.600    9.000    0.000    0.000    0.000    0.000 
#    0.000    0.000    0.000    0.000    0.000    0.000 
#
# Total GULP energy -111753.525629 kJ/mol
# GULP energy per Si atom -5587.676281 kJ/mol
# Density = 2.418899 g / cm^3
# Si number density = 24.244172 Si / 1000 Ang^3
#
#
#
# Elastic Constant Matrix: (Units=GPa)
#
#
# Indices 1 2 3 4 5 6 
#
# 1 91.1614 48.0638 30.1247 0.0000 -2.2058 0.0000
# 2 48.0638 120.8446 27.5843 0.0000 -5.5169 0.0000
# 3 30.1247 27.5843 122.0756 0.0000 -14.6897 0.0000
# 4 0.0000 0.0000 0.0000 39.3073 0.0000 3.9547
# 5 -2.2058 -5.5169 -14.6897 0.0000 26.2762 0.0000
# 6 0.0000 0.0000 0.0000 3.9547 0.0000 44.3846
#
#
#
# Elastic Compliance Matrix: (Units=1/GPa)
#
#
# Indices 1 2 3 4 5 6 
#
# 1 0.014561 -0.005267 -0.002561 0.000000 -0.001315 0.000000
# 2 -0.005267 0.010645 -0.000954 0.000000 0.001259 0.000000
# 3 -0.002561 -0.000954 0.009638 0.000000 0.004973 0.000000
# 4 0.000000 0.000000 0.000000 0.025671 0.000000 -0.002287
# 5 -0.001315 0.001259 0.004973 0.000000 0.040991 0.000000
# 6 0.000000 0.000000 0.000000 -0.002287 0.000000 0.022734
#
#
# Mechanical properties :
#
#
# Convention : Reuss Voigt Hill
#
# Bulk Modulus (GPa) = 57.87314 60.62523 59.24919
# Shear Modulus (GPa) = 33.88355 37.21423 35.54889
#
# Velocity S-wave (km/s) = 3.74250 3.92213 3.83337
# Velocity P-wave (km/s) = 6.52670 6.75064 6.63962
#
# Compressibility (1/GPa) = 0.01727917
#
# Stress axis : x y z
#
# Youngs Moduli (GPa) = 68.67658 93.93964 103.75916
#
# Poissons Ratio (x) = 0.49476 0.26577
# Poissons Ratio (y) = 0.36170 0.09900
# Poissons Ratio (z) = 0.17591 0.08963
#
# Static dielectric constant tensor:
#      x y z
#    x 2.057580 0.000000 0.084750 
#    y 0.000000 1.937020 0.000000 
#    z 0.084750 0.000000 1.948050 
# 
# From -- ./inp_files/121680.got.cif
#   From: 2010.05.17/outbox.cif.g08.bks.cpg/sg15_61_cif.got.tgz:121680.got - 2010.06.03 18:47:42.
