data_PCOD9286330
_publ_section_title
;
Structure prediction by ZEFSAII (Michael W. Deem and Ramdas Pophale) SiO2 
 PCOD9286330
Probable space group: C 2/C
;
_chemical_formula_sum "Si O2"
_cell_formula_units_Z 48
_cell_length_a 15.386412
_cell_length_b 5.205554
_cell_length_c 26.573182
_cell_angle_alpha 90.000000
_cell_angle_beta 63.312606
_cell_angle_gamma 90.000000
_cell_volume 1901.638490
_symmetry_space_group_name_H-M "C 2/C"
_symmetry_group_IT_number 15
_symmetry_cell_setting 'monoclinic'
loop_
_space_group_symop_operation_xyz
x,y,z
-x,y,1/2-z
-x,-y,-z
x,-y,1/2+z
1/2+x,1/2+y,z
1/2-x,1/2+y,1/2-z
1/2-x,1/2-y,-z
1/2+x,1/2-y,1/2+z
loop_
_atom_site_type_symbol
_atom_site_label
_atom_site_fract_x
_atom_site_fract_y
_atom_site_fract_z
Si Si1 0.054245 0.691895 0.278801
Si Si2 0.574215 0.525229 0.371489
Si Si3 0.254253 0.217507 0.720789
Si Si4 0.416589 0.099814 0.883297
Si Si5 0.904956 0.580376 0.491879
Si Si6 0.687584 0.597527 0.940174
O O1 0.157730 0.637960 0.226516
O O2 0.000000 0.849283 0.250000
O O3 0.983675 0.470460 0.317761
O O4 0.079283 0.842152 0.322416
O O5 0.653715 0.750684 0.339018
O O6 0.468764 0.655578 0.395868
O O7 0.617520 0.390895 0.409298
O O8 0.269938 0.418199 0.763522
O O9 0.302910 0.105923 0.899401
O O10 0.426370 0.898496 0.927033
O O11 0.834068 0.339919 0.519096
O O12 0.000000 0.500000 0.500000
O O13 0.850567 0.834127 0.524975
#
# Coordination Sequence:
#
# PCOD9286330 Si02
#       6
#     8   8   8   8   8   8
#     4  11  25  46  71 103 143 192 251 308 367 443
#     4  11  25  46  73 107 148 198 247 307 378 453
#     4  10  21  43  66  97 136 184 233 294 355 422
#     4  12  26  46  77 108 148 196 250 303 378 451
#     4  12  26  49  78 109 152 193 244 307 374 446
#     4  12  28  47  76 113 151 193 243 311 373 450
#
# _framework density 25.241392000000001
#
# number of rings (size 3 to 8) (size 9 to 14) (size 15 to 20)
#    0.000    0.667    3.333    3.500    4.667    0.667 
#   12.000    0.000    0.000    0.000    0.000    0.000 
#    0.000    0.000    0.000    0.000    0.000    0.000 
#
# Total GULP energy -133985.284064 kJ/mol
# GULP energy per Si atom -5582.720169 kJ/mol
# Density = 2.518394 g / cm^3
# Si number density = 25.241392 Si / 1000 Ang^3
#
#
#
# Elastic Constant Matrix: (Units=GPa)
#
#
# Indices 1 2 3 4 5 6 
#
# 1 152.6232 39.8150 43.3685 -0.0002 -14.4829 0.0041
# 2 39.8150 121.7854 36.4395 0.0039 -13.1196 0.0044
# 3 43.3685 36.4395 61.0504 0.0010 -6.6602 -0.0008
# 4 -0.0002 0.0039 0.0010 33.0465 0.0002 -11.4064
# 5 -14.4829 -13.1196 -6.6602 0.0002 52.7230 0.0002
# 6 0.0041 0.0044 -0.0008 -11.4064 0.0002 14.1795
#
#
#
# Elastic Compliance Matrix: (Units=1/GPa)
#
#
# Indices 1 2 3 4 5 6 
#
# 1 0.008441 -0.001047 -0.005218 -0.000001 0.001399 -0.000003
# 2 -0.001047 0.010290 -0.005222 -0.000003 0.001613 -0.000006
# 3 -0.005218 -0.005222 0.023225 0.000002 0.000201 0.000006
# 4 -0.000001 -0.000003 0.000002 0.041892 -0.000001 0.033699
# 5 0.001399 0.001613 0.000201 -0.000001 0.019778 -0.000002
# 6 -0.000003 -0.000006 0.000006 0.033699 -0.000002 0.097633
#
#
# Mechanical properties :
#
#
# Convention : Reuss Voigt Hill
#
# Bulk Modulus (GPa) = 52.68366 63.85610 58.26988
# Shear Modulus (GPa) = 21.68616 34.37887 28.03252
#
# Velocity S-wave (km/s) = 2.93431 3.69454 3.33615
# Velocity P-wave (km/s) = 5.69188 6.59944 6.16239
#
# Compressibility (1/GPa) = 0.01898122
#
# Stress axis : x y z
#
# Youngs Moduli (GPa) = 118.47089 97.18399 43.05616
#
# Poissons Ratio (x) = 0.10180 0.22468
# Poissons Ratio (y) = 0.12410 0.22482
# Poissons Ratio (z) = 0.61822 0.50746
#
# Static dielectric constant tensor:
#      x y z
#    x 2.110850 -0.000010 -0.036190 
#    y -0.000010 2.033440 0.000000 
#    z -0.036190 0.000000 2.132740 
# 
# From -- ./inp_files/312257.got.cif
#   From: 2010.05.17/outbox.cif.g08.bks.cpg/sg15_157_cif.got.tgz:312257.got - 2010.06.03 18:47:42.
