data_PCOD9286255
_publ_section_title
;
Structure prediction by ZEFSAII (Michael W. Deem and Ramdas Pophale) SiO2 
 PCOD9286255
Probable space group: C 2/C
;
_chemical_formula_sum "Si O2"
_cell_formula_units_Z 56
_cell_length_a 15.730038
_cell_length_b 8.097039
_cell_length_c 24.155692
_cell_angle_alpha 90.000000
_cell_angle_beta 119.470172
_cell_angle_gamma 90.000000
_cell_volume 2678.552120
_symmetry_space_group_name_H-M "C 2/C"
_symmetry_group_IT_number 15
_symmetry_cell_setting 'monoclinic'
loop_
_space_group_symop_operation_xyz
x,y,z
-x,y,1/2-z
-x,-y,-z
x,-y,1/2+z
1/2+x,1/2+y,z
1/2-x,1/2+y,1/2-z
1/2-x,1/2-y,-z
1/2+x,1/2-y,1/2+z
loop_
_atom_site_type_symbol
_atom_site_label
_atom_site_fract_x
_atom_site_fract_y
_atom_site_fract_z
Si Si1 0.347427 0.275550 0.308395
Si Si2 0.459745 0.353984 0.449305
Si Si3 0.652886 0.425824 0.771617
Si Si4 0.452155 0.294294 0.659833
Si Si5 0.972766 0.406014 0.680621
Si Si6 0.639691 0.797897 0.479119
Si Si7 0.356379 0.817747 0.547596
O O1 0.390032 0.381516 0.373721
O O2 0.333430 0.393384 0.250605
O O3 0.247878 0.184628 0.291836
O O4 0.430006 0.136367 0.323184
O O5 0.500000 0.500000 0.500000
O O6 0.396289 0.242776 0.471144
O O7 0.558452 0.274022 0.457694
O O8 0.560307 0.352334 0.708790
O O9 0.620088 0.402854 0.825039
O O10 0.425793 0.299136 0.587022
O O11 0.446740 0.100007 0.674496
O O12 0.884929 0.312834 0.621697
O O13 0.000000 0.346113 0.750000
O O14 0.750000 0.750000 0.500000
O O15 0.633419 0.991688 0.465892
O O16 0.250000 0.750000 0.500000
#
# Coordination Sequence:
#
# PCOD9286255 Si02
#       7
#     8   8   8   8   8   8   8
#     4  11  25  41  64  93 126 170 211 264 313 385
#     4  11  23  44  65  92 132 168 215 262 320 378
#     4  11  22  40  61  93 128 161 217 255 323 372
#     4  10  22  41  65  90 127 164 208 269 316 377
#     4  10  21  43  65  88 127 166 211 262 323 371
#     4  11  22  41  67  93 127 168 211 262 321 377
#     4  10  23  42  65  97 128 168 217 262 323 385
#
# _framework density 20.906818999999999
#
# number of rings (size 3 to 8) (size 9 to 14) (size 15 to 20)
#    0.000    1.429    1.429    3.857    2.000    2.286 
#    5.143    0.000    0.000    0.000    0.000    0.000 
#    0.000    0.000    0.000    0.000    0.000    0.000 
#
# Total GULP energy -156407.086114 kJ/mol
# GULP energy per Si atom -5585.967361 kJ/mol
# Density = 2.085923 g / cm^3
# Si number density = 20.906819 Si / 1000 Ang^3
#
#
#
# Elastic Constant Matrix: (Units=GPa)
#
#
# Indices 1 2 3 4 5 6 
#
# 1 96.8472 20.7036 41.5366 0.0000 11.2854 0.0000
# 2 20.7036 71.6974 18.7570 0.0000 -6.9794 0.0000
# 3 41.5366 18.7570 81.9122 0.0000 -17.9412 0.0000
# 4 0.0000 0.0000 0.0000 26.6948 0.0000 -1.4908
# 5 11.2854 -6.9794 -17.9412 0.0000 35.7274 0.0000
# 6 0.0000 0.0000 0.0000 -1.4908 0.0000 31.9958
#
#
#
# Elastic Compliance Matrix: (Units=1/GPa)
#
#
# Indices 1 2 3 4 5 6 
#
# 1 0.016614 -0.003225 -0.010083 0.000000 -0.010941 0.000000
# 2 -0.003225 0.015520 -0.001159 0.000000 0.003469 0.000000
# 3 -0.010083 -0.001159 0.020488 0.000000 0.013247 0.000000
# 4 0.000000 0.000000 0.000000 0.037558 0.000000 0.001750
# 5 -0.010941 0.003469 0.013247 0.000000 0.038776 0.000000
# 6 0.000000 0.000000 0.000000 0.001750 0.000000 0.031336
#
#
# Mechanical properties :
#
#
# Convention : Reuss Voigt Hill
#
# Bulk Modulus (GPa) = 42.21438 45.82789 44.02114
# Shear Modulus (GPa) = 25.36516 30.18092 27.77304
#
# Velocity S-wave (km/s) = 3.48695 3.80359 3.64870
# Velocity P-wave (km/s) = 6.03716 6.42319 6.23316
#
# Compressibility (1/GPa) = 0.02368861
#
# Stress axis : x y z
#
# Youngs Moduli (GPa) = 60.18882 64.43489 48.80913
#
# Poissons Ratio (x) = 0.20780 0.49214
# Poissons Ratio (y) = 0.19410 0.05656
# Poissons Ratio (z) = 0.60688 0.07467
#
# Static dielectric constant tensor:
#      x y z
#    x 1.687600 0.000000 -0.025720 
#    y 0.000000 1.737720 0.000000 
#    z -0.025720 0.000000 1.783230 
# 
# From -- ./inp_files/273248.got.cif
#   From: 2010.05.17/outbox.cif.g08.bks.cpg/sg15_137_cif.got.tgz:273248.got - 2010.06.03 18:47:42.
