data_PCOD9286125
_publ_section_title
;
Structure prediction by ZEFSAII (Michael W. Deem and Ramdas Pophale) SiO2 
 PCOD9286125
Probable space group: C 2/C
;
_chemical_formula_sum "Si O2"
_cell_formula_units_Z 60
_cell_length_a 19.060225
_cell_length_b 15.306793
_cell_length_c 23.844467
_cell_angle_alpha 90.000000
_cell_angle_beta 23.925245
_cell_angle_gamma 90.000000
_cell_volume 2821.228313
_symmetry_space_group_name_H-M "C 2/C"
_symmetry_group_IT_number 15
_symmetry_cell_setting 'monoclinic'
loop_
_space_group_symop_operation_xyz
x,y,z
-x,y,1/2-z
-x,-y,-z
x,-y,1/2+z
1/2+x,1/2+y,z
1/2-x,1/2+y,1/2-z
1/2-x,1/2-y,-z
1/2+x,1/2-y,1/2+z
loop_
_atom_site_type_symbol
_atom_site_label
_atom_site_fract_x
_atom_site_fract_y
_atom_site_fract_z
Si Si1 0.249423 0.747115 0.249326
Si Si2 0.848524 0.251001 0.057075
Si Si3 0.356495 0.931070 0.001352
Si Si4 0.620259 0.417074 0.783536
Si Si5 0.641985 0.059073 0.821683
Si Si6 0.500000 0.484516 0.750000
Si Si7 0.384949 0.117679 0.286889
Si Si8 0.858293 0.973070 0.058963
O O1 0.305320 0.707660 0.148746
O O2 0.285405 0.674864 0.270803
O O3 0.353042 0.837996 0.171403
O O4 0.045945 0.769916 0.397968
O O5 0.686896 0.211578 0.141135
O O6 0.830998 0.354875 0.065272
O O7 0.493898 0.890645 0.856427
O O8 0.455928 0.012695 0.956816
O O9 0.172678 0.959150 0.110323
O O10 0.733884 0.496653 0.729816
O O11 0.563584 0.434393 0.760541
O O12 0.444146 0.414365 0.949215
O O13 0.705509 0.059704 0.710229
O O14 0.500000 0.075183 0.250000
O O15 0.210947 0.062128 0.415285
O O16 0.000000 0.000000 0.000000
#
# Coordination Sequence:
#
# PCOD9286125 Si02
#       8
#     8   8   8   8   8   4   8   8
#     4  12  24  40  75 102 133 177 233 297 344 392
#     4  12  23  42  65 105 135 172 231 292 338 418
#     4  11  25  45  64 101 133 190 229 281 352 416
#     4  11  22  44  66 106 137 181 231 284 349 423
#     4  10  21  42  72  98 131 173 237 295 333 402
#     4  12  28  42  66  90 154 186 222 284 362 414
#     4  11  23  40  66  98 143 176 228 278 355 431
#     4   9  18  39  68  93 127 174 233 281 329 399
#
# _framework density 21.267333000000001
#
# number of rings (size 3 to 8) (size 9 to 14) (size 15 to 20)
#    0.000    1.067    2.667    5.600    2.800    2.667 
#    0.000    0.667    5.867    0.000    0.000    0.000 
#    0.000    0.000    0.000    0.000    0.000    0.000 
#
# Total GULP energy -167094.280823 kJ/mol
# GULP energy per Si atom -5569.809361 kJ/mol
# Density = 2.121893 g / cm^3
# Si number density = 21.267333 Si / 1000 Ang^3
#
#
#
# Elastic Constant Matrix: (Units=GPa)
#
#
# Indices 1 2 3 4 5 6 
#
# 1 87.0196 27.1482 31.3697 -0.0010 -7.4092 -0.0054
# 2 27.1482 91.3217 19.8963 0.0005 -27.0432 0.0013
# 3 31.3697 19.8963 105.8777 0.0012 -18.7132 -0.0033
# 4 -0.0010 0.0005 0.0012 33.7865 -0.0012 0.4346
# 5 -7.4092 -27.0432 -18.7132 -0.0012 40.1326 0.0053
# 6 -0.0054 0.0013 -0.0033 0.4346 0.0053 18.9724
#
#
#
# Elastic Compliance Matrix: (Units=1/GPa)
#
#
# Indices 1 2 3 4 5 6 
#
# 1 0.013873 -0.003836 -0.003698 0.000000 -0.001748 0.000004
# 2 -0.003836 0.014844 -0.000011 0.000000 0.009289 -0.000005
# 3 -0.003698 -0.000011 0.011357 0.000000 0.004605 0.000000
# 4 0.000000 0.000000 0.000000 0.029606 0.000001 -0.000678
# 5 -0.001748 0.009289 0.004605 0.000001 0.033001 -0.000010
# 6 0.000004 -0.000005 0.000000 -0.000678 -0.000010 0.052724
#
#
# Mechanical properties :
#
#
# Convention : Reuss Voigt Hill
#
# Bulk Modulus (GPa) = 40.02832 49.00526 44.51679
# Shear Modulus (GPa) = 27.96054 32.29860 30.12957
#
# Velocity S-wave (km/s) = 3.62984 3.90127 3.76800
# Velocity P-wave (km/s) = 6.03573 6.58679 6.31727
#
# Compressibility (1/GPa) = 0.02498231
#
# Stress axis : x y z
#
# Youngs Moduli (GPa) = 72.08345 67.36765 88.05407
#
# Poissons Ratio (x) = 0.25843 0.32566
# Poissons Ratio (y) = 0.27652 0.00098
# Poissons Ratio (z) = 0.26659 0.00075
#
# Static dielectric constant tensor:
#      x y z
#    x 1.907160 0.000020 0.030690 
#    y 0.000020 1.917920 0.000010 
#    z 0.030690 0.000010 1.790380 
# 
# From -- ./inp_files/301189.got.cif
#   From: 2010.05.17/outbox.cif.g08.bks.cpg/sg15_151_cif.got.tgz:301189.got - 2010.06.03 18:47:42.
