data_PCOD9286087
_publ_section_title
;
Structure prediction by ZEFSAII (Michael W. Deem and Ramdas Pophale) SiO2 
 PCOD9286087
Probable space group: C 2/C
;
_chemical_formula_sum "Si O2"
_cell_formula_units_Z 48
_cell_length_a 15.659896
_cell_length_b 12.259268
_cell_length_c 14.417333
_cell_angle_alpha 90.000000
_cell_angle_beta 107.809680
_cell_angle_gamma 90.000000
_cell_volume 2635.182819
_symmetry_space_group_name_H-M "C 2/C"
_symmetry_group_IT_number 15
_symmetry_cell_setting 'monoclinic'
loop_
_space_group_symop_operation_xyz
x,y,z
-x,y,1/2-z
-x,-y,-z
x,-y,1/2+z
1/2+x,1/2+y,z
1/2-x,1/2+y,1/2-z
1/2-x,1/2-y,-z
1/2+x,1/2-y,1/2+z
loop_
_atom_site_type_symbol
_atom_site_label
_atom_site_fract_x
_atom_site_fract_y
_atom_site_fract_z
Si Si1 0.137894 0.218441 0.736285
Si Si2 0.760794 0.132980 0.550247
Si Si3 0.835910 0.745188 0.464563
Si Si4 0.418515 0.526091 0.042196
Si Si5 0.000000 0.592975 0.250000
Si Si6 0.000000 0.956480 0.250000
Si Si7 0.583131 0.987207 0.459592
O O1 0.205150 0.167199 0.835204
O O2 0.180531 0.248897 0.651734
O O3 0.081356 0.325662 0.747477
O O4 0.062334 0.123482 0.709138
O O5 0.750000 0.250000 0.500000
O O6 0.837481 0.062809 0.521306
O O7 0.668269 0.064778 0.513504
O O8 0.750000 0.750000 0.500000
O O9 0.887628 0.855599 0.502643
O O10 0.885966 0.636420 0.513620
O O11 0.448543 0.527977 0.159041
O O12 0.500000 0.500000 0.000000
O O13 0.956768 0.520873 0.153788
O O14 0.500000 0.000000 0.500000
#
# Coordination Sequence:
#
# PCOD9286087 Si02
#       7
#     8   8   8   8   4   4   8
#     4  10  21  42  71  91 133 178 226 271 332 406
#     4  11  24  45  70 100 127 181 234 267 329 423
#     4  12  25  45  63 100 143 172 215 291 341 384
#     4  11  23  43  69  97 135 171 222 280 332 398
#     4  11  22  43  70 100 130 185 229 274 338 416
#     4   9  20  39  70  98 118 177 229 260 326 406
#     4  12  26  43  69 101 142 178 226 283 344 400
#
# _framework density 18.215055
#
# number of rings (size 3 to 8) (size 9 to 14) (size 15 to 20)
#    0.000    1.000    6.667    0.000    2.333    2.000 
#    6.000    0.000    0.000    0.000    0.000    0.000 
#    0.000    0.000    0.000    0.000    0.000    0.000 
#
# Total GULP energy -133737.809067 kJ/mol
# GULP energy per Si atom -5572.408711 kJ/mol
# Density = 1.817360 g / cm^3
# Si number density = 18.215055 Si / 1000 Ang^3
#
#
#
# Elastic Constant Matrix: (Units=GPa)
#
#
# Indices 1 2 3 4 5 6 
#
# 1 164.0741 77.3628 65.2553 0.0000 -11.9740 0.0000
# 2 77.3628 162.9907 74.1410 0.0000 3.2863 0.0000
# 3 65.2553 74.1410 136.7944 0.0000 -4.8911 0.0000
# 4 0.0000 0.0000 0.0000 32.1822 0.0000 6.0069
# 5 -11.9740 3.2863 -4.8911 0.0000 33.1750 0.0000
# 6 0.0000 0.0000 0.0000 6.0069 0.0000 30.7324
#
#
#
# Elastic Compliance Matrix: (Units=1/GPa)
#
#
# Indices 1 2 3 4 5 6 
#
# 1 0.008740 -0.003139 -0.002356 0.000000 0.003118 0.000000
# 2 -0.003139 0.009342 -0.003659 0.000000 -0.002598 0.000000
# 3 -0.002356 -0.003659 0.010455 0.000000 0.001053 0.000000
# 4 0.000000 0.000000 0.000000 0.032250 0.000000 -0.006303
# 5 0.003118 -0.002598 0.001053 0.000000 0.031681 0.000000
# 6 0.000000 0.000000 0.000000 -0.006303 0.000000 0.033771
#
#
# Mechanical properties :
#
#
# Convention : Reuss Voigt Hill
#
# Bulk Modulus (GPa) = 97.76776 99.70860 98.73818
# Shear Modulus (GPa) = 33.79386 35.69125 34.74256
#
# Velocity S-wave (km/s) = 4.31196 4.43136 4.37206
# Velocity P-wave (km/s) = 8.86461 9.00228 8.93371
#
# Compressibility (1/GPa) = 0.01022832
#
# Stress axis : x y z
#
# Youngs Moduli (GPa) = 114.42068 107.04352 95.65039
#
# Poissons Ratio (x) = 0.33605 0.22536
# Poissons Ratio (y) = 0.35921 0.34994
# Poissons Ratio (z) = 0.26959 0.39163
#
# Static dielectric constant tensor:
#      x y z
#    x 1.566110 0.000000 0.047750 
#    y 0.000000 1.626410 0.000000 
#    z 0.047750 0.000000 1.582370 
# 
# From -- ./inp_files/152147.got.cif
#   From: 2010.05.17/outbox.cif.g08.bks.cpg/sg15_77_cif.got.tgz:152147.got - 2010.06.03 18:47:42.
