data_PCOD9286867
_publ_section_title
;
Structure prediction by ZEFSAII (Michael W. Deem and Ramdas Pophale) SiO2 
 PCOD9286867
Probable space group: C 2/C
;
_chemical_formula_sum "Si O2"
_cell_formula_units_Z 64
_cell_length_a 17.546463
_cell_length_b 15.450992
_cell_length_c 18.027498
_cell_angle_alpha 90.000000
_cell_angle_beta 139.933371
_cell_angle_gamma 90.000000
_cell_volume 3145.937407
_symmetry_space_group_name_H-M "C 2/C"
_symmetry_group_IT_number 15
_symmetry_cell_setting 'monoclinic'
loop_
_space_group_symop_operation_xyz
x,y,z
-x,y,1/2-z
-x,-y,-z
x,-y,1/2+z
1/2+x,1/2+y,z
1/2-x,1/2+y,1/2-z
1/2-x,1/2-y,-z
1/2+x,1/2-y,1/2+z
loop_
_atom_site_type_symbol
_atom_site_label
_atom_site_fract_x
_atom_site_fract_y
_atom_site_fract_z
Si Si1 0.679321 0.043191 0.656577
Si Si2 0.567968 0.623051 0.878667
Si Si3 0.151160 0.772473 0.034254
Si Si4 0.624503 0.842397 0.377219
Si Si5 0.422424 0.580892 0.915850
Si Si6 0.949112 0.635507 0.434391
Si Si7 0.933604 0.311507 0.622928
Si Si8 0.275659 0.019236 0.981049
O O1 0.785569 0.062231 0.791935
O O2 0.576393 0.115999 0.569242
O O3 0.734331 0.024577 0.615713
O O4 0.608246 0.957081 0.625710
O O5 0.500000 0.624665 0.750000
O O6 0.483002 0.612841 0.885158
O O7 0.628331 0.717731 0.930806
O O8 0.657435 0.543467 0.937289
O O9 0.281747 0.808265 0.113490
O O10 0.078063 0.848002 0.019539
O O11 0.137808 0.691660 0.079843
O O12 0.106491 0.735324 0.922534
O O13 0.500000 0.867067 0.250000
O O14 0.676413 0.926634 0.457624
O O15 0.500000 0.500000 0.000000
O O16 0.975459 0.683645 0.377740
O O17 0.860066 0.399507 0.562146
O O18 0.000000 0.312507 0.750000
#
# Coordination Sequence:
#
# PCOD9286867 Si02
#       8
#     8   8   8   8   8   8   8   8
#     4  10  23  41  71  98 131 181 222 281 343 394
#     4  11  22  41  64  94 140 180 221 274 338 408
#     4  11  25  46  66 102 134 174 231 278 342 411
#     4  11  26  46  72  99 134 177 226 289 348 409
#     4  12  26  45  65 100 140 181 229 280 343 412
#     4  10  21  44  71  97 133 173 230 279 336 406
#     4  10  22  38  66 100 133 174 222 274 335 403
#     4  11  21  42  68  98 135 174 226 278 338 405
#
# _framework density 20.343698
#
# number of rings (size 3 to 8) (size 9 to 14) (size 15 to 20)
#    0.000    1.250    3.750    1.500    1.750    3.000 
#    0.000    0.625    0.000    0.000    0.000    0.000 
#    0.000    0.000    0.000    0.000    0.000    0.000 
#
# Total GULP energy -178636.770862 kJ/mol
# GULP energy per Si atom -5582.399089 kJ/mol
# Density = 2.029739 g / cm^3
# Si number density = 20.343698 Si / 1000 Ang^3
#
#
#
# Elastic Constant Matrix: (Units=GPa)
#
#
# Indices 1 2 3 4 5 6 
#
# 1 114.9582 44.3173 26.6711 0.0000 -13.1033 0.0000
# 2 44.3173 114.5678 46.4965 0.0000 -5.3313 0.0000
# 3 26.6711 46.4965 65.1563 0.0000 -5.6731 0.0000
# 4 0.0000 0.0000 0.0000 11.8671 0.0000 1.2954
# 5 -13.1033 -5.3313 -5.6731 0.0000 19.6975 0.0000
# 6 0.0000 0.0000 0.0000 1.2954 0.0000 38.8692
#
#
#
# Elastic Compliance Matrix: (Units=1/GPa)
#
#
# Indices 1 2 3 4 5 6 
#
# 1 0.011042 -0.003336 -0.001619 0.000000 0.005976 0.000000
# 2 -0.003336 0.013308 -0.008217 0.000000 -0.000984 0.000000
# 3 -0.001619 -0.008217 0.022142 0.000000 0.003076 0.000000
# 4 0.000000 0.000000 0.000000 0.084574 0.000000 -0.002819
# 5 0.005976 -0.000984 0.003076 0.000000 0.055363 0.000000
# 6 0.000000 0.000000 0.000000 -0.002819 0.000000 0.025821
#
#
# Mechanical properties :
#
#
# Convention : Reuss Voigt Hill
#
# Bulk Modulus (GPa) = 49.63261 58.85024 54.24142
# Shear Modulus (GPa) = 20.38247 25.89991 23.14119
#
# Velocity S-wave (km/s) = 3.16872 3.57195 3.37636
# Velocity P-wave (km/s) = 6.15124 6.78252 6.47458
#
# Compressibility (1/GPa) = 0.02014804
#
# Stress axis : x y z
#
# Youngs Moduli (GPa) = 90.56623 75.14362 45.16344
#
# Poissons Ratio (x) = 0.25069 0.07311
# Poissons Ratio (y) = 0.30214 0.37110
# Poissons Ratio (z) = 0.14661 0.61744
#
# Static dielectric constant tensor:
#      x y z
#    x 1.756140 0.000000 0.011160 
#    y 0.000000 1.717850 0.000000 
#    z 0.011160 0.000000 1.698550 
# 
# From -- ./inp_files/211408.got.cif
#   From: 2010.05.17/outbox.cif.g08.bks.cpg/sg15_106_cif.got.tgz:211408.got - 2010.06.03 18:47:42.
