data_PCOD9286760
_publ_section_title
;
Structure prediction by ZEFSAII (Michael W. Deem and Ramdas Pophale) SiO2 
 PCOD9286760
Probable space group: C 2/C
;
_chemical_formula_sum "Si O2"
_cell_formula_units_Z 52
_cell_length_a 19.303944
_cell_length_b 11.055921
_cell_length_c 13.049084
_cell_angle_alpha 90.000000
_cell_angle_beta 126.256729
_cell_angle_gamma 90.000000
_cell_volume 2245.733100
_symmetry_space_group_name_H-M "C 2/C"
_symmetry_group_IT_number 15
_symmetry_cell_setting 'monoclinic'
loop_
_space_group_symop_operation_xyz
x,y,z
-x,y,1/2-z
-x,-y,-z
x,-y,1/2+z
1/2+x,1/2+y,z
1/2-x,1/2+y,1/2-z
1/2-x,1/2-y,-z
1/2+x,1/2-y,1/2+z
loop_
_atom_site_type_symbol
_atom_site_label
_atom_site_fract_x
_atom_site_fract_y
_atom_site_fract_z
Si Si1 0.000000 0.470652 0.750000
Si Si2 0.081030 0.909217 0.670440
Si Si3 0.179398 0.041493 0.445472
Si Si4 0.393245 0.363360 0.431860
Si Si5 0.648482 0.980450 0.020165
Si Si6 0.326189 0.697299 0.442732
Si Si7 0.364141 0.875419 0.791943
O O1 0.935753 0.531490 0.611739
O O2 0.933492 0.400630 0.765355
O O3 0.115152 0.889972 0.813262
O O4 0.124245 0.829497 0.619697
O O5 0.979795 0.898639 0.567454
O O6 0.111039 0.044913 0.666764
O O7 0.183700 0.111629 0.556955
O O8 0.268687 0.033458 0.464275
O O9 0.149107 0.905633 0.452190
O O10 0.397057 0.230483 0.393695
O O11 0.654430 0.835089 0.012587
O O12 0.649051 0.013606 0.140821
O O13 0.225856 0.669899 0.333736
#
# Coordination Sequence:
#
# PCOD9286760 Si02
#       7
#     4   8   8   8   8   8   8
#     4  12  28  46  70 100 138 198 232 286 350 426
#     4  10  21  44  68 104 144 178 235 296 350 408
#     4  11  22  43  72 105 136 187 230 292 358 408
#     4  10  24  42  68 108 142 181 234 292 351 418
#     4  12  26  47  72 106 143 187 240 286 355 431
#     4  11  24  43  75 103 137 186 240 291 346 426
#     4  12  26  48  71 103 145 186 240 292 352 424
#
# _framework density 23.155023
#
# number of rings (size 3 to 8) (size 9 to 14) (size 15 to 20)
#    0.000    0.923    3.077    3.231    4.308    0.615 
#    5.538    0.000    0.000    0.000    0.000    0.000 
#    0.000    0.000    0.000    0.000    0.000    0.000 
#
# Total GULP energy -145461.797799 kJ/mol
# GULP energy per Si atom -5594.684531 kJ/mol
# Density = 2.310232 g / cm^3
# Si number density = 23.155023 Si / 1000 Ang^3
#
#
#
# Elastic Constant Matrix: (Units=GPa)
#
#
# Indices 1 2 3 4 5 6 
#
# 1 134.5900 14.7697 24.8348 0.0000 -31.6130 0.0000
# 2 14.7697 28.7030 9.6033 0.0000 -16.2880 0.0000
# 3 24.8348 9.6033 90.1254 0.0000 -8.5697 0.0000
# 4 0.0000 0.0000 0.0000 1.8859 0.0000 0.7170
# 5 -31.6130 -16.2880 -8.5697 0.0000 38.5079 0.0000
# 6 0.0000 0.0000 0.0000 0.7170 0.0000 -6.0320
#
#
#
# Elastic Compliance Matrix: (Units=1/GPa)
#
#
# Indices 1 2 3 4 5 6 
#
# 1 0.009520 -0.000085 -0.001915 0.000000 0.007353 0.000000
# 2 -0.000085 0.046712 -0.003148 0.000000 0.018987 0.000000
# 3 -0.001915 -0.003148 0.011935 0.000000 -0.000248 0.000000
# 4 0.000000 0.000000 0.000000 0.507330 0.000000 0.060304
# 5 0.007353 0.018987 -0.000248 0.000000 0.039981 0.000000
# 6 0.000000 0.000000 0.000000 0.060304 0.000000 -0.158615
#
#
# Mechanical properties :
#
#
# Convention : Reuss Voigt Hill
#
# Bulk Modulus (GPa) = 17.28034 39.09266 28.18650
# Shear Modulus (GPa) = 10.27855 20.48639 15.38247
#
# Velocity S-wave (km/s) = 2.10918 2.97770 2.58025
# Velocity P-wave (km/s) = 3.66205 5.36115 4.59089
#
# Compressibility (1/GPa) = 0.05786924
#
# Stress axis : x y z
#
# Youngs Moduli (GPa) = 105.04429 21.40798 83.78531
#
# Poissons Ratio (x) = 0.00183 0.16045
# Poissons Ratio (y) = 0.00896 0.26379
# Poissons Ratio (z) = 0.20116 0.06740
#
# Static dielectric constant tensor:
#      x y z
#    x 1.852860 0.000000 0.021530 
#    y 0.000000 1.883570 0.000000 
#    z 0.021530 0.000000 1.870290 
# 
# From -- ./inp_files/111757.got.cif
#   From: 2010.05.17/outbox.cif.g08.bks.cpg/sg15_56_cif.got.tgz:111757.got - 2010.06.03 18:47:42.
