data_PCOD9286910
_publ_section_title
;
Structure prediction by ZEFSAII (Michael W. Deem and Ramdas Pophale) SiO2 
 PCOD9286910
Probable space group: C 2/C
;
_chemical_formula_sum "Si O2"
_cell_formula_units_Z 48
_cell_length_a 7.911072
_cell_length_b 27.415884
_cell_length_c 14.796086
_cell_angle_alpha 90.000000
_cell_angle_beta 41.835639
_cell_angle_gamma 90.000000
_cell_volume 2140.462846
_symmetry_space_group_name_H-M "C 2/C"
_symmetry_group_IT_number 15
_symmetry_cell_setting 'monoclinic'
loop_
_space_group_symop_operation_xyz
x,y,z
-x,y,1/2-z
-x,-y,-z
x,-y,1/2+z
1/2+x,1/2+y,z
1/2-x,1/2+y,1/2-z
1/2-x,1/2-y,-z
1/2+x,1/2-y,1/2+z
loop_
_atom_site_type_symbol
_atom_site_label
_atom_site_fract_x
_atom_site_fract_y
_atom_site_fract_z
Si Si1 0.682280 0.859401 0.458480
Si Si2 0.211625 0.091976 0.243738
Si Si3 0.277625 0.752365 0.096792
Si Si4 0.529404 0.653602 0.998036
Si Si5 0.500000 0.562823 0.750000
Si Si6 0.862037 0.990877 0.149106
Si Si7 0.500000 0.902337 0.250000
O O1 0.439938 0.878419 0.608501
O O2 0.646116 0.808476 0.420537
O O3 0.898346 0.854139 0.451177
O O4 0.770257 0.899200 0.351686
O O5 0.108487 0.121616 0.370965
O O6 0.000000 0.087137 0.250000
O O7 0.276903 0.038532 0.257362
O O8 0.475169 0.710127 0.043998
O O9 0.000000 0.742890 0.250000
O O10 0.250000 0.750000 0.000000
O O11 0.813965 0.633375 0.879146
O O12 0.438353 0.525906 0.855781
O O13 0.690569 0.942724 0.215527
O O14 0.000000 0.000000 0.000000
#
# Coordination Sequence:
#
# PCOD9286910 Si02
#       7
#     8   8   8   8   4   8   4
#     4  11  24  44  76 103 143 190 246 299 366 440
#     4  12  27  45  69 106 150 193 246 304 365 436
#     4  10  21  44  76 105 137 187 243 294 363 446
#     4  11  24  46  70 106 142 192 240 297 370 428
#     4  12  24  44  72 102 142 184 250 294 358 440
#     4  12  27  46  69 104 143 199 241 298 368 431
#     4  12  26  42  76 104 148 182 250 300 354 428
#
# _framework density 22.425058
#
# number of rings (size 3 to 8) (size 9 to 14) (size 15 to 20)
#    0.000    0.667    5.000    2.500    7.000    0.667 
#    1.500    0.833    0.000    0.000    0.000    0.000 
#    0.000    0.000    0.000    0.000    0.000    0.000 
#
# Total GULP energy -133960.857545 kJ/mol
# GULP energy per Si atom -5581.702398 kJ/mol
# Density = 2.237402 g / cm^3
# Si number density = 22.425058 Si / 1000 Ang^3
#
#
#
# Elastic Constant Matrix: (Units=GPa)
#
#
# Indices 1 2 3 4 5 6 
#
# 1 46.8906 33.5964 27.0033 0.0000 10.9148 0.0000
# 2 33.5964 181.9487 75.2257 0.0000 -0.0365 0.0000
# 3 27.0033 75.2257 168.0386 0.0000 -6.6252 0.0000
# 4 0.0000 0.0000 0.0000 43.8083 0.0000 -2.8702
# 5 10.9148 -0.0365 -6.6252 0.0000 36.8579 0.0000
# 6 0.0000 0.0000 0.0000 -2.8702 0.0000 11.1442
#
#
#
# Elastic Compliance Matrix: (Units=1/GPa)
#
#
# Indices 1 2 3 4 5 6 
#
# 1 0.027950 -0.003880 -0.003103 0.000000 -0.008839 0.000000
# 2 -0.003880 0.007294 -0.002615 0.000000 0.000686 0.000000
# 3 -0.003103 -0.002615 0.007711 0.000000 0.002302 0.000000
# 4 0.000000 0.000000 0.000000 0.023219 0.000000 0.005980
# 5 -0.008839 0.000686 0.002302 0.000000 0.030163 0.000000
# 6 0.000000 0.000000 0.000000 0.005980 0.000000 0.091273
#
#
# Mechanical properties :
#
#
# Convention : Reuss Voigt Hill
#
# Bulk Modulus (GPa) = 42.08771 74.28097 58.18434
# Shear Modulus (GPa) = 23.28559 35.76558 29.52558
#
# Velocity S-wave (km/s) = 3.22588 3.99794 3.63248
# Velocity P-wave (km/s) = 5.71699 7.38291 6.60270
#
# Compressibility (1/GPa) = 0.02375991
#
# Stress axis : x y z
#
# Youngs Moduli (GPa) = 35.77755 137.10718 129.68605
#
# Poissons Ratio (x) = 0.53194 0.40244
# Poissons Ratio (y) = 0.13881 0.33907
# Poissons Ratio (z) = 0.11102 0.35848
#
# Static dielectric constant tensor:
#      x y z
#    x 2.090580 0.000000 0.063470 
#    y 0.000000 1.873960 0.000000 
#    z 0.063470 0.000000 1.780730 
# 
# From -- ./inp_files/138976.got.cif
#   From: 2010.05.17/outbox.cif.g08.bks.cpg/sg15_70_cif.got.tgz:138976.got - 2010.06.03 18:47:42.
