data_PCOD9286430
_publ_section_title
;
Structure prediction by ZEFSAII (Michael W. Deem and Ramdas Pophale) SiO2 
 PCOD9286430
Probable space group: C 2/C
;
_chemical_formula_sum "Si O2"
_cell_formula_units_Z 40
_cell_length_a 14.414262
_cell_length_b 15.414311
_cell_length_c 8.262154
_cell_angle_alpha 90.000000
_cell_angle_beta 63.412538
_cell_angle_gamma 90.000000
_cell_volume 1641.609402
_symmetry_space_group_name_H-M "C 2/C"
_symmetry_group_IT_number 15
_symmetry_cell_setting 'monoclinic'
loop_
_space_group_symop_operation_xyz
x,y,z
-x,y,1/2-z
-x,-y,-z
x,-y,1/2+z
1/2+x,1/2+y,z
1/2-x,1/2+y,1/2-z
1/2-x,1/2-y,-z
1/2+x,1/2-y,1/2+z
loop_
_atom_site_type_symbol
_atom_site_label
_atom_site_fract_x
_atom_site_fract_y
_atom_site_fract_z
Si Si1 0.806081 0.118598 0.011285
Si Si2 0.621147 0.809811 0.476392
Si Si3 0.760226 0.349597 0.446774
Si Si4 0.386434 0.460795 0.114023
Si Si5 0.046473 0.589190 0.534250
O O1 0.687302 0.143731 0.065077
O O2 0.863807 0.082105 0.805083
O O3 0.861860 0.207329 0.021017
O O4 0.813785 0.042840 0.134365
O O5 0.680495 0.846229 0.271630
O O6 0.502752 0.836930 0.542505
O O7 0.750000 0.250000 0.500000
O O8 0.649443 0.392394 0.495305
O O9 0.832729 0.398797 0.519173
O O10 0.500000 0.500000 0.000000
O O11 0.000000 0.599194 0.750000
O O12 0.000000 0.500000 0.500000
#
# Coordination Sequence:
#
# PCOD9286430 Si02
#       5
#     8   8   8   8   8
#     4  10  22  42  65  95 133 178 221 284 345 404
#     4   9  21  43  68  93 135 174 225 280 338 411
#     4  10  23  41  66  98 132 177 221 276 338 398
#     4  11  24  41  63  97 137 173 224 274 340 410
#     4  10  21  43  68  97 128 172 220 273 333 399
#
# _framework density 24.366330000000001
#
# number of rings (size 3 to 8) (size 9 to 14) (size 15 to 20)
#    0.000    2.000    0.000    1.800    5.600    0.000 
#   10.800    0.000    0.000    0.000    0.000    0.000 
#    0.000    0.000    0.000    0.000    0.000    0.000 
#
# Total GULP energy -111888.498548 kJ/mol
# GULP energy per Si atom -5594.424927 kJ/mol
# Density = 2.431087 g / cm^3
# Si number density = 24.366330 Si / 1000 Ang^3
#
#
#
# Elastic Constant Matrix: (Units=GPa)
#
#
# Indices 1 2 3 4 5 6 
#
# 1 147.8095 79.2164 50.4429 0.0000 20.9233 0.0000
# 2 79.2164 144.0862 18.6100 0.0000 22.9283 0.0000
# 3 50.4429 18.6100 59.9588 0.0000 1.0383 0.0000
# 4 0.0000 0.0000 0.0000 44.6468 0.0000 17.0479
# 5 20.9233 22.9283 1.0383 0.0000 30.6349 0.0000
# 6 0.0000 0.0000 0.0000 17.0479 0.0000 47.1824
#
#
#
# Elastic Compliance Matrix: (Units=1/GPa)
#
#
# Indices 1 2 3 4 5 6 
#
# 1 0.013756 -0.005515 -0.009776 0.000000 -0.004936 0.000000
# 2 -0.005515 0.010433 0.001472 0.000000 -0.004092 0.000000
# 3 -0.009776 0.001472 0.024363 0.000000 0.004749 0.000000
# 4 0.000000 0.000000 0.000000 0.025983 0.000000 -0.009388
# 5 -0.004936 -0.004092 0.004749 0.000000 0.038916 0.000000
# 6 0.000000 0.000000 0.000000 -0.009388 0.000000 0.024586
#
#
# Mechanical properties :
#
#
# Convention : Reuss Voigt Hill
#
# Bulk Modulus (GPa) = 47.81076 72.04368 59.92722
# Shear Modulus (GPa) = 28.96111 38.06517 33.51314
#
# Velocity S-wave (km/s) = 3.45131 3.95676 3.71264
# Velocity P-wave (km/s) = 5.96207 7.10674 6.55942
#
# Compressibility (1/GPa) = 0.02091579
#
# Stress axis : x y z
#
# Youngs Moduli (GPa) = 72.69644 95.84797 41.04564
#
# Poissons Ratio (x) = 0.52857 0.40124
# Poissons Ratio (y) = 0.40089 -0.06042
# Poissons Ratio (z) = 0.71065 -0.14109
#
# Static dielectric constant tensor:
#      x y z
#    x 1.992250 0.000000 0.009640 
#    y 0.000000 1.915360 0.000000 
#    z 0.009640 0.000000 1.984720 
# 
# From -- ./inp_files/37871.got.cif
#   From: 2010.05.17/outbox.cif.g08.bks.cpg/sg15_19_cif.got.tgz:37871.got - 2010.06.03 18:47:42.
