data_PCOD9286568
_publ_section_title
;
Structure prediction by ZEFSAII (Michael W. Deem and Ramdas Pophale) SiO2 
 PCOD9286568
Probable space group: C 2/C
;
_chemical_formula_sum "Si O2"
_cell_formula_units_Z 36
_cell_length_a 5.445738
_cell_length_b 22.986023
_cell_length_c 12.854228
_cell_angle_alpha 90.000000
_cell_angle_beta 77.401949
_cell_angle_gamma 90.000000
_cell_volume 1570.300100
_symmetry_space_group_name_H-M "C 2/C"
_symmetry_group_IT_number 15
_symmetry_cell_setting 'monoclinic'
loop_
_space_group_symop_operation_xyz
x,y,z
-x,y,1/2-z
-x,-y,-z
x,-y,1/2+z
1/2+x,1/2+y,z
1/2-x,1/2+y,1/2-z
1/2-x,1/2-y,-z
1/2+x,1/2-y,1/2+z
loop_
_atom_site_type_symbol
_atom_site_label
_atom_site_fract_x
_atom_site_fract_y
_atom_site_fract_z
Si Si1 0.182818 0.144002 0.631901
Si Si2 0.283249 0.486964 0.439355
Si Si3 0.500000 0.425819 0.750000
Si Si4 0.500000 0.196820 0.750000
Si Si5 0.000000 0.351154 0.750000
Si Si6 0.085933 0.744305 0.408164
O O1 0.188481 0.081610 0.582414
O O2 0.454990 0.157143 0.654916
O O3 0.000000 0.140077 0.750000
O O4 0.109422 0.201529 0.573939
O O5 0.500000 0.500000 0.500000
O O6 0.354670 0.529973 0.339553
O O7 0.000000 0.500000 0.500000
O O8 0.733513 0.386659 0.771665
O O9 0.728267 0.237593 0.703199
O O10 0.008799 0.315242 0.637750
O O11 0.250000 0.750000 0.500000
#
# Coordination Sequence:
#
# PCOD9286568 Si02
#       6
#     8   8   4   4   4   8
#     4  10  23  46  77 103 145 199 258 318 372 451
#     4  12  29  50  78 115 150 204 269 314 389 462
#     4  12  29  51  76 111 168 205 240 346 382 458
#     4  10  21  43  72 108 139 195 256 308 376 450
#     4  12  26  50  76 115 161 202 258 308 418 458
#     4  11  25  45  75 109 151 204 250 321 379 467
#
# _framework density 22.925554000000002
#
# number of rings (size 3 to 8) (size 9 to 14) (size 15 to 20)
#    0.000    0.889    4.444    2.000    9.333    3.556 
#    4.000    0.000    0.000    0.000    0.000    0.000 
#    0.000    0.000    0.000    0.000    0.000    0.000 
#
# Total GULP energy -100384.772347 kJ/mol
# GULP energy per Si atom -5576.931797 kJ/mol
# Density = 2.287337 g / cm^3
# Si number density = 22.925554 Si / 1000 Ang^3
#
#
#
# Elastic Constant Matrix: (Units=GPa)
#
#
# Indices 1 2 3 4 5 6 
#
# 1 153.4328 80.4113 52.9644 0.0000 11.2237 0.0000
# 2 80.4113 182.7518 61.2666 0.0000 17.4228 0.0000
# 3 52.9644 61.2666 95.1432 0.0000 3.7429 0.0000
# 4 0.0000 0.0000 0.0000 36.5899 0.0000 13.5688
# 5 11.2237 17.4228 3.7429 0.0000 57.1363 0.0000
# 6 0.0000 0.0000 0.0000 13.5688 0.0000 42.9253
#
#
#
# Elastic Compliance Matrix: (Units=1/GPa)
#
#
# Indices 1 2 3 4 5 6 
#
# 1 0.009204 -0.002899 -0.003228 0.000000 -0.000712 0.000000
# 2 -0.002899 0.008090 -0.003530 0.000000 -0.001666 0.000000
# 3 -0.003228 -0.003530 0.014551 0.000000 0.000757 0.000000
# 4 0.000000 0.000000 0.000000 0.030959 0.000000 -0.009786
# 5 -0.000712 -0.001666 0.000757 0.000000 0.018100 0.000000
# 6 0.000000 0.000000 0.000000 -0.009786 0.000000 0.026390
#
#
# Mechanical properties :
#
#
# Convention : Reuss Voigt Hill
#
# Bulk Modulus (GPa) = 79.81427 91.17917 85.49672
# Shear Modulus (GPa) = 38.23075 43.10934 40.67004
#
# Velocity S-wave (km/s) = 4.08806 4.34107 4.21646
# Velocity P-wave (km/s) = 7.56129 8.06131 7.81530
#
# Compressibility (1/GPa) = 0.01252909
#
# Stress axis : x y z
#
# Youngs Moduli (GPa) = 108.65370 123.61216 68.72454
#
# Poissons Ratio (x) = 0.35840 0.22187
# Poissons Ratio (y) = 0.31503 0.24258
# Poissons Ratio (z) = 0.35078 0.43633
#
# Static dielectric constant tensor:
#      x y z
#    x 1.977950 0.000000 -0.000710 
#    y 0.000000 2.439910 0.000000 
#    z -0.000710 0.000000 1.917240 
# 
# From -- ./inp_files/72547.got.cif
#   From: 2010.05.17/outbox.cif.g08.bks.cpg/sg15_37_cif.got.tgz:72547.got - 2010.06.03 18:47:42.
