data_PCOD9286177
_publ_section_title
;
Structure prediction by ZEFSAII (Michael W. Deem and Ramdas Pophale) SiO2 
 PCOD9286177
Probable space group: C 2/C
;
_chemical_formula_sum "Si O2"
_cell_formula_units_Z 28
_cell_length_a 6.532613
_cell_length_b 16.214766
_cell_length_c 13.935587
_cell_angle_alpha 90.000000
_cell_angle_beta 123.048751
_cell_angle_gamma 90.000000
_cell_volume 1237.297368
_symmetry_space_group_name_H-M "C 2/C"
_symmetry_group_IT_number 15
_symmetry_cell_setting 'monoclinic'
loop_
_space_group_symop_operation_xyz
x,y,z
-x,y,1/2-z
-x,-y,-z
x,-y,1/2+z
1/2+x,1/2+y,z
1/2-x,1/2+y,1/2-z
1/2-x,1/2-y,-z
1/2+x,1/2-y,1/2+z
loop_
_atom_site_type_symbol
_atom_site_label
_atom_site_fract_x
_atom_site_fract_y
_atom_site_fract_z
Si Si1 0.000000 0.626264 0.750000
Si Si2 0.757101 0.688737 0.864046
Si Si3 0.304931 0.529401 0.283306
Si Si4 0.318871 0.875594 0.583435
O O1 0.968728 0.680542 0.837689
O O2 0.781265 0.560673 0.704839
O O3 0.500000 0.669451 0.750000
O O4 0.717313 0.781385 0.892190
O O5 0.801127 0.627945 0.964580
O O6 0.500000 0.526390 0.250000
O O7 0.373569 0.575767 0.399270
O O8 0.076376 0.581541 0.178636
#
# Coordination Sequence:
#
# PCOD9286177 Si02
#       4
#     4   8   8   8
#     4  10  24  38  62  94 124 158 204 244 308 356
#     4  11  21  40  62  94 123 154 202 260 296 359
#     4  10  21  43  62  89 126 166 196 246 298 367
#     4   9  22  39  64  91 120 160 206 241 311 357
#
# _framework density 22.62997
#
# number of rings (size 3 to 8) (size 9 to 14) (size 15 to 20)
#    0.000    2.286    2.857    0.857    2.000    6.857 
#    0.000   14.286    0.000    0.000    0.000    0.000 
#    0.000    0.000    0.000    0.000    0.000    0.000 
#
# Total GULP energy -78065.671685 kJ/mol
# GULP energy per Si atom -5576.119406 kJ/mol
# Density = 2.257846 g / cm^3
# Si number density = 22.629970 Si / 1000 Ang^3
#
#
#
# Elastic Constant Matrix: (Units=GPa)
#
#
# Indices 1 2 3 4 5 6 
#
# 1 191.5439 34.3537 49.4712 0.0000 -50.5374 0.0000
# 2 34.3537 72.3672 21.2943 0.0000 -3.7315 0.0000
# 3 49.4712 21.2943 99.9156 0.0000 -37.8074 0.0000
# 4 0.0000 0.0000 0.0000 14.9405 0.0000 -20.4827
# 5 -50.5374 -3.7315 -37.8074 0.0000 35.9119 0.0000
# 6 0.0000 0.0000 0.0000 -20.4827 0.0000 24.7832
#
#
#
# Elastic Compliance Matrix: (Units=1/GPa)
#
#
# Indices 1 2 3 4 5 6 
#
# 1 0.009382 -0.004229 0.001804 0.000000 0.014663 0.000000
# 2 -0.004229 0.016840 -0.005127 0.000000 -0.009599 0.000000
# 3 0.001804 -0.005127 0.018229 0.000000 0.021197 0.000000
# 4 0.000000 0.000000 0.000000 -0.503033 0.000000 -0.415744
# 5 0.014663 -0.009599 0.021197 0.000000 0.069799 0.000000
# 6 0.000000 0.000000 0.000000 -0.415744 0.000000 -0.303252
#
#
# Mechanical properties :
#
#
# Convention : Reuss Voigt Hill
#
# Bulk Modulus (GPa) = 34.07527 63.78503 48.93015
# Shear Modulus (GPa) = -7.49456 32.37428 12.43986
#
# Velocity S-wave (km/s) = -1.82181 3.78642 2.34713
# Velocity P-wave (km/s) = 3.26573 6.88210 5.38648
#
# Compressibility (1/GPa) = 0.02934679
#
# Stress axis : x y z
#
# Youngs Moduli (GPa) = 106.58967 59.38396 54.85843
#
# Poissons Ratio (x) = 0.25111 -0.09898
# Poissons Ratio (y) = 0.45072 0.28128
# Poissons Ratio (z) = -0.19232 0.30449
#
# Static dielectric constant tensor:
#      x y z
#    x 1.893460 0.000000 0.009410 
#    y 0.000000 1.912020 0.000000 
#    z 0.009410 0.000000 1.900680 
# 
# From -- ./inp_files/128258.got.cif
#   From: 2010.05.17/outbox.cif.g08.bks.cpg/sg15_65_cif.got.tgz:128258.got - 2010.06.03 18:47:42.
