data_PCOD9286896
_publ_section_title
;
Structure prediction by ZEFSAII (Michael W. Deem and Ramdas Pophale) SiO2 
 PCOD9286896
Probable space group: C 2/C
;
_chemical_formula_sum "Si O2"
_cell_formula_units_Z 60
_cell_length_a 12.088422
_cell_length_b 29.525595
_cell_length_c 7.657307
_cell_angle_alpha 90.000000
_cell_angle_beta 92.014878
_cell_angle_gamma 90.000000
_cell_volume 2731.339820
_symmetry_space_group_name_H-M "C 2/C"
_symmetry_group_IT_number 15
_symmetry_cell_setting 'monoclinic'
loop_
_space_group_symop_operation_xyz
x,y,z
-x,y,1/2-z
-x,-y,-z
x,-y,1/2+z
1/2+x,1/2+y,z
1/2-x,1/2+y,1/2-z
1/2-x,1/2-y,-z
1/2+x,1/2-y,1/2+z
loop_
_atom_site_type_symbol
_atom_site_label
_atom_site_fract_x
_atom_site_fract_y
_atom_site_fract_z
Si Si1 0.395159 0.627640 0.356603
Si Si2 0.710719 0.702625 0.911513
Si Si3 0.206295 0.437937 0.933206
Si Si4 0.524100 0.093892 0.959724
Si Si5 0.961324 0.692123 0.936618
Si Si6 0.229856 0.542383 0.850636
Si Si7 0.530258 0.449505 0.053518
Si Si8 0.500000 0.262103 0.250000
O O1 0.500000 0.645890 0.250000
O O2 0.356478 0.670783 0.462667
O O3 0.277031 0.600042 0.332689
O O4 0.460808 0.586432 0.447622
O O5 0.831483 0.679527 0.894544
O O6 0.618614 0.711258 0.754329
O O7 0.750000 0.750000 0.000000
O O8 0.234211 0.441467 0.146407
O O9 0.076335 0.426316 0.934267
O O10 0.225691 0.487813 0.855572
O O11 0.500000 0.093570 0.750000
O O12 0.527744 0.147235 0.999627
O O13 0.631653 0.062869 0.961965
O O14 0.000000 0.708336 0.750000
O O15 0.983862 0.730221 0.081008
O O16 0.340556 0.557897 0.952685
O O17 0.500000 0.443853 0.250000
O O18 0.500000 0.500000 0.000000
#
# Coordination Sequence:
#
# PCOD9286896 Si02
#       8
#     8   8   8   8   8   8   8   4
#     4  12  26  43  71  98 134 183 230 285 362 423
#     4  10  24  48  73 100 145 176 230 305 356 432
#     4  11  22  40  63  92 137 179 230 283 342 410
#     4   9  20  40  65  92 132 184 231 279 351 413
#     4  10  21  44  74 102 143 184 227 298 362 423
#     4  11  22  38  62  96 136 184 230 280 340 411
#     4  12  23  39  62  95 142 182 228 285 336 414
#     4  10  24  44  74 108 136 184 240 286 370 438
#
# _framework density 21.967243
#
# number of rings (size 3 to 8) (size 9 to 14) (size 15 to 20)
#    0.000    1.333    4.000    0.800    2.800    2.667 
#    7.200    0.000    0.000    0.000    0.000    0.000 
#    0.000    0.000    0.000    0.000    0.000    0.000 
#
# Total GULP energy -167171.775178 kJ/mol
# GULP energy per Si atom -5572.392506 kJ/mol
# Density = 2.191724 g / cm^3
# Si number density = 21.967243 Si / 1000 Ang^3
#
#
#
# Elastic Constant Matrix: (Units=GPa)
#
#
# Indices 1 2 3 4 5 6 
#
# 1 146.9446 41.6235 40.8721 0.0000 -19.3428 0.0000
# 2 41.6235 73.7335 4.7249 0.0000 -2.7479 0.0000
# 3 40.8721 4.7249 55.9452 0.0000 -16.1551 0.0000
# 4 0.0000 0.0000 0.0000 20.5787 0.0000 25.5821
# 5 -19.3428 -2.7479 -16.1551 0.0000 35.5332 0.0000
# 6 0.0000 0.0000 0.0000 25.5821 0.0000 -67.0682
#
#
#
# Elastic Compliance Matrix: (Units=1/GPa)
#
#
# Indices 1 2 3 4 5 6 
#
# 1 0.010449 -0.005395 -0.006511 0.000000 0.002311 0.000000
# 2 -0.005395 0.016433 0.002386 0.000000 -0.000581 0.000000
# 3 -0.006511 0.002386 0.024703 0.000000 0.007871 0.000000
# 4 0.000000 0.000000 0.000000 0.032963 0.000000 0.012573
# 5 0.002311 -0.000581 0.007871 0.000000 0.032934 0.000000
# 6 0.000000 0.000000 0.000000 0.012573 0.000000 -0.010114
#
#
# Mechanical properties :
#
#
# Convention : Reuss Voigt Hill
#
# Bulk Modulus (GPa) = 30.72702 50.11826 40.42264
# Shear Modulus (GPa) = 36.42832 10.43559 23.43196
#
# Velocity S-wave (km/s) = 4.07664 2.18193 3.26955
# Velocity P-wave (km/s) = 6.01471 5.40484 5.71791
#
# Compressibility (1/GPa) = 0.03254465
#
# Stress axis : x y z
#
# Youngs Moduli (GPa) = 95.70749 60.85182 40.48166
#
# Poissons Ratio (x) = 0.32830 0.26356
# Poissons Ratio (y) = 0.51634 -0.09658
# Poissons Ratio (z) = 0.62311 -0.14517
#
# Static dielectric constant tensor:
#      x y z
#    x 1.907240 0.000000 0.009610 
#    y 0.000000 1.796810 0.000000 
#    z 0.009610 0.000000 1.840200 
# 
# From -- ./inp_files/35235.got.cif
#   From: 2010.05.17/outbox.cif.g08.bks.cpg/sg15_18_cif.got.tgz:35235.got - 2010.06.03 18:47:42.
