data_PCOD9286835
_publ_section_title
;
Structure prediction by ZEFSAII (Michael W. Deem and Ramdas Pophale) SiO2 
 PCOD9286835
Probable space group: C 2/C
;
_chemical_formula_sum "Si O2"
_cell_formula_units_Z 40
_cell_length_a 18.109510
_cell_length_b 10.098221
_cell_length_c 15.075973
_cell_angle_alpha 90.000000
_cell_angle_beta 32.933744
_cell_angle_gamma 90.000000
_cell_volume 1498.895541
_symmetry_space_group_name_H-M "C 2/C"
_symmetry_group_IT_number 15
_symmetry_cell_setting 'monoclinic'
loop_
_space_group_symop_operation_xyz
x,y,z
-x,y,1/2-z
-x,-y,-z
x,-y,1/2+z
1/2+x,1/2+y,z
1/2-x,1/2+y,1/2-z
1/2-x,1/2-y,-z
1/2+x,1/2-y,1/2+z
loop_
_atom_site_type_symbol
_atom_site_label
_atom_site_fract_x
_atom_site_fract_y
_atom_site_fract_z
Si Si1 0.131106 0.827045 0.866932
Si Si2 0.856669 0.527965 0.692743
Si Si3 0.591032 0.529889 0.245638
Si Si4 0.198141 0.316685 0.463641
Si Si5 0.639496 0.071621 0.607985
O O1 0.255498 0.927349 0.747951
O O2 0.170897 0.682646 0.792738
O O3 0.335629 0.016533 0.819098
O O4 0.034042 0.894081 0.890191
O O5 0.107391 0.443566 0.578697
O O6 0.000000 0.500000 0.500000
O O7 0.500000 0.508868 0.250000
O O8 0.663101 0.393305 0.206500
O O9 0.615323 0.284778 0.986066
O O10 0.719871 0.617067 0.078138
O O11 0.250000 0.250000 0.500000
O O12 0.500000 0.154874 0.750000
#
# Coordination Sequence:
#
# PCOD9286835 Si02
#       5
#     8   8   8   8   8
#     4  12  23  48  74 111 158 205 271 334 403 495
#     4  12  26  47  76 115 156 214 278 339 413 494
#     4  10  24  45  73 116 155 204 268 335 410 484
#     4  10  21  44  70 108 152 209 263 325 403 490
#     4  10  22  45  71 104 156 206 262 325 401 492
#
# _framework density 26.686316999999999
#
# number of rings (size 3 to 8) (size 9 to 14) (size 15 to 20)
#    1.200    0.000    4.000    2.400    0.000    4.000 
#    7.200    5.000    0.000    0.000    0.000    0.000 
#    0.000    0.000    0.000    0.000    0.000    0.000 
#
# Total GULP energy -111485.369363 kJ/mol
# GULP energy per Si atom -5574.268468 kJ/mol
# Density = 2.662558 g / cm^3
# Si number density = 26.686317 Si / 1000 Ang^3
#
#
#
# Elastic Constant Matrix: (Units=GPa)
#
#
# Indices 1 2 3 4 5 6 
#
# 1 155.1901 33.4221 41.6598 0.0000 36.2479 0.0000
# 2 33.4221 96.9582 20.9680 0.0000 9.0827 0.0000
# 3 41.6598 20.9680 87.7623 0.0000 11.0060 0.0000
# 4 0.0000 0.0000 0.0000 26.7257 0.0000 23.1744
# 5 36.2479 9.0827 11.0060 0.0000 45.8953 0.0000
# 6 0.0000 0.0000 0.0000 23.1744 0.0000 55.4636
#
#
#
# Elastic Compliance Matrix: (Units=1/GPa)
#
#
# Indices 1 2 3 4 5 6 
#
# 1 0.009104 -0.001898 -0.003107 0.000000 -0.006070 0.000000
# 2 -0.001898 0.011383 -0.001778 0.000000 -0.000328 0.000000
# 3 -0.003107 -0.001778 0.013343 0.000000 -0.000394 0.000000
# 4 0.000000 0.000000 0.000000 0.058676 0.000000 -0.024517
# 5 -0.006070 -0.000328 -0.000394 0.000000 0.026742 0.000000
# 6 0.000000 0.000000 0.000000 -0.024517 0.000000 0.028274
#
#
# Mechanical properties :
#
#
# Convention : Reuss Voigt Hill
#
# Bulk Modulus (GPa) = 49.34454 59.11225 54.22839
# Shear Modulus (GPa) = 29.78981 41.87431 35.83206
#
# Velocity S-wave (km/s) = 3.34473 3.96552 3.66828
# Velocity P-wave (km/s) = 5.78334 6.57008 6.18922
#
# Compressibility (1/GPa) = 0.02026567
#
# Stress axis : x y z
#
# Youngs Moduli (GPa) = 109.83927 87.85026 74.94317
#
# Poissons Ratio (x) = 0.16672 0.23285
# Poissons Ratio (y) = 0.20845 0.13323
# Poissons Ratio (z) = 0.34128 0.15617
#
# Static dielectric constant tensor:
#      x y z
#    x 2.193160 0.000000 0.017510 
#    y 0.000000 2.050330 0.000000 
#    z 0.017510 0.000000 2.234150 
# 
# From -- ./inp_files/162691.got.cif
#   From: 2010.05.17/outbox.cif.g08.bks.cpg/sg15_82_cif.got.tgz:162691.got - 2010.06.03 18:47:42.
