data_PCOD9286295
_publ_section_title
;
Structure prediction by ZEFSAII (Michael W. Deem and Ramdas Pophale) SiO2 
 PCOD9286295
Probable space group: C 2/C
;
_chemical_formula_sum "Si O2"
_cell_formula_units_Z 40
_cell_length_a 10.683561
_cell_length_b 22.873721
_cell_length_c 16.239770
_cell_angle_alpha 90.000000
_cell_angle_beta 154.731352
_cell_angle_gamma 90.000000
_cell_volume 1694.030912
_symmetry_space_group_name_H-M "C 2/C"
_symmetry_group_IT_number 15
_symmetry_cell_setting 'monoclinic'
loop_
_space_group_symop_operation_xyz
x,y,z
-x,y,1/2-z
-x,-y,-z
x,-y,1/2+z
1/2+x,1/2+y,z
1/2-x,1/2+y,1/2-z
1/2-x,1/2-y,-z
1/2+x,1/2-y,1/2+z
loop_
_atom_site_type_symbol
_atom_site_label
_atom_site_fract_x
_atom_site_fract_y
_atom_site_fract_z
Si Si1 0.551029 0.121931 0.164533
Si Si2 0.792820 0.031466 0.203340
Si Si3 0.256347 0.754785 0.668421
Si Si4 0.028873 0.073556 0.940475
Si Si5 0.321501 0.179140 0.729551
O O1 0.574208 0.191068 0.186554
O O2 0.219603 0.099879 0.978306
O O3 0.750713 0.089438 0.353484
O O4 0.702347 0.096474 0.174702
O O5 0.000000 0.033042 0.250000
O O6 0.056195 0.991953 0.135114
O O7 0.500000 0.000000 0.000000
O O8 0.500000 0.729745 0.750000
O O9 0.092910 0.711834 0.635087
O O10 0.997218 0.790983 0.471150
O O11 0.739364 0.111273 0.787278
O O12 0.500000 0.185832 0.750000
#
# Coordination Sequence:
#
# PCOD9286295 Si02
#       5
#     8   8   8   8   8
#     4  10  21  43  66  90 125 173 216 251 313 395
#     4  12  25  40  63  96 129 161 212 273 322 364
#     4  11  22  41  68  94 127 173 213 255 317 386
#     4  10  22  43  65  89 127 173 214 250 317 395
#     4  11  24  41  65  99 130 163 215 267 316 372
#
# _framework density 23.612321000000001
#
# number of rings (size 3 to 8) (size 9 to 14) (size 15 to 20)
#    0.000    1.200    6.000    1.800    0.000    6.400 
#    3.600    0.000    0.000    0.000    0.000    0.000 
#    0.000    0.000    0.000    0.000    0.000    0.000 
#
# Total GULP energy -111618.106431 kJ/mol
# GULP energy per Si atom -5580.905322 kJ/mol
# Density = 2.355858 g / cm^3
# Si number density = 23.612321 Si / 1000 Ang^3
#
#
#
# Elastic Constant Matrix: (Units=GPa)
#
#
# Indices 1 2 3 4 5 6 
#
# 1 169.2947 57.2620 8.1344 0.0043 19.3880 0.0052
# 2 57.2620 78.7868 -6.7186 0.0111 0.3865 0.0016
# 3 8.1344 -6.7186 34.1042 0.0536 7.2425 0.0063
# 4 0.0043 0.0111 0.0536 19.0895 0.0102 -6.2566
# 5 19.3880 0.3865 7.2425 0.0102 25.4542 0.0036
# 6 0.0052 0.0016 0.0063 -6.2566 0.0036 29.2972
#
#
#
# Elastic Compliance Matrix: (Units=1/GPa)
#
#
# Indices 1 2 3 4 5 6 
#
# 1 0.008967 -0.006671 -0.002154 0.000012 -0.006116 0.000003
# 2 -0.006671 0.017895 0.004359 -0.000025 0.003569 -0.000007
# 3 -0.002154 0.004359 0.032313 -0.000097 -0.007619 -0.000027
# 4 0.000012 -0.000025 -0.000097 0.056328 -0.000005 0.012029
# 5 -0.006116 0.003569 -0.007619 -0.000005 0.046058 -0.000004
# 6 0.000003 -0.000007 -0.000027 0.012029 -0.000004 0.036702
#
#
# Mechanical properties :
#
#
# Convention : Reuss Voigt Hill
#
# Bulk Modulus (GPa) = 19.90388 44.39348 32.14868
# Shear Modulus (GPa) = 22.32711 29.66872 25.99791
#
# Velocity S-wave (km/s) = 3.07835 3.54855 3.32178
# Velocity P-wave (km/s) = 4.59159 5.96920 5.32514
#
# Compressibility (1/GPa) = 0.05024145
#
# Stress axis : x y z
#
# Youngs Moduli (GPa) = 111.51814 55.88123 30.94773
#
# Poissons Ratio (x) = 0.37278 0.06667
# Poissons Ratio (y) = 0.74394 -0.13489
# Poissons Ratio (z) = 0.24024 -0.24356
#
# Static dielectric constant tensor:
#      x y z
#    x 1.938950 0.000070 -0.096930 
#    y 0.000070 1.808730 -0.000010 
#    z -0.096930 -0.000010 1.924020 
# 
# From -- ./inp_files/137633.got.cif
#   From: 2010.05.17/outbox.cif.g08.bks.cpg/sg15_69_cif.got.tgz:137633.got - 2010.06.03 18:47:42.
