data_PCOD9286958
_publ_section_title
;
Structure prediction by ZEFSAII (Michael W. Deem and Ramdas Pophale) SiO2 
 PCOD9286958
Probable space group: C 2/C
;
_chemical_formula_sum "Si O2"
_cell_formula_units_Z 52
_cell_length_a 15.689874
_cell_length_b 8.553334
_cell_length_c 29.799948
_cell_angle_alpha 90.000000
_cell_angle_beta 37.914413
_cell_angle_gamma 90.000000
_cell_volume 2457.427676
_symmetry_space_group_name_H-M "C 2/C"
_symmetry_group_IT_number 15
_symmetry_cell_setting 'monoclinic'
loop_
_space_group_symop_operation_xyz
x,y,z
-x,y,1/2-z
-x,-y,-z
x,-y,1/2+z
1/2+x,1/2+y,z
1/2-x,1/2+y,1/2-z
1/2-x,1/2-y,-z
1/2+x,1/2-y,1/2+z
loop_
_atom_site_type_symbol
_atom_site_label
_atom_site_fract_x
_atom_site_fract_y
_atom_site_fract_z
Si Si1 0.268190 0.921478 0.798678
Si Si2 0.000000 0.751440 0.250000
Si Si3 0.307916 0.839664 0.518564
Si Si4 0.421449 0.258932 0.550190
Si Si5 0.603905 0.190984 0.040111
Si Si6 0.715572 0.780246 0.802562
Si Si7 0.282429 0.487971 0.859479
O O1 0.419393 0.857538 0.749012
O O2 0.171125 0.870502 0.880449
O O3 0.229664 0.834825 0.768517
O O4 0.259761 0.104102 0.793971
O O5 0.108846 0.871346 0.183284
O O6 0.250000 0.750000 0.500000
O O7 0.424886 0.738273 0.494616
O O8 0.202903 0.883468 0.602394
O O9 0.371427 0.005735 0.476814
O O10 0.413306 0.280507 0.500416
O O11 0.362727 0.081933 0.580355
O O12 0.453866 0.211573 0.126150
O O13 0.750000 0.250000 0.000000
O O14 0.779192 0.889510 0.815285
#
# Coordination Sequence:
#
# PCOD9286958 Si02
#       7
#     8   4   8   8   8   8   8
#     4  11  27  41  71  98 136 182 226 286 340 410
#     4  10  24  46  68  96 132 174 242 280 346 402
#     4  11  23  40  69 103 132 175 229 277 343 410
#     4  10  21  47  66  97 137 175 223 280 349 402
#     4  11  25  43  71 100 136 180 229 281 342 410
#     4  12  25  47  67  98 141 185 227 278 350 404
#     4  10  21  45  68  92 136 183 217 285 337 405
#
# _framework density 21.160339
#
# number of rings (size 3 to 8) (size 9 to 14) (size 15 to 20)
#    0.000    1.231    3.077    2.769    8.615    3.692 
#    0.000    0.000    0.000    0.000    0.000    0.000 
#    0.000    0.000    0.000    0.000    0.000    0.000 
#
# Total GULP energy -145245.678496 kJ/mol
# GULP energy per Si atom -5586.372250 kJ/mol
# Density = 2.111218 g / cm^3
# Si number density = 21.160339 Si / 1000 Ang^3
#
#
#
# Elastic Constant Matrix: (Units=GPa)
#
#
# Indices 1 2 3 4 5 6 
#
# 1 121.5260 25.0971 13.9689 0.0000 -3.9852 -0.0010
# 2 25.0971 76.7957 2.1888 -0.0007 -8.5223 -0.0016
# 3 13.9689 2.1888 45.0858 0.0001 -2.9095 -0.0007
# 4 0.0000 -0.0007 0.0001 18.5707 0.0000 -0.2154
# 5 -3.9852 -8.5223 -2.9095 0.0000 31.7875 -0.0004
# 6 -0.0010 -0.0016 -0.0007 -0.2154 -0.0004 31.8301
#
#
#
# Elastic Compliance Matrix: (Units=1/GPa)
#
#
# Indices 1 2 3 4 5 6 
#
# 1 0.009139 -0.002897 -0.002683 0.000000 0.000124 0.000000
# 2 -0.002897 0.014347 0.000428 0.000001 0.003522 0.000001
# 3 -0.002683 0.000428 0.023113 0.000000 0.001894 0.000000
# 4 0.000000 0.000001 0.000000 0.053852 0.000000 0.000364
# 5 0.000124 0.003522 0.001894 0.000000 0.032592 0.000001
# 6 0.000000 0.000001 0.000000 0.000364 0.000001 0.031419
#
#
# Mechanical properties :
#
#
# Convention : Reuss Voigt Hill
#
# Bulk Modulus (GPa) = 27.55116 36.21304 31.88210
# Shear Modulus (GPa) = 26.75742 29.91451 28.33597
#
# Velocity S-wave (km/s) = 3.55985 3.76401 3.66335
# Velocity P-wave (km/s) = 5.47222 6.00343 5.74397
#
# Compressibility (1/GPa) = 0.03629611
#
# Stress axis : x y z
#
# Youngs Moduli (GPa) = 109.41702 69.70164 43.26636
#
# Poissons Ratio (x) = 0.20190 0.11609
# Poissons Ratio (y) = 0.31694 -0.01853
# Poissons Ratio (z) = 0.29357 -0.02985
#
# Static dielectric constant tensor:
#      x y z
#    x 1.885820 0.000000 -0.357250 
#    y 0.000000 1.735900 0.000000 
#    z -0.357250 0.000000 2.792540 
# 
# From -- ./inp_files/242516.got.cif
#   From: 2010.05.17/outbox.cif.g08.bks.cpg/sg15_122_cif.got.tgz:242516.got - 2010.06.03 18:47:42.
