data_PCOD9286680
_publ_section_title
;
Structure prediction by ZEFSAII (Michael W. Deem and Ramdas Pophale) SiO2 
 PCOD9286680
Probable space group: C 2/C
;
_chemical_formula_sum "Si O2"
_cell_formula_units_Z 40
_cell_length_a 9.186361
_cell_length_b 12.231391
_cell_length_c 20.851387
_cell_angle_alpha 90.000000
_cell_angle_beta 43.829577
_cell_angle_gamma 90.000000
_cell_volume 1622.497023
_symmetry_space_group_name_H-M "C 2/C"
_symmetry_group_IT_number 15
_symmetry_cell_setting 'monoclinic'
loop_
_space_group_symop_operation_xyz
x,y,z
-x,y,1/2-z
-x,-y,-z
x,-y,1/2+z
1/2+x,1/2+y,z
1/2-x,1/2+y,1/2-z
1/2-x,1/2-y,-z
1/2+x,1/2-y,1/2+z
loop_
_atom_site_type_symbol
_atom_site_label
_atom_site_fract_x
_atom_site_fract_y
_atom_site_fract_z
Si Si1 0.224555 0.922773 0.585589
Si Si2 0.477842 0.975712 0.112946
Si Si3 0.681323 0.543463 0.813923
Si Si4 0.976540 0.231724 0.962977
Si Si5 0.349183 0.858615 0.848639
O O1 0.332728 0.014923 0.596258
O O2 0.166657 0.686427 0.421397
O O3 0.304229 0.935036 0.486616
O O4 0.981872 0.956564 0.665944
O O5 0.520375 0.095285 0.131568
O O6 0.346608 0.914184 0.208781
O O7 0.569457 0.639621 0.887120
O O8 0.791117 0.471557 0.832826
O O9 0.750000 0.250000 0.000000
O O10 0.870732 0.195981 0.064181
O O11 0.500000 0.797228 0.750000
#
# Coordination Sequence:
#
# PCOD9286680 Si02
#       5
#     8   8   8   8   8
#     4  11  22  40  71  98 129 179 232 268 338 407
#     4  10  21  44  65  95 132 182 212 274 352 394
#     4  11  24  43  69  94 139 175 221 281 340 395
#     4  12  23  40  68  98 134 171 229 280 326 412
#     4  10  22  43  67  90 135 180 212 275 352 391
#
# _framework density 24.653357
#
# number of rings (size 3 to 8) (size 9 to 14) (size 15 to 20)
#    0.000    1.200    4.000    2.400    0.000    2.400 
#    0.000    4.000    0.000    0.000    0.000    0.000 
#    0.000    0.000    0.000    0.000    0.000    0.000 
#
# Total GULP energy -111470.404265 kJ/mol
# GULP energy per Si atom -5573.520213 kJ/mol
# Density = 2.459724 g / cm^3
# Si number density = 24.653357 Si / 1000 Ang^3
#
#
#
# Elastic Constant Matrix: (Units=GPa)
#
#
# Indices 1 2 3 4 5 6 
#
# 1 67.4396 3.7058 1.3463 0.0000 -7.7584 0.0000
# 2 3.7058 50.3766 11.8487 0.0000 -5.4100 0.0000
# 3 1.3463 11.8487 89.7934 -0.0001 17.3566 0.0000
# 4 0.0000 0.0000 -0.0001 12.5984 0.0000 -16.6666
# 5 -7.7584 -5.4100 17.3566 0.0000 29.5574 0.0000
# 6 0.0000 0.0000 0.0000 -16.6666 0.0000 30.8447
#
#
#
# Elastic Compliance Matrix: (Units=1/GPa)
#
#
# Indices 1 2 3 4 5 6 
#
# 1 0.015400 -0.000388 -0.001069 0.000000 0.004599 0.000000
# 2 -0.000388 0.021492 -0.004028 0.000000 0.006197 0.000000
# 3 -0.001069 -0.004028 0.013402 0.000000 -0.008888 0.000000
# 4 0.000000 0.000000 0.000000 0.278332 0.000000 0.150394
# 5 0.004599 0.006197 -0.008888 0.000000 0.041393 0.000000
# 6 0.000000 0.000000 0.000000 0.150394 0.000000 0.113684
#
#
# Mechanical properties :
#
#
# Convention : Reuss Voigt Hill
#
# Bulk Modulus (GPa) = 25.42899 26.82346 26.12622
# Shear Modulus (GPa) = 9.84677 27.31404 18.58040
#
# Velocity S-wave (km/s) = 2.00069 3.33216 2.74828
# Velocity P-wave (km/s) = 3.95904 5.07033 4.54875
#
# Compressibility (1/GPa) = 0.03932520
#
# Stress axis : x y z
#
# Youngs Moduli (GPa) = 64.93601 46.52902 74.61470
#
# Poissons Ratio (x) = 0.01803 0.07974
# Poissons Ratio (y) = 0.02517 0.30055
# Poissons Ratio (z) = 0.06940 0.18742
#
# Static dielectric constant tensor:
#      x y z
#    x 2.138980 0.000000 -0.469560 
#    y 0.000000 2.054940 0.000000 
#    z -0.469560 0.000000 3.861010 
# 
# From -- ./inp_files/230963.got.cif
#   From: 2010.05.17/outbox.cif.g08.bks.cpg/sg15_116_cif.got.tgz:230963.got - 2010.06.03 18:47:42.
