data_PCOD9286035
_publ_section_title
;
Structure prediction by ZEFSAII (Michael W. Deem and Ramdas Pophale) SiO2 
 PCOD9286035
Probable space group: C 2/C
;
_chemical_formula_sum "Si O2"
_cell_formula_units_Z 56
_cell_length_a 23.654100
_cell_length_b 9.619612
_cell_length_c 9.767456
_cell_angle_alpha 90.000000
_cell_angle_beta 76.575347
_cell_angle_gamma 90.000000
_cell_volume 2161.790878
_symmetry_space_group_name_H-M "C 2/C"
_symmetry_group_IT_number 15
_symmetry_cell_setting 'monoclinic'
loop_
_space_group_symop_operation_xyz
x,y,z
-x,y,1/2-z
-x,-y,-z
x,-y,1/2+z
1/2+x,1/2+y,z
1/2-x,1/2+y,1/2-z
1/2-x,1/2-y,-z
1/2+x,1/2-y,1/2+z
loop_
_atom_site_type_symbol
_atom_site_label
_atom_site_fract_x
_atom_site_fract_y
_atom_site_fract_z
Si Si1 0.696886 0.252592 0.923837
Si Si2 0.586196 0.671873 0.826966
Si Si3 0.409306 0.768262 0.285881
Si Si4 0.817946 0.490640 0.412007
Si Si5 0.613309 0.508572 0.553692
Si Si6 0.712468 0.179444 0.316989
Si Si7 0.501010 0.836185 0.472758
O O1 0.729333 0.238871 0.759986
O O2 0.750000 0.250000 0.000000
O O3 0.662248 0.118527 0.999248
O O4 0.665469 0.399277 0.963581
O O5 0.584409 0.612114 0.676992
O O6 0.650767 0.738538 0.826343
O O7 0.579345 0.549585 0.942604
O O8 0.532954 0.773362 0.880305
O O9 0.376585 0.628116 0.354816
O O10 0.457890 0.793541 0.373476
O O11 0.438662 0.772865 0.119350
O O12 0.370649 0.903445 0.323982
O O13 0.788441 0.558344 0.296667
O O14 0.784467 0.389216 0.535933
O O15 0.500000 0.000000 0.500000
#
# Coordination Sequence:
#
# PCOD9286035 Si02
#       7
#     8   8   8   8   8   8   8
#     4  10  23  41  67  94 140 182 226 273 346 405
#     4  11  23  45  66 102 142 176 224 289 343 408
#     4  10  23  40  67 100 127 171 228 282 335 404
#     4  11  22  42  70  96 134 178 232 280 334 407
#     4  11  23  43  69  95 144 177 222 286 348 401
#     4  11  23  42  65  98 139 174 229 285 332 402
#     4  10  21  42  70  91 133 173 221 282 342 406
#
# _framework density 25.904447999999999
#
# number of rings (size 3 to 8) (size 9 to 14) (size 15 to 20)
#    0.000    1.429    5.714    0.857    2.000    1.714 
#    0.000    3.571    0.000    0.000    0.000    0.000 
#    0.000    0.000    0.000    0.000    0.000    0.000 
#
# Total GULP energy -156517.553969 kJ/mol
# GULP energy per Si atom -5589.912642 kJ/mol
# Density = 2.584549 g / cm^3
# Si number density = 25.904448 Si / 1000 Ang^3
#
#
#
# Elastic Constant Matrix: (Units=GPa)
#
#
# Indices 1 2 3 4 5 6 
#
# 1 59.3381 43.0816 36.3549 0.0000 -4.7372 0.0000
# 2 43.0816 157.9191 60.4705 0.0000 -35.0581 0.0000
# 3 36.3549 60.4705 188.4787 0.0000 -22.6804 0.0000
# 4 0.0000 0.0000 0.0000 59.2928 0.0000 -4.8743
# 5 -4.7372 -35.0581 -22.6804 0.0000 46.5616 0.0000
# 6 0.0000 0.0000 0.0000 -4.8743 0.0000 39.0933
#
#
#
# Elastic Compliance Matrix: (Units=1/GPa)
#
#
# Indices 1 2 3 4 5 6 
#
# 1 0.022585 -0.005826 -0.002909 0.000000 -0.003506 0.000000
# 2 -0.005826 0.009773 -0.001272 0.000000 0.006146 0.000000
# 3 -0.002909 -0.001272 0.006505 0.000000 0.001915 0.000000
# 4 0.000000 0.000000 0.000000 0.017040 0.000000 0.002125
# 5 -0.003506 0.006146 0.001915 0.000000 0.026681 0.000000
# 6 0.000000 0.000000 0.000000 0.002125 0.000000 0.025845
#
#
# Mechanical properties :
#
#
# Convention : Reuss Voigt Hill
#
# Bulk Modulus (GPa) = 53.05212 76.17220 64.61216
# Shear Modulus (GPa) = 37.11241 46.71146 41.91193
#
# Velocity S-wave (km/s) = 3.78916 4.25104 4.02673
# Velocity P-wave (km/s) = 6.29826 7.31875 6.82760
#
# Compressibility (1/GPa) = 0.01884939
#
# Stress axis : x y z
#
# Youngs Moduli (GPa) = 44.27801 102.31974 153.71887
#
# Poissons Ratio (x) = 0.59607 0.44717
# Poissons Ratio (y) = 0.25794 0.19558
# Poissons Ratio (z) = 0.12881 0.13019
#
# Static dielectric constant tensor:
#      x y z
#    x 4.616380 0.000000 1.185820 
#    y 0.000000 2.100210 0.000000 
#    z 1.185820 0.000000 2.689840 
# 
# From -- ./inp_files/125832.got.cif
#   From: 2010.05.17/outbox.cif.g08.bks.cpg/sg15_63_cif.got.tgz:125832.got - 2010.06.03 18:47:42.
