data_PCOD9286580
_publ_section_title
;
Structure prediction by ZEFSAII (Michael W. Deem and Ramdas Pophale) SiO2 
 PCOD9286580
Probable space group: C 2/C
;
_chemical_formula_sum "Si O2"
_cell_formula_units_Z 40
_cell_length_a 26.015386
_cell_length_b 7.864732
_cell_length_c 17.549254
_cell_angle_alpha 90.000000
_cell_angle_beta 26.658614
_cell_angle_gamma 90.000000
_cell_volume 1611.029002
_symmetry_space_group_name_H-M "C 2/C"
_symmetry_group_IT_number 15
_symmetry_cell_setting 'monoclinic'
loop_
_space_group_symop_operation_xyz
x,y,z
-x,y,1/2-z
-x,-y,-z
x,-y,1/2+z
1/2+x,1/2+y,z
1/2-x,1/2+y,1/2-z
1/2-x,1/2-y,-z
1/2+x,1/2-y,1/2+z
loop_
_atom_site_type_symbol
_atom_site_label
_atom_site_fract_x
_atom_site_fract_y
_atom_site_fract_z
Si Si1 0.574579 0.719854 0.956290
Si Si2 0.572153 0.585047 0.224203
Si Si3 0.502456 0.778362 0.613708
Si Si4 0.715482 0.987855 0.353803
Si Si5 0.203536 0.556490 0.048529
O O1 0.541092 0.767161 0.915052
O O2 0.652344 0.860423 0.894381
O O3 0.655927 0.553555 0.843074
O O4 0.461987 0.685825 0.155012
O O5 0.500000 0.656323 0.250000
O O6 0.525584 0.394852 0.304569
O O7 0.705822 0.563566 0.028592
O O8 0.426520 0.928128 0.752753
O O9 0.634125 0.826388 0.444401
O O10 0.714295 0.998076 0.446775
O O11 0.250000 0.750000 0.000000
#
# Coordination Sequence:
#
# PCOD9286580 Si02
#       5
#     8   8   8   8   8
#     4  12  27  43  70 106 140 188 234 297 353 410
#     4  11  24  43  71 101 141 184 235 289 355 415
#     4  11  23  45  74 100 136 188 242 281 354 431
#     4  12  25  43  70 102 144 178 241 292 353 420
#     4  10  21  43  72  99 130 189 234 281 347 430
#
# _framework density 24.828849999999999
#
# number of rings (size 3 to 8) (size 9 to 14) (size 15 to 20)
#    0.000    0.800    4.000    5.400    5.600    1.600 
#    0.000    2.000    0.000    0.000    0.000    0.000 
#    0.000    0.000    0.000    0.000    0.000    0.000 
#
# Total GULP energy -112046.981489 kJ/mol
# GULP energy per Si atom -5602.349074 kJ/mol
# Density = 2.477234 g / cm^3
# Si number density = 24.828850 Si / 1000 Ang^3
#
#
#
# Elastic Constant Matrix: (Units=GPa)
#
#
# Indices 1 2 3 4 5 6 
#
# 1 111.2036 -0.2558 -21.1128 -0.0009 6.2079 0.0006
# 2 -0.2558 56.5501 -2.5086 -0.0015 5.8305 0.0008
# 3 -21.1128 -2.5086 85.6653 -0.0026 -0.2669 0.0009
# 4 -0.0009 -0.0015 -0.0026 22.1456 0.0003 2.2431
# 5 6.2079 5.8305 -0.2669 0.0003 34.8013 0.0000
# 6 0.0006 0.0008 0.0009 2.2431 0.0000 17.2686
#
#
#
# Elastic Compliance Matrix: (Units=1/GPa)
#
#
# Indices 1 2 3 4 5 6 
#
# 1 0.009537 0.000327 0.002355 0.000001 -0.001738 -0.000001
# 2 0.000327 0.018028 0.000599 0.000001 -0.003074 -0.000001
# 3 0.002355 0.000599 0.012270 0.000002 -0.000426 -0.000001
# 4 0.000001 0.000001 0.000002 0.045758 -0.000001 -0.005944
# 5 -0.001738 -0.003074 -0.000426 -0.000001 0.029556 0.000000
# 6 -0.000001 -0.000001 -0.000001 -0.005944 0.000000 0.058681
#
#
# Mechanical properties :
#
#
# Convention : Reuss Voigt Hill
#
# Bulk Modulus (GPa) = 21.55336 22.85161 22.20248
# Shear Modulus (GPa) = 27.36203 33.32953 30.34578
#
# Velocity S-wave (km/s) = 3.32328 3.66781 3.49979
# Velocity P-wave (km/s) = 4.83996 5.21160 5.02921
#
# Compressibility (1/GPa) = 0.04639647
#
# Stress axis : x y z
#
# Youngs Moduli (GPa) = 104.85093 55.46795 81.50042
#
# Poissons Ratio (x) = -0.01813 -0.19191
# Poissons Ratio (y) = -0.03426 -0.04881
# Poissons Ratio (z) = -0.24689 -0.03322
#
# Static dielectric constant tensor:
#      x y z
#    x 1.904320 0.000000 -0.001630 
#    y 0.000000 2.017180 0.000000 
#    z -0.001630 0.000000 1.940070 
# 
# From -- ./inp_files/213681.got.cif
#   From: 2010.05.17/outbox.cif.g08.bks.cpg/sg15_107_cif.got.tgz:213681.got - 2010.06.03 18:47:42.
