data_PCOD9286654
_publ_section_title
;
Structure prediction by ZEFSAII (Michael W. Deem and Ramdas Pophale) SiO2 
 PCOD9286654
Probable space group: C 2/C
;
_chemical_formula_sum "Si O2"
_cell_formula_units_Z 48
_cell_length_a 13.965313
_cell_length_b 11.407239
_cell_length_c 21.813545
_cell_angle_alpha 90.000000
_cell_angle_beta 141.502778
_cell_angle_gamma 90.000000
_cell_volume 2163.119729
_symmetry_space_group_name_H-M "C 2/C"
_symmetry_group_IT_number 15
_symmetry_cell_setting 'monoclinic'
loop_
_space_group_symop_operation_xyz
x,y,z
-x,y,1/2-z
-x,-y,-z
x,-y,1/2+z
1/2+x,1/2+y,z
1/2-x,1/2+y,1/2-z
1/2-x,1/2-y,-z
1/2+x,1/2-y,1/2+z
loop_
_atom_site_type_symbol
_atom_site_label
_atom_site_fract_x
_atom_site_fract_y
_atom_site_fract_z
Si Si1 0.154735 0.754747 0.015779
Si Si2 0.348942 0.854299 0.469454
Si Si3 0.179050 0.472941 0.344736
Si Si4 0.120038 0.910223 0.658537
Si Si5 0.137628 0.109726 0.972269
Si Si6 0.328206 0.055950 0.375763
O O1 0.228012 0.853543 0.096759
O O2 0.169833 0.634890 0.061424
O O3 0.250000 0.750000 0.000000
O O4 0.982838 0.798062 0.911762
O O5 0.196956 0.857474 0.435040
O O6 0.402189 0.720454 0.505303
O O7 0.501744 0.925062 0.566743
O O8 0.307186 0.921022 0.385706
O O9 0.251337 0.548149 0.325510
O O10 0.216295 0.548781 0.423302
O O11 0.000000 0.449984 0.250000
O O12 0.200887 0.900798 0.764693
O O13 0.998085 0.016832 0.598117
#
# Coordination Sequence:
#
# PCOD9286654 Si02
#       6
#     8   8   8   8   8   8
#     4  11  25  43  70 100 139 177 228 294 343 412
#     4  10  22  42  66  93 134 169 221 283 326 409
#     4  11  23  42  66  98 131 178 230 276 346 415
#     4  11  24  43  70  96 140 181 226 283 349 409
#     4  10  21  44  64  92 132 174 221 274 340 400
#     4  11  23  43  67 102 134 176 227 280 343 405
#
# _framework density 22.190173000000001
#
# number of rings (size 3 to 8) (size 9 to 14) (size 15 to 20)
#    0.000    1.333    0.000    7.000    2.333    3.333 
#   18.000    0.000    0.000    0.000    0.000    0.000 
#    0.000    0.000    0.000    0.000    0.000    0.000 
#
# Total GULP energy -134037.178610 kJ/mol
# GULP energy per Si atom -5584.882442 kJ/mol
# Density = 2.213967 g / cm^3
# Si number density = 22.190173 Si / 1000 Ang^3
#
#
#
# Elastic Constant Matrix: (Units=GPa)
#
#
# Indices 1 2 3 4 5 6 
#
# 1 112.6362 23.4875 32.1843 0.0000 -3.1287 0.0000
# 2 23.4875 94.8953 28.0569 0.0000 -8.7577 0.0000
# 3 32.1843 28.0569 142.3725 0.0000 6.5269 0.0000
# 4 0.0000 0.0000 0.0000 16.4845 0.0000 -4.5882
# 5 -3.1287 -8.7577 6.5269 0.0000 25.0569 0.0000
# 6 0.0000 0.0000 0.0000 -4.5882 0.0000 30.3206
#
#
#
# Elastic Compliance Matrix: (Units=1/GPa)
#
#
# Indices 1 2 3 4 5 6 
#
# 1 0.009826 -0.001760 -0.001925 0.000000 0.001113 0.000000
# 2 -0.001760 0.012040 -0.002184 0.000000 0.004557 0.000000
# 3 -0.001925 -0.002184 0.008031 0.000000 -0.003096 0.000000
# 4 0.000000 0.000000 0.000000 0.063331 0.000000 0.009583
# 5 0.001113 0.004557 -0.003096 0.000000 0.042447 0.000000
# 6 0.000000 0.000000 0.000000 0.009583 0.000000 0.034431
#
#
# Mechanical properties :
#
#
# Convention : Reuss Voigt Hill
#
# Bulk Modulus (GPa) = 55.06933 57.48459 56.27696
# Shear Modulus (GPa) = 26.61022 32.11740 29.36381
#
# Velocity S-wave (km/s) = 3.46669 3.80856 3.64164
# Velocity P-wave (km/s) = 6.39490 6.73066 6.56493
#
# Compressibility (1/GPa) = 0.01815893
#
# Stress axis : x y z
#
# Youngs Moduli (GPa) = 101.76803 83.05818 124.51215
#
# Poissons Ratio (x) = 0.14619 0.23975
# Poissons Ratio (y) = 0.17912 0.27189
# Poissons Ratio (z) = 0.19595 0.18137
#
# Static dielectric constant tensor:
#      x y z
#    x 1.855020 0.000000 -0.022490 
#    y 0.000000 1.872580 0.000000 
#    z -0.022490 0.000000 1.776820 
# 
# From -- ./inp_files/243971.got.cif
#   From: 2010.05.17/outbox.cif.g08.bks.cpg/sg15_122_cif.got.tgz:243971.got - 2010.06.03 18:47:42.
