data_PCOD9286667
_publ_section_title
;
Structure prediction by ZEFSAII (Michael W. Deem and Ramdas Pophale) SiO2 
 PCOD9286667
Probable space group: C 2/C
;
_chemical_formula_sum "Si O2"
_cell_formula_units_Z 40
_cell_length_a 5.115723
_cell_length_b 12.816884
_cell_length_c 23.444785
_cell_angle_alpha 90.000000
_cell_angle_beta 72.741597
_cell_angle_gamma 90.000000
_cell_volume 1468.007883
_symmetry_space_group_name_H-M "C 2/C"
_symmetry_group_IT_number 15
_symmetry_cell_setting 'monoclinic'
loop_
_space_group_symop_operation_xyz
x,y,z
-x,y,1/2-z
-x,-y,-z
x,-y,1/2+z
1/2+x,1/2+y,z
1/2-x,1/2+y,1/2-z
1/2-x,1/2-y,-z
1/2+x,1/2-y,1/2+z
loop_
_atom_site_type_symbol
_atom_site_label
_atom_site_fract_x
_atom_site_fract_y
_atom_site_fract_z
Si Si1 0.161470 0.211925 0.116691
Si Si2 0.185114 0.429565 0.554083
Si Si3 0.000000 0.519007 0.250000
Si Si4 0.404950 0.139093 0.558206
Si Si5 0.000000 0.148833 0.250000
Si Si6 0.902110 0.066072 0.634232
O O1 0.406122 0.130068 0.090802
O O2 0.303895 0.324346 0.115984
O O3 0.986322 0.245036 0.071710
O O4 0.992763 0.197416 0.186560
O O5 0.258515 0.371061 0.490516
O O6 0.363252 0.461944 0.598132
O O7 0.134056 0.550176 0.536044
O O8 0.789528 0.588604 0.227496
O O9 0.786994 0.452254 0.299714
O O10 0.221279 0.089697 0.621034
#
# Coordination Sequence:
#
# PCOD9286667 Si02
#       6
#     8   8   4   8   4   8
#     4  11  24  42  67 105 141 190 254 308 380 457
#     4  10  21  44  65 104 142 192 240 305 386 452
#     4  12  27  48  75 100 146 198 250 315 385 460
#     4  10  23  40  72  99 146 188 244 311 373 463
#     4  12  27  48  75 102 144 200 250 317 383 462
#     4  11  24  42  67 103 141 192 249 311 381 457
#
# _framework density 27.247810999999999
#
# number of rings (size 3 to 8) (size 9 to 14) (size 15 to 20)
#    0.000    1.200    2.000    3.000    5.600    2.400 
#    0.000    0.000    0.000    0.000    0.000    0.000 
#    0.000    0.000    0.000    0.000    0.000    0.000 
#
# Total GULP energy -111672.205890 kJ/mol
# GULP energy per Si atom -5583.610294 kJ/mol
# Density = 2.718579 g / cm^3
# Si number density = 27.247811 Si / 1000 Ang^3
#
#
#
# Elastic Constant Matrix: (Units=GPa)
#
#
# Indices 1 2 3 4 5 6 
#
# 1 68.8188 -0.6700 13.6051 0.0000 0.4371 0.0000
# 2 -0.6700 114.2140 23.0008 0.0000 2.8408 0.0000
# 3 13.6051 23.0008 158.8075 0.0000 -16.4678 0.0000
# 4 0.0000 0.0000 0.0000 1.2251 0.0000 1.4093
# 5 0.4371 2.8408 -16.4678 0.0000 39.6432 0.0000
# 6 0.0000 0.0000 0.0000 1.4093 0.0000 38.8368
#
#
#
# Elastic Compliance Matrix: (Units=1/GPa)
#
#
# Indices 1 2 3 4 5 6 
#
# 1 0.014818 0.000389 -0.001406 0.000000 -0.000775 0.000000
# 2 0.000389 0.009088 -0.001481 0.000000 -0.001271 0.000000
# 3 -0.001406 -0.001481 0.006944 0.000000 0.003006 0.000000
# 4 0.000000 0.000000 0.000000 0.851854 0.000000 -0.030912
# 5 -0.000775 -0.001271 0.003006 0.000000 0.026573 0.000000
# 6 0.000000 0.000000 0.000000 -0.030912 0.000000 0.026871
#
#
# Mechanical properties :
#
#
# Convention : Reuss Voigt Hill
#
# Bulk Modulus (GPa) = 38.68077 45.96801 42.32439
# Shear Modulus (GPa) = 5.26448 36.33464 20.79956
#
# Velocity S-wave (km/s) = 1.39150 3.65566 2.76587
# Velocity P-wave (km/s) = 4.09981 5.89283 5.07611
#
# Compressibility (1/GPa) = 0.02585264
#
# Stress axis : x y z
#
# Youngs Moduli (GPa) = 67.48716 110.03870 144.01598
#
# Poissons Ratio (x) = -0.04285 0.20252
# Poissons Ratio (y) = -0.02628 0.21334
# Poissons Ratio (z) = 0.09490 0.16301
#
# Static dielectric constant tensor:
#      x y z
#    x 2.487700 0.000000 0.091340 
#    y 0.000000 2.124820 0.000000 
#    z 0.091340 0.000000 2.192750 
# 
# From -- ./inp_files/260312.got.cif
#   From: 2010.05.17/outbox.cif.g08.bks.cpg/sg15_131_cif.got.tgz:260312.got - 2010.06.03 18:47:42.
