data_PCOD9286970
_publ_section_title
;
Structure prediction by ZEFSAII (Michael W. Deem and Ramdas Pophale) SiO2 
 PCOD9286970
Probable space group: C 2/C
;
_chemical_formula_sum "Si O2"
_cell_formula_units_Z 40
_cell_length_a 13.591289
_cell_length_b 6.261308
_cell_length_c 18.742004
_cell_angle_alpha 90.000000
_cell_angle_beta 104.980654
_cell_angle_gamma 90.000000
_cell_volume 1540.723777
_symmetry_space_group_name_H-M "C 2/C"
_symmetry_group_IT_number 15
_symmetry_cell_setting 'monoclinic'
loop_
_space_group_symop_operation_xyz
x,y,z
-x,y,1/2-z
-x,-y,-z
x,-y,1/2+z
1/2+x,1/2+y,z
1/2-x,1/2+y,1/2-z
1/2-x,1/2-y,-z
1/2+x,1/2-y,1/2+z
loop_
_atom_site_type_symbol
_atom_site_label
_atom_site_fract_x
_atom_site_fract_y
_atom_site_fract_z
Si Si1 0.324734 0.720692 0.848082
Si Si2 0.854021 0.214437 0.603763
Si Si3 0.006767 0.903256 0.580752
Si Si4 0.109988 0.525354 0.766877
Si Si5 0.365367 0.066267 0.953846
O O1 0.401172 0.520325 0.859942
O O2 0.209055 0.658894 0.809237
O O3 0.360201 0.905739 0.800509
O O4 0.342754 0.823236 0.929825
O O5 0.904848 0.984688 0.599092
O O6 0.902670 0.334844 0.678463
O O7 0.734732 0.188056 0.594015
O O8 0.868026 0.359445 0.535986
O O9 0.000000 0.000000 0.500000
O O10 0.037761 0.661258 0.570051
O O11 0.000000 0.641091 0.750000
#
# Coordination Sequence:
#
# PCOD9286970 Si02
#       5
#     8   8   8   8   8
#     4  12  26  47  70 100 148 189 244 299 364 438
#     4  10  21  45  69 103 140 179 240 293 363 430
#     4  10  22  43  72 103 135 178 233 297 363 427
#     4  12  26  47  69 106 145 200 242 295 367 439
#     4  10  23  44  71 102 138 182 233 307 357 425
#
# _framework density 25.961822000000002
#
# number of rings (size 3 to 8) (size 9 to 14) (size 15 to 20)
#    0.000    1.200    4.000    1.200    0.000    5.600 
#    0.000    0.000    0.000    0.000    0.000    0.000 
#    0.000    0.000    0.000    0.000    0.000    0.000 
#
# Total GULP energy -112001.457018 kJ/mol
# GULP energy per Si atom -5600.072851 kJ/mol
# Density = 2.590273 g / cm^3
# Si number density = 25.961822 Si / 1000 Ang^3
#
#
#
# Elastic Constant Matrix: (Units=GPa)
#
#
# Indices 1 2 3 4 5 6 
#
# 1 151.3278 33.2424 27.4390 0.0000 23.3605 0.0000
# 2 33.2424 39.6038 12.5706 0.0000 -4.0337 0.0000
# 3 27.4390 12.5706 80.9159 0.0000 6.3797 0.0000
# 4 0.0000 0.0000 0.0000 41.6934 0.0000 16.8975
# 5 23.3605 -4.0337 6.3797 0.0000 38.8560 0.0000
# 6 0.0000 0.0000 0.0000 16.8975 0.0000 52.2335
#
#
#
# Elastic Compliance Matrix: (Units=1/GPa)
#
#
# Indices 1 2 3 4 5 6 
#
# 1 0.009704 -0.008331 -0.001488 0.000000 -0.006455 0.000000
# 2 -0.008331 0.034184 -0.003202 0.000000 0.009083 0.000000
# 3 -0.001488 -0.003202 0.013491 0.000000 -0.001653 0.000000
# 4 0.000000 0.000000 0.000000 0.027604 0.000000 -0.008930
# 5 -0.006455 0.009083 -0.001653 0.000000 0.030831 0.000000
# 6 0.000000 0.000000 0.000000 -0.008930 0.000000 0.022034
#
#
# Mechanical properties :
#
#
# Convention : Reuss Voigt Hill
#
# Bulk Modulus (GPa) = 31.90933 46.48351 39.19642
# Shear Modulus (GPa) = 28.68048 39.79629 34.23838
#
# Velocity S-wave (km/s) = 3.32733 3.91945 3.63546
# Velocity P-wave (km/s) = 5.20376 6.19888 5.72299
#
# Compressibility (1/GPa) = 0.03133880
#
# Stress axis : x y z
#
# Youngs Moduli (GPa) = 103.04577 29.25325 74.12509
#
# Poissons Ratio (x) = 0.24371 0.11027
# Poissons Ratio (y) = 0.85846 0.23733
# Poissons Ratio (z) = 0.15330 0.09366
#
# Static dielectric constant tensor:
#      x y z
#    x 2.000660 0.000000 0.021210 
#    y 0.000000 2.051610 0.000000 
#    z 0.021210 0.000000 2.017970 
# 
# From -- ./inp_files/271959.got.cif
#   From: 2010.05.17/outbox.cif.g08.bks.cpg/sg15_136_cif.got.tgz:271959.got - 2010.06.03 18:47:42.
