data_PCOD9286554
_publ_section_title
;
Structure prediction by ZEFSAII (Michael W. Deem and Ramdas Pophale) SiO2 
 PCOD9286554
Probable space group: C 2/C
;
_chemical_formula_sum "Si O2"
_cell_formula_units_Z 40
_cell_length_a 21.044069
_cell_length_b 12.155318
_cell_length_c 12.953039
_cell_angle_alpha 90.000000
_cell_angle_beta 149.447213
_cell_angle_gamma 90.000000
_cell_volume 1684.283296
_symmetry_space_group_name_H-M "C 2/C"
_symmetry_group_IT_number 15
_symmetry_cell_setting 'monoclinic'
loop_
_space_group_symop_operation_xyz
x,y,z
-x,y,1/2-z
-x,-y,-z
x,-y,1/2+z
1/2+x,1/2+y,z
1/2-x,1/2+y,1/2-z
1/2-x,1/2-y,-z
1/2+x,1/2-y,1/2+z
loop_
_atom_site_type_symbol
_atom_site_label
_atom_site_fract_x
_atom_site_fract_y
_atom_site_fract_z
Si Si1 0.863408 0.252686 0.012068
Si Si2 0.199254 0.554333 0.789064
Si Si3 0.964837 0.614948 0.318290
Si Si4 0.415813 0.330389 0.355513
Si Si5 0.183775 0.945549 0.739205
O O1 0.000000 0.253029 0.250000
O O2 0.779798 0.155661 0.943672
O O3 0.873574 0.224593 0.904239
O O4 0.797513 0.369325 0.930570
O O5 0.090133 0.604034 0.563204
O O6 0.289282 0.483322 0.840737
O O7 0.129139 0.476376 0.770323
O O8 0.000000 0.597718 0.250000
O O9 0.911729 0.737037 0.263748
O O10 0.557040 0.375146 0.566668
O O11 0.335751 0.440723 0.226746
#
# Coordination Sequence:
#
# PCOD9286554 Si02
#       5
#     8   8   8   8   8
#     4  11  23  42  75 107 148 198 241 300 368 438
#     4  10  23  45  69 110 151 183 252 308 358 441
#     4  11  23  44  78 106 143 195 246 305 374 431
#     4  10  22  44  70 107 144 187 246 309 355 438
#     4  10  21  43  71  98 153 187 234 313 360 416
#
# _framework density 23.748974
#
# number of rings (size 3 to 8) (size 9 to 14) (size 15 to 20)
#    0.000    1.600    4.000    0.000    0.000    3.200 
#    0.000   18.000    0.000    2.400    0.000    0.000 
#    0.000    0.000    0.000    0.000    0.000    0.000 
#
# Total GULP energy -112166.651141 kJ/mol
# GULP energy per Si atom -5608.332557 kJ/mol
# Density = 2.369492 g / cm^3
# Si number density = 23.748974 Si / 1000 Ang^3
#
#
#
# Elastic Constant Matrix: (Units=GPa)
#
#
# Indices 1 2 3 4 5 6 
#
# 1 131.3637 78.4727 22.9093 0.0000 10.3457 0.0000
# 2 78.4727 198.7969 76.4817 0.0000 13.8841 0.0000
# 3 22.9093 76.4817 125.9893 0.0000 19.8250 0.0000
# 4 0.0000 0.0000 0.0000 34.7254 0.0000 22.7532
# 5 10.3457 13.8841 19.8250 0.0000 25.3688 0.0000
# 6 0.0000 0.0000 0.0000 22.7532 0.0000 45.3620
#
#
#
# Elastic Compliance Matrix: (Units=1/GPa)
#
#
# Indices 1 2 3 4 5 6 
#
# 1 0.010179 -0.004280 0.001177 0.000000 -0.002728 0.000000
# 2 -0.004280 0.008369 -0.004397 0.000000 0.000601 0.000000
# 3 0.001177 -0.004397 0.011504 0.000000 -0.007063 0.000000
# 4 0.000000 0.000000 0.000000 0.042895 0.000000 -0.021516
# 5 -0.002728 0.000601 -0.007063 0.000000 0.045722 0.000000
# 6 0.000000 0.000000 0.000000 -0.021516 0.000000 0.032837
#
#
# Mechanical properties :
#
#
# Convention : Reuss Voigt Hill
#
# Bulk Modulus (GPa) = 66.43948 90.20858 78.32403
# Shear Modulus (GPa) = 29.15036 39.64365 34.39701
#
# Velocity S-wave (km/s) = 3.50728 4.09011 3.80986
# Velocity P-wave (km/s) = 6.66617 7.76994 7.23912
#
# Compressibility (1/GPa) = 0.01505129
#
# Stress axis : x y z
#
# Youngs Moduli (GPa) = 98.24202 119.48243 86.92754
#
# Poissons Ratio (x) = 0.51140 -0.10228
# Poissons Ratio (y) = 0.42049 0.38222
# Poissons Ratio (z) = -0.11560 0.52536
#
# Static dielectric constant tensor:
#      x y z
#    x 1.888580 0.000000 0.000130 
#    y 0.000000 1.884550 0.000000 
#    z 0.000130 0.000000 1.888610 
# 
# From -- ./inp_files/173231.got.cif
#   From: 2010.05.17/outbox.cif.g08.bks.cpg/sg15_87_cif.got.tgz:173231.got - 2010.06.03 18:47:42.
