data_PCOD9286908
_publ_section_title
;
Structure prediction by ZEFSAII (Michael W. Deem and Ramdas Pophale) SiO2 
 PCOD9286908
Probable space group: C 2/C
;
_chemical_formula_sum "Si O2"
_cell_formula_units_Z 32
_cell_length_a 24.893866
_cell_length_b 5.133239
_cell_length_c 22.276356
_cell_angle_alpha 90.000000
_cell_angle_beta 157.834803
_cell_angle_gamma 90.000000
_cell_volume 1073.964263
_symmetry_space_group_name_H-M "C 2/C"
_symmetry_group_IT_number 15
_symmetry_cell_setting 'monoclinic'
loop_
_space_group_symop_operation_xyz
x,y,z
-x,y,1/2-z
-x,-y,-z
x,-y,1/2+z
1/2+x,1/2+y,z
1/2-x,1/2+y,1/2-z
1/2-x,1/2-y,-z
1/2+x,1/2-y,1/2+z
loop_
_atom_site_type_symbol
_atom_site_label
_atom_site_fract_x
_atom_site_fract_y
_atom_site_fract_z
Si Si1 0.380099 0.601784 0.018306
Si Si2 0.401179 0.218178 0.279649
Si Si3 0.348690 0.227436 0.356276
Si Si4 0.793155 0.494070 0.003640
O O1 0.213438 0.515448 0.845797
O O2 0.418328 0.702181 0.991573
O O3 0.425948 0.834300 0.110248
O O4 0.461207 0.328177 0.114203
O O5 0.440815 0.211342 0.391011
O O6 0.298604 0.452829 0.151082
O O7 0.241788 0.465849 0.232714
O O8 0.750000 0.750000 0.000000
O O9 0.750000 0.250000 0.000000
#
# Coordination Sequence:
#
# PCOD9286908 Si02
#       4
#     8   8   8   8
#     4  11  25  49  80 121 157 209 269 330 409 481
#     4  11  25  49  78 117 161 207 267 332 403 476
#     4  10  21  44  75 115 159 206 256 330 399 478
#     4  12  26  52  73 107 155 216 271 326 386 472
#
# _framework density 29.796150999999998
#
# number of rings (size 3 to 8) (size 9 to 14) (size 15 to 20)
#    0.000    1.000    5.000    0.750    0.000    3.000 
#    4.500    6.250    0.000    0.000    0.000    0.000 
#    0.000    0.000    0.000    0.000    0.000    0.000 
#
# Total GULP energy -89187.340208 kJ/mol
# GULP energy per Si atom -5574.208763 kJ/mol
# Density = 2.972833 g / cm^3
# Si number density = 29.796151 Si / 1000 Ang^3
#
#
#
# Elastic Constant Matrix: (Units=GPa)
#
#
# Indices 1 2 3 4 5 6 
#
# 1 118.4176 61.8151 26.1833 -0.0001 -30.7387 0.0000
# 2 61.8151 302.1350 47.2918 0.0004 13.5989 -0.0002
# 3 26.1833 47.2918 101.7233 0.0000 19.0644 0.0000
# 4 -0.0001 0.0004 0.0000 29.2141 0.0000 15.6139
# 5 -30.7387 13.5989 19.0644 0.0000 55.0268 -0.0001
# 6 0.0000 -0.0002 0.0000 15.6139 -0.0001 57.0619
#
#
#
# Elastic Compliance Matrix: (Units=1/GPa)
#
#
# Indices 1 2 3 4 5 6 
#
# 1 0.012992 -0.002458 -0.003931 0.000000 0.009227 0.000000
# 2 -0.002458 0.004040 -0.000857 0.000000 -0.002075 0.000000
# 3 -0.003931 -0.000857 0.012419 0.000000 -0.006286 0.000000
# 4 0.000000 0.000000 0.000000 0.040094 0.000000 -0.010971
# 5 0.009227 -0.002075 -0.006286 0.000000 0.026018 0.000000
# 6 0.000000 0.000000 0.000000 -0.010971 0.000000 0.020527
#
#
# Mechanical properties :
#
#
# Convention : Reuss Voigt Hill
#
# Bulk Modulus (GPa) = 66.84428 88.09516 77.46972
# Shear Modulus (GPa) = 36.88216 54.05960 45.47088
#
# Velocity S-wave (km/s) = 3.52208 4.26410 3.91073
# Velocity P-wave (km/s) = 6.24681 7.33986 6.81528
#
# Compressibility (1/GPa) = 0.01496014
#
# Stress axis : x y z
#
# Youngs Moduli (GPa) = 76.97026 247.51300 80.52324
#
# Poissons Ratio (x) = 0.60843 0.31650
# Poissons Ratio (y) = 0.18921 0.06899
# Poissons Ratio (z) = 0.30253 0.21205
#
# Static dielectric constant tensor:
#      x y z
#    x 2.961640 0.000000 0.298230 
#    y 0.000000 2.490000 0.000000 
#    z 0.298230 0.000000 2.399840 
# 
# From -- ./inp_files/303978.got.cif
#   From: 2010.05.17/outbox.cif.g08.bks.cpg/sg15_152_cif.got.tgz:303978.got - 2010.06.03 18:47:42.
