data_PCOD9286474
_publ_section_title
;
Structure prediction by ZEFSAII (Michael W. Deem and Ramdas Pophale) SiO2 
 PCOD9286474
Probable space group: C 2/C
;
_chemical_formula_sum "Si O2"
_cell_formula_units_Z 64
_cell_length_a 19.211232
_cell_length_b 17.566536
_cell_length_c 16.285806
_cell_angle_alpha 90.000000
_cell_angle_beta 32.482639
_cell_angle_gamma 90.000000
_cell_volume 2951.620360
_symmetry_space_group_name_H-M "C 2/C"
_symmetry_group_IT_number 15
_symmetry_cell_setting 'monoclinic'
loop_
_space_group_symop_operation_xyz
x,y,z
-x,y,1/2-z
-x,-y,-z
x,-y,1/2+z
1/2+x,1/2+y,z
1/2-x,1/2+y,1/2-z
1/2-x,1/2-y,-z
1/2+x,1/2-y,1/2+z
loop_
_atom_site_type_symbol
_atom_site_label
_atom_site_fract_x
_atom_site_fract_y
_atom_site_fract_z
Si Si1 0.810845 0.547379 0.526573
Si Si2 0.882078 0.949173 0.143193
Si Si3 0.725517 0.822417 0.833594
Si Si4 0.939835 0.181747 0.995209
Si Si5 0.013827 0.644527 0.029137
Si Si6 0.738507 0.849278 0.171755
Si Si7 0.147812 0.385844 0.085755
Si Si8 0.658179 0.676384 0.576762
O O1 0.718032 0.516945 0.692391
O O2 0.929409 0.587909 0.458215
O O3 0.848401 0.476899 0.432132
O O4 0.728077 0.609056 0.557514
O O5 0.816464 0.921424 0.125683
O O6 0.937034 0.872303 0.129990
O O7 0.000000 0.000000 0.000000
O O8 0.868312 0.829027 0.653317
O O9 0.699141 0.731201 0.863596
O O10 0.627607 0.864285 0.868727
O O11 0.704138 0.851075 0.946385
O O12 0.975027 0.269756 0.947606
O O13 0.842091 0.159639 0.020027
O O14 0.107017 0.643834 0.856148
O O15 0.722026 0.856132 0.091662
O O16 0.000000 0.362893 0.250000
O O17 0.500000 0.685368 0.750000
O O18 0.750000 0.750000 0.500000
#
# Coordination Sequence:
#
# PCOD9286474 Si02
#       8
#     8   8   8   8   8   8   8   8
#     4  11  26  44  64  98 139 180 224 275 346 407
#     4  11  23  44  67  99 133 174 225 274 341 403
#     4  11  23  44  72 100 129 176 231 279 352 402
#     4  11  23  40  70 100 129 174 218 280 340 409
#     4  10  21  43  69  97 133 173 228 279 330 409
#     4  10  23  43  71  96 133 176 220 288 337 402
#     4  12  26  46  64 101 141 178 229 283 342 407
#     4  12  26  43  71 102 140 181 227 288 348 415
#
# _framework density 21.683005000000001
#
# number of rings (size 3 to 8) (size 9 to 14) (size 15 to 20)
#    0.000    1.000    5.000    1.125    3.500    2.000 
#    0.000    1.875    0.000    0.000    0.000    0.000 
#    0.000    0.000    0.000    0.000    0.000    0.000 
#
# Total GULP energy -178751.682127 kJ/mol
# GULP energy per Si atom -5585.990066 kJ/mol
# Density = 2.163365 g / cm^3
# Si number density = 21.683005 Si / 1000 Ang^3
#
#
#
# Elastic Constant Matrix: (Units=GPa)
#
#
# Indices 1 2 3 4 5 6 
#
# 1 88.0737 -14.5163 6.1933 0.0003 16.2220 -0.0005
# 2 -14.5163 37.6745 7.3977 0.0002 4.3998 -0.0004
# 3 6.1933 7.3977 47.9097 0.0002 7.6018 -0.0003
# 4 0.0003 0.0002 0.0002 31.6387 -0.0002 -3.9270
# 5 16.2220 4.3998 7.6018 -0.0002 32.1304 0.0003
# 6 -0.0005 -0.0004 -0.0003 -3.9270 0.0003 27.6358
#
#
#
# Elastic Compliance Matrix: (Units=1/GPa)
#
#
# Indices 1 2 3 4 5 6 
#
# 1 0.013943 0.006573 -0.001618 0.000000 -0.007557 0.000000
# 2 0.006573 0.030726 -0.004571 0.000000 -0.006444 0.000001
# 3 -0.001618 -0.004571 0.022400 0.000000 -0.003857 0.000000
# 4 0.000000 0.000000 0.000000 0.032174 0.000000 0.004572
# 5 -0.007557 -0.006444 -0.003857 0.000000 0.036733 -0.000001
# 6 0.000000 0.000001 0.000000 0.004572 -0.000001 0.036835
#
#
# Mechanical properties :
#
#
# Convention : Reuss Voigt Hill
#
# Bulk Modulus (GPa) = 14.74178 19.08969 16.91574
# Shear Modulus (GPa) = 25.68628 29.91987 27.80307
#
# Velocity S-wave (km/s) = 3.44558 3.71870 3.58474
# Velocity P-wave (km/s) = 4.75845 5.22124 4.99521
#
# Compressibility (1/GPa) = 0.06783440
#
# Stress axis : x y z
#
# Youngs Moduli (GPa) = 71.72009 32.54584 44.64366
#
# Poissons Ratio (x) = -0.21391 0.07225
# Poissons Ratio (y) = -0.47139 0.20409
# Poissons Ratio (z) = 0.11606 0.14878
#
# Static dielectric constant tensor:
#      x y z
#    x 1.812530 0.000000 -0.017970 
#    y 0.000000 1.806330 0.000000 
#    z -0.017970 0.000000 1.812990 
# 
# From -- ./inp_files/163263.got.cif
#   From: 2010.05.17/outbox.cif.g08.bks.cpg/sg15_82_cif.got.tgz:163263.got - 2010.06.03 18:47:42.
