data_PCOD9286378
_publ_section_title
;
Structure prediction by ZEFSAII (Michael W. Deem and Ramdas Pophale) SiO2 
 PCOD9286378
Probable space group: C 2/C
;
_chemical_formula_sum "Si O2"
_cell_formula_units_Z 48
_cell_length_a 17.194255
_cell_length_b 7.283077
_cell_length_c 22.368958
_cell_angle_alpha 90.000000
_cell_angle_beta 52.162828
_cell_angle_gamma 90.000000
_cell_volume 2212.267388
_symmetry_space_group_name_H-M "C 2/C"
_symmetry_group_IT_number 15
_symmetry_cell_setting 'monoclinic'
loop_
_space_group_symop_operation_xyz
x,y,z
-x,y,1/2-z
-x,-y,-z
x,-y,1/2+z
1/2+x,1/2+y,z
1/2-x,1/2+y,1/2-z
1/2-x,1/2-y,-z
1/2+x,1/2-y,1/2+z
loop_
_atom_site_type_symbol
_atom_site_label
_atom_site_fract_x
_atom_site_fract_y
_atom_site_fract_z
Si Si1 0.215653 0.957511 0.967794
Si Si2 0.380943 0.276025 0.243213
Si Si3 0.197076 0.493678 0.299162
Si Si4 0.394621 0.277240 0.378026
Si Si5 0.615503 0.711134 0.930134
Si Si6 0.907913 0.200911 0.076879
O O1 0.329111 0.904225 0.921847
O O2 0.167428 0.805450 0.944324
O O3 0.190004 0.146562 0.947206
O O4 0.156882 0.930557 0.056860
O O5 0.309013 0.431664 0.252159
O O6 0.329682 0.080744 0.251811
O O7 0.387394 0.307583 0.310672
O O8 0.489616 0.264837 0.164155
O O9 0.166538 0.649912 0.361220
O O10 0.134814 0.317288 0.348872
O O11 0.583391 0.516773 0.915052
O O12 0.513340 0.777990 0.006931
#
# Coordination Sequence:
#
# PCOD9286378 Si02
#       6
#     8   8   8   8   8   8
#     4   9  18  39  73  89 128 171 220 271 334 393
#     4  11  26  40  67  92 139 177 223 263 335 404
#     4  12  24  40  66  98 132 179 223 276 326 400
#     4  10  21  43  67  95 129 186 208 266 349 398
#     4   9  20  37  69 105 128 162 226 287 329 385
#     4   9  19  39  67 105 130 163 218 284 336 385
#
# _framework density 21.697196999999999
#
# number of rings (size 3 to 8) (size 9 to 14) (size 15 to 20)
#    1.000    1.000    1.667    1.500    4.667    0.000 
#    0.000    0.833    7.333    0.000    0.000    0.000 
#    0.000    0.000    0.000    0.000    0.000    0.000 
#
# Total GULP energy -133935.929375 kJ/mol
# GULP energy per Si atom -5580.663724 kJ/mol
# Density = 2.164781 g / cm^3
# Si number density = 21.697197 Si / 1000 Ang^3
#
#
#
# Elastic Constant Matrix: (Units=GPa)
#
#
# Indices 1 2 3 4 5 6 
#
# 1 71.5185 9.4200 33.4294 0.0000 -22.5588 0.0008
# 2 9.4200 58.1752 17.6632 0.0002 -8.5239 0.0014
# 3 33.4294 17.6632 105.7249 0.0000 -26.8462 -0.0001
# 4 0.0000 0.0002 0.0000 38.8126 0.0000 -0.7146
# 5 -22.5588 -8.5239 -26.8462 0.0000 47.9346 0.0000
# 6 0.0008 0.0014 -0.0001 -0.7146 0.0000 11.5542
#
#
#
# Elastic Compliance Matrix: (Units=1/GPa)
#
#
# Indices 1 2 3 4 5 6 
#
# 1 0.017850 -0.000799 -0.003979 0.000000 0.006030 -0.000001
# 2 -0.000799 0.018275 -0.002414 0.000000 0.001522 -0.000002
# 3 -0.003979 -0.002414 0.012282 0.000000 0.004577 0.000001
# 4 0.000000 0.000000 0.000000 0.025794 0.000000 0.001595
# 5 0.006030 0.001522 0.004577 0.000000 0.026533 -0.000001
# 6 -0.000001 -0.000002 0.000001 0.001595 -0.000001 0.086647
#
#
# Mechanical properties :
#
#
# Convention : Reuss Voigt Hill
#
# Bulk Modulus (GPa) = 29.39264 39.60487 34.49875
# Shear Modulus (GPa) = 23.46246 31.32067 27.39156
#
# Velocity S-wave (km/s) = 3.29197 3.80351 3.55695
# Velocity P-wave (km/s) = 5.29392 6.13042 5.72746
#
# Compressibility (1/GPa) = 0.03402213
#
# Stress axis : x y z
#
# Youngs Moduli (GPa) = 56.02384 54.72035 81.41836
#
# Poissons Ratio (x) = 0.04370 0.32400
# Poissons Ratio (y) = 0.04474 0.19656
# Poissons Ratio (z) = 0.22294 0.13211
#
# Static dielectric constant tensor:
#      x y z
#    x 1.828260 0.000000 0.014880 
#    y 0.000000 1.791260 0.000000 
#    z 0.014880 0.000000 1.823210 
# 
# From -- ./inp_files/297955.got.cif
#   From: 2010.05.17/outbox.cif.g08.bks.cpg/sg15_149_cif.got.tgz:297955.got - 2010.06.03 18:47:42.
