data_PCOD9286488
_publ_section_title
;
Structure prediction by ZEFSAII (Michael W. Deem and Ramdas Pophale) SiO2 
 PCOD9286488
Probable space group: C 2/C
;
_chemical_formula_sum "Si O2"
_cell_formula_units_Z 60
_cell_length_a 8.377793
_cell_length_b 29.714861
_cell_length_c 12.068071
_cell_angle_alpha 90.000000
_cell_angle_beta 70.043580
_cell_angle_gamma 90.000000
_cell_volume 2823.885542
_symmetry_space_group_name_H-M "C 2/C"
_symmetry_group_IT_number 15
_symmetry_cell_setting 'monoclinic'
loop_
_space_group_symop_operation_xyz
x,y,z
-x,y,1/2-z
-x,-y,-z
x,-y,1/2+z
1/2+x,1/2+y,z
1/2-x,1/2+y,1/2-z
1/2-x,1/2-y,-z
1/2+x,1/2-y,1/2+z
loop_
_atom_site_type_symbol
_atom_site_label
_atom_site_fract_x
_atom_site_fract_y
_atom_site_fract_z
Si Si1 0.236886 0.802429 0.976611
Si Si2 0.308688 0.342267 0.283379
Si Si3 0.000000 0.344783 0.750000
Si Si4 0.178569 0.470079 0.770114
Si Si5 0.311615 0.934586 0.129989
Si Si6 0.369845 0.896306 0.562198
Si Si7 0.916785 0.950889 0.522005
Si Si8 0.111118 0.856267 0.468229
O O1 0.356854 0.815383 0.845401
O O2 0.250000 0.750000 0.000000
O O3 0.286842 0.824489 0.084721
O O4 0.052251 0.823435 0.989704
O O5 0.500000 0.323798 0.250000
O O6 0.308402 0.395674 0.297751
O O7 0.272889 0.338035 0.161471
O O8 0.064006 0.374684 0.838587
O O9 0.188319 0.523262 0.788981
O O10 0.193191 0.445245 0.883921
O O11 0.326630 0.448710 0.661874
O O12 0.000000 0.462848 0.750000
O O13 0.489949 0.910007 0.062525
O O14 0.234700 0.949834 0.031350
O O15 0.230678 0.863054 0.545134
O O16 0.033096 0.907066 0.472340
O O17 0.000000 0.000000 0.500000
#
# Coordination Sequence:
#
# PCOD9286488 Si02
#       8
#     8   8   4   8   8   8   8   8
#     4  11  25  47  79 109 139 186 232 293 379 447
#     4  10  21  43  70 100 138 182 233 295 357 434
#     4  12  24  48  78  96 142 188 230 296 370 438
#     4  12  26  37  62  93 141 189 248 295 351 431
#     4  12  23  40  61  95 139 193 238 289 365 421
#     4  12  24  45  69 101 140 192 239 298 361 429
#     4  12  24  41  62  98 136 191 242 298 363 426
#     4  11  25  43  72 107 142 183 244 300 362 442
#
# _framework density 21.247322
#
# number of rings (size 3 to 8) (size 9 to 14) (size 15 to 20)
#    0.000    0.533    6.000    2.800    6.533    3.200 
#    0.000    0.667    2.933    0.000    0.000    0.000 
#    0.000    0.000    0.000    0.000    0.000    0.000 
#
# Total GULP energy -167315.604233 kJ/mol
# GULP energy per Si atom -5577.186808 kJ/mol
# Density = 2.119896 g / cm^3
# Si number density = 21.247322 Si / 1000 Ang^3
#
#
#
# Elastic Constant Matrix: (Units=GPa)
#
#
# Indices 1 2 3 4 5 6 
#
# 1 56.3208 23.6578 20.3357 0.0000 15.8403 0.0000
# 2 23.6578 100.0063 13.2524 0.0000 8.7820 0.0000
# 3 20.3357 13.2524 102.9533 0.0000 -9.1079 0.0000
# 4 0.0000 0.0000 0.0000 20.3581 0.0000 6.2178
# 5 15.8403 8.7820 -9.1079 0.0000 36.5870 0.0000
# 6 0.0000 0.0000 0.0000 6.2178 0.0000 20.9782
#
#
#
# Elastic Compliance Matrix: (Units=1/GPa)
#
#
# Indices 1 2 3 4 5 6 
#
# 1 0.024460 -0.004131 -0.005265 0.000000 -0.010909 0.000000
# 2 -0.004131 0.011165 -0.000716 0.000000 -0.001070 0.000000
# 3 -0.005265 -0.000716 0.011311 0.000000 0.005267 0.000000
# 4 0.000000 0.000000 0.000000 0.054010 0.000000 -0.016008
# 5 -0.010909 -0.001070 0.005267 0.000000 0.033623 0.000000
# 6 0.000000 0.000000 0.000000 -0.016008 0.000000 0.052413
#
#
# Mechanical properties :
#
#
# Convention : Reuss Voigt Hill
#
# Bulk Modulus (GPa) = 37.43432 41.53025 39.48229
# Shear Modulus (GPa) = 23.13644 29.05362 26.09503
#
# Velocity S-wave (km/s) = 3.30344 3.70185 3.50831
# Velocity P-wave (km/s) = 5.67512 6.15306 5.91891
#
# Compressibility (1/GPa) = 0.02671346
#
# Stress axis : x y z
#
# Youngs Moduli (GPa) = 40.88377 89.56270 88.40827
#
# Poissons Ratio (x) = 0.36995 0.46544
# Poissons Ratio (y) = 0.16888 0.06330
# Poissons Ratio (z) = 0.21524 0.06413
#
# Static dielectric constant tensor:
#      x y z
#    x 1.884110 0.000000 -0.033100 
#    y 0.000000 1.780680 0.000000 
#    z -0.033100 0.000000 1.826750 
# 
# From -- ./inp_files/82550.got.cif
#   From: 2010.05.17/outbox.cif.g08.bks.cpg/sg15_42_cif.got.tgz:82550.got - 2010.06.03 18:47:42.
