data_PCOD9286374
_publ_section_title
;
Structure prediction by ZEFSAII (Michael W. Deem and Ramdas Pophale) SiO2 
 PCOD9286374
Probable space group: C 2/C
;
_chemical_formula_sum "Si O2"
_cell_formula_units_Z 64
_cell_length_a 7.341351
_cell_length_b 18.498012
_cell_length_c 26.495732
_cell_angle_alpha 90.000000
_cell_angle_beta 132.863964
_cell_angle_gamma 90.000000
_cell_volume 2637.325267
_symmetry_space_group_name_H-M "C 2/C"
_symmetry_group_IT_number 15
_symmetry_cell_setting 'monoclinic'
loop_
_space_group_symop_operation_xyz
x,y,z
-x,y,1/2-z
-x,-y,-z
x,-y,1/2+z
1/2+x,1/2+y,z
1/2-x,1/2+y,1/2-z
1/2-x,1/2-y,-z
1/2+x,1/2-y,1/2+z
loop_
_atom_site_type_symbol
_atom_site_label
_atom_site_fract_x
_atom_site_fract_y
_atom_site_fract_z
Si Si1 0.299742 0.061813 0.471496
Si Si2 0.192346 0.801809 0.738700
Si Si3 0.821417 0.706834 0.623514
Si Si4 0.725477 0.961444 0.722188
Si Si5 0.977893 0.277609 0.008807
Si Si6 0.835571 0.555284 0.594661
Si Si7 0.985700 0.811659 0.153015
Si Si8 0.561824 0.532686 0.647301
O O1 0.419060 0.139489 0.484937
O O2 0.230074 0.055047 0.517987
O O3 0.500000 0.000000 0.500000
O O4 0.090117 0.041008 0.391510
O O5 0.317801 0.880294 0.765765
O O6 0.398279 0.739174 0.782640
O O7 0.000000 0.804572 0.750000
O O8 0.009007 0.774276 0.659963
O O9 0.565464 0.727558 0.547555
O O10 0.944744 0.636412 0.622258
O O11 0.724950 0.687302 0.660627
O O12 0.000000 0.964430 0.750000
O O13 0.531025 0.992294 0.644771
O O14 0.736789 0.014052 0.772526
O O15 0.243128 0.273373 0.084816
O O16 0.750000 0.250000 0.000000
O O17 0.644297 0.550125 0.605446
O O18 0.924481 0.897050 0.144582
#
# Coordination Sequence:
#
# PCOD9286374 Si02
#       8
#     8   8   8   8   8   8   8   8
#     4  12  24  43  66  96 138 175 223 276 346 408
#     4   9  20  41  66  95 127 171 222 276 336 403
#     4  10  21  43  67  94 131 175 224 274 340 409
#     4  11  23  40  67  98 133 175 222 279 343 408
#     4  12  24  41  64  97 137 170 222 277 339 401
#     4  11  24  42  66  97 132 177 226 282 335 408
#     4  10  22  41  67  96 129 178 221 273 341 410
#     4  11  23  43  67  97 133 178 228 276 340 408
#
# _framework density 24.267009000000002
#
# number of rings (size 3 to 8) (size 9 to 14) (size 15 to 20)
#    0.000    1.250    2.500    3.375    0.000    5.000 
#    4.500    1.875    0.000    0.000    0.000    0.000 
#    0.000    0.000    0.000    0.000    0.000    0.000 
#
# Total GULP energy -178630.127000 kJ/mol
# GULP energy per Si atom -5582.191469 kJ/mol
# Density = 2.421178 g / cm^3
# Si number density = 24.267009 Si / 1000 Ang^3
#
#
#
# Elastic Constant Matrix: (Units=GPa)
#
#
# Indices 1 2 3 4 5 6 
#
# 1 71.8301 9.6510 -0.0453 0.0001 -9.9745 -0.0001
# 2 9.6510 114.3175 20.4141 0.0000 2.4064 0.0000
# 3 -0.0453 20.4141 95.7617 0.0005 4.7330 0.0004
# 4 0.0001 0.0000 0.0005 38.7004 0.0002 0.6365
# 5 -9.9745 2.4064 4.7330 0.0002 34.9717 0.0000
# 6 -0.0001 0.0000 0.0004 0.6365 0.0000 8.8298
#
#
#
# Elastic Compliance Matrix: (Units=1/GPa)
#
#
# Indices 1 2 3 4 5 6 
#
# 1 0.014696 -0.001345 0.000083 0.000000 0.004273 0.000000
# 2 -0.001345 0.009222 -0.001929 0.000000 -0.000757 0.000000
# 3 0.000083 -0.001929 0.010919 0.000000 -0.001322 0.000000
# 4 0.000000 0.000000 0.000000 0.025870 0.000000 -0.001865
# 5 0.004273 -0.000757 -0.001322 0.000000 0.030044 0.000000
# 6 0.000000 0.000000 0.000000 -0.001865 0.000000 0.113387
#
#
# Mechanical properties :
#
#
# Convention : Reuss Voigt Hill
#
# Bulk Modulus (GPa) = 35.14572 37.99433 36.57002
# Shear Modulus (GPa) = 22.72665 33.29301 28.00983
#
# Velocity S-wave (km/s) = 3.06359 3.70800 3.40109
# Velocity P-wave (km/s) = 5.19889 5.83293 5.52501
#
# Compressibility (1/GPa) = 0.02845297
#
# Stress axis : x y z
#
# Youngs Moduli (GPa) = 68.04617 108.44155 91.58210
#
# Poissons Ratio (x) = 0.14589 -0.00756
# Poissons Ratio (y) = 0.09155 0.17666
# Poissons Ratio (z) = -0.00562 0.20919
#
# Static dielectric constant tensor:
#      x y z
#    x 2.040890 0.000000 -0.036430 
#    y 0.000000 1.962300 0.000000 
#    z -0.036430 0.000000 1.957750 
# 
# From -- ./inp_files/308786.got.cif
#   From: 2010.05.17/outbox.cif.g08.bks.cpg/sg15_155_cif.got.tgz:308786.got - 2010.06.03 18:47:42.
