data_PCOD9286631
_publ_section_title
;
Structure prediction by ZEFSAII (Michael W. Deem and Ramdas Pophale) SiO2 
 PCOD9286631
Probable space group: C 2/C
;
_chemical_formula_sum "Si O2"
_cell_formula_units_Z 48
_cell_length_a 13.115439
_cell_length_b 6.515361
_cell_length_c 33.174176
_cell_angle_alpha 90.000000
_cell_angle_beta 122.910162
_cell_angle_gamma 90.000000
_cell_volume 2379.875975
_symmetry_space_group_name_H-M "C 2/C"
_symmetry_group_IT_number 15
_symmetry_cell_setting 'monoclinic'
loop_
_space_group_symop_operation_xyz
x,y,z
-x,y,1/2-z
-x,-y,-z
x,-y,1/2+z
1/2+x,1/2+y,z
1/2-x,1/2+y,1/2-z
1/2-x,1/2-y,-z
1/2+x,1/2-y,1/2+z
loop_
_atom_site_type_symbol
_atom_site_label
_atom_site_fract_x
_atom_site_fract_y
_atom_site_fract_z
Si Si1 0.903380 0.249575 0.894684
Si Si2 0.016057 0.630968 0.639231
Si Si3 0.119129 0.640119 0.020786
Si Si4 0.622319 0.433444 0.945839
Si Si5 0.561515 0.859514 0.720294
Si Si6 0.318236 0.509415 0.803759
O O1 0.931622 0.471717 0.882201
O O2 0.857718 0.268266 0.930108
O O3 0.813603 0.134299 0.844682
O O4 0.028696 0.119495 0.921643
O O5 0.986050 0.495998 0.672195
O O6 0.119119 0.793558 0.673576
O O7 0.912897 0.764647 0.595638
O O8 0.236820 0.514269 0.030744
O O9 0.103623 0.820018 0.984576
O O10 0.000000 0.500000 0.000000
O O11 0.500000 0.830293 0.750000
O O12 0.595519 0.645504 0.706364
O O13 0.688869 0.974275 0.755869
#
# Coordination Sequence:
#
# PCOD9286631 Si02
#       6
#     8   8   8   8   8   8
#     4  10  22  42  64  91 128 168 205 258 313 365
#     4  10  21  44  62  90 131 160 208 263 307 371
#     4  11  22  42  66  93 127 169 209 259 316 369
#     4  10  23  42  63  95 128 163 214 259 304 379
#     4  11  23  40  65  91 119 167 205 254 321 368
#     4  10  22  43  61  92 129 155 211 263 299 383
#
# _framework density 20.169118000000001
#
# number of rings (size 3 to 8) (size 9 to 14) (size 15 to 20)
#    0.000    1.667    3.333    0.500    2.333    1.333 
#   12.000    0.000    0.000    0.000    0.000    0.000 
#    0.000    0.000    0.000    0.000    0.000    0.000 
#
# Total GULP energy -134061.666060 kJ/mol
# GULP energy per Si atom -5585.902752 kJ/mol
# Density = 2.012321 g / cm^3
# Si number density = 20.169118 Si / 1000 Ang^3
#
#
#
# Elastic Constant Matrix: (Units=GPa)
#
#
# Indices 1 2 3 4 5 6 
#
# 1 85.4602 40.9487 36.0048 0.0000 -25.0719 0.0000
# 2 40.9487 87.6269 31.1740 0.0000 -15.6652 0.0000
# 3 36.0048 31.1740 104.2806 0.0000 -39.3747 0.0000
# 4 0.0000 0.0000 0.0000 29.8955 0.0000 5.9360
# 5 -25.0719 -15.6652 -39.3747 0.0000 28.5371 0.0000
# 6 0.0000 0.0000 0.0000 5.9360 0.0000 12.3648
#
#
#
# Elastic Compliance Matrix: (Units=1/GPa)
#
#
# Indices 1 2 3 4 5 6 
#
# 1 0.018516 -0.006456 0.000712 0.000000 0.013706 0.000000
# 2 -0.006456 0.015204 -0.002727 0.000000 -0.001088 0.000000
# 3 0.000712 -0.002727 0.020521 0.000000 0.027443 0.000000
# 4 0.000000 0.000000 0.000000 0.036974 0.000000 -0.017750
# 5 0.013706 -0.001088 0.027443 0.000000 0.084351 0.000000
# 6 0.000000 0.000000 0.000000 -0.017750 0.000000 0.089396
#
#
# Mechanical properties :
#
#
# Convention : Reuss Voigt Hill
#
# Bulk Modulus (GPa) = 26.80996 54.84696 40.82846
# Shear Modulus (GPa) = 16.98735 25.44218 21.21476
#
# Velocity S-wave (km/s) = 2.90529 3.55553 3.24673
# Velocity P-wave (km/s) = 4.95739 6.64141 5.86021
#
# Compressibility (1/GPa) = 0.03729958
#
# Stress axis : x y z
#
# Youngs Moduli (GPa) = 54.00861 65.77021 48.73102
#
# Poissons Ratio (x) = 0.42458 -0.03471
# Poissons Ratio (y) = 0.34866 0.13291
# Poissons Ratio (z) = -0.03847 0.17938
#
# Static dielectric constant tensor:
#      x y z
#    x 1.684600 0.000000 0.013920 
#    y 0.000000 1.698880 0.000000 
#    z 0.013920 0.000000 1.745730 
# 
# From -- ./inp_files/312451.got.cif
#   From: 2010.05.17/outbox.cif.g08.bks.cpg/sg15_157_cif.got.tgz:312451.got - 2010.06.03 18:47:42.
