data_PCOD9286138
_publ_section_title
;
Structure prediction by ZEFSAII (Michael W. Deem and Ramdas Pophale) SiO2 
 PCOD9286138
Probable space group: C 2/C
;
_chemical_formula_sum "Si O2"
_cell_formula_units_Z 36
_cell_length_a 10.807627
_cell_length_b 16.226019
_cell_length_c 8.332364
_cell_angle_alpha 90.000000
_cell_angle_beta 101.837329
_cell_angle_gamma 90.000000
_cell_volume 1430.129004
_symmetry_space_group_name_H-M "C 2/C"
_symmetry_group_IT_number 15
_symmetry_cell_setting 'monoclinic'
loop_
_space_group_symop_operation_xyz
x,y,z
-x,y,1/2-z
-x,-y,-z
x,-y,1/2+z
1/2+x,1/2+y,z
1/2-x,1/2+y,1/2-z
1/2-x,1/2-y,-z
1/2+x,1/2-y,1/2+z
loop_
_atom_site_type_symbol
_atom_site_label
_atom_site_fract_x
_atom_site_fract_y
_atom_site_fract_z
Si Si1 0.000000 0.140411 0.750000
Si Si2 0.477458 0.094367 0.935266
Si Si3 0.271136 0.826239 0.887747
Si Si4 0.860620 0.964395 0.445440
Si Si5 0.778119 0.143425 0.475987
O O1 0.883143 0.087891 0.792139
O O2 0.915033 0.174649 0.581362
O O3 0.500000 0.096490 0.750000
O O4 0.585688 0.145382 0.053368
O O5 0.344122 0.136164 0.943399
O O6 0.500000 0.000000 0.000000
O O7 0.245308 0.807976 0.695563
O O8 0.250000 0.750000 0.000000
O O9 0.185506 0.902071 0.930845
O O10 0.781407 0.047068 0.417577
O O11 0.000000 0.000000 0.500000
#
# Coordination Sequence:
#
# PCOD9286138 Si02
#       5
#     4   8   8   8   8
#     4  10  22  40  72 112 148 196 272 322 372 462
#     4  12  25  46  81 115 157 211 274 324 398 493
#     4  12  27  48  75 119 164 205 261 342 415 468
#     4  10  21  42  73 110 149 206 268 314 379 477
#     4  11  22  44  79 111 155 209 269 324 393 482
#
# _framework density 25.172553000000001
#
# number of rings (size 3 to 8) (size 9 to 14) (size 15 to 20)
#    0.000    0.889    2.222    6.000    0.000    2.667 
#   12.000    2.222    0.000    0.000    0.000    0.000 
#    0.000    0.000    0.000    0.000    0.000    0.000 
#
# Total GULP energy -100619.558189 kJ/mol
# GULP energy per Si atom -5589.975455 kJ/mol
# Density = 2.511526 g / cm^3
# Si number density = 25.172553 Si / 1000 Ang^3
#
#
#
# Elastic Constant Matrix: (Units=GPa)
#
#
# Indices 1 2 3 4 5 6 
#
# 1 172.6713 54.1038 72.7121 0.0000 11.2705 0.0000
# 2 54.1038 126.1357 37.0863 0.0000 2.6278 0.0000
# 3 72.7121 37.0863 182.7562 0.0000 16.3978 0.0000
# 4 0.0000 0.0000 0.0000 27.7228 0.0000 -19.5915
# 5 11.2705 2.6278 16.3978 0.0000 61.8578 0.0000
# 6 0.0000 0.0000 0.0000 -19.5915 0.0000 32.4612
#
#
#
# Elastic Compliance Matrix: (Units=1/GPa)
#
#
# Indices 1 2 3 4 5 6 
#
# 1 0.007676 -0.002550 -0.002480 0.000000 -0.000633 0.000000
# 2 -0.002550 0.009279 -0.000896 0.000000 0.000308 0.000000
# 3 -0.002480 -0.000896 0.006757 0.000000 -0.001301 0.000000
# 4 0.000000 0.000000 0.000000 0.062899 0.000000 0.037962
# 5 -0.000633 0.000308 -0.001301 0.000000 0.016613 0.000000
# 6 0.000000 0.000000 0.000000 0.037962 0.000000 0.053717
#
#
# Mechanical properties :
#
#
# Convention : Reuss Voigt Hill
#
# Bulk Modulus (GPa) = 84.31668 89.92974 87.12321
# Shear Modulus (GPa) = 28.94426 45.58576 37.26501
#
# Velocity S-wave (km/s) = 3.39460 4.26012 3.85175
# Velocity P-wave (km/s) = 6.99518 7.74603 7.38016
#
# Compressibility (1/GPa) = 0.01186005
#
# Stress axis : x y z
#
# Youngs Moduli (GPa) = 130.27757 107.77208 147.99656
#
# Poissons Ratio (x) = 0.27484 0.36698
# Poissons Ratio (y) = 0.33223 0.13260
# Poissons Ratio (z) = 0.32305 0.09656
#
# Static dielectric constant tensor:
#      x y z
#    x 1.978950 0.000000 -0.004410 
#    y 0.000000 1.937810 0.000000 
#    z -0.004410 0.000000 2.178910 
# 
# From -- ./inp_files/28834.got.cif
#   From: 2010.05.17/outbox.cif.g08.bks.cpg/sg15_15_cif.got.tgz:28834.got - 2010.06.03 18:47:42.
