data_PCOD9286368
_publ_section_title
;
Structure prediction by ZEFSAII (Michael W. Deem and Ramdas Pophale) SiO2 
 PCOD9286368
Probable space group: C 2/C
;
_chemical_formula_sum "Si O2"
_cell_formula_units_Z 60
_cell_length_a 24.661055
_cell_length_b 12.393586
_cell_length_c 15.680851
_cell_angle_alpha 90.000000
_cell_angle_beta 149.233211
_cell_angle_gamma 90.000000
_cell_volume 2451.670016
_symmetry_space_group_name_H-M "C 2/C"
_symmetry_group_IT_number 15
_symmetry_cell_setting 'monoclinic'
loop_
_space_group_symop_operation_xyz
x,y,z
-x,y,1/2-z
-x,-y,-z
x,-y,1/2+z
1/2+x,1/2+y,z
1/2-x,1/2+y,1/2-z
1/2-x,1/2-y,-z
1/2+x,1/2-y,1/2+z
loop_
_atom_site_type_symbol
_atom_site_label
_atom_site_fract_x
_atom_site_fract_y
_atom_site_fract_z
Si Si1 0.267404 0.859735 0.164188
Si Si2 0.401138 0.446023 0.453151
Si Si3 0.387573 0.439577 0.241061
Si Si4 0.500000 0.057182 0.250000
Si Si5 0.184904 0.417043 0.445661
Si Si6 0.243551 0.845190 0.771819
Si Si7 0.126434 0.723085 0.348403
Si Si8 0.898514 0.575325 0.347246
O O1 0.148653 0.876085 0.038401
O O2 0.297949 0.835729 0.108687
O O3 0.311539 0.770526 0.288778
O O4 0.312752 0.979852 0.228894
O O5 0.380996 0.399518 0.330748
O O6 0.523669 0.468398 0.635060
O O7 0.341650 0.562803 0.366370
O O8 0.421294 0.342194 0.225321
O O9 0.276770 0.491408 0.062748
O O10 0.594038 0.149147 0.385997
O O11 0.568514 0.971122 0.287374
O O12 0.207043 0.369866 0.568510
O O13 0.344213 0.849765 0.845344
O O14 0.250000 0.750000 0.500000
O O15 0.088120 0.650251 0.217067
O O16 0.000000 0.500000 0.500000
#
# Coordination Sequence:
#
# PCOD9286368 Si02
#       8
#     8   8   8   4   8   8   8   8
#     4  11  22  43  65  96 137 173 233 279 349 422
#     4   9  22  41  66  97 130 173 221 290 335 406
#     4  10  21  43  67  93 134 171 228 281 346 411
#     4  12  24  42  64  98 142 178 224 294 348 410
#     4  11  23  44  65  95 140 176 228 289 348 416
#     4  10  23  41  68  97 131 186 225 281 347 417
#     4  12  24  42  68 103 134 183 231 286 354 422
#     4  11  24  43  67 101 139 180 235 292 351 426
#
# _framework density 24.473116000000001
#
# number of rings (size 3 to 8) (size 9 to 14) (size 15 to 20)
#    0.000    1.333    2.667    2.000    1.867    3.733 
#    2.400    1.333    0.000    0.000    0.000    0.000 
#    0.000    0.000    0.000    0.000    0.000    0.000 
#
# Total GULP energy -167128.362163 kJ/mol
# GULP energy per Si atom -5570.945405 kJ/mol
# Density = 2.441741 g / cm^3
# Si number density = 24.473116 Si / 1000 Ang^3
#
#
#
# Elastic Constant Matrix: (Units=GPa)
#
#
# Indices 1 2 3 4 5 6 
#
# 1 122.8836 32.5966 38.3827 0.0000 16.1084 0.0000
# 2 32.5966 79.5808 9.7649 0.0000 -1.7734 0.0000
# 3 38.3827 9.7649 71.9453 0.0000 15.3076 0.0000
# 4 0.0000 0.0000 0.0000 21.3380 0.0000 1.0028
# 5 16.1084 -1.7734 15.3076 0.0000 27.4793 0.0000
# 6 0.0000 0.0000 0.0000 1.0028 0.0000 42.0170
#
#
#
# Elastic Compliance Matrix: (Units=1/GPa)
#
#
# Indices 1 2 3 4 5 6 
#
# 1 0.011207 -0.004135 -0.004496 0.000000 -0.004332 0.000000
# 2 -0.004135 0.014405 -0.000525 0.000000 0.003646 0.000000
# 3 -0.004496 -0.000525 0.017942 0.000000 -0.007393 0.000000
# 4 0.000000 0.000000 0.000000 0.046917 0.000000 -0.001120
# 5 -0.004332 0.003646 -0.007393 0.000000 0.043284 0.000000
# 6 0.000000 0.000000 0.000000 -0.001120 0.000000 0.023827
#
#
# Mechanical properties :
#
#
# Convention : Reuss Voigt Hill
#
# Bulk Modulus (GPa) = 39.61565 48.43313 44.02439
# Shear Modulus (GPa) = 27.12841 31.07790 29.10315
#
# Velocity S-wave (km/s) = 3.33302 3.56740 3.45220
# Velocity P-wave (km/s) = 5.57087 6.06645 5.82393
#
# Compressibility (1/GPa) = 0.02524255
#
# Stress axis : x y z
#
# Youngs Moduli (GPa) = 89.23113 69.41889 55.73422
#
# Poissons Ratio (x) = 0.28706 0.25058
# Poissons Ratio (y) = 0.36899 0.02925
# Poissons Ratio (z) = 0.40117 0.03643
#
# Static dielectric constant tensor:
#      x y z
#    x 1.865220 0.000000 0.210190 
#    y 0.000000 2.078740 0.000000 
#    z 0.210190 0.000000 1.718870 
# 
# From -- ./inp_files/222560.got.cif
#   From: 2010.05.17/outbox.cif.g08.bks.cpg/sg15_112_cif.got.tgz:222560.got - 2010.06.03 18:47:42.
