data_PCOD9286187
_publ_section_title
;
Structure prediction by ZEFSAII (Michael W. Deem and Ramdas Pophale) SiO2 
 PCOD9286187
Probable space group: C 2/C
;
_chemical_formula_sum "Si O2"
_cell_formula_units_Z 44
_cell_length_a 5.208048
_cell_length_b 24.710284
_cell_length_c 15.854925
_cell_angle_alpha 90.000000
_cell_angle_beta 100.764004
_cell_angle_gamma 90.000000
_cell_volume 2004.506060
_symmetry_space_group_name_H-M "C 2/C"
_symmetry_group_IT_number 15
_symmetry_cell_setting 'monoclinic'
loop_
_space_group_symop_operation_xyz
x,y,z
-x,y,1/2-z
-x,-y,-z
x,-y,1/2+z
1/2+x,1/2+y,z
1/2-x,1/2+y,1/2-z
1/2-x,1/2-y,-z
1/2+x,1/2-y,1/2+z
loop_
_atom_site_type_symbol
_atom_site_label
_atom_site_fract_x
_atom_site_fract_y
_atom_site_fract_z
Si Si1 0.197961 0.064330 0.459559
Si Si2 0.263208 0.560425 0.564923
Si Si3 0.613073 0.222903 0.910739
Si Si4 0.500000 0.697762 0.250000
Si Si5 0.767603 0.594704 0.284377
Si Si6 0.570117 0.665100 0.849849
O O1 0.451755 0.064854 0.534656
O O2 0.276660 0.100784 0.384843
O O3 0.929854 0.077535 0.491181
O O4 0.175085 0.002947 0.423168
O O5 0.358732 0.601913 0.640967
O O6 0.581581 0.266404 0.833703
O O7 0.323891 0.196996 0.901742
O O8 0.816738 0.178288 0.889734
O O9 0.750000 0.250000 0.000000
O O10 0.722369 0.653863 0.240408
O O11 0.500000 0.563890 0.250000
O O12 0.000000 0.567181 0.250000
O O13 0.500000 0.681806 0.750000
#
# Coordination Sequence:
#
# PCOD9286187 Si02
#       6
#     8   8   8   4   8   8
#     4  10  21  43  62  98 126 166 218 270 324 401
#     4  10  23  39  68  89 132 169 212 268 330 402
#     4  12  27  45  69  96 133 181 226 278 339 398
#     4  10  26  42  66  94 136 164 226 276 328 384
#     4  10  23  36  64  91 124 163 203 275 320 379
#     4  12  25  45  65  99 135 175 225 281 333 408
#
# _framework density 21.950545000000002
#
# number of rings (size 3 to 8) (size 9 to 14) (size 15 to 20)
#    0.545    0.727    1.818    2.727    7.636    0.727 
#    0.000    1.818    0.000    0.000    0.000    0.000 
#    0.000    0.000    0.000    0.000    0.000    0.000 
#
# Total GULP energy -122717.172833 kJ/mol
# GULP energy per Si atom -5578.053311 kJ/mol
# Density = 2.190058 g / cm^3
# Si number density = 21.950545 Si / 1000 Ang^3
#
#
#
# Elastic Constant Matrix: (Units=GPa)
#
#
# Indices 1 2 3 4 5 6 
#
# 1 129.5370 8.0499 0.9570 0.0000 8.7464 0.0000
# 2 8.0499 57.3206 29.5696 0.0000 11.5706 0.0000
# 3 0.9570 29.5696 88.4422 0.0000 17.5945 0.0000
# 4 0.0000 0.0000 0.0000 32.1175 0.0000 -9.8228
# 5 8.7464 11.5706 17.5945 0.0000 23.4179 0.0000
# 6 0.0000 0.0000 0.0000 -9.8228 0.0000 -327.9552
#
#
#
# Elastic Compliance Matrix: (Units=1/GPa)
#
#
# Indices 1 2 3 4 5 6 
#
# 1 0.007985 -0.000921 0.000852 0.000000 -0.003167 0.000000
# 2 -0.000921 0.021936 -0.006156 0.000000 -0.005869 0.000000
# 3 0.000852 -0.006156 0.015066 0.000000 -0.008596 0.000000
# 4 0.000000 0.000000 0.000000 0.030853 0.000000 -0.000924
# 5 -0.003167 -0.005869 -0.008596 0.000000 0.053243 0.000000
# 6 0.000000 0.000000 0.000000 -0.000924 0.000000 -0.003022
#
#
# Mechanical properties :
#
#
# Convention : Reuss Voigt Hill
#
# Bulk Modulus (GPa) = 30.73730 39.16140 34.94935
# Shear Modulus (GPa) = 33.47664 -38.70243 -2.61289
#
# Velocity S-wave (km/s) = 3.90948 -4.20356 -1.09222
# Velocity P-wave (km/s) = 5.86618 2.38336 3.79023
#
# Compressibility (1/GPa) = 0.03253376
#
# Stress axis : x y z
#
# Youngs Moduli (GPa) = 125.24108 45.58789 66.37472
#
# Poissons Ratio (x) = 0.04201 -0.05653
# Poissons Ratio (y) = 0.11540 0.40863
# Poissons Ratio (z) = -0.10667 0.28066
#
# Static dielectric constant tensor:
#      x y z
#    x 1.873500 0.000000 -0.003830 
#    y 0.000000 1.793560 0.000000 
#    z -0.003830 0.000000 1.861370 
# 
# From -- ./inp_files/185375.got.cif
#   From: 2010.05.17/outbox.cif.g08.bks.cpg/sg15_93_cif.got.tgz:185375.got - 2010.06.03 18:47:42.
