data_PCOD9286129
_publ_section_title
;
Structure prediction by ZEFSAII (Michael W. Deem and Ramdas Pophale) SiO2 
 PCOD9286129
Probable space group: C 2/C
;
_chemical_formula_sum "Si O2"
_cell_formula_units_Z 40
_cell_length_a 8.688933
_cell_length_b 13.360869
_cell_length_c 24.507652
_cell_angle_alpha 90.000000
_cell_angle_beta 36.864591
_cell_angle_gamma 90.000000
_cell_volume 1706.870108
_symmetry_space_group_name_H-M "C 2/C"
_symmetry_group_IT_number 15
_symmetry_cell_setting 'monoclinic'
loop_
_space_group_symop_operation_xyz
x,y,z
-x,y,1/2-z
-x,-y,-z
x,-y,1/2+z
1/2+x,1/2+y,z
1/2-x,1/2+y,1/2-z
1/2-x,1/2-y,-z
1/2+x,1/2-y,1/2+z
loop_
_atom_site_type_symbol
_atom_site_label
_atom_site_fract_x
_atom_site_fract_y
_atom_site_fract_z
Si Si1 0.671742 0.386587 0.753738
Si Si2 0.116544 0.084623 0.533000
Si Si3 0.501628 0.254830 0.608321
Si Si4 0.149084 0.754703 0.108481
Si Si5 0.588520 0.045754 0.631393
O O1 0.500000 0.408353 0.750000
O O2 0.504451 0.352043 0.852275
O O3 0.645054 0.978222 0.783572
O O4 0.869312 0.295546 0.684133
O O5 0.154577 0.134898 0.580875
O O6 0.165456 0.180293 0.478772
O O7 0.833443 0.043723 0.601497
O O8 0.313392 0.002261 0.454094
O O9 0.750000 0.250000 0.500000
O O10 0.255930 0.249430 0.638965
O O11 0.508093 0.158605 0.644954
#
# Coordination Sequence:
#
# PCOD9286129 Si02
#       5
#     8   8   8   8   8
#     4  11  26  46  68 101 148 193 244 303 363 439
#     4   9  19  41  71 103 132 186 230 299 357 450
#     4  12  25  45  71 106 141 186 244 310 362 431
#     4  10  21  42  73 100 144 182 241 297 370 421
#     4  10  22  43  69 101 141 184 243 282 380 430
#
# _framework density 23.434708000000001
#
# number of rings (size 3 to 8) (size 9 to 14) (size 15 to 20)
#    0.000    1.600    2.000    1.800    5.600    2.400 
#    3.600    6.000    0.000    0.000    0.000    0.000 
#    0.000    0.000    0.000    0.000    0.000    0.000 
#
# Total GULP energy -112004.485887 kJ/mol
# GULP energy per Si atom -5600.224294 kJ/mol
# Density = 2.338137 g / cm^3
# Si number density = 23.434708 Si / 1000 Ang^3
#
#
#
# Elastic Constant Matrix: (Units=GPa)
#
#
# Indices 1 2 3 4 5 6 
#
# 1 57.4873 -0.4730 34.2518 -0.0003 -4.7222 0.0010
# 2 -0.4730 76.1602 43.0125 -0.0005 -9.2655 0.0004
# 3 34.2518 43.0125 113.6189 -0.0043 -6.3419 0.0046
# 4 -0.0003 -0.0005 -0.0043 36.1356 0.0035 -8.7548
# 5 -4.7222 -9.2655 -6.3419 0.0035 28.1491 -0.0029
# 6 0.0010 0.0004 0.0046 -8.7548 -0.0029 32.8072
#
#
#
# Elastic Compliance Matrix: (Units=1/GPa)
#
#
# Indices 1 2 3 4 5 6 
#
# 1 0.023018 0.005592 -0.008849 -0.000001 0.003708 0.000001
# 2 0.005592 0.018546 -0.008419 -0.000001 0.005146 0.000001
# 3 -0.008849 -0.008419 0.014602 0.000001 -0.000966 -0.000001
# 4 -0.000001 -0.000001 0.000001 0.029586 -0.000003 0.007895
# 5 0.003708 0.005146 -0.000966 -0.000003 0.037623 0.000002
# 6 0.000001 0.000001 -0.000001 0.007895 0.000002 0.032588
#
#
# Mechanical properties :
#
#
# Convention : Reuss Voigt Hill
#
# Bulk Modulus (GPa) = 30.47562 44.53879 37.50720
# Shear Modulus (GPa) = 26.28051 30.78337 28.53194
#
# Velocity S-wave (km/s) = 3.35242 3.62827 3.49307
# Velocity P-wave (km/s) = 5.29317 6.04972 5.68405
#
# Compressibility (1/GPa) = 0.03281311
#
# Stress axis : x y z
#
# Youngs Moduli (GPa) = 43.44410 53.92032 68.48222
#
# Poissons Ratio (x) = -0.30150 0.60599
# Poissons Ratio (y) = -0.24292 0.57657
# Poissons Ratio (z) = 0.38443 0.45397
#
# Static dielectric constant tensor:
#      x y z
#    x 1.833850 0.000000 0.028120 
#    y 0.000000 1.860840 0.000000 
#    z 0.028120 0.000000 1.938230 
# 
# From -- ./inp_files/288303.got.cif
#   From: 2010.05.17/outbox.cif.g08.bks.cpg/sg15_145_cif.got.tgz:288303.got - 2010.06.03 18:47:42.
