data_PCOD9286223
_publ_section_title
;
Structure prediction by ZEFSAII (Michael W. Deem and Ramdas Pophale) SiO2 
 PCOD9286223
Probable space group: C 2/C
;
_chemical_formula_sum "Si O2"
_cell_formula_units_Z 48
_cell_length_a 8.829612
_cell_length_b 15.687138
_cell_length_c 26.075099
_cell_angle_alpha 90.000000
_cell_angle_beta 140.335443
_cell_angle_gamma 90.000000
_cell_volume 2305.316358
_symmetry_space_group_name_H-M "C 2/C"
_symmetry_group_IT_number 15
_symmetry_cell_setting 'monoclinic'
loop_
_space_group_symop_operation_xyz
x,y,z
-x,y,1/2-z
-x,-y,-z
x,-y,1/2+z
1/2+x,1/2+y,z
1/2-x,1/2+y,1/2-z
1/2-x,1/2-y,-z
1/2+x,1/2-y,1/2+z
loop_
_atom_site_type_symbol
_atom_site_label
_atom_site_fract_x
_atom_site_fract_y
_atom_site_fract_z
Si Si1 0.791887 0.569760 0.946119
Si Si2 0.003821 0.790714 0.688750
Si Si3 0.028640 0.092837 0.982643
Si Si4 0.428293 0.234612 0.499178
Si Si5 0.508782 0.108219 0.691431
Si Si6 0.111700 0.975031 0.723137
O O1 0.709096 0.589309 0.982441
O O2 0.565049 0.530258 0.858137
O O3 0.000000 0.500000 0.000000
O O4 0.895414 0.655368 0.947731
O O5 0.116537 0.699607 0.702936
O O6 0.129662 0.878879 0.706496
O O7 0.000000 0.788202 0.750000
O O8 0.743009 0.791003 0.593987
O O9 0.072326 0.177447 0.027797
O O10 0.761692 0.110166 0.895033
O O11 0.000000 0.000000 0.000000
O O12 0.250000 0.250000 0.500000
O O13 0.500000 0.102141 0.750000
O O14 0.646475 0.026472 0.707786
O O15 0.000000 0.968084 0.750000
#
# Coordination Sequence:
#
# PCOD9286223 Si02
#       6
#     8   8   8   8   8   8
#     4  12  24  43  67  96 133 172 225 272 334 394
#     4   9  21  41  65  89 128 174 211 268 332 390
#     4  11  25  42  66  97 133 177 217 273 334 394
#     4  11  24  42  69  98 136 171 222 283 333 395
#     4  10  21  43  64  89 130 166 216 268 327 390
#     4  11  24  41  67  96 128 174 219 272 334 399
#
# _framework density 20.821437
#
# number of rings (size 3 to 8) (size 9 to 14) (size 15 to 20)
#    0.000    1.333    3.333    1.500    7.000    0.000 
#    3.000    0.833    0.000    0.000    0.000    0.000 
#    0.000    0.000    0.000    0.000    0.000    0.000 
#
# Total GULP energy -133918.740726 kJ/mol
# GULP energy per Si atom -5579.947530 kJ/mol
# Density = 2.077405 g / cm^3
# Si number density = 20.821437 Si / 1000 Ang^3
#
#
#
# Elastic Constant Matrix: (Units=GPa)
#
#
# Indices 1 2 3 4 5 6 
#
# 1 104.9329 57.1432 -8.7478 0.0000 5.7954 0.0000
# 2 57.1432 184.4224 -8.6324 0.0000 10.4816 0.0000
# 3 -8.7478 -8.6324 25.5180 0.0000 -4.9949 0.0000
# 4 0.0000 0.0000 0.0000 32.7282 0.0000 20.7311
# 5 5.7954 10.4816 -4.9949 0.0000 27.2046 0.0000
# 6 0.0000 0.0000 0.0000 20.7311 0.0000 2.5643
#
#
#
# Elastic Compliance Matrix: (Units=1/GPa)
#
#
# Indices 1 2 3 4 5 6 
#
# 1 0.011672 -0.003452 0.002704 0.000000 -0.000660 0.000000
# 2 -0.003452 0.006622 0.000727 0.000000 -0.001682 0.000000
# 3 0.002704 0.000727 0.041692 0.000000 0.006799 0.000000
# 4 0.000000 0.000000 0.000000 -0.007414 0.000000 0.059942
# 5 -0.000660 -0.001682 0.006799 0.000000 0.038795 0.000000
# 6 0.000000 0.000000 0.000000 0.059942 0.000000 -0.094630
#
#
# Mechanical properties :
#
#
# Convention : Reuss Voigt Hill
#
# Bulk Modulus (GPa) = 16.68243 43.82212 30.25227
# Shear Modulus (GPa) = 298.32966 30.84010 164.58488
#
# Velocity S-wave (km/s) = 11.98295 3.85277 8.90042
# Velocity P-wave (km/s) = 14.12389 6.39407 10.96286
#
# Compressibility (1/GPa) = 0.05994332
#
# Stress axis : x y z
#
# Youngs Moduli (GPa) = 85.67613 151.01807 23.98553
#
# Poissons Ratio (x) = 0.52138 -0.06486
# Poissons Ratio (y) = 0.29579 -0.01744
# Poissons Ratio (z) = -0.23168 -0.10983
#
# Static dielectric constant tensor:
#      x y z
#    x 1.716250 0.000000 -0.034130 
#    y 0.000000 1.850080 0.000000 
#    z -0.034130 0.000000 1.740190 
# 
# From -- ./inp_files/289110.got.cif
#   From: 2010.05.17/outbox.cif.g08.bks.cpg/sg15_145_cif.got.tgz:289110.got - 2010.06.03 18:47:42.
