data_PCOD9286514
_publ_section_title
;
Structure prediction by ZEFSAII (Michael W. Deem and Ramdas Pophale) SiO2 
 PCOD9286514
Probable space group: C 2/C
;
_chemical_formula_sum "Si O2"
_cell_formula_units_Z 40
_cell_length_a 10.481042
_cell_length_b 9.910915
_cell_length_c 17.339181
_cell_angle_alpha 90.000000
_cell_angle_beta 80.885585
_cell_angle_gamma 90.000000
_cell_volume 1778.396001
_symmetry_space_group_name_H-M "C 2/C"
_symmetry_group_IT_number 15
_symmetry_cell_setting 'monoclinic'
loop_
_space_group_symop_operation_xyz
x,y,z
-x,y,1/2-z
-x,-y,-z
x,-y,1/2+z
1/2+x,1/2+y,z
1/2-x,1/2+y,1/2-z
1/2-x,1/2-y,-z
1/2+x,1/2-y,1/2+z
loop_
_atom_site_type_symbol
_atom_site_label
_atom_site_fract_x
_atom_site_fract_y
_atom_site_fract_z
Si Si1 0.647862 0.380163 0.725692
Si Si2 0.151179 0.939811 0.550530
Si Si3 0.097412 0.539282 0.058927
Si Si4 0.042825 0.184376 0.921157
Si Si5 0.705409 0.900948 0.193977
O O1 0.500000 0.428845 0.750000
O O2 0.685888 0.391484 0.632129
O O3 0.650252 0.222806 0.748480
O O4 0.748278 0.469236 0.763425
O O5 0.102849 0.816116 0.502010
O O6 0.262495 0.019671 0.493974
O O7 0.038095 0.047189 0.573311
O O8 0.110028 0.448731 0.134710
O O9 0.049309 0.689190 0.085750
O O10 0.000000 0.500000 0.000000
O O11 0.162083 0.161101 0.853385
#
# Coordination Sequence:
#
# PCOD9286514 Si02
#       5
#     8   8   8   8   8
#     4  12  26  45  66  98 142 181 221 277 342 406
#     4  10  22  41  68  99 131 177 222 283 332 400
#     4  11  23  42  69 103 133 174 230 285 334 398
#     4  10  21  43  70  97 132 174 229 278 337 394
#     4  11  27  44  68 101 137 181 228 276 341 406
#
# _framework density 22.492177999999999
#
# number of rings (size 3 to 8) (size 9 to 14) (size 15 to 20)
#    0.000    1.200    2.000    3.000    2.800    8.000 
#    0.000    0.000    0.000    0.000    0.000    0.000 
#    0.000    0.000    0.000    0.000    0.000    0.000 
#
# Total GULP energy -111786.084582 kJ/mol
# GULP energy per Si atom -5589.304229 kJ/mol
# Density = 2.244098 g / cm^3
# Si number density = 22.492178 Si / 1000 Ang^3
#
#
#
# Elastic Constant Matrix: (Units=GPa)
#
#
# Indices 1 2 3 4 5 6 
#
# 1 70.9288 28.7801 11.5802 0.0000 17.5945 0.0000
# 2 28.7801 109.2535 28.4157 0.0000 17.9582 0.0000
# 3 11.5802 28.4157 66.9134 0.0000 19.6561 0.0000
# 4 0.0000 0.0000 0.0000 26.2731 0.0000 3.2785
# 5 17.5945 17.9582 19.6561 0.0000 34.4113 0.0000
# 6 0.0000 0.0000 0.0000 3.2785 0.0000 46.1095
#
#
#
# Elastic Compliance Matrix: (Units=1/GPa)
#
#
# Indices 1 2 3 4 5 6 
#
# 1 0.017239 -0.003504 0.000669 0.000000 -0.007368 0.000000
# 2 -0.003504 0.011355 -0.003606 0.000000 -0.002074 0.000000
# 3 0.000669 -0.003606 0.019116 0.000000 -0.009379 0.000000
# 4 0.000000 0.000000 0.000000 0.038402 0.000000 -0.002730
# 5 -0.007368 -0.002074 -0.009379 0.000000 0.039267 0.000000
# 6 0.000000 0.000000 0.000000 -0.002730 0.000000 0.021882
#
#
# Mechanical properties :
#
#
# Convention : Reuss Voigt Hill
#
# Bulk Modulus (GPa) = 28.71383 42.73865 35.72624
# Shear Modulus (GPa) = 29.11167 33.24675 31.17921
#
# Velocity S-wave (km/s) = 3.60154 3.84884 3.72724
# Velocity P-wave (km/s) = 5.48531 6.22850 5.86868
#
# Compressibility (1/GPa) = 0.03482643
#
# Stress axis : x y z
#
# Youngs Moduli (GPa) = 58.00844 88.06689 52.31354
#
# Poissons Ratio (x) = 0.30860 -0.03499
# Poissons Ratio (y) = 0.20327 0.18866
# Poissons Ratio (z) = -0.03880 0.31760
#
# Static dielectric constant tensor:
#      x y z
#    x 1.889670 0.000000 -0.004310 
#    y 0.000000 1.858330 0.000000 
#    z -0.004310 0.000000 1.851590 
# 
# From -- ./inp_files/195062.got.cif
#   From: 2010.05.17/outbox.cif.g08.bks.cpg/sg15_98_cif.got.tgz:195062.got - 2010.06.03 18:47:42.
