data_PCOD9286963
_publ_section_title
;
Structure prediction by ZEFSAII (Michael W. Deem and Ramdas Pophale) SiO2 
 PCOD9286963
Probable space group: C 2/C
;
_chemical_formula_sum "Si O2"
_cell_formula_units_Z 52
_cell_length_a 14.363307
_cell_length_b 7.582463
_cell_length_c 31.799228
_cell_angle_alpha 90.000000
_cell_angle_beta 38.082203
_cell_angle_gamma 90.000000
_cell_volume 2136.090441
_symmetry_space_group_name_H-M "C 2/C"
_symmetry_group_IT_number 15
_symmetry_cell_setting 'monoclinic'
loop_
_space_group_symop_operation_xyz
x,y,z
-x,y,1/2-z
-x,-y,-z
x,-y,1/2+z
1/2+x,1/2+y,z
1/2-x,1/2+y,1/2-z
1/2-x,1/2-y,-z
1/2+x,1/2-y,1/2+z
loop_
_atom_site_type_symbol
_atom_site_label
_atom_site_fract_x
_atom_site_fract_y
_atom_site_fract_z
Si Si1 0.500000 0.475801 0.250000
Si Si2 0.530325 0.479479 0.037584
Si Si3 0.319012 0.457296 0.682109
Si Si4 0.079014 0.567199 0.014433
Si Si5 0.590923 0.667488 0.631868
Si Si6 0.629024 0.939611 0.084204
Si Si7 0.903983 0.736881 0.721092
O O1 0.417508 0.362742 0.315008
O O2 0.597913 0.611501 0.243392
O O3 0.395561 0.570109 0.110505
O O4 0.533835 0.267748 0.043616
O O5 0.500000 0.500000 0.000000
O O6 0.692754 0.566687 0.987723
O O7 0.449840 0.570922 0.659683
O O8 0.165636 0.563984 0.733894
O O9 0.299131 0.290232 0.718884
O O10 0.053298 0.448599 0.065018
O O11 0.256355 0.581699 0.940614
O O12 0.000000 0.500000 0.000000
O O13 0.597794 0.871033 0.616734
O O14 0.562567 0.799834 0.141091
#
# Coordination Sequence:
#
# PCOD9286963 Si02
#       7
#     4   8   8   8   8   8   8
#     4  10  26  44  64 102 136 184 230 278 344 408
#     4  11  25  43  69 100 138 176 229 284 342 409
#     4  11  23  45  66  96 138 179 223 279 344 404
#     4  11  24  41  73 100 131 181 231 284 340 409
#     4  10  21  45  68  94 134 182 225 280 333 409
#     4  11  23  48  69 100 136 181 228 286 347 402
#     4  11  27  42  70  99 137 182 228 285 343 412
#
# _framework density 24.343537999999999
#
# number of rings (size 3 to 8) (size 9 to 14) (size 15 to 20)
#    0.000    1.231    3.077    1.846    6.462    3.692 
#    8.308    0.000    0.000    0.000    0.000    0.000 
#    0.000    0.000    0.000    0.000    0.000    0.000 
#
# Total GULP energy -145501.999963 kJ/mol
# GULP energy per Si atom -5596.230768 kJ/mol
# Density = 2.428813 g / cm^3
# Si number density = 24.343538 Si / 1000 Ang^3
#
#
#
# Elastic Constant Matrix: (Units=GPa)
#
#
# Indices 1 2 3 4 5 6 
#
# 1 77.5515 5.7880 36.8476 -0.0085 30.6494 -0.0042
# 2 5.7880 66.5787 29.3668 -0.0972 3.7001 -0.0621
# 3 36.8476 29.3668 131.3619 -0.0131 36.6955 -0.0133
# 4 -0.0085 -0.0972 -0.0131 36.7181 -0.0126 1.4268
# 5 30.6494 3.7001 36.6955 -0.0126 49.8397 -0.0094
# 6 -0.0042 -0.0621 -0.0133 1.4268 -0.0094 34.1911
#
#
#
# Elastic Compliance Matrix: (Units=1/GPa)
#
#
# Indices 1 2 3 4 5 6 
#
# 1 0.017622 0.000040 -0.002422 0.000000 -0.009056 -0.000001
# 2 0.000040 0.016807 -0.004297 0.000043 0.001891 0.000028
# 3 -0.002422 -0.004297 0.011012 -0.000010 -0.006300 -0.000005
# 4 0.000000 0.000043 -0.000010 0.027279 0.000011 -0.001138
# 5 -0.009056 0.001891 -0.006300 0.000011 0.030131 0.000008
# 6 -0.000001 0.000028 -0.000005 -0.001138 0.000008 0.029295
#
#
# Mechanical properties :
#
#
# Convention : Reuss Voigt Hill
#
# Bulk Modulus (GPa) = 31.16970 46.61075 38.89022
# Shear Modulus (GPa) = 32.01070 37.71576 34.86323
#
# Velocity S-wave (km/s) = 3.63017 3.94040 3.78846
# Velocity P-wave (km/s) = 5.51387 6.31593 5.92848
#
# Compressibility (1/GPa) = 0.03208244
#
# Stress axis : x y z
#
# Youngs Moduli (GPa) = 56.74844 59.50059 90.80797
#
# Poissons Ratio (x) = -0.00236 0.21993
# Poissons Ratio (y) = -0.00225 0.39017
# Poissons Ratio (z) = 0.13744 0.25566
#
# Static dielectric constant tensor:
#      x y z
#    x 1.940650 -0.000100 0.030700 
#    y -0.000100 2.027550 0.000230 
#    z 0.030700 0.000230 1.850150 
# 
# From -- ./inp_files/313097.got.cif
#   From: 2010.05.17/outbox.cif.g08.bks.cpg/sg15_157_cif.got.tgz:313097.got - 2010.06.03 18:47:42.
