data_PCOD9286740
_publ_section_title
;
Structure prediction by ZEFSAII (Michael W. Deem and Ramdas Pophale) SiO2 
 PCOD9286740
Probable space group: C 2/C
;
_chemical_formula_sum "Si O2"
_cell_formula_units_Z 60
_cell_length_a 20.431018
_cell_length_b 11.909167
_cell_length_c 17.198027
_cell_angle_alpha 90.000000
_cell_angle_beta 132.835628
_cell_angle_gamma 90.000000
_cell_volume 3068.569642
_symmetry_space_group_name_H-M "C 2/C"
_symmetry_group_IT_number 15
_symmetry_cell_setting 'monoclinic'
loop_
_space_group_symop_operation_xyz
x,y,z
-x,y,1/2-z
-x,-y,-z
x,-y,1/2+z
1/2+x,1/2+y,z
1/2-x,1/2+y,1/2-z
1/2-x,1/2-y,-z
1/2+x,1/2-y,1/2+z
loop_
_atom_site_type_symbol
_atom_site_label
_atom_site_fract_x
_atom_site_fract_y
_atom_site_fract_z
Si Si1 0.356062 0.264544 0.567155
Si Si2 0.838752 0.528684 0.172142
Si Si3 0.000000 0.411497 0.250000
Si Si4 0.221561 0.789656 0.663795
Si Si5 0.592883 0.484959 0.795496
Si Si6 0.591861 0.471096 0.614301
Si Si7 0.264427 0.136748 0.962591
Si Si8 0.790827 0.842143 0.359276
O O1 0.250000 0.250000 0.500000
O O2 0.424899 0.167550 0.648704
O O3 0.386779 0.376107 0.636471
O O4 0.355805 0.287053 0.474945
O O5 0.802583 0.635480 0.192559
O O6 0.777934 0.424131 0.151256
O O7 0.941253 0.490083 0.259725
O O8 0.820574 0.558733 0.066633
O O9 0.138085 0.871870 0.603637
O O10 0.200900 0.683813 0.591626
O O11 0.243582 0.749867 0.768305
O O12 0.500000 0.535775 0.750000
O O13 0.583584 0.448000 0.698690
O O14 0.673025 0.571626 0.871871
O O15 0.500000 0.500000 0.500000
O O16 0.655188 0.578658 0.655377
O O17 0.250000 0.250000 0.000000
#
# Coordination Sequence:
#
# PCOD9286740 Si02
#       8
#     8   8   4   8   8   8   8   8
#     4  12  23  39  70  94 129 176 222 272 329 394
#     4  10  23  42  68  92 134 172 221 271 321 406
#     4  12  24  44  66  98 130 170 230 274 328 390
#     4  10  23  44  66  94 134 177 217 268 345 392
#     4  12  23  40  67 101 127 170 230 268 321 403
#     4  11  25  39  63  97 135 168 217 281 326 388
#     4  10  21  44  67  94 128 182 212 265 336 391
#     4  11  21  42  65  95 131 171 219 273 335 383
#
# _framework density 19.553083999999998
#
# number of rings (size 3 to 8) (size 9 to 14) (size 15 to 20)
#    0.000    1.067    4.667    1.600    3.733    0.000 
#    7.200    0.667    0.000    0.000    0.000    0.000 
#    0.000    0.000    0.000    0.000    0.000    0.000 
#
# Total GULP energy -167440.723431 kJ/mol
# GULP energy per Si atom -5581.357448 kJ/mol
# Density = 1.950858 g / cm^3
# Si number density = 19.553084 Si / 1000 Ang^3
#
#
#
# Elastic Constant Matrix: (Units=GPa)
#
#
# Indices 1 2 3 4 5 6 
#
# 1 74.8212 31.2317 36.5586 0.0000 0.7070 0.0000
# 2 31.2317 86.3693 43.5049 0.0000 5.7180 0.0000
# 3 36.5586 43.5049 106.1020 0.0000 -7.2932 0.0000
# 4 0.0000 0.0000 0.0000 35.3247 0.0000 -1.8668
# 5 0.7070 5.7180 -7.2932 0.0000 40.2608 0.0000
# 6 0.0000 0.0000 0.0000 -1.8668 0.0000 19.7868
#
#
#
# Elastic Compliance Matrix: (Units=1/GPa)
#
#
# Indices 1 2 3 4 5 6 
#
# 1 0.017141 -0.003997 -0.004302 0.000000 -0.000513 0.000000
# 2 -0.003997 0.015942 -0.005377 0.000000 -0.003168 0.000000
# 3 -0.004302 -0.005377 0.013336 0.000000 0.003255 0.000000
# 4 0.000000 0.000000 0.000000 0.028451 0.000000 0.002684
# 5 -0.000513 -0.003168 0.003255 0.000000 0.025887 0.000000
# 6 0.000000 0.000000 0.000000 0.002684 0.000000 0.050792
#
#
# Mechanical properties :
#
#
# Convention : Reuss Voigt Hill
#
# Bulk Modulus (GPa) = 52.45158 54.43143 53.44151
# Shear Modulus (GPa) = 26.98970 29.47427 28.23199
#
# Velocity S-wave (km/s) = 3.71931 3.88673 3.80394
# Velocity P-wave (km/s) = 6.73259 6.93112 6.83258
#
# Compressibility (1/GPa) = 0.01906520
#
# Stress axis : x y z
#
# Youngs Moduli (GPa) = 58.34074 62.72816 74.98606
#
# Poissons Ratio (x) = 0.25073 0.32261
# Poissons Ratio (y) = 0.23320 0.40321
# Poissons Ratio (z) = 0.25100 0.33730
#
# Static dielectric constant tensor:
#      x y z
#    x 1.710300 0.000000 -0.007110 
#    y 0.000000 1.703050 0.000000 
#    z -0.007110 0.000000 1.684750 
# 
# From -- ./inp_files/215216.got.cif
#   From: 2010.05.17/outbox.cif.g08.bks.cpg/sg15_108_cif.got.tgz:215216.got - 2010.06.03 18:47:42.
