data_PCOD9286034
_publ_section_title
;
Structure prediction by ZEFSAII (Michael W. Deem and Ramdas Pophale) SiO2 
 PCOD9286034
Probable space group: C 2/C
;
_chemical_formula_sum "Si O2"
_cell_formula_units_Z 56
_cell_length_a 13.625698
_cell_length_b 8.810923
_cell_length_c 33.294585
_cell_angle_alpha 90.000000
_cell_angle_beta 146.932830
_cell_angle_gamma 90.000000
_cell_volume 2180.949136
_symmetry_space_group_name_H-M "C 2/C"
_symmetry_group_IT_number 15
_symmetry_cell_setting 'monoclinic'
loop_
_space_group_symop_operation_xyz
x,y,z
-x,y,1/2-z
-x,-y,-z
x,-y,1/2+z
1/2+x,1/2+y,z
1/2-x,1/2+y,1/2-z
1/2-x,1/2-y,-z
1/2+x,1/2-y,1/2+z
loop_
_atom_site_type_symbol
_atom_site_label
_atom_site_fract_x
_atom_site_fract_y
_atom_site_fract_z
Si Si1 0.339979 0.028190 0.775224
Si Si2 0.105589 0.761640 0.512655
Si Si3 0.082891 0.219193 0.388459
Si Si4 0.933095 0.900061 0.528060
Si Si5 0.000000 0.620487 0.750000
Si Si6 0.486067 0.285197 0.335926
Si Si7 0.747399 0.120336 0.133859
Si Si8 0.500000 0.373734 0.250000
O O1 0.452079 0.027487 0.772564
O O2 0.387933 0.873112 0.814124
O O3 0.407722 0.181976 0.819586
O O4 0.135115 0.068974 0.694849
O O5 0.071277 0.803281 0.547968
O O6 0.187572 0.781179 0.422325
O O7 0.963103 0.638117 0.447582
O O8 0.052808 0.921030 0.473873
O O9 0.064464 0.142859 0.424953
O O10 0.240091 0.346284 0.445304
O O11 0.150912 0.117883 0.374545
O O12 0.168883 0.729186 0.817424
O O13 0.495150 0.290342 0.290555
O O14 0.823799 0.981828 0.185707
#
# Coordination Sequence:
#
# PCOD9286034 Si02
#       8
#     8   8   8   8   4   8   8   4
#     4  11  25  45  72 105 145 196 252 304 362 444
#     4  10  21  42  70 112 150 195 249 301 372 440
#     4   9  18  38  70 107 148 196 242 296 366 434
#     4   9  18  36  71 111 155 192 239 299 364 444
#     4   9  21  44  74  98 146 196 236 288 372 434
#     4  12  28  46  74 107 146 192 255 303 368 443
#     4   9  21  43  73 105 144 193 236 308 372 438
#     4  11  27  50  74 102 148 194 246 302 382 442
#
# _framework density 25.676893
#
# number of rings (size 3 to 8) (size 9 to 14) (size 15 to 20)
#    0.000    2.000    1.429    0.429   10.000    1.714 
#    0.000    0.714    0.000    0.857    0.000    0.000 
#    0.000    0.000    0.000    0.000    0.000    0.000 
#
# Total GULP energy -156910.197525 kJ/mol
# GULP energy per Si atom -5603.935626 kJ/mol
# Density = 2.561845 g / cm^3
# Si number density = 25.676893 Si / 1000 Ang^3
#
#
#
# Elastic Constant Matrix: (Units=GPa)
#
#
# Indices 1 2 3 4 5 6 
#
# 1 65.8137 14.3729 29.8974 0.0000 22.8618 0.0000
# 2 14.3729 62.3789 30.3869 0.0000 24.2818 0.0000
# 3 29.8974 30.3869 109.8065 -0.0001 31.9326 0.0000
# 4 0.0000 0.0000 -0.0001 94.0524 0.0000 22.7667
# 5 22.8618 24.2818 31.9326 0.0000 59.3845 0.0000
# 6 0.0000 0.0000 0.0000 22.7667 0.0000 45.9511
#
#
#
# Elastic Compliance Matrix: (Units=1/GPa)
#
#
# Indices 1 2 3 4 5 6 
#
# 1 0.018655 -0.000656 -0.003422 0.000000 -0.005073 0.000000
# 2 -0.000656 0.020345 -0.003681 0.000000 -0.006087 0.000000
# 3 -0.003422 -0.003681 0.012134 0.000000 -0.003702 0.000000
# 4 0.000000 0.000000 0.000000 0.012081 0.000000 -0.005986
# 5 -0.005073 -0.006087 -0.003702 0.000000 0.023272 0.000000
# 6 0.000000 0.000000 0.000000 -0.005986 0.000000 0.024728
#
#
# Mechanical properties :
#
#
# Convention : Reuss Voigt Hill
#
# Bulk Modulus (GPa) = 28.07919 43.03482 35.55701
# Shear Modulus (GPa) = 36.07353 50.76706 43.42030
#
# Velocity S-wave (km/s) = 3.75227 4.45134 4.11667
# Velocity P-wave (km/s) = 5.45271 6.57387 6.03936
#
# Compressibility (1/GPa) = 0.03561356
#
# Stress axis : x y z
#
# Youngs Moduli (GPa) = 53.60613 49.15237 82.41284
#
# Poissons Ratio (x) = 0.03227 0.28204
# Poissons Ratio (y) = 0.03519 0.30339
# Poissons Ratio (z) = 0.18345 0.18095
#
# Static dielectric constant tensor:
#      x y z
#    x 2.028620 0.000000 0.015610 
#    y 0.000000 2.003400 0.000000 
#    z 0.015610 0.000000 1.975530 
# 
# From -- ./inp_files/312963.got.cif
#   From: 2010.05.17/outbox.cif.g08.bks.cpg/sg15_157_cif.got.tgz:312963.got - 2010.06.03 18:47:42.
