data_PCOD9286472
_publ_section_title
;
Structure prediction by ZEFSAII (Michael W. Deem and Ramdas Pophale) SiO2 
 PCOD9286472
Probable space group: C 2/C
;
_chemical_formula_sum "Si O2"
_cell_formula_units_Z 60
_cell_length_a 23.226467
_cell_length_b 8.180494
_cell_length_c 13.643155
_cell_angle_alpha 90.000000
_cell_angle_beta 94.568309
_cell_angle_gamma 90.000000
_cell_volume 2584.018297
_symmetry_space_group_name_H-M "C 2/C"
_symmetry_group_IT_number 15
_symmetry_cell_setting 'monoclinic'
loop_
_space_group_symop_operation_xyz
x,y,z
-x,y,1/2-z
-x,-y,-z
x,-y,1/2+z
1/2+x,1/2+y,z
1/2-x,1/2+y,1/2-z
1/2-x,1/2-y,-z
1/2+x,1/2-y,1/2+z
loop_
_atom_site_type_symbol
_atom_site_label
_atom_site_fract_x
_atom_site_fract_y
_atom_site_fract_z
Si Si1 0.048948 0.571589 0.077658
Si Si2 0.000000 0.761701 0.250000
Si Si3 0.759766 0.896883 0.602204
Si Si4 0.179460 0.601567 0.441917
Si Si5 0.435010 0.423778 0.741933
Si Si6 0.240228 0.204208 0.779883
Si Si7 0.626525 0.228582 0.936231
Si Si8 0.632714 0.232052 0.619971
O O1 0.015368 0.652784 0.161070
O O2 0.088106 0.706351 0.027253
O O3 0.092046 0.427931 0.117861
O O4 0.000000 0.500000 0.000000
O O5 0.053993 0.884766 0.273886
O O6 0.721399 0.005776 0.524019
O O7 0.729469 0.761254 0.667593
O O8 0.810765 0.811980 0.549241
O O9 0.781372 0.026711 0.688116
O O10 0.212098 0.671935 0.353766
O O11 0.135396 0.460320 0.404220
O O12 0.151504 0.739966 0.508147
O O13 0.500000 0.353696 0.750000
O O14 0.403940 0.334456 0.649758
O O15 0.402614 0.380256 0.838026
O O16 0.309383 0.205486 0.808291
#
# Coordination Sequence:
#
# PCOD9286472 Si02
#       8
#     8   4   8   8   8   8   8   8
#     4  11  26  47  75 101 137 187 243 297 352 430
#     4  10  28  46  66 106 138 178 244 306 344 408
#     4  11  22  41  65  97 141 178 226 285 341 424
#     4  10  24  42  66 104 137 179 236 281 340 442
#     4  10  23  46  67  97 140 178 233 300 349 417
#     4  11  23  42  66 102 141 183 228 286 345 425
#     4  11  23  45  67 101 132 189 223 287 366 407
#     4  10  21  43  69  96 137 187 224 282 363 409
#
# _framework density 23.219650000000001
#
# number of rings (size 3 to 8) (size 9 to 14) (size 15 to 20)
#    0.400    1.067    1.333    3.600    4.667    2.667 
#   14.400    0.000    0.000    0.000    0.000    0.000 
#    0.000    0.000    0.000    0.000    0.000    0.000 
#
# Total GULP energy -167793.589512 kJ/mol
# GULP energy per Si atom -5593.119650 kJ/mol
# Density = 2.316680 g / cm^3
# Si number density = 23.219650 Si / 1000 Ang^3
#
#
#
# Elastic Constant Matrix: (Units=GPa)
#
#
# Indices 1 2 3 4 5 6 
#
# 1 89.9176 30.2340 61.3466 0.0000 -27.7120 0.0000
# 2 30.2340 70.7235 66.0263 0.0000 -16.5675 0.0000
# 3 61.3466 66.0263 165.1264 0.0000 -37.1825 0.0000
# 4 0.0000 0.0000 0.0000 33.7204 0.0000 -6.9226
# 5 -27.7120 -16.5675 -37.1825 0.0000 40.0279 0.0000
# 6 0.0000 0.0000 0.0000 -6.9226 0.0000 28.6338
#
#
#
# Elastic Compliance Matrix: (Units=1/GPa)
#
#
# Indices 1 2 3 4 5 6 
#
# 1 0.016537 -0.001854 -0.003790 0.000000 0.007161 0.000000
# 2 -0.001854 0.022816 -0.008342 0.000000 0.000411 0.000000
# 3 -0.003790 -0.008342 0.011926 0.000000 0.005001 0.000000
# 4 0.000000 0.000000 0.000000 0.031204 0.000000 0.007544
# 5 0.007161 0.000411 0.005001 0.000000 0.034756 0.000000
# 6 0.000000 0.000000 0.000000 0.007544 0.000000 0.036748
#
#
# Mechanical properties :
#
#
# Convention : Reuss Voigt Hill
#
# Bulk Modulus (GPa) = 42.90366 71.22013 57.06190
# Shear Modulus (GPa) = 26.35346 31.68714 29.02030
#
# Velocity S-wave (km/s) = 3.37258 3.69815 3.53911
# Velocity P-wave (km/s) = 5.80372 6.99814 6.42873
#
# Compressibility (1/GPa) = 0.02330803
#
# Stress axis : x y z
#
# Youngs Moduli (GPa) = 60.46883 43.82858 83.85236
#
# Poissons Ratio (x) = 0.08125 0.31781
# Poissons Ratio (y) = 0.11209 0.69948
# Poissons Ratio (z) = 0.22918 0.36561
#
# Static dielectric constant tensor:
#      x y z
#    x 1.930990 0.000000 0.014330 
#    y 0.000000 1.894440 0.000000 
#    z 0.014330 0.000000 1.888770 
# 
# From -- ./inp_files/171855.got.cif
#   From: 2010.05.17/outbox.cif.g08.bks.cpg/sg15_86_cif.got.tgz:171855.got - 2010.06.03 18:47:42.
