data_PCOD9286903
_publ_section_title
;
Structure prediction by ZEFSAII (Michael W. Deem and Ramdas Pophale) SiO2 
 PCOD9286903
Probable space group: C 2/C
;
_chemical_formula_sum "Si O2"
_cell_formula_units_Z 36
_cell_length_a 9.932724
_cell_length_b 12.669246
_cell_length_c 12.308810
_cell_angle_alpha 90.000000
_cell_angle_beta 63.105028
_cell_angle_gamma 90.000000
_cell_volume 1381.404298
_symmetry_space_group_name_H-M "C 2/C"
_symmetry_group_IT_number 15
_symmetry_cell_setting 'monoclinic'
loop_
_space_group_symop_operation_xyz
x,y,z
-x,y,1/2-z
-x,-y,-z
x,-y,1/2+z
1/2+x,1/2+y,z
1/2-x,1/2+y,1/2-z
1/2-x,1/2-y,-z
1/2+x,1/2-y,1/2+z
loop_
_atom_site_type_symbol
_atom_site_label
_atom_site_fract_x
_atom_site_fract_y
_atom_site_fract_z
Si Si1 0.500425 0.882288 0.041134
Si Si2 0.369139 0.139760 0.368192
Si Si3 0.249939 0.291871 0.231564
Si Si4 0.315097 0.568114 0.518355
Si Si5 0.500000 0.625236 0.250000
O O1 0.376531 0.870856 0.177654
O O2 0.667485 0.868610 0.025344
O O3 0.442299 0.822366 0.955022
O O4 0.500000 0.000000 0.000000
O O5 0.500000 0.083724 0.250000
O O6 0.325888 0.238034 0.308403
O O7 0.241850 0.050863 0.435292
O O8 0.348219 0.360397 0.111885
O O9 0.144982 0.197354 0.224123
O O10 0.444345 0.565959 0.379145
#
# Coordination Sequence:
#
# PCOD9286903 Si02
#       5
#     8   8   8   8   4
#     4  10  21  44  75 103 139 189 243 293 356 434
#     4  11  25  44  76 109 145 191 244 303 367 432
#     4  12  24  44  73 111 144 186 249 304 363 438
#     4  11  24  48  74 105 144 195 249 293 370 437
#     4  12  26  40  76 104 146 192 248 306 354 434
#
# _framework density 26.060438000000001
#
# number of rings (size 3 to 8) (size 9 to 14) (size 15 to 20)
#    0.000    0.889    2.222    5.333    3.111    2.667 
#    0.000    0.000    7.333    0.000    0.000    0.000 
#    0.000    0.000    0.000    0.000    0.000    0.000 
#
# Total GULP energy -100703.852275 kJ/mol
# GULP energy per Si atom -5594.658460 kJ/mol
# Density = 2.600112 g / cm^3
# Si number density = 26.060438 Si / 1000 Ang^3
#
#
#
# Elastic Constant Matrix: (Units=GPa)
#
#
# Indices 1 2 3 4 5 6 
#
# 1 89.3873 33.8912 14.7444 0.0000 22.7366 0.0000
# 2 33.8912 103.6857 65.7384 0.0000 -13.1031 0.0000
# 3 14.7444 65.7384 204.1254 0.0000 -32.4890 0.0000
# 4 0.0000 0.0000 0.0000 11.9755 0.0000 18.2492
# 5 22.7366 -13.1031 -32.4890 0.0000 45.0152 0.0000
# 6 0.0000 0.0000 0.0000 18.2492 0.0000 36.8338
#
#
#
# Elastic Compliance Matrix: (Units=1/GPa)
#
#
# Indices 1 2 3 4 5 6 
#
# 1 0.016392 -0.006132 -0.000916 0.000000 -0.010725 0.000000
# 2 -0.006132 0.014439 -0.003440 0.000000 0.004817 0.000000
# 3 -0.000916 -0.003440 0.006764 0.000000 0.004343 0.000000
# 4 0.000000 0.000000 0.000000 0.340837 0.000000 -0.168867
# 5 -0.010725 0.004817 0.004343 0.000000 0.032169 0.000000
# 6 0.000000 0.000000 0.000000 -0.168867 0.000000 0.110814
#
#
# Mechanical properties :
#
#
# Convention : Reuss Voigt Hill
#
# Bulk Modulus (GPa) = 60.17868 69.54958 64.86413
# Shear Modulus (GPa) = 9.12523 37.61984 23.37254
#
# Velocity S-wave (km/s) = 1.87328 3.80354 2.99801
# Velocity P-wave (km/s) = 5.27456 6.78491 6.07684
#
# Compressibility (1/GPa) = 0.01661718
#
# Stress axis : x y z
#
# Youngs Moduli (GPa) = 61.00678 69.25672 147.83258
#
# Poissons Ratio (x) = 0.42471 0.13544
# Poissons Ratio (y) = 0.37412 0.50860
# Poissons Ratio (z) = 0.05589 0.23827
#
# Static dielectric constant tensor:
#      x y z
#    x 2.169110 0.000000 0.056610 
#    y 0.000000 2.031470 0.000000 
#    z 0.056610 0.000000 2.106990 
# 
# From -- ./inp_files/85348.got.cif
#   From: 2010.05.17/outbox.cif.g08.bks.cpg/sg15_43_cif.got.tgz:85348.got - 2010.06.03 18:47:42.
