data_PCOD9286391
_publ_section_title
;
Structure prediction by ZEFSAII (Michael W. Deem and Ramdas Pophale) SiO2 
 PCOD9286391
Probable space group: C 2/C
;
_chemical_formula_sum "Si O2"
_cell_formula_units_Z 32
_cell_length_a 4.982151
_cell_length_b 21.005677
_cell_length_c 11.540672
_cell_angle_alpha 90.000000
_cell_angle_beta 109.774707
_cell_angle_gamma 90.000000
_cell_volume 1136.549183
_symmetry_space_group_name_H-M "C 2/C"
_symmetry_group_IT_number 15
_symmetry_cell_setting 'monoclinic'
loop_
_space_group_symop_operation_xyz
x,y,z
-x,y,1/2-z
-x,-y,-z
x,-y,1/2+z
1/2+x,1/2+y,z
1/2-x,1/2+y,1/2-z
1/2-x,1/2-y,-z
1/2+x,1/2-y,1/2+z
loop_
_atom_site_type_symbol
_atom_site_label
_atom_site_fract_x
_atom_site_fract_y
_atom_site_fract_z
Si Si1 0.655422 0.501991 0.151424
Si Si2 0.251235 0.869608 0.577173
Si Si3 0.466776 0.753469 0.376196
Si Si4 0.384977 0.111169 0.575770
O O1 0.500000 0.482099 0.250000
O O2 0.906939 0.455794 0.141119
O O3 0.500000 0.500000 0.000000
O O4 0.712828 0.577461 0.169841
O O5 0.515475 0.893579 0.541341
O O6 0.269811 0.795025 0.609793
O O7 0.948897 0.871441 0.463285
O O8 0.500000 0.729616 0.250000
O O9 0.750000 0.750000 0.500000
O O10 0.418598 0.829178 0.357840
#
# Coordination Sequence:
#
# PCOD9286391 Si02
#       4
#     8   8   8   8
#     4  10  22  42  67  98 136 183 237 297 362 436
#     4  10  21  43  67  98 135 184 238 297 361 437
#     4  10  22  42  69 103 144 192 246 308 376 449
#     4  10  22  41  66  99 137 181 233 298 366 434
#
# _framework density 28.155404000000001
#
# number of rings (size 3 to 8) (size 9 to 14) (size 15 to 20)
#    0.000    2.000    0.000    2.250    0.000    4.000 
#    0.000   43.750    0.000    0.000    0.000    0.000 
#    0.000    0.000    0.000    0.000    0.000    0.000 
#
# Total GULP energy -89132.193170 kJ/mol
# GULP energy per Si atom -5570.762073 kJ/mol
# Density = 2.809132 g / cm^3
# Si number density = 28.155404 Si / 1000 Ang^3
#
#
#
# Elastic Constant Matrix: (Units=GPa)
#
#
# Indices 1 2 3 4 5 6 
#
# 1 137.7404 37.7621 71.4125 0.0000 -26.5053 0.0000
# 2 37.7621 244.9932 17.5500 0.0000 -40.8300 0.0000
# 3 71.4125 17.5500 160.3161 0.0000 -29.8800 0.0000
# 4 0.0000 0.0000 0.0000 -33.4263 0.0000 -56.3003
# 5 -26.5053 -40.8300 -29.8800 0.0000 59.7211 0.0000
# 6 0.0000 0.0000 0.0000 -56.3003 0.0000 12.8373
#
#
#
# Elastic Compliance Matrix: (Units=1/GPa)
#
#
# Indices 1 2 3 4 5 6 
#
# 1 0.009928 -0.000951 -0.003990 0.000000 0.001759 0.000000
# 2 -0.000951 0.004699 0.000474 0.000000 0.003027 0.000000
# 3 -0.003990 0.000474 0.008485 0.000000 0.002798 0.000000
# 4 0.000000 0.000000 0.000000 -0.003567 0.000000 -0.015644
# 5 0.001759 0.003027 0.002798 0.000000 0.020995 0.000000
# 6 0.000000 0.000000 0.000000 -0.015644 0.000000 0.009288
#
#
# Mechanical properties :
#
#
# Convention : Reuss Voigt Hill
#
# Bulk Modulus (GPa) = 70.54243 88.49988 79.52115
# Shear Modulus (GPa) = 78.75302 35.58143 57.16722
#
# Velocity S-wave (km/s) = 5.29448 3.55878 4.51090
# Velocity P-wave (km/s) = 7.90471 6.95611 7.44553
#
# Compressibility (1/GPa) = 0.01417587
#
# Stress axis : x y z
#
# Youngs Moduli (GPa) = 100.72242 212.81263 117.85701
#
# Poissons Ratio (x) = 0.20243 0.47030
# Poissons Ratio (y) = 0.09581 -0.05581
# Poissons Ratio (z) = 0.40193 -0.10078
#
# Static dielectric constant tensor:
#      x y z
#    x 2.345100 0.000000 0.252860 
#    y 0.000000 2.340880 0.000000 
#    z 0.252860 0.000000 2.651690 
# 
# From -- ./inp_files/72277.got.cif
#   From: 2010.05.17/outbox.cif.g08.bks.cpg/sg15_37_cif.got.tgz:72277.got - 2010.06.03 18:47:42.
