data_PCOD9286478
_publ_section_title
;
Structure prediction by ZEFSAII (Michael W. Deem and Ramdas Pophale) SiO2 
 PCOD9286478
Probable space group: C 2/C
;
_chemical_formula_sum "Si O2"
_cell_formula_units_Z 44
_cell_length_a 25.659236
_cell_length_b 10.826803
_cell_length_c 19.506905
_cell_angle_alpha 90.000000
_cell_angle_beta 20.568249
_cell_angle_gamma 90.000000
_cell_volume 1903.876373
_symmetry_space_group_name_H-M "C 2/C"
_symmetry_group_IT_number 15
_symmetry_cell_setting 'monoclinic'
loop_
_space_group_symop_operation_xyz
x,y,z
-x,y,1/2-z
-x,-y,-z
x,-y,1/2+z
1/2+x,1/2+y,z
1/2-x,1/2+y,1/2-z
1/2-x,1/2-y,-z
1/2+x,1/2-y,1/2+z
loop_
_atom_site_type_symbol
_atom_site_label
_atom_site_fract_x
_atom_site_fract_y
_atom_site_fract_z
Si Si1 0.699510 0.737650 0.895810
Si Si2 0.018485 0.995120 0.645192
Si Si3 0.217323 0.789511 0.931758
Si Si4 0.500000 0.858767 0.250000
Si Si5 0.296623 0.057998 0.470114
Si Si6 0.467979 0.855483 0.521238
O O1 0.874641 0.714409 0.680377
O O2 0.624052 0.603137 0.979503
O O3 0.626184 0.782635 0.057012
O O4 0.633918 0.831390 0.920227
O O5 0.000000 0.969613 0.750000
O O6 0.090562 0.130591 0.551101
O O7 0.853902 0.993708 0.818853
O O8 0.160830 0.655412 0.023444
O O9 0.367312 0.793590 0.704093
O O10 0.253467 0.864565 0.956587
O O11 0.413729 0.953686 0.306924
O O12 0.500000 0.000000 0.500000
#
# Coordination Sequence:
#
# PCOD9286478 Si02
#       6
#     8   8   8   4   8   8
#     4  12  27  45  74 102 146 196 237 301 364 428
#     4  10  21  43  69  98 134 183 239 293 351 415
#     4  10  23  43  68  98 140 179 238 293 356 423
#     4  12  26  44  68 108 140 182 250 290 356 434
#     4  10  24  40  71 100 136 184 238 296 350 421
#     4  12  27  46  71 108 150 193 238 298 370 434
#
# _framework density 23.110742999999999
#
# number of rings (size 3 to 8) (size 9 to 14) (size 15 to 20)
#    0.000    1.091    2.727    2.182   11.455    2.909 
#    0.000    2.727    0.000    0.000    0.000    0.000 
#    0.000    0.000    0.000    0.000    0.000    0.000 
#
# Total GULP energy -122975.841307 kJ/mol
# GULP energy per Si atom -5589.810968 kJ/mol
# Density = 2.305814 g / cm^3
# Si number density = 23.110743 Si / 1000 Ang^3
#
#
#
# Elastic Constant Matrix: (Units=GPa)
#
#
# Indices 1 2 3 4 5 6 
#
# 1 29.3989 17.7357 12.1331 0.0000 -0.5905 0.0000
# 2 17.7357 77.1339 41.1555 0.0000 -3.3244 -0.0001
# 3 12.1331 41.1555 175.8166 0.0001 3.9993 -0.0001
# 4 0.0000 0.0000 0.0001 36.8620 0.0000 -5.6415
# 5 -0.5905 -3.3244 3.9993 0.0000 33.4600 0.0000
# 6 0.0000 -0.0001 -0.0001 -5.6415 0.0000 16.1479
#
#
#
# Elastic Compliance Matrix: (Units=1/GPa)
#
#
# Indices 1 2 3 4 5 6 
#
# 1 0.039566 -0.008737 -0.000683 0.000000 -0.000088 0.000000
# 2 -0.008737 0.016864 -0.003389 0.000000 0.001926 0.000000
# 3 -0.000683 -0.003389 0.006554 0.000000 -0.001132 0.000000
# 4 0.000000 0.000000 0.000000 0.028661 0.000000 0.010013
# 5 -0.000088 0.001926 -0.001132 0.000000 0.030212 0.000000
# 6 0.000000 0.000000 0.000000 0.010013 0.000000 0.065426
#
#
# Mechanical properties :
#
#
# Convention : Reuss Voigt Hill
#
# Bulk Modulus (GPa) = 26.76172 47.15533 36.95853
# Shear Modulus (GPa) = 22.18727 31.38232 26.78479
#
# Velocity S-wave (km/s) = 3.10182 3.68898 3.40807
# Velocity P-wave (km/s) = 4.94300 6.21234 5.61366
#
# Compressibility (1/GPa) = 0.03736680
#
# Stress axis : x y z
#
# Youngs Moduli (GPa) = 25.27441 59.29671 152.58208
#
# Poissons Ratio (x) = 0.51806 0.10426
# Poissons Ratio (y) = 0.22081 0.51703
# Poissons Ratio (z) = 0.01727 0.20093
#
# Static dielectric constant tensor:
#      x y z
#    x 1.927750 0.000000 -0.035260 
#    y 0.000000 1.890680 0.000000 
#    z -0.035260 0.000000 1.873010 
# 
# From -- ./inp_files/257474.got.cif
#   From: 2010.05.17/outbox.cif.g08.bks.cpg/sg15_129_cif.got.tgz:257474.got - 2010.06.03 18:47:42.
