data_PCOD9286216
_publ_section_title
;
Structure prediction by ZEFSAII (Michael W. Deem and Ramdas Pophale) SiO2 
 PCOD9286216
Probable space group: C 2/C
;
_chemical_formula_sum "Si O2"
_cell_formula_units_Z 48
_cell_length_a 23.411079
_cell_length_b 14.465491
_cell_length_c 13.081909
_cell_angle_alpha 90.000000
_cell_angle_beta 147.553199
_cell_angle_gamma 90.000000
_cell_volume 2376.887607
_symmetry_space_group_name_H-M "C 2/C"
_symmetry_group_IT_number 15
_symmetry_cell_setting 'monoclinic'
loop_
_space_group_symop_operation_xyz
x,y,z
-x,y,1/2-z
-x,-y,-z
x,-y,1/2+z
1/2+x,1/2+y,z
1/2-x,1/2+y,1/2-z
1/2-x,1/2-y,-z
1/2+x,1/2-y,1/2+z
loop_
_atom_site_type_symbol
_atom_site_label
_atom_site_fract_x
_atom_site_fract_y
_atom_site_fract_z
Si Si1 0.626402 0.021882 0.432876
Si Si2 0.246631 0.473739 0.309380
Si Si3 0.427469 0.431669 0.953496
Si Si4 0.241393 0.859513 0.962308
Si Si5 0.572015 0.279479 0.271126
Si Si6 0.193079 0.354839 0.843320
O O1 0.500000 0.020571 0.250000
O O2 0.667098 0.918758 0.460431
O O3 0.674305 0.064119 0.609595
O O4 0.677759 0.088385 0.424967
O O5 0.354161 0.508716 0.418627
O O6 0.266282 0.411835 0.438974
O O7 0.184726 0.567711 0.246220
O O8 0.356729 0.376527 0.763583
O O9 0.500000 0.500000 0.000000
O O10 0.502177 0.365501 0.131592
O O11 0.250000 0.750000 0.000000
O O12 0.500000 0.232400 0.250000
O O13 0.689543 0.309937 0.486905
O O14 0.600507 0.219915 0.213909
#
# Coordination Sequence:
#
# PCOD9286216 Si02
#       6
#     8   8   8   8   8   8
#     4  10  22  41  63  90 127 169 209 253 326 382
#     4  10  21  43  64  83 135 164 203 264 320 377
#     4  11  23  41  65  94 123 170 216 257 323 387
#     4  10  24  42  62  94 128 167 217 265 317 391
#     4  11  21  37  64  92 127 157 215 263 308 369
#     4  10  22  38  61  97 120 166 210 257 312 379
#
# _framework density 20.194476000000002
#
# number of rings (size 3 to 8) (size 9 to 14) (size 15 to 20)
#    0.000    1.667    1.667    3.500    0.000    6.667 
#   12.000    0.000    0.000    0.000    0.000    0.000 
#    0.000    0.000    0.000    0.000    0.000    0.000 
#
# Total GULP energy -133787.433965 kJ/mol
# GULP energy per Si atom -5574.476415 kJ/mol
# Density = 2.014851 g / cm^3
# Si number density = 20.194476 Si / 1000 Ang^3
#
#
#
# Elastic Constant Matrix: (Units=GPa)
#
#
# Indices 1 2 3 4 5 6 
#
# 1 127.6187 31.7306 41.8620 0.0000 8.6984 0.0000
# 2 31.7306 87.9320 23.7320 0.0000 10.3781 0.0000
# 3 41.8620 23.7320 65.8081 0.0000 7.8222 0.0000
# 4 0.0000 0.0000 0.0000 19.9675 0.0000 -6.5678
# 5 8.6984 10.3781 7.8222 0.0000 36.5166 0.0000
# 6 0.0000 0.0000 0.0000 -6.5678 0.0000 24.1051
#
#
#
# Elastic Compliance Matrix: (Units=1/GPa)
#
#
# Indices 1 2 3 4 5 6 
#
# 1 0.010270 -0.002092 -0.005704 0.000000 -0.000630 0.000000
# 2 -0.002092 0.013285 -0.003151 0.000000 -0.002602 0.000000
# 3 -0.005704 -0.003151 0.020207 0.000000 -0.002074 0.000000
# 4 0.000000 0.000000 0.000000 0.055012 0.000000 0.014989
# 5 -0.000630 -0.002602 -0.002074 0.000000 0.028719 0.000000
# 6 0.000000 0.000000 0.000000 0.014989 0.000000 0.045569
#
#
# Mechanical properties :
#
#
# Convention : Reuss Voigt Hill
#
# Bulk Modulus (GPa) = 45.72760 52.88977 49.30869
# Shear Modulus (GPa) = 24.72277 28.38680 26.55478
#
# Velocity S-wave (km/s) = 3.50270 3.75330 3.63016
# Velocity P-wave (km/s) = 6.24911 6.71044 6.48388
#
# Compressibility (1/GPa) = 0.02186863
#
# Stress axis : x y z
#
# Youngs Moduli (GPa) = 97.37212 75.27358 49.48883
#
# Poissons Ratio (x) = 0.15749 0.28226
# Poissons Ratio (y) = 0.20373 0.15592
# Poissons Ratio (z) = 0.55536 0.23716
#
# Static dielectric constant tensor:
#      x y z
#    x 1.700210 0.000000 0.004780 
#    y 0.000000 1.759130 0.000000 
#    z 0.004780 0.000000 1.698940 
# 
# From -- ./inp_files/112987.got.cif
#   From: 2010.05.17/outbox.cif.g08.bks.cpg/sg15_57_cif.got.tgz:112987.got - 2010.06.03 18:47:42.
