data_PCOD9286497
_publ_section_title
;
Structure prediction by ZEFSAII (Michael W. Deem and Ramdas Pophale) SiO2 
 PCOD9286497
Probable space group: C 2/C
;
_chemical_formula_sum "Si O2"
_cell_formula_units_Z 56
_cell_length_a 12.484020
_cell_length_b 8.785762
_cell_length_c 27.821260
_cell_angle_alpha 90.000000
_cell_angle_beta 111.331098
_cell_angle_gamma 90.000000
_cell_volume 2842.436130
_symmetry_space_group_name_H-M "C 2/C"
_symmetry_group_IT_number 15
_symmetry_cell_setting 'monoclinic'
loop_
_space_group_symop_operation_xyz
x,y,z
-x,y,1/2-z
-x,-y,-z
x,-y,1/2+z
1/2+x,1/2+y,z
1/2-x,1/2+y,1/2-z
1/2-x,1/2-y,-z
1/2+x,1/2-y,1/2+z
loop_
_atom_site_type_symbol
_atom_site_label
_atom_site_fract_x
_atom_site_fract_y
_atom_site_fract_z
Si Si1 0.529189 0.616913 0.870824
Si Si2 0.547911 0.589776 0.053876
Si Si3 0.707994 0.157691 0.446872
Si Si4 0.155254 0.827499 0.741633
Si Si5 0.854509 0.316473 0.049618
Si Si6 0.888686 0.812402 0.263809
Si Si7 0.592366 0.693035 0.337581
O O1 0.474345 0.517780 0.904294
O O2 0.619027 0.736174 0.905219
O O3 0.432841 0.704639 0.825365
O O4 0.590991 0.489419 0.847440
O O5 0.680551 0.623751 0.067124
O O6 0.471011 0.740284 0.048739
O O7 0.500000 0.500000 0.000000
O O8 0.750000 0.250000 0.500000
O O9 0.653158 0.997647 0.453528
O O10 0.274282 0.782887 0.736510
O O11 0.149543 0.767977 0.795785
O O12 0.043583 0.770990 0.693589
O O13 0.141297 0.008857 0.744629
O O14 0.853303 0.268161 0.106037
O O15 0.750000 0.250000 0.000000
O O16 0.000000 0.775234 0.250000
#
# Coordination Sequence:
#
# PCOD9286497 Si02
#       7
#     8   8   8   8   8   8   8
#     4  10  22  42  64  94 131 165 215 270 317 379
#     4  11  22  43  65  91 134 173 208 267 330 380
#     4  12  24  42  64  95 132 171 218 266 317 393
#     4  10  21  43  70  90 133 172 211 273 325 382
#     4  11  23  40  68  97 128 170 216 264 324 390
#     4  11  23  43  65  97 129 167 216 270 325 386
#     4   9  20  45  65  93 132 174 213 266 333 380
#
# _framework density 19.701408000000001
#
# number of rings (size 3 to 8) (size 9 to 14) (size 15 to 20)
#    0.000    1.429    5.714    0.857    2.000    5.143 
#    5.143    0.000    0.000    0.000    0.000    0.000 
#    0.000    0.000    0.000    0.000    0.000    0.000 
#
# Total GULP energy -156324.820775 kJ/mol
# GULP energy per Si atom -5583.029313 kJ/mol
# Density = 1.965657 g / cm^3
# Si number density = 19.701408 Si / 1000 Ang^3
#
#
#
# Elastic Constant Matrix: (Units=GPa)
#
#
# Indices 1 2 3 4 5 6 
#
# 1 146.0937 50.5174 34.5583 0.0000 4.7477 0.0000
# 2 50.5174 91.6871 36.3941 0.0000 10.3552 0.0000
# 3 34.5583 36.3941 124.7037 0.0000 13.9370 0.0000
# 4 0.0000 0.0000 0.0000 27.4799 0.0000 11.0635
# 5 4.7477 10.3552 13.9370 0.0000 23.8358 0.0000
# 6 0.0000 0.0000 0.0000 11.0635 0.0000 29.5798
#
#
#
# Elastic Compliance Matrix: (Units=1/GPa)
#
#
# Indices 1 2 3 4 5 6 
#
# 1 0.008612 -0.004364 -0.001212 0.000000 0.000889 0.000000
# 2 -0.004364 0.014823 -0.002669 0.000000 -0.004010 0.000000
# 3 -0.001212 -0.002669 0.009605 0.000000 -0.004215 0.000000
# 4 0.000000 0.000000 0.000000 0.042841 0.000000 -0.016024
# 5 0.000889 -0.004010 -0.004215 0.000000 0.045983 0.000000
# 6 0.000000 0.000000 0.000000 -0.016024 0.000000 0.039800
#
#
# Mechanical properties :
#
#
# Convention : Reuss Voigt Hill
#
# Bulk Modulus (GPa) = 60.42252 67.26933 63.84592
# Shear Modulus (GPa) = 27.22249 32.24675 29.73462
#
# Velocity S-wave (km/s) = 3.72123 4.05010 3.88914
# Velocity P-wave (km/s) = 7.01421 7.48930 7.25564
#
# Compressibility (1/GPa) = 0.01655012
#
# Stress axis : x y z
#
# Youngs Moduli (GPa) = 116.11893 67.46102 104.11401
#
# Poissons Ratio (x) = 0.29441 0.12622
# Poissons Ratio (y) = 0.50676 0.27783
# Poissons Ratio (z) = 0.14077 0.18002
#
# Static dielectric constant tensor:
#      x y z
#    x 1.732050 0.000000 0.005510 
#    y 0.000000 1.673790 0.000000 
#    z 0.005510 0.000000 1.742090 
# 
# From -- ./inp_files/291504.got.cif
#   From: 2010.05.17/outbox.cif.g08.bks.cpg/sg15_146_cif.got.tgz:291504.got - 2010.06.03 18:47:42.
