data_PCOD9286948
_publ_section_title
;
Structure prediction by ZEFSAII (Michael W. Deem and Ramdas Pophale) SiO2 
 PCOD9286948
Probable space group: C 2/C
;
_chemical_formula_sum "Si O2"
_cell_formula_units_Z 40
_cell_length_a 11.850483
_cell_length_b 25.492915
_cell_length_c 5.188517
_cell_angle_alpha 90.000000
_cell_angle_beta 80.546215
_cell_angle_gamma 90.000000
_cell_volume 1546.179682
_symmetry_space_group_name_H-M "C 2/C"
_symmetry_group_IT_number 15
_symmetry_cell_setting 'monoclinic'
loop_
_space_group_symop_operation_xyz
x,y,z
-x,y,1/2-z
-x,-y,-z
x,-y,1/2+z
1/2+x,1/2+y,z
1/2-x,1/2+y,1/2-z
1/2-x,1/2-y,-z
1/2+x,1/2-y,1/2+z
loop_
_atom_site_type_symbol
_atom_site_label
_atom_site_fract_x
_atom_site_fract_y
_atom_site_fract_z
Si Si1 0.606222 0.127704 0.546913
Si Si2 0.075919 0.936218 0.975170
Si Si3 0.343970 0.769034 0.672607
Si Si4 0.328693 0.030154 0.308434
Si Si5 0.198674 0.164603 0.639393
O O1 0.500000 0.107716 0.750000
O O2 0.574075 0.187098 0.474738
O O3 0.631623 0.087094 0.307080
O O4 0.722147 0.136167 0.673173
O O5 0.125997 0.879347 0.028025
O O6 0.000000 0.953487 0.250000
O O7 0.190704 0.968802 0.877109
O O8 0.000000 0.932385 0.750000
O O9 0.250000 0.750000 0.500000
O O10 0.382673 0.711717 0.738392
O O11 0.282705 0.803284 0.917665
O O12 0.365687 0.010989 0.575078
#
# Coordination Sequence:
#
# PCOD9286948 Si02
#       5
#     8   8   8   8   8
#     4  11  24  45  72 103 145 198 245 296 365 435
#     4  12  26  46  77 108 143 190 240 300 372 442
#     4   9  20  41  69  97 147 192 234 290 350 427
#     4  12  27  49  75 103 143 187 244 318 372 427
#     4  10  21  45  67 104 150 187 236 297 354 432
#
# _framework density 25.870214000000001
#
# number of rings (size 3 to 8) (size 9 to 14) (size 15 to 20)
#    0.000    1.200    2.000    3.600    2.800    4.000 
#   10.800    0.000    0.000    0.000    0.000    0.000 
#    0.000    0.000    0.000    0.000    0.000    0.000 
#
# Total GULP energy -111995.898594 kJ/mol
# GULP energy per Si atom -5599.794930 kJ/mol
# Density = 2.581133 g / cm^3
# Si number density = 25.870214 Si / 1000 Ang^3
#
#
#
# Elastic Constant Matrix: (Units=GPa)
#
#
# Indices 1 2 3 4 5 6 
#
# 1 124.7534 42.4881 49.7968 0.0000 -6.2470 0.0000
# 2 42.4881 191.3244 60.3571 0.0000 0.6777 0.0000
# 3 49.7968 60.3571 144.9741 0.0000 -5.6858 0.0000
# 4 0.0000 0.0000 0.0000 56.7210 0.0000 -4.0358
# 5 -6.2470 0.6777 -5.6858 0.0000 36.6452 0.0000
# 6 0.0000 0.0000 0.0000 -4.0358 0.0000 2.8522
#
#
#
# Elastic Compliance Matrix: (Units=1/GPa)
#
#
# Indices 1 2 3 4 5 6 
#
# 1 0.009597 -0.001279 -0.002715 0.000000 0.001238 0.000000
# 2 -0.001279 0.006197 -0.002167 0.000000 -0.000669 0.000000
# 3 -0.002715 -0.002167 0.008769 0.000000 0.000938 0.000000
# 4 0.000000 0.000000 0.000000 0.019604 0.000000 0.027740
# 5 0.001238 -0.000669 0.000938 0.000000 0.027658 0.000000
# 6 0.000000 0.000000 0.000000 0.027740 0.000000 0.389862
#
#
# Mechanical properties :
#
#
# Convention : Reuss Voigt Hill
#
# Bulk Modulus (GPa) = 81.69384 85.14843 83.42113
# Shear Modulus (GPa) = 10.45828 39.80434 25.13131
#
# Velocity S-wave (km/s) = 2.01280 3.92678 3.12017
# Velocity P-wave (km/s) = 6.08677 7.31742 6.73028
#
# Compressibility (1/GPa) = 0.01224083
#
# Stress axis : x y z
#
# Youngs Moduli (GPa) = 104.19525 161.37660 114.03306
#
# Poissons Ratio (x) = 0.20641 0.30966
# Poissons Ratio (y) = 0.13327 0.24708
# Poissons Ratio (z) = 0.28294 0.34966
#
# Static dielectric constant tensor:
#      x y z
#    x 2.027820 0.000000 -0.002290 
#    y 0.000000 2.049040 0.000000 
#    z -0.002290 0.000000 2.126610 
# 
# From -- ./inp_files/4906.got.cif
#   From: 2010.05.17/outbox.cif.g08.bks.cpg/sg15_3_cif.got.tgz:4906.got - 2010.06.03 18:47:42.
