data_PCOD9286806
_publ_section_title
;
Structure prediction by ZEFSAII (Michael W. Deem and Ramdas Pophale) SiO2 
 PCOD9286806
Probable space group: C 2/C
;
_chemical_formula_sum "Si O2"
_cell_formula_units_Z 60
_cell_length_a 11.277342
_cell_length_b 30.231686
_cell_length_c 10.862827
_cell_angle_alpha 90.000000
_cell_angle_beta 48.067658
_cell_angle_gamma 90.000000
_cell_volume 2755.158922
_symmetry_space_group_name_H-M "C 2/C"
_symmetry_group_IT_number 15
_symmetry_cell_setting 'monoclinic'
loop_
_space_group_symop_operation_xyz
x,y,z
-x,y,1/2-z
-x,-y,-z
x,-y,1/2+z
1/2+x,1/2+y,z
1/2-x,1/2+y,1/2-z
1/2-x,1/2-y,-z
1/2+x,1/2-y,1/2+z
loop_
_atom_site_type_symbol
_atom_site_label
_atom_site_fract_x
_atom_site_fract_y
_atom_site_fract_z
Si Si1 0.847432 0.056922 0.034874
Si Si2 0.768791 0.171834 0.897642
Si Si3 0.432283 0.183253 0.054211
Si Si4 0.901679 0.488438 0.191930
Si Si5 0.880925 0.842646 0.589700
Si Si6 0.306621 0.426072 0.289160
Si Si7 0.337127 0.281795 0.107741
Si Si8 0.500000 0.810080 0.250000
O O1 0.744659 0.023026 0.185760
O O2 0.862150 0.104734 0.088765
O O3 0.763877 0.059988 0.958501
O O4 0.031474 0.049825 0.867573
O O5 0.828220 0.126434 0.791382
O O6 0.804621 0.210081 0.775453
O O7 0.577460 0.169840 0.041530
O O8 0.847314 0.176268 0.975473
O O9 0.261573 0.172062 0.224460
O O10 0.428256 0.235844 0.032636
O O11 0.469913 0.162673 0.895101
O O12 0.825783 0.440775 0.214375
O O13 0.000000 0.488378 0.250000
O O14 0.000000 0.500000 0.000000
O O15 0.047266 0.821407 0.516920
O O16 0.165174 0.283886 0.161686
#
# Coordination Sequence:
#
# PCOD9286806 Si02
#       8
#     8   8   8   8   8   8   8   4
#     4  10  22  42  71  96 131 181 219 265 337 417
#     4  10  22  40  62  99 135 169 211 274 343 395
#     4  11  24  38  63  91 131 177 224 277 330 388
#     4  12  25  44  71 105 136 171 225 279 337 408
#     4  11  22  38  67  98 129 168 222 272 338 408
#     4  10  21  44  69  94 138 179 215 268 337 408
#     4  11  22  41  64  93 126 177 223 274 332 395
#     4  10  24  44  60  80 126 176 236 272 334 392
#
# _framework density 21.777328000000001
#
# number of rings (size 3 to 8) (size 9 to 14) (size 15 to 20)
#    0.000    1.333    2.667    3.200    1.867    3.733 
#    4.800    0.000    2.933    0.000    0.000    0.000 
#    0.000    0.000    0.000    0.000    0.000    0.000 
#
# Total GULP energy -167484.347178 kJ/mol
# GULP energy per Si atom -5582.811573 kJ/mol
# Density = 2.172776 g / cm^3
# Si number density = 21.777328 Si / 1000 Ang^3
#
#
#
# Elastic Constant Matrix: (Units=GPa)
#
#
# Indices 1 2 3 4 5 6 
#
# 1 114.4852 37.5324 32.9783 0.0000 -13.5555 0.0000
# 2 37.5324 62.5538 38.6473 0.0000 0.4361 0.0000
# 3 32.9783 38.6473 122.2112 0.0000 -8.8236 0.0000
# 4 0.0000 0.0000 0.0000 25.8288 0.0000 -2.5714
# 5 -13.5555 0.4361 -8.8236 0.0000 34.0505 0.0000
# 6 0.0000 0.0000 0.0000 -2.5714 0.0000 19.7609
#
#
#
# Elastic Compliance Matrix: (Units=1/GPa)
#
#
# Indices 1 2 3 4 5 6 
#
# 1 0.011632 -0.006554 -0.000740 0.000000 0.004523 0.000000
# 2 -0.006554 0.023684 -0.006045 0.000000 -0.004479 0.000000
# 3 -0.000740 -0.006045 0.010474 0.000000 0.002497 0.000000
# 4 0.000000 0.000000 0.000000 0.039225 0.000000 0.005104
# 5 0.004523 -0.004479 0.002497 0.000000 0.031873 0.000000
# 6 0.000000 0.000000 0.000000 0.005104 0.000000 0.051269
#
#
# Mechanical properties :
#
#
# Convention : Reuss Voigt Hill
#
# Bulk Modulus (GPa) = 52.31776 57.50736 54.91256
# Shear Modulus (GPa) = 24.85039 28.60088 26.72563
#
# Velocity S-wave (km/s) = 3.38170 3.62792 3.50697
# Velocity P-wave (km/s) = 6.27088 6.63426 6.45513
#
# Compressibility (1/GPa) = 0.01911397
#
# Stress axis : x y z
#
# Youngs Moduli (GPa) = 85.97053 42.22235 95.47471
#
# Poissons Ratio (x) = 0.27671 0.07063
# Poissons Ratio (y) = 0.56342 0.57711
# Poissons Ratio (z) = 0.06360 0.25522
#
# Static dielectric constant tensor:
#      x y z
#    x 1.812970 0.000000 -0.023910 
#    y 0.000000 1.800470 0.000000 
#    z -0.023910 0.000000 1.831710 
# 
# From -- ./inp_files/92598.got.cif
#   From: 2010.05.17/outbox.cif.g08.bks.cpg/sg15_47_cif.got.tgz:92598.got - 2010.06.03 18:47:42.
