data_PCOD9286194
_publ_section_title
;
Structure prediction by ZEFSAII (Michael W. Deem and Ramdas Pophale) SiO2 
 PCOD9286194
Probable space group: C 2/C
;
_chemical_formula_sum "Si O2"
_cell_formula_units_Z 48
_cell_length_a 17.292734
_cell_length_b 29.256346
_cell_length_c 8.840056
_cell_angle_alpha 90.000000
_cell_angle_beta 147.876094
_cell_angle_gamma 90.000000
_cell_volume 2378.197294
_symmetry_space_group_name_H-M "C 2/C"
_symmetry_group_IT_number 15
_symmetry_cell_setting 'monoclinic'
loop_
_space_group_symop_operation_xyz
x,y,z
-x,y,1/2-z
-x,-y,-z
x,-y,1/2+z
1/2+x,1/2+y,z
1/2-x,1/2+y,1/2-z
1/2-x,1/2-y,-z
1/2+x,1/2-y,1/2+z
loop_
_atom_site_type_symbol
_atom_site_label
_atom_site_fract_x
_atom_site_fract_y
_atom_site_fract_z
Si Si1 0.159917 0.467625 0.469500
Si Si2 0.134748 0.221462 0.712424
Si Si3 0.728875 0.866043 0.620961
Si Si4 0.500000 0.339498 0.250000
Si Si5 0.328031 0.642397 0.939973
Si Si6 0.500000 0.786036 0.250000
Si Si7 0.673777 0.541095 0.571756
O O1 0.159085 0.415577 0.527593
O O2 0.278485 0.500423 0.741562
O O3 0.218782 0.463901 0.395139
O O4 0.000000 0.486291 0.250000
O O5 0.214505 0.186277 0.729083
O O6 0.050477 0.191182 0.693873
O O7 0.022155 0.252588 0.430232
O O8 0.250000 0.250000 0.000000
O O9 0.765082 0.860481 0.503671
O O10 0.633496 0.821104 0.492127
O O11 0.867016 0.866985 0.959690
O O12 0.301381 0.592545 0.822541
O O13 0.500000 0.647142 0.250000
O O14 0.500000 0.538511 0.250000
#
# Coordination Sequence:
#
# PCOD9286194 Si02
#       7
#     8   8   8   4   8   4   8
#     4  11  23  43  65  97 135 173 214 270 340 397
#     4  12  25  40  64  96 128 171 222 268 332 388
#     4  11  24  41  66  93 130 175 214 267 333 390
#     4  12  24  40  64  97 123 164 232 272 312 398
#     4  10  21  43  63  88 132 170 209 269 330 381
#     4  12  24  44  62  91 139 178 208 278 330 386
#     4  10  23  41  69  96 128 171 224 269 331 393
#
# _framework density 20.183353
#
# number of rings (size 3 to 8) (size 9 to 14) (size 15 to 20)
#    0.000    1.000    5.000    1.000    3.500    2.667 
#    0.000    0.000    0.000    0.000    0.000    0.000 
#    0.000    0.000    0.000    0.000    0.000    0.000 
#
# Total GULP energy -133821.952227 kJ/mol
# GULP energy per Si atom -5575.914676 kJ/mol
# Density = 2.013742 g / cm^3
# Si number density = 20.183353 Si / 1000 Ang^3
#
#
#
# Elastic Constant Matrix: (Units=GPa)
#
#
# Indices 1 2 3 4 5 6 
#
# 1 30.2560 11.0600 9.2834 0.0000 -3.1628 0.0000
# 2 11.0600 115.3235 40.4080 0.0000 -18.7901 0.0000
# 3 9.2834 40.4080 96.0829 0.0000 -8.7152 0.0000
# 4 0.0000 0.0000 0.0000 61.8652 0.0000 21.2565
# 5 -3.1628 -18.7901 -8.7152 0.0000 30.4987 0.0000
# 6 0.0000 0.0000 0.0000 21.2565 0.0000 57.0392
#
#
#
# Elastic Compliance Matrix: (Units=1/GPa)
#
#
# Indices 1 2 3 4 5 6 
#
# 1 0.034742 -0.002290 -0.002253 0.000000 0.001548 0.000000
# 2 -0.002290 0.011185 -0.003982 0.000000 0.005515 0.000000
# 3 -0.002253 -0.003982 0.012377 0.000000 0.000850 0.000000
# 4 0.000000 0.000000 0.000000 0.018538 0.000000 -0.006908
# 5 0.001548 0.005515 0.000850 0.000000 0.036590 0.000000
# 6 0.000000 0.000000 0.000000 -0.006908 0.000000 0.020106
#
#
# Mechanical properties :
#
#
# Convention : Reuss Voigt Hill
#
# Bulk Modulus (GPa) = 24.24096 40.35169 32.29632
# Shear Modulus (GPa) = 30.42481 41.94136 36.18308
#
# Velocity S-wave (km/s) = 3.88676 4.56347 4.23864
# Velocity P-wave (km/s) = 5.67266 6.91397 6.32384
#
# Compressibility (1/GPa) = 0.04125250
#
# Stress axis : x y z
#
# Youngs Moduli (GPa) = 28.78398 89.40618 80.79362
#
# Poissons Ratio (x) = 0.20476 0.18204
# Poissons Ratio (y) = 0.06592 0.32174
# Poissons Ratio (z) = 0.06485 0.35604
#
# Static dielectric constant tensor:
#      x y z
#    x 1.753430 0.000000 0.041930 
#    y 0.000000 1.728760 0.000000 
#    z 0.041930 0.000000 1.683720 
# 
# From -- ./inp_files/52907.got.cif
#   From: 2010.05.17/outbox.cif.g08.bks.cpg/sg15_27_cif.got.tgz:52907.got - 2010.06.03 18:47:42.
