data_PCOD9286336
_publ_section_title
;
Structure prediction by ZEFSAII (Michael W. Deem and Ramdas Pophale) SiO2 
 PCOD9286336
Probable space group: C 2/C
;
_chemical_formula_sum "Si O2"
_cell_formula_units_Z 40
_cell_length_a 10.168047
_cell_length_b 16.210679
_cell_length_c 13.926712
_cell_angle_alpha 90.000000
_cell_angle_beta 135.876880
_cell_angle_gamma 90.000000
_cell_volume 1598.169858
_symmetry_space_group_name_H-M "C 2/C"
_symmetry_group_IT_number 15
_symmetry_cell_setting 'monoclinic'
loop_
_space_group_symop_operation_xyz
x,y,z
-x,y,1/2-z
-x,-y,-z
x,-y,1/2+z
1/2+x,1/2+y,z
1/2-x,1/2+y,1/2-z
1/2-x,1/2-y,-z
1/2+x,1/2-y,1/2+z
loop_
_atom_site_type_symbol
_atom_site_label
_atom_site_fract_x
_atom_site_fract_y
_atom_site_fract_z
Si Si1 0.612503 0.295243 0.712228
Si Si2 0.107161 0.588223 0.063405
Si Si3 0.559353 0.323601 0.074204
Si Si4 0.801358 0.444384 0.099968
Si Si5 0.150168 0.361123 0.912307
O O1 0.500000 0.279531 0.750000
O O2 0.714018 0.385864 0.775289
O O3 0.479788 0.288429 0.552100
O O4 0.777676 0.228051 0.790568
O O5 0.946283 0.641002 0.033663
O O6 0.192459 0.598074 0.001803
O O7 0.000000 0.500000 0.000000
O O8 0.358087 0.322962 0.019984
O O9 0.642745 0.413355 0.090349
O O10 0.807242 0.542311 0.088550
O O11 0.000000 0.420517 0.250000
O O12 0.000000 0.334806 0.750000
#
# Coordination Sequence:
#
# PCOD9286336 Si02
#       5
#     8   8   8   8   8
#     4  12  25  43  69  97 134 179 227 276 329 398
#     4  10  22  43  68  95 132 169 219 275 338 390
#     4  12  25  42  68  97 134 178 225 270 331 397
#     4  10  22  41  71  97 131 169 225 276 327 398
#     4  10  21  43  66  99 133 171 215 280 339 390
#
# _framework density 25.028628999999999
#
# number of rings (size 3 to 8) (size 9 to 14) (size 15 to 20)
#    0.000    1.200    4.000    1.800    2.800    0.800 
#    0.000    1.000    0.000    0.000    0.000    0.000 
#    0.000    0.000    0.000    0.000    0.000    0.000 
#
# Total GULP energy -111760.165167 kJ/mol
# GULP energy per Si atom -5588.008258 kJ/mol
# Density = 2.497166 g / cm^3
# Si number density = 25.028629 Si / 1000 Ang^3
#
#
#
# Elastic Constant Matrix: (Units=GPa)
#
#
# Indices 1 2 3 4 5 6 
#
# 1 115.3616 0.3985 -28.4354 0.0000 28.0110 0.0000
# 2 0.3985 78.9221 -2.5432 0.0000 8.7831 0.0000
# 3 -28.4354 -2.5432 49.0723 0.0000 6.2246 0.0000
# 4 0.0000 0.0000 0.0000 37.0713 0.0000 8.4277
# 5 28.0110 8.7831 6.2246 0.0000 41.9829 0.0000
# 6 0.0000 0.0000 0.0000 8.4277 0.0000 43.0848
#
#
#
# Elastic Compliance Matrix: (Units=1/GPa)
#
#
# Indices 1 2 3 4 5 6 
#
# 1 0.013556 0.001424 0.009289 0.000000 -0.010719 0.000000
# 2 0.001424 0.013174 0.002016 0.000000 -0.004005 0.000000
# 3 0.009289 0.002016 0.027216 0.000000 -0.010654 0.000000
# 4 0.000000 0.000000 0.000000 0.028230 0.000000 -0.005522
# 5 -0.010719 -0.004005 -0.010654 0.000000 0.033389 0.000000
# 6 0.000000 0.000000 0.000000 -0.005522 0.000000 0.024290
#
#
# Mechanical properties :
#
#
# Convention : Reuss Voigt Hill
#
# Bulk Modulus (GPa) = 12.59401 20.24398 16.41899
# Shear Modulus (GPa) = 35.49448 42.69021 39.09235
#
# Velocity S-wave (km/s) = 3.76993 4.13444 3.95638
# Velocity P-wave (km/s) = 4.89822 5.55854 5.23879
#
# Compressibility (1/GPa) = 0.07940281
#
# Stress axis : x y z
#
# Youngs Moduli (GPa) = 73.76906 75.90597 36.74258
#
# Poissons Ratio (x) = -0.10808 -0.34129
# Poissons Ratio (y) = -0.10503 -0.07407
# Poissons Ratio (z) = -0.68521 -0.15301
#
# Static dielectric constant tensor:
#      x y z
#    x 1.936670 0.000000 0.017870 
#    y 0.000000 2.090430 0.000000 
#    z 0.017870 0.000000 1.922160 
# 
# From -- ./inp_files/136306.got.cif
#   From: 2010.05.17/outbox.cif.g08.bks.cpg/sg15_69_cif.got.tgz:136306.got - 2010.06.03 18:47:42.
