data_PCOD9286051
_publ_section_title
;
Structure prediction by ZEFSAII (Michael W. Deem and Ramdas Pophale) SiO2 
 PCOD9286051
Probable space group: C 2/C
;
_chemical_formula_sum "Si O2"
_cell_formula_units_Z 44
_cell_length_a 19.226845
_cell_length_b 5.312154
_cell_length_c 17.906992
_cell_angle_alpha 90.000000
_cell_angle_beta 90.131331
_cell_angle_gamma 90.000000
_cell_volume 1828.943042
_symmetry_space_group_name_H-M "C 2/C"
_symmetry_group_IT_number 15
_symmetry_cell_setting 'monoclinic'
loop_
_space_group_symop_operation_xyz
x,y,z
-x,y,1/2-z
-x,-y,-z
x,-y,1/2+z
1/2+x,1/2+y,z
1/2-x,1/2+y,1/2-z
1/2-x,1/2-y,-z
1/2+x,1/2-y,1/2+z
loop_
_atom_site_type_symbol
_atom_site_label
_atom_site_fract_x
_atom_site_fract_y
_atom_site_fract_z
Si Si1 0.268525 0.378717 0.291424
Si Si2 0.529628 0.473888 0.390048
Si Si3 0.229677 0.003150 0.544691
Si Si4 0.094611 0.608550 0.150365
Si Si5 0.000000 0.747536 0.750000
Si Si6 0.411162 0.277454 0.971751
O O1 0.271976 0.639480 0.244667
O O2 0.239946 0.467916 0.372162
O O3 0.342829 0.248406 0.308540
O O4 0.467629 0.291256 0.368877
O O5 0.545111 0.599940 0.311404
O O6 0.583974 0.316521 0.439236
O O7 0.490530 0.678807 0.443179
O O8 0.250000 0.750000 0.500000
O O9 0.146198 0.981086 0.552235
O O10 0.250000 0.250000 0.500000
O O11 0.057595 0.407713 0.204812
O O12 0.114327 0.465324 0.073520
#
# Coordination Sequence:
#
# PCOD9286051 Si02
#       6
#     8   8   8   8   4   8
#     4  12  27  49  78 106 146 204 248 300 380 442
#     4  10  21  42  70  96 140 181 235 297 365 437
#     4  12  26  49  72 107 147 190 253 313 353 435
#     4  11  22  45  70  98 151 183 244 301 366 448
#     4  10  24  40  64 110 142 184 232 308 366 438
#     4  10  22  42  71  99 131 193 239 290 372 433
#
# _framework density 24.057613
#
# number of rings (size 3 to 8) (size 9 to 14) (size 15 to 20)
#    0.000    1.091    1.818    4.364    2.545    1.455 
#    9.818    0.000    0.000    0.000    0.000    0.000 
#    0.000    0.000    0.000    0.000    0.000    0.000 
#
# Total GULP energy -122860.239386 kJ/mol
# GULP energy per Si atom -5584.556336 kJ/mol
# Density = 2.400286 g / cm^3
# Si number density = 24.057613 Si / 1000 Ang^3
#
#
#
# Elastic Constant Matrix: (Units=GPa)
#
#
# Indices 1 2 3 4 5 6 
#
# 1 42.1918 30.7151 19.2729 0.0000 10.1576 0.0000
# 2 30.7151 156.0201 79.5989 0.0000 -5.2045 0.0000
# 3 19.2729 79.5989 166.0489 0.0000 12.5821 0.0000
# 4 0.0000 0.0000 0.0000 62.3978 0.0000 -7.8952
# 5 10.1576 -5.2045 12.5821 0.0000 25.2910 0.0000
# 6 0.0000 0.0000 0.0000 -7.8952 0.0000 43.7066
#
#
#
# Elastic Compliance Matrix: (Units=1/GPa)
#
#
# Indices 1 2 3 4 5 6 
#
# 1 0.032175 -0.007279 0.000881 0.000000 -0.014859 0.000000
# 2 -0.007279 0.010522 -0.004764 0.000000 0.007459 0.000000
# 3 0.000881 -0.004764 0.008630 0.000000 -0.005628 0.000000
# 4 0.000000 0.000000 0.000000 0.016401 0.000000 0.002963
# 5 -0.014859 0.007459 -0.005628 0.000000 0.049842 0.000000
# 6 0.000000 0.000000 0.000000 0.002963 0.000000 0.023415
#
#
# Mechanical properties :
#
#
# Convention : Reuss Voigt Hill
#
# Bulk Modulus (GPa) = 34.47996 69.27050 51.87523
# Shear Modulus (GPa) = 28.90529 41.92399 35.41464
#
# Velocity S-wave (km/s) = 3.47003 4.17903 3.84093
# Velocity P-wave (km/s) = 5.51527 7.22093 6.42495
#
# Compressibility (1/GPa) = 0.02900235
#
# Stress axis : x y z
#
# Youngs Moduli (GPa) = 31.07964 95.03971 115.87048
#
# Poissons Ratio (x) = 0.69182 -0.10207
# Poissons Ratio (y) = 0.22624 0.55203
# Poissons Ratio (z) = -0.02738 0.45279
#
# Static dielectric constant tensor:
#      x y z
#    x 2.087240 0.000000 -0.318590 
#    y 0.000000 2.072230 0.000000 
#    z -0.318590 0.000000 2.541000 
# 
# From -- ./inp_files/212909.got.cif
#   From: 2010.05.17/outbox.cif.g08.bks.cpg/sg15_107_cif.got.tgz:212909.got - 2010.06.03 18:47:42.
