data_PCOD9286106
_publ_section_title
;
Structure prediction by ZEFSAII (Michael W. Deem and Ramdas Pophale) SiO2 
 PCOD9286106
Probable space group: C 2/C
;
_chemical_formula_sum "Si O2"
_cell_formula_units_Z 32
_cell_length_a 12.972023
_cell_length_b 5.034308
_cell_length_c 18.859892
_cell_angle_alpha 90.000000
_cell_angle_beta 70.791378
_cell_angle_gamma 90.000000
_cell_volume 1163.078537
_symmetry_space_group_name_H-M "C 2/C"
_symmetry_group_IT_number 15
_symmetry_cell_setting 'monoclinic'
loop_
_space_group_symop_operation_xyz
x,y,z
-x,y,1/2-z
-x,-y,-z
x,-y,1/2+z
1/2+x,1/2+y,z
1/2-x,1/2+y,1/2-z
1/2-x,1/2-y,-z
1/2+x,1/2-y,1/2+z
loop_
_atom_site_type_symbol
_atom_site_label
_atom_site_fract_x
_atom_site_fract_y
_atom_site_fract_z
Si Si1 0.376930 0.518389 0.500885
Si Si2 0.330036 0.836093 0.137505
Si Si3 0.881567 0.161845 0.284507
Si Si4 0.924988 0.517526 0.406706
O O1 0.500000 0.500000 0.500000
O O2 0.316799 0.396794 0.582462
O O3 0.362272 0.810329 0.472681
O O4 0.381421 0.304777 0.436507
O O5 0.344569 0.725813 0.213338
O O6 0.445938 0.990788 0.101991
O O7 0.223613 0.015850 0.160954
O O8 0.910051 0.407007 0.330620
O O9 0.000000 0.016099 0.250000
#
# Coordination Sequence:
#
# PCOD9286106 Si02
#       4
#     8   8   8   8
#     4  10  21  42  72 102 137 181 232 291 352 415
#     4  10  22  41  68  99 142 187 228 291 356 410
#     4  10  24  43  66 105 144 189 240 289 351 428
#     4  10  23  44  70 104 138 178 237 292 347 421
#
# _framework density 27.513188
#
# number of rings (size 3 to 8) (size 9 to 14) (size 15 to 20)
#    0.000    2.000    0.000    3.000    0.000   12.000 
#    0.000   12.500    0.000    0.000    0.000    0.000 
#    0.000    0.000    0.000    0.000    0.000    0.000 
#
# Total GULP energy -89719.423013 kJ/mol
# GULP energy per Si atom -5607.463938 kJ/mol
# Density = 2.745057 g / cm^3
# Si number density = 27.513188 Si / 1000 Ang^3
#
#
#
# Elastic Constant Matrix: (Units=GPa)
#
#
# Indices 1 2 3 4 5 6 
#
# 1 178.2703 37.0298 62.4876 0.0001 -11.0078 0.0001
# 2 37.0298 74.0733 33.9257 0.0000 -16.1115 0.0002
# 3 62.4876 33.9257 157.0833 0.0000 9.8532 0.0001
# 4 0.0001 0.0000 0.0000 32.6789 0.0000 -13.2048
# 5 -11.0078 -16.1115 9.8532 0.0000 62.7619 0.0001
# 6 0.0001 0.0002 0.0001 -13.2048 0.0001 31.3365
#
#
#
# Elastic Compliance Matrix: (Units=1/GPa)
#
#
# Indices 1 2 3 4 5 6 
#
# 1 0.006952 -0.002169 -0.002362 0.000000 0.001033 0.000000
# 2 -0.002169 0.016965 -0.003081 0.000000 0.004458 0.000000
# 3 -0.002362 -0.003081 0.008127 0.000000 -0.002481 0.000000
# 4 0.000000 0.000000 0.000000 0.036881 0.000000 0.015541
# 5 0.001033 0.004458 -0.002481 0.000000 0.017648 0.000000
# 6 0.000000 0.000000 0.000000 0.015541 0.000000 0.038460
#
#
# Mechanical properties :
#
#
# Convention : Reuss Voigt Hill
#
# Bulk Modulus (GPa) = 59.45152 75.14590 67.29871
# Shear Modulus (GPa) = 34.27888 43.75437 39.01662
#
# Velocity S-wave (km/s) = 3.53357 3.99219 3.76986
# Velocity P-wave (km/s) = 6.18898 6.97295 6.59263
#
# Compressibility (1/GPa) = 0.01682043
#
# Stress axis : x y z
#
# Youngs Moduli (GPa) = 143.85194 58.94458 123.05297
#
# Poissons Ratio (x) = 0.12783 0.29062
# Poissons Ratio (y) = 0.31197 0.37912
# Poissons Ratio (z) = 0.33975 0.18160
#
# Static dielectric constant tensor:
#      x y z
#    x 2.159100 0.000000 -0.046470 
#    y 0.000000 2.150790 0.000000 
#    z -0.046470 0.000000 2.178320 
# 
# From -- ./inp_files/241374.got.cif
#   From: 2010.05.17/outbox.cif.g08.bks.cpg/sg15_121_cif.got.tgz:241374.got - 2010.06.03 18:47:42.
