data_PCOD9286877
_publ_section_title
;
Structure prediction by ZEFSAII (Michael W. Deem and Ramdas Pophale) SiO2 
 PCOD9286877
Probable space group: C 2/C
;
_chemical_formula_sum "Si O2"
_cell_formula_units_Z 48
_cell_length_a 11.519884
_cell_length_b 19.941667
_cell_length_c 11.668309
_cell_angle_alpha 90.000000
_cell_angle_beta 132.846702
_cell_angle_gamma 90.000000
_cell_volume 1965.285331
_symmetry_space_group_name_H-M "C 2/C"
_symmetry_group_IT_number 15
_symmetry_cell_setting 'monoclinic'
loop_
_space_group_symop_operation_xyz
x,y,z
-x,y,1/2-z
-x,-y,-z
x,-y,1/2+z
1/2+x,1/2+y,z
1/2-x,1/2+y,1/2-z
1/2-x,1/2-y,-z
1/2+x,1/2-y,1/2+z
loop_
_atom_site_type_symbol
_atom_site_label
_atom_site_fract_x
_atom_site_fract_y
_atom_site_fract_z
Si Si1 0.880201 0.100841 0.776159
Si Si2 0.500000 0.614198 0.250000
Si Si3 0.553016 0.299046 0.555016
Si Si4 0.500000 0.913543 0.250000
Si Si5 0.520103 0.141540 0.525465
Si Si6 0.669490 0.118765 0.306123
Si Si7 0.669103 0.515964 0.546918
O O1 0.695979 0.111931 0.619330
O O2 0.898938 0.035328 0.871444
O O3 0.000000 0.100174 0.750000
O O4 0.925584 0.160656 0.893523
O O5 0.447512 0.666294 0.317811
O O6 0.602330 0.560870 0.396479
O O7 0.521698 0.221311 0.515177
O O8 0.727276 0.314547 0.623019
O O9 0.530234 0.868959 0.378983
O O10 0.650467 0.957173 0.322538
O O11 0.387478 0.104693 0.361267
O O12 0.500000 0.125914 0.250000
O O13 0.787429 0.062322 0.431149
#
# Coordination Sequence:
#
# PCOD9286877 Si02
#       7
#     8   4   8   4   8   8   8
#     4  10  23  42  65 102 139 187 229 293 355 422
#     4  10  23  46  74 104 141 188 232 308 340 418
#     4  11  24  45  68 106 141 185 240 285 359 415
#     4  10  21  44  72 104 135 188 238 298 346 404
#     4  11  24  43  74 101 142 188 237 294 347 424
#     4  12  26  46  69 104 140 190 231 293 351 424
#     4  10  23  46  69 103 140 180 243 285 360 411
#
# _framework density 24.423933999999999
#
# number of rings (size 3 to 8) (size 9 to 14) (size 15 to 20)
#    0.000    1.333    0.833    3.500    0.000    9.333 
#   18.000    6.667    0.000    0.000    0.000    0.000 
#    0.000    0.000    0.000    0.000    0.000    0.000 
#
# Total GULP energy -134108.072753 kJ/mol
# GULP energy per Si atom -5587.836365 kJ/mol
# Density = 2.436834 g / cm^3
# Si number density = 24.423934 Si / 1000 Ang^3
#
#
#
# Elastic Constant Matrix: (Units=GPa)
#
#
# Indices 1 2 3 4 5 6 
#
# 1 97.9791 16.2910 14.7948 0.0000 -18.5467 0.0000
# 2 16.2910 95.3639 27.0992 0.0000 -22.2627 0.0000
# 3 14.7948 27.0992 114.5100 0.0000 -1.0100 0.0000
# 4 0.0000 0.0000 0.0000 29.5009 0.0000 2.6671
# 5 -18.5467 -22.2627 -1.0100 0.0000 23.9552 0.0000
# 6 0.0000 0.0000 0.0000 2.6671 0.0000 30.9284
#
#
#
# Elastic Compliance Matrix: (Units=1/GPa)
#
#
# Indices 1 2 3 4 5 6 
#
# 1 0.012247 0.000739 -0.001668 0.000000 0.010099 0.000000
# 2 0.000739 0.014602 -0.003428 0.000000 0.013998 0.000000
# 3 -0.001668 -0.003428 0.009724 0.000000 -0.004067 0.000000
# 4 0.000000 0.000000 0.000000 0.034164 0.000000 -0.002946
# 5 0.010099 0.013998 -0.004067 0.000000 0.062401 0.000000
# 6 0.000000 0.000000 0.000000 -0.002946 0.000000 0.032587
#
#
# Mechanical properties :
#
#
# Convention : Reuss Voigt Hill
#
# Bulk Modulus (GPa) = 35.89444 47.13588 41.51516
# Shear Modulus (GPa) = 27.21491 33.52144 30.36818
#
# Velocity S-wave (km/s) = 3.34169 3.70872 3.52998
# Velocity P-wave (km/s) = 5.44220 6.13844 5.80078
#
# Compressibility (1/GPa) = 0.02785946
#
# Stress axis : x y z
#
# Youngs Moduli (GPa) = 81.65386 68.48520 102.84166
#
# Poissons Ratio (x) = -0.05064 0.17156
# Poissons Ratio (y) = -0.06038 0.35250
# Poissons Ratio (z) = 0.13622 0.23474
#
# Static dielectric constant tensor:
#      x y z
#    x 2.083620 0.000000 -0.041080 
#    y 0.000000 1.917340 0.000000 
#    z -0.041080 0.000000 1.524900 
# 
# From -- ./inp_files/89816.got.cif
#   From: 2010.05.17/outbox.cif.g08.bks.cpg/sg15_45_cif.got.tgz:89816.got - 2010.06.03 18:47:42.
