data_PCOD9286686
_publ_section_title
;
Structure prediction by ZEFSAII (Michael W. Deem and Ramdas Pophale) SiO2 
 PCOD9286686
Probable space group: C 2/C
;
_chemical_formula_sum "Si O2"
_cell_formula_units_Z 64
_cell_length_a 28.234410
_cell_length_b 11.834287
_cell_length_c 14.762327
_cell_angle_alpha 90.000000
_cell_angle_beta 143.734370
_cell_angle_gamma 90.000000
_cell_volume 2917.777238
_symmetry_space_group_name_H-M "C 2/C"
_symmetry_group_IT_number 15
_symmetry_cell_setting 'monoclinic'
loop_
_space_group_symop_operation_xyz
x,y,z
-x,y,1/2-z
-x,-y,-z
x,-y,1/2+z
1/2+x,1/2+y,z
1/2-x,1/2+y,1/2-z
1/2-x,1/2-y,-z
1/2+x,1/2-y,1/2+z
loop_
_atom_site_type_symbol
_atom_site_label
_atom_site_fract_x
_atom_site_fract_y
_atom_site_fract_z
Si Si1 0.851438 0.021598 0.475052
Si Si2 0.678444 0.980752 0.137961
Si Si3 0.098979 0.523203 0.712802
Si Si4 0.202877 0.644266 0.024178
Si Si5 0.978095 0.691496 0.448216
Si Si6 0.650761 0.624929 0.362815
Si Si7 0.079761 0.734040 0.436175
Si Si8 0.975287 0.905583 0.535559
O O1 0.866991 0.155054 0.496562
O O2 0.773101 0.976297 0.302421
O O3 0.844158 0.986076 0.568518
O O4 0.925767 0.961463 0.539764
O O5 0.638826 0.981588 0.175434
O O6 0.634995 0.878099 0.018466
O O7 0.670614 0.095236 0.067852
O O8 0.158099 0.575531 0.876130
O O9 0.022246 0.606188 0.586232
O O10 0.073558 0.394818 0.691896
O O11 0.185198 0.774658 0.978301
O O12 0.296565 0.623402 0.147166
O O13 0.045322 0.740723 0.485287
O O14 0.933924 0.797023 0.425064
O O15 0.558609 0.644750 0.200067
O O16 0.000000 0.732904 0.250000
O O17 0.000000 0.000000 0.500000
#
# Coordination Sequence:
#
# PCOD9286686 Si02
#       8
#     8   8   8   8   8   8   8   8
#     4  12  26  43  67 100 138 179 234 286 350 418
#     4  11  26  43  73 103 133 186 232 287 350 414
#     4  10  21  44  65  99 136 171 228 290 337 414
#     4  11  23  44  71  96 136 176 231 280 352 408
#     4  10  22  39  67  94 133 177 222 279 345 405
#     4  11  25  43  69  96 137 180 230 285 346 416
#     4  11  24  46  68  95 143 184 228 283 358 415
#     4  12  23  41  65  98 135 181 228 274 347 424
#
# _framework density 21.934505000000001
#
# number of rings (size 3 to 8) (size 9 to 14) (size 15 to 20)
#    0.000    1.000    3.750    2.625    3.500    0.000 
#    0.000    0.625    0.000    0.000    0.000    0.000 
#    0.000    0.000    0.000    0.000    0.000    0.000 
#
# Total GULP energy -178840.507063 kJ/mol
# GULP energy per Si atom -5588.765846 kJ/mol
# Density = 2.188458 g / cm^3
# Si number density = 21.934505 Si / 1000 Ang^3
#
#
#
# Elastic Constant Matrix: (Units=GPa)
#
#
# Indices 1 2 3 4 5 6 
#
# 1 39.6693 6.3319 4.9005 0.0000 3.2648 0.0000
# 2 6.3319 98.8992 -0.6900 0.0000 3.5444 0.0000
# 3 4.9005 -0.6900 73.4168 0.0000 14.7884 0.0000
# 4 0.0000 0.0000 0.0000 25.3374 0.0000 -0.8649
# 5 3.2648 3.5444 14.7884 0.0000 31.9825 0.0000
# 6 0.0000 0.0000 0.0000 -0.8649 0.0000 36.0498
#
#
#
# Elastic Compliance Matrix: (Units=1/GPa)
#
#
# Indices 1 2 3 4 5 6 
#
# 1 0.025782 -0.001595 -0.001369 0.000000 -0.001822 0.000000
# 2 -0.001595 0.010259 0.000440 0.000000 -0.001178 0.000000
# 3 -0.001369 0.000440 0.015105 0.000000 -0.006893 0.000000
# 4 0.000000 0.000000 0.000000 0.039500 0.000000 0.000948
# 5 -0.001822 -0.001178 -0.006893 0.000000 0.034771 0.000000
# 6 0.000000 0.000000 0.000000 0.000948 0.000000 0.027762
#
#
# Mechanical properties :
#
#
# Convention : Reuss Voigt Hill
#
# Bulk Modulus (GPa) = 21.69282 25.89667 23.79475
# Shear Modulus (GPa) = 28.80317 32.10348 30.45333
#
# Velocity S-wave (km/s) = 3.62766 3.82986 3.73013
# Velocity P-wave (km/s) = 5.24003 5.60260 5.42434
#
# Compressibility (1/GPa) = 0.04609820
#
# Stress axis : x y z
#
# Youngs Moduli (GPa) = 38.78668 97.47837 66.20363
#
# Poissons Ratio (x) = 0.15547 0.09063
# Poissons Ratio (y) = 0.06186 -0.02913
# Poissons Ratio (z) = 0.05309 -0.04290
#
# Static dielectric constant tensor:
#      x y z
#    x 1.803420 0.000000 -0.007780 
#    y 0.000000 1.808770 0.000000 
#    z -0.007780 0.000000 1.853260 
# 
# From -- ./inp_files/177870.got.cif
#   From: 2010.05.17/outbox.cif.g08.bks.cpg/sg15_89_cif.got.tgz:177870.got - 2010.06.03 18:47:42.
