data_PCOD9286962
_publ_section_title
;
Structure prediction by ZEFSAII (Michael W. Deem and Ramdas Pophale) SiO2 
 PCOD9286962
Probable space group: C 2/C
;
_chemical_formula_sum "Si O2"
_cell_formula_units_Z 44
_cell_length_a 24.446708
_cell_length_b 11.494956
_cell_length_c 20.100395
_cell_angle_alpha 90.000000
_cell_angle_beta 160.530851
_cell_angle_gamma 90.000000
_cell_volume 1882.637127
_symmetry_space_group_name_H-M "C 2/C"
_symmetry_group_IT_number 15
_symmetry_cell_setting 'monoclinic'
loop_
_space_group_symop_operation_xyz
x,y,z
-x,y,1/2-z
-x,-y,-z
x,-y,1/2+z
1/2+x,1/2+y,z
1/2-x,1/2+y,1/2-z
1/2-x,1/2-y,-z
1/2+x,1/2-y,1/2+z
loop_
_atom_site_type_symbol
_atom_site_label
_atom_site_fract_x
_atom_site_fract_y
_atom_site_fract_z
Si Si1 0.987612 0.737730 0.447729
Si Si2 0.793186 0.392297 0.623751
Si Si3 0.500000 0.230457 0.250000
Si Si4 0.887482 0.015567 0.805206
Si Si5 0.407265 0.611113 0.076406
Si Si6 0.180407 0.681467 0.118679
O O1 0.925264 0.633029 0.332176
O O2 0.969059 0.697611 0.502749
O O3 0.172986 0.783333 0.661561
O O4 0.879475 0.845552 0.294429
O O5 0.624409 0.315523 0.432774
O O6 0.734615 0.523454 0.563242
O O7 0.884531 0.350915 0.662074
O O8 0.726667 0.941261 0.638977
O O9 0.976866 0.959012 0.843871
O O10 0.000000 0.000000 0.000000
O O11 0.500000 0.643999 0.250000
O O12 0.341509 0.723145 0.963077
#
# Coordination Sequence:
#
# PCOD9286962 Si02
#       6
#     8   8   4   8   8   8
#     4  11  23  42  73  97 133 170 224 287 330 397
#     4  11  22  42  67 103 137 177 218 280 338 402
#     4  10  22  40  64 102 144 172 226 264 344 412
#     4  10  21  45  68  94 133 179 214 273 341 395
#     4  12  25  44  69  95 141 185 216 276 345 402
#     4  11  23  44  68 101 127 177 230 266 342 400
#
# _framework density 23.371472000000001
#
# number of rings (size 3 to 8) (size 9 to 14) (size 15 to 20)
#    0.000    1.091    4.545    4.364    2.545    1.455 
#    3.273    0.000    4.000    0.000    0.000    0.000 
#    0.000    0.000    0.000    0.000    0.000    0.000 
#
# Total GULP energy -122954.541050 kJ/mol
# GULP energy per Si atom -5588.842775 kJ/mol
# Density = 2.331828 g / cm^3
# Si number density = 23.371472 Si / 1000 Ang^3
#
#
#
# Elastic Constant Matrix: (Units=GPa)
#
#
# Indices 1 2 3 4 5 6 
#
# 1 90.1506 21.2763 14.8024 -0.0035 -3.9037 -0.0170
# 2 21.2763 79.4877 17.9432 -0.0047 -10.2060 -0.0234
# 3 14.8024 17.9432 54.9239 -0.0080 -24.0404 -0.0392
# 4 -0.0035 -0.0047 -0.0080 178.7784 -0.0041 685.2950
# 5 -3.9037 -10.2060 -24.0404 -0.0041 43.2056 -0.0198
# 6 -0.0170 -0.0234 -0.0392 685.2950 -0.0198 3250.2451
#
#
#
# Elastic Compliance Matrix: (Units=1/GPa)
#
#
# Indices 1 2 3 4 5 6 
#
# 1 0.012166 -0.002754 -0.002886 0.000000 -0.001157 0.000000
# 2 -0.002754 0.014237 -0.003365 0.000000 0.001242 0.000000
# 3 -0.002886 -0.003365 0.025940 0.000000 0.013378 0.000000
# 4 0.000000 0.000000 0.000000 0.029165 0.000000 -0.006149
# 5 -0.001157 0.001242 0.013378 0.000000 0.030777 0.000000
# 6 0.000000 0.000000 0.000000 -0.006149 0.000000 0.001604
#
#
# Mechanical properties :
#
#
# Convention : Reuss Voigt Hill
#
# Bulk Modulus (GPa) = 29.12645 36.95623 33.04134
# Shear Modulus (GPa) = 34.88147 705.81518 370.34832
#
# Velocity S-wave (km/s) = 3.86745 17.39696 12.60181
# Velocity P-wave (km/s) = 5.69494 20.47891 15.03027
#
# Compressibility (1/GPa) = 0.03433305
#
# Stress axis : x y z
#
# Youngs Moduli (GPa) = 82.19533 70.24078 38.55116
#
# Poissons Ratio (x) = 0.19342 0.11124
# Poissons Ratio (y) = 0.22634 0.12974
# Poissons Ratio (z) = 0.23718 0.23639
#
# Static dielectric constant tensor:
#      x y z
#    x 1.812720 0.000000 -0.033230 
#    y 0.000000 1.890800 0.000000 
#    z -0.033230 0.000000 1.855850 
# 
# From -- ./inp_files/257550.got.cif
#   From: 2010.05.17/outbox.cif.g08.bks.cpg/sg15_129_cif.got.tgz:257550.got - 2010.06.03 18:47:42.
