data_PCOD9286121
_publ_section_title
;
Structure prediction by ZEFSAII (Michael W. Deem and Ramdas Pophale) SiO2 
 PCOD9286121
Probable space group: C 2/C
;
_chemical_formula_sum "Si O2"
_cell_formula_units_Z 64
_cell_length_a 8.481658
_cell_length_b 19.103872
_cell_length_c 28.750117
_cell_angle_alpha 90.000000
_cell_angle_beta 39.238043
_cell_angle_gamma 90.000000
_cell_volume 2946.675502
_symmetry_space_group_name_H-M "C 2/C"
_symmetry_group_IT_number 15
_symmetry_cell_setting 'monoclinic'
loop_
_space_group_symop_operation_xyz
x,y,z
-x,y,1/2-z
-x,-y,-z
x,-y,1/2+z
1/2+x,1/2+y,z
1/2-x,1/2+y,1/2-z
1/2-x,1/2-y,-z
1/2+x,1/2-y,1/2+z
loop_
_atom_site_type_symbol
_atom_site_label
_atom_site_fract_x
_atom_site_fract_y
_atom_site_fract_z
Si Si1 0.460818 0.101331 0.936748
Si Si2 0.257903 0.287500 0.086103
Si Si3 0.877605 0.046098 0.210126
Si Si4 0.242113 0.679311 0.071284
Si Si5 0.575650 0.948094 0.871207
Si Si6 0.028162 0.854601 0.600351
Si Si7 0.021222 0.111954 0.801440
Si Si8 0.237488 0.226891 0.811830
O O1 0.359720 0.155134 0.921230
O O2 0.742380 0.123860 0.884414
O O3 0.485736 0.024500 0.908401
O O4 0.272129 0.106428 0.023167
O O5 0.121820 0.213707 0.107131
O O6 0.250774 0.310724 0.141010
O O7 0.547936 0.281908 0.006381
O O8 0.159140 0.064484 0.163862
O O9 0.859708 0.094233 0.169489
O O10 0.664487 0.056837 0.297259
O O11 0.886175 0.962653 0.201175
O O12 0.369891 0.668377 0.091924
O O13 0.146043 0.606813 0.070804
O O14 0.992713 0.722347 0.134406
O O15 0.196339 0.173415 0.779268
O O16 0.000000 0.107932 0.750000
O O17 0.500000 0.266414 0.750000
#
# Coordination Sequence:
#
# PCOD9286121 Si02
#       8
#     8   8   8   8   8   8   8   8
#     4  10  21  42  72  96 134 180 225 275 337 404
#     4  11  24  45  66  99 140 173 225 289 328 398
#     4  10  22  42  65  95 138 174 218 281 335 401
#     4  11  25  43  66  97 136 180 222 277 334 397
#     4  10  22  41  66  94 136 182 218 277 339 395
#     4  11  24  42  69 101 134 181 225 277 337 403
#     4  11  21  44  68  95 131 175 222 279 338 404
#     4  12  27  40  68  99 130 179 225 275 338 400
#
# _framework density 21.719391999999999
#
# number of rings (size 3 to 8) (size 9 to 14) (size 15 to 20)
#    0.000    1.250    2.500    4.875    3.500    7.500 
#    0.000    0.000    0.000    0.000    0.000    0.000 
#    0.000    0.000    0.000    0.000    0.000    0.000 
#
# Total GULP energy -178897.080125 kJ/mol
# GULP energy per Si atom -5590.533754 kJ/mol
# Density = 2.166996 g / cm^3
# Si number density = 21.719392 Si / 1000 Ang^3
#
#
#
# Elastic Constant Matrix: (Units=GPa)
#
#
# Indices 1 2 3 4 5 6 
#
# 1 33.3421 24.1993 3.6778 0.0039 -10.3119 -0.0036
# 2 24.1993 85.4031 2.8978 0.0044 -3.4671 0.0010
# 3 3.6778 2.8978 37.3387 -0.0093 -7.4888 0.0003
# 4 0.0039 0.0044 -0.0093 23.9506 0.0031 5.5303
# 5 -10.3119 -3.4671 -7.4888 0.0031 41.5590 -0.0044
# 6 -0.0036 0.0010 0.0003 5.5303 -0.0044 19.0188
#
#
#
# Elastic Compliance Matrix: (Units=1/GPa)
#
#
# Indices 1 2 3 4 5 6 
#
# 1 0.041078 -0.011227 -0.001368 -0.000009 0.009009 0.000013
# 2 -0.011227 0.014838 -0.000369 0.000000 -0.001615 -0.000003
# 3 -0.001368 -0.000369 0.027879 0.000011 0.004653 -0.000003
# 4 -0.000009 0.000000 0.000011 0.044758 -0.000005 -0.013015
# 5 0.009009 -0.001615 0.004653 -0.000005 0.027001 0.000009
# 6 0.000013 -0.000003 -0.000003 -0.013015 0.000009 0.056364
#
#
# Mechanical properties :
#
#
# Convention : Reuss Voigt Hill
#
# Bulk Modulus (GPa) = 17.28169 24.18153 20.73161
# Shear Modulus (GPa) = 19.44500 25.25961 22.35231
#
# Velocity S-wave (km/s) = 2.99537 3.41398 3.21150
# Velocity P-wave (km/s) = 4.46510 5.16702 4.82883
#
# Compressibility (1/GPa) = 0.05786470
#
# Stress axis : x y z
#
# Youngs Moduli (GPa) = 24.34384 67.39671 35.86982
#
# Poissons Ratio (x) = 0.75670 0.04906
# Poissons Ratio (y) = 0.27332 0.01325
# Poissons Ratio (z) = 0.03330 0.02490
#
# Static dielectric constant tensor:
#      x y z
#    x 1.786900 -0.000010 0.012860 
#    y -0.000010 1.776200 0.000010 
#    z 0.012860 0.000010 1.816690 
# 
# From -- ./inp_files/308769.got.cif
#   From: 2010.05.17/outbox.cif.g08.bks.cpg/sg15_155_cif.got.tgz:308769.got - 2010.06.03 18:47:42.
