data_PCOD9286018
_publ_section_title
;
Structure prediction by ZEFSAII (Michael W. Deem and Ramdas Pophale) SiO2 
 PCOD9286018
Probable space group: C 2/C
;
_chemical_formula_sum "Si O2"
_cell_formula_units_Z 48
_cell_length_a 19.051855
_cell_length_b 13.103116
_cell_length_c 9.019330
_cell_angle_alpha 90.000000
_cell_angle_beta 115.425350
_cell_angle_gamma 90.000000
_cell_volume 2033.498317
_symmetry_space_group_name_H-M "C 2/C"
_symmetry_group_IT_number 15
_symmetry_cell_setting 'monoclinic'
loop_
_space_group_symop_operation_xyz
x,y,z
-x,y,1/2-z
-x,-y,-z
x,-y,1/2+z
1/2+x,1/2+y,z
1/2-x,1/2+y,1/2-z
1/2-x,1/2-y,-z
1/2+x,1/2-y,1/2+z
loop_
_atom_site_type_symbol
_atom_site_label
_atom_site_fract_x
_atom_site_fract_y
_atom_site_fract_z
Si Si1 0.142043 0.428337 0.356003
Si Si2 0.706168 0.388400 0.821509
Si Si3 0.589637 0.478841 0.054129
Si Si4 0.659993 0.130304 0.526952
Si Si5 0.181852 0.853560 0.484354
Si Si6 0.415381 0.274059 0.610298
O O1 0.091209 0.347587 0.406037
O O2 0.124385 0.544191 0.386892
O O3 0.141539 0.403863 0.179753
O O4 0.138102 0.745278 0.459944
O O5 0.770888 0.413058 0.999381
O O6 0.735686 0.359957 0.684778
O O7 0.646850 0.478648 0.730302
O O8 0.600135 0.359125 0.028973
O O9 0.500000 0.500000 0.000000
O O10 0.618563 0.558710 0.955049
O O11 0.652531 0.701491 0.333755
O O12 0.753913 0.136368 0.584917
O O13 0.500000 0.299975 0.750000
#
# Coordination Sequence:
#
# PCOD9286018 Si02
#       6
#     8   8   8   8   8   8
#     4  12  25  41  69 105 137 189 235 291 347 423
#     4  10  22  41  68 103 134 173 232 292 352 419
#     4  10  21  42  70 100 137 174 232 301 363 423
#     4  11  23  42  65  99 145 178 236 290 341 416
#     4   9  21  42  68 100 137 177 226 296 353 411
#     4  12  23  42  71 101 138 187 235 286 356 428
#
# _framework density 23.604641000000001
#
# number of rings (size 3 to 8) (size 9 to 14) (size 15 to 20)
#    1.000    0.333    3.333    2.500    2.333    0.000 
#    0.000    0.833    0.000    0.000    0.000    0.000 
#    0.000    0.000    0.000    0.000    0.000    0.000 
#
# Total GULP energy -133745.626435 kJ/mol
# GULP energy per Si atom -5572.734435 kJ/mol
# Density = 2.355092 g / cm^3
# Si number density = 23.604641 Si / 1000 Ang^3
#
#
#
# Elastic Constant Matrix: (Units=GPa)
#
#
# Indices 1 2 3 4 5 6 
#
# 1 31.3820 -3.7168 2.5526 0.0000 -2.1861 0.0000
# 2 -3.7168 146.8600 42.0140 0.0000 -24.8608 0.0000
# 3 2.5526 42.0140 42.2629 0.0000 -15.7798 0.0000
# 4 0.0000 0.0000 0.0000 32.1198 0.0000 -4.2557
# 5 -2.1861 -24.8608 -15.7798 0.0000 29.8868 0.0000
# 6 0.0000 0.0000 0.0000 -4.2557 0.0000 24.7566
#
#
#
# Elastic Compliance Matrix: (Units=1/GPa)
#
#
# Indices 1 2 3 4 5 6 
#
# 1 0.032553 0.002155 -0.003176 0.000000 0.002497 0.000000
# 2 0.002155 0.009987 -0.008591 0.000000 0.003929 0.000000
# 3 -0.003176 -0.008591 0.036916 0.000000 0.012113 0.000000
# 4 0.000000 0.000000 0.000000 0.031859 0.000000 0.005477
# 5 0.002497 0.003929 0.012113 0.000000 0.043306 0.000000
# 6 0.000000 0.000000 0.000000 0.005477 0.000000 0.041335
#
#
# Mechanical properties :
#
#
# Convention : Reuss Voigt Hill
#
# Bulk Modulus (GPa) = 16.60266 33.57827 25.09046
# Shear Modulus (GPa) = 21.25339 29.32964 25.29151
#
# Velocity S-wave (km/s) = 3.00391 3.52879 3.27687
# Velocity P-wave (km/s) = 4.36809 5.55511 4.99697
#
# Compressibility (1/GPa) = 0.06023133
#
# Stress axis : x y z
#
# Youngs Moduli (GPa) = 30.71921 100.13448 27.08839
#
# Poissons Ratio (x) = -0.21582 0.08604
# Poissons Ratio (y) = -0.06621 0.23272
# Poissons Ratio (z) = 0.09758 0.86025
#
# Static dielectric constant tensor:
#      x y z
#    x 1.858600 0.000000 -0.024300 
#    y 0.000000 2.303440 0.000000 
#    z -0.024300 0.000000 2.047380 
# 
# From -- ./inp_files/116989.got.cif
#   From: 2010.05.17/outbox.cif.g08.bks.cpg/sg15_59_cif.got.tgz:116989.got - 2010.06.03 18:47:42.
