data_PCOD9286933
_publ_section_title
;
Structure prediction by ZEFSAII (Michael W. Deem and Ramdas Pophale) SiO2 
 PCOD9286933
Probable space group: C 2/C
;
_chemical_formula_sum "Si O2"
_cell_formula_units_Z 48
_cell_length_a 22.678755
_cell_length_b 9.123865
_cell_length_c 18.369378
_cell_angle_alpha 90.000000
_cell_angle_beta 146.995563
_cell_angle_gamma 90.000000
_cell_volume 2070.394283
_symmetry_space_group_name_H-M "C 2/C"
_symmetry_group_IT_number 15
_symmetry_cell_setting 'monoclinic'
loop_
_space_group_symop_operation_xyz
x,y,z
-x,y,1/2-z
-x,-y,-z
x,-y,1/2+z
1/2+x,1/2+y,z
1/2-x,1/2+y,1/2-z
1/2-x,1/2-y,-z
1/2+x,1/2-y,1/2+z
loop_
_atom_site_type_symbol
_atom_site_label
_atom_site_fract_x
_atom_site_fract_y
_atom_site_fract_z
Si Si1 0.130081 0.131836 0.246426
Si Si2 0.240320 0.600739 0.536393
Si Si3 0.162819 0.542757 0.814056
Si Si4 0.711959 0.117865 0.223815
Si Si5 0.461344 0.335475 0.470874
Si Si6 0.437849 0.088333 0.025400
O O1 0.179261 0.284092 0.324848
O O2 0.191891 0.110956 0.233547
O O3 0.006415 0.178858 0.099995
O O4 0.156893 0.987468 0.321945
O O5 0.250000 0.750000 0.500000
O O6 0.191885 0.494507 0.425860
O O7 0.154149 0.623680 0.511307
O O8 0.230148 0.450107 0.822435
O O9 0.041044 0.486694 0.670318
O O10 0.661322 0.281992 0.169232
O O11 0.616134 0.020786 0.088715
O O12 0.500000 0.500000 0.500000
O O13 0.523914 0.231588 0.478361
#
# Coordination Sequence:
#
# PCOD9286933 Si02
#       6
#     8   8   8   8   8   8
#     4  11  24  41  67  97 128 172 220 269 324 394
#     4  11  27  40  65  96 134 171 214 266 338 395
#     4  11  21  43  66  87 132 176 217 257 327 402
#     4  10  22  39  69  97 122 172 217 274 324 378
#     4  11  23  37  66 101 129 158 223 279 320 375
#     4  10  21  45  65  90 127 177 213 269 327 387
#
# _framework density 23.183989
#
# number of rings (size 3 to 8) (size 9 to 14) (size 15 to 20)
#    0.000    1.333    3.333    2.000    9.333    0.000 
#    0.000    0.000    0.000    0.000    0.000    0.000 
#    0.000    0.000    0.000    0.000    0.000    0.000 
#
# Total GULP energy -134002.255098 kJ/mol
# GULP energy per Si atom -5583.427296 kJ/mol
# Density = 2.313122 g / cm^3
# Si number density = 23.183989 Si / 1000 Ang^3
#
#
#
# Elastic Constant Matrix: (Units=GPa)
#
#
# Indices 1 2 3 4 5 6 
#
# 1 69.9130 32.5822 19.2096 0.0000 -14.6841 0.0000
# 2 32.5822 152.1330 17.6700 0.0000 -2.7490 0.0000
# 3 19.2096 17.6700 73.2572 0.0000 -15.8580 0.0000
# 4 0.0000 0.0000 0.0000 45.5128 0.0000 -14.0239
# 5 -14.6841 -2.7490 -15.8580 0.0000 22.8699 0.0000
# 6 0.0000 0.0000 0.0000 -14.0239 0.0000 35.0401
#
#
#
# Elastic Compliance Matrix: (Units=1/GPa)
#
#
# Indices 1 2 3 4 5 6 
#
# 1 0.018633 -0.003597 -0.001791 0.000000 0.010289 0.000000
# 2 -0.003597 0.007460 -0.001367 0.000000 -0.002361 0.000000
# 3 -0.001791 -0.001367 0.016667 0.000000 0.010243 0.000000
# 4 0.000000 0.000000 0.000000 0.025063 0.000000 0.010031
# 5 0.010289 -0.002361 0.010243 0.000000 0.057151 0.000000
# 6 0.000000 0.000000 0.000000 0.010031 0.000000 0.032553
#
#
# Mechanical properties :
#
#
# Convention : Reuss Voigt Hill
#
# Bulk Modulus (GPa) = 34.18810 48.24740 41.21775
# Shear Modulus (GPa) = 27.65702 35.74065 31.69884
#
# Velocity S-wave (km/s) = 3.45764 3.93059 3.70168
# Velocity P-wave (km/s) = 5.54245 6.43857 6.00725
#
# Compressibility (1/GPa) = 0.02924994
#
# Stress axis : x y z
#
# Youngs Moduli (GPa) = 53.66853 134.05501 59.99807
#
# Poissons Ratio (x) = 0.48215 0.10746
# Poissons Ratio (y) = 0.19303 0.08203
# Poissons Ratio (z) = 0.09612 0.18328
#
# Static dielectric constant tensor:
#      x y z
#    x 1.865820 0.000000 0.030930 
#    y 0.000000 2.003280 0.000000 
#    z 0.030930 0.000000 2.054330 
# 
# From -- ./inp_files/257234.got.cif
#   From: 2010.05.17/outbox.cif.g08.bks.cpg/sg15_129_cif.got.tgz:257234.got - 2010.06.03 18:47:42.
