data_PCOD9286071
_publ_section_title
;
Structure prediction by ZEFSAII (Michael W. Deem and Ramdas Pophale) SiO2 
 PCOD9286071
Probable space group: C 2/C
;
_chemical_formula_sum "Si O2"
_cell_formula_units_Z 56
_cell_length_a 13.861754
_cell_length_b 17.439310
_cell_length_c 20.414085
_cell_angle_alpha 90.000000
_cell_angle_beta 150.672890
_cell_angle_gamma 90.000000
_cell_volume 2417.084162
_symmetry_space_group_name_H-M "C 2/C"
_symmetry_group_IT_number 15
_symmetry_cell_setting 'monoclinic'
loop_
_space_group_symop_operation_xyz
x,y,z
-x,y,1/2-z
-x,-y,-z
x,-y,1/2+z
1/2+x,1/2+y,z
1/2-x,1/2+y,1/2-z
1/2-x,1/2-y,-z
1/2+x,1/2-y,1/2+z
loop_
_atom_site_type_symbol
_atom_site_label
_atom_site_fract_x
_atom_site_fract_y
_atom_site_fract_z
Si Si1 0.771198 0.540191 0.633839
Si Si2 0.946315 0.771211 0.784881
Si Si3 0.998514 0.729713 0.529082
Si Si4 0.435839 0.381550 0.002026
Si Si5 0.018753 0.920775 0.330425
Si Si6 0.790438 0.922252 0.546282
Si Si7 0.091834 0.564747 0.599805
O O1 0.694547 0.453460 0.599845
O O2 0.665591 0.595546 0.623466
O O3 0.675730 0.570208 0.510345
O O4 0.000000 0.538895 0.750000
O O5 0.713204 0.780084 0.633414
O O6 0.000000 0.722992 0.750000
O O7 0.999127 0.742067 0.889571
O O8 0.080782 0.848467 0.858102
O O9 0.099790 0.803787 0.557776
O O10 0.104189 0.649887 0.577341
O O11 0.401510 0.375220 0.059645
O O12 0.817469 0.957383 0.239584
O O13 0.000000 0.878735 0.250000
O O14 0.146203 0.995508 0.388869
O O15 0.561437 0.920997 0.431706
O O16 0.000000 0.500000 0.500000
#
# Coordination Sequence:
#
# PCOD9286071 Si02
#       7
#     8   8   8   8   8   8   8
#     4  10  21  42  71 102 142 188 235 292 360 436
#     4  12  24  43  67 107 147 184 223 298 376 431
#     4  12  26  45  70 106 150 189 236 300 365 431
#     4  10  23  43  66 104 143 183 238 296 359 431
#     4  11  22  42  69  95 136 185 242 299 351 424
#     4  11  22  43  69 104 139 183 241 297 361 435
#     4  12  24  42  68 103 133 187 240 294 356 423
#
# _framework density 23.168410999999999
#
# number of rings (size 3 to 8) (size 9 to 14) (size 15 to 20)
#    0.000    0.857    4.286    3.429    0.000    0.571 
#    2.571    1.429    0.000    0.000    0.000    0.000 
#    0.000    0.000    0.000    0.000    0.000    0.000 
#
# Total GULP energy -156082.019461 kJ/mol
# GULP energy per Si atom -5574.357838 kJ/mol
# Density = 2.311568 g / cm^3
# Si number density = 23.168411 Si / 1000 Ang^3
#
#
#
# Elastic Constant Matrix: (Units=GPa)
#
#
# Indices 1 2 3 4 5 6 
#
# 1 108.7039 46.4973 21.9950 -0.0005 -20.0709 0.0003
# 2 46.4973 125.3174 8.4334 0.0002 -10.1743 0.0003
# 3 21.9950 8.4334 65.5329 -0.0010 0.7361 -0.0005
# 4 -0.0005 0.0002 -0.0010 5.2948 -0.0004 11.1763
# 5 -20.0709 -10.1743 0.7361 -0.0004 56.9673 0.0000
# 6 0.0003 0.0003 -0.0005 11.1763 0.0000 14.8203
#
#
#
# Elastic Compliance Matrix: (Units=1/GPa)
#
#
# Indices 1 2 3 4 5 6 
#
# 1 0.012346 -0.004036 -0.003666 -0.000003 0.003676 0.000002
# 2 -0.004036 0.009490 0.000130 0.000001 0.000271 -0.000001
# 3 -0.003666 0.000130 0.016490 -0.000002 -0.001481 0.000002
# 4 -0.000003 0.000001 -0.000002 -0.319146 -0.000003 0.240673
# 5 0.003676 0.000271 -0.001481 -0.000003 0.018917 0.000002
# 6 0.000002 -0.000001 0.000002 0.240673 0.000002 -0.114021
#
#
# Mechanical properties :
#
#
# Convention : Reuss Voigt Hill
#
# Bulk Modulus (GPa) = 43.13369 50.37839 46.75604
# Shear Modulus (GPa) = -14.16215 30.25839 8.04812
#
# Velocity S-wave (km/s) = -2.47507 3.61781 1.86582
# Velocity P-wave (km/s) = 3.23881 6.26443 4.98663
#
# Compressibility (1/GPa) = 0.02318373
#
# Stress axis : x y z
#
# Youngs Moduli (GPa) = 80.99763 105.36970 60.64383
#
# Poissons Ratio (x) = 0.42524 0.22230
# Poissons Ratio (y) = 0.32688 -0.00789
# Poissons Ratio (z) = 0.29691 -0.01371
#
# Static dielectric constant tensor:
#      x y z
#    x 2.045690 0.000000 -0.123550 
#    y 0.000000 1.878520 0.000000 
#    z -0.123550 0.000000 2.143650 
# 
# From -- ./inp_files/245179.got.cif
#   From: 2010.05.17/outbox.cif.g08.bks.cpg/sg15_123_cif.got.tgz:245179.got - 2010.06.03 18:47:42.
