data_PCOD9286364
_publ_section_title
;
Structure prediction by ZEFSAII (Michael W. Deem and Ramdas Pophale) SiO2 
 PCOD9286364
Probable space group: C 2/C
;
_chemical_formula_sum "Si O2"
_cell_formula_units_Z 48
_cell_length_a 13.689620
_cell_length_b 16.796506
_cell_length_c 15.583878
_cell_angle_alpha 90.000000
_cell_angle_beta 145.958421
_cell_angle_gamma 90.000000
_cell_volume 2005.923733
_symmetry_space_group_name_H-M "C 2/C"
_symmetry_group_IT_number 15
_symmetry_cell_setting 'monoclinic'
loop_
_space_group_symop_operation_xyz
x,y,z
-x,y,1/2-z
-x,-y,-z
x,-y,1/2+z
1/2+x,1/2+y,z
1/2-x,1/2+y,1/2-z
1/2-x,1/2-y,-z
1/2+x,1/2-y,1/2+z
loop_
_atom_site_type_symbol
_atom_site_label
_atom_site_fract_x
_atom_site_fract_y
_atom_site_fract_z
Si Si1 0.787601 0.792979 0.936637
Si Si2 0.175647 0.147394 0.747486
Si Si3 0.307768 0.661630 0.920250
Si Si4 0.639281 0.331705 0.773493
Si Si5 0.198868 0.555913 0.987743
Si Si6 0.500000 0.461362 0.250000
Si Si7 0.000000 0.574419 0.250000
O O1 0.771128 0.724521 0.853869
O O2 0.652027 0.865708 0.829616
O O3 0.750000 0.750000 0.000000
O O4 0.980474 0.825075 0.083584
O O5 0.240275 0.115894 0.703073
O O6 0.143004 0.087698 0.801711
O O7 0.253366 0.751934 0.859137
O O8 0.510362 0.658225 0.098601
O O9 0.192956 0.627052 0.914612
O O10 0.500000 0.323670 0.750000
O O11 0.766973 0.404326 0.894533
O O12 0.386036 0.514033 0.103379
O O13 0.062197 0.486575 0.869528
#
# Coordination Sequence:
#
# PCOD9286364 Si02
#       7
#     8   8   8   8   8   4   4
#     4  12  21  42  66  91 124 173 218 256 314 389
#     4  12  24  40  67  94 127 166 222 263 317 375
#     4  11  24  41  65  99 126 165 221 275 307 379
#     4  10  21  43  67  93 127 173 215 259 323 386
#     4  11  23  41  65  92 127 169 210 259 331 389
#     4  12  21  42  65  86 124 178 204 252 325 404
#     4  12  23  38  67  98 122 166 220 258 319 396
#
# _framework density 23.929124999999999
#
# number of rings (size 3 to 8) (size 9 to 14) (size 15 to 20)
#    0.000    0.667    7.500    3.000    3.500    0.667 
#    0.000    0.000    0.000    6.000    0.000    0.000 
#    0.000    0.000    0.000    0.000    0.000    0.000 
#
# Total GULP energy -134062.888512 kJ/mol
# GULP energy per Si atom -5585.953688 kJ/mol
# Density = 2.387466 g / cm^3
# Si number density = 23.929125 Si / 1000 Ang^3
#
#
#
# Elastic Constant Matrix: (Units=GPa)
#
#
# Indices 1 2 3 4 5 6 
#
# 1 28.4183 -3.3069 7.3916 0.0028 -26.6502 0.0010
# 2 -3.3069 110.9625 44.5804 0.0026 -5.6516 0.0013
# 3 7.3916 44.5804 120.7376 0.0045 -15.1364 0.0020
# 4 0.0028 0.0026 0.0045 41.8996 0.0021 22.8409
# 5 -26.6502 -5.6516 -15.1364 0.0021 39.7771 0.0004
# 6 0.0010 0.0013 0.0020 22.8409 0.0004 -0.5934
#
#
#
# Elastic Compliance Matrix: (Units=1/GPa)
#
#
# Indices 1 2 3 4 5 6 
#
# 1 0.098949 0.006365 0.000017 -0.000006 0.067206 -0.000007
# 2 0.006365 0.010991 -0.003904 -0.000001 0.004341 0.000000
# 3 0.000017 -0.003904 0.010138 -0.000001 0.003315 -0.000001
# 4 -0.000006 -0.000001 -0.000001 0.001086 -0.000005 0.041790
# 5 0.067206 0.004341 0.003315 -0.000005 0.072045 -0.000006
# 6 -0.000007 0.000000 -0.000001 0.041790 -0.000006 -0.076659
#
#
# Mechanical properties :
#
#
# Convention : Reuss Voigt Hill
#
# Bulk Modulus (GPa) = 7.99771 39.71652 23.85712
# Shear Modulus (GPa) = 32.62170 30.31356 31.46763
#
# Velocity S-wave (km/s) = 3.69625 3.56308 3.63027
# Velocity P-wave (km/s) = 4.64390 5.79319 5.25009
#
# Compressibility (1/GPa) = 0.12503575
#
# Stress axis : x y z
#
# Youngs Moduli (GPa) = 10.10619 90.98165 98.63516
#
# Poissons Ratio (x) = -0.57908 -0.00172
# Poissons Ratio (y) = -0.06432 0.38506
# Poissons Ratio (z) = -0.00018 0.35518
#
# Static dielectric constant tensor:
#      x y z
#    x 2.155880 0.000000 -0.055110 
#    y 0.000000 1.942970 0.000000 
#    z -0.055110 0.000000 1.952030 
# 
# From -- ./inp_files/56452.got.cif
#   From: 2010.05.17/outbox.cif.g08.bks.cpg/sg15_29_cif.got.tgz:56452.got - 2010.06.03 18:47:42.
