data_PCOD9286578
_publ_section_title
;
Structure prediction by ZEFSAII (Michael W. Deem and Ramdas Pophale) SiO2 
 PCOD9286578
Probable space group: C 2/C
;
_chemical_formula_sum "Si O2"
_cell_formula_units_Z 40
_cell_length_a 16.789014
_cell_length_b 20.459239
_cell_length_c 9.409380
_cell_angle_alpha 90.000000
_cell_angle_beta 146.874118
_cell_angle_gamma 90.000000
_cell_volume 1766.241990
_symmetry_space_group_name_H-M "C 2/C"
_symmetry_group_IT_number 15
_symmetry_cell_setting 'monoclinic'
loop_
_space_group_symop_operation_xyz
x,y,z
-x,y,1/2-z
-x,-y,-z
x,-y,1/2+z
1/2+x,1/2+y,z
1/2-x,1/2+y,1/2-z
1/2-x,1/2-y,-z
1/2+x,1/2-y,1/2+z
loop_
_atom_site_type_symbol
_atom_site_label
_atom_site_fract_x
_atom_site_fract_y
_atom_site_fract_z
Si Si1 0.113191 0.630807 0.547601
Si Si2 0.082886 0.268413 0.225631
Si Si3 0.839584 0.487595 0.977186
Si Si4 0.838750 0.057176 0.537435
Si Si5 0.652633 0.692625 0.785772
O O1 0.066436 0.661351 0.625313
O O2 0.132766 0.553591 0.574109
O O3 0.261640 0.666337 0.724128
O O4 0.000000 0.645052 0.250000
O O5 0.250000 0.250000 0.500000
O O6 0.000000 0.266532 0.250000
O O7 0.002769 0.219863 0.994884
O O8 0.750429 0.514210 0.980388
O O9 0.000000 0.461999 0.250000
O O10 0.745607 0.441253 0.737355
O O11 0.854053 0.129834 0.623120
O O12 0.000000 0.029474 0.750000
O O13 0.750000 0.750000 0.000000
#
# Coordination Sequence:
#
# PCOD9286578 Si02
#       5
#     8   8   8   8   8
#     4  10  21  43  72  97 143 188 227 295 350 427
#     4  12  25  43  67 108 142 180 234 298 356 424
#     4  10  23  49  72 106 145 187 245 295 356 420
#     4  11  25  46  74 107 143 193 236 301 358 428
#     4  11  24  44  71 102 143 186 234 285 364 428
#
# _framework density 22.646953
#
# number of rings (size 3 to 8) (size 9 to 14) (size 15 to 20)
#    0.000    1.200    4.000    1.200    2.800    0.000 
#   14.400    0.000    0.000    0.000    0.000    0.000 
#    0.000    0.000    0.000    0.000    0.000    0.000 
#
# Total GULP energy -111976.291286 kJ/mol
# GULP energy per Si atom -5598.814564 kJ/mol
# Density = 2.259541 g / cm^3
# Si number density = 22.646953 Si / 1000 Ang^3
#
#
#
# Elastic Constant Matrix: (Units=GPa)
#
#
# Indices 1 2 3 4 5 6 
#
# 1 122.1307 39.3539 64.7131 0.0000 8.0357 0.0000
# 2 39.3539 40.0675 42.4198 0.0000 -8.9701 0.0000
# 3 64.7131 42.4198 176.9103 0.0000 17.1820 0.0000
# 4 0.0000 0.0000 0.0000 29.4292 0.0000 -9.7539
# 5 8.0357 -8.9701 17.1820 0.0000 38.4594 0.0000
# 6 0.0000 0.0000 0.0000 -9.7539 0.0000 1.3668
#
#
#
# Elastic Compliance Matrix: (Units=1/GPa)
#
#
# Indices 1 2 3 4 5 6 
#
# 1 0.013392 -0.012979 -0.001276 0.000000 -0.005255 0.000000
# 2 -0.012979 0.052200 -0.009633 0.000000 0.019190 0.000000
# 3 -0.001276 -0.009633 0.009013 0.000000 -0.006006 0.000000
# 4 0.000000 0.000000 0.000000 -0.024890 0.000000 -0.177619
# 5 -0.005255 0.019190 -0.006006 0.000000 0.034259 0.000000
# 6 0.000000 0.000000 0.000000 -0.177619 0.000000 -0.535906
#
#
# Mechanical properties :
#
#
# Convention : Reuss Voigt Hill
#
# Bulk Modulus (GPa) = 37.27324 70.23135 53.75229
# Shear Modulus (GPa) = -12.65140 26.69252 7.02056
#
# Velocity S-wave (km/s) = -2.36611 3.43685 1.76259
# Velocity P-wave (km/s) = 3.00491 6.84310 5.28476
#
# Compressibility (1/GPa) = 0.02682890
#
# Stress axis : x y z
#
# Youngs Moduli (GPa) = 74.67062 19.15701 110.95592
#
# Poissons Ratio (x) = 0.24864 0.14161
# Poissons Ratio (y) = 0.96914 1.06882
# Poissons Ratio (z) = 0.09530 0.18454
#
# Static dielectric constant tensor:
#      x y z
#    x 1.865790 0.000000 0.011040 
#    y 0.000000 1.832650 0.000000 
#    z 0.011040 0.000000 1.856260 
# 
# From -- ./inp_files/51703.got.cif
#   From: 2010.05.17/outbox.cif.g08.bks.cpg/sg15_26_cif.got.tgz:51703.got - 2010.06.03 18:47:42.
