data_PCOD9286298
_publ_section_title
;
Structure prediction by ZEFSAII (Michael W. Deem and Ramdas Pophale) SiO2 
 PCOD9286298
Probable space group: C 2/C
;
_chemical_formula_sum "Si O2"
_cell_formula_units_Z 28
_cell_length_a 10.818968
_cell_length_b 15.053204
_cell_length_c 12.881829
_cell_angle_alpha 90.000000
_cell_angle_beta 138.246773
_cell_angle_gamma 90.000000
_cell_volume 1397.065521
_symmetry_space_group_name_H-M "C 2/C"
_symmetry_group_IT_number 15
_symmetry_cell_setting 'monoclinic'
loop_
_space_group_symop_operation_xyz
x,y,z
-x,y,1/2-z
-x,-y,-z
x,-y,1/2+z
1/2+x,1/2+y,z
1/2-x,1/2+y,1/2-z
1/2-x,1/2-y,-z
1/2+x,1/2-y,1/2+z
loop_
_atom_site_type_symbol
_atom_site_label
_atom_site_fract_x
_atom_site_fract_y
_atom_site_fract_z
Si Si1 0.842254 0.799594 0.857155
Si Si2 0.904828 0.870355 0.301210
Si Si3 0.807847 0.542094 0.344908
Si Si4 0.500000 0.357142 0.750000
O O1 0.753334 0.703870 0.812327
O O2 0.979281 0.802304 0.842892
O O3 0.687146 0.873705 0.729151
O O4 0.951456 0.832513 0.025439
O O5 0.815331 0.963133 0.280336
O O6 0.000000 0.883910 0.250000
O O7 0.684271 0.581781 0.362371
O O8 0.000000 0.500000 0.500000
#
# Coordination Sequence:
#
# PCOD9286298 Si02
#       4
#     8   8   8   4
#     4  10  23  40  64  94 127 163 211 260 314 366
#     4  12  22  41  65  90 132 164 213 261 307 373
#     4  10  21  43  66  92 126 165 207 257 321 370
#     4   8  22  44  62  90 134 148 220 254 308 378
#
# _framework density 20.042009
#
# number of rings (size 3 to 8) (size 9 to 14) (size 15 to 20)
#    1.714    0.000    1.429    3.429    0.000    1.143 
#    0.000    2.857    0.000    0.000    0.000    0.000 
#    0.000    0.000    0.000    0.000    0.000    0.000 
#
# Total GULP energy -78023.665810 kJ/mol
# GULP energy per Si atom -5573.118986 kJ/mol
# Density = 1.999639 g / cm^3
# Si number density = 20.042009 Si / 1000 Ang^3
#
#
#
# Elastic Constant Matrix: (Units=GPa)
#
#
# Indices 1 2 3 4 5 6 
#
# 1 53.7324 -2.0872 7.7370 0.0000 1.3854 0.0000
# 2 -2.0872 72.7342 -30.7884 0.0000 3.5764 0.0001
# 3 7.7370 -30.7884 45.5288 0.0000 -5.1231 0.0000
# 4 0.0000 0.0000 0.0000 39.2303 0.0000 21.9494
# 5 1.3854 3.5764 -5.1231 0.0000 29.7809 0.0000
# 6 0.0000 0.0001 0.0000 21.9494 0.0000 57.1294
#
#
#
# Elastic Compliance Matrix: (Units=1/GPa)
#
#
# Indices 1 2 3 4 5 6 
#
# 1 0.019211 -0.001161 -0.004216 0.000000 -0.001480 0.000000
# 2 -0.001161 0.019333 0.013273 0.000000 0.000016 0.000000
# 3 -0.004216 0.013273 0.032121 0.000000 0.004128 0.000000
# 4 0.000000 0.000000 0.000000 0.032470 0.000000 -0.012475
# 5 -0.001480 0.000016 0.004128 0.000000 0.034356 0.000000
# 6 0.000000 0.000000 0.000000 -0.012475 0.000000 0.022297
#
#
# Mechanical properties :
#
#
# Convention : Reuss Voigt Hill
#
# Bulk Modulus (GPa) = 11.56649 13.52426 12.54537
# Shear Modulus (GPa) = 28.93282 38.37039 33.65161
#
# Velocity S-wave (km/s) = 3.80361 4.38024 4.10207
# Velocity P-wave (km/s) = 5.00735 5.68724 5.35809
#
# Compressibility (1/GPa) = 0.08645665
#
# Stress axis : x y z
#
# Youngs Moduli (GPa) = 52.05391 51.72517 31.13273
#
# Poissons Ratio (x) = 0.06003 0.13125
# Poissons Ratio (y) = 0.06041 -0.41321
# Poissons Ratio (z) = 0.21946 -0.68653
#
# Static dielectric constant tensor:
#      x y z
#    x 1.705020 0.000000 0.023780 
#    y 0.000000 1.706220 0.000000 
#    z 0.023780 0.000000 1.697840 
# 
# From -- ./inp_files/27345.got.cif
#   From: 2010.05.17/outbox.cif.g08.bks.cpg/sg15_14_cif.got.tgz:27345.got - 2010.06.03 18:47:42.
