data_PCOD9286927
_publ_section_title
;
Structure prediction by ZEFSAII (Michael W. Deem and Ramdas Pophale) SiO2 
 PCOD9286927
Probable space group: C 2/C
;
_chemical_formula_sum "Si O2"
_cell_formula_units_Z 48
_cell_length_a 13.283456
_cell_length_b 18.592365
_cell_length_c 9.647608
_cell_angle_alpha 90.000000
_cell_angle_beta 91.239384
_cell_angle_gamma 90.000000
_cell_volume 2382.120645
_symmetry_space_group_name_H-M "C 2/C"
_symmetry_group_IT_number 15
_symmetry_cell_setting 'monoclinic'
loop_
_space_group_symop_operation_xyz
x,y,z
-x,y,1/2-z
-x,-y,-z
x,-y,1/2+z
1/2+x,1/2+y,z
1/2-x,1/2+y,1/2-z
1/2-x,1/2-y,-z
1/2+x,1/2-y,1/2+z
loop_
_atom_site_type_symbol
_atom_site_label
_atom_site_fract_x
_atom_site_fract_y
_atom_site_fract_z
Si Si1 0.037973 0.402841 0.904422
Si Si2 0.154854 0.457801 0.513142
Si Si3 0.400813 0.634210 0.335061
Si Si4 0.787845 0.992371 0.262723
Si Si5 0.599397 0.641274 0.840888
Si Si6 0.204507 0.718645 0.356699
O O1 0.113461 0.336231 0.888487
O O2 0.000000 0.424690 0.750000
O O3 0.932186 0.397246 0.984195
O O4 0.099318 0.466404 0.979831
O O5 0.234458 0.454293 0.391484
O O6 0.209663 0.465546 0.661945
O O7 0.500000 0.650083 0.250000
O O8 0.368901 0.550704 0.316115
O O9 0.422360 0.650532 0.496913
O O10 0.299875 0.678841 0.291260
O O11 0.834076 0.929674 0.171703
O O12 0.500000 0.630421 0.750000
O O13 0.656854 0.711501 0.784471
O O14 0.250000 0.750000 0.500000
#
# Coordination Sequence:
#
# PCOD9286927 Si02
#       6
#     8   8   8   8   8   8
#     4  11  20  38  65  93 129 171 203 261 322 376
#     4  11  22  36  64 100 125 165 213 253 319 377
#     4  11  24  43  69  90 127 172 213 259 327 379
#     4  12  22  42  63  97 133 163 209 270 313 375
#     4  11  25  42  66  95 128 169 214 264 318 380
#     4  10  21  45  64  87 133 173 207 262 325 375
#
# _framework density 20.150113999999999
#
# number of rings (size 3 to 8) (size 9 to 14) (size 15 to 20)
#    0.000    1.000    5.000    2.000    2.333    1.333 
#    6.000    0.833    0.000    0.000    0.000    0.000 
#    0.000    0.000    0.000    0.000    0.000    0.000 
#
# Total GULP energy -133929.482941 kJ/mol
# GULP energy per Si atom -5580.395123 kJ/mol
# Density = 2.010425 g / cm^3
# Si number density = 20.150114 Si / 1000 Ang^3
#
#
#
# Elastic Constant Matrix: (Units=GPa)
#
#
# Indices 1 2 3 4 5 6 
#
# 1 132.7379 49.7996 35.4609 0.0000 -18.2584 0.0000
# 2 49.7996 77.9519 2.6485 0.0000 -11.4013 0.0000
# 3 35.4609 2.6485 75.8281 0.0000 -8.0219 0.0000
# 4 0.0000 0.0000 0.0000 20.3079 0.0000 -1.9107
# 5 -18.2584 -11.4013 -8.0219 0.0000 44.0997 0.0000
# 6 0.0000 0.0000 0.0000 -1.9107 0.0000 14.8013
#
#
#
# Elastic Compliance Matrix: (Units=1/GPa)
#
#
# Indices 1 2 3 4 5 6 
#
# 1 0.011836 -0.007075 -0.005060 0.000000 0.002151 0.000000
# 2 -0.007075 0.017562 0.002922 0.000000 0.002143 0.000000
# 3 -0.005060 0.002922 0.015611 0.000000 0.001500 0.000000
# 4 0.000000 0.000000 0.000000 0.049847 0.000000 0.006435
# 5 0.002151 0.002143 0.001500 0.000000 0.024393 0.000000
# 6 0.000000 0.000000 0.000000 0.006435 0.000000 0.068392
#
#
# Mechanical properties :
#
#
# Convention : Reuss Voigt Hill
#
# Bulk Modulus (GPa) = 37.61920 51.37068 44.49494
# Shear Modulus (GPa) = 23.26356 29.08236 26.17296
#
# Velocity S-wave (km/s) = 3.40150 3.80318 3.60793
# Velocity P-wave (km/s) = 5.84268 6.69589 6.28378
#
# Compressibility (1/GPa) = 0.02658217
#
# Stress axis : x y z
#
# Youngs Moduli (GPa) = 84.49135 56.94050 64.05832
#
# Poissons Ratio (x) = 0.40283 0.32415
# Poissons Ratio (y) = 0.59775 -0.18716
# Poissons Ratio (z) = 0.42755 -0.16636
#
# Static dielectric constant tensor:
#      x y z
#    x 1.769850 0.000000 -0.026600 
#    y 0.000000 1.747510 0.000000 
#    z -0.026600 0.000000 1.698360 
# 
# From -- ./inp_files/39614.got.cif
#   From: 2010.05.17/outbox.cif.g08.bks.cpg/sg15_20_cif.got.tgz:39614.got - 2010.06.03 18:47:42.
