data_PCOD9286602
_publ_section_title
;
Structure prediction by ZEFSAII (Michael W. Deem and Ramdas Pophale) SiO2 
 PCOD9286602
Probable space group: C 2/C
;
_chemical_formula_sum "Si O2"
_cell_formula_units_Z 44
_cell_length_a 8.086059
_cell_length_b 14.604067
_cell_length_c 20.302926
_cell_angle_alpha 90.000000
_cell_angle_beta 49.419824
_cell_angle_gamma 90.000000
_cell_volume 1820.937705
_symmetry_space_group_name_H-M "C 2/C"
_symmetry_group_IT_number 15
_symmetry_cell_setting 'monoclinic'
loop_
_space_group_symop_operation_xyz
x,y,z
-x,y,1/2-z
-x,-y,-z
x,-y,1/2+z
1/2+x,1/2+y,z
1/2-x,1/2+y,1/2-z
1/2-x,1/2-y,-z
1/2+x,1/2-y,1/2+z
loop_
_atom_site_type_symbol
_atom_site_label
_atom_site_fract_x
_atom_site_fract_y
_atom_site_fract_z
Si Si1 0.117040 0.908793 0.839267
Si Si2 0.283289 0.576301 0.589863
Si Si3 0.842402 0.417261 0.527668
Si Si4 0.500000 0.811263 0.250000
Si Si5 0.598052 0.724163 0.463215
Si Si6 0.576102 0.214353 0.302692
O O1 0.324023 0.886007 0.740187
O O2 0.877348 0.921534 0.870968
O O3 0.173834 0.990849 0.874108
O O4 0.077704 0.817469 0.894079
O O5 0.241615 0.560652 0.524218
O O6 0.484122 0.647446 0.537687
O O7 0.071987 0.626966 0.670915
O O8 0.968721 0.320102 0.499189
O O9 0.000000 0.500000 0.500000
O O10 0.284088 0.759508 0.282741
O O11 0.640297 0.778226 0.597073
O O12 0.500000 0.252276 0.250000
#
# Coordination Sequence:
#
# PCOD9286602 Si02
#       6
#     8   8   8   4   8   8
#     4  10  22  46  67 100 145 183 234 298 358 423
#     4  11  24  45  70 107 143 193 238 295 367 426
#     4  11  23  43  75 109 144 183 245 304 352 435
#     4  12  26  44  74 102 144 192 242 294 362 428
#     4  10  21  43  74  95 142 187 237 290 353 426
#     4  10  23  46  72  99 141 190 241 297 358 422
#
# _framework density 24.163376
#
# number of rings (size 3 to 8) (size 9 to 14) (size 15 to 20)
#    0.000    1.455    0.000    7.636    6.364    0.727 
#   16.364    0.000    0.000    0.000    0.000    0.000 
#    0.000    0.000    0.000    0.000    0.000    0.000 
#
# Total GULP energy -122911.191338 kJ/mol
# GULP energy per Si atom -5586.872334 kJ/mol
# Density = 2.410838 g / cm^3
# Si number density = 24.163376 Si / 1000 Ang^3
#
#
#
# Elastic Constant Matrix: (Units=GPa)
#
#
# Indices 1 2 3 4 5 6 
#
# 1 161.2482 65.4594 41.2563 0.0000 -42.5942 -0.0001
# 2 65.4594 144.7105 29.9666 -0.0001 -23.2882 0.0000
# 3 41.2563 29.9666 80.6375 -0.0002 -36.9649 0.0000
# 4 0.0000 -0.0001 -0.0002 18.0467 0.0001 5.3990
# 5 -42.5942 -23.2882 -36.9649 0.0001 53.7708 0.0000
# 6 -0.0001 0.0000 0.0000 5.3990 0.0000 34.9345
#
#
#
# Elastic Compliance Matrix: (Units=1/GPa)
#
#
# Indices 1 2 3 4 5 6 
#
# 1 0.009078 -0.003046 -0.001199 0.000000 0.005048 0.000000
# 2 -0.003046 0.008650 -0.001526 0.000000 0.000285 0.000000
# 3 -0.001199 -0.001526 0.018753 0.000000 0.011281 0.000000
# 4 0.000000 0.000000 0.000000 0.058098 0.000000 -0.008979
# 5 0.005048 0.000285 0.011281 0.000000 0.030475 0.000000
# 6 0.000000 0.000000 0.000000 -0.008979 0.000000 0.030013
#
#
# Mechanical properties :
#
#
# Convention : Reuss Voigt Hill
#
# Bulk Modulus (GPa) = 40.09519 73.32898 56.71209
# Shear Modulus (GPa) = 28.58438 38.01134 33.29786
#
# Velocity S-wave (km/s) = 3.44315 3.97053 3.71621
# Velocity P-wave (km/s) = 5.69530 7.17169 6.47571
#
# Compressibility (1/GPa) = 0.02494065
#
# Stress axis : x y z
#
# Youngs Moduli (GPa) = 110.15306 115.60821 53.32507
#
# Poissons Ratio (x) = 0.35213 0.06392
# Poissons Ratio (y) = 0.33552 0.08135
# Poissons Ratio (z) = 0.13204 0.17637
#
# Static dielectric constant tensor:
#      x y z
#    x 2.091500 0.000000 -0.005880 
#    y 0.000000 1.938280 0.000000 
#    z -0.005880 0.000000 2.048430 
# 
# From -- ./inp_files/231028.got.cif
#   From: 2010.05.17/outbox.cif.g08.bks.cpg/sg15_116_cif.got.tgz:231028.got - 2010.06.03 18:47:42.
