data_PCOD9286468
_publ_section_title
;
Structure prediction by ZEFSAII (Michael W. Deem and Ramdas Pophale) SiO2 
 PCOD9286468
Probable space group: C 2/C
;
_chemical_formula_sum "Si O2"
_cell_formula_units_Z 48
_cell_length_a 11.887207
_cell_length_b 16.773427
_cell_length_c 12.458945
_cell_angle_alpha 90.000000
_cell_angle_beta 52.460662
_cell_angle_gamma 90.000000
_cell_volume 1969.793000
_symmetry_space_group_name_H-M "C 2/C"
_symmetry_group_IT_number 15
_symmetry_cell_setting 'monoclinic'
loop_
_space_group_symop_operation_xyz
x,y,z
-x,y,1/2-z
-x,-y,-z
x,-y,1/2+z
1/2+x,1/2+y,z
1/2-x,1/2+y,1/2-z
1/2-x,1/2-y,-z
1/2+x,1/2-y,1/2+z
loop_
_atom_site_type_symbol
_atom_site_label
_atom_site_fract_x
_atom_site_fract_y
_atom_site_fract_z
Si Si1 0.705162 0.135053 0.077063
Si Si2 0.173848 0.256835 0.930225
Si Si3 0.200911 0.526286 0.657872
Si Si4 0.033522 0.111984 0.918917
Si Si5 0.245348 0.200854 0.666752
Si Si6 0.459009 0.924736 0.451221
O O1 0.689574 0.220551 0.139733
O O2 0.647261 0.064983 0.187110
O O3 0.669658 0.948786 0.054222
O O4 0.870235 0.108487 0.985868
O O5 0.056638 0.186664 0.987111
O O6 0.276482 0.236284 0.768781
O O7 0.250000 0.250000 0.000000
O O8 0.098952 0.342445 0.966639
O O9 0.362768 0.542420 0.597878
O O10 0.165584 0.651979 0.975491
O O11 0.901263 0.579346 0.706803
O O12 0.117675 0.141709 0.766394
O O13 0.500000 0.000000 0.500000
#
# Coordination Sequence:
#
# PCOD9286468 Si02
#       6
#     8   8   8   8   8   8
#     4  11  22  44  66 104 139 177 237 294 366 432
#     4  10  21  43  69  95 135 182 241 288 349 432
#     4  11  25  42  66 101 140 183 227 301 365 430
#     4  10  23  41  69  96 134 182 232 290 356 427
#     4   9  23  40  68  98 134 185 234 289 356 431
#     4  11  24  42  66  99 138 184 235 293 353 432
#
# _framework density 24.368043
#
# number of rings (size 3 to 8) (size 9 to 14) (size 15 to 20)
#    1.000    0.667    1.667    2.000    4.667    1.333 
#    6.000    0.000    0.000    0.000    0.000    0.000 
#    0.000    0.000    0.000    0.000    0.000    0.000 
#
# Total GULP energy -133689.032095 kJ/mol
# GULP energy per Si atom -5570.376337 kJ/mol
# Density = 2.431258 g / cm^3
# Si number density = 24.368043 Si / 1000 Ang^3
#
#
#
# Elastic Constant Matrix: (Units=GPa)
#
#
# Indices 1 2 3 4 5 6 
#
# 1 145.9754 27.4874 51.2326 0.0000 12.3855 0.0000
# 2 27.4874 159.8473 39.4180 0.0000 17.1298 0.0000
# 3 51.2326 39.4180 95.7446 0.0000 33.1763 0.0000
# 4 0.0000 0.0000 0.0000 31.9333 0.0000 -7.3179
# 5 12.3855 17.1298 33.1763 0.0000 44.5271 0.0000
# 6 0.0000 0.0000 0.0000 -7.3179 0.0000 8.6961
#
#
#
# Elastic Compliance Matrix: (Units=1/GPa)
#
#
# Indices 1 2 3 4 5 6 
#
# 1 0.008521 -0.000414 -0.004884 0.000000 0.001428 0.000000
# 2 -0.000414 0.007001 -0.002382 0.000000 -0.000803 0.000000
# 3 -0.004884 -0.002382 0.017862 0.000000 -0.011034 0.000000
# 4 0.000000 0.000000 0.000000 0.038797 0.000000 0.032648
# 5 0.001428 -0.000803 -0.011034 0.000000 0.030591 0.000000
# 6 0.000000 0.000000 0.000000 0.032648 0.000000 0.142467
#
#
# Mechanical properties :
#
#
# Convention : Reuss Voigt Hill
#
# Bulk Modulus (GPa) = 55.48476 70.87146 63.17811
# Shear Modulus (GPa) = 18.75411 35.92660 27.34036
#
# Velocity S-wave (km/s) = 2.77721 3.84387 3.35322
# Velocity P-wave (km/s) = 5.75350 6.98909 6.40118
#
# Compressibility (1/GPa) = 0.01802297
#
# Stress axis : x y z
#
# Youngs Moduli (GPa) = 117.35096 142.84270 55.98456
#
# Poissons Ratio (x) = 0.05913 0.27344
# Poissons Ratio (y) = 0.04858 0.13338
# Poissons Ratio (z) = 0.57317 0.34032
#
# Static dielectric constant tensor:
#      x y z
#    x 2.053990 0.000000 -0.012330 
#    y 0.000000 2.045780 0.000000 
#    z -0.012330 0.000000 1.995950 
# 
# From -- ./inp_files/197188.got.cif
#   From: 2010.05.17/outbox.cif.g08.bks.cpg/sg15_99_cif.got.tgz:197188.got - 2010.06.03 18:47:42.
