data_PCOD9286562
_publ_section_title
;
Structure prediction by ZEFSAII (Michael W. Deem and Ramdas Pophale) SiO2 
 PCOD9286562
Probable space group: C 2/C
;
_chemical_formula_sum "Si O2"
_cell_formula_units_Z 36
_cell_length_a 11.586151
_cell_length_b 25.895463
_cell_length_c 12.213159
_cell_angle_alpha 90.000000
_cell_angle_beta 25.486781
_cell_angle_gamma 90.000000
_cell_volume 1576.758183
_symmetry_space_group_name_H-M "C 2/C"
_symmetry_group_IT_number 15
_symmetry_cell_setting 'monoclinic'
loop_
_space_group_symop_operation_xyz
x,y,z
-x,y,1/2-z
-x,-y,-z
x,-y,1/2+z
1/2+x,1/2+y,z
1/2-x,1/2+y,1/2-z
1/2-x,1/2-y,-z
1/2+x,1/2-y,1/2+z
loop_
_atom_site_type_symbol
_atom_site_label
_atom_site_fract_x
_atom_site_fract_y
_atom_site_fract_z
Si Si1 0.500000 0.284333 0.250000
Si Si2 0.416554 0.941250 0.053247
Si Si3 0.505000 0.644435 0.553975
Si Si4 0.231667 0.855419 0.641386
Si Si5 0.000000 0.713704 0.750000
Si Si6 0.000000 0.595981 0.250000
O O1 0.619754 0.317933 0.248972
O O2 0.250000 0.250000 0.500000
O O3 0.158655 0.909408 0.319790
O O4 0.654148 0.907562 0.904093
O O5 0.385703 0.936220 0.948757
O O6 0.500000 0.000000 0.000000
O O7 0.589349 0.670867 0.367817
O O8 0.776289 0.629996 0.384975
O O9 0.477722 0.825254 0.373209
O O10 0.000000 0.863342 0.750000
O O11 0.250000 0.750000 0.500000
#
# Coordination Sequence:
#
# PCOD9286562 Si02
#       6
#     4   8   8   8   4   4
#     4  12  27  46  80 112 148 202 258 319 402 464
#     4  11  25  43  76 110 154 211 259 328 400 465
#     4  11  24  47  74 109 158 200 258 334 383 478
#     4  11  26  47  74 111 162 203 263 323 390 482
#     4  12  26  49  78 110 154 212 259 322 400 474
#     4  10  21  43  72 100 156 194 255 319 396 454
#
# _framework density 22.831655000000001
#
# number of rings (size 3 to 8) (size 9 to 14) (size 15 to 20)
#    0.000    0.889    3.333    2.000    3.111    9.778 
#    0.000    0.000    0.000    0.000    0.000    0.000 
#    0.000    0.000    0.000    0.000    0.000    0.000 
#
# Total GULP energy -100398.600431 kJ/mol
# GULP energy per Si atom -5577.700024 kJ/mol
# Density = 2.277969 g / cm^3
# Si number density = 22.831655 Si / 1000 Ang^3
#
#
#
# Elastic Constant Matrix: (Units=GPa)
#
#
# Indices 1 2 3 4 5 6 
#
# 1 140.2380 30.3013 52.6476 0.0000 21.4604 0.0001
# 2 30.3013 120.8067 55.2337 0.0001 16.4655 -0.0001
# 3 52.6476 55.2337 170.2017 -0.0001 21.0472 0.0009
# 4 0.0000 0.0001 -0.0001 17.2320 0.0000 -12.8887
# 5 21.4604 16.4655 21.0472 0.0000 61.1895 -0.0002
# 6 0.0001 -0.0001 0.0009 -12.8887 -0.0002 18.6970
#
#
#
# Elastic Compliance Matrix: (Units=1/GPa)
#
#
# Indices 1 2 3 4 5 6 
#
# 1 0.008404 -0.000892 -0.002063 0.000000 -0.001998 0.000000
# 2 -0.000892 0.009967 -0.002784 0.000000 -0.001411 0.000000
# 3 -0.002063 -0.002784 0.007556 0.000000 -0.001127 -0.000001
# 4 0.000000 0.000000 0.000000 0.119801 0.000000 0.082584
# 5 -0.001998 -0.001411 -0.001127 0.000000 0.017811 0.000001
# 6 0.000000 0.000000 -0.000001 0.082584 0.000001 0.110413
#
#
# Mechanical properties :
#
#
# Convention : Reuss Voigt Hill
#
# Bulk Modulus (GPa) = 69.21174 78.62350 73.91762
# Shear Modulus (GPa) = 17.22682 38.96131 28.09406
#
# Velocity S-wave (km/s) = 2.74982 4.13541 3.51164
# Velocity P-wave (km/s) = 6.36096 7.57054 6.99196
#
# Compressibility (1/GPa) = 0.01444842
#
# Stress axis : x y z
#
# Youngs Moduli (GPa) = 118.99556 100.33443 132.34243
#
# Poissons Ratio (x) = 0.08954 0.27300
# Poissons Ratio (y) = 0.10620 0.36841
# Poissons Ratio (z) = 0.24547 0.27931
#
# Static dielectric constant tensor:
#      x y z
#    x 1.978260 0.000000 -0.329660 
#    y 0.000000 1.884920 0.000020 
#    z -0.329660 0.000020 3.384220 
# 
# From -- ./inp_files/91097.got.cif
#   From: 2010.05.17/outbox.cif.g08.bks.cpg/sg15_46_cif.got.tgz:91097.got - 2010.06.03 18:47:42.
