data_PCOD9286027
_publ_section_title
;
Structure prediction by ZEFSAII (Michael W. Deem and Ramdas Pophale) SiO2 
 PCOD9286027
Probable space group: C 2/C
;
_chemical_formula_sum "Si O2"
_cell_formula_units_Z 40
_cell_length_a 14.358451
_cell_length_b 8.561006
_cell_length_c 19.625557
_cell_angle_alpha 90.000000
_cell_angle_beta 47.507875
_cell_angle_gamma 90.000000
_cell_volume 1778.852577
_symmetry_space_group_name_H-M "C 2/C"
_symmetry_group_IT_number 15
_symmetry_cell_setting 'monoclinic'
loop_
_space_group_symop_operation_xyz
x,y,z
-x,y,1/2-z
-x,-y,-z
x,-y,1/2+z
1/2+x,1/2+y,z
1/2-x,1/2+y,1/2-z
1/2-x,1/2-y,-z
1/2+x,1/2-y,1/2+z
loop_
_atom_site_type_symbol
_atom_site_label
_atom_site_fract_x
_atom_site_fract_y
_atom_site_fract_z
Si Si1 0.035134 0.125089 0.538521
Si Si2 0.363111 0.063886 0.780136
Si Si3 0.761865 0.929509 0.014503
Si Si4 0.290270 0.166991 0.196628
Si Si5 0.863053 0.436553 0.049005
O O1 0.129297 0.251015 0.457268
O O2 0.911577 0.220479 0.622638
O O3 0.107913 0.024350 0.559659
O O4 0.000000 0.000000 0.500000
O O5 0.500000 0.059663 0.750000
O O6 0.270679 0.064671 0.890372
O O7 0.331604 0.220527 0.751469
O O8 0.326096 0.922499 0.748244
O O9 0.750000 0.750000 0.000000
O O10 0.663411 0.015929 0.015228
O O11 0.277545 0.032316 0.144393
O O12 0.000000 0.500000 0.000000
#
# Coordination Sequence:
#
# PCOD9286027 Si02
#       5
#     8   8   8   8   8
#     4  11  22  43  74 103 140 191 251 309 363 447
#     4  12  27  48  73 110 158 197 246 314 392 449
#     4  12  23  45  77 105 141 198 254 301 371 453
#     4  11  26  48  71 108 150 199 245 315 384 446
#     4  10  21  42  70 102 138 184 245 300 360 442
#
# _framework density 22.486405000000001
#
# number of rings (size 3 to 8) (size 9 to 14) (size 15 to 20)
#    0.000    0.800    4.000    4.200    2.800    1.600 
#    0.000    0.000    0.000    0.000    0.000    0.000 
#    0.000    0.000    0.000    0.000    0.000    0.000 
#
# Total GULP energy -111665.839622 kJ/mol
# GULP energy per Si atom -5583.291981 kJ/mol
# Density = 2.243523 g / cm^3
# Si number density = 22.486405 Si / 1000 Ang^3
#
#
#
# Elastic Constant Matrix: (Units=GPa)
#
#
# Indices 1 2 3 4 5 6 
#
# 1 162.6962 72.6507 23.5911 0.0000 15.3350 0.0000
# 2 72.6507 197.8421 41.1904 0.0000 17.4281 0.0000
# 3 23.5911 41.1904 55.4795 0.0000 20.3298 0.0000
# 4 0.0000 0.0000 0.0000 43.6047 0.0000 8.9901
# 5 15.3350 17.4281 20.3298 0.0000 31.5570 0.0000
# 6 0.0000 0.0000 0.0000 8.9901 0.0000 54.5112
#
#
#
# Elastic Compliance Matrix: (Units=1/GPa)
#
#
# Indices 1 2 3 4 5 6 
#
# 1 0.007517 -0.002452 -0.000698 0.000000 -0.001849 0.000000
# 2 -0.002452 0.006787 -0.004005 0.000000 0.000023 0.000000
# 3 -0.000698 -0.004005 0.026652 0.000000 -0.014619 0.000000
# 4 0.000000 0.000000 0.000000 0.023741 0.000000 -0.003915
# 5 -0.001849 0.000023 -0.014619 0.000000 0.041992 0.000000
# 6 0.000000 0.000000 0.000000 -0.003915 0.000000 0.018991
#
#
# Mechanical properties :
#
#
# Convention : Reuss Voigt Hill
#
# Bulk Modulus (GPa) = 37.53033 76.76469 57.14751
# Shear Modulus (GPa) = 33.58632 44.50695 39.04663
#
# Velocity S-wave (km/s) = 3.86894 4.45374 4.17160
# Velocity P-wave (km/s) = 6.05679 7.78846 6.97656
#
# Compressibility (1/GPa) = 0.02664511
#
# Stress axis : x y z
#
# Youngs Moduli (GPa) = 133.03376 147.34784 37.52108
#
# Poissons Ratio (x) = 0.36131 0.02621
# Poissons Ratio (y) = 0.32621 0.15026
# Poissons Ratio (z) = 0.09291 0.59007
#
# Static dielectric constant tensor:
#      x y z
#    x 1.927550 0.000000 -0.059580 
#    y 0.000000 1.866440 0.000000 
#    z -0.059580 0.000000 1.902550 
# 
# From -- ./inp_files/242225.got.cif
#   From: 2010.05.17/outbox.cif.g08.bks.cpg/sg15_122_cif.got.tgz:242225.got - 2010.06.03 18:47:42.
