data_PCOD9286260
_publ_section_title
;
Structure prediction by ZEFSAII (Michael W. Deem and Ramdas Pophale) SiO2 
 PCOD9286260
Probable space group: C 2/C
;
_chemical_formula_sum "Si O2"
_cell_formula_units_Z 56
_cell_length_a 8.191079
_cell_length_b 17.547904
_cell_length_c 22.907164
_cell_angle_alpha 90.000000
_cell_angle_beta 54.279880
_cell_angle_gamma 90.000000
_cell_volume 2673.183442
_symmetry_space_group_name_H-M "C 2/C"
_symmetry_group_IT_number 15
_symmetry_cell_setting 'monoclinic'
loop_
_space_group_symop_operation_xyz
x,y,z
-x,y,1/2-z
-x,-y,-z
x,-y,1/2+z
1/2+x,1/2+y,z
1/2-x,1/2+y,1/2-z
1/2-x,1/2-y,-z
1/2+x,1/2-y,1/2+z
loop_
_atom_site_type_symbol
_atom_site_label
_atom_site_fract_x
_atom_site_fract_y
_atom_site_fract_z
Si Si1 0.515584 0.872718 0.420537
Si Si2 0.482564 0.141332 0.065424
Si Si3 0.531753 0.404118 0.677959
Si Si4 0.169655 0.235475 0.329572
Si Si5 0.714331 0.512054 0.484638
Si Si6 0.577945 0.438090 0.139885
Si Si7 0.954376 0.769778 0.164527
O O1 0.523633 0.849426 0.487643
O O2 0.504042 0.797718 0.383265
O O3 0.345990 0.936172 0.448802
O O4 0.730598 0.912254 0.361703
O O5 0.269041 0.099542 0.116471
O O6 0.461643 0.220127 0.104550
O O7 0.652081 0.086564 0.058649
O O8 0.500000 0.375176 0.750000
O O9 0.421572 0.348505 0.655955
O O10 0.457742 0.491185 0.691021
O O11 0.268770 0.253210 0.246193
O O12 0.347809 0.245270 0.339518
O O13 0.500000 0.500000 0.500000
O O14 0.667834 0.527475 0.561945
O O15 0.462472 0.360028 0.151837
#
# Coordination Sequence:
#
# PCOD9286260 Si02
#       7
#     8   8   8   8   8   8   8
#     4  10  21  43  65  92 129 176 215 267 333 387
#     4  11  22  42  69  91 134 171 219 268 327 397
#     4  12  23  40  68  96 124 180 221 262 327 397
#     4  10  24  40  65  95 134 163 222 271 323 395
#     4  11  23  40  64 100 132 166 225 275 323 387
#     4  10  22  41  65  92 129 171 218 260 326 402
#     4  10  23  43  64  99 131 170 215 273 329 383
#
# _framework density 20.948806999999999
#
# number of rings (size 3 to 8) (size 9 to 14) (size 15 to 20)
#    0.000    1.429    4.286    0.857    6.000    6.857 
#    0.000    0.000    0.000    1.714    0.000    0.000 
#    0.000    0.000    0.000    0.000    0.000    0.000 
#
# Total GULP energy -156336.916006 kJ/mol
# GULP energy per Si atom -5583.461286 kJ/mol
# Density = 2.090113 g / cm^3
# Si number density = 20.948807 Si / 1000 Ang^3
#
#
#
# Elastic Constant Matrix: (Units=GPa)
#
#
# Indices 1 2 3 4 5 6 
#
# 1 56.7091 64.7863 13.6785 0.0001 -9.3735 -0.0001
# 2 64.7863 185.0233 41.8688 0.0000 7.2393 0.0000
# 3 13.6785 41.8688 58.0145 0.0000 -6.3764 0.0001
# 4 0.0001 0.0000 0.0000 33.0911 0.0000 -7.4971
# 5 -9.3735 7.2393 -6.3764 0.0000 15.0819 0.0000
# 6 -0.0001 0.0000 0.0001 -7.4971 0.0000 25.1949
#
#
#
# Elastic Compliance Matrix: (Units=1/GPa)
#
#
# Indices 1 2 3 4 5 6 
#
# 1 0.043118 -0.018250 0.007249 0.000000 0.038623 0.000000
# 2 -0.018250 0.014618 -0.008667 0.000000 -0.022023 0.000000
# 3 0.007249 -0.008667 0.023844 0.000000 0.018747 0.000000
# 4 0.000000 0.000000 0.000000 0.032404 0.000000 0.009642
# 5 0.038623 -0.022023 0.018747 0.000000 0.108806 0.000000
# 6 0.000000 0.000000 0.000000 0.009642 0.000000 0.042560
#
#
# Mechanical properties :
#
#
# Convention : Reuss Voigt Hill
#
# Bulk Modulus (GPa) = 23.67169 60.04600 41.85885
# Shear Modulus (GPa) = 15.68547 26.63448 21.15997
#
# Velocity S-wave (km/s) = 2.73930 3.56955 3.18162
# Velocity P-wave (km/s) = 4.61837 6.76124 5.78981
#
# Compressibility (1/GPa) = 0.04224455
#
# Stress axis : x y z
#
# Youngs Moduli (GPa) = 23.19202 68.40924 41.94009
#
# Poissons Ratio (x) = 1.24844 -0.30404
# Poissons Ratio (y) = 0.42325 0.36351
# Poissons Ratio (z) = -0.16813 0.59293
#
# Static dielectric constant tensor:
#      x y z
#    x 1.822130 0.000000 0.013250 
#    y 0.000000 1.803360 0.000000 
#    z 0.013250 0.000000 1.780040 
# 
# From -- ./inp_files/265163.got.cif
#   From: 2010.05.17/outbox.cif.g08.bks.cpg/sg15_133_cif.got.tgz:265163.got - 2010.06.03 18:47:42.
