data_PCOD9286746
_publ_section_title
;
Structure prediction by ZEFSAII (Michael W. Deem and Ramdas Pophale) SiO2 
 PCOD9286746
Probable space group: C 2/C
;
_chemical_formula_sum "Si O2"
_cell_formula_units_Z 40
_cell_length_a 10.642138
_cell_length_b 11.869572
_cell_length_c 22.311210
_cell_angle_alpha 90.000000
_cell_angle_beta 35.716652
_cell_angle_gamma 90.000000
_cell_volume 1645.258722
_symmetry_space_group_name_H-M "C 2/C"
_symmetry_group_IT_number 15
_symmetry_cell_setting 'monoclinic'
loop_
_space_group_symop_operation_xyz
x,y,z
-x,y,1/2-z
-x,-y,-z
x,-y,1/2+z
1/2+x,1/2+y,z
1/2-x,1/2+y,1/2-z
1/2-x,1/2-y,-z
1/2+x,1/2-y,1/2+z
loop_
_atom_site_type_symbol
_atom_site_label
_atom_site_fract_x
_atom_site_fract_y
_atom_site_fract_z
Si Si1 0.320717 0.449776 0.413226
Si Si2 0.772559 0.174412 0.714659
Si Si3 0.132830 0.388377 0.896939
Si Si4 0.990706 0.729339 0.930942
Si Si5 0.383442 0.536088 0.105865
O O1 0.483689 0.344665 0.354398
O O2 0.270489 0.506582 0.368584
O O3 0.454278 0.538585 0.400331
O O4 0.099963 0.429590 0.535148
O O5 0.759786 0.295533 0.686929
O O6 0.608989 0.164227 0.832077
O O7 0.738299 0.069718 0.681994
O O8 0.054263 0.327897 0.988252
O O9 0.157990 0.831798 0.881757
O O10 0.750000 0.750000 0.000000
O O11 0.500000 0.500000 0.000000
#
# Coordination Sequence:
#
# PCOD9286746 Si02
#       5
#     8   8   8   8   8
#     4   9  22  42  67 102 135 179 239 284 370 434
#     4  10  24  41  68  99 141 183 239 292 363 431
#     4  11  21  43  72  95 143 184 227 309 358 433
#     4  12  23  43  67  98 139 188 237 296 361 432
#     4  10  21  44  67  97 141 181 238 295 359 440
#
# _framework density 24.312284999999999
#
# number of rings (size 3 to 8) (size 9 to 14) (size 15 to 20)
#    1.200    0.400    4.000    0.600    0.000    4.800 
#    3.600    0.000    0.000    0.000    0.000    0.000 
#    0.000    0.000    0.000    0.000    0.000    0.000 
#
# Total GULP energy -111431.917391 kJ/mol
# GULP energy per Si atom -5571.595870 kJ/mol
# Density = 2.425695 g / cm^3
# Si number density = 24.312285 Si / 1000 Ang^3
#
#
#
# Elastic Constant Matrix: (Units=GPa)
#
#
# Indices 1 2 3 4 5 6 
#
# 1 56.0810 12.2997 17.7766 0.0001 -7.3652 -0.0001
# 2 12.2997 73.6395 16.3836 0.0001 14.3125 -0.0001
# 3 17.7766 16.3836 114.1741 0.0000 20.5676 -0.0002
# 4 0.0001 0.0001 0.0000 37.0526 0.0000 18.0109
# 5 -7.3652 14.3125 20.5676 0.0000 27.6938 0.0001
# 6 -0.0001 -0.0001 -0.0002 18.0109 0.0001 35.1739
#
#
#
# Elastic Compliance Matrix: (Units=1/GPa)
#
#
# Indices 1 2 3 4 5 6 
#
# 1 0.022048 -0.004936 -0.004895 0.000000 0.012050 0.000000
# 2 -0.004936 0.016278 0.000213 0.000000 -0.009883 0.000000
# 3 -0.004895 0.000213 0.011250 0.000000 -0.009767 0.000000
# 4 0.000000 0.000000 0.000000 0.035932 0.000000 -0.018399
# 5 0.012050 -0.009883 -0.009767 0.000000 0.051675 0.000000
# 6 0.000000 0.000000 0.000000 -0.018399 0.000000 0.037852
#
#
# Mechanical properties :
#
#
# Convention : Reuss Voigt Hill
#
# Bulk Modulus (GPa) = 32.96014 37.42383 35.19198
# Shear Modulus (GPa) = 24.46383 33.14637 28.80510
#
# Velocity S-wave (km/s) = 3.17556 3.69637 3.44582
# Velocity P-wave (km/s) = 5.19923 5.80034 5.50799
#
# Compressibility (1/GPa) = 0.03033967
#
# Stress axis : x y z
#
# Youngs Moduli (GPa) = 45.35542 61.43441 88.89205
#
# Poissons Ratio (x) = 0.30321 0.43516
# Poissons Ratio (y) = 0.22385 -0.01894
# Poissons Ratio (z) = 0.22203 -0.01309
#
# Static dielectric constant tensor:
#      x y z
#    x 1.353630 0.000180 0.394760 
#    y 0.000180 1.283420 -0.000120 
#    z 0.394760 -0.000120 1.574860 
# 
# From -- ./inp_files/238210.got.cif
#   From: 2010.05.17/outbox.cif.g08.bks.cpg/sg15_120_cif.got.tgz:238210.got - 2010.06.03 18:47:42.
