data_PCOD9286109
_publ_section_title
;
Structure prediction by ZEFSAII (Michael W. Deem and Ramdas Pophale) SiO2 
 PCOD9286109
Probable space group: C 2/C
;
_chemical_formula_sum "Si O2"
_cell_formula_units_Z 56
_cell_length_a 13.278813
_cell_length_b 21.011827
_cell_length_c 7.515124
_cell_angle_alpha 90.000000
_cell_angle_beta 93.647556
_cell_angle_gamma 90.000000
_cell_volume 2092.563114
_symmetry_space_group_name_H-M "C 2/C"
_symmetry_group_IT_number 15
_symmetry_cell_setting 'monoclinic'
loop_
_space_group_symop_operation_xyz
x,y,z
-x,y,1/2-z
-x,-y,-z
x,-y,1/2+z
1/2+x,1/2+y,z
1/2-x,1/2+y,1/2-z
1/2-x,1/2-y,-z
1/2+x,1/2-y,1/2+z
loop_
_atom_site_type_symbol
_atom_site_label
_atom_site_fract_x
_atom_site_fract_y
_atom_site_fract_z
Si Si1 0.820255 0.730627 0.216011
Si Si2 0.860778 0.730479 0.635945
Si Si3 0.000000 0.827500 0.250000
Si Si4 0.442431 0.566702 0.505132
Si Si5 0.770424 0.533830 0.851990
Si Si6 0.418231 0.910312 0.107389
Si Si7 0.145113 0.415368 0.787883
Si Si8 0.000000 0.842722 0.750000
O O1 0.819154 0.723166 0.430468
O O2 0.708620 0.760878 0.193362
O O3 0.836992 0.658310 0.160241
O O4 0.907779 0.781407 0.186329
O O5 0.916567 0.663935 0.650274
O O6 0.931915 0.791474 0.638173
O O7 0.983850 0.880378 0.400331
O O8 0.500000 0.500000 0.500000
O O9 0.338968 0.556692 0.599090
O O10 0.421796 0.606596 0.325200
O O11 0.850835 0.550509 0.018236
O O12 0.811092 0.567993 0.679351
O O13 0.770917 0.459734 0.800213
O O14 0.500000 0.941976 0.250000
O O15 0.431381 0.916016 0.893829
#
# Coordination Sequence:
#
# PCOD9286109 Si02
#       8
#     8   8   4   8   8   8   8   4
#     4  10  23  42  73 104 145 193 244 309 374 447
#     4  10  21  42  72 102 141 194 241 301 377 454
#     4  12  25  50  72 117 150 186 254 318 378 453
#     4  12  30  44  76 111 151 200 248 314 382 464
#     4  12  27  50  71 110 156 198 259 313 378 460
#     4  11  25  47  78 109 146 198 252 316 384 451
#     4  11  26  47  74 107 149 204 250 314 380 450
#     4  12  23  46  68 109 146 190 256 304 382 457
#
# _framework density 26.761441999999999
#
# number of rings (size 3 to 8) (size 9 to 14) (size 15 to 20)
#    0.000    0.857    3.571    2.143    6.000    5.714 
#    1.286    2.857    0.000    0.000    0.000    0.000 
#    0.000    0.000    0.000    0.000    0.000    0.000 
#
# Total GULP energy -156040.116216 kJ/mol
# GULP energy per Si atom -5572.861293 kJ/mol
# Density = 2.670053 g / cm^3
# Si number density = 26.761442 Si / 1000 Ang^3
#
#
#
# Elastic Constant Matrix: (Units=GPa)
#
#
# Indices 1 2 3 4 5 6 
#
# 1 52.1843 29.2086 28.4073 0.0000 -14.1458 0.0000
# 2 29.2086 210.1083 52.3547 0.0000 -4.6590 0.0000
# 3 28.4073 52.3547 96.3810 0.0000 -10.8407 0.0000
# 4 0.0000 0.0000 0.0000 31.2889 0.0000 -0.8861
# 5 -14.1458 -4.6590 -10.8407 0.0000 31.6973 0.0000
# 6 0.0000 0.0000 0.0000 -0.8861 0.0000 22.1487
#
#
#
# Elastic Compliance Matrix: (Units=1/GPa)
#
#
# Indices 1 2 3 4 5 6 
#
# 1 0.025797 -0.002020 -0.005455 0.000000 0.009350 0.000000
# 2 -0.002020 0.005664 -0.002589 0.000000 -0.000954 0.000000
# 3 -0.005455 -0.002589 0.013596 0.000000 0.001835 0.000000
# 4 0.000000 0.000000 0.000000 0.031996 0.000000 0.001280
# 5 0.009350 -0.000954 0.001835 0.000000 0.036209 0.000000
# 6 0.000000 0.000000 0.000000 0.001280 0.000000 0.045201
#
#
# Mechanical properties :
#
#
# Convention : Reuss Voigt Hill
#
# Bulk Modulus (GPa) = 40.11091 64.29054 52.20072
# Shear Modulus (GPa) = 26.75230 33.60717 30.17973
#
# Velocity S-wave (km/s) = 3.16517 3.54758 3.36182
# Velocity P-wave (km/s) = 5.32715 6.39188 5.88365
#
# Compressibility (1/GPa) = 0.02493087
#
# Stress axis : x y z
#
# Youngs Moduli (GPa) = 38.76378 176.54898 73.55183
#
# Poissons Ratio (x) = 0.35658 0.40120
# Poissons Ratio (y) = 0.07829 0.19041
# Poissons Ratio (z) = 0.21144 0.45705
#
# Static dielectric constant tensor:
#      x y z
#    x 2.545140 0.000000 0.227420 
#    y 0.000000 7.188920 0.000000 
#    z 0.227420 0.000000 2.710840 
# 
# From -- ./inp_files/41286.got.cif
#   From: 2010.05.17/outbox.cif.g08.bks.cpg/sg15_21_cif.got.tgz:41286.got - 2010.06.03 18:47:42.
