data_PCOD9286515
_publ_section_title
;
Structure prediction by ZEFSAII (Michael W. Deem and Ramdas Pophale) SiO2 
 PCOD9286515
Probable space group: C 2/C
;
_chemical_formula_sum "Si O2"
_cell_formula_units_Z 64
_cell_length_a 12.677031
_cell_length_b 14.176214
_cell_length_c 18.546923
_cell_angle_alpha 90.000000
_cell_angle_beta 119.859771
_cell_angle_gamma 90.000000
_cell_volume 2890.628342
_symmetry_space_group_name_H-M "C 2/C"
_symmetry_group_IT_number 15
_symmetry_cell_setting 'monoclinic'
loop_
_space_group_symop_operation_xyz
x,y,z
-x,y,1/2-z
-x,-y,-z
x,-y,1/2+z
1/2+x,1/2+y,z
1/2-x,1/2+y,1/2-z
1/2-x,1/2-y,-z
1/2+x,1/2-y,1/2+z
loop_
_atom_site_type_symbol
_atom_site_label
_atom_site_fract_x
_atom_site_fract_y
_atom_site_fract_z
Si Si1 0.780175 0.502553 0.255790
Si Si2 0.214558 0.292040 0.217584
Si Si3 0.889448 0.226745 0.654634
Si Si4 0.957689 0.113973 0.317902
Si Si5 0.958416 0.434119 0.922158
Si Si6 0.891606 0.939851 0.498447
Si Si7 0.164644 0.565355 0.382574
Si Si8 0.570071 0.722420 0.599488
O O1 0.820862 0.394195 0.264997
O O2 0.636621 0.526348 0.205253
O O3 0.825636 0.544197 0.346687
O O4 0.832452 0.551634 0.202162
O O5 0.281711 0.317253 0.164864
O O6 0.114659 0.209345 0.181709
O O7 0.320574 0.257396 0.307564
O O8 0.828572 0.322578 0.605210
O O9 0.000000 0.246179 0.750000
O O10 0.958971 0.181174 0.610461
O O11 0.000000 0.123658 0.250000
O O12 0.068829 0.092875 0.409010
O O13 0.970065 0.323879 0.944244
O O14 0.041665 0.459311 0.881624
O O15 0.000000 0.500000 0.000000
O O16 0.771994 0.003318 0.452279
O O17 0.883500 0.848044 0.444974
O O18 0.000000 0.000000 0.500000
#
# Coordination Sequence:
#
# PCOD9286515 Si02
#       8
#     8   8   8   8   8   8   8   8
#     4  12  23  45  72  96 135 183 232 280 342 420
#     4  11  21  42  67  99 131 181 232 274 345 412
#     4   9  18  38  70  99 133 175 228 284 338 402
#     4  12  28  46  67 100 145 187 224 283 354 427
#     4  11  26  44  68 100 133 172 239 289 335 405
#     4  12  24  44  68 103 143 175 226 284 356 414
#     4  11  21  43  71  96 129 182 220 281 345 404
#     4  10  21  43  70  97 134 175 224 292 343 401
#
# _framework density 22.140514
#
# number of rings (size 3 to 8) (size 9 to 14) (size 15 to 20)
#    0.000    1.000    5.000    1.875    3.500    3.500 
#    0.000    3.125    0.000    0.000    0.000    0.000 
#    0.000    0.000    0.000    0.000    0.000    0.000 
#
# Total GULP energy -178763.716421 kJ/mol
# GULP energy per Si atom -5586.366138 kJ/mol
# Density = 2.209012 g / cm^3
# Si number density = 22.140514 Si / 1000 Ang^3
#
#
#
# Elastic Constant Matrix: (Units=GPa)
#
#
# Indices 1 2 3 4 5 6 
#
# 1 47.0978 -0.6215 5.6511 0.0000 -0.2112 0.0000
# 2 -0.6215 59.3005 -5.0437 0.0000 8.7281 0.0000
# 3 5.6511 -5.0437 72.5182 0.0000 2.4680 0.0000
# 4 0.0000 0.0000 0.0000 27.9235 0.0000 2.0758
# 5 -0.2112 8.7281 2.4680 0.0000 26.0539 0.0000
# 6 0.0000 0.0000 0.0000 2.0758 0.0000 23.0268
#
#
#
# Elastic Compliance Matrix: (Units=1/GPa)
#
#
# Indices 1 2 3 4 5 6 
#
# 1 0.021436 0.000035 -0.001679 0.000000 0.000321 0.000000
# 2 0.000035 0.017889 0.001450 0.000000 -0.006130 0.000000
# 3 -0.001679 0.001450 0.014084 0.000000 -0.001833 0.000000
# 4 0.000000 0.000000 0.000000 0.036054 0.000000 -0.003250
# 5 0.000321 -0.006130 -0.001833 0.000000 0.040612 0.000000
# 6 0.000000 0.000000 0.000000 -0.003250 0.000000 0.043721
#
#
# Mechanical properties :
#
#
# Convention : Reuss Voigt Hill
#
# Bulk Modulus (GPa) = 18.86073 19.87648 19.36860
# Shear Modulus (GPa) = 26.06110 27.32953 26.69531
#
# Velocity S-wave (km/s) = 3.43458 3.51717 3.47612
# Velocity P-wave (km/s) = 4.92601 5.04885 4.98781
#
# Compressibility (1/GPa) = 0.05302022
#
# Stress axis : x y z
#
# Youngs Moduli (GPa) = 46.65101 55.89965 71.00389
#
# Poissons Ratio (x) = -0.00193 0.11921
# Poissons Ratio (y) = -0.00161 -0.10296
# Poissons Ratio (z) = 0.07832 -0.08106
#
# Static dielectric constant tensor:
#      x y z
#    x 1.850520 0.000000 0.019810 
#    y 0.000000 1.838820 0.000000 
#    z 0.019810 0.000000 1.826720 
# 
# From -- ./inp_files/205437.got.cif
#   From: 2010.05.17/outbox.cif.g08.bks.cpg/sg15_103_cif.got.tgz:205437.got - 2010.06.03 18:47:42.
