data_PCOD9286938
_publ_section_title
;
Structure prediction by ZEFSAII (Michael W. Deem and Ramdas Pophale) SiO2 
 PCOD9286938
Probable space group: C 2/C
;
_chemical_formula_sum "Si O2"
_cell_formula_units_Z 44
_cell_length_a 16.024227
_cell_length_b 21.510822
_cell_length_c 5.261978
_cell_angle_alpha 90.000000
_cell_angle_beta 100.235529
_cell_angle_gamma 90.000000
_cell_volume 1784.908690
_symmetry_space_group_name_H-M "C 2/C"
_symmetry_group_IT_number 15
_symmetry_cell_setting 'monoclinic'
loop_
_space_group_symop_operation_xyz
x,y,z
-x,y,1/2-z
-x,-y,-z
x,-y,1/2+z
1/2+x,1/2+y,z
1/2-x,1/2+y,1/2-z
1/2-x,1/2-y,-z
1/2+x,1/2-y,1/2+z
loop_
_atom_site_type_symbol
_atom_site_label
_atom_site_fract_x
_atom_site_fract_y
_atom_site_fract_z
Si Si1 0.179601 0.154689 0.494595
Si Si2 0.091732 0.461688 0.984396
Si Si3 0.291920 0.459878 0.146666
Si Si4 0.000000 0.639146 0.750000
Si Si5 0.000000 0.254851 0.750000
Si Si6 0.000000 0.828990 0.750000
Si Si7 0.347304 0.798511 0.883299
O O1 0.178395 0.106667 0.728062
O O2 0.265902 0.156528 0.369506
O O3 0.178709 0.226567 0.588509
O O4 0.092572 0.139597 0.298863
O O5 0.078901 0.514971 0.191755
O O6 0.191162 0.449247 0.072074
O O7 0.036882 0.404795 0.051661
O O8 0.314330 0.490860 0.886680
O O9 0.918627 0.677581 0.616798
O O10 0.002425 0.211358 0.506487
O O11 0.911550 0.292785 0.680131
#
# Coordination Sequence:
#
# PCOD9286938 Si02
#       7
#     8   8   8   4   4   4   8
#     4  10  21  45  66 102 131 188 218 298 327 414
#     4  10  22  40  62  91 131 173 217 265 322 398
#     4  10  22  43  68  96 129 174 230 281 333 398
#     4  12  21  40  63 102 129 182 209 274 322 428
#     4  10  22  44  59 103 131 185 210 280 316 438
#     4  10  23  42  72  87 138 165 239 274 348 374
#     4  10  22  38  69  98 146 174 232 262 358 396
#
# _framework density 24.651119999999999
#
# number of rings (size 3 to 8) (size 9 to 14) (size 15 to 20)
#    0.000    1.818    1.818    2.727    0.000    5.091 
#    3.273    2.727    0.000    0.000    0.000    0.000 
#    0.000    0.000    0.000    0.000    0.000    0.000 
#
# Total GULP energy -122756.510332 kJ/mol
# GULP energy per Si atom -5579.841379 kJ/mol
# Density = 2.459501 g / cm^3
# Si number density = 24.651120 Si / 1000 Ang^3
#
#
#
# Elastic Constant Matrix: (Units=GPa)
#
#
# Indices 1 2 3 4 5 6 
#
# 1 123.2831 20.1401 23.8712 0.0000 15.6695 0.0000
# 2 20.1401 121.5935 59.0178 0.0000 11.8465 0.0000
# 3 23.8712 59.0178 130.8145 0.0000 -2.9138 0.0000
# 4 0.0000 0.0000 0.0000 46.8154 0.0000 15.8255
# 5 15.6695 11.8465 -2.9138 0.0000 34.6924 0.0000
# 6 0.0000 0.0000 0.0000 15.8255 0.0000 103.7076
#
#
#
# Elastic Compliance Matrix: (Units=1/GPa)
#
#
# Indices 1 2 3 4 5 6 
#
# 1 0.008990 -0.000321 -0.001587 0.000000 -0.004084 0.000000
# 2 -0.000321 0.011127 -0.005052 0.000000 -0.004079 0.000000
# 3 -0.001587 -0.005052 0.010287 0.000000 0.003306 0.000000
# 4 0.000000 0.000000 0.000000 0.022522 0.000000 -0.003437
# 5 -0.004084 -0.004079 0.003306 0.000000 0.032340 0.000000
# 6 0.000000 0.000000 0.000000 -0.003437 0.000000 0.010167
#
#
# Mechanical properties :
#
#
# Convention : Reuss Voigt Hill
#
# Bulk Modulus (GPa) = 60.66448 64.63879 62.65164
# Shear Modulus (GPa) = 43.53586 55.22055 49.37820
#
# Velocity S-wave (km/s) = 4.20704 4.73809 4.48044
# Velocity P-wave (km/s) = 6.94705 7.49740 7.22746
#
# Compressibility (1/GPa) = 0.01648411
#
# Stress axis : x y z
#
# Youngs Moduli (GPa) = 111.23222 89.87236 97.21064
#
# Poissons Ratio (x) = 0.02885 0.15424
# Poissons Ratio (y) = 0.03571 0.49113
# Poissons Ratio (z) = 0.17649 0.45406
#
# Static dielectric constant tensor:
#      x y z
#    x 2.081040 0.000000 0.018150 
#    y 0.000000 2.053680 0.000000 
#    z 0.018150 0.000000 1.927450 
# 
# From -- ./inp_files/10429.got.cif
#   From: 2010.05.17/outbox.cif.g08.bks.cpg/sg15_6_cif.got.tgz:10429.got - 2010.06.03 18:47:42.
