data_PCOD9286134
_publ_section_title
;
Structure prediction by ZEFSAII (Michael W. Deem and Ramdas Pophale) SiO2 
 PCOD9286134
Probable space group: C 2/C
;
_chemical_formula_sum "Si O2"
_cell_formula_units_Z 48
_cell_length_a 18.903349
_cell_length_b 11.308765
_cell_length_c 11.431730
_cell_angle_alpha 90.000000
_cell_angle_beta 124.353338
_cell_angle_gamma 90.000000
_cell_volume 2017.537189
_symmetry_space_group_name_H-M "C 2/C"
_symmetry_group_IT_number 15
_symmetry_cell_setting 'monoclinic'
loop_
_space_group_symop_operation_xyz
x,y,z
-x,y,1/2-z
-x,-y,-z
x,-y,1/2+z
1/2+x,1/2+y,z
1/2-x,1/2+y,1/2-z
1/2-x,1/2-y,-z
1/2+x,1/2-y,1/2+z
loop_
_atom_site_type_symbol
_atom_site_label
_atom_site_fract_x
_atom_site_fract_y
_atom_site_fract_z
Si Si1 0.569241 0.891580 0.067580
Si Si2 0.851096 0.539204 0.642233
Si Si3 0.399891 0.519312 0.933989
Si Si4 0.594975 0.792550 0.844386
Si Si5 0.173608 0.939140 0.387688
Si Si6 0.442550 0.255711 0.593225
O O1 0.649655 0.910661 0.228277
O O2 0.511841 0.788593 0.066852
O O3 0.607255 0.842005 0.985028
O O4 0.500000 0.000000 0.000000
O O5 0.905399 0.419810 0.717927
O O6 0.763751 0.497748 0.503607
O O7 0.896751 0.640174 0.606439
O O8 0.356827 0.504704 0.765158
O O9 0.500000 0.500000 0.000000
O O10 0.375036 0.448197 0.029770
O O11 0.384636 0.651962 0.971018
O O12 0.500000 0.738244 0.750000
O O13 0.663741 0.701816 0.859607
O O14 0.500000 0.313890 0.750000
#
# Coordination Sequence:
#
# PCOD9286134 Si02
#       6
#     8   8   8   8   8   8
#     4  11  20  38  71 103 136 181 238 301 352 445
#     4  11  25  43  64 108 150 183 235 306 381 433
#     4  12  26  50  75 103 143 197 256 294 363 448
#     4  12  22  43  74 104 137 190 248 298 363 435
#     4  12  29  46  71 106 150 193 239 310 365 441
#     4  10  21  42  73 103 136 188 244 303 361 436
#
# _framework density 23.791383
#
# number of rings (size 3 to 8) (size 9 to 14) (size 15 to 20)
#    0.000    0.667    3.333    5.500    2.333    2.000 
#    3.000    0.000    0.000    0.000    0.000    0.000 
#    0.000    0.000    0.000    0.000    0.000    0.000 
#
# Total GULP energy -133792.518003 kJ/mol
# GULP energy per Si atom -5574.688250 kJ/mol
# Density = 2.373723 g / cm^3
# Si number density = 23.791383 Si / 1000 Ang^3
#
#
#
# Elastic Constant Matrix: (Units=GPa)
#
#
# Indices 1 2 3 4 5 6 
#
# 1 67.0668 4.8352 45.4658 0.0000 -10.1567 0.0000
# 2 4.8352 78.6905 31.5967 0.0000 -0.7682 0.0000
# 3 45.4658 31.5967 176.2451 0.0000 1.2624 0.0000
# 4 0.0000 0.0000 0.0000 48.4106 0.0000 -34.9427
# 5 -10.1567 -0.7682 1.2624 0.0000 45.9859 0.0000
# 6 0.0000 0.0000 0.0000 -34.9427 0.0000 79.2177
#
#
#
# Elastic Compliance Matrix: (Units=1/GPa)
#
#
# Indices 1 2 3 4 5 6 
#
# 1 0.018948 0.000919 -0.005084 0.000000 0.004340 0.000000
# 2 0.000919 0.013742 -0.002705 0.000000 0.000507 0.000000
# 3 -0.005084 -0.002705 0.007480 0.000000 -0.001373 0.000000
# 4 0.000000 0.000000 0.000000 0.030305 0.000000 0.013368
# 5 0.004340 0.000507 -0.001373 0.000000 0.022751 0.000000
# 6 0.000000 0.000000 0.000000 0.013368 0.000000 0.018520
#
#
# Mechanical properties :
#
#
# Convention : Reuss Voigt Hill
#
# Bulk Modulus (GPa) = 37.83227 53.97754 45.90491
# Shear Modulus (GPa) = 37.23150 50.72982 43.98066
#
# Velocity S-wave (km/s) = 3.96019 4.62267 4.30419
# Velocity P-wave (km/s) = 6.07018 7.15746 6.63612
#
# Compressibility (1/GPa) = 0.02643246
#
# Stress axis : x y z
#
# Youngs Moduli (GPa) = 52.77626 72.76748 133.68813
#
# Poissons Ratio (x) = -0.06690 0.67966
# Poissons Ratio (y) = -0.04852 0.36156
# Poissons Ratio (z) = 0.26831 0.19680
#
# Static dielectric constant tensor:
#      x y z
#    x 2.180340 0.000000 -0.407310 
#    y 0.000000 2.082530 0.000000 
#    z -0.407310 0.000000 2.503230 
# 
# From -- ./inp_files/111780.got.cif
#   From: 2010.05.17/outbox.cif.g08.bks.cpg/sg15_56_cif.got.tgz:111780.got - 2010.06.03 18:47:42.
