data_PCOD9286967
_publ_section_title
;
Structure prediction by ZEFSAII (Michael W. Deem and Ramdas Pophale) SiO2 
 PCOD9286967
Probable space group: C 2/C
;
_chemical_formula_sum "Si O2"
_cell_formula_units_Z 64
_cell_length_a 11.373085
_cell_length_b 16.667247
_cell_length_c 25.639881
_cell_angle_alpha 90.000000
_cell_angle_beta 40.187968
_cell_angle_gamma 90.000000
_cell_volume 3136.302865
_symmetry_space_group_name_H-M "C 2/C"
_symmetry_group_IT_number 15
_symmetry_cell_setting 'monoclinic'
loop_
_space_group_symop_operation_xyz
x,y,z
-x,y,1/2-z
-x,-y,-z
x,-y,1/2+z
1/2+x,1/2+y,z
1/2-x,1/2+y,1/2-z
1/2-x,1/2-y,-z
1/2+x,1/2-y,1/2+z
loop_
_atom_site_type_symbol
_atom_site_label
_atom_site_fract_x
_atom_site_fract_y
_atom_site_fract_z
Si Si1 0.067244 0.561754 0.670374
Si Si2 0.210202 0.695462 0.062687
Si Si3 0.024356 0.882065 0.851407
Si Si4 0.619169 0.070786 0.330918
Si Si5 0.085817 0.714981 0.592618
Si Si6 0.327685 0.499798 0.848806
Si Si7 0.707026 0.320530 0.156459
Si Si8 0.119755 0.067041 0.433794
O O1 0.133344 0.636704 0.611893
O O2 0.199274 0.485894 0.638549
O O3 0.000000 0.591061 0.750000
O O4 0.922694 0.514197 0.683255
O O5 0.193388 0.752864 0.117744
O O6 0.366359 0.634130 0.026561
O O7 0.038580 0.636540 0.115167
O O8 0.250000 0.750000 0.000000
O O9 0.213481 0.893589 0.757809
O O10 0.054981 0.892623 0.902525
O O11 0.953234 0.794486 0.860504
O O12 0.890829 0.952533 0.878071
O O13 0.673385 0.049111 0.371161
O O14 0.250000 0.750000 0.500000
O O15 0.889606 0.696069 0.629879
O O16 0.500000 0.499589 0.750000
O O17 0.270335 0.591127 0.875805
O O18 0.500000 0.320777 0.250000
O O19 0.000000 0.000000 0.500000
#
# Coordination Sequence:
#
# PCOD9286967 Si02
#       8
#     8   8   8   8   8   8   8   8
#     4  11  23  42  73 102 133 186 240 291 346 431
#     4  11  26  42  65  99 137 175 230 291 350 418
#     4  11  22  43  71  97 133 186 229 291 349 423
#     4  10  21  45  69 100 135 172 241 289 345 412
#     4  12  26  45  66 104 150 184 227 293 377 424
#     4   9  21  40  68  97 128 169 227 283 340 407
#     4  11  23  45  72  99 132 187 238 283 340 427
#     4  11  24  43  66  95 140 179 229 285 356 420
#
# _framework density 20.406192000000001
#
# number of rings (size 3 to 8) (size 9 to 14) (size 15 to 20)
#    0.000    1.250    3.750    1.500    1.750    2.500 
#    2.250    1.250    0.000    0.000    0.000    0.000 
#    0.000    0.000    0.000    0.000    0.000    0.000 
#
# Total GULP energy -178353.020244 kJ/mol
# GULP energy per Si atom -5573.531883 kJ/mol
# Density = 2.035975 g / cm^3
# Si number density = 20.406192 Si / 1000 Ang^3
#
#
#
# Elastic Constant Matrix: (Units=GPa)
#
#
# Indices 1 2 3 4 5 6 
#
# 1 90.6978 41.3014 24.2181 -0.0001 0.3943 -0.0001
# 2 41.3014 155.2627 33.2502 -0.0004 9.9853 0.0000
# 3 24.2181 33.2502 56.4483 -0.0007 3.3188 -0.0008
# 4 -0.0001 -0.0004 -0.0007 33.3971 -0.0001 2.0816
# 5 0.3943 9.9853 3.3188 -0.0001 14.9794 0.0003
# 6 -0.0001 0.0000 -0.0008 2.0816 0.0003 38.9994
#
#
#
# Elastic Compliance Matrix: (Units=1/GPa)
#
#
# Indices 1 2 3 4 5 6 
#
# 1 0.013434 -0.002823 -0.004246 0.000000 0.002469 0.000000
# 2 -0.002823 0.008209 -0.003350 0.000000 -0.004655 0.000000
# 3 -0.004246 -0.003350 0.021655 0.000000 -0.002453 0.000000
# 4 0.000000 0.000000 0.000000 0.030043 0.000000 -0.001604
# 5 0.002469 -0.004655 -0.002453 0.000000 0.070340 -0.000001
# 6 0.000000 0.000000 0.000000 -0.001604 -0.000001 0.025727
#
#
# Mechanical properties :
#
#
# Convention : Reuss Voigt Hill
#
# Bulk Modulus (GPa) = 44.52610 55.54980 50.03795
# Shear Modulus (GPa) = 25.28679 31.05113 28.16896
#
# Velocity S-wave (km/s) = 3.52401 3.90507 3.71942
# Velocity P-wave (km/s) = 6.19883 6.90028 6.55894
#
# Compressibility (1/GPa) = 0.02245874
#
# Stress axis : x y z
#
# Youngs Moduli (GPa) = 74.43676 121.82442 46.17960
#
# Poissons Ratio (x) = 0.34393 0.19608
# Poissons Ratio (y) = 0.21015 0.15471
# Poissons Ratio (z) = 0.31605 0.40814
#
# Static dielectric constant tensor:
#      x y z
#    x 1.760650 0.000000 -0.054400 
#    y 0.000000 1.753220 0.000000 
#    z -0.054400 0.000000 1.758590 
# 
# From -- ./inp_files/293062.got.cif
#   From: 2010.05.17/outbox.cif.g08.bks.cpg/sg15_147_cif.got.tgz:293062.got - 2010.06.03 18:47:42.
