data_PCOD9286441
_publ_section_title
;
Structure prediction by ZEFSAII (Michael W. Deem and Ramdas Pophale) SiO2 
 PCOD9286441
Probable space group: C 2/C
;
_chemical_formula_sum "Si O2"
_cell_formula_units_Z 44
_cell_length_a 12.257080
_cell_length_b 21.983144
_cell_length_c 8.477296
_cell_angle_alpha 90.000000
_cell_angle_beta 116.777900
_cell_angle_gamma 90.000000
_cell_volume 2039.241839
_symmetry_space_group_name_H-M "C 2/C"
_symmetry_group_IT_number 15
_symmetry_cell_setting 'monoclinic'
loop_
_space_group_symop_operation_xyz
x,y,z
-x,y,1/2-z
-x,-y,-z
x,-y,1/2+z
1/2+x,1/2+y,z
1/2-x,1/2+y,1/2-z
1/2-x,1/2-y,-z
1/2+x,1/2-y,1/2+z
loop_
_atom_site_type_symbol
_atom_site_label
_atom_site_fract_x
_atom_site_fract_y
_atom_site_fract_z
Si Si1 0.500000 0.450489 0.250000
Si Si2 0.810054 0.352192 0.486738
Si Si3 0.813837 0.954698 0.880615
Si Si4 0.084350 0.543156 0.656353
Si Si5 0.397108 0.340089 0.382432
Si Si6 0.500000 0.760159 0.750000
Si Si7 0.500000 0.395284 0.750000
O O1 0.597006 0.481971 0.427232
O O2 0.429633 0.404357 0.320324
O O3 0.741400 0.394802 0.570338
O O4 0.888341 0.399298 0.434270
O O5 0.724683 0.323256 0.294633
O O6 0.888046 0.303629 0.633081
O O7 0.901717 0.931258 0.797292
O O8 0.707715 0.003852 0.774459
O O9 0.000000 0.559931 0.750000
O O10 0.000000 0.500000 0.500000
O O11 0.485754 0.286006 0.387306
O O12 0.415877 0.354590 0.577311
#
# Coordination Sequence:
#
# PCOD9286441 Si02
#       7
#     4   8   8   8   8   4   4
#     4   7  16  38  65  94 130 172 221 265 330 402
#     4  11  23  43  70  96 133 187 228 276 341 411
#     4  10  21  43  69 100 140 185 223 276 340 407
#     4  12  25  44  69 100 142 184 230 273 338 420
#     4   9  20  39  66  97 132 169 223 283 337 397
#     4  11  22  46  69  94 129 186 232 281 352 402
#     4  10  22  42  70 108 143 166 227 290 338 408
#
# _framework density 21.576647999999999
#
# number of rings (size 3 to 8) (size 9 to 14) (size 15 to 20)
#    0.000    1.818    1.818    2.727    2.545    0.000 
#    1.636   18.182    0.000    0.000    0.000    0.000 
#    0.000    0.000    0.000    0.000    0.000    0.000 
#
# Total GULP energy -122742.746962 kJ/mol
# GULP energy per Si atom -5579.215771 kJ/mol
# Density = 2.152754 g / cm^3
# Si number density = 21.576648 Si / 1000 Ang^3
#
#
#
# Elastic Constant Matrix: (Units=GPa)
#
#
# Indices 1 2 3 4 5 6 
#
# 1 128.9654 52.3371 46.2344 0.0000 -23.5062 0.0000
# 2 52.3371 87.0021 43.1056 0.0000 -8.9523 0.0000
# 3 46.2344 43.1056 142.9943 0.0000 -4.0944 0.0000
# 4 0.0000 0.0000 0.0000 15.2894 0.0000 3.3565
# 5 -23.5062 -8.9523 -4.0944 0.0000 46.1430 0.0000
# 6 0.0000 0.0000 0.0000 3.3565 0.0000 43.1812
#
#
#
# Elastic Compliance Matrix: (Units=1/GPa)
#
#
# Indices 1 2 3 4 5 6 
#
# 1 0.011523 -0.005496 -0.001936 0.000000 0.004632 0.000000
# 2 -0.005496 0.016374 -0.003156 0.000000 0.000097 0.000000
# 3 -0.001936 -0.003156 0.008547 0.000000 -0.000840 0.000000
# 4 0.000000 0.000000 0.000000 0.066540 0.000000 -0.005172
# 5 0.004632 0.000097 -0.000840 0.000000 0.023976 0.000000
# 6 0.000000 0.000000 0.000000 -0.005172 0.000000 0.023560
#
#
# Mechanical properties :
#
#
# Convention : Reuss Voigt Hill
#
# Bulk Modulus (GPa) = 65.50162 71.36845 68.43503
# Shear Modulus (GPa) = 28.28308 35.40837 31.84572
#
# Velocity S-wave (km/s) = 3.62445 4.05538 3.84596
# Velocity P-wave (km/s) = 6.92380 7.42137 7.17690
#
# Compressibility (1/GPa) = 0.01526680
#
# Stress axis : x y z
#
# Youngs Moduli (GPa) = 86.78521 61.07379 117.00385
#
# Poissons Ratio (x) = 0.33564 0.22656
# Poissons Ratio (y) = 0.47694 0.36928
# Poissons Ratio (z) = 0.16805 0.19276
#
# Static dielectric constant tensor:
#      x y z
#    x 1.173890 0.000000 0.211460 
#    y 0.000000 1.717610 0.000000 
#    z 0.211460 0.000000 1.645140 
# 
# From -- ./inp_files/32777.got.cif
#   From: 2010.05.17/outbox.cif.g08.bks.cpg/sg15_17_cif.got.tgz:32777.got - 2010.06.03 18:47:42.
