data_PCOD9286180
_publ_section_title
;
Structure prediction by ZEFSAII (Michael W. Deem and Ramdas Pophale) SiO2 
 PCOD9286180
Probable space group: C 2/C
;
_chemical_formula_sum "Si O2"
_cell_formula_units_Z 44
_cell_length_a 9.301715
_cell_length_b 25.245043
_cell_length_c 11.687398
_cell_angle_alpha 90.000000
_cell_angle_beta 50.222501
_cell_angle_gamma 90.000000
_cell_volume 2109.213492
_symmetry_space_group_name_H-M "C 2/C"
_symmetry_group_IT_number 15
_symmetry_cell_setting 'monoclinic'
loop_
_space_group_symop_operation_xyz
x,y,z
-x,y,1/2-z
-x,-y,-z
x,-y,1/2+z
1/2+x,1/2+y,z
1/2-x,1/2+y,1/2-z
1/2-x,1/2-y,-z
1/2+x,1/2-y,1/2+z
loop_
_atom_site_type_symbol
_atom_site_label
_atom_site_fract_x
_atom_site_fract_y
_atom_site_fract_z
Si Si1 0.816888 0.198003 0.286392
Si Si2 0.500000 0.963171 0.750000
Si Si3 0.481228 0.841244 0.394225
Si Si4 0.712224 0.721614 0.641167
Si Si5 0.861579 0.077091 0.183426
Si Si6 0.228969 0.547598 0.491347
O O1 0.671038 0.193880 0.463115
O O2 0.742839 0.233204 0.221289
O O3 0.867979 0.138839 0.216182
O O4 0.000000 0.221101 0.250000
O O5 0.320307 0.929257 0.802891
O O6 0.599706 0.001286 0.605751
O O7 0.500000 0.831848 0.250000
O O8 0.662043 0.827227 0.378390
O O9 0.401927 0.900620 0.442975
O O10 0.500000 0.703638 0.750000
O O11 0.750000 0.750000 0.500000
O O12 0.801637 0.042474 0.324728
O O13 0.073299 0.059205 0.041513
#
# Coordination Sequence:
#
# PCOD9286180 Si02
#       6
#     8   4   8   8   8   8
#     4  11  23  44  68  90 128 181 220 255 324 404
#     4  12  22  36  68 100 126 162 214 278 324 360
#     4  11  23  43  68  92 128 174 220 264 316 392
#     4  12  27  42  64  98 134 164 217 276 329 377
#     4  10  22  40  66  91 129 170 212 262 323 388
#     4  10  21  43  62  92 128 168 215 259 317 396
#
# _framework density 20.860856999999999
#
# number of rings (size 3 to 8) (size 9 to 14) (size 15 to 20)
#    0.000    1.091    6.364    1.636    3.818    1.455 
#    0.000    0.000    4.000    0.000    0.000    0.000 
#    0.000    0.000    0.000    0.000    0.000    0.000 
#
# Total GULP energy -122700.123426 kJ/mol
# GULP energy per Si atom -5577.278338 kJ/mol
# Density = 2.081338 g / cm^3
# Si number density = 20.860857 Si / 1000 Ang^3
#
#
#
# Elastic Constant Matrix: (Units=GPa)
#
#
# Indices 1 2 3 4 5 6 
#
# 1 157.2812 27.3609 33.3082 0.0000 -29.1106 0.0000
# 2 27.3609 57.1675 10.2782 0.0000 -7.9774 0.0000
# 3 33.3082 10.2782 79.5179 0.0000 -6.1434 0.0000
# 4 0.0000 0.0000 0.0000 -123.8512 0.0000 -121.3823
# 5 -29.1106 -7.9774 -6.1434 0.0000 47.4748 0.0000
# 6 0.0000 0.0000 0.0000 -121.3823 0.0000 -55.0133
#
#
#
# Elastic Compliance Matrix: (Units=1/GPa)
#
#
# Indices 1 2 3 4 5 6 
#
# 1 0.008213 -0.002851 -0.002747 0.000000 0.004202 0.000000
# 2 -0.002851 0.019257 -0.001192 0.000000 0.001334 0.000000
# 3 -0.002747 -0.001192 0.013874 0.000000 -0.000090 0.000000
# 4 0.000000 0.000000 0.000000 0.006946 0.000000 -0.015326
# 5 0.004202 0.001334 -0.000090 0.000000 0.023853 0.000000
# 6 0.000000 0.000000 0.000000 -0.015326 0.000000 0.015637
#
#
# Mechanical properties :
#
#
# Convention : Reuss Voigt Hill
#
# Bulk Modulus (GPa) = 36.01745 48.42903 42.22324
# Shear Modulus (GPa) = 45.20167 -11.40997 16.89585
#
# Velocity S-wave (km/s) = 4.65996 -2.34125 2.84902
# Velocity P-wave (km/s) = 6.80123 3.99463 5.57735
#
# Compressibility (1/GPa) = 0.02776432
#
# Stress axis : x y z
#
# Youngs Moduli (GPa) = 121.75122 51.92848 72.07871
#
# Poissons Ratio (x) = 0.14804 0.19802
# Poissons Ratio (y) = 0.34708 0.08592
# Poissons Ratio (z) = 0.33449 0.06190
#
# Static dielectric constant tensor:
#      x y z
#    x 1.870800 0.000000 0.001130 
#    y 0.000000 1.741780 0.000000 
#    z 0.001130 0.000000 1.737630 
# 
# From -- ./inp_files/81079.got.cif
#   From: 2010.05.17/outbox.cif.g08.bks.cpg/sg15_41_cif.got.tgz:81079.got - 2010.06.03 18:47:42.
