data_PCOD9286132
_publ_section_title
;
Structure prediction by ZEFSAII (Michael W. Deem and Ramdas Pophale) SiO2 
 PCOD9286132
Probable space group: C 2/C
;
_chemical_formula_sum "Si O2"
_cell_formula_units_Z 32
_cell_length_a 18.737685
_cell_length_b 11.671944
_cell_length_c 8.449160
_cell_angle_alpha 90.000000
_cell_angle_beta 143.555519
_cell_angle_gamma 90.000000
_cell_volume 1097.718464
_symmetry_space_group_name_H-M "C 2/C"
_symmetry_group_IT_number 15
_symmetry_cell_setting 'monoclinic'
loop_
_space_group_symop_operation_xyz
x,y,z
-x,y,1/2-z
-x,-y,-z
x,-y,1/2+z
1/2+x,1/2+y,z
1/2-x,1/2+y,1/2-z
1/2-x,1/2-y,-z
1/2+x,1/2-y,1/2+z
loop_
_atom_site_type_symbol
_atom_site_label
_atom_site_fract_x
_atom_site_fract_y
_atom_site_fract_z
Si Si1 0.882311 0.561348 0.446490
Si Si2 0.829614 0.652094 0.000595
Si Si3 0.178975 0.870564 0.832525
Si Si4 0.600248 0.380103 0.244555
O O1 0.870583 0.604636 0.247026
O O2 0.883799 0.422015 0.456721
O O3 0.772590 0.583895 0.369107
O O4 0.000000 0.603675 0.750000
O O5 0.864853 0.783160 0.068379
O O6 0.684609 0.649856 0.744429
O O7 0.038236 0.857842 0.537481
O O8 0.146488 0.992058 0.872393
O O9 0.250000 0.750000 0.000000
#
# Coordination Sequence:
#
# PCOD9286132 Si02
#       4
#     8   8   8   8
#     4  11  23  42  72 104 140 193 247 306 376 457
#     4  10  22  45  71 103 144 185 244 308 369 453
#     4  10  21  42  73 102 142 195 248 304 375 451
#     4   9  21  45  68 102 145 191 242 308 375 448
#
# _framework density 29.151375000000002
#
# number of rings (size 3 to 8) (size 9 to 14) (size 15 to 20)
#    0.000    2.000    0.000    2.250    0.000    3.000 
#   40.500    3.750    0.000    0.000    0.000    0.000 
#    0.000    0.000    0.000    0.000    0.000    0.000 
#
# Total GULP energy -89341.439664 kJ/mol
# GULP energy per Si atom -5583.839979 kJ/mol
# Density = 2.908502 g / cm^3
# Si number density = 29.151375 Si / 1000 Ang^3
#
#
#
# Elastic Constant Matrix: (Units=GPa)
#
#
# Indices 1 2 3 4 5 6 
#
# 1 115.1932 76.8128 95.6201 0.0000 38.7126 0.0000
# 2 76.8128 248.8466 90.0439 0.0000 -11.3177 0.0000
# 3 95.6201 90.0439 232.9211 0.0000 47.5114 0.0000
# 4 0.0000 0.0000 0.0000 60.6972 0.0000 -18.8890
# 5 38.7126 -11.3177 47.5114 0.0000 58.8832 0.0000
# 6 0.0000 0.0000 0.0000 -18.8890 0.0000 55.6102
#
#
#
# Elastic Compliance Matrix: (Units=1/GPa)
#
#
# Indices 1 2 3 4 5 6 
#
# 1 0.018199 -0.004773 -0.003589 0.000000 -0.009987 0.000000
# 2 -0.004773 0.006351 -0.001657 0.000000 0.005696 0.000000
# 3 -0.003589 -0.001657 0.007171 0.000000 -0.003745 0.000000
# 4 0.000000 0.000000 0.000000 0.018423 0.000000 0.006258
# 5 -0.009987 0.005696 -0.003745 0.000000 0.027665 0.000000
# 6 0.000000 0.000000 0.000000 0.006258 0.000000 0.020108
#
#
# Mechanical properties :
#
#
# Convention : Reuss Voigt Hill
#
# Bulk Modulus (GPa) = 85.60076 124.65717 105.12897
# Shear Modulus (GPa) = 41.03390 57.33705 49.18547
#
# Velocity S-wave (km/s) = 3.75589 4.43976 4.11206
# Velocity P-wave (km/s) = 6.94528 8.31485 7.66073
#
# Compressibility (1/GPa) = 0.01168214
#
# Stress axis : x y z
#
# Youngs Moduli (GPa) = 54.94742 157.46208 139.44274
#
# Poissons Ratio (x) = 0.75160 0.50045
# Poissons Ratio (y) = 0.26228 0.23112
# Poissons Ratio (z) = 0.19720 0.26099
#
# Static dielectric constant tensor:
#      x y z
#    x 2.184520 0.000000 -0.042170 
#    y 0.000000 2.546160 0.000000 
#    z -0.042170 0.000000 2.508280 
# 
# From -- ./inp_files/117804.got.cif
#   From: 2010.05.17/outbox.cif.g08.bks.cpg/sg15_59_cif.got.tgz:117804.got - 2010.06.03 18:47:42.
