data_PCOD9286688
_publ_section_title
;
Structure prediction by ZEFSAII (Michael W. Deem and Ramdas Pophale) SiO2 
 PCOD9286688
Probable space group: C 2/C
;
_chemical_formula_sum "Si O2"
_cell_formula_units_Z 40
_cell_length_a 19.845178
_cell_length_b 8.986180
_cell_length_c 14.928471
_cell_angle_alpha 90.000000
_cell_angle_beta 137.871751
_cell_angle_gamma 90.000000
_cell_volume 1785.803001
_symmetry_space_group_name_H-M "C 2/C"
_symmetry_group_IT_number 15
_symmetry_cell_setting 'monoclinic'
loop_
_space_group_symop_operation_xyz
x,y,z
-x,y,1/2-z
-x,-y,-z
x,-y,1/2+z
1/2+x,1/2+y,z
1/2-x,1/2+y,1/2-z
1/2-x,1/2-y,-z
1/2+x,1/2-y,1/2+z
loop_
_atom_site_type_symbol
_atom_site_label
_atom_site_fract_x
_atom_site_fract_y
_atom_site_fract_z
Si Si1 0.484373 0.687657 0.023344
Si Si2 0.516102 0.970954 0.360158
Si Si3 0.217618 0.357144 0.103972
Si Si4 0.426800 0.725337 0.760124
Si Si5 0.670293 0.456059 0.644051
O O1 0.593563 0.616158 0.141475
O O2 0.483248 0.852067 0.060695
O O3 0.466568 0.685709 0.898553
O O4 0.395472 0.582097 0.971573
O O5 0.500000 0.887910 0.250000
O O6 0.618613 0.067855 0.466167
O O7 0.428862 0.094887 0.271895
O O8 0.317604 0.347356 0.142199
O O9 0.244610 0.456096 0.218125
O O10 0.201807 0.186282 0.118190
O O11 0.500000 0.686312 0.750000
#
# Coordination Sequence:
#
# PCOD9286688 Si02
#       5
#     8   8   8   8   8
#     4  10  21  44  66 100 133 182 217 277 343 388
#     4  11  24  43  68  98 139 179 222 276 336 398
#     4  11  22  41  67 105 129 179 229 270 338 398
#     4  10  22  39  68  98 135 175 221 281 325 402
#     4  10  22  38  70 101 130 172 230 272 336 401
#
# _framework density 22.398887999999999
#
# number of rings (size 3 to 8) (size 9 to 14) (size 15 to 20)
#    0.000    1.600    2.000    3.000    2.800    3.200 
#    0.000   11.000    0.000    0.000    0.000    0.000 
#    0.000    0.000    0.000    0.000    0.000    0.000 
#
# Total GULP energy -111609.373612 kJ/mol
# GULP energy per Si atom -5580.468681 kJ/mol
# Density = 2.234791 g / cm^3
# Si number density = 22.398888 Si / 1000 Ang^3
#
#
#
# Elastic Constant Matrix: (Units=GPa)
#
#
# Indices 1 2 3 4 5 6 
#
# 1 88.3851 45.7831 25.0692 0.0000 -2.1073 0.0000
# 2 45.7831 110.3724 28.9210 0.0000 -2.6509 0.0000
# 3 25.0692 28.9210 80.2983 0.0000 -0.1949 0.0000
# 4 0.0000 0.0000 0.0000 20.5284 0.0000 20.5163
# 5 -2.1073 -2.6509 -0.1949 0.0000 27.8089 0.0000
# 6 0.0000 0.0000 0.0000 20.5163 0.0000 23.6962
#
#
#
# Elastic Compliance Matrix: (Units=1/GPa)
#
#
# Indices 1 2 3 4 5 6 
#
# 1 0.014925 -0.005473 -0.002687 0.000000 0.000590 0.000000
# 2 -0.005473 0.012035 -0.002624 0.000000 0.000714 0.000000
# 3 -0.002687 -0.002624 0.014237 0.000000 -0.000354 0.000000
# 4 0.000000 0.000000 0.000000 0.361613 0.000000 -0.313086
# 5 0.000590 0.000714 -0.000354 0.000000 0.036070 0.000000
# 6 0.000000 0.000000 0.000000 -0.313086 0.000000 0.313272
#
#
# Mechanical properties :
#
#
# Convention : Reuss Voigt Hill
#
# Bulk Modulus (GPa) = 50.94567 53.17803 52.06185
# Shear Modulus (GPa) = 6.40808 26.35889 16.38349
#
# Velocity S-wave (km/s) = 1.69325 3.43417 2.70745
# Velocity P-wave (km/s) = 5.15916 6.28630 5.75041
#
# Compressibility (1/GPa) = 0.01962875
#
# Stress axis : x y z
#
# Youngs Moduli (GPa) = 67.00057 83.08963 70.24037
#
# Poissons Ratio (x) = 0.45473 0.18874
# Poissons Ratio (y) = 0.36668 0.18434
# Poissons Ratio (z) = 0.18004 0.21806
#
# Static dielectric constant tensor:
#      x y z
#    x 1.908990 0.000000 0.009640 
#    y 0.000000 1.837800 0.000000 
#    z 0.009640 0.000000 1.882330 
# 
# From -- ./inp_files/218417.got.cif
#   From: 2010.05.17/outbox.cif.g08.bks.cpg/sg15_110_cif.got.tgz:218417.got - 2010.06.03 18:47:42.
