data_PCOD9286840
_publ_section_title
;
Structure prediction by ZEFSAII (Michael W. Deem and Ramdas Pophale) SiO2 
 PCOD9286840
Probable space group: C 2/C
;
_chemical_formula_sum "Si O2"
_cell_formula_units_Z 56
_cell_length_a 12.011165
_cell_length_b 18.029191
_cell_length_c 10.185556
_cell_angle_alpha 90.000000
_cell_angle_beta 97.740930
_cell_angle_gamma 90.000000
_cell_volume 2185.598309
_symmetry_space_group_name_H-M "C 2/C"
_symmetry_group_IT_number 15
_symmetry_cell_setting 'monoclinic'
loop_
_space_group_symop_operation_xyz
x,y,z
-x,y,1/2-z
-x,-y,-z
x,-y,1/2+z
1/2+x,1/2+y,z
1/2-x,1/2+y,1/2-z
1/2-x,1/2-y,-z
1/2+x,1/2-y,1/2+z
loop_
_atom_site_type_symbol
_atom_site_label
_atom_site_fract_x
_atom_site_fract_y
_atom_site_fract_z
Si Si1 0.828374 0.334321 0.389393
Si Si2 0.000000 0.815396 0.750000
Si Si3 0.000000 0.432225 0.250000
Si Si4 0.514777 0.733347 0.979021
Si Si5 0.168824 0.050815 0.299014
Si Si6 0.724528 0.956893 0.417275
Si Si7 0.282481 0.714640 0.867492
Si Si8 0.914251 0.908267 0.119694
O O1 0.881514 0.288917 0.518815
O O2 0.787872 0.274276 0.274881
O O3 0.716272 0.382730 0.394104
O O4 0.923975 0.385541 0.340514
O O5 0.981692 0.760105 0.625118
O O6 0.106822 0.871733 0.771484
O O7 0.097011 0.471083 0.350875
O O8 0.409339 0.743274 0.869103
O O9 0.542170 0.645705 0.984352
O O10 0.202936 0.012968 0.165186
O O11 0.086026 0.996242 0.370212
O O12 0.268750 0.048340 0.422938
O O13 0.769902 0.874605 0.385257
O O14 0.250000 0.750000 0.000000
O O15 0.000000 0.886959 0.250000
#
# Coordination Sequence:
#
# PCOD9286840 Si02
#       8
#     8   4   4   8   8   8   8   8
#     4  11  23  42  66  99 131 177 227 284 342 410
#     4  12  25  38  70 106 130 181 222 290 340 402
#     4  10  21  44  70  92 128 185 230 276 340 402
#     4  12  23  40  65  99 134 168 226 287 341 401
#     4  12  24  42  66 100 141 176 226 282 346 414
#     4  11  24  43  67  99 136 178 230 286 342 410
#     4  11  21  40  66  94 127 176 225 280 332 402
#     4  12  23  43  66  94 139 182 218 276 356 405
#
# _framework density 25.622275999999999
#
# number of rings (size 3 to 8) (size 9 to 14) (size 15 to 20)
#    0.000    0.571    6.429    4.286    0.000    1.714 
#    0.000    0.000    0.000    0.000    0.000    0.000 
#    0.000    0.000    0.000    0.000    0.000    0.000 
#
# Total GULP energy -156204.094181 kJ/mol
# GULP energy per Si atom -5578.717649 kJ/mol
# Density = 2.556396 g / cm^3
# Si number density = 25.622276 Si / 1000 Ang^3
#
#
#
# Elastic Constant Matrix: (Units=GPa)
#
#
# Indices 1 2 3 4 5 6 
#
# 1 113.2091 -1.4967 4.7610 0.0000 30.5856 0.0000
# 2 -1.4967 52.1189 -20.0288 0.0000 5.4972 0.0000
# 3 4.7610 -20.0288 59.3345 0.0000 18.6396 0.0000
# 4 0.0000 0.0000 0.0000 33.2932 0.0000 -1.0928
# 5 30.5856 5.4972 18.6396 0.0000 47.2899 0.0000
# 6 0.0000 0.0000 0.0000 -1.0928 0.0000 32.6959
#
#
#
# Elastic Compliance Matrix: (Units=1/GPa)
#
#
# Indices 1 2 3 4 5 6 
#
# 1 0.011011 0.002141 0.002459 0.000000 -0.008340 0.000000
# 2 0.002141 0.024224 0.010642 0.000000 -0.008395 0.000000
# 3 0.002459 0.010642 0.024124 0.000000 -0.012336 0.000000
# 4 0.000000 0.000000 0.000000 0.030069 0.000000 0.001005
# 5 -0.008340 -0.008395 -0.012336 0.000000 0.032378 0.000000
# 6 0.000000 0.000000 0.000000 0.001005 0.000000 0.030618
#
#
# Mechanical properties :
#
#
# Convention : Reuss Voigt Hill
#
# Bulk Modulus (GPa) = 11.13049 21.23706 16.18378
# Shear Modulus (GPa) = 32.91893 38.75091 35.83492
#
# Velocity S-wave (km/s) = 3.58827 3.89317 3.74382
# Velocity P-wave (km/s) = 4.63908 5.33999 5.00183
#
# Compressibility (1/GPa) = 0.08984327
#
# Stress axis : x y z
#
# Youngs Moduli (GPa) = 90.81610 41.28207 41.45246
#
# Poissons Ratio (x) = -0.08838 -0.10193
# Poissons Ratio (y) = -0.19442 -0.44115
# Poissons Ratio (z) = -0.22332 -0.43934
#
# Static dielectric constant tensor:
#      x y z
#    x 2.166110 0.000000 -0.022010 
#    y 0.000000 2.024310 0.000000 
#    z -0.022010 0.000000 2.117080 
# 
# From -- ./inp_files/89074.got.cif
#   From: 2010.05.17/outbox.cif.g08.bks.cpg/sg15_45_cif.got.tgz:89074.got - 2010.06.03 18:47:42.
