data_PCOD9286773
_publ_section_title
;
Structure prediction by ZEFSAII (Michael W. Deem and Ramdas Pophale) SiO2 
 PCOD9286773
Probable space group: C 2/C
;
_chemical_formula_sum "Si O2"
_cell_formula_units_Z 36
_cell_length_a 11.701106
_cell_length_b 24.406319
_cell_length_c 8.830015
_cell_angle_alpha 90.000000
_cell_angle_beta 40.494747
_cell_angle_gamma 90.000000
_cell_volume 1637.526852
_symmetry_space_group_name_H-M "C 2/C"
_symmetry_group_IT_number 15
_symmetry_cell_setting 'monoclinic'
loop_
_space_group_symop_operation_xyz
x,y,z
-x,y,1/2-z
-x,-y,-z
x,-y,1/2+z
1/2+x,1/2+y,z
1/2-x,1/2+y,1/2-z
1/2-x,1/2-y,-z
1/2+x,1/2-y,1/2+z
loop_
_atom_site_type_symbol
_atom_site_label
_atom_site_fract_x
_atom_site_fract_y
_atom_site_fract_z
Si Si1 0.805453 0.691994 0.511588
Si Si2 0.850020 0.109283 0.061475
Si Si3 0.500000 0.508657 0.750000
Si Si4 0.309626 0.923494 0.497046
Si Si5 0.124023 0.826932 0.496510
O O1 0.750000 0.750000 0.500000
O O2 0.698858 0.642145 0.540323
O O3 0.760583 0.697665 0.735829
O O4 0.000000 0.683229 0.250000
O O5 0.683606 0.096762 0.336274
O O6 0.939802 0.051205 0.938851
O O7 0.978608 0.145197 0.035304
O O8 0.664841 0.470919 0.625877
O O9 0.500000 0.940994 0.250000
O O10 0.234657 0.873166 0.473201
O O11 0.000000 0.797136 0.750000
#
# Coordination Sequence:
#
# PCOD9286773 Si02
#       5
#     8   8   4   8   8
#     4  12  25  44  70  99 128 174 228 282 345 401
#     4  11  22  42  66  91 135 176 221 280 332 395
#     4  12  22  40  68  94 142 182 222 270 342 384
#     4  11  24  40  63  99 137 180 226 266 336 406
#     4  10  21  44  68  95 136 176 219 281 336 394
#
# _framework density 21.984373000000001
#
# number of rings (size 3 to 8) (size 9 to 14) (size 15 to 20)
#    0.000    0.889    5.556    3.333    0.000    1.778 
#    0.000   11.111    0.000    0.000    0.000    0.000 
#    0.000    0.000    0.000    0.000    0.000    0.000 
#
# Total GULP energy -100430.306015 kJ/mol
# GULP energy per Si atom -5579.461445 kJ/mol
# Density = 2.193434 g / cm^3
# Si number density = 21.984373 Si / 1000 Ang^3
#
#
#
# Elastic Constant Matrix: (Units=GPa)
#
#
# Indices 1 2 3 4 5 6 
#
# 1 43.7070 4.4815 48.4459 0.0000 0.8247 0.0000
# 2 4.4815 56.0452 32.2469 0.0000 0.9869 0.0000
# 3 48.4459 32.2469 219.4392 0.0000 14.3429 0.0000
# 4 0.0000 0.0000 0.0000 -9.0340 0.0000 -25.5483
# 5 0.8247 0.9869 14.3429 0.0000 46.9617 0.0000
# 6 0.0000 0.0000 0.0000 -25.5483 0.0000 -5.4366
#
#
#
# Elastic Compliance Matrix: (Units=1/GPa)
#
#
# Indices 1 2 3 4 5 6 
#
# 1 0.030534 0.001605 -0.007081 0.000000 0.001593 0.000000
# 2 0.001605 0.019585 -0.003269 0.000000 0.000559 0.000000
# 3 -0.007081 -0.003269 0.006722 0.000000 -0.001860 0.000000
# 4 0.000000 0.000000 0.000000 0.009007 0.000000 -0.042326
# 5 0.001593 0.000559 -0.001860 0.000000 0.021822 0.000000
# 6 0.000000 0.000000 0.000000 -0.042326 0.000000 0.014967
#
#
# Mechanical properties :
#
#
# Convention : Reuss Voigt Hill
#
# Bulk Modulus (GPa) = 25.41232 54.39332 39.90282
# Shear Modulus (GPa) = 37.52497 22.09937 29.81217
#
# Velocity S-wave (km/s) = 4.13594 3.17398 3.68647
# Velocity P-wave (km/s) = 5.86450 6.18286 6.02578
#
# Compressibility (1/GPa) = 0.03935100
#
# Stress axis : x y z
#
# Youngs Moduli (GPa) = 32.75075 51.05846 148.75955
#
# Poissons Ratio (x) = -0.08193 1.05334
# Poissons Ratio (y) = -0.05255 0.48627
# Poissons Ratio (z) = 0.23190 0.16690
#
# Static dielectric constant tensor:
#      x y z
#    x 1.757790 0.000000 0.072270 
#    y 0.000000 1.799960 0.000000 
#    z 0.072270 0.000000 1.914420 
# 
# From -- ./inp_files/33269.got.cif
#   From: 2010.05.17/outbox.cif.g08.bks.cpg/sg15_17_cif.got.tgz:33269.got - 2010.06.03 18:47:42.
