data_PCOD9286076
_publ_section_title
;
Structure prediction by ZEFSAII (Michael W. Deem and Ramdas Pophale) SiO2 
 PCOD9286076
Probable space group: C 2/C
;
_chemical_formula_sum "Si O2"
_cell_formula_units_Z 56
_cell_length_a 16.941050
_cell_length_b 17.559803
_cell_length_c 9.729905
_cell_angle_alpha 90.000000
_cell_angle_beta 73.557829
_cell_angle_gamma 90.000000
_cell_volume 2776.100142
_symmetry_space_group_name_H-M "C 2/C"
_symmetry_group_IT_number 15
_symmetry_cell_setting 'monoclinic'
loop_
_space_group_symop_operation_xyz
x,y,z
-x,y,1/2-z
-x,-y,-z
x,-y,1/2+z
1/2+x,1/2+y,z
1/2-x,1/2+y,1/2-z
1/2-x,1/2-y,-z
1/2+x,1/2-y,1/2+z
loop_
_atom_site_type_symbol
_atom_site_label
_atom_site_fract_x
_atom_site_fract_y
_atom_site_fract_z
Si Si1 0.736703 0.781784 0.734634
Si Si2 0.150739 0.062970 0.596407
Si Si3 0.141915 0.914552 0.784005
Si Si4 0.500000 0.327950 0.250000
Si Si5 0.008403 0.423055 0.581822
Si Si6 0.074438 0.271158 0.953833
Si Si7 0.182190 0.658362 0.970245
Si Si8 0.500000 0.306378 0.750000
O O1 0.779833 0.858620 0.762742
O O2 0.669321 0.752872 0.874294
O O3 0.805344 0.720844 0.655051
O O4 0.688800 0.799625 0.614924
O O5 0.139436 0.053239 0.439294
O O6 0.238826 0.103089 0.576789
O O7 0.079019 0.119298 0.683400
O O8 0.145443 0.983342 0.676337
O O9 0.063471 0.861728 0.795726
O O10 0.480730 0.274928 0.129196
O O11 0.097280 0.385981 0.507056
O O12 0.000000 0.435493 0.750000
O O13 0.000000 0.500000 0.500000
O O14 0.942186 0.359980 0.566659
O O15 0.047584 0.244942 0.116678
#
# Coordination Sequence:
#
# PCOD9286076 Si02
#       8
#     8   8   8   4   8   8   8   4
#     4  10  21  43  73  99 133 178 233 288 340 406
#     4  11  25  40  69 100 142 180 226 281 341 417
#     4  11  26  43  64 101 139 179 221 284 345 411
#     4  12  21  44  73 102 128 190 230 274 351 412
#     4  12  27  45  69 102 142 187 231 283 343 414
#     4  12  24  45  72 100 133 183 230 287 344 407
#     4  10  21  42  71 104 130 181 239 280 338 407
#     4  12  27  44  67 102 138 172 230 290 343 414
#
# _framework density 20.172184000000001
#
# number of rings (size 3 to 8) (size 9 to 14) (size 15 to 20)
#    0.000    0.857    5.000    1.286    7.000    1.714 
#    0.000    1.429    0.000    0.000    0.000    0.000 
#    0.000    0.000    0.000    0.000    0.000    0.000 
#
# Total GULP energy -156716.503751 kJ/mol
# GULP energy per Si atom -5597.017991 kJ/mol
# Density = 2.012627 g / cm^3
# Si number density = 20.172184 Si / 1000 Ang^3
#
#
#
# Elastic Constant Matrix: (Units=GPa)
#
#
# Indices 1 2 3 4 5 6 
#
# 1 59.3370 31.0739 27.1245 0.0000 -15.4153 0.0000
# 2 31.0739 125.2636 79.3877 0.0000 2.8082 0.0000
# 3 27.1245 79.3877 130.2370 0.0000 -12.1189 0.0000
# 4 0.0000 0.0000 0.0000 34.3813 0.0000 11.7080
# 5 -15.4153 2.8082 -12.1189 0.0000 33.7262 0.0000
# 6 0.0000 0.0000 0.0000 11.7080 0.0000 14.3235
#
#
#
# Elastic Compliance Matrix: (Units=1/GPa)
#
#
# Indices 1 2 3 4 5 6 
#
# 1 0.022774 -0.005740 -0.000239 0.000000 0.010802 0.000000
# 2 -0.005740 0.015018 -0.008607 0.000000 -0.006967 0.000000
# 3 -0.000239 -0.008607 0.013482 0.000000 0.005452 0.000000
# 4 0.000000 0.000000 0.000000 0.040305 0.000000 -0.032945
# 5 0.010802 -0.006967 0.005452 0.000000 0.037127 0.000000
# 6 0.000000 0.000000 0.000000 -0.032945 0.000000 0.096745
#
#
# Mechanical properties :
#
#
# Convention : Reuss Voigt Hill
#
# Bulk Modulus (GPa) = 45.24576 65.55664 55.40120
# Shear Modulus (GPa) = 19.08456 28.30297 23.69377
#
# Velocity S-wave (km/s) = 3.07918 3.74982 3.43093
# Velocity P-wave (km/s) = 5.92624 7.16361 6.57410
#
# Compressibility (1/GPa) = 0.02210152
#
# Stress axis : x y z
#
# Youngs Moduli (GPa) = 43.90883 66.58475 74.17169
#
# Poissons Ratio (x) = 0.38221 0.01773
# Poissons Ratio (y) = 0.25205 0.63843
# Poissons Ratio (z) = 0.01050 0.57313
#
# Static dielectric constant tensor:
#      x y z
#    x 1.721550 0.000000 -0.004300 
#    y 0.000000 1.689480 0.000000 
#    z -0.004300 0.000000 1.696490 
# 
# From -- ./inp_files/49050.got.cif
#   From: 2010.05.17/outbox.cif.g08.bks.cpg/sg15_25_cif.got.tgz:49050.got - 2010.06.03 18:47:42.
