data_PCOD9286888
_publ_section_title
;
Structure prediction by ZEFSAII (Michael W. Deem and Ramdas Pophale) SiO2 
 PCOD9286888
Probable space group: C 2/C
;
_chemical_formula_sum "Si O2"
_cell_formula_units_Z 44
_cell_length_a 31.399332
_cell_length_b 5.884630
_cell_length_c 10.795673
_cell_angle_alpha 90.000000
_cell_angle_beta 99.529149
_cell_angle_gamma 90.000000
_cell_volume 1967.229160
_symmetry_space_group_name_H-M "C 2/C"
_symmetry_group_IT_number 15
_symmetry_cell_setting 'monoclinic'
loop_
_space_group_symop_operation_xyz
x,y,z
-x,y,1/2-z
-x,-y,-z
x,-y,1/2+z
1/2+x,1/2+y,z
1/2-x,1/2+y,1/2-z
1/2-x,1/2-y,-z
1/2+x,1/2-y,1/2+z
loop_
_atom_site_type_symbol
_atom_site_label
_atom_site_fract_x
_atom_site_fract_y
_atom_site_fract_z
Si Si1 0.500000 0.592295 0.250000
Si Si2 0.773624 0.029165 0.764051
Si Si3 0.201574 0.854926 0.477948
Si Si4 0.044685 0.422661 0.460554
Si Si5 0.419217 0.409388 0.346124
Si Si6 0.390415 0.294412 0.069069
O O1 0.531456 0.737776 0.352514
O O2 0.468610 0.464146 0.329856
O O3 0.747295 0.785781 0.746684
O O4 0.800555 0.016564 0.652097
O O5 0.799440 0.015150 0.903761
O O6 0.250000 0.750000 0.500000
O O7 0.158753 0.701680 0.465215
O O8 0.076282 0.332426 0.583657
O O9 0.071053 0.615840 0.404505
O O10 0.000000 0.500000 0.500000
O O11 0.393790 0.417870 0.204474
O O12 0.401320 0.568015 0.448183
#
# Coordination Sequence:
#
# PCOD9286888 Si02
#       6
#     4   8   8   8   8   8
#     4  12  22  46  68 104 142 190 230 300 370 434
#     4  10  21  44  73 104 140 192 245 304 369 439
#     4  10  23  47  69 104 141 190 242 299 367 433
#     4  12  24  44  70  99 139 182 235 284 364 437
#     4  12  25  45  69 102 144 181 233 300 354 439
#     4  12  26  46  70 106 141 188 240 298 364 431
#
# _framework density 22.366484
#
# number of rings (size 3 to 8) (size 9 to 14) (size 15 to 20)
#    0.000    0.727    3.636    4.364    0.000    0.000 
#   26.182    0.000    0.000    0.000    0.000    0.000 
#    0.000    0.000    0.000    0.000    0.000    0.000 
#
# Total GULP energy -122538.446076 kJ/mol
# GULP energy per Si atom -5569.929367 kJ/mol
# Density = 2.231558 g / cm^3
# Si number density = 22.366484 Si / 1000 Ang^3
#
#
#
# Elastic Constant Matrix: (Units=GPa)
#
#
# Indices 1 2 3 4 5 6 
#
# 1 218.1584 27.3967 -48.8289 0.0000 -94.2608 0.0000
# 2 27.3967 54.5508 11.8594 0.0000 -8.2859 0.0000
# 3 -48.8289 11.8594 243.8780 0.0000 65.0584 0.0000
# 4 0.0000 0.0000 0.0000 33.0851 0.0000 -0.1036
# 5 -94.2608 -8.2859 65.0584 0.0000 142.1440 0.0000
# 6 0.0000 0.0000 0.0000 -0.1036 0.0000 13.4713
#
#
#
# Elastic Compliance Matrix: (Units=1/GPa)
#
#
# Indices 1 2 3 4 5 6 
#
# 1 0.006845 -0.002887 0.000393 0.000000 0.004191 0.000000
# 2 -0.002887 0.020112 -0.001547 0.000000 -0.000034 0.000000
# 3 0.000393 -0.001547 0.004794 0.000000 -0.002024 0.000000
# 4 0.000000 0.000000 0.000000 0.030226 0.000000 0.000232
# 5 0.004191 -0.000034 -0.002024 0.000000 0.010739 0.000000
# 6 0.000000 0.000000 0.000000 0.000232 0.000000 0.074234
#
#
# Mechanical properties :
#
#
# Convention : Reuss Voigt Hill
#
# Bulk Modulus (GPa) = 42.24696 55.27129 48.75912
# Shear Modulus (GPa) = 30.68960 72.81742 51.75351
#
# Velocity S-wave (km/s) = 3.70824 5.71202 4.81551
# Velocity P-wave (km/s) = 6.10444 8.26246 7.26404
#
# Compressibility (1/GPa) = 0.02367034
#
# Stress axis : x y z
#
# Youngs Moduli (GPa) = 146.08828 49.72043 208.58479
#
# Poissons Ratio (x) = 0.14352 -0.08194
# Poissons Ratio (y) = 0.42170 0.32268
# Poissons Ratio (z) = -0.05739 0.07692
#
# Static dielectric constant tensor:
#      x y z
#    x 1.720210 0.000000 0.101100 
#    y 0.000000 1.895780 0.000000 
#    z 0.101100 0.000000 1.841850 
# 
# From -- ./inp_files/125068.got.cif
#   From: 2010.05.17/outbox.cif.g08.bks.cpg/sg15_63_cif.got.tgz:125068.got - 2010.06.03 18:47:42.
