data_PCOD9286702
_publ_section_title
;
Structure prediction by ZEFSAII (Michael W. Deem and Ramdas Pophale) SiO2 
 PCOD9286702
Probable space group: C 2/C
;
_chemical_formula_sum "Si O2"
_cell_formula_units_Z 48
_cell_length_a 12.338238
_cell_length_b 20.819028
_cell_length_c 12.610718
_cell_angle_alpha 90.000000
_cell_angle_beta 135.255507
_cell_angle_gamma 90.000000
_cell_volume 2280.305512
_symmetry_space_group_name_H-M "C 2/C"
_symmetry_group_IT_number 15
_symmetry_cell_setting 'monoclinic'
loop_
_space_group_symop_operation_xyz
x,y,z
-x,y,1/2-z
-x,-y,-z
x,-y,1/2+z
1/2+x,1/2+y,z
1/2-x,1/2+y,1/2-z
1/2-x,1/2-y,-z
1/2+x,1/2-y,1/2+z
loop_
_atom_site_type_symbol
_atom_site_label
_atom_site_fract_x
_atom_site_fract_y
_atom_site_fract_z
Si Si1 0.025999 0.257673 0.552459
Si Si2 0.291544 0.082636 0.025716
Si Si3 0.302751 0.707263 0.637471
Si Si4 0.135540 0.809706 0.931496
Si Si5 0.139084 0.392768 0.687022
Si Si6 0.684420 0.554922 0.387403
O O1 0.058751 0.230093 0.692557
O O2 0.065665 0.201839 0.498692
O O3 0.130391 0.322005 0.628795
O O4 0.855821 0.282480 0.405998
O O5 0.287987 0.106590 0.145047
O O6 0.463006 0.088270 0.093930
O O7 0.189772 0.133277 0.890130
O O8 0.242646 0.009313 0.983331
O O9 0.250000 0.750000 0.500000
O O10 0.212865 0.879118 0.971476
O O11 0.000000 0.805480 0.750000
O O12 0.250000 0.750000 0.000000
O O13 0.230503 0.436521 0.667096
O O14 0.500000 0.550101 0.250000
#
# Coordination Sequence:
#
# PCOD9286702 Si02
#       6
#     8   8   8   8   8   8
#     4  11  22  39  66  96 130 174 218 280 332 392
#     4  10  23  42  65  94 132 181 223 271 332 409
#     4  11  22  38  65  96 128 170 224 274 331 391
#     4  11  23  42  64  95 131 172 217 271 334 393
#     4  10  21  44  66  90 135 174 224 280 327 393
#     4  11  25  41  64  97 136 176 217 279 340 396
#
# _framework density 21.049810999999998
#
# number of rings (size 3 to 8) (size 9 to 14) (size 15 to 20)
#    0.000    1.333    3.333    2.000    2.333    3.333 
#    3.000    0.000    0.000    0.000    0.000    0.000 
#    0.000    0.000    0.000    0.000    0.000    0.000 
#
# Total GULP energy -133961.190136 kJ/mol
# GULP energy per Si atom -5581.716256 kJ/mol
# Density = 2.100190 g / cm^3
# Si number density = 21.049811 Si / 1000 Ang^3
#
#
#
# Elastic Constant Matrix: (Units=GPa)
#
#
# Indices 1 2 3 4 5 6 
#
# 1 75.3362 17.4338 26.2316 0.0000 -16.2703 0.0000
# 2 17.4338 145.5185 35.5049 0.0000 0.8025 0.0000
# 3 26.2316 35.5049 89.2308 0.0000 0.2990 0.0000
# 4 0.0000 0.0000 0.0000 31.2834 0.0000 2.0920
# 5 -16.2703 0.8025 0.2990 0.0000 32.7139 0.0000
# 6 0.0000 0.0000 0.0000 2.0920 0.0000 30.2298
#
#
#
# Elastic Compliance Matrix: (Units=1/GPa)
#
#
# Indices 1 2 3 4 5 6 
#
# 1 0.016939 -0.000946 -0.004632 0.000000 0.008490 0.000000
# 2 -0.000946 0.007665 -0.002769 0.000000 -0.000633 0.000000
# 3 -0.004632 -0.002769 0.013678 0.000000 -0.002361 0.000000
# 4 0.000000 0.000000 0.000000 0.032114 0.000000 -0.002222
# 5 0.008490 -0.000633 -0.002361 0.000000 0.034828 0.000000
# 6 0.000000 0.000000 0.000000 -0.002222 0.000000 0.033234
#
#
# Mechanical properties :
#
#
# Convention : Reuss Voigt Hill
#
# Bulk Modulus (GPa) = 46.32305 52.04735 49.18520
# Shear Modulus (GPa) = 30.79799 34.23978 32.51889
#
# Velocity S-wave (km/s) = 3.82920 4.03750 3.93473
# Velocity P-wave (km/s) = 6.45016 6.82017 6.63774
#
# Compressibility (1/GPa) = 0.02158752
#
# Stress axis : x y z
#
# Youngs Moduli (GPa) = 59.03493 130.47102 73.10820
#
# Poissons Ratio (x) = 0.12344 0.33861
# Poissons Ratio (y) = 0.05586 0.20247
# Poissons Ratio (z) = 0.27343 0.36133
#
# Static dielectric constant tensor:
#      x y z
#    x 1.929270 0.000000 0.006140 
#    y 0.000000 1.732660 0.000000 
#    z 0.006140 0.000000 1.743820 
# 
# From -- ./inp_files/89780.got.cif
#   From: 2010.05.17/outbox.cif.g08.bks.cpg/sg15_45_cif.got.tgz:89780.got - 2010.06.03 18:47:42.
