data_PCOD9287923
_publ_section_title
;
Structure prediction by ZEFSAII (Michael W. Deem and Ramdas Pophale) SiO2 
 PCOD9287923
Probable space group: C 2/C
;
_chemical_formula_sum "Si O2"
_cell_formula_units_Z 48
_cell_length_a 5.456913
_cell_length_b 20.273411
_cell_length_c 20.839526
_cell_angle_alpha 90.000000
_cell_angle_beta 78.262066
_cell_angle_gamma 90.000000
_cell_volume 2257.270304
_symmetry_space_group_name_H-M "C 2/C"
_symmetry_group_IT_number 15
_symmetry_cell_setting 'monoclinic'
loop_
_space_group_symop_operation_xyz
x,y,z
-x,y,1/2-z
-x,-y,-z
x,-y,1/2+z
1/2+x,1/2+y,z
1/2-x,1/2+y,1/2-z
1/2-x,1/2-y,-z
1/2+x,1/2-y,1/2+z
loop_
_atom_site_type_symbol
_atom_site_label
_atom_site_fract_x
_atom_site_fract_y
_atom_site_fract_z
Si Si1 0.204769 0.093793 0.139776
Si Si2 0.298301 0.685659 0.952802
Si Si3 0.500000 0.314567 0.750000
Si Si4 0.000000 0.596322 0.750000
Si Si5 0.241786 0.330584 0.996039
Si Si6 0.652585 0.028125 0.177997
Si Si7 0.223863 0.790393 0.190992
O O1 0.197267 0.139657 0.203372
O O2 0.226040 0.139762 0.076181
O O3 0.450212 0.047143 0.133820
O O4 0.930412 0.057910 0.154412
O O5 0.357906 0.707190 0.877683
O O6 0.250000 0.750000 0.000000
O O7 0.527534 0.647275 0.972139
O O8 0.032182 0.649353 0.965038
O O9 0.585956 0.267936 0.803502
O O10 0.831097 0.549387 0.804396
O O11 0.842251 0.642150 0.710934
O O12 0.250000 0.250000 0.000000
O O13 0.500000 0.050342 0.250000
O O14 0.000000 0.775020 0.250000
#
# Coordination Sequence:
#
# PCOD9287923 Si02
#       7
#     8   8   4   4   8   8   8
#     4  12  22  39  67  98 133 171 218 270 340 399
#     4  10  22  41  59  88 133 178 213 255 324 401
#     4  11  22  34  54 102 134 155 210 276 334 403
#     4   9  24  44  64  96 132 171 230 286 340 375
#     4  10  22  38  60  86 132 180 204 247 325 408
#     4  10  22  41  65  97 124 172 217 289 334 373
#     4  11  26  37  67  97 132 178 220 276 337 407
#
# _framework density 21.264620000000001
#
# number of rings (size 3 to 8) (size 9 to 14) (size 15 to 20)
#    0.500    1.000    1.667    3.000   14.000    0.000 
#    0.000    0.000    0.000    6.000    0.000    0.000 
#    0.000    0.000    0.000    0.000    0.000    0.000 
#
# Total GULP energy -133740.832563 kJ/mol
# GULP energy per Si atom -5572.534690 kJ/mol
# Density = 2.121622 g / cm^3
# Si number density = 21.264620 Si / 1000 Ang^3
#
#
#
# Elastic Constant Matrix: (Units=GPa)
#
#
# Indices 1 2 3 4 5 6 
#
# 1 132.1450 16.9391 11.1853 0.0000 8.6081 0.0000
# 2 16.9391 63.9094 -3.1412 0.0000 6.5261 0.0000
# 3 11.1853 -3.1412 93.3057 0.0000 19.3388 0.0000
# 4 0.0000 0.0000 0.0000 22.6268 0.0000 -75.4789
# 5 8.6081 6.5261 19.3388 0.0000 36.4996 0.0000
# 6 0.0000 0.0000 0.0000 -75.4789 0.0000 -340.3209
#
#
#
# Elastic Compliance Matrix: (Units=1/GPa)
#
#
# Indices 1 2 3 4 5 6 
#
# 1 0.007968 -0.002039 -0.000797 0.000000 -0.001092 0.000000
# 2 -0.002039 0.016595 0.001481 0.000000 -0.003271 0.000000
# 3 -0.000797 0.001481 0.012221 0.000000 -0.006552 0.000000
# 4 0.000000 0.000000 0.000000 0.025402 0.000000 -0.005634
# 5 -0.001092 -0.003271 -0.006552 0.000000 0.031711 0.000000
# 6 0.000000 0.000000 0.000000 -0.005634 0.000000 -0.001689
#
#
# Mechanical properties :
#
#
# Convention : Reuss Voigt Hill
#
# Bulk Modulus (GPa) = 29.35038 37.70294 33.52666
# Shear Modulus (GPa) = 47.04731 -38.61378 4.21677
#
# Velocity S-wave (km/s) = 4.70879 -4.26593 1.40972
# Velocity P-wave (km/s) = 6.58757 2.54859 4.29539
#
# Compressibility (1/GPa) = 0.03407110
#
# Stress axis : x y z
#
# Youngs Moduli (GPa) = 125.50985 60.26089 81.82731
#
# Poissons Ratio (x) = 0.12290 0.06526
# Poissons Ratio (y) = 0.25597 -0.12119
# Poissons Ratio (z) = 0.10009 -0.08925
#
# Static dielectric constant tensor:
#      x y z
#    x 1.865790 0.000000 0.029330 
#    y 0.000000 1.831900 0.000000 
#    z 0.029330 0.000000 1.723540 
# 
# From -- ./inp_files/227319.got.cif
#   From: 2010.05.17/outbox.cif.g08.bks.cpg/sg15_114_cif.got.tgz:227319.got - 2010.06.03 18:47:42.
