data_PCOD9287558
_publ_section_title
;
Structure prediction by ZEFSAII (Michael W. Deem and Ramdas Pophale) SiO2 
 PCOD9287558
Probable space group: C 2/C
;
_chemical_formula_sum "Si O2"
_cell_formula_units_Z 52
_cell_length_a 18.300958
_cell_length_b 18.034164
_cell_length_c 8.218433
_cell_angle_alpha 90.000000
_cell_angle_beta 71.055256
_cell_angle_gamma 90.000000
_cell_volume 2565.505284
_symmetry_space_group_name_H-M "C 2/C"
_symmetry_group_IT_number 15
_symmetry_cell_setting 'monoclinic'
loop_
_space_group_symop_operation_xyz
x,y,z
-x,y,1/2-z
-x,-y,-z
x,-y,1/2+z
1/2+x,1/2+y,z
1/2-x,1/2+y,1/2-z
1/2-x,1/2-y,-z
1/2+x,1/2-y,1/2+z
loop_
_atom_site_type_symbol
_atom_site_label
_atom_site_fract_x
_atom_site_fract_y
_atom_site_fract_z
Si Si1 0.000000 0.100367 0.750000
Si Si2 0.668185 0.538020 0.604929
Si Si3 0.156319 0.691522 0.207560
Si Si4 0.976022 0.237898 0.534211
Si Si5 0.375665 0.753416 0.284365
Si Si6 0.280618 0.394254 0.776314
Si Si7 0.261334 0.837067 0.186592
O O1 0.076570 0.050388 0.688515
O O2 0.009127 0.157453 0.895623
O O3 0.699014 0.455441 0.605855
O O4 0.690280 0.571488 0.415040
O O5 0.712446 0.588629 0.706324
O O6 0.067865 0.710409 0.304060
O O7 0.193277 0.632113 0.304923
O O8 0.201424 0.769515 0.202566
O O9 0.180775 0.666189 0.010049
O O10 0.915122 0.239879 0.428774
O O11 0.055674 0.263694 0.395806
O O12 0.329367 0.679474 0.272946
O O13 0.312868 0.818835 0.306853
#
# Coordination Sequence:
#
# PCOD9287558 Si02
#       7
#     4   8   8   8   8   8   8
#     4  12  22  36  56  84 114 168 188 226 300 350
#     4  11  23  37  57  81 123 161 194 234 288 356
#     4   9  18  35  59  79 108 148 201 242 285 338
#     4  11  21  35  59  85 113 150 193 250 290 337
#     4  10  22  37  56  86 119 142 201 249 290 343
#     4  10  23  38  53  84 117 157 195 236 281 351
#     4   9  18  37  57  81 110 153 197 244 284 348
#
# _framework density 20.268910999999999
#
# number of rings (size 3 to 8) (size 9 to 14) (size 15 to 20)
#    0.000    1.846    3.077    1.846    2.154    5.538 
#    0.000    0.000    0.000    0.923    0.000    2.154 
#    0.000    0.000    0.000    0.000    0.000    0.000 
#
# Total GULP energy -145185.937006 kJ/mol
# GULP energy per Si atom -5584.074500 kJ/mol
# Density = 2.022278 g / cm^3
# Si number density = 20.268911 Si / 1000 Ang^3
#
#
#
# Elastic Constant Matrix: (Units=GPa)
#
#
# Indices 1 2 3 4 5 6 
#
# 1 117.7940 41.9496 19.5524 0.0000 10.9287 0.0000
# 2 41.9496 52.6638 13.7254 0.0000 -14.3598 0.0000
# 3 19.5524 13.7254 46.8081 0.0000 11.1646 0.0000
# 4 0.0000 0.0000 0.0000 14.9363 0.0000 6.9669
# 5 10.9287 -14.3598 11.1646 0.0000 22.3438 0.0000
# 6 0.0000 0.0000 0.0000 6.9669 0.0000 31.2579
#
#
#
# Elastic Compliance Matrix: (Units=1/GPa)
#
#
# Indices 1 2 3 4 5 6 
#
# 1 0.018399 -0.023435 0.005592 0.000000 -0.026854 0.000000
# 2 -0.023435 0.060301 -0.022559 0.000000 0.061489 0.000000
# 3 0.005592 -0.022559 0.033779 0.000000 -0.034111 0.000000
# 4 0.000000 0.000000 0.000000 0.074719 0.000000 -0.016654
# 5 -0.026854 0.061489 -0.034111 0.000000 0.114452 0.000000
# 6 0.000000 0.000000 0.000000 -0.016654 0.000000 0.035704
#
#
# Mechanical properties :
#
#
# Convention : Reuss Voigt Hill
#
# Bulk Modulus (GPa) = 31.57133 40.85784 36.21458
# Shear Modulus (GPa) = 11.66271 23.17685 17.41978
#
# Velocity S-wave (km/s) = 2.40135 3.38519 2.93479
# Velocity P-wave (km/s) = 4.82687 5.95659 5.42124
#
# Compressibility (1/GPa) = 0.03167431
#
# Stress axis : x y z
#
# Youngs Moduli (GPa) = 54.35173 16.58337 29.60405
#
# Poissons Ratio (x) = 0.38864 -0.16554
# Poissons Ratio (y) = 1.27375 0.66783
# Poissons Ratio (z) = -0.30392 0.37410
#
# Static dielectric constant tensor:
#      x y z
#    x 1.728030 0.000000 0.043090 
#    y 0.000000 1.683090 0.000000 
#    z 0.043090 0.000000 1.812010 
# 
# From -- ./inp_files/48437.got.cif
#   From: 2010.05.17/outbox.cif.g08.bks.cpg/sg15_25_cif.got.tgz:48437.got - 2010.06.03 18:47:42.
