data_PCOD9287828
_publ_section_title
;
Structure prediction by ZEFSAII (Michael W. Deem and Ramdas Pophale) SiO2 
 PCOD9287828
Probable space group: C 2/C
;
_chemical_formula_sum "Si O2"
_cell_formula_units_Z 36
_cell_length_a 26.713773
_cell_length_b 5.059369
_cell_length_c 13.297844
_cell_angle_alpha 90.000000
_cell_angle_beta 121.938500
_cell_angle_gamma 90.000000
_cell_volume 1525.191045
_symmetry_space_group_name_H-M "C 2/C"
_symmetry_group_IT_number 15
_symmetry_cell_setting 'monoclinic'
loop_
_space_group_symop_operation_xyz
x,y,z
-x,y,1/2-z
-x,-y,-z
x,-y,1/2+z
1/2+x,1/2+y,z
1/2-x,1/2+y,1/2-z
1/2-x,1/2-y,-z
1/2+x,1/2-y,1/2+z
loop_
_atom_site_type_symbol
_atom_site_label
_atom_site_fract_x
_atom_site_fract_y
_atom_site_fract_z
Si Si1 0.466295 0.744290 0.507023
Si Si2 0.374622 0.832122 0.129123
Si Si3 0.000000 0.544585 0.250000
Si Si4 0.651516 0.669741 0.034041
Si Si5 0.236026 0.499448 0.913844
O O1 0.500000 0.500000 0.500000
O O2 0.477512 0.774742 0.636975
O O3 0.396516 0.678070 0.428463
O O4 0.500000 0.000000 0.500000
O O5 0.365971 0.540691 0.073431
O O6 0.443404 0.874969 0.223300
O O7 0.354246 0.036260 0.018771
O O8 0.332930 0.939212 0.175576
O O9 0.717979 0.563667 0.126874
O O10 0.250000 0.250000 0.000000
O O11 0.250000 0.750000 0.000000
#
# Coordination Sequence:
#
# PCOD9287828 Si02
#       5
#     8   8   4   8   8
#     4  11  23  37  56  82 111 148 188 231 286 341
#     4   9  17  29  51  78 104 141 180 223 279 331
#     4  10  22  38  58  82 116 146 186 238 284 344
#     4   9  17  31  50  75 106 140 181 227 273 330
#     4   8  14  26  46  73 101 133 179 222 267 330
#
# _framework density 23.6036
#
# number of rings (size 3 to 8) (size 9 to 14) (size 15 to 20)
#    0.000    2.667    0.000    2.667    0.000    8.000 
#    0.000    0.000    0.000    2.667    0.000    0.000 
#    0.000    0.000    0.000    0.000    0.000    0.000 
#
# Total GULP energy -100202.162776 kJ/mol
# GULP energy per Si atom -5566.786821 kJ/mol
# Density = 2.354988 g / cm^3
# Si number density = 23.603600 Si / 1000 Ang^3
#
#
#
# Elastic Constant Matrix: (Units=GPa)
#
#
# Indices 1 2 3 4 5 6 
#
# 1 245.6214 40.1763 12.6253 0.0000 39.0338 0.0000
# 2 40.1763 159.8521 3.5457 0.0000 -0.6475 0.0001
# 3 12.6253 3.5457 32.5346 0.0000 11.2122 0.0000
# 4 0.0000 0.0000 0.0000 13.2498 0.0000 2.1912
# 5 39.0338 -0.6475 11.2122 0.0000 28.8146 0.0000
# 6 0.0000 0.0001 0.0000 2.1912 0.0000 37.3094
#
#
#
# Elastic Compliance Matrix: (Units=1/GPa)
#
#
# Indices 1 2 3 4 5 6 
#
# 1 0.005502 -0.001430 0.000693 0.000000 -0.007755 0.000000
# 2 -0.001430 0.006648 -0.001026 0.000000 0.002485 0.000000
# 3 0.000693 -0.001026 0.035698 0.000000 -0.014853 0.000000
# 4 0.000000 0.000000 0.000000 0.076213 0.000000 -0.004476
# 5 -0.007755 0.002485 -0.014853 0.000000 0.051046 0.000000
# 6 0.000000 0.000000 0.000000 -0.004476 0.000000 0.027066
#
#
# Mechanical properties :
#
#
# Convention : Reuss Voigt Hill
#
# Bulk Modulus (GPa) = 22.56176 61.18921 41.87548
# Shear Modulus (GPa) = 22.67865 41.31880 31.99872
#
# Velocity S-wave (km/s) = 3.10306 4.18847 3.68594
# Velocity P-wave (km/s) = 4.73477 7.02645 5.99120
#
# Compressibility (1/GPa) = 0.04432277
#
# Stress axis : x y z
#
# Youngs Moduli (GPa) = 181.75381 150.42283 28.01281
#
# Poissons Ratio (x) = 0.21505 -0.01942
# Poissons Ratio (y) = 0.25984 0.02875
# Poissons Ratio (z) = -0.12602 0.15437
#
# Static dielectric constant tensor:
#      x y z
#    x 2.189040 0.000000 0.056610 
#    y 0.000000 1.609430 0.000000 
#    z 0.056610 0.000000 1.956770 
# 
# From -- ./inp_files/175116.got.cif
#   From: 2010.05.17/outbox.cif.g08.bks.cpg/sg15_88_cif.got.tgz:175116.got - 2010.06.03 18:47:42.
