data_PCOD9287486
_publ_section_title
;
Structure prediction by ZEFSAII (Michael W. Deem and Ramdas Pophale) SiO2 
 PCOD9287486
Probable space group: C 2/C
;
_chemical_formula_sum "Si O2"
_cell_formula_units_Z 52
_cell_length_a 19.455701
_cell_length_b 6.409511
_cell_length_c 21.778528
_cell_angle_alpha 90.000000
_cell_angle_beta 60.466470
_cell_angle_gamma 90.000000
_cell_volume 2362.942687
_symmetry_space_group_name_H-M "C 2/C"
_symmetry_group_IT_number 15
_symmetry_cell_setting 'monoclinic'
loop_
_space_group_symop_operation_xyz
x,y,z
-x,y,1/2-z
-x,-y,-z
x,-y,1/2+z
1/2+x,1/2+y,z
1/2-x,1/2+y,1/2-z
1/2-x,1/2-y,-z
1/2+x,1/2-y,1/2+z
loop_
_atom_site_type_symbol
_atom_site_label
_atom_site_fract_x
_atom_site_fract_y
_atom_site_fract_z
Si Si1 0.112578 0.459776 0.906060
Si Si2 0.518007 0.432119 0.637247
Si Si3 0.378973 0.040342 0.868663
Si Si4 0.839362 0.215878 0.201753
Si Si5 0.438038 0.212326 0.458741
Si Si6 0.263131 0.628609 0.645843
Si Si7 0.500000 0.226286 0.250000
O O1 0.160143 0.556384 0.828757
O O2 0.164211 0.269758 0.907815
O O3 0.027094 0.378654 0.923119
O O4 0.101140 0.642969 0.960626
O O5 0.577705 0.261361 0.638316
O O6 0.432284 0.336047 0.663837
O O7 0.554046 0.544714 0.561394
O O8 0.500732 0.621126 0.691751
O O9 0.288778 0.053066 0.888271
O O10 0.392871 0.905210 0.923686
O O11 0.425250 0.923368 0.792864
O O12 0.797967 0.235195 0.285732
O O13 0.796813 0.051219 0.175640
#
# Coordination Sequence:
#
# PCOD9287486 Si02
#       7
#     8   8   8   8   8   8   4
#     4  11  24  45  66  97 133 173 222 270 320 394
#     4  11  22  41  67  97 126 175 223 261 324 394
#     4  11  24  41  65  97 134 169 218 275 328 380
#     4  12  24  40  67  97 132 171 216 269 332 389
#     4  10  24  44  69  94 130 177 226 265 317 395
#     4  12  26  40  65  99 134 168 212 278 333 384
#     4  10  22  36  64  94 130 168 216 272 320 388
#
# _framework density 22.006457000000001
#
# number of rings (size 3 to 8) (size 9 to 14) (size 15 to 20)
#    0.000    0.923    4.615    2.308    4.308    4.923 
#    0.000    1.538    0.000    0.000    0.000    0.000 
#    0.000    0.000    0.000    0.000    0.000    0.000 
#
# Total GULP energy -145401.599926 kJ/mol
# GULP energy per Si atom -5592.369228 kJ/mol
# Density = 2.195637 g / cm^3
# Si number density = 22.006457 Si / 1000 Ang^3
#
#
#
# Elastic Constant Matrix: (Units=GPa)
#
#
# Indices 1 2 3 4 5 6 
#
# 1 107.7273 1.9526 -5.3770 0.0005 -5.4034 0.0022
# 2 1.9526 48.0102 -6.8682 0.0036 -3.3971 -0.0019
# 3 -5.3770 -6.8682 44.7396 0.0008 0.3691 -0.0040
# 4 0.0005 0.0036 0.0008 23.6109 0.0001 -0.1552
# 5 -5.4034 -3.3971 0.3691 0.0001 15.4918 0.0019
# 6 0.0022 -0.0019 -0.0040 -0.1552 0.0019 30.9303
#
#
#
# Elastic Compliance Matrix: (Units=1/GPa)
#
#
# Indices 1 2 3 4 5 6 
#
# 1 0.009503 0.000006 0.001116 0.000000 0.003289 -0.000001
# 2 0.000006 0.021628 0.003283 -0.000003 0.004667 0.000001
# 3 0.001116 0.003283 0.022985 -0.000001 0.000561 0.000003
# 4 0.000000 -0.000003 -0.000001 0.042355 -0.000001 0.000212
# 5 0.003289 0.004667 0.000561 -0.000001 0.066708 -0.000004
# 6 -0.000001 0.000001 0.000003 0.000212 -0.000004 0.032332
#
#
# Mechanical properties :
#
#
# Convention : Reuss Voigt Hill
#
# Bulk Modulus (GPa) = 15.89184 19.98797 17.93990
# Shear Modulus (GPa) = 24.07581 28.05791 26.06686
#
# Velocity S-wave (km/s) = 3.31121 3.57457 3.44540
# Velocity P-wave (km/s) = 4.67503 5.11265 4.89873
#
# Compressibility (1/GPa) = 0.06292538
#
# Stress axis : x y z
#
# Youngs Moduli (GPa) = 105.22685 46.23536 43.50667
#
# Poissons Ratio (x) = -0.00027 -0.04855
# Poissons Ratio (y) = -0.00062 -0.14281
# Poissons Ratio (z) = -0.11742 -0.15177
#
# Static dielectric constant tensor:
#      x y z
#    x 1.792840 -0.000010 0.006120 
#    y -0.000010 1.825710 0.000000 
#    z 0.006120 0.000000 1.825570 
# 
# From -- ./inp_files/297686.got.cif
#   From: 2010.05.17/outbox.cif.g08.bks.cpg/sg15_149_cif.got.tgz:297686.got - 2010.06.03 18:47:42.
