data_PCOD9287058
_publ_section_title
;
Structure prediction by ZEFSAII (Michael W. Deem and Ramdas Pophale) SiO2 
 PCOD9287058
Probable space group: C 2/C
;
_chemical_formula_sum "Si O2"
_cell_formula_units_Z 40
_cell_length_a 23.670500
_cell_length_b 6.841711
_cell_length_c 16.901442
_cell_angle_alpha 90.000000
_cell_angle_beta 134.826116
_cell_angle_gamma 90.000000
_cell_volume 1941.310236
_symmetry_space_group_name_H-M "C 2/C"
_symmetry_group_IT_number 15
_symmetry_cell_setting 'monoclinic'
loop_
_space_group_symop_operation_xyz
x,y,z
-x,y,1/2-z
-x,-y,-z
x,-y,1/2+z
1/2+x,1/2+y,z
1/2-x,1/2+y,1/2-z
1/2-x,1/2-y,-z
1/2+x,1/2-y,1/2+z
loop_
_atom_site_type_symbol
_atom_site_label
_atom_site_fract_x
_atom_site_fract_y
_atom_site_fract_z
Si Si1 0.444380 0.860694 0.771102
Si Si2 0.798447 0.942278 0.116388
Si Si3 0.656682 0.174252 0.746576
Si Si4 0.947061 0.842982 0.994730
Si Si5 0.704832 0.426422 0.565987
O O1 0.500000 0.875010 0.750000
O O2 0.376049 0.697876 0.690516
O O3 0.401112 0.062336 0.749514
O O4 0.496189 0.792131 0.896943
O O5 0.728336 0.801644 0.078766
O O6 0.814004 0.122668 0.188195
O O7 0.783277 0.007537 0.011151
O O8 0.607179 0.219817 0.619260
O O9 0.732885 0.032062 0.814443
O O10 0.884111 0.947933 0.990780
O O11 0.000000 0.000000 0.000000
#
# Coordination Sequence:
#
# PCOD9287058 Si02
#       5
#     8   8   8   8   8
#     4  11  23  44  67  95 133 173 215 274 326 388
#     4  10  21  46  67  92 130 171 227 266 321 394
#     4  11  25  41  67  99 129 171 222 265 331 395
#     4  12  25  43  66  98 137 170 211 278 336 390
#     4  10  24  42  68  93 130 177 216 274 323 390
#
# _framework density 20.604638999999999
#
# number of rings (size 3 to 8) (size 9 to 14) (size 15 to 20)
#    0.000    1.200    4.000    1.200    2.800    2.400 
#    3.600    0.000    0.000    0.000    0.000    0.000 
#    0.000    0.000    0.000    0.000    0.000    0.000 
#
# Total GULP energy -111852.494115 kJ/mol
# GULP energy per Si atom -5592.624706 kJ/mol
# Density = 2.055774 g / cm^3
# Si number density = 20.604639 Si / 1000 Ang^3
#
#
#
# Elastic Constant Matrix: (Units=GPa)
#
#
# Indices 1 2 3 4 5 6 
#
# 1 89.6569 20.1105 5.9050 0.0000 13.6875 0.0000
# 2 20.1105 47.7314 13.5414 0.0000 -6.3999 0.0001
# 3 5.9050 13.5414 112.3538 0.0000 -9.3143 0.0000
# 4 0.0000 0.0000 0.0000 41.1951 0.0000 1.5389
# 5 13.6875 -6.3999 -9.3143 0.0000 31.3399 0.0000
# 6 0.0000 0.0001 0.0000 1.5389 0.0000 9.3074
#
#
#
# Elastic Compliance Matrix: (Units=1/GPa)
#
#
# Indices 1 2 3 4 5 6 
#
# 1 0.013849 -0.006695 -0.000549 0.000000 -0.007579 0.000000
# 2 -0.006695 0.025366 -0.002085 0.000000 0.007484 0.000000
# 3 -0.000549 -0.002085 0.009397 0.000000 0.002607 0.000000
# 4 0.000000 0.000000 0.000000 0.024426 0.000000 -0.004039
# 5 -0.007579 0.007484 0.002607 0.000000 0.037521 0.000000
# 6 0.000000 0.000000 0.000000 -0.004039 0.000000 0.108109
#
#
# Mechanical properties :
#
#
# Convention : Reuss Voigt Hill
#
# Bulk Modulus (GPa) = 33.38541 36.53954 34.96248
# Shear Modulus (GPa) = 20.21753 30.38084 25.29919
#
# Velocity S-wave (km/s) = 3.13583 3.84404 3.50786
# Velocity P-wave (km/s) = 5.41750 6.12163 5.78030
#
# Compressibility (1/GPa) = 0.02995320
#
# Stress axis : x y z
#
# Youngs Moduli (GPa) = 72.20971 39.42223 106.42017
#
# Poissons Ratio (x) = 0.26394 0.05845
# Poissons Ratio (y) = 0.48345 0.22188
# Poissons Ratio (z) = 0.03966 0.08219
#
# Static dielectric constant tensor:
#      x y z
#    x 1.719550 0.000000 -0.009910 
#    y 0.000000 1.705540 0.000000 
#    z -0.009910 0.000000 1.745370 
# 
# From -- ./inp_files/256650.got.cif
#   From: 2010.05.17/outbox.cif.g08.bks.cpg/sg15_129_cif.got.tgz:256650.got - 2010.06.03 18:47:42.
