data_PCOD9287581
_publ_section_title
;
Structure prediction by ZEFSAII (Michael W. Deem and Ramdas Pophale) SiO2 
 PCOD9287581
Probable space group: C 2/C
;
_chemical_formula_sum "Si O2"
_cell_formula_units_Z 48
_cell_length_a 14.657224
_cell_length_b 30.229922
_cell_length_c 15.402408
_cell_angle_alpha 90.000000
_cell_angle_beta 160.870367
_cell_angle_gamma 90.000000
_cell_volume 2236.467194
_symmetry_space_group_name_H-M "C 2/C"
_symmetry_group_IT_number 15
_symmetry_cell_setting 'monoclinic'
loop_
_space_group_symop_operation_xyz
x,y,z
-x,y,1/2-z
-x,-y,-z
x,-y,1/2+z
1/2+x,1/2+y,z
1/2-x,1/2+y,1/2-z
1/2-x,1/2-y,-z
1/2+x,1/2-y,1/2+z
loop_
_atom_site_type_symbol
_atom_site_label
_atom_site_fract_x
_atom_site_fract_y
_atom_site_fract_z
Si Si1 0.763341 0.868581 0.812846
Si Si2 0.449947 0.223996 0.437541
Si Si3 0.333530 0.406729 0.187870
Si Si4 0.807831 0.901664 0.661424
Si Si5 0.820311 0.312459 0.007755
Si Si6 0.691604 0.501963 0.258312
O O1 0.637710 0.819643 0.693037
O O2 0.498001 0.897863 0.605590
O O3 0.871709 0.881937 0.814349
O O4 0.018922 0.877284 0.105895
O O5 0.772141 0.236290 0.735938
O O6 0.353926 0.215195 0.450444
O O7 0.500000 0.396346 0.250000
O O8 0.377810 0.458322 0.249630
O O9 0.586613 0.863513 0.432079
O O10 0.000000 0.901399 0.750000
O O11 0.796150 0.953422 0.674018
O O12 0.500000 0.312492 0.750000
O O13 0.000000 0.296326 0.250000
O O14 0.000000 0.500000 0.500000
O O15 0.500000 0.500000 0.000000
#
# Coordination Sequence:
#
# PCOD9287581 Si02
#       6
#     8   8   8   8   8   8
#     4  11  24  44  68  96 133 168 220 276 322 399
#     4  11  23  40  65  94 126 169 211 265 339 395
#     4  12  24  44  70  95 129 175 223 273 335 382
#     4  10  22  40  63  92 133 177 214 256 315 381
#     4  10  22  37  57  90 128 171 216 256 308 382
#     4  12  23  41  63  95 134 172 217 275 317 374
#
# _framework density 21.462422
#
# number of rings (size 3 to 8) (size 9 to 14) (size 15 to 20)
#    0.000    1.000    3.333    3.000    0.000   11.333 
#    0.000    3.333    0.000   10.000    0.000    0.000 
#    0.000    0.000    0.000    0.000    0.000    0.000 
#
# Total GULP energy -133842.754969 kJ/mol
# GULP energy per Si atom -5576.781457 kJ/mol
# Density = 2.141357 g / cm^3
# Si number density = 21.462422 Si / 1000 Ang^3
#
#
#
# Elastic Constant Matrix: (Units=GPa)
#
#
# Indices 1 2 3 4 5 6 
#
# 1 96.8021 0.1230 4.5944 0.0002 2.2554 -0.0109
# 2 0.1230 107.4370 -1.7848 -0.0025 -9.0315 -0.0050
# 3 4.5944 -1.7848 92.3373 0.0148 11.8420 0.0007
# 4 0.0002 -0.0025 0.0148 26.2500 0.0065 -6.1036
# 5 2.2554 -9.0315 11.8420 0.0065 19.7552 -0.0051
# 6 -0.0109 -0.0050 0.0007 -6.1036 -0.0051 -11.9867
#
#
#
# Elastic Compliance Matrix: (Units=1/GPa)
#
#
# Indices 1 2 3 4 5 6 
#
# 1 0.010372 -0.000102 -0.000390 -0.000002 -0.000997 -0.000008
# 2 -0.000102 0.009695 -0.000409 -0.000001 0.004689 -0.000005
# 3 -0.000390 -0.000409 0.011764 -0.000003 -0.007194 0.000006
# 4 -0.000002 -0.000001 -0.000003 0.034062 -0.000014 -0.017345
# 5 -0.000997 0.004689 -0.007194 -0.000014 0.057190 -0.000019
# 6 -0.000008 -0.000005 0.000006 -0.017345 -0.000019 -0.074594
#
#
# Mechanical properties :
#
#
# Convention : Reuss Voigt Hill
#
# Bulk Modulus (GPa) = 33.30112 33.60461 33.45287
# Shear Modulus (GPa) = 82.91634 26.37995 54.64815
#
# Velocity S-wave (km/s) = 6.22231 3.50969 5.05149
# Velocity P-wave (km/s) = 8.19589 5.66704 7.04584
#
# Compressibility (1/GPa) = 0.03002902
#
# Stress axis : x y z
#
# Youngs Moduli (GPa) = 96.41130 103.14287 85.00508
#
# Poissons Ratio (x) = 0.01054 0.03317
# Poissons Ratio (y) = 0.00985 0.03476
# Poissons Ratio (z) = 0.03762 0.04217
#
# Static dielectric constant tensor:
#      x y z
#    x 1.725210 0.000020 -0.005860 
#    y 0.000020 2.057570 0.000040 
#    z -0.005860 0.000040 1.728490 
# 
# From -- ./inp_files/157623.got.cif
#   From: 2010.05.17/outbox.cif.g08.bks.cpg/sg15_79_cif.got.tgz:157623.got - 2010.06.03 18:47:42.
