data_PCOD9287629
_publ_section_title
;
Structure prediction by ZEFSAII (Michael W. Deem and Ramdas Pophale) SiO2 
 PCOD9287629
Probable space group: C 2/C
;
_chemical_formula_sum "Si O2"
_cell_formula_units_Z 40
_cell_length_a 22.209168
_cell_length_b 15.737452
_cell_length_c 14.269622
_cell_angle_alpha 90.000000
_cell_angle_beta 159.126183
_cell_angle_gamma 90.000000
_cell_volume 1777.086090
_symmetry_space_group_name_H-M "C 2/C"
_symmetry_group_IT_number 15
_symmetry_cell_setting 'monoclinic'
loop_
_space_group_symop_operation_xyz
x,y,z
-x,y,1/2-z
-x,-y,-z
x,-y,1/2+z
1/2+x,1/2+y,z
1/2-x,1/2+y,1/2-z
1/2-x,1/2-y,-z
1/2+x,1/2-y,1/2+z
loop_
_atom_site_type_symbol
_atom_site_label
_atom_site_fract_x
_atom_site_fract_y
_atom_site_fract_z
Si Si1 0.479532 0.499049 0.831567
Si Si2 0.342858 0.617638 0.778141
Si Si3 0.581811 0.205068 0.289124
Si Si4 0.915261 0.265454 0.359412
Si Si5 0.834102 0.622122 0.565467
O O1 0.500000 0.505480 0.750000
O O2 0.460452 0.585296 0.862740
O O3 0.311236 0.445995 0.618715
O O4 0.634354 0.448137 0.104421
O O5 0.161972 0.629341 0.468085
O O6 0.423135 0.706028 0.928845
O O7 0.500000 0.263215 0.250000
O O8 0.750000 0.250000 0.500000
O O9 0.457681 0.194213 0.021834
O O10 0.890664 0.336124 0.245569
O O11 0.757839 0.199880 0.124435
O O12 0.000000 0.592632 0.750000
#
# Coordination Sequence:
#
# PCOD9287629 Si02
#       5
#     8   8   8   8   8
#     4  10  22  42  66  87 124 174 214 253 323 388
#     4   9  21  41  59  90 125 166 209 262 312 385
#     4  10  22  37  60  91 125 158 204 263 318 374
#     4   9  21  38  61  93 125 164 207 261 321 372
#     4  10  22  38  66  95 126 163 215 264 314 381
#
# _framework density 22.508758
#
# number of rings (size 3 to 8) (size 9 to 14) (size 15 to 20)
#    0.000    2.400    0.000    0.000    8.400    9.600 
#    7.200    1.000    0.000    0.000    0.000    0.000 
#    0.000    0.000    0.000    0.000    0.000    0.000 
#
# Total GULP energy -111523.339650 kJ/mol
# GULP energy per Si atom -5576.166983 kJ/mol
# Density = 2.245753 g / cm^3
# Si number density = 22.508758 Si / 1000 Ang^3
#
#
#
# Elastic Constant Matrix: (Units=GPa)
#
#
# Indices 1 2 3 4 5 6 
#
# 1 133.5050 11.8528 59.1430 0.0000 -21.5916 0.0000
# 2 11.8528 38.6447 19.6590 0.0000 -8.4026 0.0000
# 3 59.1430 19.6590 138.1873 0.0000 -28.3033 0.0000
# 4 0.0000 0.0000 0.0000 21.6876 0.0000 -9.7028
# 5 -21.5916 -8.4026 -28.3033 0.0000 58.2119 0.0000
# 6 0.0000 0.0000 0.0000 -9.7028 0.0000 18.0049
#
#
#
# Elastic Compliance Matrix: (Units=1/GPa)
#
#
# Indices 1 2 3 4 5 6 
#
# 1 0.009409 -0.000702 -0.003591 0.000000 0.001643 0.000000
# 2 -0.000702 0.028235 -0.003260 0.000000 0.002230 0.000000
# 3 -0.003591 -0.003260 0.009849 0.000000 0.002986 0.000000
# 4 0.000000 0.000000 0.000000 0.060758 0.000000 0.032743
# 5 0.001643 0.002230 0.002986 0.000000 0.019562 0.000000
# 6 0.000000 0.000000 0.000000 0.032743 0.000000 0.073185
#
#
# Mechanical properties :
#
#
# Convention : Reuss Voigt Hill
#
# Bulk Modulus (GPa) = 30.87525 54.62743 42.75134
# Shear Modulus (GPa) = 22.03625 34.22635 28.13130
#
# Velocity S-wave (km/s) = 3.13230 3.90369 3.53908
# Velocity P-wave (km/s) = 5.17963 6.68135 5.97784
#
# Compressibility (1/GPa) = 0.03238840
#
# Stress axis : x y z
#
# Youngs Moduli (GPa) = 106.28088 35.41677 101.53665
#
# Poissons Ratio (x) = 0.02487 0.36458
# Poissons Ratio (y) = 0.07462 0.33096
# Poissons Ratio (z) = 0.38162 0.11544
#
# Static dielectric constant tensor:
#      x y z
#    x 1.902230 0.000000 0.045650 
#    y 0.000000 1.895170 0.000000 
#    z 0.045650 0.000000 1.875870 
# 
# From -- ./inp_files/29221.got.cif
#   From: 2010.05.17/outbox.cif.g08.bks.cpg/sg15_15_cif.got.tgz:29221.got - 2010.06.03 18:47:42.
