data_PCOD9287751
_publ_section_title
;
Structure prediction by ZEFSAII (Michael W. Deem and Ramdas Pophale) SiO2 
 PCOD9287751
Probable space group: C 2/C
;
_chemical_formula_sum "Si O2"
_cell_formula_units_Z 48
_cell_length_a 12.946582
_cell_length_b 8.957856
_cell_length_c 26.306905
_cell_angle_alpha 90.000000
_cell_angle_beta 135.072766
_cell_angle_gamma 90.000000
_cell_volume 2154.575435
_symmetry_space_group_name_H-M "C 2/C"
_symmetry_group_IT_number 15
_symmetry_cell_setting 'monoclinic'
loop_
_space_group_symop_operation_xyz
x,y,z
-x,y,1/2-z
-x,-y,-z
x,-y,1/2+z
1/2+x,1/2+y,z
1/2-x,1/2+y,1/2-z
1/2-x,1/2-y,-z
1/2+x,1/2-y,1/2+z
loop_
_atom_site_type_symbol
_atom_site_label
_atom_site_fract_x
_atom_site_fract_y
_atom_site_fract_z
Si Si1 0.148812 0.282075 0.417142
Si Si2 0.865347 0.957986 0.417229
Si Si3 0.874808 0.974325 0.663247
Si Si4 0.650281 0.914128 0.199310
Si Si5 0.302076 0.219090 0.325599
Si Si6 0.834508 0.728420 0.185049
O O1 0.250000 0.250000 0.500000
O O2 0.242950 0.374573 0.408880
O O3 0.092831 0.125650 0.374039
O O4 0.004240 0.375060 0.378965
O O5 0.908456 0.842881 0.386884
O O6 0.784765 0.103156 0.366725
O O7 0.000000 0.000000 0.500000
O O8 0.739083 0.890436 0.642373
O O9 0.000000 0.962962 0.750000
O O10 0.846108 0.148101 0.643902
O O11 0.670735 0.825570 0.259411
O O12 0.778706 0.837467 0.210938
O O13 0.663005 0.092933 0.204429
O O14 0.000000 0.670723 0.250000
#
# Coordination Sequence:
#
# PCOD9287751 Si02
#       6
#     8   8   8   8   8   8
#     4  11  24  40  67  95 131 176 214 269 332 393
#     4  11  25  44  61  91 139 177 218 271 335 393
#     4   9  18  40  63  93 127 166 210 264 328 386
#     4  11  22  40  66 101 127 164 231 272 323 401
#     4  10  22  37  67  92 128 171 216 270 327 385
#     4  10  23  40  66  95 127 169 215 277 331 389
#
# _framework density 22.278171
#
# number of rings (size 3 to 8) (size 9 to 14) (size 15 to 20)
#    0.000    1.667    1.667    2.000    4.667    1.333 
#    0.000    6.667    0.000    0.000    0.000    0.000 
#    0.000    0.000    0.000    0.000    0.000    0.000 
#
# Total GULP energy -133869.792575 kJ/mol
# GULP energy per Si atom -5577.908024 kJ/mol
# Density = 2.222746 g / cm^3
# Si number density = 22.278171 Si / 1000 Ang^3
#
#
#
# Elastic Constant Matrix: (Units=GPa)
#
#
# Indices 1 2 3 4 5 6 
#
# 1 49.5005 15.5394 3.3932 0.0000 11.2907 0.0000
# 2 15.5394 185.7268 65.9981 0.0000 0.1230 0.0000
# 3 3.3932 65.9981 116.0865 0.0000 11.4435 0.0000
# 4 0.0000 0.0000 0.0000 35.6064 0.0000 -0.7097
# 5 11.2907 0.1230 11.4435 0.0000 27.7677 0.0000
# 6 0.0000 0.0000 0.0000 -0.7097 0.0000 22.9148
#
#
#
# Elastic Compliance Matrix: (Units=1/GPa)
#
#
# Indices 1 2 3 4 5 6 
#
# 1 0.023203 -0.002568 0.001783 0.000000 -0.010158 0.000000
# 2 -0.002568 0.007102 -0.004234 0.000000 0.002758 0.000000
# 3 0.001783 -0.004234 0.011507 0.000000 -0.005448 0.000000
# 4 0.000000 0.000000 0.000000 0.028102 0.000000 0.000870
# 5 -0.010158 0.002758 -0.005448 0.000000 0.042377 0.000000
# 6 0.000000 0.000000 0.000000 0.000870 0.000000 0.043667
#
#
# Mechanical properties :
#
#
# Convention : Reuss Voigt Hill
#
# Bulk Modulus (GPa) = 31.47373 57.90835 44.69104
# Shear Modulus (GPa) = 28.31464 35.01666 31.66565
#
# Velocity S-wave (km/s) = 3.56892 3.96888 3.77420
# Velocity P-wave (km/s) = 5.58043 6.85948 6.25275
#
# Compressibility (1/GPa) = 0.03177253
#
# Stress axis : x y z
#
# Youngs Moduli (GPa) = 43.09818 140.80463 86.90628
#
# Poissons Ratio (x) = 0.36163 -0.15498
# Poissons Ratio (y) = 0.11069 0.36800
# Poissons Ratio (z) = -0.07686 0.59624
#
# Static dielectric constant tensor:
#      x y z
#    x 2.025980 0.000000 -0.104530 
#    y 0.000000 1.871950 0.000000 
#    z -0.104530 0.000000 1.797720 
# 
# From -- ./inp_files/295442.got.cif
#   From: 2010.05.17/outbox.cif.g08.bks.cpg/sg15_148_cif.got.tgz:295442.got - 2010.06.03 18:47:42.
