data_PCOD9287482
_publ_section_title
;
Structure prediction by ZEFSAII (Michael W. Deem and Ramdas Pophale) SiO2 
 PCOD9287482
Probable space group: C 2/C
;
_chemical_formula_sum "Si O2"
_cell_formula_units_Z 60
_cell_length_a 14.144624
_cell_length_b 22.942958
_cell_length_c 17.193776
_cell_angle_alpha 90.000000
_cell_angle_beta 146.996851
_cell_angle_gamma 90.000000
_cell_volume 3039.188234
_symmetry_space_group_name_H-M "C 2/C"
_symmetry_group_IT_number 15
_symmetry_cell_setting 'monoclinic'
loop_
_space_group_symop_operation_xyz
x,y,z
-x,y,1/2-z
-x,-y,-z
x,-y,1/2+z
1/2+x,1/2+y,z
1/2-x,1/2+y,1/2-z
1/2-x,1/2-y,-z
1/2+x,1/2-y,1/2+z
loop_
_atom_site_type_symbol
_atom_site_label
_atom_site_fract_x
_atom_site_fract_y
_atom_site_fract_z
Si Si1 0.750485 0.725679 0.761124
Si Si2 0.003302 0.617008 0.940628
Si Si3 0.751456 0.533110 0.683388
Si Si4 0.614046 0.753384 0.975278
Si Si5 0.544735 0.119413 0.150274
Si Si6 0.643872 0.326841 0.788681
Si Si7 0.086117 0.915514 0.615377
Si Si8 0.500000 0.966264 0.750000
O O1 0.872353 0.670179 0.833703
O O2 0.547850 0.709863 0.628143
O O3 0.786265 0.774453 0.719055
O O4 0.798877 0.746971 0.880738
O O5 0.916315 0.563195 0.837169
O O6 0.017661 0.601406 0.042017
O O7 0.194028 0.642910 0.055341
O O8 0.663440 0.481612 0.674017
O O9 0.596035 0.576744 0.553667
O O10 0.835820 0.503782 0.664959
O O11 0.523142 0.815485 0.895827
O O12 0.750000 0.750000 0.000000
O O13 0.749447 0.116062 0.311857
O O14 0.452806 0.075979 0.145822
O O15 0.500000 0.305840 0.750000
O O16 0.565817 0.377569 0.679309
#
# Coordination Sequence:
#
# PCOD9287482 Si02
#       8
#     8   8   8   8   8   8   8   4
#     4  11  22  44  61  95 128 167 211 263 318 379
#     4  10  23  42  63  89 128 169 210 258 322 374
#     4  10  22  39  62  95 119 166 209 266 318 375
#     4  11  23  37  67  94 124 165 213 255 322 387
#     4   9  20  41  61  89 123 169 198 260 325 376
#     4  11  24  42  65  92 126 174 214 260 323 381
#     4   9  20  41  63  84 123 164 212 257 321 371
#     4  10  22  36  64  92 124 152 216 260 318 380
#
# _framework density 19.742114000000001
#
# number of rings (size 3 to 8) (size 9 to 14) (size 15 to 20)
#    0.000    1.867    4.000    0.400    5.600    5.333 
#    3.600    0.000    0.000    0.000    0.000    0.000 
#    0.000    0.000    0.000    0.000    0.000    0.000 
#
# Total GULP energy -167157.565490 kJ/mol
# GULP energy per Si atom -5571.918850 kJ/mol
# Density = 1.969718 g / cm^3
# Si number density = 19.742114 Si / 1000 Ang^3
#
#
#
# Elastic Constant Matrix: (Units=GPa)
#
#
# Indices 1 2 3 4 5 6 
#
# 1 108.8109 34.3369 27.9958 -0.0001 25.1057 -0.0001
# 2 34.3369 46.3143 21.6036 0.0001 -8.2822 0.0001
# 3 27.9958 21.6036 70.6668 0.0003 11.6241 0.0001
# 4 -0.0001 0.0001 0.0003 29.8889 0.0002 -3.5186
# 5 25.1057 -8.2822 11.6241 0.0002 2.0072 0.0001
# 6 -0.0001 0.0001 0.0001 -3.5186 0.0001 27.5009
#
#
#
# Elastic Compliance Matrix: (Units=1/GPa)
#
#
# Indices 1 2 3 4 5 6 
#
# 1 0.003201 0.005756 -0.007351 0.000000 0.026283 0.000000
# 2 0.005756 0.009651 0.001278 0.000000 -0.039572 0.000000
# 3 -0.007351 0.001278 0.014352 0.000000 0.014108 0.000000
# 4 0.000000 0.000000 0.000000 0.033969 0.000001 0.004346
# 5 0.026283 -0.039572 0.014108 0.000001 -0.075522 0.000000
# 6 0.000000 0.000000 0.000000 0.004346 0.000000 0.036919
#
#
# Mechanical properties :
#
#
# Convention : Reuss Voigt Hill
#
# Bulk Modulus (GPa) = 37.63565 43.74051 40.68808
# Shear Modulus (GPa) = 155.95677 21.33643 88.64660
#
# Velocity S-wave (km/s) = 8.89767 3.29105 6.70819
# Velocity P-wave (km/s) = 11.16526 6.05355 8.98077
#
# Compressibility (1/GPa) = 0.02657055
#
# Stress axis : x y z
#
# Youngs Moduli (GPa) = 312.39075 103.61089 69.67831
#
# Poissons Ratio (x) = -0.59636 0.51221
# Poissons Ratio (y) = -1.79804 -0.08908
# Poissons Ratio (z) = 2.29641 -0.13246
#
# Static dielectric constant tensor:
#      x y z
#    x 1.744550 0.000000 -0.066000 
#    y 0.000000 1.744260 0.000000 
#    z -0.066000 0.000000 1.941560 
# 
# From -- ./inp_files/207259.got.cif
#   From: 2010.05.17/outbox.cif.g08.bks.cpg/sg15_104_cif.got.tgz:207259.got - 2010.06.03 18:47:42.
