data_PCOD9287496
_publ_section_title
;
Structure prediction by ZEFSAII (Michael W. Deem and Ramdas Pophale) SiO2 
 PCOD9287496
Probable space group: C 2/C
;
_chemical_formula_sum "Si O2"
_cell_formula_units_Z 48
_cell_length_a 17.643786
_cell_length_b 13.322717
_cell_length_c 10.331921
_cell_angle_alpha 90.000000
_cell_angle_beta 74.108394
_cell_angle_gamma 90.000000
_cell_volume 2335.834405
_symmetry_space_group_name_H-M "C 2/C"
_symmetry_group_IT_number 15
_symmetry_cell_setting 'monoclinic'
loop_
_space_group_symop_operation_xyz
x,y,z
-x,y,1/2-z
-x,-y,-z
x,-y,1/2+z
1/2+x,1/2+y,z
1/2-x,1/2+y,1/2-z
1/2-x,1/2-y,-z
1/2+x,1/2-y,1/2+z
loop_
_atom_site_type_symbol
_atom_site_label
_atom_site_fract_x
_atom_site_fract_y
_atom_site_fract_z
Si Si1 0.094276 0.299013 0.723962
Si Si2 0.423470 0.928045 0.537609
Si Si3 0.344292 0.415981 0.286320
Si Si4 0.415994 0.445959 0.536065
Si Si5 0.835771 0.385990 0.063207
Si Si6 0.966977 0.265043 0.126833
O O1 0.110675 0.392372 0.809814
O O2 0.114382 0.189607 0.768565
O O3 0.142746 0.316877 0.569748
O O4 0.000000 0.303187 0.750000
O O5 0.458099 0.825458 0.464803
O O6 0.500000 0.000000 0.500000
O O7 0.359137 0.001228 0.507828
O O8 0.379550 0.448967 0.409288
O O9 0.361890 0.498550 0.168360
O O10 0.253007 0.389516 0.349172
O O11 0.500000 0.500000 0.500000
O O12 0.435710 0.331941 0.566821
O O13 0.894464 0.344678 0.148720
O O14 0.000000 0.233539 0.250000
#
# Coordination Sequence:
#
# PCOD9287496 Si02
#       6
#     8   8   8   8   8   8
#     4  12  21  43  70  96 132 183 233 276 346 421
#     4  10  22  36  65 100 129 174 223 278 339 411
#     4  12  27  43  73 101 143 183 232 298 351 411
#     4  12  25  47  69  99 133 188 241 280 342 420
#     4  11  26  41  67 104 137 178 227 293 356 413
#     4  11  23  40  67  99 137 175 227 287 343 421
#
# _framework density 20.549401
#
# number of rings (size 3 to 8) (size 9 to 14) (size 15 to 20)
#    0.000    0.667    5.000    4.000    7.000    0.000 
#    0.000    0.000    0.000    6.000    0.000    0.000 
#    0.000    0.000    0.000    0.000    0.000    0.000 
#
# Total GULP energy -133897.118316 kJ/mol
# GULP energy per Si atom -5579.046596 kJ/mol
# Density = 2.050263 g / cm^3
# Si number density = 20.549401 Si / 1000 Ang^3
#
#
#
# Elastic Constant Matrix: (Units=GPa)
#
#
# Indices 1 2 3 4 5 6 
#
# 1 71.5832 9.2939 10.6450 0.0000 -9.8417 0.0000
# 2 9.2939 122.8866 31.2848 0.0000 -2.7247 0.0000
# 3 10.6450 31.2848 69.8172 0.0000 -1.1527 0.0000
# 4 0.0000 0.0000 0.0000 35.9978 0.0000 7.4602
# 5 -9.8417 -2.7247 -1.1527 0.0000 29.5835 0.0000
# 6 0.0000 0.0000 0.0000 7.4602 0.0000 14.3529
#
#
#
# Elastic Compliance Matrix: (Units=1/GPa)
#
#
# Indices 1 2 3 4 5 6 
#
# 1 0.015000 -0.000525 -0.001972 0.000000 0.004865 0.000000
# 2 -0.000525 0.009218 -0.004042 0.000000 0.000517 0.000000
# 3 -0.001972 -0.004042 0.016428 0.000000 -0.000388 0.000000
# 4 0.000000 0.000000 0.000000 0.031133 0.000000 -0.016182
# 5 0.004865 0.000517 -0.000388 0.000000 0.035454 0.000000
# 6 0.000000 0.000000 0.000000 -0.016182 0.000000 0.078083
#
#
# Mechanical properties :
#
#
# Convention : Reuss Voigt Hill
#
# Bulk Modulus (GPa) = 36.27153 40.74826 38.50989
# Shear Modulus (GPa) = 24.08685 30.19107 27.13896
#
# Velocity S-wave (km/s) = 3.42737 3.83717 3.63804
# Velocity P-wave (km/s) = 5.77510 6.28524 6.03556
#
# Compressibility (1/GPa) = 0.02756983
#
# Stress axis : x y z
#
# Youngs Moduli (GPa) = 66.66690 108.48667 60.86987
#
# Poissons Ratio (x) = 0.05692 0.12001
# Poissons Ratio (y) = 0.03498 0.24603
# Poissons Ratio (z) = 0.13144 0.43849
#
# Static dielectric constant tensor:
#      x y z
#    x 1.818640 0.000000 -0.081470 
#    y 0.000000 1.742480 0.000000 
#    z -0.081470 0.000000 1.924350 
# 
# From -- ./inp_files/104165.got.cif
#   From: 2010.05.17/outbox.cif.g08.bks.cpg/sg15_53_cif.got.tgz:104165.got - 2010.06.03 18:47:42.
