data_PCOD9287254
_publ_section_title
;
Structure prediction by ZEFSAII (Michael W. Deem and Ramdas Pophale) SiO2 
 PCOD9287254
Probable space group: C 2/C
;
_chemical_formula_sum "Si O2"
_cell_formula_units_Z 56
_cell_length_a 16.659333
_cell_length_b 29.316766
_cell_length_c 5.403926
_cell_angle_alpha 90.000000
_cell_angle_beta 100.966092
_cell_angle_gamma 90.000000
_cell_volume 2591.072231
_symmetry_space_group_name_H-M "C 2/C"
_symmetry_group_IT_number 15
_symmetry_cell_setting 'monoclinic'
loop_
_space_group_symop_operation_xyz
x,y,z
-x,y,1/2-z
-x,-y,-z
x,-y,1/2+z
1/2+x,1/2+y,z
1/2-x,1/2+y,1/2-z
1/2-x,1/2-y,-z
1/2+x,1/2-y,1/2+z
loop_
_atom_site_type_symbol
_atom_site_label
_atom_site_fract_x
_atom_site_fract_y
_atom_site_fract_z
Si Si1 0.803014 0.719063 0.345775
Si Si2 0.692625 0.623779 0.730642
Si Si3 0.578815 0.746322 0.953144
Si Si4 0.049365 0.435525 0.040148
Si Si5 0.269064 0.973703 0.391118
Si Si6 0.623362 0.838192 0.226033
Si Si7 0.353241 0.336957 0.805371
O O1 0.750000 0.750000 0.500000
O O2 0.841966 0.754060 0.177779
O O3 0.873527 0.687578 0.507743
O O4 0.738676 0.682171 0.218595
O O5 0.720647 0.572094 0.793323
O O6 0.780299 0.650826 0.764147
O O7 0.647601 0.633872 0.444496
O O8 0.635694 0.637761 0.928027
O O9 0.500000 0.736178 0.750000
O O10 0.583348 0.798200 0.043461
O O11 0.591492 0.708397 0.169855
O O12 0.134064 0.462367 0.056857
O O13 0.076603 0.384738 0.145375
O O14 0.000000 0.454582 0.250000
O O15 0.000000 0.433851 0.750000
O O16 0.251146 0.990992 0.658008
#
# Coordination Sequence:
#
# PCOD9287254 Si02
#       7
#     8   8   8   8   8   8   8
#     4  11  21  38  57  78 112 164 222 264 300 354
#     4  10  22  39  63  83 113 155 200 248 304 371
#     4  12  24  35  55  87 124 163 213 266 296 339
#     4  11  25  39  55  81 121 168 204 245 310 372
#     4  11  23  41  65  91 115 142 195 264 316 370
#     4  10  22  35  54  79 116 162 214 260 286 340
#     4  11  21  39  59  83 118 164 210 241 304 370
#
# _framework density 21.612673999999998
#
# number of rings (size 3 to 8) (size 9 to 14) (size 15 to 20)
#    0.000    1.143    2.857    4.286    4.000    4.000 
#    0.000    0.000    0.000    0.000    0.000    0.000 
#    0.000   11.429    0.000    0.000    0.000    0.000 
#
# Total GULP energy -156347.436800 kJ/mol
# GULP energy per Si atom -5583.837029 kJ/mol
# Density = 2.156348 g / cm^3
# Si number density = 21.612674 Si / 1000 Ang^3
#
#
#
# Elastic Constant Matrix: (Units=GPa)
#
#
# Indices 1 2 3 4 5 6 
#
# 1 13.7474 -2.5373 1.0780 0.0000 2.0467 0.0000
# 2 -2.5373 80.4224 25.9754 0.0000 11.9406 0.0000
# 3 1.0780 25.9754 122.5095 0.0000 7.6914 0.0000
# 4 0.0000 0.0000 0.0000 35.5867 0.0000 2.8227
# 5 2.0467 11.9406 7.6914 0.0000 27.1211 0.0000
# 6 0.0000 0.0000 0.0000 2.8227 0.0000 12.4852
#
#
#
# Elastic Compliance Matrix: (Units=1/GPa)
#
#
# Indices 1 2 3 4 5 6 
#
# 1 0.074544 0.003712 -0.001005 0.000000 -0.006975 0.000000
# 2 0.003712 0.014284 -0.002697 0.000000 -0.005804 0.000000
# 3 -0.001005 -0.002697 0.008821 0.000000 -0.001238 0.000000
# 4 0.000000 0.000000 0.000000 0.028614 0.000000 -0.006469
# 5 -0.006975 -0.005804 -0.001238 0.000000 0.040305 0.000000
# 6 0.000000 0.000000 0.000000 -0.006469 0.000000 0.081557
#
#
# Mechanical properties :
#
#
# Convention : Reuss Voigt Hill
#
# Bulk Modulus (GPa) = 10.23868 29.52349 19.88109
# Shear Modulus (GPa) = 17.81513 27.84949 22.83231
#
# Velocity S-wave (km/s) = 2.87416 3.59356 3.25381
# Velocity P-wave (km/s) = 3.97014 5.55951 4.83064
#
# Compressibility (1/GPa) = 0.09766882
#
# Stress axis : x y z
#
# Youngs Moduli (GPa) = 13.41499 70.00696 113.36523
#
# Poissons Ratio (x) = -0.25987 0.11394
# Poissons Ratio (y) = -0.04980 0.30574
# Poissons Ratio (z) = 0.01348 0.18880
#
# Static dielectric constant tensor:
#      x y z
#    x 1.816790 0.000000 -0.078220 
#    y 0.000000 1.801700 0.000000 
#    z -0.078220 0.000000 1.946380 
# 
# From -- ./inp_files/11581.got.cif
#   From: 2010.05.17/outbox.cif.g08.bks.cpg/sg15_6_cif.got.tgz:11581.got - 2010.06.03 18:47:42.
