data_PCOD9287355
_publ_section_title
;
Structure prediction by ZEFSAII (Michael W. Deem and Ramdas Pophale) SiO2 
 PCOD9287355
Probable space group: C 2/C
;
_chemical_formula_sum "Si O2"
_cell_formula_units_Z 52
_cell_length_a 6.158422
_cell_length_b 32.201091
_cell_length_c 16.488485
_cell_angle_alpha 90.000000
_cell_angle_beta 50.650633
_cell_angle_gamma 90.000000
_cell_volume 2528.514990
_symmetry_space_group_name_H-M "C 2/C"
_symmetry_group_IT_number 15
_symmetry_cell_setting 'monoclinic'
loop_
_space_group_symop_operation_xyz
x,y,z
-x,y,1/2-z
-x,-y,-z
x,-y,1/2+z
1/2+x,1/2+y,z
1/2-x,1/2+y,1/2-z
1/2-x,1/2-y,-z
1/2+x,1/2-y,1/2+z
loop_
_atom_site_type_symbol
_atom_site_label
_atom_site_fract_x
_atom_site_fract_y
_atom_site_fract_z
Si Si1 0.191166 0.797385 0.861619
Si Si2 0.621913 0.564639 0.975265
Si Si3 0.183384 0.139224 0.502280
Si Si4 0.428287 0.284709 0.359333
Si Si5 0.000000 0.761496 0.750000
Si Si6 0.441368 0.010635 0.419561
Si Si7 0.236396 0.088127 0.135986
O O1 0.500000 0.802467 0.750000
O O2 0.131990 0.836199 0.930870
O O3 0.213685 0.754306 0.907054
O O4 0.997938 0.789404 0.830679
O O5 0.561605 0.604854 0.935152
O O6 0.343906 0.536623 0.027566
O O7 0.645331 0.578507 0.064589
O O8 0.884016 0.534359 0.893788
O O9 0.176355 0.175137 0.570166
O O10 0.483107 0.116093 0.431651
O O11 0.500000 0.295789 0.250000
O O12 0.723462 0.266654 0.320828
O O13 0.679803 0.043839 0.341676
O O14 0.500000 0.000000 0.500000
O O15 0.000000 0.107159 0.250000
#
# Coordination Sequence:
#
# PCOD9287355 Si02
#       7
#     8   8   8   8   4   8   8
#     4   9  20  35  55  82 122 154 195 246 294 365
#     4   9  19  33  58  83 111 152 190 238 290 352
#     4  11  22  34  58  88 120 154 196 251 304 347
#     4   9  20  39  58  78 114 159 207 250 292 353
#     4   8  18  38  58  78 108 162 204 240 296 354
#     4   8  16  36  57  76 109 149 190 228 286 357
#     4  10  22  36  57  88 123 157 189 237 302 361
#
# _framework density 20.565429000000002
#
# number of rings (size 3 to 8) (size 9 to 14) (size 15 to 20)
#    0.000    3.077    0.000    0.462    2.154    7.385 
#    1.385    0.000    0.000   53.538    0.000    0.000 
#    0.000    0.000    0.000    0.000    0.000    0.000 
#
# Total GULP energy -144888.821725 kJ/mol
# GULP energy per Si atom -5572.646989 kJ/mol
# Density = 2.051862 g / cm^3
# Si number density = 20.565429 Si / 1000 Ang^3
#
#
#
# Elastic Constant Matrix: (Units=GPa)
#
#
# Indices 1 2 3 4 5 6 
#
# 1 115.7543 50.3560 23.1708 0.0000 9.7451 0.0000
# 2 50.3560 136.1859 29.6390 0.0000 5.1772 0.0000
# 3 23.1708 29.6390 30.2093 0.0000 -2.3621 0.0000
# 4 0.0000 0.0000 0.0000 9.5586 0.0000 2.4388
# 5 9.7451 5.1772 -2.3621 0.0000 12.9637 0.0000
# 6 0.0000 0.0000 0.0000 2.4388 0.0000 -21.9066
#
#
#
# Elastic Compliance Matrix: (Units=1/GPa)
#
#
# Indices 1 2 3 4 5 6 
#
# 1 0.012005 -0.002436 -0.007555 0.000000 -0.009428 0.000000
# 2 -0.002436 0.010231 -0.008466 0.000000 -0.003797 0.000000
# 3 -0.007555 -0.008466 0.048603 0.000000 0.017916 0.000000
# 4 0.000000 0.000000 0.000000 0.101728 0.000000 0.011325
# 5 -0.009428 -0.003797 0.017916 0.000000 0.089007 0.000000
# 6 0.000000 0.000000 0.000000 0.011325 0.000000 -0.044388
#
#
# Mechanical properties :
#
#
# Convention : Reuss Voigt Hill
#
# Bulk Modulus (GPa) = 29.47619 54.27572 41.87595
# Shear Modulus (GPa) = 18.83893 12.05538 15.44716
#
# Velocity S-wave (km/s) = 3.02991 2.42378 2.74363
# Velocity P-wave (km/s) = 5.15795 5.85508 5.51754
#
# Compressibility (1/GPa) = 0.03392568
#
# Stress axis : x y z
#
# Youngs Moduli (GPa) = 83.30006 97.74690 20.57467
#
# Poissons Ratio (x) = 0.23814 0.15543
# Poissons Ratio (y) = 0.20294 0.17418
# Poissons Ratio (z) = 0.62930 0.82748
#
# Static dielectric constant tensor:
#      x y z
#    x 1.777470 0.000000 0.014290 
#    y 0.000000 1.780320 0.000000 
#    z 0.014290 0.000000 1.704020 
# 
# From -- ./inp_files/186453.got.cif
#   From: 2010.05.17/outbox.cif.g08.bks.cpg/sg15_94_cif.got.tgz:186453.got - 2010.06.03 18:47:42.
