data_PCOD9287092
_publ_section_title
;
Structure prediction by ZEFSAII (Michael W. Deem and Ramdas Pophale) SiO2 
 PCOD9287092
Probable space group: C 2/C
;
_chemical_formula_sum "Si O2"
_cell_formula_units_Z 48
_cell_length_a 11.410530
_cell_length_b 22.496701
_cell_length_c 11.447932
_cell_angle_alpha 90.000000
_cell_angle_beta 132.248462
_cell_angle_gamma 90.000000
_cell_volume 2175.314225
_symmetry_space_group_name_H-M "C 2/C"
_symmetry_group_IT_number 15
_symmetry_cell_setting 'monoclinic'
loop_
_space_group_symop_operation_xyz
x,y,z
-x,y,1/2-z
-x,-y,-z
x,-y,1/2+z
1/2+x,1/2+y,z
1/2-x,1/2+y,1/2-z
1/2-x,1/2-y,-z
1/2+x,1/2-y,1/2+z
loop_
_atom_site_type_symbol
_atom_site_label
_atom_site_fract_x
_atom_site_fract_y
_atom_site_fract_z
Si Si1 0.000000 0.157148 0.750000
Si Si2 0.670791 0.126016 0.823278
Si Si3 0.449949 0.717621 0.965874
Si Si4 0.000000 0.619698 0.250000
Si Si5 0.689871 0.441258 0.870155
Si Si6 0.700783 0.073389 0.588830
Si Si7 0.774260 0.672752 0.275458
O O1 0.985409 0.196763 0.856427
O O2 0.848899 0.113657 0.646672
O O3 0.500000 0.147851 0.750000
O O4 0.806686 0.176100 0.913589
O O5 0.653279 0.098934 0.682481
O O6 0.733978 0.075599 0.954291
O O7 0.391746 0.785005 0.925669
O O8 0.609290 0.706500 0.144186
O O9 0.860425 0.659299 0.210933
O O10 0.067093 0.581684 0.401855
O O11 0.500000 0.442628 0.750000
O O12 0.749978 0.505117 0.869354
O O13 0.738349 0.388596 0.815570
#
# Coordination Sequence:
#
# PCOD9287092 Si02
#       7
#     4   8   8   4   8   8   8
#     4  10  21  46  74 106 140 197 246 310 374 428
#     4  11  27  48  72 105 145 194 247 309 369 439
#     4  11  26  46  73 106 151 192 251 304 372 436
#     4  12  27  48  76 114 150 187 252 310 380 432
#     4  12  27  49  74 109 151 199 248 302 377 450
#     4  11  26  46  77 108 148 193 246 311 372 448
#     4  12  28  46  74 111 147 202 245 309 368 439
#
# _framework density 22.065778000000002
#
# number of rings (size 3 to 8) (size 9 to 14) (size 15 to 20)
#    0.000    0.667    4.167    1.500   10.500    4.667 
#    0.000    0.000    0.000    0.000    0.000    0.000 
#    0.000    0.000    0.000    0.000    0.000    0.000 
#
# Total GULP energy -134503.310151 kJ/mol
# GULP energy per Si atom -5604.304590 kJ/mol
# Density = 2.201556 g / cm^3
# Si number density = 22.065778 Si / 1000 Ang^3
#
#
#
# Elastic Constant Matrix: (Units=GPa)
#
#
# Indices 1 2 3 4 5 6 
#
# 1 141.1003 42.3516 43.9056 0.0000 20.3277 0.0000
# 2 42.3516 109.7584 18.9580 0.0000 16.8997 0.0000
# 3 43.9056 18.9580 117.5233 0.0000 18.6563 0.0000
# 4 0.0000 0.0000 0.0000 32.7717 0.0000 -6.4007
# 5 20.3277 16.8997 18.6563 0.0000 25.3815 0.0000
# 6 0.0000 0.0000 0.0000 -6.4007 0.0000 1.9240
#
#
#
# Elastic Compliance Matrix: (Units=1/GPa)
#
#
# Indices 1 2 3 4 5 6 
#
# 1 0.009148 -0.002517 -0.002394 0.000000 -0.003891 0.000000
# 2 -0.002517 0.010887 0.000017 0.000000 -0.005245 0.000000
# 3 -0.002394 0.000017 0.010300 0.000000 -0.005665 0.000000
# 4 0.000000 0.000000 0.000000 0.087129 0.000000 0.289867
# 5 -0.003891 -0.005245 -0.005665 0.000000 0.050171 0.000000
# 6 0.000000 0.000000 0.000000 0.289867 0.000000 1.484112
#
#
# Mechanical properties :
#
#
# Convention : Reuss Voigt Hill
#
# Bulk Modulus (GPa) = 48.67083 64.31251 56.49167
# Shear Modulus (GPa) = 2.99691 29.55987 16.27839
#
# Velocity S-wave (km/s) = 1.16667 3.66406 2.71905
# Velocity P-wave (km/s) = 4.89079 6.86364 5.95942
#
# Compressibility (1/GPa) = 0.02054619
#
# Stress axis : x y z
#
# Youngs Moduli (GPa) = 109.31099 91.85302 97.08900
#
# Poissons Ratio (x) = 0.23123 0.23242
# Poissons Ratio (y) = 0.27518 -0.00164
# Poissons Ratio (z) = 0.26168 -0.00155
#
# Static dielectric constant tensor:
#      x y z
#    x 1.801530 0.000000 -0.000300 
#    y 0.000000 1.759120 0.000000 
#    z -0.000300 0.000000 1.790750 
# 
# From -- ./inp_files/32569.got.cif
#   From: 2010.05.17/outbox.cif.g08.bks.cpg/sg15_17_cif.got.tgz:32569.got - 2010.06.03 18:47:42.
