data_PCOD9287291
_publ_section_title
;
Structure prediction by ZEFSAII (Michael W. Deem and Ramdas Pophale) SiO2 
 PCOD9287291
Probable space group: C 2/C
;
_chemical_formula_sum "Si O2"
_cell_formula_units_Z 48
_cell_length_a 29.285241
_cell_length_b 10.024139
_cell_length_c 11.217727
_cell_angle_alpha 90.000000
_cell_angle_beta 45.160600
_cell_angle_gamma 90.000000
_cell_volume 2335.068754
_symmetry_space_group_name_H-M "C 2/C"
_symmetry_group_IT_number 15
_symmetry_cell_setting 'monoclinic'
loop_
_space_group_symop_operation_xyz
x,y,z
-x,y,1/2-z
-x,-y,-z
x,-y,1/2+z
1/2+x,1/2+y,z
1/2-x,1/2+y,1/2-z
1/2-x,1/2-y,-z
1/2+x,1/2-y,1/2+z
loop_
_atom_site_type_symbol
_atom_site_label
_atom_site_fract_x
_atom_site_fract_y
_atom_site_fract_z
Si Si1 0.345537 0.927454 0.927559
Si Si2 0.727906 0.195254 0.733353
Si Si3 0.276080 0.433632 0.921339
Si Si4 0.827029 0.780561 0.253338
Si Si5 0.494409 0.883581 0.633323
Si Si6 0.534286 0.178588 0.563499
O O1 0.323044 0.812712 0.876495
O O2 0.421006 0.940551 0.768670
O O3 0.327084 0.883366 0.094556
O O4 0.298908 0.048494 0.980419
O O5 0.699903 0.308998 0.699735
O O6 0.771153 0.100240 0.569557
O O7 0.774245 0.253186 0.750614
O O8 0.313461 0.567440 0.817873
O O9 0.897366 0.750402 0.071431
O O10 0.500000 0.810081 0.750000
O O11 0.501563 0.801026 0.498392
O O12 0.538398 0.015939 0.556702
O O13 0.500000 0.216047 0.750000
#
# Coordination Sequence:
#
# PCOD9287291 Si02
#       6
#     8   8   8   8   8   8
#     4  10  22  35  61  86 124 155 193 252 309 352
#     4  10  22  36  57  90 117 161 200 237 300 358
#     4  10  22  36  56  88 120 160 196 242 292 370
#     4  10  22  37  59  84 125 158 195 248 307 358
#     4   9  19  35  56  89 117 153 195 260 299 349
#     4   9  19  35  57  86 114 156 202 242 306 351
#
# _framework density 20.556139999999999
#
# number of rings (size 3 to 8) (size 9 to 14) (size 15 to 20)
#    0.000    2.333    0.000    2.000   14.000    4.000 
#    3.000    0.000    0.000    2.000    0.000    0.000 
#    0.000    0.000    0.000    0.000    0.000    0.000 
#
# Total GULP energy -133853.001173 kJ/mol
# GULP energy per Si atom -5577.208382 kJ/mol
# Density = 2.050935 g / cm^3
# Si number density = 20.556140 Si / 1000 Ang^3
#
#
#
# Elastic Constant Matrix: (Units=GPa)
#
#
# Indices 1 2 3 4 5 6 
#
# 1 69.4765 13.6978 49.1338 0.0000 19.9636 0.0000
# 2 13.6978 51.2024 25.8160 0.0000 0.1029 0.0000
# 3 49.1338 25.8160 137.2912 0.0000 28.5456 0.0000
# 4 0.0000 0.0000 0.0000 25.0222 0.0000 3.4631
# 5 19.9636 0.1029 28.5456 0.0000 43.8423 0.0000
# 6 0.0000 0.0000 0.0000 3.4631 0.0000 13.3181
#
#
#
# Elastic Compliance Matrix: (Units=1/GPa)
#
#
# Indices 1 2 3 4 5 6 
#
# 1 0.020557 -0.002619 -0.005690 0.000000 -0.005650 0.000000
# 2 -0.002619 0.022256 -0.004030 0.000000 0.003765 0.000000
# 3 -0.005690 -0.004030 0.011030 0.000000 -0.004582 0.000000
# 4 0.000000 0.000000 0.000000 0.041456 0.000000 -0.010780
# 5 -0.005650 0.003765 -0.004582 0.000000 0.028356 0.000000
# 6 0.000000 0.000000 0.000000 -0.010780 0.000000 0.077889
#
#
# Mechanical properties :
#
#
# Convention : Reuss Voigt Hill
#
# Bulk Modulus (GPa) = 34.28831 48.36281 41.32556
# Shear Modulus (GPa) = 21.19145 27.72469 24.45807
#
# Velocity S-wave (km/s) = 3.21426 3.67649 3.45312
# Velocity P-wave (km/s) = 5.52194 6.44983 6.00384
#
# Compressibility (1/GPa) = 0.02916446
#
# Stress axis : x y z
#
# Youngs Moduli (GPa) = 48.64520 44.93271 90.65812
#
# Poissons Ratio (x) = 0.11770 0.51581
# Poissons Ratio (y) = 0.12742 0.36537
# Poissons Ratio (z) = 0.27677 0.18109
#
# Static dielectric constant tensor:
#      x y z
#    x 1.806890 0.000000 0.023060 
#    y 0.000000 1.720150 0.000000 
#    z 0.023060 0.000000 1.785400 
# 
# From -- ./inp_files/126608.got.cif
#   From: 2010.05.17/outbox.cif.g08.bks.cpg/sg15_64_cif.got.tgz:126608.got - 2010.06.03 18:47:42.
