data_PCOD9287820
_publ_section_title
;
Structure prediction by ZEFSAII (Michael W. Deem and Ramdas Pophale) SiO2 
 PCOD9287820
Probable space group: C 2/C
;
_chemical_formula_sum "Si O2"
_cell_formula_units_Z 48
_cell_length_a 17.973718
_cell_length_b 12.132530
_cell_length_c 11.859281
_cell_angle_alpha 90.000000
_cell_angle_beta 111.943769
_cell_angle_gamma 90.000000
_cell_volume 2398.752717
_symmetry_space_group_name_H-M "C 2/C"
_symmetry_group_IT_number 15
_symmetry_cell_setting 'monoclinic'
loop_
_space_group_symop_operation_xyz
x,y,z
-x,y,1/2-z
-x,-y,-z
x,-y,1/2+z
1/2+x,1/2+y,z
1/2-x,1/2+y,1/2-z
1/2-x,1/2-y,-z
1/2+x,1/2-y,1/2+z
loop_
_atom_site_type_symbol
_atom_site_label
_atom_site_fract_x
_atom_site_fract_y
_atom_site_fract_z
Si Si1 0.807042 0.639440 0.149582
Si Si2 0.134090 0.760540 0.525474
Si Si3 0.342819 0.792948 0.916186
Si Si4 0.560528 0.484078 0.384424
Si Si5 0.996940 0.781732 0.882879
Si Si6 0.772639 0.919561 0.479990
O O1 0.862606 0.674985 0.075891
O O2 0.846355 0.661763 0.292100
O O3 0.772185 0.518208 0.108483
O O4 0.726670 0.714663 0.103976
O O5 0.089432 0.871249 0.457370
O O6 0.085039 0.736267 0.610814
O O7 0.303453 0.671263 0.908021
O O8 0.430435 0.782597 0.018781
O O9 0.286885 0.867588 0.963176
O O10 0.500000 0.454085 0.250000
O O11 0.514018 0.587269 0.416034
O O12 0.647585 0.539193 0.408268
O O13 0.000000 0.771725 0.750000
#
# Coordination Sequence:
#
# PCOD9287820 Si02
#       6
#     8   8   8   8   8   8
#     4  10  23  39  62  93 127 168 200 263 317 365
#     4  10  22  38  57  92 131 159 207 260 317 375
#     4  10  22  40  68  91 120 173 208 254 312 381
#     4   9  19  34  62  92 122 162 199 266 326 362
#     4  10  22  39  61  91 124 165 213 264 319 370
#     4   9  21  41  60  95 125 159 217 252 309 381
#
# _framework density 20.010399
#
# number of rings (size 3 to 8) (size 9 to 14) (size 15 to 20)
#    0.000    2.333    0.000    0.500   11.667    4.000 
#    3.000    0.833    0.000    0.000    0.000    0.000 
#    0.000    0.000    0.000    0.000    0.000    0.000 
#
# Total GULP energy -133796.114341 kJ/mol
# GULP energy per Si atom -5574.838098 kJ/mol
# Density = 1.996485 g / cm^3
# Si number density = 20.010399 Si / 1000 Ang^3
#
#
#
# Elastic Constant Matrix: (Units=GPa)
#
#
# Indices 1 2 3 4 5 6 
#
# 1 84.9008 25.3016 33.0615 0.0000 -20.5936 0.0000
# 2 25.3016 42.0112 35.4818 0.0000 -5.3778 0.0000
# 3 33.0615 35.4818 109.8477 0.0000 4.8209 0.0000
# 4 0.0000 0.0000 0.0000 18.9062 0.0000 -0.6896
# 5 -20.5936 -5.3778 4.8209 0.0000 31.3575 0.0000
# 6 0.0000 0.0000 0.0000 -0.6896 0.0000 9.2161
#
#
#
# Elastic Compliance Matrix: (Units=1/GPa)
#
#
# Indices 1 2 3 4 5 6 
#
# 1 0.017827 -0.005970 -0.003933 0.000000 0.011288 0.000000
# 2 -0.005970 0.036475 -0.010156 0.000000 0.003896 0.000000
# 3 -0.003933 -0.010156 0.013851 0.000000 -0.006454 0.000000
# 4 0.000000 0.000000 0.000000 0.053037 0.000000 0.003969
# 5 0.011288 0.003896 -0.006454 0.000000 0.040964 0.000000
# 6 0.000000 0.000000 0.000000 0.003969 0.000000 0.108802
#
#
# Mechanical properties :
#
#
# Convention : Reuss Voigt Hill
#
# Bulk Modulus (GPa) = 35.66880 47.16105 41.41492
# Shear Modulus (GPa) = 15.60457 21.42362 18.51409
#
# Velocity S-wave (km/s) = 2.79556 3.27559 3.04505
# Velocity P-wave (km/s) = 5.31827 6.15836 5.75367
#
# Compressibility (1/GPa) = 0.02803571
#
# Stress axis : x y z
#
# Youngs Moduli (GPa) = 56.09417 27.41607 72.19824
#
# Poissons Ratio (x) = 0.16368 0.28392
# Poissons Ratio (y) = 0.33490 0.73323
# Poissons Ratio (z) = 0.22059 0.27843
#
# Static dielectric constant tensor:
#      x y z
#    x 1.716690 0.000000 -0.025660 
#    y 0.000000 1.722280 0.000000 
#    z -0.025660 0.000000 1.699250 
# 
# From -- ./inp_files/104264.got.cif
#   From: 2010.05.17/outbox.cif.g08.bks.cpg/sg15_53_cif.got.tgz:104264.got - 2010.06.03 18:47:42.
