data_PCOD9287209
_publ_section_title
;
Structure prediction by ZEFSAII (Michael W. Deem and Ramdas Pophale) SiO2 
 PCOD9287209
Probable space group: C 2/C
;
_chemical_formula_sum "Si O2"
_cell_formula_units_Z 56
_cell_length_a 21.326639
_cell_length_b 26.672314
_cell_length_c 5.195782
_cell_angle_alpha 90.000000
_cell_angle_beta 82.794696
_cell_angle_gamma 90.000000
_cell_volume 2932.181425
_symmetry_space_group_name_H-M "C 2/C"
_symmetry_group_IT_number 15
_symmetry_cell_setting 'monoclinic'
loop_
_space_group_symop_operation_xyz
x,y,z
-x,y,1/2-z
-x,-y,-z
x,-y,1/2+z
1/2+x,1/2+y,z
1/2-x,1/2+y,1/2-z
1/2-x,1/2-y,-z
1/2+x,1/2-y,1/2+z
loop_
_atom_site_type_symbol
_atom_site_label
_atom_site_fract_x
_atom_site_fract_y
_atom_site_fract_z
Si Si1 0.793623 0.282598 0.668979
Si Si2 0.854756 0.813588 0.254039
Si Si3 0.460116 0.918806 0.031839
Si Si4 0.387474 0.180623 0.729150
Si Si5 0.826028 0.468877 0.031018
Si Si6 0.237675 0.636022 0.971949
Si Si7 0.570665 0.708458 0.305474
O O1 0.750000 0.250000 0.500000
O O2 0.816949 0.238135 0.843927
O O3 0.858492 0.306930 0.524384
O O4 0.754225 0.330690 0.777254
O O5 0.801957 0.856424 0.284221
O O6 0.906509 0.819757 0.450072
O O7 0.884989 0.804789 0.960254
O O8 0.500000 0.941530 0.250000
O O9 0.432873 0.866419 0.161025
O O10 0.399087 0.951438 0.988951
O O11 0.500000 0.911031 0.750000
O O12 0.322518 0.165101 0.619472
O O13 0.421852 0.232062 0.637171
O O14 0.814414 0.489166 0.322988
O O15 0.783779 0.420580 0.988857
O O16 0.500000 0.698241 0.250000
#
# Coordination Sequence:
#
# PCOD9287209 Si02
#       7
#     8   8   8   8   8   8   8
#     4  11  20  34  58  90 122 151 197 247 301 367
#     4  11  22  36  59  87 117 157 199 237 291 358
#     4  11  25  40  61  83 112 159 216 259 304 355
#     4  10  22  34  56  82 120 157 203 249 299 345
#     4  11  27  44  64  87 117 154 201 266 327 358
#     4  11  22  38  63  86 120 151 203 254 309 361
#     4  11  23  37  52  82 127 166 195 233 276 352
#
# _framework density 19.098410000000001
#
# number of rings (size 3 to 8) (size 9 to 14) (size 15 to 20)
#    0.000    1.143    2.857    3.857    8.000    2.857 
#    0.000    0.000    0.000    0.000    0.000    0.000 
#    0.000   11.429    0.000    0.000    0.000    0.000 
#
# Total GULP energy -156280.179647 kJ/mol
# GULP energy per Si atom -5581.434987 kJ/mol
# Density = 1.905494 g / cm^3
# Si number density = 19.098410 Si / 1000 Ang^3
#
#
#
# Elastic Constant Matrix: (Units=GPa)
#
#
# Indices 1 2 3 4 5 6 
#
# 1 86.4045 22.5645 12.0985 0.0000 15.1264 0.0000
# 2 22.5645 60.9620 12.9923 0.0000 0.2545 0.0000
# 3 12.0985 12.9923 54.5178 0.0000 10.9983 0.0000
# 4 0.0000 0.0000 0.0000 23.2895 0.0000 1.9114
# 5 15.1264 0.2545 10.9983 0.0000 29.8031 0.0000
# 6 0.0000 0.0000 0.0000 1.9114 0.0000 21.6419
#
#
#
# Elastic Compliance Matrix: (Units=1/GPa)
#
#
# Indices 1 2 3 4 5 6 
#
# 1 0.014204 -0.005116 -0.000527 0.000000 -0.006971 0.000000
# 2 -0.005116 0.019185 -0.004243 0.000000 0.003999 0.000000
# 3 -0.000527 -0.004243 0.020971 0.000000 -0.007435 0.000000
# 4 0.000000 0.000000 0.000000 0.043251 0.000000 -0.003820
# 5 -0.006971 0.003999 -0.007435 0.000000 0.039801 0.000000
# 6 0.000000 0.000000 0.000000 -0.003820 0.000000 0.046544
#
#
# Mechanical properties :
#
#
# Convention : Reuss Voigt Hill
#
# Bulk Modulus (GPa) = 28.91218 33.02163 30.96690
# Shear Modulus (GPa) = 23.22804 25.22883 24.22844
#
# Velocity S-wave (km/s) = 3.49123 3.63849 3.56562
# Velocity P-wave (km/s) = 5.60562 5.91432 5.76204
#
# Compressibility (1/GPa) = 0.03458750
#
# Stress axis : x y z
#
# Youngs Moduli (GPa) = 70.40460 52.12417 47.68551
#
# Poissons Ratio (x) = 0.26667 0.02511
# Poissons Ratio (y) = 0.36019 0.20235
# Poissons Ratio (z) = 0.03707 0.22118
#
# Static dielectric constant tensor:
#      x y z
#    x 1.700800 0.000000 0.021110 
#    y 0.000000 1.646070 0.000000 
#    z 0.021110 0.000000 1.817140 
# 
# From -- ./inp_files/13694.got.cif
#   From: 2010.05.17/outbox.cif.g08.bks.cpg/sg15_7_cif.got.tgz:13694.got - 2010.06.03 18:47:42.
