data_PCOD9287534
_publ_section_title
;
Structure prediction by ZEFSAII (Michael W. Deem and Ramdas Pophale) SiO2 
 PCOD9287534
Probable space group: C 2/C
;
_chemical_formula_sum "Si O2"
_cell_formula_units_Z 52
_cell_length_a 17.053819
_cell_length_b 8.248757
_cell_length_c 28.330247
_cell_angle_alpha 90.000000
_cell_angle_beta 41.835374
_cell_angle_gamma 90.000000
_cell_volume 2658.162533
_symmetry_space_group_name_H-M "C 2/C"
_symmetry_group_IT_number 15
_symmetry_cell_setting 'monoclinic'
loop_
_space_group_symop_operation_xyz
x,y,z
-x,y,1/2-z
-x,-y,-z
x,-y,1/2+z
1/2+x,1/2+y,z
1/2-x,1/2+y,1/2-z
1/2-x,1/2-y,-z
1/2+x,1/2-y,1/2+z
loop_
_atom_site_type_symbol
_atom_site_label
_atom_site_fract_x
_atom_site_fract_y
_atom_site_fract_z
Si Si1 0.500000 0.586054 0.750000
Si Si2 0.312767 0.667466 0.373556
Si Si3 0.928102 0.487326 0.484868
Si Si4 0.096691 0.899677 0.300479
Si Si5 0.967568 0.587769 0.864569
Si Si6 0.388967 0.243856 0.433460
Si Si7 0.300583 0.752238 0.271639
O O1 0.590660 0.468370 0.682397
O O2 0.426531 0.671663 0.741730
O O3 0.200451 0.583174 0.447123
O O4 0.374241 0.796859 0.380429
O O5 0.278555 0.741329 0.337649
O O6 0.976519 0.388123 0.417615
O O7 0.926892 0.670717 0.466328
O O8 0.000000 0.500000 0.500000
O O9 0.187021 0.799775 0.292133
O O10 0.969719 0.894047 0.383241
O O11 0.149524 0.077905 0.267978
O O12 0.923185 0.402395 0.882257
O O13 0.093937 0.622012 0.785508
O O14 0.250000 0.250000 0.500000
#
# Coordination Sequence:
#
# PCOD9287534 Si02
#       7
#     4   8   8   8   8   8   8
#     4  10  22  36  70  84 132 164 228 248 344 380
#     4  11  19  42  65  94 120 179 215 268 320 397
#     4  10  23  37  66  90 129 171 214 256 328 389
#     4  11  22  42  60  99 126 175 210 278 323 391
#     4  10  22  40  65  95 123 171 220 266 318 389
#     4  10  23  40  63  91 133 162 219 262 320 385
#     4  11  23  39  71  94 136 162 227 273 331 385
#
# _framework density 19.562384999999999
#
# number of rings (size 3 to 8) (size 9 to 14) (size 15 to 20)
#    0.923    0.615    3.077    3.231    4.308    0.000 
#    5.538    0.000    0.000    3.692    0.000    0.000 
#    0.000    0.000    0.000    0.000    0.000    0.000 
#
# Total GULP energy -144836.536197 kJ/mol
# GULP energy per Si atom -5570.636008 kJ/mol
# Density = 1.951786 g / cm^3
# Si number density = 19.562385 Si / 1000 Ang^3
#
#
#
# Elastic Constant Matrix: (Units=GPa)
#
#
# Indices 1 2 3 4 5 6 
#
# 1 133.0072 23.7788 1.4381 -0.0001 21.1552 -0.0001
# 2 23.7788 40.8800 18.5123 -0.0003 5.8700 0.0001
# 3 1.4381 18.5123 59.2491 0.0000 2.8437 -0.0001
# 4 -0.0001 -0.0003 0.0000 29.1211 0.0000 0.2400
# 5 21.1552 5.8700 2.8437 0.0000 38.3129 0.0000
# 6 -0.0001 0.0001 -0.0001 0.2400 0.0000 34.1897
#
#
#
# Elastic Compliance Matrix: (Units=1/GPa)
#
#
# Indices 1 2 3 4 5 6 
#
# 1 0.009172 -0.005479 0.001698 0.000000 -0.004351 0.000000
# 2 -0.005479 0.032304 -0.009903 0.000000 -0.001189 0.000000
# 3 0.001698 -0.009903 0.019974 0.000000 -0.000903 0.000000
# 4 0.000000 0.000000 0.000000 0.034341 0.000000 -0.000241
# 5 -0.004351 -0.001189 -0.000903 0.000000 0.028752 0.000000
# 6 0.000000 0.000000 0.000000 -0.000241 0.000000 0.029250
#
#
# Mechanical properties :
#
#
# Convention : Reuss Voigt Hill
#
# Bulk Modulus (GPa) = 29.34142 35.62163 32.48152
# Shear Modulus (GPa) = 25.97085 32.95188 29.46137
#
# Velocity S-wave (km/s) = 3.64757 4.10866 3.88496
# Velocity P-wave (km/s) = 5.72460 6.38411 6.06333
#
# Compressibility (1/GPa) = 0.03408152
#
# Stress axis : x y z
#
# Youngs Moduli (GPa) = 109.03238 30.95557 50.06429
#
# Poissons Ratio (x) = 0.16961 -0.08502
# Poissons Ratio (y) = 0.59740 0.49581
# Poissons Ratio (z) = -0.18515 0.30657
#
# Static dielectric constant tensor:
#      x y z
#    x 1.638400 0.000000 -0.008600 
#    y 0.000000 1.677790 0.000000 
#    z -0.008600 0.000000 1.744490 
# 
# From -- ./inp_files/298353.got.cif
#   From: 2010.05.17/outbox.cif.g08.bks.cpg/sg15_150_cif.got.tgz:298353.got - 2010.06.03 18:47:42.
