data_PCOD9287129
_publ_section_title
;
Structure prediction by ZEFSAII (Michael W. Deem and Ramdas Pophale) SiO2 
 PCOD9287129
Probable space group: C 2/C
;
_chemical_formula_sum "Si O2"
_cell_formula_units_Z 44
_cell_length_a 16.435666
_cell_length_b 8.215880
_cell_length_c 13.478775
_cell_angle_alpha 90.000000
_cell_angle_beta 71.932620
_cell_angle_gamma 90.000000
_cell_volume 1730.341663
_symmetry_space_group_name_H-M "C 2/C"
_symmetry_group_IT_number 15
_symmetry_cell_setting 'monoclinic'
loop_
_space_group_symop_operation_xyz
x,y,z
-x,y,1/2-z
-x,-y,-z
x,-y,1/2+z
1/2+x,1/2+y,z
1/2-x,1/2+y,1/2-z
1/2-x,1/2-y,-z
1/2+x,1/2-y,1/2+z
loop_
_atom_site_type_symbol
_atom_site_label
_atom_site_fract_x
_atom_site_fract_y
_atom_site_fract_z
Si Si1 0.764721 0.549762 0.348476
Si Si2 0.216429 0.595895 0.453986
Si Si3 0.085462 0.106912 0.458685
Si Si4 0.843261 0.870324 0.343716
Si Si5 0.411199 0.040557 0.641927
Si Si6 0.000000 0.670470 0.250000
O O1 0.792240 0.529260 0.452507
O O2 0.664719 0.507365 0.377937
O O3 0.770196 0.744309 0.337506
O O4 0.662676 0.963309 0.244113
O O5 0.250000 0.750000 0.500000
O O6 0.296354 0.542240 0.354516
O O7 0.130816 0.579542 0.423954
O O8 0.121362 0.137281 0.556321
O O9 0.072442 0.279222 0.407122
O O10 0.000000 0.000000 0.500000
O O11 0.923480 0.794994 0.258305
O O12 0.493577 0.953693 0.659653
#
# Coordination Sequence:
#
# PCOD9287129 Si02
#       6
#     8   8   8   8   8   4
#     4  10  22  46  73 103 146 208 254 307 399 449
#     4  11  23  41  77 109 140 199 267 311 370 473
#     4  11  23  44  75 109 154 206 253 324 395 453
#     4  10  21  48  68 101 149 200 245 307 396 441
#     4  11  24  47  73 111 158 199 267 324 379 480
#     4  10  26  44  76 110 156 208 240 328 412 438
#
# _framework density 25.428504
#
# number of rings (size 3 to 8) (size 9 to 14) (size 15 to 20)
#    0.000    1.455    3.636    1.091    2.545    5.091 
#   13.091    0.000    0.000    0.000    0.000    0.000 
#    0.000    0.000    0.000    0.000    0.000    0.000 
#
# Total GULP energy -122772.942367 kJ/mol
# GULP energy per Si atom -5580.588289 kJ/mol
# Density = 2.537063 g / cm^3
# Si number density = 25.428504 Si / 1000 Ang^3
#
#
#
# Elastic Constant Matrix: (Units=GPa)
#
#
# Indices 1 2 3 4 5 6 
#
# 1 159.7594 57.0657 30.4415 0.0000 2.0099 0.0000
# 2 57.0657 108.2098 8.6006 0.0000 1.2591 0.0000
# 3 30.4415 8.6006 63.5708 0.0000 -0.3654 0.0000
# 4 0.0000 0.0000 0.0000 41.8371 0.0000 0.5489
# 5 2.0099 1.2591 -0.3654 0.0000 49.4746 0.0000
# 6 0.0000 0.0000 0.0000 0.5489 0.0000 37.5427
#
#
#
# Elastic Compliance Matrix: (Units=1/GPa)
#
#
# Indices 1 2 3 4 5 6 
#
# 1 0.008407 -0.004155 -0.003465 0.000000 -0.000261 0.000000
# 2 -0.004155 0.011398 0.000447 0.000000 -0.000118 0.000000
# 3 -0.003465 0.000447 0.017331 0.000000 0.000257 0.000000
# 4 0.000000 0.000000 0.000000 0.023907 0.000000 -0.000350
# 5 -0.000261 -0.000118 0.000257 0.000000 0.020228 0.000000
# 6 0.000000 0.000000 0.000000 -0.000350 0.000000 0.026641
#
#
# Mechanical properties :
#
#
# Convention : Reuss Voigt Hill
#
# Bulk Modulus (GPa) = 43.87962 58.19509 51.03735
# Shear Modulus (GPa) = 38.50416 41.46635 39.98526
#
# Velocity S-wave (km/s) = 3.89551 4.04258 3.96973
# Velocity P-wave (km/s) = 6.12592 6.68770 6.41296
#
# Compressibility (1/GPa) = 0.02278962
#
# Stress axis : x y z
#
# Youngs Moduli (GPa) = 118.94558 87.73128 57.70051
#
# Poissons Ratio (x) = 0.36454 0.19994
# Poissons Ratio (y) = 0.49424 -0.02579
# Poissons Ratio (z) = 0.41217 -0.03921
#
# Static dielectric constant tensor:
#      x y z
#    x 2.063210 0.000000 -0.059870 
#    y 0.000000 2.206290 0.000000 
#    z -0.059870 0.000000 2.165870 
# 
# From -- ./inp_files/159255.got.cif
#   From: 2010.05.17/outbox.cif.g08.bks.cpg/sg15_80_cif.got.tgz:159255.got - 2010.06.03 18:47:42.
