data_PCOD9287351
_publ_section_title
;
Structure prediction by ZEFSAII (Michael W. Deem and Ramdas Pophale) SiO2 
 PCOD9287351
Probable space group: C 2/C
;
_chemical_formula_sum "Si O2"
_cell_formula_units_Z 56
_cell_length_a 34.672525
_cell_length_b 14.496677
_cell_length_c 9.878954
_cell_angle_alpha 90.000000
_cell_angle_beta 44.272720
_cell_angle_gamma 90.000000
_cell_volume 3466.303904
_symmetry_space_group_name_H-M "C 2/C"
_symmetry_group_IT_number 15
_symmetry_cell_setting 'monoclinic'
loop_
_space_group_symop_operation_xyz
x,y,z
-x,y,1/2-z
-x,-y,-z
x,-y,1/2+z
1/2+x,1/2+y,z
1/2-x,1/2+y,1/2-z
1/2-x,1/2-y,-z
1/2+x,1/2-y,1/2+z
loop_
_atom_site_type_symbol
_atom_site_label
_atom_site_fract_x
_atom_site_fract_y
_atom_site_fract_z
Si Si1 0.745028 0.508919 0.853882
Si Si2 0.882544 0.330565 0.379334
Si Si3 0.001288 0.405039 0.084029
Si Si4 0.880692 0.682143 0.208360
Si Si5 0.215193 0.201532 0.468114
Si Si6 0.315766 0.000945 0.925601
Si Si7 0.216682 0.786111 0.454415
O O1 0.721325 0.409112 0.953519
O O2 0.798873 0.522900 0.814527
O O3 0.761882 0.502864 0.654830
O O4 0.712668 0.603465 0.957713
O O5 0.947201 0.343798 0.189113
O O6 0.875616 0.316011 0.557860
O O7 0.854816 0.424885 0.397449
O O8 0.844929 0.254498 0.401428
O O9 0.000000 0.426914 0.250000
O O10 0.000000 0.500000 0.000000
O O11 0.056187 0.344711 0.918889
O O12 0.848667 0.768874 0.352563
O O13 0.845090 0.596537 0.351047
O O14 0.250000 0.250000 0.500000
O O15 0.245873 0.243892 0.260530
O O16 0.250000 0.750000 0.500000
#
# Coordination Sequence:
#
# PCOD9287351 Si02
#       7
#     8   8   8   8   8   8   8
#     4  12  22  32  52  82 108 148 175 217 277 332
#     4  11  21  36  52  81 115 142 180 227 273 328
#     4  10  22  36  57  81 108 147 190 226 276 329
#     4  11  21  35  55  80 109 149 182 222 270 334
#     4  12  20  36  55  76 110 150 180 220 277 333
#     4  12  18  31  54  76 109 139 179 214 262 331
#     4  12  22  34  53  82 115 143 177 232 280 322
#
# _framework density 16.155536999999999
#
# number of rings (size 3 to 8) (size 9 to 14) (size 15 to 20)
#    0.000    0.571   10.000    0.000    0.000    0.000 
#    2.571    0.000    0.000    0.857    0.000    0.000 
#    0.000    0.000    0.000    0.000    0.000    0.000 
#
# Total GULP energy -156105.168983 kJ/mol
# GULP energy per Si atom -5575.184607 kJ/mol
# Density = 1.611877 g / cm^3
# Si number density = 16.155537 Si / 1000 Ang^3
#
#
#
# Elastic Constant Matrix: (Units=GPa)
#
#
# Indices 1 2 3 4 5 6 
#
# 1 85.4736 44.7672 42.9198 0.0000 -11.0605 0.0000
# 2 44.7672 118.2042 34.6265 0.0000 -17.0215 0.0000
# 3 42.9198 34.6265 71.0245 0.0000 -9.3117 0.0000
# 4 0.0000 0.0000 0.0000 23.6685 0.0000 -6.0599
# 5 -11.0605 -17.0215 -9.3117 0.0000 34.1274 0.0000
# 6 0.0000 0.0000 0.0000 -6.0599 0.0000 13.3603
#
#
#
# Elastic Compliance Matrix: (Units=1/GPa)
#
#
# Indices 1 2 3 4 5 6 
#
# 1 0.018612 -0.004197 -0.009007 0.000000 0.001481 0.000000
# 2 -0.004197 0.011300 -0.002502 0.000000 0.003593 0.000000
# 3 -0.009007 -0.002502 0.020945 0.000000 0.001548 0.000000
# 4 0.000000 0.000000 0.000000 0.047801 0.000000 0.021681
# 5 0.001481 0.003593 0.001548 0.000000 0.031996 0.000000
# 6 0.000000 0.000000 0.000000 0.021681 0.000000 0.084683
#
#
# Mechanical properties :
#
#
# Convention : Reuss Voigt Hill
#
# Bulk Modulus (GPa) = 51.42505 57.70327 54.56416
# Shear Modulus (GPa) = 19.74486 24.39051 22.06768
#
# Velocity S-wave (km/s) = 3.49975 3.88974 3.69989
# Velocity P-wave (km/s) = 6.94488 7.48120 7.21802
#
# Compressibility (1/GPa) = 0.01944578
#
# Stress axis : x y z
#
# Youngs Moduli (GPa) = 53.72827 88.49777 47.74415
#
# Poissons Ratio (x) = 0.37144 0.43002
# Poissons Ratio (y) = 0.22551 0.11943
# Poissons Ratio (z) = 0.48392 0.22138
#
# Static dielectric constant tensor:
#      x y z
#    x 1.559040 0.000000 0.008960 
#    y 0.000000 1.186040 0.000000 
#    z 0.008960 0.000000 1.569760 
# 
# From -- ./inp_files/65928.got.cif
#   From: 2010.05.17/outbox.cif.g08.bks.cpg/sg15_33_cif.got.tgz:65928.got - 2010.06.03 18:47:42.
