data_PCOD9287372
_publ_section_title
;
Structure prediction by ZEFSAII (Michael W. Deem and Ramdas Pophale) SiO2 
 PCOD9287372
Probable space group: C 2/C
;
_chemical_formula_sum "Si O2"
_cell_formula_units_Z 40
_cell_length_a 20.439863
_cell_length_b 11.233451
_cell_length_c 17.987974
_cell_angle_alpha 90.000000
_cell_angle_beta 25.225250
_cell_angle_gamma 90.000000
_cell_volume 1760.209893
_symmetry_space_group_name_H-M "C 2/C"
_symmetry_group_IT_number 15
_symmetry_cell_setting 'monoclinic'
loop_
_space_group_symop_operation_xyz
x,y,z
-x,y,1/2-z
-x,-y,-z
x,-y,1/2+z
1/2+x,1/2+y,z
1/2-x,1/2+y,1/2-z
1/2-x,1/2-y,-z
1/2+x,1/2-y,1/2+z
loop_
_atom_site_type_symbol
_atom_site_label
_atom_site_fract_x
_atom_site_fract_y
_atom_site_fract_z
Si Si1 0.807729 0.737326 0.681409
Si Si2 0.000000 0.194430 0.250000
Si Si3 0.000000 0.205125 0.750000
Si Si4 0.432519 0.136518 0.177541
Si Si5 0.029413 0.151236 0.063522
Si Si6 0.306423 0.501154 0.004643
O O1 0.709289 0.800300 0.718682
O O2 0.688037 0.681161 0.860980
O O3 0.926145 0.641613 0.525014
O O4 0.902315 0.833530 0.632079
O O5 0.000603 0.238792 0.334310
O O6 0.843938 0.112190 0.414570
O O7 0.983671 0.284304 0.694311
O O8 0.145852 0.118339 0.588822
O O9 0.357936 0.017959 0.289100
O O10 0.061405 0.023475 0.068618
#
# Coordination Sequence:
#
# PCOD9287372 Si02
#       6
#     8   4   4   8   8   8
#     4  10  22  36  58  91 118 158 187 242 300 339
#     4   7  18  38  58  81 106 154 197 234 282 338
#     4  11  20  38  64  87 116 160 189 246 284 356
#     4  11  21  37  60  89 121 153 195 236 299 348
#     4   9  20  40  60  83 119 152 202 237 290 348
#     4   9  19  37  61  86 112 153 205 230 289 347
#
# _framework density 22.724561999999999
#
# number of rings (size 3 to 8) (size 9 to 14) (size 15 to 20)
#    1.200    1.200    2.000    0.600    0.000    2.400 
#    0.000    0.000    8.800    0.000    0.000    0.000 
#    0.000    0.000    0.000    0.000    0.000    0.000 
#
# Total GULP energy -111344.845110 kJ/mol
# GULP energy per Si atom -5567.242255 kJ/mol
# Density = 2.267284 g / cm^3
# Si number density = 22.724562 Si / 1000 Ang^3
#
#
#
# Elastic Constant Matrix: (Units=GPa)
#
#
# Indices 1 2 3 4 5 6 
#
# 1 104.0811 8.0407 41.0682 -0.0002 18.5524 0.0000
# 2 8.0407 30.1729 9.8358 -0.0002 4.6916 0.0001
# 3 41.0682 9.8358 142.7360 -0.0001 27.3931 0.0000
# 4 -0.0002 -0.0002 -0.0001 -53.0290 0.0001 20.6568
# 5 18.5524 4.6916 27.3931 0.0001 36.6591 0.0000
# 6 0.0000 0.0001 0.0000 20.6568 0.0000 20.9482
#
#
#
# Elastic Compliance Matrix: (Units=1/GPa)
#
#
# Indices 1 2 3 4 5 6 
#
# 1 0.011361 -0.001654 -0.002442 0.000000 -0.003713 0.000000
# 2 -0.001654 0.034435 -0.001415 0.000000 -0.002513 0.000000
# 3 -0.002442 -0.001415 0.008796 0.000000 -0.005155 0.000000
# 4 0.000000 0.000000 0.000000 -0.013624 0.000000 0.013435
# 5 -0.003713 -0.002513 -0.005155 0.000000 0.033331 0.000000
# 6 0.000000 0.000000 0.000000 0.013435 0.000000 0.034489
#
#
# Mechanical properties :
#
#
# Convention : Reuss Voigt Hill
#
# Bulk Modulus (GPa) = 22.95191 43.87549 33.41370
# Shear Modulus (GPa) = 37.22091 15.45201 26.33646
#
# Velocity S-wave (km/s) = 4.05151 2.61045 3.40802
# Velocity P-wave (km/s) = 5.65758 5.33248 5.49744
#
# Compressibility (1/GPa) = 0.04356936
#
# Stress axis : x y z
#
# Youngs Moduli (GPa) = 88.01884 29.04024 113.69444
#
# Poissons Ratio (x) = 0.04804 0.27768
# Poissons Ratio (y) = 0.14560 0.16085
# Poissons Ratio (z) = 0.21497 0.04108
#
# Static dielectric constant tensor:
#      x y z
#    x 1.870650 0.000000 0.038430 
#    y 0.000000 1.925230 0.000000 
#    z 0.038430 0.000000 1.882670 
# 
# From -- ./inp_files/46687.got.cif
#   From: 2010.05.17/outbox.cif.g08.bks.cpg/sg15_24_cif.got.tgz:46687.got - 2010.06.03 18:47:42.
