data_PCOD9287743
_publ_section_title
;
Structure prediction by ZEFSAII (Michael W. Deem and Ramdas Pophale) SiO2 
 PCOD9287743
Probable space group: C 2/C
;
_chemical_formula_sum "Si O2"
_cell_formula_units_Z 48
_cell_length_a 5.289373
_cell_length_b 18.556670
_cell_length_c 24.442624
_cell_angle_alpha 90.000000
_cell_angle_beta 71.482156
_cell_angle_gamma 90.000000
_cell_volume 2274.905551
_symmetry_space_group_name_H-M "C 2/C"
_symmetry_group_IT_number 15
_symmetry_cell_setting 'monoclinic'
loop_
_space_group_symop_operation_xyz
x,y,z
-x,y,1/2-z
-x,-y,-z
x,-y,1/2+z
1/2+x,1/2+y,z
1/2-x,1/2+y,1/2-z
1/2-x,1/2-y,-z
1/2+x,1/2-y,1/2+z
loop_
_atom_site_type_symbol
_atom_site_label
_atom_site_fract_x
_atom_site_fract_y
_atom_site_fract_z
Si Si1 0.494668 0.679641 0.122875
Si Si2 0.719306 0.379478 0.108884
Si Si3 0.571362 0.241668 0.066162
Si Si4 0.190860 0.300207 0.286414
Si Si5 0.840952 0.553168 0.971552
Si Si6 0.458972 0.472289 0.591236
O O1 0.264684 0.702897 0.096353
O O2 0.440079 0.727799 0.179915
O O3 0.457789 0.594175 0.132097
O O4 0.791210 0.700073 0.081279
O O5 0.522430 0.321047 0.095632
O O6 0.788767 0.357309 0.165341
O O7 0.612507 0.459834 0.106729
O O8 0.989728 0.377112 0.054157
O O9 0.750000 0.250000 0.000000
O O10 0.500000 0.286563 0.250000
O O11 0.000000 0.324580 0.250000
O O12 0.794492 0.511281 0.917980
O O13 0.580147 0.563537 0.026386
O O14 0.000000 0.500000 0.000000
#
# Coordination Sequence:
#
# PCOD9287743 Si02
#       6
#     8   8   8   8   8   8
#     4  11  25  42  65  94 129 176 213 276 333 394
#     4  10  23  39  67  93 128 174 221 273 329 397
#     4  11  24  38  62  99 139 172 216 256 325 413
#     4  11  25  48  71  89 123 173 233 289 338 374
#     4   9  20  36  60  98 138 175 199 253 331 410
#     4  10  22  37  66  96 140 169 213 255 340 414
#
# _framework density 21.099778000000001
#
# number of rings (size 3 to 8) (size 9 to 14) (size 15 to 20)
#    0.000    1.667    0.000    3.500   18.667    0.000 
#    0.000    0.833    0.000    0.000    0.000    0.000 
#    0.000    0.000    0.000    0.000    0.000    0.000 
#
# Total GULP energy -133874.794223 kJ/mol
# GULP energy per Si atom -5578.116426 kJ/mol
# Density = 2.105175 g / cm^3
# Si number density = 21.099778 Si / 1000 Ang^3
#
#
#
# Elastic Constant Matrix: (Units=GPa)
#
#
# Indices 1 2 3 4 5 6 
#
# 1 111.6535 34.2607 27.1250 0.0000 4.8926 0.0000
# 2 34.2607 137.5530 34.2969 0.0000 16.8546 0.0000
# 3 27.1250 34.2969 81.4441 0.0000 13.6568 0.0000
# 4 0.0000 0.0000 0.0000 22.0165 0.0000 1.8617
# 5 4.8926 16.8546 13.6568 0.0000 31.4832 0.0000
# 6 0.0000 0.0000 0.0000 1.8617 0.0000 23.7002
#
#
#
# Elastic Compliance Matrix: (Units=1/GPa)
#
#
# Indices 1 2 3 4 5 6 
#
# 1 0.010175 -0.001943 -0.002674 0.000000 0.000619 0.000000
# 2 -0.001943 0.008783 -0.002495 0.000000 -0.003318 0.000000
# 3 -0.002674 -0.002495 0.015018 0.000000 -0.004763 0.000000
# 4 0.000000 0.000000 0.000000 0.045724 0.000000 -0.003592
# 5 0.000619 -0.003318 -0.004763 0.000000 0.035509 0.000000
# 6 0.000000 0.000000 0.000000 -0.003592 0.000000 0.042476
#
#
# Mechanical properties :
#
#
# Convention : Reuss Voigt Hill
#
# Bulk Modulus (GPa) = 50.63046 58.00173 54.31610
# Shear Modulus (GPa) = 28.01215 31.10453 29.55834
#
# Velocity S-wave (km/s) = 3.64758 3.84365 3.74690
# Velocity P-wave (km/s) = 6.46434 6.87365 6.67213
#
# Compressibility (1/GPa) = 0.01975096
#
# Stress axis : x y z
#
# Youngs Moduli (GPa) = 98.27847 113.86222 66.58510
#
# Poissons Ratio (x) = 0.22128 0.17807
# Poissons Ratio (y) = 0.19100 0.16612
# Poissons Ratio (z) = 0.26282 0.28407
#
# Static dielectric constant tensor:
#      x y z
#    x 1.840290 0.000000 -0.050110 
#    y 0.000000 1.803810 0.000000 
#    z -0.050110 0.000000 1.817760 
# 
# From -- ./inp_files/260851.got.cif
#   From: 2010.05.17/outbox.cif.g08.bks.cpg/sg15_131_cif.got.tgz:260851.got - 2010.06.03 18:47:42.
