data_PCOD9287380
_publ_section_title
;
Structure prediction by ZEFSAII (Michael W. Deem and Ramdas Pophale) SiO2 
 PCOD9287380
Probable space group: C 2/C
;
_chemical_formula_sum "Si O2"
_cell_formula_units_Z 64
_cell_length_a 14.464243
_cell_length_b 18.864003
_cell_length_c 13.982298
_cell_angle_alpha 90.000000
_cell_angle_beta 50.039070
_cell_angle_gamma 90.000000
_cell_volume 2924.222471
_symmetry_space_group_name_H-M "C 2/C"
_symmetry_group_IT_number 15
_symmetry_cell_setting 'monoclinic'
loop_
_space_group_symop_operation_xyz
x,y,z
-x,y,1/2-z
-x,-y,-z
x,-y,1/2+z
1/2+x,1/2+y,z
1/2-x,1/2+y,1/2-z
1/2-x,1/2-y,-z
1/2+x,1/2-y,1/2+z
loop_
_atom_site_type_symbol
_atom_site_label
_atom_site_fract_x
_atom_site_fract_y
_atom_site_fract_z
Si Si1 0.263081 0.131495 0.801220
Si Si2 0.307579 0.451871 0.912142
Si Si3 0.695367 0.794221 0.418932
Si Si4 0.229910 0.029429 0.388412
Si Si5 0.555877 0.577432 0.359903
Si Si6 0.857125 0.332556 0.836027
Si Si7 0.157748 0.315432 0.060348
Si Si8 0.982777 0.783085 0.978424
O O1 0.301921 0.150343 0.669027
O O2 0.354440 0.162972 0.820558
O O3 0.257449 0.047245 0.824147
O O4 0.132585 0.170224 0.909265
O O5 0.352392 0.459057 0.774972
O O6 0.425975 0.436207 0.899187
O O7 0.255648 0.516370 0.007370
O O8 0.219896 0.384808 0.974614
O O9 0.803347 0.738884 0.326315
O O10 0.701640 0.828549 0.518787
O O11 0.572619 0.747550 0.497686
O O12 0.097994 0.052376 0.436635
O O13 0.313366 0.096837 0.310625
O O14 0.560291 0.662595 0.361671
O O15 0.000000 0.332245 0.750000
O O16 0.057329 0.283097 0.058993
O O17 0.250000 0.250000 0.000000
#
# Coordination Sequence:
#
# PCOD9287380 Si02
#       8
#     8   8   8   8   8   8   8   8
#     4  10  23  41  65 101 137 167 221 270 327 394
#     4  10  22  36  58  95 131 172 216 263 332 392
#     4  11  25  44  72  98 122 176 225 274 321 388
#     4  11  23  44  63  92 136 172 217 281 321 396
#     4  11  21  35  65  93 127 174 217 269 337 382
#     4  11  26  49  69  91 133 172 221 271 330 391
#     4   9  18  35  55  90 135 160 200 265 319 387
#     4  11  21  38  66  98 132 171 215 273 331 387
#
# _framework density 21.88616
#
# number of rings (size 3 to 8) (size 9 to 14) (size 15 to 20)
#    0.000    1.500    5.000    1.125    5.250    1.500 
#    4.500    0.625    0.000    0.000    0.000    0.000 
#    0.000    0.000    0.000    0.000    0.000    0.000 
#
# Total GULP energy -178432.631878 kJ/mol
# GULP energy per Si atom -5576.019746 kJ/mol
# Density = 2.183635 g / cm^3
# Si number density = 21.886160 Si / 1000 Ang^3
#
#
#
# Elastic Constant Matrix: (Units=GPa)
#
#
# Indices 1 2 3 4 5 6 
#
# 1 81.6412 43.9905 -6.7583 0.0000 -8.4488 0.0000
# 2 43.9905 126.8197 15.5488 0.0000 -5.2997 0.0000
# 3 -6.7583 15.5488 47.3047 0.0000 5.5717 0.0000
# 4 0.0000 0.0000 0.0000 14.2210 0.0000 4.7435
# 5 -8.4488 -5.2997 5.5717 0.0000 32.8275 0.0000
# 6 0.0000 0.0000 0.0000 4.7435 0.0000 35.8564
#
#
#
# Elastic Compliance Matrix: (Units=1/GPa)
#
#
# Indices 1 2 3 4 5 6 
#
# 1 0.016036 -0.005942 0.003950 0.000000 0.002497 0.000000
# 2 -0.005942 0.010527 -0.004417 0.000000 0.000920 0.000000
# 3 0.003950 -0.004417 0.023592 0.000000 -0.003701 0.000000
# 4 0.000000 0.000000 0.000000 0.073565 0.000000 -0.009732
# 5 0.002497 0.000920 -0.003701 0.000000 0.031882 0.000000
# 6 0.000000 0.000000 0.000000 -0.009732 0.000000 0.029177
#
#
# Mechanical properties :
#
#
# Convention : Reuss Voigt Hill
#
# Bulk Modulus (GPa) = 26.78445 40.14749 33.46597
# Shear Modulus (GPa) = 23.80483 30.11329 26.95906
#
# Velocity S-wave (km/s) = 3.30156 3.71334 3.51349
# Velocity P-wave (km/s) = 5.17671 6.06373 5.63769
#
# Compressibility (1/GPa) = 0.03733509
#
# Stress axis : x y z
#
# Youngs Moduli (GPa) = 62.35927 94.99819 42.38774
#
# Poissons Ratio (x) = 0.56452 -0.16744
# Poissons Ratio (y) = 0.37057 0.18724
# Poissons Ratio (z) = -0.24633 0.41964
#
# Static dielectric constant tensor:
#      x y z
#    x 1.809730 0.000000 -0.005950 
#    y 0.000000 1.781530 0.000000 
#    z -0.005950 0.000000 1.787390 
# 
# From -- ./inp_files/155468.got.cif
#   From: 2010.05.17/outbox.cif.g08.bks.cpg/sg15_78_cif.got.tgz:155468.got - 2010.06.03 18:47:42.
