data_PCOD9287553
_publ_section_title
;
Structure prediction by ZEFSAII (Michael W. Deem and Ramdas Pophale) SiO2 
 PCOD9287553
Probable space group: C 2/C
;
_chemical_formula_sum "Si O2"
_cell_formula_units_Z 44
_cell_length_a 17.645256
_cell_length_b 22.457721
_cell_length_c 5.121965
_cell_angle_alpha 90.000000
_cell_angle_beta 91.560182
_cell_angle_gamma 90.000000
_cell_volume 2028.940073
_symmetry_space_group_name_H-M "C 2/C"
_symmetry_group_IT_number 15
_symmetry_cell_setting 'monoclinic'
loop_
_space_group_symop_operation_xyz
x,y,z
-x,y,1/2-z
-x,-y,-z
x,-y,1/2+z
1/2+x,1/2+y,z
1/2-x,1/2+y,1/2-z
1/2-x,1/2-y,-z
1/2+x,1/2-y,1/2+z
loop_
_atom_site_type_symbol
_atom_site_label
_atom_site_fract_x
_atom_site_fract_y
_atom_site_fract_z
Si Si1 0.796990 0.033408 0.912530
Si Si2 0.208708 0.831934 0.965116
Si Si3 0.377044 0.169229 0.700388
Si Si4 0.500000 0.743385 0.250000
Si Si5 0.387232 0.965952 0.136173
Si Si6 0.637016 0.726243 0.959361
O O1 0.816120 0.099474 0.009390
O O2 0.704985 0.031636 0.886274
O O3 0.823112 0.014678 0.628093
O O4 0.297538 0.829562 0.042904
O O5 0.164002 0.795500 0.183687
O O6 0.190833 0.804273 0.682983
O O7 0.442449 0.212084 0.594600
O O8 0.404568 0.101713 0.714390
O O9 0.362139 0.202902 0.975708
O O10 0.552456 0.708747 0.051107
O O11 0.413561 0.012032 0.357851
#
# Coordination Sequence:
#
# PCOD9287553 Si02
#       6
#     8   8   8   4   8   8
#     4   9  17  30  50  81 112 136 172 225 274 316
#     4  11  20  35  61  84 110 146 188 225 270 336
#     4   9  20  38  56  83 116 146 184 232 277 320
#     4   8  22  40  54  78 120 146 184 226 288 316
#     4   9  18  32  52  76 107 146 183 220 263 319
#     4  10  22  37  55  84 110 150 183 230 279 323
#
# _framework density 21.686199999999999
#
# number of rings (size 3 to 8) (size 9 to 14) (size 15 to 20)
#    1.091    1.455    0.000    2.182    0.000    6.545 
#    0.000    0.909    0.000    0.000    0.000   12.727 
#    0.000    0.000    0.000    0.000    0.000    0.000 
#
# Total GULP energy -122744.824922 kJ/mol
# GULP energy per Si atom -5579.310224 kJ/mol
# Density = 2.163684 g / cm^3
# Si number density = 21.686200 Si / 1000 Ang^3
#
#
#
# Elastic Constant Matrix: (Units=GPa)
#
#
# Indices 1 2 3 4 5 6 
#
# 1 76.3732 7.6553 1.3256 0.0000 -8.5022 0.0000
# 2 7.6553 105.9511 26.6846 0.0000 8.4457 0.0000
# 3 1.3256 26.6846 84.7767 0.0000 -3.1230 0.0000
# 4 0.0000 0.0000 0.0000 14.7859 0.0000 -5.7237
# 5 -8.5022 8.4457 -3.1230 0.0000 14.1071 0.0000
# 6 0.0000 0.0000 0.0000 -5.7237 0.0000 0.2295
#
#
#
# Elastic Compliance Matrix: (Units=1/GPa)
#
#
# Indices 1 2 3 4 5 6 
#
# 1 0.014407 -0.002043 0.000789 0.000000 0.010081 0.000000
# 2 -0.002043 0.011255 -0.003836 0.000000 -0.008819 0.000000
# 3 0.000789 -0.003836 0.013200 0.000000 0.005694 0.000000
# 4 0.000000 0.000000 0.000000 -0.007815 0.000000 -0.194899
# 5 0.010081 -0.008819 0.005694 0.000000 0.083502 0.000000
# 6 0.000000 0.000000 0.000000 -0.194899 0.000000 -0.503478
#
#
# Mechanical properties :
#
#
# Convention : Reuss Voigt Hill
#
# Bulk Modulus (GPa) = 34.86376 37.60354 36.23365
# Shear Modulus (GPa) = -13.54326 21.25352 3.85513
#
# Velocity S-wave (km/s) = -2.50173 3.13397 1.33475
# Velocity P-wave (km/s) = 2.78684 5.52025 4.37262
#
# Compressibility (1/GPa) = 0.02868308
#
# Stress axis : x y z
#
# Youngs Moduli (GPa) = 69.41088 88.84993 75.75523
#
# Poissons Ratio (x) = 0.18155 -0.05979
# Poissons Ratio (y) = 0.14183 0.29056
# Poissons Ratio (z) = -0.05478 0.34079
#
# Static dielectric constant tensor:
#      x y z
#    x 1.851860 0.000000 0.013300 
#    y 0.000000 1.801400 0.000000 
#    z 0.013300 0.000000 1.787210 
# 
# From -- ./inp_files/13096.got.cif
#   From: 2010.05.17/outbox.cif.g08.bks.cpg/sg15_7_cif.got.tgz:13096.got - 2010.06.03 18:47:42.
