data_PCOD9287821
_publ_section_title
;
Structure prediction by ZEFSAII (Michael W. Deem and Ramdas Pophale) SiO2 
 PCOD9287821
Probable space group: C 2/C
;
_chemical_formula_sum "Si O2"
_cell_formula_units_Z 44
_cell_length_a 18.021832
_cell_length_b 17.825296
_cell_length_c 8.599602
_cell_angle_alpha 90.000000
_cell_angle_beta 57.325937
_cell_angle_gamma 90.000000
_cell_volume 2325.411819
_symmetry_space_group_name_H-M "C 2/C"
_symmetry_group_IT_number 15
_symmetry_cell_setting 'monoclinic'
loop_
_space_group_symop_operation_xyz
x,y,z
-x,y,1/2-z
-x,-y,-z
x,-y,1/2+z
1/2+x,1/2+y,z
1/2-x,1/2+y,1/2-z
1/2-x,1/2-y,-z
1/2+x,1/2-y,1/2+z
loop_
_atom_site_type_symbol
_atom_site_label
_atom_site_fract_x
_atom_site_fract_y
_atom_site_fract_z
Si Si1 0.060636 0.055095 0.327592
Si Si2 0.649307 0.989025 0.336150
Si Si3 0.222183 0.944796 0.064638
Si Si4 0.590158 0.662486 0.568477
Si Si5 0.500000 0.192460 0.250000
Si Si6 0.516476 0.110592 0.563603
O O1 0.088807 0.126817 0.398628
O O2 0.000000 0.076502 0.250000
O O3 0.147011 0.007433 0.182912
O O4 0.000000 0.000000 0.500000
O O5 0.711934 0.936384 0.367122
O O6 0.568969 0.941999 0.358951
O O7 0.601791 0.056952 0.481493
O O8 0.714696 0.026002 0.140969
O O9 0.171694 0.870849 0.069001
O O10 0.577712 0.751011 0.605496
O O11 0.500000 0.631747 0.750000
O O12 0.524584 0.149556 0.382651
O O13 0.500000 0.151591 0.750000
#
# Coordination Sequence:
#
# PCOD9287821 Si02
#       6
#     8   8   8   8   4   8
#     4  12  18  32  57  91 132 169 206 258 320 390
#     4  11  23  37  64 100 117 155 218 288 326 359
#     4  12  19  34  63  94 131 151 207 280 321 371
#     4  10  22  38  57  94 128 174 203 244 331 394
#     4  10  24  44  66  88 134 186 214 248 316 420
#     4  11  23  45  66  89 126 171 227 268 326 375
#
# _framework density 18.921379000000002
#
# number of rings (size 3 to 8) (size 9 to 14) (size 15 to 20)
#    0.545    0.364    7.273    1.091    2.545    0.727 
#    0.000    3.636    0.000    3.273    0.000    0.000 
#    0.000    0.000    0.000    0.000    0.000    0.000 
#
# Total GULP energy -122509.812886 kJ/mol
# GULP energy per Si atom -5568.627858 kJ/mol
# Density = 1.887831 g / cm^3
# Si number density = 18.921379 Si / 1000 Ang^3
#
#
#
# Elastic Constant Matrix: (Units=GPa)
#
#
# Indices 1 2 3 4 5 6 
#
# 1 417.1722 115.0015 173.0994 0.0000 131.0601 0.0000
# 2 115.0015 86.2015 64.7598 0.0000 45.9164 0.0000
# 3 173.0994 64.7598 144.4629 0.0000 52.7577 0.0000
# 4 0.0000 0.0000 0.0000 17.4700 0.0000 1.1378
# 5 131.0601 45.9164 52.7577 0.0000 96.8430 0.0000
# 6 0.0000 0.0000 0.0000 1.1378 0.0000 13.8869
#
#
#
# Elastic Compliance Matrix: (Units=1/GPa)
#
#
# Indices 1 2 3 4 5 6 
#
# 1 0.006940 -0.002451 -0.005257 0.000000 -0.005366 0.000000
# 2 -0.002451 0.020558 -0.004907 0.000000 -0.003757 0.000000
# 3 -0.005257 -0.004907 0.014947 0.000000 0.001299 0.000000
# 4 0.000000 0.000000 0.000000 0.057548 0.000000 -0.004715
# 5 -0.005366 -0.003757 0.001299 0.000000 0.018662 0.000000
# 6 0.000000 0.000000 0.000000 -0.004715 0.000000 0.072397
#
#
# Mechanical properties :
#
#
# Convention : Reuss Voigt Hill
#
# Bulk Modulus (GPa) = 58.08907 150.39535 104.24221
# Shear Modulus (GPa) = 22.52042 45.30503 33.91272
#
# Velocity S-wave (km/s) = 3.45368 4.89855 4.23815
# Velocity P-wave (km/s) = 6.83160 10.56652 8.89725
#
# Compressibility (1/GPa) = 0.01721494
#
# Stress axis : x y z
#
# Youngs Moduli (GPa) = 144.09416 48.64247 66.90201
#
# Poissons Ratio (x) = 0.11920 0.35173
# Poissons Ratio (y) = 0.35312 0.32830
# Poissons Ratio (z) = 0.75756 0.23870
#
# Static dielectric constant tensor:
#      x y z
#    x 1.602380 0.000000 0.004360 
#    y 0.000000 1.662450 0.000000 
#    z 0.004360 0.000000 1.658880 
# 
# From -- ./inp_files/48904.got.cif
#   From: 2010.05.17/outbox.cif.g08.bks.cpg/sg15_25_cif.got.tgz:48904.got - 2010.06.03 18:47:42.
