data_PCOD9287471
_publ_section_title
;
Structure prediction by ZEFSAII (Michael W. Deem and Ramdas Pophale) SiO2 
 PCOD9287471
Probable space group: C 2/C
;
_chemical_formula_sum "Si O2"
_cell_formula_units_Z 44
_cell_length_a 18.495056
_cell_length_b 11.187945
_cell_length_c 23.014058
_cell_angle_alpha 90.000000
_cell_angle_beta 156.305272
_cell_angle_gamma 90.000000
_cell_volume 1913.717208
_symmetry_space_group_name_H-M "C 2/C"
_symmetry_group_IT_number 15
_symmetry_cell_setting 'monoclinic'
loop_
_space_group_symop_operation_xyz
x,y,z
-x,y,1/2-z
-x,-y,-z
x,-y,1/2+z
1/2+x,1/2+y,z
1/2-x,1/2+y,1/2-z
1/2-x,1/2-y,-z
1/2+x,1/2-y,1/2+z
loop_
_atom_site_type_symbol
_atom_site_label
_atom_site_fract_x
_atom_site_fract_y
_atom_site_fract_z
Si Si1 0.188538 0.516650 0.948332
Si Si2 0.905292 0.609630 0.814134
Si Si3 0.500000 0.599399 0.750000
Si Si4 0.551592 0.545855 0.602809
Si Si5 0.833995 0.176977 0.971807
Si Si6 0.260420 0.706715 0.439364
O O1 0.178308 0.424327 0.887655
O O2 0.022762 0.506310 0.870218
O O3 0.369197 0.482585 0.116185
O O4 0.202246 0.645675 0.928430
O O5 0.764135 0.567140 0.758352
O O6 0.781742 0.665866 0.672081
O O7 0.054349 0.702472 0.944904
O O8 0.363027 0.692919 0.681521
O O9 0.500000 0.500000 0.500000
O O10 0.480595 0.430883 0.585349
O O11 0.445437 0.666805 0.544348
O O12 0.250000 0.750000 0.500000
#
# Coordination Sequence:
#
# PCOD9287471 Si02
#       6
#     8   8   4   8   8   8
#     4  10  22  38  63  92 131 165 224 275 328 399
#     4  11  23  41  66  91 128 176 210 273 342 400
#     4  10  22  36  64 100 122 168 234 278 322 400
#     4   9  21  41  62  91 133 168 217 273 339 406
#     4  10  23  41  62  92 125 171 217 267 334 407
#     4   9  20  39  61  92 124 172 215 273 328 396
#
# _framework density 22.991904000000002
#
# number of rings (size 3 to 8) (size 9 to 14) (size 15 to 20)
#    0.000    2.182    0.000    1.091   10.182    2.909 
#   16.364    0.909    0.000    0.000    0.000    0.000 
#    0.000    0.000    0.000    0.000    0.000    0.000 
#
# Total GULP energy -122488.028466 kJ/mol
# GULP energy per Si atom -5567.637658 kJ/mol
# Density = 2.293957 g / cm^3
# Si number density = 22.991904 Si / 1000 Ang^3
#
#
#
# Elastic Constant Matrix: (Units=GPa)
#
#
# Indices 1 2 3 4 5 6 
#
# 1 73.7349 2.8742 24.0645 -0.0016 27.0863 -0.0003
# 2 2.8742 26.1365 -6.2119 -0.0135 -4.0995 -0.0010
# 3 24.0645 -6.2119 100.4759 -0.0059 2.3999 -0.0010
# 4 -0.0016 -0.0135 -0.0059 46.1276 -0.0013 10.8849
# 5 27.0863 -4.0995 2.3999 -0.0013 42.6278 -0.0002
# 6 -0.0003 -0.0010 -0.0010 10.8849 -0.0002 29.2890
#
#
#
# Elastic Compliance Matrix: (Units=1/GPa)
#
#
# Indices 1 2 3 4 5 6 
#
# 1 0.020150 -0.005416 -0.004849 -0.000002 -0.013052 0.000001
# 2 -0.005416 0.040848 0.003651 0.000013 0.007164 -0.000003
# 3 -0.004849 0.003651 0.011273 0.000003 0.002798 0.000000
# 4 -0.000002 0.000013 0.000003 0.023763 0.000003 -0.008831
# 5 -0.013052 0.007164 0.002798 0.000003 0.032283 -0.000001
# 6 0.000001 -0.000003 0.000000 -0.008831 -0.000001 0.037425
#
#
# Mechanical properties :
#
#
# Convention : Reuss Voigt Hill
#
# Bulk Modulus (GPa) = 16.93647 26.86678 21.90162
# Shear Modulus (GPa) = 25.16990 35.58358 30.37674
#
# Velocity S-wave (km/s) = 3.31226 3.93830 3.63877
# Velocity P-wave (km/s) = 4.69152 5.69130 5.21542
#
# Compressibility (1/GPa) = 0.05904420
#
# Stress axis : x y z
#
# Youngs Moduli (GPa) = 49.62722 24.48115 88.70791
#
# Poissons Ratio (x) = 0.13258 0.43016
# Poissons Ratio (y) = 0.26876 -0.32390
# Poissons Ratio (z) = 0.24065 -0.08939
#
# Static dielectric constant tensor:
#      x y z
#    x 2.073920 -0.000010 0.074830 
#    y -0.000010 1.959120 0.000000 
#    z 0.074830 0.000000 1.959070 
# 
# From -- ./inp_files/300882.got.cif
#   From: 2010.05.17/outbox.cif.g08.bks.cpg/sg15_151_cif.got.tgz:300882.got - 2010.06.03 18:47:42.
