data_PCOD9287444
_publ_section_title
;
Structure prediction by ZEFSAII (Michael W. Deem and Ramdas Pophale) SiO2 
 PCOD9287444
Probable space group: C 2/C
;
_chemical_formula_sum "Si O2"
_cell_formula_units_Z 48
_cell_length_a 12.986357
_cell_length_b 18.553942
_cell_length_c 14.498757
_cell_angle_alpha 90.000000
_cell_angle_beta 138.895978
_cell_angle_gamma 90.000000
_cell_volume 2296.691135
_symmetry_space_group_name_H-M "C 2/C"
_symmetry_group_IT_number 15
_symmetry_cell_setting 'monoclinic'
loop_
_space_group_symop_operation_xyz
x,y,z
-x,y,1/2-z
-x,-y,-z
x,-y,1/2+z
1/2+x,1/2+y,z
1/2-x,1/2+y,1/2-z
1/2-x,1/2-y,-z
1/2+x,1/2-y,1/2+z
loop_
_atom_site_type_symbol
_atom_site_label
_atom_site_fract_x
_atom_site_fract_y
_atom_site_fract_z
Si Si1 0.340395 0.234038 0.201709
Si Si2 0.374368 0.966201 0.526375
Si Si3 0.968765 0.317792 0.516633
Si Si4 0.819263 0.920206 0.932630
Si Si5 0.449783 0.885616 0.319726
Si Si6 0.163121 0.957634 0.204278
O O1 0.500000 0.236549 0.250000
O O2 0.408077 0.233750 0.350849
O O3 0.244343 0.160003 0.123438
O O4 0.212017 0.293888 0.091240
O O5 0.478461 0.896088 0.572429
O O6 0.300153 0.956928 0.576704
O O7 0.244686 0.967306 0.358218
O O8 0.469612 0.039754 0.593166
O O9 0.995879 0.326542 0.426612
O O10 0.835297 0.966777 0.850074
O O11 0.990013 0.925722 0.094049
O O12 0.500000 0.869621 0.250000
O O13 0.267564 0.903228 0.213159
#
# Coordination Sequence:
#
# PCOD9287444 Si02
#       6
#     8   8   8   8   8   8
#     4  12  25  43  65  96 133 176 211 265 328 394
#     4  11  21  39  66  93 128 167 216 266 329 386
#     4  11  26  40  66  94 131 169 222 259 320 389
#     4  11  22  38  64  94 134 163 211 271 330 383
#     4  11  22  42  69  90 126 173 223 264 323 379
#     4  10  22  36  61  99 128 164 211 277 323 375
#
# _framework density 20.899632
#
# number of rings (size 3 to 8) (size 9 to 14) (size 15 to 20)
#    0.000    1.000    3.333    5.000    4.667    0.000 
#    0.000    0.833    0.000    0.000    0.000    0.000 
#    0.000    0.000    0.000    0.000    0.000    0.000 
#
# Total GULP energy -134235.598251 kJ/mol
# GULP energy per Si atom -5593.149927 kJ/mol
# Density = 2.085206 g / cm^3
# Si number density = 20.899632 Si / 1000 Ang^3
#
#
#
# Elastic Constant Matrix: (Units=GPa)
#
#
# Indices 1 2 3 4 5 6 
#
# 1 72.3562 28.5473 13.9532 0.0000 1.7782 0.0000
# 2 28.5473 46.7491 17.5115 0.0000 -2.6898 0.0000
# 3 13.9532 17.5115 82.3761 0.0000 5.3945 0.0000
# 4 0.0000 0.0000 0.0000 28.0139 0.0000 5.4784
# 5 1.7782 -2.6898 5.3945 0.0000 32.3641 0.0000
# 6 0.0000 0.0000 0.0000 5.4784 0.0000 24.0510
#
#
#
# Elastic Compliance Matrix: (Units=1/GPa)
#
#
# Indices 1 2 3 4 5 6 
#
# 1 0.018358 -0.011077 -0.000635 0.000000 -0.001823 0.000000
# 2 -0.011077 0.030177 -0.004795 0.000000 0.003916 0.000000
# 3 -0.000635 -0.004795 0.013437 0.000000 -0.002603 0.000000
# 4 0.000000 0.000000 0.000000 0.037361 0.000000 -0.008510
# 5 -0.001823 0.003916 -0.002603 0.000000 0.031758 0.000000
# 6 0.000000 0.000000 0.000000 -0.008510 0.000000 0.043517
#
#
# Mechanical properties :
#
#
# Convention : Reuss Voigt Hill
#
# Bulk Modulus (GPa) = 34.53491 35.72283 35.12887
# Shear Modulus (GPa) = 23.01232 26.31711 24.66471
#
# Velocity S-wave (km/s) = 3.32186 3.55239 3.43906
# Velocity P-wave (km/s) = 5.59223 5.82715 5.71090
#
# Compressibility (1/GPa) = 0.02895621
#
# Stress axis : x y z
#
# Youngs Moduli (GPa) = 54.47127 33.13819 74.42207
#
# Poissons Ratio (x) = 0.36708 0.04729
# Poissons Ratio (y) = 0.60340 0.35686
# Poissons Ratio (z) = 0.03461 0.15890
#
# Static dielectric constant tensor:
#      x y z
#    x 1.733610 0.000000 -0.012430 
#    y 0.000000 1.787160 0.000000 
#    z -0.012430 0.000000 1.784350 
# 
# From -- ./inp_files/147362.got.cif
#   From: 2010.05.17/outbox.cif.g08.bks.cpg/sg15_74_cif.got.tgz:147362.got - 2010.06.03 18:47:42.
