data_PCOD9287345
_publ_section_title
;
Structure prediction by ZEFSAII (Michael W. Deem and Ramdas Pophale) SiO2 
 PCOD9287345
Probable space group: C 2/C
;
_chemical_formula_sum "Si O2"
_cell_formula_units_Z 44
_cell_length_a 13.683217
_cell_length_b 26.089591
_cell_length_c 5.863072
_cell_angle_alpha 90.000000
_cell_angle_beta 67.300802
_cell_angle_gamma 90.000000
_cell_volume 1930.934587
_symmetry_space_group_name_H-M "C 2/C"
_symmetry_group_IT_number 15
_symmetry_cell_setting 'monoclinic'
loop_
_space_group_symop_operation_xyz
x,y,z
-x,y,1/2-z
-x,-y,-z
x,-y,1/2+z
1/2+x,1/2+y,z
1/2-x,1/2+y,1/2-z
1/2-x,1/2-y,-z
1/2+x,1/2-y,1/2+z
loop_
_atom_site_type_symbol
_atom_site_label
_atom_site_fract_x
_atom_site_fract_y
_atom_site_fract_z
Si Si1 0.102904 0.742160 0.373778
Si Si2 0.790885 0.307216 0.098961
Si Si3 0.113999 0.367887 0.107671
Si Si4 0.000000 0.827612 0.750000
Si Si5 0.375436 0.481398 0.375913
Si Si6 0.685174 0.621606 0.347576
O O1 0.219116 0.768248 0.302654
O O2 0.093323 0.689374 0.522221
O O3 0.029844 0.788532 0.520271
O O4 0.111949 0.722183 0.105882
O O5 0.832679 0.355022 0.200616
O O6 0.715482 0.329469 0.970774
O O7 0.000000 0.393019 0.250000
O O8 0.203320 0.393819 0.871309
O O9 0.901456 0.862293 0.761622
O O10 0.500000 0.495452 0.250000
O O11 0.333945 0.506778 0.654613
O O12 0.360745 0.421806 0.447849
#
# Coordination Sequence:
#
# PCOD9287345 Si02
#       6
#     8   8   8   4   8   8
#     4  10  22  36  56  86 127 183 223 273 317 375
#     4  10  23  38  60  85 127 175 235 268 323 384
#     4  11  23  41  61  87 132 178 232 274 317 387
#     4  12  24  38  60  92 142 172 226 272 330 394
#     4  10  25  46  75 104 137 172 211 275 360 435
#     4  11  27  40  65 100 130 173 215 283 335 405
#
# _framework density 22.786892999999999
#
# number of rings (size 3 to 8) (size 9 to 14) (size 15 to 20)
#    0.000    1.455    2.727    0.545   14.000    4.364 
#    0.000    0.000    0.000    1.091    0.000    0.000 
#    0.000    0.000    0.000    0.000    0.000    0.000 
#
# Total GULP energy -122801.615179 kJ/mol
# GULP energy per Si atom -5581.891599 kJ/mol
# Density = 2.273503 g / cm^3
# Si number density = 22.786893 Si / 1000 Ang^3
#
#
#
# Elastic Constant Matrix: (Units=GPa)
#
#
# Indices 1 2 3 4 5 6 
#
# 1 63.2857 3.0900 27.1513 0.0000 6.9190 0.0000
# 2 3.0900 54.0709 17.4995 0.0000 6.8890 0.0000
# 3 27.1513 17.4995 116.5416 0.0000 -1.8255 0.0000
# 4 0.0000 0.0000 0.0000 44.8587 0.0000 -1.4434
# 5 6.9190 6.8890 -1.8255 0.0000 29.7364 0.0000
# 6 0.0000 0.0000 0.0000 -1.4434 0.0000 10.3119
#
#
#
# Elastic Compliance Matrix: (Units=1/GPa)
#
#
# Indices 1 2 3 4 5 6 
#
# 1 0.018185 0.001009 -0.004462 0.000000 -0.004739 0.000000
# 2 0.001009 0.020170 -0.003344 0.000000 -0.005113 0.000000
# 3 -0.004462 -0.003344 0.010160 0.000000 0.002437 0.000000
# 4 0.000000 0.000000 0.000000 0.022393 0.000000 0.003134
# 5 -0.004739 -0.005113 0.002437 0.000000 0.036066 0.000000
# 6 0.000000 0.000000 0.000000 0.003134 0.000000 0.097414
#
#
# Mechanical properties :
#
#
# Convention : Reuss Voigt Hill
#
# Bulk Modulus (GPa) = 28.63635 36.59774 32.61705
# Shear Modulus (GPa) = 21.77483 29.39188 25.58335
#
# Velocity S-wave (km/s) = 3.09461 3.59536 3.35434
# Velocity P-wave (km/s) = 5.03618 5.77332 5.41730
#
# Compressibility (1/GPa) = 0.03492065
#
# Stress axis : x y z
#
# Youngs Moduli (GPa) = 54.99148 49.57814 98.42054
#
# Poissons Ratio (x) = -0.05001 0.43918
# Poissons Ratio (y) = -0.05547 0.32910
# Poissons Ratio (z) = 0.24539 0.16578
#
# Static dielectric constant tensor:
#      x y z
#    x 1.918710 0.000000 0.007940 
#    y 0.000000 1.797970 0.000000 
#    z 0.007940 0.000000 1.945330 
# 
# From -- ./inp_files/8193.got.cif
#   From: 2010.05.17/outbox.cif.g08.bks.cpg/sg15_5_cif.got.tgz:8193.got - 2010.06.03 18:47:42.
