data_PCOD9287535
_publ_section_title
;
Structure prediction by ZEFSAII (Michael W. Deem and Ramdas Pophale) SiO2 
 PCOD9287535
Probable space group: C 2/C
;
_chemical_formula_sum "Si O2"
_cell_formula_units_Z 52
_cell_length_a 7.796194
_cell_length_b 21.445321
_cell_length_c 16.525481
_cell_angle_alpha 90.000000
_cell_angle_beta 57.254416
_cell_angle_gamma 90.000000
_cell_volume 2323.843988
_symmetry_space_group_name_H-M "C 2/C"
_symmetry_group_IT_number 15
_symmetry_cell_setting 'monoclinic'
loop_
_space_group_symop_operation_xyz
x,y,z
-x,y,1/2-z
-x,-y,-z
x,-y,1/2+z
1/2+x,1/2+y,z
1/2-x,1/2+y,1/2-z
1/2-x,1/2-y,-z
1/2+x,1/2-y,1/2+z
loop_
_atom_site_type_symbol
_atom_site_label
_atom_site_fract_x
_atom_site_fract_y
_atom_site_fract_z
Si Si1 0.445990 0.398126 0.386321
Si Si2 0.281469 0.423761 0.850648
Si Si3 0.561953 0.165616 0.024540
Si Si4 0.000000 0.789277 0.250000
Si Si5 0.207745 0.508402 0.730960
Si Si6 0.649597 0.717753 0.404691
Si Si7 0.978928 0.084641 0.067575
O O1 0.199965 0.389380 0.447953
O O2 0.502074 0.332291 0.329484
O O3 0.600391 0.446164 0.305115
O O4 0.498231 0.412837 0.466736
O O5 0.500000 0.415224 0.750000
O O6 0.169195 0.475239 0.826028
O O7 0.334374 0.443277 0.928933
O O8 0.141811 0.363439 0.889288
O O9 0.704601 0.190896 0.060744
O O10 0.528246 0.224090 0.973673
O O11 0.800991 0.746996 0.301312
O O12 0.284349 0.454517 0.648533
O O13 0.000000 0.537598 0.750000
O O14 0.533066 0.657260 0.404143
#
# Coordination Sequence:
#
# PCOD9287535 Si02
#       7
#     8   8   8   4   8   8   8
#     4  10  22  43  64  93 129 172 220 262 324 387
#     4  10  23  39  63 102 125 163 219 272 324 379
#     4   9  19  41  66  91 125 176 214 261 325 392
#     4  10  22  36  70  98 126 178 214 272 308 396
#     4  11  23  42  66  93 129 173 221 274 320 394
#     4   9  19  36  67  91 125 167 222 256 320 394
#     4  10  22  40  63  97 126 169 215 272 329 383
#
# _framework density 22.376718
#
# number of rings (size 3 to 8) (size 9 to 14) (size 15 to 20)
#    0.000    2.154    0.000    3.231    8.615    0.615 
#    5.538    3.846    0.000    0.000    0.000    0.000 
#    0.000    0.000    0.000    0.000    0.000    0.000 
#
# Total GULP energy -144979.501583 kJ/mol
# GULP energy per Si atom -5576.134676 kJ/mol
# Density = 2.232579 g / cm^3
# Si number density = 22.376718 Si / 1000 Ang^3
#
#
#
# Elastic Constant Matrix: (Units=GPa)
#
#
# Indices 1 2 3 4 5 6 
#
# 1 68.8431 17.4762 12.1871 0.0000 0.3197 0.0000
# 2 17.4762 76.0147 13.9129 0.0000 -19.6068 0.0000
# 3 12.1871 13.9129 52.1961 0.0000 2.5115 0.0000
# 4 0.0000 0.0000 0.0000 -932.8346 0.0000 -397.5628
# 5 0.3197 -19.6068 2.5115 0.0000 26.7652 0.0000
# 6 0.0000 0.0000 0.0000 -397.5628 0.0000 -138.9898
#
#
#
# Elastic Compliance Matrix: (Units=1/GPa)
#
#
# Indices 1 2 3 4 5 6 
#
# 1 0.015991 -0.003943 -0.002546 0.000000 -0.002841 0.000000
# 2 -0.003943 0.018554 -0.004703 0.000000 0.014080 0.000000
# 3 -0.002546 -0.004703 0.021267 0.000000 -0.005410 0.000000
# 4 0.000000 0.000000 0.000000 0.004894 0.000000 -0.013998
# 5 -0.002841 0.014080 -0.005410 0.000000 0.048218 0.000000
# 6 0.000000 0.000000 0.000000 -0.013998 0.000000 0.032844
#
#
# Mechanical properties :
#
#
# Convention : Reuss Voigt Hill
#
# Bulk Modulus (GPa) = 29.91434 31.57848 30.74641
# Shear Modulus (GPa) = 28.52352 -198.78000 -85.12824
#
# Velocity S-wave (km/s) = 3.57416 -9.43537 -6.17461
# Velocity P-wave (km/s) = 5.51637 10.22540 6.08804
#
# Compressibility (1/GPa) = 0.03342878
#
# Stress axis : x y z
#
# Youngs Moduli (GPa) = 62.53661 53.89551 47.02178
#
# Poissons Ratio (x) = 0.21251 0.11971
# Poissons Ratio (y) = 0.24658 0.22112
# Poissons Ratio (z) = 0.15921 0.25345
#
# Static dielectric constant tensor:
#      x y z
#    x 1.828050 0.000000 0.028930 
#    y 0.000000 1.883890 0.000000 
#    z 0.028930 0.000000 1.884500 
# 
# From -- ./inp_files/192443.got.cif
#   From: 2010.05.17/outbox.cif.g08.bks.cpg/sg15_97_cif.got.tgz:192443.got - 2010.06.03 18:47:42.
