data_PCOD9287012
_publ_section_title
;
Structure prediction by ZEFSAII (Michael W. Deem and Ramdas Pophale) SiO2 
 PCOD9287012
Probable space group: C 2/C
;
_chemical_formula_sum "Si O2"
_cell_formula_units_Z 56
_cell_length_a 9.068810
_cell_length_b 11.737540
_cell_length_c 27.793493
_cell_angle_alpha 90.000000
_cell_angle_beta 122.327553
_cell_angle_gamma 90.000000
_cell_volume 2499.940545
_symmetry_space_group_name_H-M "C 2/C"
_symmetry_group_IT_number 15
_symmetry_cell_setting 'monoclinic'
loop_
_space_group_symop_operation_xyz
x,y,z
-x,y,1/2-z
-x,-y,-z
x,-y,1/2+z
1/2+x,1/2+y,z
1/2-x,1/2+y,1/2-z
1/2-x,1/2-y,-z
1/2+x,1/2-y,1/2+z
loop_
_atom_site_type_symbol
_atom_site_label
_atom_site_fract_x
_atom_site_fract_y
_atom_site_fract_z
Si Si1 0.639773 0.925748 0.836545
Si Si2 0.096948 0.748659 0.661637
Si Si3 0.889312 0.605216 0.059299
Si Si4 0.263220 0.164991 0.286144
Si Si5 0.757603 0.481104 0.361715
Si Si6 0.885909 0.121008 0.567488
Si Si7 0.242392 0.342282 0.363601
O O1 0.801217 0.849245 0.847979
O O2 0.655116 0.943506 0.896446
O O3 0.448337 0.872350 0.795153
O O4 0.646034 0.054407 0.819933
O O5 0.142697 0.779885 0.724738
O O6 0.173588 0.632180 0.653150
O O7 0.889047 0.727862 0.625389
O O8 0.865331 0.741292 0.063186
O O9 0.084432 0.554823 0.086635
O O10 0.761208 0.573111 0.993817
O O11 0.191133 0.061094 0.306359
O O12 0.305757 0.260111 0.332554
O O13 0.635881 0.437067 0.383855
O O14 0.082106 0.107959 0.582743
#
# Coordination Sequence:
#
# PCOD9287012 Si02
#       7
#     8   8   8   8   8   8   8
#     4  11  24  46  70  97 142 180 232 291 347 421
#     4  12  25  42  71  99 138 187 231 290 355 412
#     4  10  21  45  72 104 140 184 236 289 353 424
#     4  11  25  45  67  99 138 184 238 285 352 415
#     4  11  22  47  71 103 142 184 239 291 346 428
#     4  11  23  42  77 101 142 190 226 292 362 418
#     4  12  25  45  68 101 143 177 233 293 342 425
#
# _framework density 22.400531999999998
#
# number of rings (size 3 to 8) (size 9 to 14) (size 15 to 20)
#    0.000    0.857    7.143    1.286    4.000    1.714 
#    0.000    2.143    0.000    0.000    0.000    0.000 
#    0.000    0.000    0.000    0.000    0.000    0.000 
#
# Total GULP energy -156220.044888 kJ/mol
# GULP energy per Si atom -5579.287317 kJ/mol
# Density = 2.234955 g / cm^3
# Si number density = 22.400532 Si / 1000 Ang^3
#
#
#
# Elastic Constant Matrix: (Units=GPa)
#
#
# Indices 1 2 3 4 5 6 
#
# 1 106.1437 31.2075 45.6670 0.0000 25.1572 0.0000
# 2 31.2075 80.6649 11.7130 0.0000 5.0164 0.0000
# 3 45.6670 11.7130 72.0113 0.0000 0.6730 0.0000
# 4 0.0000 0.0000 0.0000 24.2523 0.0000 -1.4950
# 5 25.1572 5.0164 0.6730 0.0000 19.6351 0.0000
# 6 0.0000 0.0000 0.0000 -1.4950 0.0000 46.3985
#
#
#
# Elastic Compliance Matrix: (Units=1/GPa)
#
#
# Indices 1 2 3 4 5 6 
#
# 1 0.023792 -0.005400 -0.013942 0.000000 -0.028625 0.000000
# 2 -0.005400 0.014123 0.001097 0.000000 0.003273 0.000000
# 3 -0.013942 0.001097 0.022393 0.000000 0.016815 0.000000
# 4 0.000000 0.000000 0.000000 0.041315 0.000000 0.001331
# 5 -0.028625 0.003273 0.016815 0.000000 0.086192 0.000000
# 6 0.000000 0.000000 0.000000 0.001331 0.000000 0.021595
#
#
# Mechanical properties :
#
#
# Convention : Reuss Voigt Hill
#
# Bulk Modulus (GPa) = 41.98656 48.44388 45.21522
# Shear Modulus (GPa) = 19.69745 29.40600 24.55172
#
# Velocity S-wave (km/s) = 2.96857 3.62710 3.31423
# Velocity P-wave (km/s) = 5.52577 6.26213 5.90544
#
# Compressibility (1/GPa) = 0.02381715
#
# Stress axis : x y z
#
# Youngs Moduli (GPa) = 42.03159 70.80498 44.65745
#
# Poissons Ratio (x) = 0.38234 0.62261
# Poissons Ratio (y) = 0.22696 -0.04897
# Poissons Ratio (z) = 0.58600 -0.07764
#
# Static dielectric constant tensor:
#      x y z
#    x 1.890090 0.000000 0.054730 
#    y 0.000000 1.885350 0.000000 
#    z 0.054730 0.000000 1.859560 
# 
# From -- ./inp_files/307538.got.cif
#   From: 2010.05.17/outbox.cif.g08.bks.cpg/sg15_154_cif.got.tgz:307538.got - 2010.06.03 18:47:42.
