data_PCOD9287928
_publ_section_title
;
Structure prediction by ZEFSAII (Michael W. Deem and Ramdas Pophale) SiO2 
 PCOD9287928
Probable space group: C 2/C
;
_chemical_formula_sum "Si O2"
_cell_formula_units_Z 60
_cell_length_a 26.584208
_cell_length_b 12.356877
_cell_length_c 10.290950
_cell_angle_alpha 90.000000
_cell_angle_beta 111.367501
_cell_angle_gamma 90.000000
_cell_volume 3148.183901
_symmetry_space_group_name_H-M "C 2/C"
_symmetry_group_IT_number 15
_symmetry_cell_setting 'monoclinic'
loop_
_space_group_symop_operation_xyz
x,y,z
-x,y,1/2-z
-x,-y,-z
x,-y,1/2+z
1/2+x,1/2+y,z
1/2-x,1/2+y,1/2-z
1/2-x,1/2-y,-z
1/2+x,1/2-y,1/2+z
loop_
_atom_site_type_symbol
_atom_site_label
_atom_site_fract_x
_atom_site_fract_y
_atom_site_fract_z
Si Si1 0.000000 0.119762 0.750000
Si Si2 0.059921 0.320301 0.143950
Si Si3 0.906766 0.861474 0.334950
Si Si4 0.935840 0.683367 0.542416
Si Si5 0.678522 0.658760 0.949203
Si Si6 0.081703 0.913276 0.539127
Si Si7 0.143026 0.508855 0.156629
Si Si8 0.201564 0.410370 0.974363
O O1 0.952171 0.183375 0.777523
O O2 0.967233 0.059588 0.606192
O O3 0.066800 0.321923 0.305546
O O4 0.069902 0.201179 0.095483
O O5 0.102490 0.406776 0.130416
O O6 0.996961 0.345879 0.058267
O O7 0.919870 0.803262 0.480923
O O8 0.848934 0.839869 0.218810
O O9 0.913113 0.989492 0.355619
O O10 0.893484 0.605618 0.432762
O O11 0.686121 0.785165 0.989559
O O12 0.635946 0.602452 0.005640
O O13 0.735110 0.596828 0.999590
O O14 0.168906 0.542958 0.319216
O O15 0.187256 0.478886 0.088996
#
# Coordination Sequence:
#
# PCOD9287928 Si02
#       8
#     4   8   8   8   8   8   8   8
#     4  10  22  38  60  88 118 184 208 254 314 380
#     4  11  24  40  62  96 133 169 209 263 326 395
#     4  11  23  39  63  93 131 166 217 261 323 383
#     4  11  24  40  62  96 133 169 209 263 326 395
#     4  10  24  44  65  93 120 178 213 270 312 396
#     4  11  23  39  63  93 131 166 217 261 323 383
#     4  12  23  46  66  96 126 175 214 274 324 388
#     4  11  24  44  71  88 131 166 229 263 330 373
#
# _framework density 19.058606999999999
#
# number of rings (size 3 to 8) (size 9 to 14) (size 15 to 20)
#    0.000    1.067    5.333    0.800    5.600    0.000 
#    0.000    0.000    0.000    4.800    0.000    0.000 
#    0.000    0.000    0.000    0.000    0.000    0.000 
#
# Total GULP energy -167452.523653 kJ/mol
# GULP energy per Si atom -5581.750788 kJ/mol
# Density = 1.901523 g / cm^3
# Si number density = 19.058607 Si / 1000 Ang^3
#
#
#
# Elastic Constant Matrix: (Units=GPa)
#
#
# Indices 1 2 3 4 5 6 
#
# 1 107.0384 30.3198 25.2942 0.0000 9.6854 0.0000
# 2 30.3198 71.4155 6.9014 0.0000 2.0113 0.0000
# 3 25.2942 6.9014 62.5719 0.0000 6.0555 0.0000
# 4 0.0000 0.0000 0.0000 19.1129 0.0000 -0.4328
# 5 9.6854 2.0113 6.0555 0.0000 29.7416 0.0000
# 6 0.0000 0.0000 0.0000 -0.4328 0.0000 23.6801
#
#
#
# Elastic Compliance Matrix: (Units=1/GPa)
#
#
# Indices 1 2 3 4 5 6 
#
# 1 0.011829 -0.004557 -0.004015 0.000000 -0.002726 0.000000
# 2 -0.004557 0.015922 0.000048 0.000000 0.000398 0.000000
# 3 -0.004015 0.000048 0.017824 0.000000 -0.002325 0.000000
# 4 0.000000 0.000000 0.000000 0.052342 0.000000 0.000957
# 5 -0.002726 0.000398 -0.002325 0.000000 0.034957 0.000000
# 6 0.000000 0.000000 0.000000 0.000957 0.000000 0.042247
#
#
# Mechanical properties :
#
#
# Convention : Reuss Voigt Hill
#
# Bulk Modulus (GPa) = 35.05659 40.67294 37.86477
# Shear Modulus (GPa) = 24.79182 26.40761 25.59972
#
# Velocity S-wave (km/s) = 3.61060 3.72640 3.66896
# Velocity P-wave (km/s) = 5.98464 6.31681 6.15297
#
# Compressibility (1/GPa) = 0.02852530
#
# Stress axis : x y z
#
# Youngs Moduli (GPa) = 84.53908 62.80800 56.10268
#
# Poissons Ratio (x) = 0.28623 0.22526
# Poissons Ratio (y) = 0.38526 -0.00267
# Poissons Ratio (z) = 0.33944 -0.00299
#
# Static dielectric constant tensor:
#      x y z
#    x 1.664320 0.000000 -0.002500 
#    y 0.000000 1.634050 0.000000 
#    z -0.002500 0.000000 1.653560 
# 
# From -- ./inp_files/122681.got.cif
#   From: 2010.05.17/outbox.cif.g08.bks.cpg/sg15_62_cif.got.tgz:122681.got - 2010.06.03 18:47:42.
