data_PCOD9287346
_publ_section_title
;
Structure prediction by ZEFSAII (Michael W. Deem and Ramdas Pophale) SiO2 
 PCOD9287346
Probable space group: C 2/C
;
_chemical_formula_sum "Si O2"
_cell_formula_units_Z 48
_cell_length_a 10.583559
_cell_length_b 17.319275
_cell_length_c 12.934869
_cell_angle_alpha 90.000000
_cell_angle_beta 83.332354
_cell_angle_gamma 90.000000
_cell_volume 2354.919649
_symmetry_space_group_name_H-M "C 2/C"
_symmetry_group_IT_number 15
_symmetry_cell_setting 'monoclinic'
loop_
_space_group_symop_operation_xyz
x,y,z
-x,y,1/2-z
-x,-y,-z
x,-y,1/2+z
1/2+x,1/2+y,z
1/2-x,1/2+y,1/2-z
1/2-x,1/2-y,-z
1/2+x,1/2-y,1/2+z
loop_
_atom_site_type_symbol
_atom_site_label
_atom_site_fract_x
_atom_site_fract_y
_atom_site_fract_z
Si Si1 0.691392 0.941771 0.656218
Si Si2 0.200652 0.774696 0.894821
Si Si3 0.082886 0.397100 0.883382
Si Si4 0.447680 0.337831 0.865395
Si Si5 0.709957 0.410128 0.460619
Si Si6 0.303625 0.256924 0.172995
O O1 0.767769 0.864243 0.626602
O O2 0.656031 0.939199 0.781195
O O3 0.558358 0.931244 0.606725
O O4 0.769393 0.015272 0.611424
O O5 0.271469 0.729382 0.796143
O O6 0.048617 0.775606 0.898674
O O7 0.250000 0.750000 0.000000
O O8 0.083778 0.305519 0.853481
O O9 0.161981 0.405219 0.981024
O O10 0.500000 0.365892 0.750000
O O11 0.318617 0.290813 0.856283
O O12 0.407544 0.405124 0.947698
O O13 0.688973 0.334673 0.392079
#
# Coordination Sequence:
#
# PCOD9287346 Si02
#       6
#     8   8   8   8   8   8
#     4  10  22  36  56  90 123 152 193 258 313 346
#     4  10  22  37  56  84 123 162 195 246 306 363
#     4   9  19  39  57  83 123 159 189 251 310 357
#     4   9  19  38  58  82 113 159 203 246 295 363
#     4  11  21  36  64  87 114 157 210 250 294 364
#     4   9  20  38  62  84 110 162 213 239 287 379
#
# _framework density 20.382859
#
# number of rings (size 3 to 8) (size 9 to 14) (size 15 to 20)
#    0.000    2.333    0.000    3.500    4.667    2.000 
#    9.000    0.000    0.000    0.000    0.000    0.000 
#    0.000    0.000    0.000    0.000    0.000    0.000 
#
# Total GULP energy -133943.054477 kJ/mol
# GULP energy per Si atom -5580.960603 kJ/mol
# Density = 2.033647 g / cm^3
# Si number density = 20.382859 Si / 1000 Ang^3
#
#
#
# Elastic Constant Matrix: (Units=GPa)
#
#
# Indices 1 2 3 4 5 6 
#
# 1 32.9464 16.1505 26.7368 0.0000 -9.7256 0.0000
# 2 16.1505 84.3100 54.3377 0.0000 -19.5772 0.0000
# 3 26.7368 54.3377 116.1016 0.0000 5.0280 0.0000
# 4 0.0000 0.0000 0.0000 24.7106 0.0000 2.2745
# 5 -9.7256 -19.5772 5.0280 0.0000 29.9263 0.0000
# 6 0.0000 0.0000 0.0000 2.2745 0.0000 19.2850
#
#
#
# Elastic Compliance Matrix: (Units=1/GPa)
#
#
# Indices 1 2 3 4 5 6 
#
# 1 0.044744 0.004608 -0.013318 0.000000 0.019793 0.000000
# 2 0.004608 0.023899 -0.013084 0.000000 0.019330 0.000000
# 3 -0.013318 -0.013084 0.018496 0.000000 -0.015995 0.000000
# 4 0.000000 0.000000 0.000000 0.040913 0.000000 -0.004825
# 5 0.019793 0.019330 -0.015995 0.000000 0.055181 0.000000
# 6 0.000000 0.000000 0.000000 -0.004825 0.000000 0.052423
#
#
# Mechanical properties :
#
#
# Convention : Reuss Voigt Hill
#
# Bulk Modulus (GPa) = 22.96062 47.53423 35.24742
# Shear Modulus (GPa) = 17.02069 23.85989 20.44029
#
# Velocity S-wave (km/s) = 2.89286 3.42509 3.17017
# Velocity P-wave (km/s) = 4.73786 6.24604 5.54348
#
# Compressibility (1/GPa) = 0.04355282
#
# Stress axis : x y z
#
# Youngs Moduli (GPa) = 22.34932 41.84250 54.06521
#
# Poissons Ratio (x) = -0.19282 0.72004
# Poissons Ratio (y) = -0.10299 0.70737
# Poissons Ratio (z) = 0.29765 0.54745
#
# Static dielectric constant tensor:
#      x y z
#    x 1.807050 0.000000 0.006950 
#    y 0.000000 1.691450 0.000000 
#    z 0.006950 0.000000 1.770350 
# 
# From -- ./inp_files/87238.got.cif
#   From: 2010.05.17/outbox.cif.g08.bks.cpg/sg15_44_cif.got.tgz:87238.got - 2010.06.03 18:47:42.
