data_PCOD9287833
_publ_section_title
;
Structure prediction by ZEFSAII (Michael W. Deem and Ramdas Pophale) SiO2 
 PCOD9287833
Probable space group: C 2/C
;
_chemical_formula_sum "Si O2"
_cell_formula_units_Z 56
_cell_length_a 12.498230
_cell_length_b 27.720126
_cell_length_c 8.938380
_cell_angle_alpha 90.000000
_cell_angle_beta 122.107808
_cell_angle_gamma 90.000000
_cell_volume 2623.078667
_symmetry_space_group_name_H-M "C 2/C"
_symmetry_group_IT_number 15
_symmetry_cell_setting 'monoclinic'
loop_
_space_group_symop_operation_xyz
x,y,z
-x,y,1/2-z
-x,-y,-z
x,-y,1/2+z
1/2+x,1/2+y,z
1/2-x,1/2+y,1/2-z
1/2-x,1/2-y,-z
1/2+x,1/2-y,1/2+z
loop_
_atom_site_type_symbol
_atom_site_label
_atom_site_fract_x
_atom_site_fract_y
_atom_site_fract_z
Si Si1 0.131836 0.763276 0.804948
Si Si2 0.646221 0.109263 0.793962
Si Si3 0.613667 0.440769 0.538704
Si Si4 0.741333 0.800028 0.160575
Si Si5 0.729415 0.359864 0.819855
Si Si6 0.628916 0.789181 0.767244
Si Si7 0.170300 0.958772 0.234152
O O1 0.153490 0.743199 0.655766
O O2 0.128499 0.820463 0.796078
O O3 0.000000 0.740953 0.750000
O O4 0.250000 0.750000 0.000000
O O5 0.500000 0.109607 0.750000
O O6 0.695752 0.155080 0.728065
O O7 0.702118 0.064284 0.739880
O O8 0.726280 0.110543 0.005272
O O9 0.678673 0.393877 0.653636
O O10 0.660656 0.451936 0.405497
O O11 0.461105 0.434923 0.423909
O O12 0.652538 0.485923 0.671409
O O13 0.868982 0.767945 0.275540
O O14 0.725203 0.804642 0.972458
O O15 0.842366 0.324999 0.846851
O O16 0.500000 0.800922 0.750000
#
# Coordination Sequence:
#
# PCOD9287833 Si02
#       7
#     8   8   8   8   8   8   8
#     4  11  24  39  61  93 127 174 223 282 330 401
#     4  12  24  40  65  96 133 178 217 273 335 409
#     4  10  22  45  70 101 129 169 219 279 342 403
#     4  10  22  38  58  85 123 170 222 267 329 390
#     4  11  24  38  63  96 128 173 225 273 332 406
#     4  10  22  39  58  85 125 172 217 276 330 392
#     4  10  23  44  72  97 135 168 216 281 341 409
#
# _framework density 21.348959000000001
#
# number of rings (size 3 to 8) (size 9 to 14) (size 15 to 20)
#    0.000    1.429    1.429    3.000    6.000    1.143 
#    7.714    3.571    0.000    0.000    0.000    0.000 
#    0.000    0.000    0.000    0.000    0.000    0.000 
#
# Total GULP energy -155903.812720 kJ/mol
# GULP energy per Si atom -5567.993311 kJ/mol
# Density = 2.130037 g / cm^3
# Si number density = 21.348959 Si / 1000 Ang^3
#
#
#
# Elastic Constant Matrix: (Units=GPa)
#
#
# Indices 1 2 3 4 5 6 
#
# 1 124.0250 29.7574 25.1838 0.0000 -14.6392 0.0000
# 2 29.7574 82.5644 44.3519 0.0000 8.1807 0.0000
# 3 25.1838 44.3519 86.3504 0.0000 -18.9066 0.0000
# 4 0.0000 0.0000 0.0000 35.1971 0.0000 -16.7317
# 5 -14.6392 8.1807 -18.9066 0.0000 20.4444 0.0000
# 6 0.0000 0.0000 0.0000 -16.7317 0.0000 24.2736
#
#
#
# Elastic Compliance Matrix: (Units=1/GPa)
#
#
# Indices 1 2 3 4 5 6 
#
# 1 0.010680 -0.007138 0.003575 0.000000 0.013809 0.000000
# 2 -0.007138 0.029677 -0.021166 0.000000 -0.036560 0.000000
# 3 0.003575 -0.021166 0.029873 0.000000 0.038656 0.000000
# 4 0.000000 0.000000 0.000000 0.042258 0.000000 0.029128
# 5 0.013809 -0.036560 0.038656 0.000000 0.109179 0.000000
# 6 0.000000 0.000000 0.000000 0.029128 0.000000 0.061275
#
#
# Mechanical properties :
#
#
# Convention : Reuss Voigt Hill
#
# Bulk Modulus (GPa) = 48.14122 54.61399 51.37761
# Shear Modulus (GPa) = 14.73525 28.89281 21.81403
#
# Velocity S-wave (km/s) = 2.63003 3.68279 3.20000
# Velocity P-wave (km/s) = 5.64105 6.61219 6.14583
#
# Compressibility (1/GPa) = 0.02077222
#
# Stress axis : x y z
#
# Youngs Moduli (GPa) = 93.63713 33.69652 33.47489
#
# Poissons Ratio (x) = 0.24052 -0.11968
# Poissons Ratio (y) = 0.66837 0.70853
# Poissons Ratio (z) = -0.33477 0.71322
#
# Static dielectric constant tensor:
#      x y z
#    x 1.992900 0.000000 0.077360 
#    y 0.000000 1.848010 0.000000 
#    z 0.077360 0.000000 1.835330 
# 
# From -- ./inp_files/34309.got.cif
#   From: 2010.05.17/outbox.cif.g08.bks.cpg/sg15_18_cif.got.tgz:34309.got - 2010.06.03 18:47:42.
