data_PCOD9287096
_publ_section_title
;
Structure prediction by ZEFSAII (Michael W. Deem and Ramdas Pophale) SiO2 
 PCOD9287096
Probable space group: C 2/C
;
_chemical_formula_sum "Si O2"
_cell_formula_units_Z 40
_cell_length_a 10.960489
_cell_length_b 28.085628
_cell_length_c 5.460959
_cell_angle_alpha 90.000000
_cell_angle_beta 79.912626
_cell_angle_gamma 90.000000
_cell_volume 1655.072968
_symmetry_space_group_name_H-M "C 2/C"
_symmetry_group_IT_number 15
_symmetry_cell_setting 'monoclinic'
loop_
_space_group_symop_operation_xyz
x,y,z
-x,y,1/2-z
-x,-y,-z
x,-y,1/2+z
1/2+x,1/2+y,z
1/2-x,1/2+y,1/2-z
1/2-x,1/2-y,-z
1/2+x,1/2-y,1/2+z
loop_
_atom_site_type_symbol
_atom_site_label
_atom_site_fract_x
_atom_site_fract_y
_atom_site_fract_z
Si Si1 0.866183 0.123940 0.177476
Si Si2 0.197121 0.390044 0.335149
Si Si3 0.293004 0.802800 0.535875
Si Si4 0.000000 0.467847 0.250000
Si Si5 0.500000 0.157386 0.250000
Si Si6 0.349289 0.475658 0.828690
O O1 0.798392 0.173887 0.231408
O O2 0.815507 0.079739 0.355824
O O3 0.000000 0.130640 0.250000
O O4 0.832780 0.103916 0.917819
O O5 0.211848 0.341470 0.177964
O O6 0.117552 0.431978 0.236983
O O7 0.102183 0.376077 0.589812
O O8 0.250000 0.750000 0.500000
O O9 0.431784 0.808376 0.583923
O O10 0.000000 0.500000 0.500000
O O11 0.500000 0.477511 0.750000
O O12 0.306399 0.497295 0.585868
#
# Coordination Sequence:
#
# PCOD9287096 Si02
#       6
#     8   8   8   4   4   8
#     4  10  25  42  66 104 150 190 244 305 374 456
#     4  11  24  46  72 104 150 191 249 324 376 459
#     4  11  25  43  73 103 141 195 248 312 386 446
#     4  12  27  46  82 116 150 200 264 327 394 456
#     4  10  21  46  74  98 150 190 248 317 392 444
#     4   9  19  37  61  90 131 185 227 274 351 429
#
# _framework density 24.168119000000001
#
# number of rings (size 3 to 8) (size 9 to 14) (size 15 to 20)
#    0.000    1.600    2.000    0.600    5.600    8.800 
#    0.000    0.000    0.000    0.000    0.000    0.000 
#    0.000    0.000    0.000    0.000    0.000    0.000 
#
# Total GULP energy -111634.691351 kJ/mol
# GULP energy per Si atom -5581.734568 kJ/mol
# Density = 2.411311 g / cm^3
# Si number density = 24.168119 Si / 1000 Ang^3
#
#
#
# Elastic Constant Matrix: (Units=GPa)
#
#
# Indices 1 2 3 4 5 6 
#
# 1 130.2529 42.0315 40.6819 0.0000 42.9234 0.0000
# 2 42.0315 174.2969 46.8793 0.0000 18.4046 0.0000
# 3 40.6819 46.8793 104.6427 0.0000 33.2880 0.0000
# 4 0.0000 0.0000 0.0000 32.0752 0.0000 -3.4850
# 5 42.9234 18.4046 33.2880 0.0000 50.4527 0.0000
# 6 0.0000 0.0000 0.0000 -3.4850 0.0000 39.6860
#
#
#
# Elastic Compliance Matrix: (Units=1/GPa)
#
#
# Indices 1 2 3 4 5 6 
#
# 1 0.011242 -0.001556 -0.001027 0.000000 -0.008319 0.000000
# 2 -0.001556 0.006752 -0.002604 0.000000 0.000579 0.000000
# 3 -0.001027 -0.002604 0.013342 0.000000 -0.006980 0.000000
# 4 0.000000 0.000000 0.000000 0.031477 0.000000 0.002764
# 5 -0.008319 0.000579 -0.006980 0.000000 0.031292 0.000000
# 6 0.000000 0.000000 0.000000 0.002764 0.000000 0.025441
#
#
# Mechanical properties :
#
#
# Convention : Reuss Voigt Hill
#
# Bulk Modulus (GPa) = 47.70638 74.26420 60.98529
# Shear Modulus (GPa) = 36.52121 43.08275 39.80198
#
# Velocity S-wave (km/s) = 3.89154 4.22670 4.06258
# Velocity P-wave (km/s) = 6.32253 7.39019 6.87711
#
# Compressibility (1/GPa) = 0.02096156
#
# Stress axis : x y z
#
# Youngs Moduli (GPa) = 88.95473 148.10733 74.94903
#
# Poissons Ratio (x) = 0.23050 0.07697
# Poissons Ratio (y) = 0.13844 0.19516
# Poissons Ratio (z) = 0.09135 0.38567
#
# Static dielectric constant tensor:
#      x y z
#    x 2.021660 0.000000 -0.029420 
#    y 0.000000 1.864610 0.000000 
#    z -0.029420 0.000000 2.083530 
# 
# From -- ./inp_files/5033.got.cif
#   From: 2010.05.17/outbox.cif.g08.bks.cpg/sg15_3_cif.got.tgz:5033.got - 2010.06.03 18:47:42.
