data_PCOD9287527
_publ_section_title
;
Structure prediction by ZEFSAII (Michael W. Deem and Ramdas Pophale) SiO2 
 PCOD9287527
Probable space group: C 2/C
;
_chemical_formula_sum "Si O2"
_cell_formula_units_Z 60
_cell_length_a 27.292343
_cell_length_b 17.652832
_cell_length_c 12.622223
_cell_angle_alpha 90.000000
_cell_angle_beta 28.022276
_cell_angle_gamma 90.000000
_cell_volume 2857.049459
_symmetry_space_group_name_H-M "C 2/C"
_symmetry_group_IT_number 15
_symmetry_cell_setting 'monoclinic'
loop_
_space_group_symop_operation_xyz
x,y,z
-x,y,1/2-z
-x,-y,-z
x,-y,1/2+z
1/2+x,1/2+y,z
1/2-x,1/2+y,1/2-z
1/2-x,1/2-y,-z
1/2+x,1/2-y,1/2+z
loop_
_atom_site_type_symbol
_atom_site_label
_atom_site_fract_x
_atom_site_fract_y
_atom_site_fract_z
Si Si1 0.612644 0.200507 0.074974
Si Si2 0.411213 0.900261 0.681097
Si Si3 0.760317 0.031581 0.259001
Si Si4 0.297781 0.352207 0.513734
Si Si5 0.500000 0.637871 0.250000
Si Si6 0.270301 0.628460 0.613804
Si Si7 0.138039 0.426369 0.178479
Si Si8 0.589314 0.549990 0.879259
O O1 0.500000 0.225389 0.250000
O O2 0.596468 0.129478 0.184068
O O3 0.664805 0.267873 0.040289
O O4 0.686790 0.177978 0.837153
O O5 0.324174 0.856944 0.780316
O O6 0.526575 0.888390 0.416188
O O7 0.378848 0.988512 0.742880
O O8 0.813061 0.096895 0.089295
O O9 0.658659 0.064103 0.513175
O O10 0.759277 0.956212 0.187876
O O11 0.824601 0.005819 0.238665
O O12 0.359234 0.392484 0.301084
O O13 0.385803 0.663751 0.417477
O O14 0.457436 0.592297 0.431172
O O15 0.228170 0.616460 0.574334
O O16 0.500000 0.500000 0.000000
#
# Coordination Sequence:
#
# PCOD9287527 Si02
#       8
#     8   8   8   8   4   8   8   8
#     4  12  26  46  70 100 142 190 226 282 357 428
#     4  11  22  41  67 102 133 182 223 293 341 412
#     4  11  21  39  65 103 134 175 226 289 334 403
#     4  12  26  43  66 102 140 181 237 277 350 422
#     4  10  22  36  68  98 126 182 220 278 348 392
#     4  11  21  44  67 100 139 177 232 282 346 418
#     4  11  21  38  70 103 136 169 238 288 345 395
#     4  11  21  39  63  95 135 177 228 286 328 405
#
# _framework density 21.000686000000002
#
# number of rings (size 3 to 8) (size 9 to 14) (size 15 to 20)
#    0.000    0.800    5.333    3.600    1.867    0.533 
#    0.000    3.333    0.000    0.000    0.000    0.000 
#    0.000    0.000    0.000    0.000    0.000    0.000 
#
# Total GULP energy -167410.256896 kJ/mol
# GULP energy per Si atom -5580.341897 kJ/mol
# Density = 2.095289 g / cm^3
# Si number density = 21.000686 Si / 1000 Ang^3
#
#
#
# Elastic Constant Matrix: (Units=GPa)
#
#
# Indices 1 2 3 4 5 6 
#
# 1 44.1462 21.3607 19.8239 0.0000 -10.6258 0.0000
# 2 21.3607 34.6869 16.7969 0.0000 -1.0812 0.0000
# 3 19.8239 16.7969 117.2857 0.0000 -1.7902 0.0000
# 4 0.0000 0.0000 0.0000 4.3302 0.0000 1.4872
# 5 -10.6258 -1.0812 -1.7902 0.0000 43.3819 0.0000
# 6 0.0000 0.0000 0.0000 1.4872 0.0000 29.5943
#
#
#
# Elastic Compliance Matrix: (Units=1/GPa)
#
#
# Indices 1 2 3 4 5 6 
#
# 1 0.035804 -0.020335 -0.003015 0.000000 0.008139 0.000000
# 2 -0.020335 0.042542 -0.002717 0.000000 -0.004033 0.000000
# 3 -0.003015 -0.002717 0.009419 0.000000 -0.000418 0.000000
# 4 0.000000 0.000000 0.000000 0.234991 0.000000 -0.011809
# 5 0.008139 -0.004033 -0.000418 0.000000 0.024927 0.000000
# 6 0.000000 0.000000 0.000000 -0.011809 0.000000 0.034384
#
#
# Mechanical properties :
#
#
# Convention : Reuss Voigt Hill
#
# Bulk Modulus (GPa) = 28.06613 34.67578 31.37095
# Shear Modulus (GPa) = 11.20883 24.67044 17.93964
#
# Velocity S-wave (km/s) = 2.31278 3.43117 2.92591
# Velocity P-wave (km/s) = 4.53049 5.67845 5.13664
#
# Compressibility (1/GPa) = 0.03563014
#
# Stress axis : x y z
#
# Youngs Moduli (GPa) = 27.92970 23.50627 106.17311
#
# Poissons Ratio (x) = 0.47800 0.32014
# Poissons Ratio (y) = 0.56795 0.28848
# Poissons Ratio (z) = 0.08422 0.06387
#
# Static dielectric constant tensor:
#      x y z
#    x 1.452910 0.000000 1.050470 
#    y 0.000000 1.728480 0.000000 
#    z 1.050470 0.000000 -1.671640 
# 
# From -- ./inp_files/123987.got.cif
#   From: 2010.05.17/outbox.cif.g08.bks.cpg/sg15_62_cif.got.tgz:123987.got - 2010.06.03 18:47:42.
