data_PCOD9287612
_publ_section_title
;
Structure prediction by ZEFSAII (Michael W. Deem and Ramdas Pophale) SiO2 
 PCOD9287612
Probable space group: C 2/C
;
_chemical_formula_sum "Si O2"
_cell_formula_units_Z 48
_cell_length_a 12.941748
_cell_length_b 25.041906
_cell_length_c 16.883528
_cell_angle_alpha 90.000000
_cell_angle_beta 153.065123
_cell_angle_gamma 90.000000
_cell_volume 2478.563974
_symmetry_space_group_name_H-M "C 2/C"
_symmetry_group_IT_number 15
_symmetry_cell_setting 'monoclinic'
loop_
_space_group_symop_operation_xyz
x,y,z
-x,y,1/2-z
-x,-y,-z
x,-y,1/2+z
1/2+x,1/2+y,z
1/2-x,1/2+y,1/2-z
1/2-x,1/2-y,-z
1/2+x,1/2-y,1/2+z
loop_
_atom_site_type_symbol
_atom_site_label
_atom_site_fract_x
_atom_site_fract_y
_atom_site_fract_z
Si Si1 0.169838 0.262269 0.169940
Si Si2 0.725724 0.318441 0.853018
Si Si3 0.146465 0.204372 0.986473
Si Si4 0.648123 0.075728 0.147044
Si Si5 0.741584 0.088365 0.394670
Si Si6 0.354137 0.463617 0.230285
O O1 0.214719 0.219687 0.268980
O O2 0.150563 0.227484 0.077608
O O3 0.377285 0.301274 0.288654
O O4 0.954121 0.296473 0.049756
O O5 0.500000 0.312836 0.750000
O O6 0.763882 0.378506 0.851200
O O7 0.261474 0.146804 0.065435
O O8 0.250000 0.250000 0.000000
O O9 0.729852 0.091259 0.291475
O O10 0.758520 0.019239 0.198969
O O11 0.373134 0.070202 0.948572
O O12 0.500000 0.060274 0.250000
O O13 0.968967 0.061034 0.584758
O O14 0.500000 0.471294 0.250000
#
# Coordination Sequence:
#
# PCOD9287612 Si02
#       6
#     8   8   8   8   8   8
#     4  10  22  37  59  89 126 164 211 261 319 382
#     4  11  22  41  63  86 121 168 217 268 324 385
#     4  11  22  37  60  96 133 169 208 258 323 402
#     4  11  24  44  66  94 128 170 218 273 327 392
#     4  12  23  40  66  94 133 172 210 266 337 391
#     4  11  24  43  68  95 127 168 218 273 332 389
#
# _framework density 19.366052
#
# number of rings (size 3 to 8) (size 9 to 14) (size 15 to 20)
#    0.000    1.000    3.333    4.000    2.333    1.333 
#    0.000    0.000    0.000    0.000    0.000    0.000 
#    0.000    0.000    0.000    0.000    0.000    0.000 
#
# Total GULP energy -133882.063192 kJ/mol
# GULP energy per Si atom -5578.419300 kJ/mol
# Density = 1.932197 g / cm^3
# Si number density = 19.366052 Si / 1000 Ang^3
#
#
#
# Elastic Constant Matrix: (Units=GPa)
#
#
# Indices 1 2 3 4 5 6 
#
# 1 69.2573 17.8320 15.9495 0.0006 21.5883 -0.0001
# 2 17.8320 89.1921 47.2237 -0.0001 6.8931 -0.0005
# 3 15.9495 47.2237 116.2722 0.0013 25.4382 0.0001
# 4 0.0006 -0.0001 0.0013 26.0771 -0.0001 3.1828
# 5 21.5883 6.8931 25.4382 -0.0001 40.0042 -0.0003
# 6 -0.0001 -0.0005 0.0001 3.1828 -0.0003 26.8464
#
#
#
# Elastic Compliance Matrix: (Units=1/GPa)
#
#
# Indices 1 2 3 4 5 6 
#
# 1 0.018158 -0.003430 0.001065 -0.000001 -0.009885 0.000000
# 2 -0.003430 0.015002 -0.006344 0.000000 0.003301 0.000000
# 3 0.001065 -0.006344 0.012682 -0.000001 -0.007546 0.000000
# 4 -0.000001 0.000000 -0.000001 0.038911 0.000001 -0.004613
# 5 -0.009885 0.003301 -0.007546 0.000001 0.034562 0.000000
# 6 0.000000 0.000000 0.000000 -0.004613 0.000000 0.037796
#
#
# Mechanical properties :
#
#
# Convention : Reuss Voigt Hill
#
# Bulk Modulus (GPa) = 35.18321 48.52577 41.85449
# Shear Modulus (GPa) = 27.17338 31.49998 29.33668
#
# Velocity S-wave (km/s) = 3.74992 4.03743 3.89633
# Velocity P-wave (km/s) = 6.07916 6.84442 6.47310
#
# Compressibility (1/GPa) = 0.02842265
#
# Stress axis : x y z
#
# Youngs Moduli (GPa) = 55.07163 66.65957 78.85131
#
# Poissons Ratio (x) = 0.22866 -0.08398
# Poissons Ratio (y) = 0.18891 0.50027
# Poissons Ratio (z) = -0.05866 0.42292
#
# Static dielectric constant tensor:
#      x y z
#    x 1.643250 0.000000 0.016150 
#    y 0.000000 1.655600 0.000000 
#    z 0.016150 0.000000 1.817850 
# 
# From -- ./inp_files/148691.got.cif
#   From: 2010.05.17/outbox.cif.g08.bks.cpg/sg15_75_cif.got.tgz:148691.got - 2010.06.03 18:47:42.
