data_PCOD9287711
_publ_section_title
;
Structure prediction by ZEFSAII (Michael W. Deem and Ramdas Pophale) SiO2 
 PCOD9287711
Probable space group: C 2/C
;
_chemical_formula_sum "Si O2"
_cell_formula_units_Z 44
_cell_length_a 26.749220
_cell_length_b 10.124194
_cell_length_c 9.229544
_cell_angle_alpha 90.000000
_cell_angle_beta 128.057514
_cell_angle_gamma 90.000000
_cell_volume 1968.081219
_symmetry_space_group_name_H-M "C 2/C"
_symmetry_group_IT_number 15
_symmetry_cell_setting 'monoclinic'
loop_
_space_group_symop_operation_xyz
x,y,z
-x,y,1/2-z
-x,-y,-z
x,-y,1/2+z
1/2+x,1/2+y,z
1/2-x,1/2+y,1/2-z
1/2-x,1/2-y,-z
1/2+x,1/2-y,1/2+z
loop_
_atom_site_type_symbol
_atom_site_label
_atom_site_fract_x
_atom_site_fract_y
_atom_site_fract_z
Si Si1 0.078844 0.442097 0.145397
Si Si2 0.369734 0.718488 0.078722
Si Si3 0.000000 0.323857 0.250000
Si Si4 0.379495 0.844864 0.576440
Si Si5 0.231301 0.887619 0.296906
Si Si6 0.162917 0.931770 0.466137
O O1 0.129492 0.333214 0.300944
O O2 0.079728 0.412753 0.977602
O O3 0.103227 0.582652 0.243803
O O4 0.017695 0.402631 0.134199
O O5 0.309037 0.720481 0.865689
O O6 0.369586 0.569499 0.139706
O O7 0.435979 0.740326 0.112897
O O8 0.384933 0.687345 0.589428
O O9 0.305714 0.873921 0.412179
O O10 0.204074 0.022727 0.177607
O O11 0.209662 0.884672 0.423481
#
# Coordination Sequence:
#
# PCOD9287711 Si02
#       6
#     8   8   4   8   8   8
#     4  10  24  41  63  90 127 172 203 263 311 371
#     4   8  21  40  65  80 126 163 207 260 306 361
#     4   8  20  46  62  86 126 172 212 256 312 368
#     4  12  24  37  64  98 127 164 215 251 328 374
#     4  10  22  37  64  91 135 157 205 264 316 374
#     4  10  22  38  62  94 123 165 212 250 319 373
#
# _framework density 22.356802999999999
#
# number of rings (size 3 to 8) (size 9 to 14) (size 15 to 20)
#    2.182    0.000    0.000    2.727    5.091    1.455 
#    0.000    4.545    0.000    0.000    0.000    0.000 
#    0.000    0.000    0.000    0.000    0.000    0.000 
#
# Total GULP energy -122707.564017 kJ/mol
# GULP energy per Si atom -5577.616546 kJ/mol
# Density = 2.230592 g / cm^3
# Si number density = 22.356803 Si / 1000 Ang^3
#
#
#
# Elastic Constant Matrix: (Units=GPa)
#
#
# Indices 1 2 3 4 5 6 
#
# 1 84.7065 3.7263 16.0656 0.0000 -8.9147 0.0000
# 2 3.7263 91.1751 21.6247 0.0000 3.4106 0.0000
# 3 16.0656 21.6247 64.4854 0.0000 -7.9234 0.0000
# 4 0.0000 0.0000 0.0000 22.2652 0.0000 -1.5044
# 5 -8.9147 3.4106 -7.9234 0.0000 40.6021 0.0000
# 6 0.0000 0.0000 0.0000 -1.5044 0.0000 35.7496
#
#
#
# Elastic Compliance Matrix: (Units=1/GPa)
#
#
# Indices 1 2 3 4 5 6 
#
# 1 0.012581 0.000091 -0.002896 0.000000 0.002190 0.000000
# 2 0.000091 0.012050 -0.004288 0.000000 -0.001829 0.000000
# 3 -0.002896 -0.004288 0.018066 0.000000 0.003250 0.000000
# 4 0.000000 0.000000 0.000000 0.045041 0.000000 0.001895
# 5 0.002190 -0.001829 0.003250 0.000000 0.025898 0.000000
# 6 0.000000 0.000000 0.000000 0.001895 0.000000 0.028052
#
#
# Mechanical properties :
#
#
# Convention : Reuss Voigt Hill
#
# Bulk Modulus (GPa) = 35.07469 35.91114 35.49291
# Shear Modulus (GPa) = 30.23377 32.98674 31.61026
#
# Velocity S-wave (km/s) = 3.68139 3.84535 3.76426
# Velocity P-wave (km/s) = 5.81316 5.98441 5.89941
#
# Compressibility (1/GPa) = 0.02851058
#
# Stress axis : x y z
#
# Youngs Moduli (GPa) = 79.48407 82.98982 55.35216
#
# Poissons Ratio (x) = -0.00753 0.16029
# Poissons Ratio (y) = -0.00721 0.23736
# Poissons Ratio (z) = 0.23017 0.35587
#
# Static dielectric constant tensor:
#      x y z
#    x 1.810870 0.000000 0.026710 
#    y 0.000000 1.894990 0.000000 
#    z 0.026710 0.000000 1.863940 
# 
# From -- ./inp_files/60712.got.cif
#   From: 2010.05.17/outbox.cif.g08.bks.cpg/sg15_31_cif.got.tgz:60712.got - 2010.06.03 18:47:42.
