data_PCOD9287713
_publ_section_title
;
Structure prediction by ZEFSAII (Michael W. Deem and Ramdas Pophale) SiO2 
 PCOD9287713
Probable space group: C 2/C
;
_chemical_formula_sum "Si O2"
_cell_formula_units_Z 48
_cell_length_a 16.263164
_cell_length_b 11.040414
_cell_length_c 12.881480
_cell_angle_alpha 90.000000
_cell_angle_beta 118.912940
_cell_angle_gamma 90.000000
_cell_volume 2024.606181
_symmetry_space_group_name_H-M "C 2/C"
_symmetry_group_IT_number 15
_symmetry_cell_setting 'monoclinic'
loop_
_space_group_symop_operation_xyz
x,y,z
-x,y,1/2-z
-x,-y,-z
x,-y,1/2+z
1/2+x,1/2+y,z
1/2-x,1/2+y,1/2-z
1/2-x,1/2-y,-z
1/2+x,1/2-y,1/2+z
loop_
_atom_site_type_symbol
_atom_site_label
_atom_site_fract_x
_atom_site_fract_y
_atom_site_fract_z
Si Si1 0.061324 0.895461 0.085007
Si Si2 0.841368 0.890573 0.753647
Si Si3 0.270219 0.764006 0.391410
Si Si4 0.861930 0.470903 0.941673
Si Si5 0.862373 0.748337 0.567263
Si Si6 0.561758 0.829353 0.692925
O O1 0.010110 0.788133 0.113943
O O2 0.122170 0.974187 0.203335
O O3 0.109304 0.829164 0.015674
O O4 0.000000 0.000000 0.000000
O O5 0.834452 0.823691 0.859848
O O6 0.736136 0.907797 0.650284
O O7 0.891403 0.811087 0.694267
O O8 0.250000 0.750000 0.500000
O O9 0.165045 0.727506 0.282274
O O10 0.328176 0.891014 0.423591
O O11 0.929053 0.433169 0.887759
O O12 0.891630 0.390933 0.060609
O O13 0.750000 0.750000 0.500000
O O14 0.500000 0.872377 0.750000
#
# Coordination Sequence:
#
# PCOD9287713 Si02
#       6
#     8   8   8   8   8   8
#     4  11  24  37  66  97 131 164 215 284 327 384
#     4  10  22  37  64  92 129 164 222 264 330 386
#     4  11  24  39  68 101 124 173 227 270 319 412
#     4   9  20  42  63  92 130 171 218 267 322 403
#     4   9  21  38  61  87 125 177 205 260 337 382
#     4  10  23  42  66  96 133 174 213 275 342 380
#
# _framework density 23.708314999999999
#
# number of rings (size 3 to 8) (size 9 to 14) (size 15 to 20)
#    0.000    2.000    1.667    1.000    9.333    1.333 
#    0.000    0.833    3.667    0.000    0.000    0.000 
#    0.000    0.000    0.000    0.000    0.000    0.000 
#
# Total GULP energy -133706.043090 kJ/mol
# GULP energy per Si atom -5571.085129 kJ/mol
# Density = 2.365435 g / cm^3
# Si number density = 23.708315 Si / 1000 Ang^3
#
#
#
# Elastic Constant Matrix: (Units=GPa)
#
#
# Indices 1 2 3 4 5 6 
#
# 1 69.3111 51.9310 14.1441 0.0000 -25.8102 0.0000
# 2 51.9310 158.8711 39.0715 0.0000 -26.3080 0.0000
# 3 14.1441 39.0715 82.8121 0.0000 -20.3222 0.0000
# 4 0.0000 0.0000 0.0000 28.6699 0.0000 1.9817
# 5 -25.8102 -26.3080 -20.3222 0.0000 39.1412 0.0000
# 6 0.0000 0.0000 0.0000 1.9817 0.0000 25.9391
#
#
#
# Elastic Compliance Matrix: (Units=1/GPa)
#
#
# Indices 1 2 3 4 5 6 
#
# 1 0.023054 -0.005983 0.001867 0.000000 0.012150 0.000000
# 2 -0.005983 0.009114 -0.003144 0.000000 0.000548 0.000000
# 3 0.001867 -0.003144 0.014925 0.000000 0.006867 0.000000
# 4 0.000000 0.000000 0.000000 0.035065 0.000000 -0.002679
# 5 0.012150 0.000548 0.006867 0.000000 0.037494 0.000000
# 6 0.000000 0.000000 0.000000 -0.002679 0.000000 0.038757
#
#
# Mechanical properties :
#
#
# Convention : Reuss Voigt Hill
#
# Bulk Modulus (GPa) = 30.69968 57.92082 44.31025
# Shear Modulus (GPa) = 27.20555 32.47321 29.83938
#
# Velocity S-wave (km/s) = 3.39117 3.70496 3.55153
# Velocity P-wave (km/s) = 5.32075 6.54109 5.96223
#
# Compressibility (1/GPa) = 0.03257363
#
# Stress axis : x y z
#
# Youngs Moduli (GPa) = 43.37679 109.72133 67.00125
#
# Poissons Ratio (x) = 0.65645 -0.12508
# Poissons Ratio (y) = 0.25952 0.21063
# Poissons Ratio (z) = -0.08098 0.34492
#
# Static dielectric constant tensor:
#      x y z
#    x 1.944320 0.000000 0.092610 
#    y 0.000000 1.961700 0.000000 
#    z 0.092610 0.000000 1.948310 
# 
# From -- ./inp_files/104282.got.cif
#   From: 2010.05.17/outbox.cif.g08.bks.cpg/sg15_53_cif.got.tgz:104282.got - 2010.06.03 18:47:42.
