data_PCOD9287666
_publ_section_title
;
Structure prediction by ZEFSAII (Michael W. Deem and Ramdas Pophale) SiO2 
 PCOD9287666
Probable space group: C 2/C
;
_chemical_formula_sum "Si O2"
_cell_formula_units_Z 36
_cell_length_a 7.430839
_cell_length_b 7.041660
_cell_length_c 25.425908
_cell_angle_alpha 90.000000
_cell_angle_beta 87.013937
_cell_angle_gamma 90.000000
_cell_volume 1328.615469
_symmetry_space_group_name_H-M "C 2/C"
_symmetry_group_IT_number 15
_symmetry_cell_setting 'monoclinic'
loop_
_space_group_symop_operation_xyz
x,y,z
-x,y,1/2-z
-x,-y,-z
x,-y,1/2+z
1/2+x,1/2+y,z
1/2-x,1/2+y,1/2-z
1/2-x,1/2-y,-z
1/2+x,1/2-y,1/2+z
loop_
_atom_site_type_symbol
_atom_site_label
_atom_site_fract_x
_atom_site_fract_y
_atom_site_fract_z
Si Si1 0.518387 0.886280 0.890613
Si Si2 0.872809 0.346464 0.205640
Si Si3 0.127350 0.033830 0.418480
Si Si4 0.500000 0.519297 0.750000
Si Si5 0.762170 0.051385 0.471001
O O1 0.589119 0.020314 0.843849
O O2 0.613786 0.681824 0.895604
O O3 0.578082 0.992839 0.943601
O O4 0.301963 0.869293 0.889919
O O5 0.667688 0.362237 0.227258
O O6 0.000000 0.426227 0.250000
O O7 0.936006 0.126352 0.204734
O O8 0.173566 0.070449 0.480245
O O9 0.915246 0.075745 0.423939
O O10 0.750000 0.250000 0.500000
#
# Coordination Sequence:
#
# PCOD9287666 Si02
#       5
#     8   8   8   4   8
#     4  11  22  40  62  91 122 162 211 257 325 376
#     4  10  25  42  67  96 130 171 219 277 329 398
#     4  10  22  37  62  91 125 164 208 260 310 384
#     4  10  24  44  70  92 132 168 220 272 336 388
#     4   9  21  38  59  89 128 165 209 255 314 375
#
# _framework density 27.095877000000002
#
# number of rings (size 3 to 8) (size 9 to 14) (size 15 to 20)
#    0.667    1.333    0.000    2.000    1.556   15.111 
#    0.000    0.000    0.000    0.000    0.000    0.000 
#    0.000    0.000    0.000    0.000    0.000    0.000 
#
# Total GULP energy -100651.133700 kJ/mol
# GULP energy per Si atom -5591.729650 kJ/mol
# Density = 2.703421 g / cm^3
# Si number density = 27.095877 Si / 1000 Ang^3
#
#
#
# Elastic Constant Matrix: (Units=GPa)
#
#
# Indices 1 2 3 4 5 6 
#
# 1 150.2853 29.4519 21.4783 0.0000 -16.6248 0.0000
# 2 29.4519 89.9029 4.9087 0.0000 1.1484 0.0000
# 3 21.4783 4.9087 82.6716 0.0000 5.5215 0.0000
# 4 0.0000 0.0000 0.0000 15.6963 0.0000 -24.9234
# 5 -16.6248 1.1484 5.5215 0.0000 52.7891 0.0000
# 6 0.0000 0.0000 0.0000 -24.9234 0.0000 29.1003
#
#
#
# Elastic Compliance Matrix: (Units=1/GPa)
#
#
# Indices 1 2 3 4 5 6 
#
# 1 0.007725 -0.002454 -0.002042 0.000000 0.002700 0.000000
# 2 -0.002454 0.011940 -0.000003 0.000000 -0.001032 0.000000
# 3 -0.002042 -0.000003 0.012759 0.000000 -0.001977 0.000000
# 4 0.000000 0.000000 0.000000 -0.176999 0.000000 -0.151594
# 5 0.002700 -0.001032 -0.001977 0.000000 0.020023 0.000000
# 6 0.000000 0.000000 0.000000 -0.151594 0.000000 -0.095471
#
#
# Mechanical properties :
#
#
# Convention : Reuss Voigt Hill
#
# Bulk Modulus (GPa) = 42.68335 48.28192 45.48263
# Shear Modulus (GPa) = -24.60423 37.31852 6.35714
#
# Velocity S-wave (km/s) = -3.01664 3.71519 1.53338
# Velocity P-wave (km/s) = 1.91138 6.02172 4.46736
#
# Compressibility (1/GPa) = 0.02342834
#
# Stress axis : x y z
#
# Youngs Moduli (GPa) = 129.44400 83.75003 78.37783
#
# Poissons Ratio (x) = 0.20551 0.16002
# Poissons Ratio (y) = 0.31763 0.00020
# Poissons Ratio (z) = 0.26428 0.00021
#
# Static dielectric constant tensor:
#      x y z
#    x 2.079330 0.000000 0.040060 
#    y 0.000000 2.177850 0.000000 
#    z 0.040060 0.000000 2.303910 
# 
# From -- ./inp_files/285077.got.cif
#   From: 2010.05.17/outbox.cif.g08.bks.cpg/sg15_143_cif.got.tgz:285077.got - 2010.06.03 18:47:42.
