data_PCOD9287692
_publ_section_title
;
Structure prediction by ZEFSAII (Michael W. Deem and Ramdas Pophale) SiO2 
 PCOD9287692
Probable space group: C 2/C
;
_chemical_formula_sum "Si O2"
_cell_formula_units_Z 56
_cell_length_a 11.326383
_cell_length_b 24.286185
_cell_length_c 13.286496
_cell_angle_alpha 90.000000
_cell_angle_beta 54.959878
_cell_angle_gamma 90.000000
_cell_volume 2992.350191
_symmetry_space_group_name_H-M "C 2/C"
_symmetry_group_IT_number 15
_symmetry_cell_setting 'monoclinic'
loop_
_space_group_symop_operation_xyz
x,y,z
-x,y,1/2-z
-x,-y,-z
x,-y,1/2+z
1/2+x,1/2+y,z
1/2-x,1/2+y,1/2-z
1/2-x,1/2-y,-z
1/2+x,1/2-y,1/2+z
loop_
_atom_site_type_symbol
_atom_site_label
_atom_site_fract_x
_atom_site_fract_y
_atom_site_fract_z
Si Si1 0.622894 0.423828 0.475559
Si Si2 0.674356 0.450138 0.969726
Si Si3 0.676506 0.251954 0.648288
Si Si4 0.148736 0.460377 0.815481
Si Si5 0.356550 0.135713 0.750620
Si Si6 0.862025 0.425499 0.055623
Si Si7 0.829491 0.128005 0.344111
O O1 0.460280 0.418300 0.514764
O O2 0.628926 0.486416 0.512685
O O3 0.735502 0.410006 0.333330
O O4 0.684537 0.383489 0.530773
O O5 0.799533 0.458158 0.824801
O O6 0.725624 0.422975 0.048267
O O7 0.500000 0.254003 0.750000
O O8 0.750000 0.250000 0.500000
O O9 0.708870 0.195789 0.692062
O O10 0.725563 0.312112 0.662137
O O11 0.146183 0.519684 0.870976
O O12 0.260044 0.421597 0.819249
O O13 0.994283 0.434607 0.915022
O O14 0.500000 0.127970 0.750000
O O15 0.392064 0.124958 0.616396
O O16 0.000000 0.125961 0.250000
#
# Coordination Sequence:
#
# PCOD9287692 Si02
#       7
#     8   8   8   8   8   8   8
#     4  11  21  35  60  85 126 160 200 245 300 365
#     4  11  23  37  54  90 125 164 200 245 298 372
#     4  10  22  37  63  93 121 154 203 267 318 354
#     4  11  22  36  58  86 122 167 201 248 301 368
#     4  11  23  40  61  91 122 153 200 259 311 364
#     4  11  24  36  59  87 127 164 202 245 306 371
#     4  11  20  37  60  91 119 156 206 258 308 356
#
# _framework density 18.714388
#
# number of rings (size 3 to 8) (size 9 to 14) (size 15 to 20)
#    0.000    1.143    5.714    1.286    4.000    0.571 
#    0.000    0.000    0.000    0.857    3.714    0.000 
#    0.000    0.000    0.000    0.000    0.000    0.000 
#
# Total GULP energy -155906.489519 kJ/mol
# GULP energy per Si atom -5568.088911 kJ/mol
# Density = 1.867179 g / cm^3
# Si number density = 18.714388 Si / 1000 Ang^3
#
#
#
# Elastic Constant Matrix: (Units=GPa)
#
#
# Indices 1 2 3 4 5 6 
#
# 1 64.7359 17.7603 29.7730 0.0000 13.2994 0.0000
# 2 17.7603 73.0191 6.4374 0.0000 1.8785 0.0000
# 3 29.7730 6.4374 82.2358 0.0000 0.4772 0.0000
# 4 0.0000 0.0000 0.0000 30.8135 0.0000 -1.7489
# 5 13.2994 1.8785 0.4772 0.0000 26.8268 0.0000
# 6 0.0000 0.0000 0.0000 -1.7489 0.0000 15.2913
#
#
#
# Elastic Compliance Matrix: (Units=1/GPa)
#
#
# Indices 1 2 3 4 5 6 
#
# 1 0.022413 -0.004498 -0.007700 0.000000 -0.010659 0.000000
# 2 -0.004498 0.014717 0.000470 0.000000 0.001191 0.000000
# 3 -0.007700 0.000470 0.014891 0.000000 0.003520 0.000000
# 4 0.000000 0.000000 0.000000 0.032665 0.000000 0.003736
# 5 -0.010659 0.001191 0.003520 0.000000 0.042414 0.000000
# 6 0.000000 0.000000 0.000000 0.003736 0.000000 0.065824
#
#
# Mechanical properties :
#
#
# Convention : Reuss Voigt Hill
#
# Bulk Modulus (GPa) = 35.01091 36.43692 35.72391
# Shear Modulus (GPa) = 22.13330 25.65434 23.89382
#
# Velocity S-wave (km/s) = 3.44276 3.70650 3.57706
# Velocity P-wave (km/s) = 5.87810 6.15059 6.01589
#
# Compressibility (1/GPa) = 0.02856253
#
# Stress axis : x y z
#
# Youngs Moduli (GPa) = 44.61709 67.94801 67.15522
#
# Poissons Ratio (x) = 0.30566 0.51713
# Poissons Ratio (y) = 0.20070 -0.03154
# Poissons Ratio (z) = 0.34357 -0.03191
#
# Static dielectric constant tensor:
#      x y z
#    x 1.637470 0.000000 -0.084950 
#    y 0.000000 1.661200 0.000000 
#    z -0.084950 0.000000 1.595210 
# 
# From -- ./inp_files/90693.got.cif
#   From: 2010.05.17/outbox.cif.g08.bks.cpg/sg15_46_cif.got.tgz:90693.got - 2010.06.03 18:47:42.
