data_PCOD9287529
_publ_section_title
;
Structure prediction by ZEFSAII (Michael W. Deem and Ramdas Pophale) SiO2 
 PCOD9287529
Probable space group: C 2/C
;
_chemical_formula_sum "Si O2"
_cell_formula_units_Z 40
_cell_length_a 16.614673
_cell_length_b 14.800546
_cell_length_c 10.606726
_cell_angle_alpha 90.000000
_cell_angle_beta 33.314652
_cell_angle_gamma 90.000000
_cell_volume 1432.551705
_symmetry_space_group_name_H-M "C 2/C"
_symmetry_group_IT_number 15
_symmetry_cell_setting 'monoclinic'
loop_
_space_group_symop_operation_xyz
x,y,z
-x,y,1/2-z
-x,-y,-z
x,-y,1/2+z
1/2+x,1/2+y,z
1/2-x,1/2+y,1/2-z
1/2-x,1/2-y,-z
1/2+x,1/2-y,1/2+z
loop_
_atom_site_type_symbol
_atom_site_label
_atom_site_fract_x
_atom_site_fract_y
_atom_site_fract_z
Si Si1 0.159145 0.082039 0.452848
Si Si2 0.529654 0.121386 0.483684
Si Si3 0.250000 0.750000 0.000000
Si Si4 0.515779 0.670537 0.019754
Si Si5 0.000000 0.616315 0.250000
Si Si6 0.713814 0.387563 0.479411
O O1 0.169126 0.168855 0.526866
O O2 0.027616 0.097355 0.527667
O O3 0.164833 0.991578 0.527505
O O4 0.313471 0.088752 0.173887
O O5 0.546024 0.229515 0.424569
O O6 0.501772 0.071121 0.386540
O O7 0.388161 0.119407 0.756225
O O8 0.351479 0.826439 0.941728
O O9 0.376465 0.665352 0.296221
O O10 0.654815 0.651766 0.924462
#
# Coordination Sequence:
#
# PCOD9287529 Si02
#       6
#     8   8   4   8   4   8
#     4  11  24  44  69 104 140 190 239 297 352 420
#     4  11  23  44  69 104 140 193 235 292 361 437
#     4  10  22  40  64  98 134 182 230 286 344 422
#     4  11  24  46  69 106 142 195 233 293 363 435
#     4  10  22  36  68  98 132 178 242 280 342 422
#     4  11  26  44  70 106 147 183 241 299 362 424
#
# _framework density 27.922204000000001
#
# number of rings (size 3 to 8) (size 9 to 14) (size 15 to 20)
#    0.000    1.200    2.000    3.000    2.800    7.200 
#    0.000    0.000    0.000    0.000    0.000    0.000 
#    0.000    0.000    0.000    0.000    0.000    0.000 
#
# Total GULP energy -111638.186103 kJ/mol
# GULP energy per Si atom -5581.909305 kJ/mol
# Density = 2.785865 g / cm^3
# Si number density = 27.922204 Si / 1000 Ang^3
#
#
#
# Elastic Constant Matrix: (Units=GPa)
#
#
# Indices 1 2 3 4 5 6 
#
# 1 97.3717 -12.9721 10.1281 0.0000 -8.5122 0.0000
# 2 -12.9721 103.0312 -4.6489 0.0000 16.2920 0.0000
# 3 10.1281 -4.6489 151.2860 0.0000 -10.0653 0.0000
# 4 0.0000 0.0000 0.0000 37.6321 0.0000 -4.2318
# 5 -8.5122 16.2920 -10.0653 0.0000 38.2654 0.0000
# 6 0.0000 0.0000 0.0000 -4.2318 0.0000 24.5074
#
#
#
# Elastic Compliance Matrix: (Units=1/GPa)
#
#
# Indices 1 2 3 4 5 6 
#
# 1 0.010621 0.001031 -0.000561 0.000000 0.001776 0.000000
# 2 0.001031 0.010507 -0.000029 0.000000 -0.004252 0.000000
# 3 -0.000561 -0.000029 0.006757 0.000000 0.001665 0.000000
# 4 0.000000 0.000000 0.000000 0.027099 0.000000 0.004679
# 5 0.001776 -0.004252 0.001665 0.000000 0.028777 0.000000
# 6 0.000000 0.000000 0.000000 0.004679 0.000000 0.041612
#
#
# Mechanical properties :
#
#
# Convention : Reuss Voigt Hill
#
# Bulk Modulus (GPa) = 34.76249 37.41146 36.08697
# Shear Modulus (GPa) = 37.29117 44.02643 40.65880
#
# Velocity S-wave (km/s) = 3.65847 3.97514 3.82009
# Velocity P-wave (km/s) = 5.50660 5.87338 5.69294
#
# Compressibility (1/GPa) = 0.02876664
#
# Stress axis : x y z
#
# Youngs Moduli (GPa) = 94.15382 95.17829 147.98477
#
# Poissons Ratio (x) = -0.09813 0.08305
# Poissons Ratio (y) = -0.09708 0.00430
# Poissons Ratio (z) = 0.05284 0.00276
#
# Static dielectric constant tensor:
#      x y z
#    x 1.979100 0.000000 -0.628660 
#    y 0.000000 2.363060 0.000000 
#    z -0.628660 0.000000 -0.359660 
# 
# From -- ./inp_files/105169.got.cif
#   From: 2010.05.17/outbox.cif.g08.bks.cpg/sg15_53_cif.got.tgz:105169.got - 2010.06.03 18:47:42.
