data_PCOD9287392
_publ_section_title
;
Structure prediction by ZEFSAII (Michael W. Deem and Ramdas Pophale) SiO2 
 PCOD9287392
Probable space group: C 2/C
;
_chemical_formula_sum "Si O2"
_cell_formula_units_Z 48
_cell_length_a 13.546676
_cell_length_b 16.371626
_cell_length_c 14.515903
_cell_angle_alpha 90.000000
_cell_angle_beta 34.643484
_cell_angle_gamma 90.000000
_cell_volume 1830.100171
_symmetry_space_group_name_H-M "C 2/C"
_symmetry_group_IT_number 15
_symmetry_cell_setting 'monoclinic'
loop_
_space_group_symop_operation_xyz
x,y,z
-x,y,1/2-z
-x,-y,-z
x,-y,1/2+z
1/2+x,1/2+y,z
1/2-x,1/2+y,1/2-z
1/2-x,1/2-y,-z
1/2+x,1/2-y,1/2+z
loop_
_atom_site_type_symbol
_atom_site_label
_atom_site_fract_x
_atom_site_fract_y
_atom_site_fract_z
Si Si1 0.312723 0.398346 0.858410
Si Si2 0.198124 0.919855 0.122530
Si Si3 0.805961 0.041323 0.153305
Si Si4 0.753179 0.872703 0.201977
Si Si5 0.452219 0.824863 0.692127
Si Si6 0.057732 0.262424 0.008232
O O1 0.500000 0.373606 0.750000
O O2 0.279467 0.486485 0.929088
O O3 0.287685 0.427330 0.771672
O O4 0.191208 0.320453 0.959032
O O5 0.197392 0.897446 0.232038
O O6 0.000000 0.899946 0.250000
O O7 0.373927 0.877684 0.954725
O O8 0.689393 0.961430 0.217769
O O9 0.722734 0.119194 0.164276
O O10 0.000000 0.000000 0.000000
O O11 0.898689 0.833252 0.024270
O O12 0.619466 0.798078 0.315314
O O13 0.500000 0.778360 0.750000
O O14 0.441227 0.778052 0.603607
#
# Coordination Sequence:
#
# PCOD9287392 Si02
#       6
#     8   8   8   8   8   8
#     4   9  19  37  62  82 113 156 197 243 298 344
#     4   9  19  36  60  85 113 153 199 242 296 354
#     4  10  22  38  63  90 119 152 203 249 290 349
#     4  10  22  38  58  83 119 158 194 239 298 346
#     4  10  22  36  59  90 120 150 195 250 296 350
#     4  10  22  39  58  84 121 158 192 242 296 362
#
# _framework density 26.228072999999998
#
# number of rings (size 3 to 8) (size 9 to 14) (size 15 to 20)
#    0.000    2.333    0.000    1.000   11.667    4.667 
#    0.000    5.000    0.000    0.000    0.000    0.000 
#    0.000    0.000    0.000    0.000    0.000    0.000 
#
# Total GULP energy -133826.662805 kJ/mol
# GULP energy per Si atom -5576.110950 kJ/mol
# Density = 2.616838 g / cm^3
# Si number density = 26.228073 Si / 1000 Ang^3
#
#
#
# Elastic Constant Matrix: (Units=GPa)
#
#
# Indices 1 2 3 4 5 6 
#
# 1 73.7994 12.3220 20.9259 0.0019 -17.5749 -0.0002
# 2 12.3220 100.9544 27.7934 0.0029 -10.2106 -0.0007
# 3 20.9259 27.7934 68.9083 0.0082 -15.6075 -0.0011
# 4 0.0019 0.0029 0.0082 27.1510 -0.0014 -18.5515
# 5 -17.5749 -10.2106 -15.6075 -0.0014 35.7113 -0.0006
# 6 -0.0002 -0.0007 -0.0011 -18.5515 -0.0006 -7.4922
#
#
#
# Elastic Compliance Matrix: (Units=1/GPa)
#
#
# Indices 1 2 3 4 5 6 
#
# 1 0.016061 -0.000417 -0.003269 0.000000 0.006356 0.000000
# 2 -0.000417 0.011213 -0.004125 0.000000 0.001198 0.000000
# 3 -0.003269 -0.004125 0.018354 -0.000002 0.005233 0.000003
# 4 0.000000 0.000000 -0.000002 0.013682 -0.000001 -0.033879
# 5 0.006356 0.001198 0.005233 -0.000001 0.033760 -0.000001
# 6 0.000000 0.000000 0.000003 -0.033879 -0.000001 -0.049584
#
#
# Mechanical properties :
#
#
# Convention : Reuss Voigt Hill
#
# Bulk Modulus (GPa) = 33.32793 40.63830 36.98312
# Shear Modulus (GPa) = 72.34839 23.24876 47.79857
#
# Velocity S-wave (km/s) = 5.25778 2.98049 4.27361
# Velocity P-wave (km/s) = 7.04227 5.23185 6.20346
#
# Compressibility (1/GPa) = 0.03000487
#
# Stress axis : x y z
#
# Youngs Moduli (GPa) = 62.26441 89.18139 54.48471
#
# Poissons Ratio (x) = 0.03722 0.17813
# Poissons Ratio (y) = 0.02599 0.22473
# Poissons Ratio (z) = 0.20356 0.36784
#
# Static dielectric constant tensor:
#      x y z
#    x 2.101000 0.000000 0.004840 
#    y 0.000000 2.109890 0.000000 
#    z 0.004840 0.000000 2.185090 
# 
# From -- ./inp_files/206385.got.cif
#   From: 2010.05.17/outbox.cif.g08.bks.cpg/sg15_104_cif.got.tgz:206385.got - 2010.06.03 18:47:42.
