data_PCOD9287330
_publ_section_title
;
Structure prediction by ZEFSAII (Michael W. Deem and Ramdas Pophale) SiO2 
 PCOD9287330
Probable space group: C 2/C
;
_chemical_formula_sum "Si O2"
_cell_formula_units_Z 48
_cell_length_a 20.054190
_cell_length_b 20.185036
_cell_length_c 9.122125
_cell_angle_alpha 90.000000
_cell_angle_beta 42.503352
_cell_angle_gamma 90.000000
_cell_volume 2494.834521
_symmetry_space_group_name_H-M "C 2/C"
_symmetry_group_IT_number 15
_symmetry_cell_setting 'monoclinic'
loop_
_space_group_symop_operation_xyz
x,y,z
-x,y,1/2-z
-x,-y,-z
x,-y,1/2+z
1/2+x,1/2+y,z
1/2-x,1/2+y,1/2-z
1/2-x,1/2-y,-z
1/2+x,1/2-y,1/2+z
loop_
_atom_site_type_symbol
_atom_site_label
_atom_site_fract_x
_atom_site_fract_y
_atom_site_fract_z
Si Si1 0.784671 0.567989 0.936145
Si Si2 0.182228 0.441599 0.773875
Si Si3 0.260428 0.208964 0.336742
Si Si4 0.475933 0.223617 0.939712
Si Si5 0.987538 0.599236 0.442652
Si Si6 0.666405 0.699235 0.192190
O O1 0.755869 0.499539 0.903841
O O2 0.878490 0.590388 0.686051
O O3 0.816056 0.553626 0.053198
O O4 0.704611 0.626817 0.080591
O O5 0.220691 0.368892 0.667908
O O6 0.070259 0.442676 0.895487
O O7 0.250000 0.250000 0.500000
O O8 0.175149 0.209196 0.353881
O O9 0.361608 0.239752 0.107861
O O10 0.500000 0.184236 0.750000
O O11 0.556850 0.280885 0.820225
O O12 0.487304 0.175545 0.059023
O O13 0.000000 0.586509 0.250000
O O14 0.750000 0.750000 0.000000
#
# Coordination Sequence:
#
# PCOD9287330 Si02
#       6
#     8   8   8   8   8   8
#     4  11  21  38  55  82 119 157 199 239 302 368
#     4  10  22  36  55  82 116 157 193 245 301 358
#     4  10  23  38  60  91 120 150 199 257 304 355
#     4  11  21  38  57  88 123 158 199 244 300 360
#     4  11  21  32  55  85 120 156 192 241 306 369
#     4  11  21  36  62  84 118 162 196 243 298 359
#
# _framework density 19.239753
#
# number of rings (size 3 to 8) (size 9 to 14) (size 15 to 20)
#    0.000    1.333    3.333    4.000    4.667    1.333 
#    0.000    0.000    0.000    1.000    0.000    0.000 
#    0.000    0.000    0.000    0.000    0.000    0.000 
#
# Total GULP energy -133825.531601 kJ/mol
# GULP energy per Si atom -5576.063817 kJ/mol
# Density = 1.919596 g / cm^3
# Si number density = 19.239753 Si / 1000 Ang^3
#
#
#
# Elastic Constant Matrix: (Units=GPa)
#
#
# Indices 1 2 3 4 5 6 
#
# 1 76.7147 46.9013 27.1442 0.0000 5.2527 0.0000
# 2 46.9013 88.7424 34.9256 0.0000 10.5616 0.0000
# 3 27.1442 34.9256 73.7611 0.0000 22.9195 0.0000
# 4 0.0000 0.0000 0.0000 34.5125 0.0000 0.7154
# 5 5.2527 10.5616 22.9195 0.0000 34.3127 0.0000
# 6 0.0000 0.0000 0.0000 0.7154 0.0000 21.5211
#
#
#
# Elastic Compliance Matrix: (Units=1/GPa)
#
#
# Indices 1 2 3 4 5 6 
#
# 1 0.019869 -0.009360 -0.003571 0.000000 0.002225 0.000000
# 2 -0.009360 0.018260 -0.004922 0.000000 -0.000900 0.000000
# 3 -0.003571 -0.004922 0.020899 0.000000 -0.011898 0.000000
# 4 0.000000 0.000000 0.000000 0.028995 0.000000 -0.000964
# 5 0.002225 -0.000900 -0.011898 0.000000 0.037028 0.000000
# 6 0.000000 0.000000 0.000000 -0.000964 0.000000 0.046498
#
#
# Mechanical properties :
#
#
# Convention : Reuss Voigt Hill
#
# Bulk Modulus (GPa) = 42.87882 50.79558 46.83720
# Shear Modulus (GPa) = 23.25272 26.75240 25.00256
#
# Velocity S-wave (km/s) = 3.48023 3.73295 3.60880
# Velocity P-wave (km/s) = 6.20357 6.71108 6.46231
#
# Compressibility (1/GPa) = 0.02332154
#
# Stress axis : x y z
#
# Youngs Moduli (GPa) = 50.32889 54.76530 47.84956
#
# Poissons Ratio (x) = 0.51263 0.17088
# Poissons Ratio (y) = 0.47110 0.23549
# Poissons Ratio (z) = 0.17973 0.26953
#
# Static dielectric constant tensor:
#      x y z
#    x 1.753010 0.000000 0.122860 
#    y 0.000000 1.722320 0.000000 
#    z 0.122860 0.000000 1.997180 
# 
# From -- ./inp_files/57700.got.cif
#   From: 2010.05.17/outbox.cif.g08.bks.cpg/sg15_29_cif.got.tgz:57700.got - 2010.06.03 18:47:42.
