data_PCOD9287647
_publ_section_title
;
Structure prediction by ZEFSAII (Michael W. Deem and Ramdas Pophale) SiO2 
 PCOD9287647
Probable space group: C 2/C
;
_chemical_formula_sum "Si O2"
_cell_formula_units_Z 64
_cell_length_a 16.051124
_cell_length_b 28.218598
_cell_length_c 8.812067
_cell_angle_alpha 90.000000
_cell_angle_beta 46.812364
_cell_angle_gamma 90.000000
_cell_volume 2910.150830
_symmetry_space_group_name_H-M "C 2/C"
_symmetry_group_IT_number 15
_symmetry_cell_setting 'monoclinic'
loop_
_space_group_symop_operation_xyz
x,y,z
-x,y,1/2-z
-x,-y,-z
x,-y,1/2+z
1/2+x,1/2+y,z
1/2-x,1/2+y,1/2-z
1/2-x,1/2-y,-z
1/2+x,1/2-y,1/2+z
loop_
_atom_site_type_symbol
_atom_site_label
_atom_site_fract_x
_atom_site_fract_y
_atom_site_fract_z
Si Si1 0.547846 0.701085 0.521902
Si Si2 0.594129 0.363337 0.500470
Si Si3 0.344440 0.122632 0.819175
Si Si4 0.073539 0.033755 0.009521
Si Si5 0.004426 0.305255 0.562535
Si Si6 0.881362 0.565983 0.320465
Si Si7 0.829382 0.520862 0.703328
Si Si8 0.290410 0.149752 0.228637
O O1 0.500000 0.702940 0.750000
O O2 0.444329 0.678948 0.556358
O O3 0.565842 0.755471 0.451019
O O4 0.661008 0.668427 0.373029
O O5 0.500000 0.362529 0.750000
O O6 0.720063 0.362427 0.411259
O O7 0.588559 0.413882 0.421685
O O8 0.433541 0.153812 0.612040
O O9 0.363380 0.067400 0.756756
O O10 0.336556 0.130666 0.009056
O O11 0.000000 0.041123 0.250000
O O12 0.195228 0.012139 0.901180
O O13 0.000000 0.000000 0.000000
O O14 0.000000 0.312079 0.750000
O O15 0.872904 0.307015 0.673064
O O16 0.830701 0.536543 0.525718
O O17 0.895198 0.526230 0.172350
O O18 0.811808 0.609150 0.330878
O O19 0.000000 0.582625 0.250000
#
# Coordination Sequence:
#
# PCOD9287647 Si02
#       8
#     8   8   8   8   8   8   8   8
#     4  11  28  44  72 102 134 179 229 290 346 421
#     4  10  22  43  65  97 137 176 228 281 345 406
#     4  11  24  45  72 100 144 184 227 286 342 416
#     4  10  22  37  61  91 129 172 216 274 328 396
#     4  11  27  47  69 101 135 177 228 289 352 407
#     4  12  26  44  70 102 142 182 232 283 336 407
#     4  11  24  42  68 100 137 186 224 278 337 404
#     4  12  26  46  71 103 138 182 234 283 349 413
#
# _framework density 21.991986000000001
#
# number of rings (size 3 to 8) (size 9 to 14) (size 15 to 20)
#    0.000    1.000    1.250    4.125    8.750    4.000 
#    0.000    0.000    0.000    0.000    0.000    0.000 
#    0.000    0.000    0.000    0.000    0.000    0.000 
#
# Total GULP energy -178810.140818 kJ/mol
# GULP energy per Si atom -5587.816901 kJ/mol
# Density = 2.194193 g / cm^3
# Si number density = 21.991986 Si / 1000 Ang^3
#
#
#
# Elastic Constant Matrix: (Units=GPa)
#
#
# Indices 1 2 3 4 5 6 
#
# 1 99.4664 62.0167 16.8279 0.0000 4.0086 0.0000
# 2 62.0167 115.7311 10.4472 0.0000 8.3299 0.0000
# 3 16.8279 10.4472 52.9796 0.0000 3.6934 0.0000
# 4 0.0000 0.0000 0.0000 25.4736 0.0000 -5.4384
# 5 4.0086 8.3299 3.6934 0.0000 35.3456 0.0000
# 6 0.0000 0.0000 0.0000 -5.4384 0.0000 35.7828
#
#
#
# Elastic Compliance Matrix: (Units=1/GPa)
#
#
# Indices 1 2 3 4 5 6 
#
# 1 0.015680 -0.008130 -0.003412 0.000000 0.000494 0.000000
# 2 -0.008130 0.013142 0.000143 0.000000 -0.002190 0.000000
# 3 -0.003412 0.000143 0.020052 0.000000 -0.001742 0.000000
# 4 0.000000 0.000000 0.000000 0.040573 0.000000 0.006166
# 5 0.000494 -0.002190 -0.001742 0.000000 0.028934 0.000000
# 6 0.000000 0.000000 0.000000 0.006166 0.000000 0.028884
#
#
# Mechanical properties :
#
#
# Convention : Reuss Voigt Hill
#
# Bulk Modulus (GPa) = 38.34711 49.64008 43.99360
# Shear Modulus (GPa) = 27.97151 31.24609 29.60880
#
# Velocity S-wave (km/s) = 3.57023 3.77343 3.67324
# Velocity P-wave (km/s) = 5.87113 6.45027 6.16750
#
# Compressibility (1/GPa) = 0.02607759
#
# Stress axis : x y z
#
# Youngs Moduli (GPa) = 63.77583 76.09188 49.87032
#
# Poissons Ratio (x) = 0.61863 0.17014
# Poissons Ratio (y) = 0.51850 -0.00716
# Poissons Ratio (z) = 0.21758 -0.01092
#
# Static dielectric constant tensor:
#      x y z
#    x 1.812390 0.000000 -0.030790 
#    y 0.000000 1.965140 0.000000 
#    z -0.030790 0.000000 1.826850 
# 
# From -- ./inp_files/44833.got.cif
#   From: 2010.05.17/outbox.cif.g08.bks.cpg/sg15_23_cif.got.tgz:44833.got - 2010.06.03 18:47:42.
