data_PCOD9287818
_publ_section_title
;
Structure prediction by ZEFSAII (Michael W. Deem and Ramdas Pophale) SiO2 
 PCOD9287818
Probable space group: C 2/C
;
_chemical_formula_sum "Si O2"
_cell_formula_units_Z 56
_cell_length_a 19.225447
_cell_length_b 27.768677
_cell_length_c 8.814447
_cell_angle_alpha 90.000000
_cell_angle_beta 144.319374
_cell_angle_gamma 90.000000
_cell_volume 2744.693152
_symmetry_space_group_name_H-M "C 2/C"
_symmetry_group_IT_number 15
_symmetry_cell_setting 'monoclinic'
loop_
_space_group_symop_operation_xyz
x,y,z
-x,y,1/2-z
-x,-y,-z
x,-y,1/2+z
1/2+x,1/2+y,z
1/2-x,1/2+y,1/2-z
1/2-x,1/2-y,-z
1/2+x,1/2-y,1/2+z
loop_
_atom_site_type_symbol
_atom_site_label
_atom_site_fract_x
_atom_site_fract_y
_atom_site_fract_z
Si Si1 0.633456 0.043658 0.416923
Si Si2 0.143044 0.716599 0.750841
Si Si3 0.364818 0.943633 0.945807
Si Si4 0.014181 0.808911 0.594358
Si Si5 0.221335 0.804085 0.495445
Si Si6 0.259974 0.348984 0.660768
Si Si7 0.140063 0.353826 0.978670
O O1 0.500000 0.042366 0.250000
O O2 0.629625 0.048941 0.227219
O O3 0.691165 0.092513 0.588175
O O4 0.683266 0.992773 0.561041
O O5 0.036175 0.754347 0.568665
O O6 0.174570 0.689882 0.650807
O O7 0.250000 0.750000 0.000000
O O8 0.144028 0.672817 0.871100
O O9 0.277711 0.900225 0.840338
O O10 0.500000 0.935332 0.250000
O O11 0.125157 0.843481 0.746176
O O12 0.000000 0.806136 0.750000
O O13 0.891869 0.823883 0.297748
O O14 0.250000 0.750000 0.500000
O O15 0.203950 0.812695 0.640455
O O16 0.331799 0.836484 0.639539
O O17 0.000000 0.357695 0.750000
#
# Coordination Sequence:
#
# PCOD9287818 Si02
#       7
#     8   8   8   8   8   8   8
#     4  10  22  40  62  96 129 165 203 261 328 379
#     4  10  22  38  57  87 124 166 208 253 306 372
#     4  11  23  40  66  98 131 165 208 264 329 387
#     4  11  23  43  60  88 128 172 219 258 309 373
#     4  12  22  38  62  90 125 168 208 259 313 370
#     4  11  24  39  62  94 124 169 212 260 317 377
#     4  11  23  38  61  94 126 160 209 256 318 380
#
# _framework density 20.403009000000001
#
# number of rings (size 3 to 8) (size 9 to 14) (size 15 to 20)
#    0.000    1.143    1.429    7.286    6.000    1.714 
#    0.000    0.000    0.000    0.857    0.000    0.000 
#    0.000    0.000    0.000    0.000    0.000    0.000 
#
# Total GULP energy -156183.816523 kJ/mol
# GULP energy per Si atom -5577.993447 kJ/mol
# Density = 2.035657 g / cm^3
# Si number density = 20.403009 Si / 1000 Ang^3
#
#
#
# Elastic Constant Matrix: (Units=GPa)
#
#
# Indices 1 2 3 4 5 6 
#
# 1 126.4649 59.0900 25.0500 0.0000 -17.8359 0.0000
# 2 59.0900 147.5416 9.4649 0.0000 -2.8313 0.0000
# 3 25.0500 9.4649 44.3087 0.0000 -5.7481 0.0000
# 4 0.0000 0.0000 0.0000 19.5579 0.0000 -4.3428
# 5 -17.8359 -2.8313 -5.7481 0.0000 32.6917 0.0000
# 6 0.0000 0.0000 0.0000 -4.3428 0.0000 35.0280
#
#
#
# Elastic Compliance Matrix: (Units=1/GPa)
#
#
# Indices 1 2 3 4 5 6 
#
# 1 0.011584 -0.004222 -0.004989 0.000000 0.005077 0.000000
# 2 -0.004222 0.008414 0.000394 0.000000 -0.001505 0.000000
# 3 -0.004989 0.000394 0.025539 0.000000 0.001803 0.000000
# 4 0.000000 0.000000 0.000000 0.052578 0.000000 0.006519
# 5 0.005077 -0.001505 0.001803 0.000000 0.033545 0.000000
# 6 0.000000 0.000000 0.000000 0.006519 0.000000 0.029357
#
#
# Mechanical properties :
#
#
# Convention : Reuss Voigt Hill
#
# Bulk Modulus (GPa) = 35.83613 56.16944 46.00278
# Shear Modulus (GPa) = 26.60254 32.43623 29.51938
#
# Velocity S-wave (km/s) = 3.61481 3.99153 3.80783
# Velocity P-wave (km/s) = 5.91817 6.98805 6.47524
#
# Compressibility (1/GPa) = 0.02790480
#
# Stress axis : x y z
#
# Youngs Moduli (GPa) = 86.32407 118.84284 39.15586
#
# Poissons Ratio (x) = 0.50175 0.19533
# Poissons Ratio (y) = 0.36446 -0.01543
# Poissons Ratio (z) = 0.43064 -0.04685
#
# Static dielectric constant tensor:
#      x y z
#    x 2.681730 0.000000 0.218080 
#    y 0.000000 1.804780 0.000000 
#    z 0.218080 0.000000 1.821240 
# 
# From -- ./inp_files/52384.got.cif
#   From: 2010.05.17/outbox.cif.g08.bks.cpg/sg15_27_cif.got.tgz:52384.got - 2010.06.03 18:47:42.
