data_PCOD9287817
_publ_section_title
;
Structure prediction by ZEFSAII (Michael W. Deem and Ramdas Pophale) SiO2 
 PCOD9287817
Probable space group: C 2/C
;
_chemical_formula_sum "Si O2"
_cell_formula_units_Z 60
_cell_length_a 9.013149
_cell_length_b 23.474753
_cell_length_c 23.098982
_cell_angle_alpha 90.000000
_cell_angle_beta 38.694098
_cell_angle_gamma 90.000000
_cell_volume 3055.365538
_symmetry_space_group_name_H-M "C 2/C"
_symmetry_group_IT_number 15
_symmetry_cell_setting 'monoclinic'
loop_
_space_group_symop_operation_xyz
x,y,z
-x,y,1/2-z
-x,-y,-z
x,-y,1/2+z
1/2+x,1/2+y,z
1/2-x,1/2+y,1/2-z
1/2-x,1/2-y,-z
1/2+x,1/2-y,1/2+z
loop_
_atom_site_type_symbol
_atom_site_label
_atom_site_fract_x
_atom_site_fract_y
_atom_site_fract_z
Si Si1 0.313102 0.969250 0.597902
Si Si2 0.397179 0.640683 0.557791
Si Si3 0.500000 0.921891 0.250000
Si Si4 0.236292 0.987562 0.752027
Si Si5 0.616845 0.137924 0.275128
Si Si6 0.965002 0.822461 0.913915
Si Si7 0.497693 0.236283 0.508922
Si Si8 0.617033 0.859710 0.537589
O O1 0.428311 0.906628 0.573014
O O2 0.500000 0.000000 0.500000
O O3 0.290189 0.998746 0.667938
O O4 0.043567 0.972636 0.656278
O O5 0.426421 0.633122 0.478919
O O6 0.412240 0.709913 0.556761
O O7 0.627301 0.616302 0.521054
O O8 0.161857 0.615393 0.657397
O O9 0.673300 0.962241 0.234829
O O10 0.384808 0.930271 0.719346
O O11 0.500000 0.153032 0.250000
O O12 0.887335 0.155791 0.184820
O O13 0.492430 0.163543 0.368916
O O14 0.717879 0.799189 0.966673
O O15 0.098292 0.769722 0.905640
O O16 0.349345 0.191378 0.517801
#
# Coordination Sequence:
#
# PCOD9287817 Si02
#       8
#     8   8   4   8   8   8   8   8
#     4  10  22  42  61  90 119 160 207 249 307 365
#     4  10  22  38  57  87 121 160 202 245 302 370
#     4  12  24  40  60  84 128 168 196 254 312 356
#     4  10  23  39  59  87 122 153 206 253 295 371
#     4  11  19  36  59  89 114 152 197 255 304 350
#     4   9  20  38  60  85 128 151 198 252 297 362
#     4   9  20  40  58  89 125 155 198 254 298 362
#     4  11  21  37  67  90 119 159 204 258 303 362
#
# _framework density 19.637584
#
# number of rings (size 3 to 8) (size 9 to 14) (size 15 to 20)
#    0.800    1.067    2.000    2.000    0.000    4.800 
#    0.000    2.667    0.000    0.000    0.000    0.000 
#    0.000    0.000    0.000    0.000    0.000    0.000 
#
# Total GULP energy -167052.873056 kJ/mol
# GULP energy per Si atom -5568.429102 kJ/mol
# Density = 1.959289 g / cm^3
# Si number density = 19.637584 Si / 1000 Ang^3
#
#
#
# Elastic Constant Matrix: (Units=GPa)
#
#
# Indices 1 2 3 4 5 6 
#
# 1 80.9270 18.4531 15.2627 -0.0002 -14.1370 -0.0004
# 2 18.4531 39.1708 6.7862 -0.0002 -3.8201 0.0000
# 3 15.2627 6.7862 88.2587 -0.0003 -5.9378 0.0001
# 4 -0.0002 -0.0002 -0.0003 22.4923 0.0000 1.7049
# 5 -14.1370 -3.8201 -5.9378 0.0000 23.8853 0.0002
# 6 -0.0004 0.0000 0.0001 1.7049 0.0002 20.5504
#
#
#
# Elastic Compliance Matrix: (Units=1/GPa)
#
#
# Indices 1 2 3 4 5 6 
#
# 1 0.015443 -0.006232 -0.001672 0.000000 0.007728 0.000000
# 2 -0.006232 0.028715 -0.001088 0.000000 0.000634 0.000000
# 3 -0.001672 -0.001088 0.011822 0.000000 0.001776 0.000000
# 4 0.000000 0.000000 0.000000 0.044741 0.000000 -0.003712
# 5 0.007728 0.000634 0.001776 0.000000 0.046983 0.000000
# 6 0.000000 0.000000 0.000000 -0.003712 0.000000 0.048969
#
#
# Mechanical properties :
#
#
# Convention : Reuss Voigt Hill
#
# Bulk Modulus (GPa) = 26.31657 32.15116 29.23386
# Shear Modulus (GPa) = 21.99518 24.57589 23.28553
#
# Velocity S-wave (km/s) = 3.35035 3.54145 3.44723
# Velocity P-wave (km/s) = 5.32886 5.75589 5.54649
#
# Compressibility (1/GPa) = 0.03799888
#
# Stress axis : x y z
#
# Youngs Moduli (GPa) = 64.75403 34.82466 84.58466
#
# Poissons Ratio (x) = 0.21702 0.14138
# Poissons Ratio (y) = 0.40354 0.09199
# Poissons Ratio (z) = 0.10824 0.03787
#
# Static dielectric constant tensor:
#      x y z
#    x 1.742880 0.000000 -0.012840 
#    y 0.000000 1.695550 0.000000 
#    z -0.012840 0.000000 1.699760 
# 
# From -- ./inp_files/266224.got.cif
#   From: 2010.05.17/outbox.cif.g08.bks.cpg/sg15_134_cif.got.tgz:266224.got - 2010.06.03 18:47:42.
