data_PCOD9287625
_publ_section_title
;
Structure prediction by ZEFSAII (Michael W. Deem and Ramdas Pophale) SiO2 
 PCOD9287625
Probable space group: C 2/C
;
_chemical_formula_sum "Si O2"
_cell_formula_units_Z 48
_cell_length_a 14.385577
_cell_length_b 5.327167
_cell_length_c 30.872068
_cell_angle_alpha 90.000000
_cell_angle_beta 61.888381
_cell_angle_gamma 90.000000
_cell_volume 2086.763982
_symmetry_space_group_name_H-M "C 2/C"
_symmetry_group_IT_number 15
_symmetry_cell_setting 'monoclinic'
loop_
_space_group_symop_operation_xyz
x,y,z
-x,y,1/2-z
-x,-y,-z
x,-y,1/2+z
1/2+x,1/2+y,z
1/2-x,1/2+y,1/2-z
1/2-x,1/2-y,-z
1/2+x,1/2-y,1/2+z
loop_
_atom_site_type_symbol
_atom_site_label
_atom_site_fract_x
_atom_site_fract_y
_atom_site_fract_z
Si Si1 0.249329 0.180514 0.931849
Si Si2 0.100271 0.567349 0.531757
Si Si3 0.473166 0.010652 0.806416
Si Si4 0.164736 0.019668 0.655403
Si Si5 0.409719 0.315828 0.536786
Si Si6 0.709158 0.947240 0.283270
O O1 0.356946 0.081602 0.929350
O O2 0.268939 0.430716 0.900759
O O3 0.183837 0.970153 0.920435
O O4 0.170425 0.237457 0.988720
O O5 0.125829 0.317198 0.499734
O O6 0.976682 0.625746 0.552219
O O7 0.500000 0.965514 0.750000
O O8 0.410005 0.273606 0.821863
O O9 0.582614 0.031546 0.808429
O O10 0.404158 0.769491 0.835238
O O11 0.240131 0.048883 0.680240
O O12 0.500000 0.500000 0.500000
O O13 0.744138 0.688771 0.252380
#
# Coordination Sequence:
#
# PCOD9287625 Si02
#       6
#     8   8   8   8   8   8
#     4  10  22  37  60  89 125 164 212 259 319 370
#     4   9  19  39  61  84 125 171 206 255 318 378
#     4  12  24  45  70  94 132 171 219 268 336 399
#     4  12  26  43  66 104 131 170 221 278 318 396
#     4   9  18  36  61  85 115 167 210 249 307 380
#     4  12  23  43  72  92 124 172 214 264 333 393
#
# _framework density 23.002120000000001
#
# number of rings (size 3 to 8) (size 9 to 14) (size 15 to 20)
#    0.000    1.333    3.333    2.000    2.333    1.333 
#    9.000    0.000    0.000    0.000    0.000    0.000 
#    0.000    0.000    0.000    0.000    0.000    0.000 
#
# Total GULP energy -134112.916331 kJ/mol
# GULP energy per Si atom -5588.038180 kJ/mol
# Density = 2.294977 g / cm^3
# Si number density = 23.002120 Si / 1000 Ang^3
#
#
#
# Elastic Constant Matrix: (Units=GPa)
#
#
# Indices 1 2 3 4 5 6 
#
# 1 151.1145 32.6719 36.1843 -0.0011 10.1082 0.0015
# 2 32.6719 117.4912 15.2792 0.0024 -4.2910 -0.0106
# 3 36.1843 15.2792 59.2230 0.0017 4.0924 -0.0015
# 4 -0.0011 0.0024 0.0017 39.8817 0.0006 -8.4153
# 5 10.1082 -4.2910 4.0924 0.0006 29.9509 0.0008
# 6 0.0015 -0.0106 -0.0015 -8.4153 0.0008 28.6151
#
#
#
# Elastic Compliance Matrix: (Units=1/GPa)
#
#
# Indices 1 2 3 4 5 6 
#
# 1 0.008221 -0.001804 -0.004390 0.000000 -0.002433 -0.000001
# 2 -0.001804 0.009278 -0.001439 0.000000 0.002135 0.000003
# 3 -0.004390 -0.001439 0.020040 -0.000001 -0.001463 0.000001
# 4 0.000000 0.000000 -0.000001 0.026733 -0.000001 0.007862
# 5 -0.002433 0.002135 -0.001463 -0.000001 0.034715 0.000000
# 6 -0.000001 0.000003 0.000001 0.007862 0.000000 0.037259
#
#
# Mechanical properties :
#
#
# Convention : Reuss Voigt Hill
#
# Bulk Modulus (GPa) = 44.89574 55.12218 50.00896
# Shear Modulus (GPa) = 31.45932 35.93578 33.69755
#
# Velocity S-wave (km/s) = 3.70221 3.95686 3.83165
# Velocity P-wave (km/s) = 6.15107 6.70012 6.43146
#
# Compressibility (1/GPa) = 0.02227383
#
# Stress axis : x y z
#
# Youngs Moduli (GPa) = 121.63338 107.78092 49.90135
#
# Poissons Ratio (x) = 0.19446 0.21904
# Poissons Ratio (y) = 0.21946 0.07180
# Poissons Ratio (z) = 0.53391 0.15508
#
# Static dielectric constant tensor:
#      x y z
#    x 1.924330 0.000000 -0.026420 
#    y 0.000000 1.902890 0.000000 
#    z -0.026420 0.000000 1.895300 
# 
# From -- ./inp_files/312056.got.cif
#   From: 2010.05.17/outbox.cif.g08.bks.cpg/sg15_157_cif.got.tgz:312056.got - 2010.06.03 18:47:42.
