data_PCOD9287680
_publ_section_title
;
Structure prediction by ZEFSAII (Michael W. Deem and Ramdas Pophale) SiO2 
 PCOD9287680
Probable space group: C 2/C
;
_chemical_formula_sum "Si O2"
_cell_formula_units_Z 40
_cell_length_a 19.138140
_cell_length_b 10.741575
_cell_length_c 24.547596
_cell_angle_alpha 90.000000
_cell_angle_beta 18.767977
_cell_angle_gamma 90.000000
_cell_volume 1623.592619
_symmetry_space_group_name_H-M "C 2/C"
_symmetry_group_IT_number 15
_symmetry_cell_setting 'monoclinic'
loop_
_space_group_symop_operation_xyz
x,y,z
-x,y,1/2-z
-x,-y,-z
x,-y,1/2+z
1/2+x,1/2+y,z
1/2-x,1/2+y,1/2-z
1/2-x,1/2-y,-z
1/2+x,1/2-y,1/2+z
loop_
_atom_site_type_symbol
_atom_site_label
_atom_site_fract_x
_atom_site_fract_y
_atom_site_fract_z
Si Si1 0.564880 0.981448 0.762433
Si Si2 0.570582 0.345568 0.485025
Si Si3 0.391344 0.739540 0.663396
Si Si4 0.250455 0.336235 0.945949
Si Si5 0.375337 0.310885 0.289315
O O1 0.500000 0.025859 0.750000
O O2 0.812292 0.026336 0.586656
O O3 0.545802 0.833016 0.775570
O O4 0.408229 0.050363 0.920713
O O5 0.645607 0.317883 0.368391
O O6 0.311618 0.331861 0.677824
O O7 0.662329 0.241488 0.459212
O O8 0.404002 0.644779 0.705782
O O9 0.621493 0.807148 0.488744
O O10 0.500000 0.370362 0.750000
O O11 0.250000 0.250000 0.000000
O O12 0.500000 0.360465 0.250000
#
# Coordination Sequence:
#
# PCOD9287680 Si02
#       5
#     8   8   8   8   8
#     4  11  22  38  64  96 124 162 203 253 300 367
#     4  11  19  36  60  91 125 157 196 240 314 371
#     4  10  22  37  63  87 116 167 200 251 312 349
#     4  12  19  34  61  92 131 166 192 234 306 380
#     4  10  23  44  65  86 115 163 218 257 299 361
#
# _framework density 24.636723
#
# number of rings (size 3 to 8) (size 9 to 14) (size 15 to 20)
#    0.000    1.200    6.000    0.600    0.000    3.200 
#    0.000   10.000    0.000    0.000    0.000    0.000 
#    0.000    0.000    0.000    0.000    0.000    0.000 
#
# Total GULP energy -111951.229627 kJ/mol
# GULP energy per Si atom -5597.561481 kJ/mol
# Density = 2.458065 g / cm^3
# Si number density = 24.636723 Si / 1000 Ang^3
#
#
#
# Elastic Constant Matrix: (Units=GPa)
#
#
# Indices 1 2 3 4 5 6 
#
# 1 200.4033 22.7343 54.7719 0.0134 26.7711 -0.0006
# 2 22.7343 89.8659 29.5448 0.0124 10.1370 -0.0065
# 3 54.7719 29.5448 166.2243 0.0037 7.7025 -0.0172
# 4 0.0134 0.0124 0.0037 26.9775 0.0117 4.6932
# 5 26.7711 10.1370 7.7025 0.0117 53.0459 -0.0010
# 6 -0.0006 -0.0065 -0.0172 4.6932 -0.0010 14.4955
#
#
#
# Elastic Compliance Matrix: (Units=1/GPa)
#
#
# Indices 1 2 3 4 5 6 
#
# 1 0.005874 -0.000633 -0.001703 -0.000001 -0.002596 -0.000002
# 2 -0.000633 0.012094 -0.001861 -0.000005 -0.001721 0.000005
# 3 -0.001703 -0.001861 0.006898 -0.000001 0.000213 0.000007
# 4 -0.000001 -0.000005 -0.000001 0.039280 -0.000007 -0.012718
# 5 -0.002596 -0.001721 0.000213 -0.000007 0.020460 0.000003
# 6 -0.000002 0.000005 0.000007 -0.012718 0.000003 0.073105
#
#
# Mechanical properties :
#
#
# Convention : Reuss Voigt Hill
#
# Bulk Modulus (GPa) = 60.71070 74.51061 67.61065
# Shear Modulus (GPa) = 29.13832 42.19994 35.66913
#
# Velocity S-wave (km/s) = 3.44280 4.14319 3.80913
# Velocity P-wave (km/s) = 6.36394 7.29366 6.84460
#
# Compressibility (1/GPa) = 0.01647156
#
# Stress axis : x y z
#
# Youngs Moduli (GPa) = 170.24337 82.68590 144.97163
#
# Poissons Ratio (x) = 0.05237 0.24683
# Poissons Ratio (y) = 0.10783 0.26981
# Poissons Ratio (z) = 0.28986 0.15389
#
# Static dielectric constant tensor:
#      x y z
#    x 2.051770 -0.000010 0.011270 
#    y -0.000010 1.973690 0.000030 
#    z 0.011270 0.000030 1.934020 
# 
# From -- ./inp_files/47263.got.cif
#   From: 2010.05.17/outbox.cif.g08.bks.cpg/sg15_24_cif.got.tgz:47263.got - 2010.06.03 18:47:42.
