data_PCOD9287667
_publ_section_title
;
Structure prediction by ZEFSAII (Michael W. Deem and Ramdas Pophale) SiO2 
 PCOD9287667
Probable space group: C 2/C
;
_chemical_formula_sum "Si O2"
_cell_formula_units_Z 48
_cell_length_a 18.894333
_cell_length_b 8.971744
_cell_length_c 15.915207
_cell_angle_alpha 90.000000
_cell_angle_beta 125.185213
_cell_angle_gamma 90.000000
_cell_volume 2204.950519
_symmetry_space_group_name_H-M "C 2/C"
_symmetry_group_IT_number 15
_symmetry_cell_setting 'monoclinic'
loop_
_space_group_symop_operation_xyz
x,y,z
-x,y,1/2-z
-x,-y,-z
x,-y,1/2+z
1/2+x,1/2+y,z
1/2-x,1/2+y,1/2-z
1/2-x,1/2-y,-z
1/2+x,1/2-y,1/2+z
loop_
_atom_site_type_symbol
_atom_site_label
_atom_site_fract_x
_atom_site_fract_y
_atom_site_fract_z
Si Si1 0.234019 0.243417 0.721858
Si Si2 0.230172 0.083731 0.018477
Si Si3 0.585238 0.418488 0.025455
Si Si4 0.869867 0.583463 0.708036
Si Si5 0.303777 0.966298 0.397728
Si Si6 0.043133 0.604749 0.911260
O O1 0.151854 0.138293 0.643305
O O2 0.307817 0.207078 0.703912
O O3 0.276314 0.189683 0.837726
O O4 0.209211 0.412233 0.684557
O O5 0.142019 0.023750 0.001239
O O6 0.306600 0.047714 0.136329
O O7 0.250000 0.250000 0.000000
O O8 0.246823 0.996230 0.941533
O O9 0.500000 0.500000 0.000000
O O10 0.553277 0.264533 0.961475
O O11 0.913776 0.626882 0.650497
O O12 0.946051 0.553238 0.826068
O O13 0.401200 0.983778 0.498985
#
# Coordination Sequence:
#
# PCOD9287667 Si02
#       6
#     8   8   8   8   8   8
#     4  10  22  37  62  91 128 170 220 262 329 396
#     4  10  22  41  68  96 133 172 220 280 345 402
#     4  10  22  40  63  95 129 168 222 281 331 397
#     4   9  19  37  66  89 123 172 217 262 333 398
#     4  10  22  38  63  93 127 169 214 268 327 398
#     4   9  19  39  62  94 123 164 221 268 323 398
#
# _framework density 21.769195
#
# number of rings (size 3 to 8) (size 9 to 14) (size 15 to 20)
#    0.000    2.333    0.000    1.000    7.000    4.667 
#    0.000    8.333    0.000    0.000    0.000    0.000 
#    0.000    0.000    0.000    0.000    0.000    0.000 
#
# Total GULP energy -133930.788020 kJ/mol
# GULP energy per Si atom -5580.449501 kJ/mol
# Density = 2.171965 g / cm^3
# Si number density = 21.769195 Si / 1000 Ang^3
#
#
#
# Elastic Constant Matrix: (Units=GPa)
#
#
# Indices 1 2 3 4 5 6 
#
# 1 118.6331 47.1653 59.7579 0.0000 19.6547 0.0000
# 2 47.1653 73.0735 57.6871 0.0000 6.9397 0.0000
# 3 59.7579 57.6871 163.8691 0.0000 10.1343 0.0000
# 4 0.0000 0.0000 0.0000 26.3268 0.0000 -7.4512
# 5 19.6547 6.9397 10.1343 0.0000 31.1464 0.0000
# 6 0.0000 0.0000 0.0000 -7.4512 0.0000 28.1473
#
#
#
# Elastic Compliance Matrix: (Units=1/GPa)
#
#
# Indices 1 2 3 4 5 6 
#
# 1 0.012959 -0.006027 -0.002226 0.000000 -0.006111 0.000000
# 2 -0.006027 0.021889 -0.005553 0.000000 0.000733 0.000000
# 3 -0.002226 -0.005553 0.008885 0.000000 -0.000249 0.000000
# 4 0.000000 0.000000 0.000000 0.041060 0.000000 0.010870
# 5 -0.006111 0.000733 -0.000249 0.000000 0.035880 0.000000
# 6 0.000000 0.000000 0.000000 0.010870 0.000000 0.038405
#
#
# Mechanical properties :
#
#
# Convention : Reuss Voigt Hill
#
# Bulk Modulus (GPa) = 62.03303 76.08846 69.06074
# Shear Modulus (GPa) = 26.03297 29.85514 27.94405
#
# Velocity S-wave (km/s) = 3.46188 3.70731 3.58669
# Velocity P-wave (km/s) = 6.67361 7.30437 6.99610
#
# Compressibility (1/GPa) = 0.01612044
#
# Stress axis : x y z
#
# Youngs Moduli (GPa) = 77.16514 45.68486 112.55429
#
# Poissons Ratio (x) = 0.27533 0.25058
# Poissons Ratio (y) = 0.46505 0.62504
# Poissons Ratio (z) = 0.17180 0.25370
#
# Static dielectric constant tensor:
#      x y z
#    x 1.832730 0.000000 -0.028200 
#    y 0.000000 1.839630 0.000000 
#    z -0.028200 0.000000 1.812180 
# 
# From -- ./inp_files/214073.got.cif
#   From: 2010.05.17/outbox.cif.g08.bks.cpg/sg15_108_cif.got.tgz:214073.got - 2010.06.03 18:47:42.
