data_PCOD9287461
_publ_section_title
;
Structure prediction by ZEFSAII (Michael W. Deem and Ramdas Pophale) SiO2 
 PCOD9287461
Probable space group: C 2/C
;
_chemical_formula_sum "Si O2"
_cell_formula_units_Z 48
_cell_length_a 18.399720
_cell_length_b 9.480958
_cell_length_c 12.495519
_cell_angle_alpha 90.000000
_cell_angle_beta 69.750549
_cell_angle_gamma 90.000000
_cell_volume 2045.081825
_symmetry_space_group_name_H-M "C 2/C"
_symmetry_group_IT_number 15
_symmetry_cell_setting 'monoclinic'
loop_
_space_group_symop_operation_xyz
x,y,z
-x,y,1/2-z
-x,-y,-z
x,-y,1/2+z
1/2+x,1/2+y,z
1/2-x,1/2+y,1/2-z
1/2-x,1/2-y,-z
1/2+x,1/2-y,1/2+z
loop_
_atom_site_type_symbol
_atom_site_label
_atom_site_fract_x
_atom_site_fract_y
_atom_site_fract_z
Si Si1 0.066250 0.604027 0.927473
Si Si2 0.172280 0.529492 0.197696
Si Si3 0.147174 0.967930 0.434988
Si Si4 0.064484 0.129222 0.295613
Si Si5 0.340215 0.230537 0.930118
Si Si6 0.341756 0.270214 0.435904
O O1 0.130749 0.521371 0.825552
O O2 0.033875 0.726316 0.865478
O O3 0.109066 0.686225 0.000843
O O4 0.000000 0.500000 0.000000
O O5 0.144189 0.429791 0.112315
O O6 0.148675 0.689839 0.181451
O O7 0.264736 0.497094 0.152256
O O8 0.141414 0.068104 0.543660
O O9 0.126942 0.811016 0.483301
O O10 0.909449 0.976578 0.626725
O O11 0.136168 0.183104 0.187833
O O12 0.000000 0.070594 0.250000
O O13 0.250000 0.250000 0.000000
O O14 0.250000 0.250000 0.500000
#
# Coordination Sequence:
#
# PCOD9287461 Si02
#       6
#     8   8   8   8   8   8
#     4  10  22  36  62  96 129 167 215 267 326 383
#     4   9  19  36  63  97 121 161 212 266 315 387
#     4   9  19  38  60  91 125 163 208 264 322 381
#     4  10  22  39  60  89 132 171 211 267 323 384
#     4   9  19  37  63  89 118 163 216 255 315 386
#     4   9  19  37  60  87 126 159 202 267 324 371
#
# _framework density 23.470943999999999
#
# number of rings (size 3 to 8) (size 9 to 14) (size 15 to 20)
#    0.000    2.667    0.000    0.000    4.667    4.667 
#    0.000    5.000    7.333    0.000    0.000    0.000 
#    0.000    0.000    0.000    0.000    0.000    0.000 
#
# Total GULP energy -134034.461111 kJ/mol
# GULP energy per Si atom -5584.769213 kJ/mol
# Density = 2.341752 g / cm^3
# Si number density = 23.470944 Si / 1000 Ang^3
#
#
#
# Elastic Constant Matrix: (Units=GPa)
#
#
# Indices 1 2 3 4 5 6 
#
# 1 89.0843 39.7033 26.0187 0.0000 3.3188 0.0000
# 2 39.7033 60.8839 27.0020 0.0000 -6.6137 0.0000
# 3 26.0187 27.0020 72.7936 0.0000 -29.4994 0.0000
# 4 0.0000 0.0000 0.0000 36.7823 0.0000 0.2220
# 5 3.3188 -6.6137 -29.4994 0.0000 34.2079 0.0000
# 6 0.0000 0.0000 0.0000 0.2220 0.0000 28.1417
#
#
#
# Elastic Compliance Matrix: (Units=1/GPa)
#
#
# Indices 1 2 3 4 5 6 
#
# 1 0.017797 -0.009732 -0.006477 0.000000 -0.009194 0.000000
# 2 -0.009732 0.025311 -0.005449 0.000000 0.001139 0.000000
# 3 -0.006477 -0.005449 0.027518 0.000000 0.023305 0.000000
# 4 0.000000 0.000000 0.000000 0.027188 0.000000 -0.000214
# 5 -0.009194 0.001139 0.023305 0.000000 0.050443 0.000000
# 6 0.000000 0.000000 0.000000 -0.000214 0.000000 0.035536
#
#
# Mechanical properties :
#
#
# Convention : Reuss Voigt Hill
#
# Bulk Modulus (GPa) = 36.61530 45.35663 40.98596
# Shear Modulus (GPa) = 21.16740 28.49556 24.83148
#
# Velocity S-wave (km/s) = 3.00635 3.48814 3.25617
# Velocity P-wave (km/s) = 5.26165 5.96568 5.62469
#
# Compressibility (1/GPa) = 0.02731099
#
# Stress axis : x y z
#
# Youngs Moduli (GPa) = 56.18996 39.50814 36.33957
#
# Poissons Ratio (x) = 0.38448 0.23537
# Poissons Ratio (y) = 0.54682 0.19801
# Poissons Ratio (z) = 0.36394 0.21528
#
# Static dielectric constant tensor:
#      x y z
#    x 1.917480 0.000000 -0.011550 
#    y 0.000000 1.958430 0.000000 
#    z -0.011550 0.000000 1.869700 
# 
# From -- ./inp_files/110863.got.cif
#   From: 2010.05.17/outbox.cif.g08.bks.cpg/sg15_56_cif.got.tgz:110863.got - 2010.06.03 18:47:42.
