data_PCOD9287974
_publ_section_title
;
Structure prediction by ZEFSAII (Michael W. Deem and Ramdas Pophale) SiO2 
 PCOD9287974
Probable space group: C 2/C
;
_chemical_formula_sum "Si O2"
_cell_formula_units_Z 44
_cell_length_a 10.186697
_cell_length_b 18.082693
_cell_length_c 11.236868
_cell_angle_alpha 90.000000
_cell_angle_beta 110.856782
_cell_angle_gamma 90.000000
_cell_volume 1934.232478
_symmetry_space_group_name_H-M "C 2/C"
_symmetry_group_IT_number 15
_symmetry_cell_setting 'monoclinic'
loop_
_space_group_symop_operation_xyz
x,y,z
-x,y,1/2-z
-x,-y,-z
x,-y,1/2+z
1/2+x,1/2+y,z
1/2-x,1/2+y,1/2-z
1/2-x,1/2-y,-z
1/2+x,1/2-y,1/2+z
loop_
_atom_site_type_symbol
_atom_site_label
_atom_site_fract_x
_atom_site_fract_y
_atom_site_fract_z
Si Si1 0.241878 0.887312 0.509333
Si Si2 0.158431 0.322305 0.438688
Si Si3 0.701164 0.033804 0.116577
Si Si4 0.826762 0.702496 0.815100
Si Si5 0.382827 0.637998 0.309178
Si Si6 0.500000 0.934654 0.750000
O O1 0.254359 0.828058 0.408859
O O2 0.103872 0.874317 0.545312
O O3 0.377101 0.888626 0.643347
O O4 0.253590 0.965816 0.448078
O O5 0.250000 0.250000 0.500000
O O6 0.176990 0.393142 0.528704
O O7 0.196364 0.342052 0.314255
O O8 0.994563 0.300403 0.391713
O O9 0.821680 0.060906 0.243960
O O10 0.570378 0.019828 0.163833
O O11 0.789688 0.787420 0.776248
O O12 0.500000 0.655250 0.250000
#
# Coordination Sequence:
#
# PCOD9287974 Si02
#       6
#     8   8   8   8   8   4
#     4  11  25  38  67  97 128 166 213 272 325 386
#     4  11  21  38  65  95 130 173 207 256 321 386
#     4  11  23  40  64  94 128 166 210 269 328 385
#     4  11  22  39  67  95 127 169 214 264 315 393
#     4  11  23  45  62  87 128 172 218 266 321 385
#     4  10  22  38  60  96 134 154 198 272 334 384
#
# _framework density 22.74804
#
# number of rings (size 3 to 8) (size 9 to 14) (size 15 to 20)
#    0.000    1.091    5.455    1.091    5.091    0.727 
#    0.000    0.000    0.000    0.000    0.000    0.000 
#    0.000    0.000    0.000    0.000    0.000    0.000 
#
# Total GULP energy -122749.138771 kJ/mol
# GULP energy per Si atom -5579.506308 kJ/mol
# Density = 2.269626 g / cm^3
# Si number density = 22.748040 Si / 1000 Ang^3
#
#
#
# Elastic Constant Matrix: (Units=GPa)
#
#
# Indices 1 2 3 4 5 6 
#
# 1 75.7537 46.8001 57.4716 0.0000 -60.0458 0.0000
# 2 46.8001 97.8421 40.5703 0.0000 -36.3765 0.0000
# 3 57.4716 40.5703 121.1835 0.0000 -57.2615 0.0000
# 4 0.0000 0.0000 0.0000 40.9390 0.0000 -12.0564
# 5 -60.0458 -36.3765 -57.2615 0.0000 55.1686 0.0000
# 6 0.0000 0.0000 0.0000 -12.0564 0.0000 15.2750
#
#
#
# Elastic Compliance Matrix: (Units=1/GPa)
#
#
# Indices 1 2 3 4 5 6 
#
# 1 0.107878 -0.010870 0.008972 0.000000 0.119560 0.000000
# 2 -0.010870 0.014659 -0.001522 0.000000 -0.003745 0.000000
# 3 0.008972 -0.001522 0.016969 0.000000 0.026374 0.000000
# 4 0.000000 0.000000 0.000000 0.031824 0.000000 0.025118
# 5 0.119560 -0.003745 0.026374 0.000000 0.173162 0.000000
# 6 0.000000 0.000000 0.000000 0.025118 0.000000 0.085292
#
#
# Mechanical properties :
#
#
# Convention : Reuss Voigt Hill
#
# Bulk Modulus (GPa) = 7.53773 64.94035 36.23904
# Shear Modulus (GPa) = 10.39839 32.27235 21.33537
#
# Velocity S-wave (km/s) = 2.14034 3.77063 3.06584
# Velocity P-wave (km/s) = 3.07064 6.89685 5.33832
#
# Compressibility (1/GPa) = 0.13266591
#
# Stress axis : x y z
#
# Youngs Moduli (GPa) = 9.26974 68.21967 58.93173
#
# Poissons Ratio (x) = 0.74153 -0.52875
# Poissons Ratio (y) = 0.10076 0.08970
# Poissons Ratio (z) = -0.08317 0.10384
#
# Static dielectric constant tensor:
#      x y z
#    x 1.957840 0.000000 0.011720 
#    y 0.000000 1.823560 0.000000 
#    z 0.011720 0.000000 1.899980 
# 
# From -- ./inp_files/87531.got.cif
#   From: 2010.05.17/outbox.cif.g08.bks.cpg/sg15_44_cif.got.tgz:87531.got - 2010.06.03 18:47:42.
