data_PCOD9287758
_publ_section_title
;
Structure prediction by ZEFSAII (Michael W. Deem and Ramdas Pophale) SiO2 
 PCOD9287758
Probable space group: C 2/C
;
_chemical_formula_sum "Si O2"
_cell_formula_units_Z 48
_cell_length_a 10.059839
_cell_length_b 23.909088
_cell_length_c 11.479518
_cell_angle_alpha 90.000000
_cell_angle_beta 83.612378
_cell_angle_gamma 90.000000
_cell_volume 2743.930964
_symmetry_space_group_name_H-M "C 2/C"
_symmetry_group_IT_number 15
_symmetry_cell_setting 'monoclinic'
loop_
_space_group_symop_operation_xyz
x,y,z
-x,y,1/2-z
-x,-y,-z
x,-y,1/2+z
1/2+x,1/2+y,z
1/2-x,1/2+y,1/2-z
1/2-x,1/2-y,-z
1/2+x,1/2-y,1/2+z
loop_
_atom_site_type_symbol
_atom_site_label
_atom_site_fract_x
_atom_site_fract_y
_atom_site_fract_z
Si Si1 0.873244 0.557013 0.820532
Si Si2 0.140363 0.859940 0.288774
Si Si3 0.318120 0.790501 0.092235
Si Si4 0.967469 0.381725 0.522579
Si Si5 0.196826 0.188099 0.031382
Si Si6 0.500000 0.717611 0.250000
Si Si7 0.000000 0.551516 0.250000
O O1 0.740324 0.588591 0.800233
O O2 0.879879 0.493845 0.774180
O O3 0.000000 0.588771 0.750000
O O4 0.920136 0.565507 0.947757
O O5 0.207948 0.818457 0.187868
O O6 0.128292 0.832053 0.417760
O O7 0.000000 0.877671 0.250000
O O8 0.411704 0.754701 0.170026
O O9 0.250000 0.750000 0.000000
O O10 0.413030 0.840265 0.031130
O O11 0.831597 0.346286 0.540560
O O12 0.003422 0.408905 0.640158
O O13 0.099790 0.185516 0.152405
O O14 0.250000 0.250000 0.000000
#
# Coordination Sequence:
#
# PCOD9287758 Si02
#       7
#     8   8   8   8   8   4   4
#     4   9  19  40  65  84 112 159 200 259 314 351
#     4  11  22  38  61  91 119 161 214 247 306 378
#     4  12  23  34  60  86 127 165 206 245 300 374
#     4  11  22  38  62  95 115 162 207 251 305 367
#     4  11  22  38  61  84 130 166 200 246 304 360
#     4  12  22  41  54  82 130 176 199 242 300 360
#     4  10  22  37  68  90 116 144 219 274 294 354
#
# _framework density 17.493151999999998
#
# number of rings (size 3 to 8) (size 9 to 14) (size 15 to 20)
#    0.500    0.667    5.000    2.500    2.333    0.000 
#    0.000    0.000    1.833    3.000    0.000    0.000 
#    0.000    0.000    0.000    0.000    0.000    0.000 
#
# Total GULP energy -133611.614215 kJ/mol
# GULP energy per Si atom -5567.150592 kJ/mol
# Density = 1.745334 g / cm^3
# Si number density = 17.493152 Si / 1000 Ang^3
#
#
#
# Elastic Constant Matrix: (Units=GPa)
#
#
# Indices 1 2 3 4 5 6 
#
# 1 91.9387 15.7328 47.8275 0.0000 14.9205 0.0000
# 2 15.7328 54.0193 43.8846 0.0000 10.6885 0.0000
# 3 47.8275 43.8846 128.7497 0.0000 0.0224 0.0000
# 4 0.0000 0.0000 0.0000 21.1162 0.0000 -7.1723
# 5 14.9205 10.6885 0.0224 0.0000 33.8465 0.0000
# 6 0.0000 0.0000 0.0000 -7.1723 0.0000 1.3390
#
#
#
# Elastic Compliance Matrix: (Units=1/GPa)
#
#
# Indices 1 2 3 4 5 6 
#
# 1 0.014965 0.002212 -0.006312 0.000000 -0.007291 0.000000
# 2 0.002212 0.028345 -0.010482 0.000000 -0.009919 0.000000
# 3 -0.006312 -0.010482 0.013683 0.000000 0.006083 0.000000
# 4 0.000000 0.000000 0.000000 -0.057799 0.000000 -0.309595
# 5 -0.007291 -0.009919 0.006083 0.000000 0.035888 0.000000
# 6 0.000000 0.000000 0.000000 -0.309595 0.000000 -0.911494
#
#
# Mechanical properties :
#
#
# Convention : Reuss Voigt Hill
#
# Bulk Modulus (GPa) = 35.93140 54.39972 45.16556
# Shear Modulus (GPa) = -5.96679 22.41118 8.22219
#
# Velocity S-wave (km/s) = -1.84887 3.58318 2.17035
# Velocity P-wave (km/s) = 4.00338 6.94868 5.67059
#
# Compressibility (1/GPa) = 0.02783081
#
# Stress axis : x y z
#
# Youngs Moduli (GPa) = 66.82224 35.27902 73.08187
#
# Poissons Ratio (x) = -0.07803 0.46128
# Poissons Ratio (y) = -0.14780 0.76601
# Poissons Ratio (z) = 0.42177 0.36978
#
# Static dielectric constant tensor:
#      x y z
#    x 1.567260 0.000000 0.000460 
#    y 0.000000 1.597110 0.000000 
#    z 0.000460 0.000000 1.688300 
# 
# From -- ./inp_files/80230.got.cif
#   From: 2010.05.17/outbox.cif.g08.bks.cpg/sg15_41_cif.got.tgz:80230.got - 2010.06.03 18:47:42.
