data_PCOD9287728
_publ_section_title
;
Structure prediction by ZEFSAII (Michael W. Deem and Ramdas Pophale) SiO2 
 PCOD9287728
Probable space group: C 2/C
;
_chemical_formula_sum "Si O2"
_cell_formula_units_Z 56
_cell_length_a 13.057266
_cell_length_b 20.307059
_cell_length_c 12.952153
_cell_angle_alpha 90.000000
_cell_angle_beta 53.577742
_cell_angle_gamma 90.000000
_cell_volume 2763.474061
_symmetry_space_group_name_H-M "C 2/C"
_symmetry_group_IT_number 15
_symmetry_cell_setting 'monoclinic'
loop_
_space_group_symop_operation_xyz
x,y,z
-x,y,1/2-z
-x,-y,-z
x,-y,1/2+z
1/2+x,1/2+y,z
1/2-x,1/2+y,1/2-z
1/2-x,1/2-y,-z
1/2+x,1/2-y,1/2+z
loop_
_atom_site_type_symbol
_atom_site_label
_atom_site_fract_x
_atom_site_fract_y
_atom_site_fract_z
Si Si1 0.500000 0.773149 0.750000
Si Si2 0.717316 0.195639 0.429539
Si Si3 0.632392 0.477486 0.971549
Si Si4 0.062527 0.293894 0.495353
Si Si5 0.000000 0.936757 0.250000
Si Si6 0.384407 0.344274 0.631300
Si Si7 0.681511 0.666776 0.745312
Si Si8 0.674405 0.616893 0.968234
O O1 0.552475 0.811444 0.621308
O O2 0.610408 0.728311 0.734887
O O3 0.750000 0.250000 0.500000
O O4 0.571581 0.198664 0.481546
O O5 0.805904 0.186849 0.274168
O O6 0.745286 0.130790 0.479126
O O7 0.671760 0.408390 0.895215
O O8 0.500000 0.500000 0.000000
O O9 0.596705 0.471841 0.114058
O O10 0.711425 0.543802 0.908655
O O11 0.097529 0.216096 0.459965
O O12 0.176852 0.335655 0.381093
O O13 0.911764 0.892456 0.229004
O O14 0.524480 0.369610 0.583393
O O15 0.694048 0.666623 0.860789
#
# Coordination Sequence:
#
# PCOD9287728 Si02
#       8
#     4   8   8   8   4   8   8   8
#     4  11  20  40  56  88 118 166 214 255 312 373
#     4  12  25  39  62  97 137 176 211 261 338 405
#     4  10  22  37  65  97 119 163 218 281 325 360
#     4  12  24  39  62  91 132 171 202 261 329 404
#     4  11  20  40  64  96 124 154 218 277 320 377
#     4  11  21  39  61  93 127 162 216 267 314 382
#     4  11  22  38  62  91 127 160 211 259 325 383
#     4  11  22  40  62  98 124 166 214 269 329 379
#
# _framework density 20.264347000000001
#
# number of rings (size 3 to 8) (size 9 to 14) (size 15 to 20)
#    0.000    0.857    5.714    3.429    4.000    2.857 
#    0.000    0.000    0.000    5.143    0.000    0.000 
#    0.000    0.000    0.000    0.000    0.000    0.000 
#
# Total GULP energy -156098.990338 kJ/mol
# GULP energy per Si atom -5574.963941 kJ/mol
# Density = 2.021822 g / cm^3
# Si number density = 20.264347 Si / 1000 Ang^3
#
#
#
# Elastic Constant Matrix: (Units=GPa)
#
#
# Indices 1 2 3 4 5 6 
#
# 1 74.0189 14.6143 52.1790 0.0000 1.8499 0.0000
# 2 14.6143 56.2032 14.0519 0.0000 -5.4927 0.0000
# 3 52.1790 14.0519 134.1812 0.0000 1.6162 0.0000
# 4 0.0000 0.0000 0.0000 24.8932 0.0000 7.1188
# 5 1.8499 -5.4927 1.6162 0.0000 33.6736 0.0000
# 6 0.0000 0.0000 0.0000 7.1188 0.0000 4.8817
#
#
#
# Elastic Compliance Matrix: (Units=1/GPa)
#
#
# Indices 1 2 3 4 5 6 
#
# 1 0.019210 -0.003342 -0.007105 0.000000 -0.001259 0.000000
# 2 -0.003342 0.019176 -0.000749 0.000000 0.003347 0.000000
# 3 -0.007105 -0.000749 0.010297 0.000000 -0.000226 0.000000
# 4 0.000000 0.000000 0.000000 0.068908 0.000000 -0.100485
# 5 -0.001259 0.003347 -0.000226 0.000000 0.030323 0.000000
# 6 0.000000 0.000000 0.000000 -0.100485 0.000000 0.351381
#
#
# Mechanical properties :
#
#
# Convention : Reuss Voigt Hill
#
# Bulk Modulus (GPa) = 38.03581 47.34375 42.68978
# Shear Modulus (GPa) = 9.42598 24.92691 17.17645
#
# Velocity S-wave (km/s) = 2.15908 3.51106 2.91455
# Velocity P-wave (km/s) = 5.00260 6.31273 5.69546
#
# Compressibility (1/GPa) = 0.02629102
#
# Stress axis : x y z
#
# Youngs Moduli (GPa) = 52.05631 52.14875 97.11845
#
# Poissons Ratio (x) = 0.17427 0.69003
# Poissons Ratio (y) = 0.17396 0.07274
# Poissons Ratio (z) = 0.36986 0.03906
#
# Static dielectric constant tensor:
#      x y z
#    x 1.708200 0.000000 0.019030 
#    y 0.000000 1.831050 0.000000 
#    z 0.019030 0.000000 1.799530 
# 
# From -- ./inp_files/90732.got.cif
#   From: 2010.05.17/outbox.cif.g08.bks.cpg/sg15_46_cif.got.tgz:90732.got - 2010.06.03 18:47:42.
