data_PCOD9287210
_publ_section_title
;
Structure prediction by ZEFSAII (Michael W. Deem and Ramdas Pophale) SiO2 
 PCOD9287210
Probable space group: C 2/C
;
_chemical_formula_sum "Si O2"
_cell_formula_units_Z 40
_cell_length_a 23.250487
_cell_length_b 15.791475
_cell_length_c 9.895967
_cell_angle_alpha 90.000000
_cell_angle_beta 150.385451
_cell_angle_gamma 90.000000
_cell_volume 1795.489616
_symmetry_space_group_name_H-M "C 2/C"
_symmetry_group_IT_number 15
_symmetry_cell_setting 'monoclinic'
loop_
_space_group_symop_operation_xyz
x,y,z
-x,y,1/2-z
-x,-y,-z
x,-y,1/2+z
1/2+x,1/2+y,z
1/2-x,1/2+y,1/2-z
1/2-x,1/2-y,-z
1/2+x,1/2-y,1/2+z
loop_
_atom_site_type_symbol
_atom_site_label
_atom_site_fract_x
_atom_site_fract_y
_atom_site_fract_z
Si Si1 0.918236 0.548990 0.940810
Si Si2 0.963159 0.875848 0.518474
Si Si3 0.525876 0.183995 0.015468
Si Si4 0.825319 0.041414 0.211242
Si Si5 0.160983 0.397742 0.571493
O O1 0.980280 0.640388 0.059321
O O2 0.790247 0.553171 0.613236
O O3 0.889572 0.493705 0.015031
O O4 0.000000 0.500000 0.000000
O O5 0.000000 0.866440 0.750000
O O6 0.947265 0.782409 0.426917
O O7 0.068078 0.916335 0.647513
O O8 0.858593 0.943565 0.300917
O O9 0.418739 0.159061 0.692374
O O10 0.637363 0.141042 0.170336
O O11 0.789577 0.089000 0.277296
#
# Coordination Sequence:
#
# PCOD9287210 Si02
#       5
#     8   8   8   8   8
#     4   9  18  34  58  84 115 151 187 242 290 338
#     4  11  21  38  56  84 121 155 196 240 290 353
#     4   9  18  34  59  84 112 149 202 240 277 351
#     4  10  22  34  56  87 117 158 192 232 305 352
#     4   9  16  34  54  84 113 147 192 237 284 339
#
# _framework density 22.278044999999999
#
# number of rings (size 3 to 8) (size 9 to 14) (size 15 to 20)
#    0.000    2.400    2.000    2.400    0.000    3.200 
#    3.600    4.000    0.000    0.000   52.000    0.000 
#    0.000    0.000    0.000    0.000    0.000    0.000 
#
# Total GULP energy -111425.909075 kJ/mol
# GULP energy per Si atom -5571.295454 kJ/mol
# Density = 2.222734 g / cm^3
# Si number density = 22.278045 Si / 1000 Ang^3
#
#
#
# Elastic Constant Matrix: (Units=GPa)
#
#
# Indices 1 2 3 4 5 6 
#
# 1 93.1383 41.3424 31.6361 0.0000 17.4816 0.0000
# 2 41.3424 148.0402 18.6370 0.0000 12.9451 0.0000
# 3 31.6361 18.6370 46.2305 0.0000 23.0388 0.0000
# 4 0.0000 0.0000 0.0000 14.1983 0.0000 -1.2272
# 5 17.4816 12.9451 23.0388 0.0000 37.4768 0.0000
# 6 0.0000 0.0000 0.0000 -1.2272 0.0000 26.2167
#
#
#
# Elastic Compliance Matrix: (Units=1/GPa)
#
#
# Indices 1 2 3 4 5 6 
#
# 1 0.015235 -0.003085 -0.008897 0.000000 -0.000572 0.000000
# 2 -0.003085 0.007767 -0.000577 0.000000 -0.000889 0.000000
# 3 -0.008897 -0.000577 0.037172 0.000000 -0.018502 0.000000
# 4 0.000000 0.000000 0.000000 0.070717 0.000000 0.003310
# 5 -0.000572 -0.000889 -0.018502 0.000000 0.038631 0.000000
# 6 0.000000 0.000000 0.000000 0.003310 0.000000 0.038299
#
#
# Mechanical properties :
#
#
# Convention : Reuss Voigt Hill
#
# Bulk Modulus (GPa) = 28.52553 52.29333 40.40943
# Shear Modulus (GPa) = 20.43948 28.63126 24.53537
#
# Velocity S-wave (km/s) = 3.03227 3.58883 3.32222
# Velocity P-wave (km/s) = 5.00916 6.37941 5.73535
#
# Compressibility (1/GPa) = 0.03505632
#
# Stress axis : x y z
#
# Youngs Moduli (GPa) = 65.63677 128.75409 26.90173
#
# Poissons Ratio (x) = 0.39716 0.23935
# Poissons Ratio (y) = 0.20246 0.01553
# Poissons Ratio (z) = 0.58399 0.07431
#
# Static dielectric constant tensor:
#      x y z
#    x 1.897940 0.000000 -0.104340 
#    y 0.000000 1.895190 0.000000 
#    z -0.104340 0.000000 1.918460 
# 
# From -- ./inp_files/118875.got.cif
#   From: 2010.05.17/outbox.cif.g08.bks.cpg/sg15_60_cif.got.tgz:118875.got - 2010.06.03 18:47:42.
