data_PCOD9287704
_publ_section_title
;
Structure prediction by ZEFSAII (Michael W. Deem and Ramdas Pophale) SiO2 
 PCOD9287704
Probable space group: C 2/C
;
_chemical_formula_sum "Si O2"
_cell_formula_units_Z 52
_cell_length_a 28.722313
_cell_length_b 14.879606
_cell_length_c 8.096659
_cell_angle_alpha 90.000000
_cell_angle_beta 139.546280
_cell_angle_gamma 90.000000
_cell_volume 2245.174191
_symmetry_space_group_name_H-M "C 2/C"
_symmetry_group_IT_number 15
_symmetry_cell_setting 'monoclinic'
loop_
_space_group_symop_operation_xyz
x,y,z
-x,y,1/2-z
-x,-y,-z
x,-y,1/2+z
1/2+x,1/2+y,z
1/2-x,1/2+y,1/2-z
1/2-x,1/2-y,-z
1/2+x,1/2-y,1/2+z
loop_
_atom_site_type_symbol
_atom_site_label
_atom_site_fract_x
_atom_site_fract_y
_atom_site_fract_z
Si Si1 0.589110 0.059564 0.335009
Si Si2 0.341868 0.686362 0.175632
Si Si3 0.021472 0.901450 0.501151
Si Si4 0.500000 0.727954 0.250000
Si Si5 0.646185 0.173139 0.203703
Si Si6 0.574036 0.125099 0.638165
Si Si7 0.229812 0.210430 0.177179
O O1 0.635598 0.099157 0.314045
O O2 0.612018 0.081262 0.580290
O O3 0.583758 0.952633 0.302825
O O4 0.512666 0.113841 0.113226
O O5 0.392407 0.606196 0.258779
O O6 0.393691 0.774656 0.296078
O O7 0.314673 0.674011 0.288655
O O8 0.274204 0.706200 0.877002
O O9 0.000000 0.882849 0.250000
O O10 0.993435 0.832457 0.566852
O O11 0.000000 0.000000 0.500000
O O12 0.570101 0.791247 0.429550
O O13 0.706347 0.151731 0.229247
O O14 0.678802 0.257708 0.393524
#
# Coordination Sequence:
#
# PCOD9287704 Si02
#       7
#     8   8   8   4   8   8   8
#     4  10  22  37  64 101 143 165 225 289 352 419
#     4  11  22  44  71  97 139 192 235 293 367 441
#     4  12  26  45  75 106 144 184 247 318 368 425
#     4  12  24  44  78 110 138 190 242 306 386 422
#     4  11  22  42  70 104 136 184 240 295 353 452
#     4  10  22  38  63 103 133 177 218 287 359 423
#     4  10  23  40  71  96 137 189 250 285 361 447
#
# _framework density 23.160785000000001
#
# number of rings (size 3 to 8) (size 9 to 14) (size 15 to 20)
#    0.000    1.231    3.846    1.846    4.308    1.231 
#    0.000    0.000   33.846    0.000    0.000    0.000 
#    0.000    0.000    0.000    0.000    0.000    0.000 
#
# Total GULP energy -145110.850990 kJ/mol
# GULP energy per Si atom -5581.186577 kJ/mol
# Density = 2.310807 g / cm^3
# Si number density = 23.160785 Si / 1000 Ang^3
#
#
#
# Elastic Constant Matrix: (Units=GPa)
#
#
# Indices 1 2 3 4 5 6 
#
# 1 183.8373 54.5468 11.8315 0.0000 0.0861 0.0000
# 2 54.5468 99.0982 17.6415 0.0000 10.6888 0.0000
# 3 11.8315 17.6415 50.0138 0.0000 9.8797 0.0000
# 4 0.0000 0.0000 0.0000 17.3163 0.0000 -3.0896
# 5 0.0861 10.6888 9.8797 0.0000 48.4334 0.0000
# 6 0.0000 0.0000 0.0000 -3.0896 0.0000 41.7658
#
#
#
# Elastic Compliance Matrix: (Units=1/GPa)
#
#
# Indices 1 2 3 4 5 6 
#
# 1 0.006541 -0.003616 -0.000445 0.000000 0.000877 0.000000
# 2 -0.003616 0.012897 -0.003264 0.000000 -0.002174 0.000000
# 3 -0.000445 -0.003264 0.021995 0.000000 -0.003765 0.000000
# 4 0.000000 0.000000 0.000000 0.058522 0.000000 0.004329
# 5 0.000877 -0.002174 -0.003765 0.000000 0.021893 0.000000
# 6 0.000000 0.000000 0.000000 0.004329 0.000000 0.024263
#
#
# Mechanical properties :
#
#
# Convention : Reuss Voigt Hill
#
# Bulk Modulus (GPa) = 37.33827 55.66545 46.50186
# Shear Modulus (GPa) = 29.46585 38.09840 33.78213
#
# Velocity S-wave (km/s) = 3.57070 4.06020 3.82329
# Velocity P-wave (km/s) = 5.75814 6.78726 6.29377
#
# Compressibility (1/GPa) = 0.02678217
#
# Stress axis : x y z
#
# Youngs Moduli (GPa) = 152.89118 77.53929 45.46474
#
# Poissons Ratio (x) = 0.28034 0.02024
# Poissons Ratio (y) = 0.55278 0.14841
# Poissons Ratio (z) = 0.06807 0.25312
#
# Static dielectric constant tensor:
#      x y z
#    x 1.944210 0.000000 -0.078520 
#    y 0.000000 1.861270 0.000000 
#    z -0.078520 0.000000 2.032360 
# 
# From -- ./inp_files/70212.got.cif
#   From: 2010.05.17/outbox.cif.g08.bks.cpg/sg15_36_cif.got.tgz:70212.got - 2010.06.03 18:47:42.
