data_PCOD9287034
_publ_section_title
;
Structure prediction by ZEFSAII (Michael W. Deem and Ramdas Pophale) SiO2 
 PCOD9287034
Probable space group: C 2/C
;
_chemical_formula_sum "Si O2"
_cell_formula_units_Z 32
_cell_length_a 10.394687
_cell_length_b 12.513809
_cell_length_c 8.969963
_cell_angle_alpha 90.000000
_cell_angle_beta 95.414681
_cell_angle_gamma 90.000000
_cell_volume 1161.580607
_symmetry_space_group_name_H-M "C 2/C"
_symmetry_group_IT_number 15
_symmetry_cell_setting 'monoclinic'
loop_
_space_group_symop_operation_xyz
x,y,z
-x,y,1/2-z
-x,-y,-z
x,-y,1/2+z
1/2+x,1/2+y,z
1/2-x,1/2+y,1/2-z
1/2-x,1/2-y,-z
1/2+x,1/2-y,1/2+z
loop_
_atom_site_type_symbol
_atom_site_label
_atom_site_fract_x
_atom_site_fract_y
_atom_site_fract_z
Si Si1 0.186808 0.556236 0.203503
Si Si2 0.696782 0.382772 0.481320
Si Si3 0.832682 0.670504 0.723705
Si Si4 0.934331 0.760617 0.447557
O O1 0.271318 0.610946 0.341356
O O2 0.128846 0.453478 0.280888
O O3 0.085911 0.640761 0.123731
O O4 0.280293 0.500478 0.090855
O O5 0.691999 0.179972 0.601192
O O6 0.558024 0.332991 0.429305
O O7 0.916738 0.741554 0.622155
O O8 0.690731 0.682249 0.635634
#
# Coordination Sequence:
#
# PCOD9287034 Si02
#       4
#     8   8   8   8
#     4  10  21  45  74 115 152 196 272 315 386 492
#     4  10  22  44  75 116 152 208 260 321 404 469
#     4   9  21  43  66 115 150 197 267 312 388 483
#     4  11  21  43  76 109 162 198 259 336 386 465
#
# _framework density 27.548667999999999
#
# number of rings (size 3 to 8) (size 9 to 14) (size 15 to 20)
#    1.500    0.500    2.500    0.750    0.000    2.000 
#    9.000    5.000    0.000   21.000    0.000    0.000 
#    0.000    0.000    0.000    0.000    0.000    0.000 
#
# Total GULP energy -89471.303905 kJ/mol
# GULP energy per Si atom -5591.956494 kJ/mol
# Density = 2.748597 g / cm^3
# Si number density = 27.548668 Si / 1000 Ang^3
#
#
#
# Elastic Constant Matrix: (Units=GPa)
#
#
# Indices 1 2 3 4 5 6 
#
# 1 159.7830 28.9329 62.1921 0.0000 -16.0072 0.0000
# 2 28.9329 101.1219 39.2497 0.0000 -6.3010 0.0000
# 3 62.1921 39.2497 209.9207 0.0000 -13.8148 0.0000
# 4 0.0000 0.0000 0.0000 43.0829 0.0000 -13.8884
# 5 -16.0072 -6.3010 -13.8148 0.0000 43.2944 0.0000
# 6 0.0000 0.0000 0.0000 -13.8884 0.0000 21.5227
#
#
#
# Elastic Compliance Matrix: (Units=1/GPa)
#
#
# Indices 1 2 3 4 5 6 
#
# 1 0.007398 -0.001287 -0.001822 0.000000 0.001967 0.000000
# 2 -0.001287 0.010924 -0.001622 0.000000 0.000596 0.000000
# 3 -0.001822 -0.001622 0.005666 0.000000 0.000898 0.000000
# 4 0.000000 0.000000 0.000000 0.029308 0.000000 0.018912
# 5 0.001967 0.000596 0.000898 0.000000 0.024198 0.000000
# 6 0.000000 0.000000 0.000000 0.018912 0.000000 0.058666
#
#
# Mechanical properties :
#
#
# Convention : Reuss Voigt Hill
#
# Bulk Modulus (GPa) = 68.84101 81.28611 75.06356
# Shear Modulus (GPa) = 33.23092 44.27674 38.75383
#
# Velocity S-wave (km/s) = 3.47690 4.01336 3.75472
# Velocity P-wave (km/s) = 6.41573 7.14469 6.78999
#
# Compressibility (1/GPa) = 0.01452622
#
# Stress axis : x y z
#
# Youngs Moduli (GPa) = 135.17972 91.54152 176.49895
#
# Poissons Ratio (x) = 0.11782 0.32151
# Poissons Ratio (y) = 0.17398 0.28627
# Poissons Ratio (z) = 0.24624 0.14848
#
# Static dielectric constant tensor:
#      x y z
#    x 2.207870 0.000000 -0.064980 
#    y 0.000000 2.278340 0.000000 
#    z -0.064980 0.000000 2.137610 
# 
# From -- ./inp_files/36886.got.cif
#   From: 2010.05.17/outbox.cif.g08.bks.cpg/sg15_19_cif.got.tgz:36886.got - 2010.06.03 18:47:42.
