data_PCOD9287376
_publ_section_title
;
Structure prediction by ZEFSAII (Michael W. Deem and Ramdas Pophale) SiO2 
 PCOD9287376
Probable space group: C 2/C
;
_chemical_formula_sum "Si O2"
_cell_formula_units_Z 56
_cell_length_a 14.051976
_cell_length_b 14.301000
_cell_length_c 18.633486
_cell_angle_alpha 90.000000
_cell_angle_beta 45.072324
_cell_angle_gamma 90.000000
_cell_volume 2651.126401
_symmetry_space_group_name_H-M "C 2/C"
_symmetry_group_IT_number 15
_symmetry_cell_setting 'monoclinic'
loop_
_space_group_symop_operation_xyz
x,y,z
-x,y,1/2-z
-x,-y,-z
x,-y,1/2+z
1/2+x,1/2+y,z
1/2-x,1/2+y,1/2-z
1/2-x,1/2-y,-z
1/2+x,1/2-y,1/2+z
loop_
_atom_site_type_symbol
_atom_site_label
_atom_site_fract_x
_atom_site_fract_y
_atom_site_fract_z
Si Si1 0.211987 0.034748 0.880978
Si Si2 0.581390 0.347047 0.569200
Si Si3 0.248308 0.936621 0.594166
Si Si4 0.000000 0.603445 0.750000
Si Si5 0.502646 0.848930 0.087883
Si Si6 0.220632 0.875241 0.763961
Si Si7 0.301719 0.331659 0.247507
Si Si8 0.000000 0.074014 0.750000
O O1 0.364656 0.044583 0.825539
O O2 0.187453 0.110960 0.831833
O O3 0.205711 0.936454 0.843645
O O4 0.120215 0.066966 0.995933
O O5 0.682594 0.351821 0.582152
O O6 0.570715 0.250069 0.530406
O O7 0.432370 0.358409 0.677822
O O8 0.399428 0.935506 0.481434
O O9 0.276317 0.925251 0.663876
O O10 0.126702 0.012231 0.653068
O O11 0.992706 0.659042 0.679730
O O12 0.349412 0.855403 0.141960
O O13 0.296083 0.778918 0.737809
O O14 0.424837 0.363879 0.230796
#
# Coordination Sequence:
#
# PCOD9287376 Si02
#       8
#     8   8   8   4   8   8   8   4
#     4  11  21  41  61  96 128 173 220 278 338 399
#     4  11  21  36  65  98 132 165 219 286 339 394
#     4  12  21  39  66 102 125 176 226 276 334 393
#     4  10  22  36  58  92 130 172 212 269 345 392
#     4  10  23  37  64 101 133 168 213 286 344 398
#     4  11  23  39  66  94 135 176 226 275 336 399
#     4  10  24  43  64  96 136 174 223 277 335 402
#     4  12  24  44  66  94 132 186 226 275 327 416
#
# _framework density 21.123097000000001
#
# number of rings (size 3 to 8) (size 9 to 14) (size 15 to 20)
#    0.000    1.143    4.286    1.714    6.000    1.143 
#    0.000    0.000    0.000    8.571    0.000    0.000 
#    0.000    0.000    0.000    0.000    0.000    0.000 
#
# Total GULP energy -156041.569104 kJ/mol
# GULP energy per Si atom -5572.913182 kJ/mol
# Density = 2.107502 g / cm^3
# Si number density = 21.123097 Si / 1000 Ang^3
#
#
#
# Elastic Constant Matrix: (Units=GPa)
#
#
# Indices 1 2 3 4 5 6 
#
# 1 113.2097 19.7699 17.7157 0.0000 -10.2323 0.0000
# 2 19.7699 75.8289 11.3919 0.0000 -3.6349 0.0000
# 3 17.7157 11.3919 56.4557 0.0000 6.3747 0.0000
# 4 0.0000 0.0000 0.0000 12.0245 0.0000 1.4878
# 5 -10.2323 -3.6349 6.3747 0.0000 14.7868 0.0000
# 6 0.0000 0.0000 0.0000 1.4878 0.0000 35.4237
#
#
#
# Elastic Compliance Matrix: (Units=1/GPa)
#
#
# Indices 1 2 3 4 5 6 
#
# 1 0.010522 -0.001746 -0.003914 0.000000 0.008539 0.000000
# 2 -0.001746 0.014216 -0.002711 0.000000 0.003455 0.000000
# 3 -0.003914 -0.002711 0.020886 0.000000 -0.012379 0.000000
# 4 0.000000 0.000000 0.000000 0.083598 0.000000 -0.003511
# 5 0.008539 0.003455 -0.012379 0.000000 0.079723 0.000000
# 6 0.000000 0.000000 0.000000 -0.003511 0.000000 0.028377
#
#
# Mechanical properties :
#
#
# Convention : Reuss Voigt Hill
#
# Bulk Modulus (GPa) = 34.62272 38.13883 36.38077
# Shear Modulus (GPa) = 18.96162 25.55477 22.25819
#
# Velocity S-wave (km/s) = 2.99937 3.48199 3.24965
# Velocity P-wave (km/s) = 5.33118 5.85324 5.59830
#
# Compressibility (1/GPa) = 0.02888277
#
# Stress axis : x y z
#
# Youngs Moduli (GPa) = 95.03573 70.34502 47.87931
#
# Poissons Ratio (x) = 0.12283 0.18739
# Poissons Ratio (y) = 0.16594 0.12979
# Poissons Ratio (z) = 0.37195 0.19068
#
# Static dielectric constant tensor:
#      x y z
#    x 1.757140 0.000000 0.011430 
#    y 0.000000 1.861520 0.000000 
#    z 0.011430 0.000000 1.840810 
# 
# From -- ./inp_files/205367.got.cif
#   From: 2010.05.17/outbox.cif.g08.bks.cpg/sg15_103_cif.got.tgz:205367.got - 2010.06.03 18:47:42.
