data_PCOD9287548
_publ_section_title
;
Structure prediction by ZEFSAII (Michael W. Deem and Ramdas Pophale) SiO2 
 PCOD9287548
Probable space group: C 2/C
;
_chemical_formula_sum "Si O2"
_cell_formula_units_Z 52
_cell_length_a 22.799553
_cell_length_b 14.931188
_cell_length_c 6.998875
_cell_angle_alpha 90.000000
_cell_angle_beta 130.007980
_cell_angle_gamma 90.000000
_cell_volume 1824.954906
_symmetry_space_group_name_H-M "C 2/C"
_symmetry_group_IT_number 15
_symmetry_cell_setting 'monoclinic'
loop_
_space_group_symop_operation_xyz
x,y,z
-x,y,1/2-z
-x,-y,-z
x,-y,1/2+z
1/2+x,1/2+y,z
1/2-x,1/2+y,1/2-z
1/2-x,1/2-y,-z
1/2+x,1/2-y,1/2+z
loop_
_atom_site_type_symbol
_atom_site_label
_atom_site_fract_x
_atom_site_fract_y
_atom_site_fract_z
Si Si1 0.510078 0.806245 0.502251
Si Si2 0.287137 0.390596 0.474261
Si Si3 0.057356 0.867329 0.703624
Si Si4 0.174215 0.100888 0.005144
Si Si5 0.367778 0.913581 0.228807
Si Si6 0.166732 0.621538 0.285108
Si Si7 0.000000 0.121099 0.750000
O O1 0.500000 0.799474 0.250000
O O2 0.470975 0.715055 0.501245
O O3 0.454405 0.885423 0.454445
O O4 0.598355 0.819986 0.729045
O O5 0.360479 0.340495 0.544235
O O6 0.307935 0.493908 0.472280
O O7 0.300864 0.372650 0.728010
O O8 0.197151 0.374799 0.264049
O O9 0.000000 0.880364 0.750000
O O10 0.049075 0.936675 0.517197
O O11 0.242389 0.139363 0.009434
O O12 0.086338 0.126695 0.800560
O O13 0.352716 0.019315 0.195021
O O14 0.351767 0.879538 0.981509
#
# Coordination Sequence:
#
# PCOD9287548 Si02
#       7
#     8   8   8   8   8   8   4
#     4   9  18  34  54  73 106 147 176 217 266 321
#     4   9  19  32  52  80 107 135 175 223 267 323
#     4  10  22  37  54  78 109 146 183 214 267 329
#     4   9  19  32  53  78 106 136 171 225 275 307
#     4   9  17  32  53  79 106 136 176 222 271 313
#     4   9  17  33  52  79 107 133 178 223 268 317
#     4  10  22  38  54  80 110 140 176 226 266 320
#
# _framework density 28.493853000000001
#
# number of rings (size 3 to 8) (size 9 to 14) (size 15 to 20)
#    0.000    2.769    0.000    0.462    3.231    1.846 
#    2.769    2.308    0.000    0.000    0.000    0.000 
#    0.000    0.000    0.000    0.000    0.000    0.000 
#
# Total GULP energy -144931.469852 kJ/mol
# GULP energy per Si atom -5574.287302 kJ/mol
# Density = 2.842900 g / cm^3
# Si number density = 28.493853 Si / 1000 Ang^3
#
#
#
# Elastic Constant Matrix: (Units=GPa)
#
#
# Indices 1 2 3 4 5 6 
#
# 1 187.5627 51.3814 63.4117 0.0000 45.1941 0.0000
# 2 51.3814 87.3905 18.5933 0.0000 32.8141 0.0000
# 3 63.4117 18.5933 160.7703 0.0000 38.3045 0.0000
# 4 0.0000 0.0000 0.0000 -5.4127 0.0000 -16.1041
# 5 45.1941 32.8141 38.3045 0.0000 74.6626 0.0000
# 6 0.0000 0.0000 0.0000 -16.1041 0.0000 -5.5797
#
#
#
# Elastic Compliance Matrix: (Units=1/GPa)
#
#
# Indices 1 2 3 4 5 6 
#
# 1 0.007377 -0.003137 -0.002064 0.000000 -0.002028 0.000000
# 2 -0.003137 0.015042 0.000707 0.000000 -0.005075 0.000000
# 3 -0.002064 0.000707 0.007666 0.000000 -0.002994 0.000000
# 4 0.000000 0.000000 0.000000 0.024351 0.000000 -0.070280
# 5 -0.002028 -0.005075 -0.002994 0.000000 0.018388 0.000000
# 6 0.000000 0.000000 0.000000 -0.070280 0.000000 0.023622
#
#
# Mechanical properties :
#
#
# Convention : Reuss Voigt Hill
#
# Bulk Modulus (GPa) = 47.39892 78.05515 62.72704
# Shear Modulus (GPa) = 44.45793 32.88985 38.67389
#
# Velocity S-wave (km/s) = 3.95430 3.40115 3.68811
# Velocity P-wave (km/s) = 6.12532 6.54805 6.34021
#
# Compressibility (1/GPa) = 0.02109753
#
# Stress axis : x y z
#
# Youngs Moduli (GPa) = 135.55129 66.47863 130.45121
#
# Poissons Ratio (x) = 0.20853 0.26922
# Poissons Ratio (y) = 0.42520 -0.09219
# Poissons Ratio (z) = 0.27975 -0.04698
#
# Static dielectric constant tensor:
#      x y z
#    x 2.392840 0.000000 0.033990 
#    y 0.000000 2.330710 0.000000 
#    z 0.033990 0.000000 2.297190 
# 
# From -- ./inp_files/40775.got.cif
#   From: 2010.05.17/outbox.cif.g08.bks.cpg/sg15_21_cif.got.tgz:40775.got - 2010.06.03 18:47:42.
