data_PCOD9287168
_publ_section_title
;
Structure prediction by ZEFSAII (Michael W. Deem and Ramdas Pophale) SiO2 
 PCOD9287168
Probable space group: C 2/C
;
_chemical_formula_sum "Si O2"
_cell_formula_units_Z 64
_cell_length_a 23.033958
_cell_length_b 21.975797
_cell_length_c 14.083276
_cell_angle_alpha 90.000000
_cell_angle_beta 148.384439
_cell_angle_gamma 90.000000
_cell_volume 3737.043633
_symmetry_space_group_name_H-M "C 2/C"
_symmetry_group_IT_number 15
_symmetry_cell_setting 'monoclinic'
loop_
_space_group_symop_operation_xyz
x,y,z
-x,y,1/2-z
-x,-y,-z
x,-y,1/2+z
1/2+x,1/2+y,z
1/2-x,1/2+y,1/2-z
1/2-x,1/2-y,-z
1/2+x,1/2-y,1/2+z
loop_
_atom_site_type_symbol
_atom_site_label
_atom_site_fract_x
_atom_site_fract_y
_atom_site_fract_z
Si Si1 0.215396 0.445379 0.243059
Si Si2 0.401486 0.451343 0.340762
Si Si3 0.965804 0.138802 0.378831
Si Si4 0.218427 0.344805 0.573089
Si Si5 0.568895 0.045084 0.938730
Si Si6 0.889023 0.976947 0.646476
Si Si7 0.947604 0.739475 0.572877
Si Si8 0.401788 0.142989 0.794097
O O1 0.306283 0.446026 0.286356
O O2 0.287845 0.465780 0.435082
O O3 0.162217 0.381363 0.202887
O O4 0.121996 0.492534 0.076910
O O5 0.500000 0.500000 0.500000
O O6 0.465779 0.388445 0.438532
O O7 0.353030 0.475056 0.175618
O O8 0.848794 0.161083 0.253138
O O9 0.931451 0.085128 0.256998
O O10 0.038405 0.190139 0.429581
O O11 0.166448 0.408497 0.539300
O O12 0.179576 0.343181 0.408421
O O13 0.169617 0.291780 0.571910
O O14 0.500000 0.023014 0.750000
O O15 0.481661 0.087368 0.873319
O O16 0.000000 0.000731 0.750000
O O17 0.017997 0.701439 0.593692
O O18 0.000000 0.727799 0.750000
#
# Coordination Sequence:
#
# PCOD9287168 Si02
#       8
#     8   8   8   8   8   8   8   8
#     4  12  20  32  57  74 110 149 168 220 277 311
#     4  10  22  33  47  78 108 134 178 218 260 319
#     4  11  19  33  52  75 110 144 173 220 272 314
#     4   9  18  33  50  72 109 141 175 223 264 317
#     4   9  19  34  52  76 110 137 181 221 261 322
#     4  11  21  35  51  79 112 141 176 217 265 333
#     4   9  20  32  48  74 107 141 182 221 265 325
#     4   9  19  33  46  76 102 136 181 217 257 329
#
# _framework density 17.125837000000001
#
# number of rings (size 3 to 8) (size 9 to 14) (size 15 to 20)
#    0.000    2.000    3.750    3.750    1.750    3.000 
#    0.000    0.000    0.000    0.000    0.000    4.375 
#    0.000    0.000    0.000    0.000    0.000    0.000 
#
# Total GULP energy -178201.709111 kJ/mol
# GULP energy per Si atom -5568.803410 kJ/mol
# Density = 1.708686 g / cm^3
# Si number density = 17.125837 Si / 1000 Ang^3
#
#
#
# Elastic Constant Matrix: (Units=GPa)
#
#
# Indices 1 2 3 4 5 6 
#
# 1 83.1214 35.2035 6.9802 0.0000 -0.1179 0.0000
# 2 35.2035 63.2703 34.6307 0.0000 -1.3432 0.0000
# 3 6.9802 34.6307 51.5725 0.0000 -3.2305 0.0000
# 4 0.0000 0.0000 0.0000 10.9220 0.0000 -4.5208
# 5 -0.1179 -1.3432 -3.2305 0.0000 19.4008 0.0000
# 6 0.0000 0.0000 0.0000 -4.5208 0.0000 22.9190
#
#
#
# Elastic Compliance Matrix: (Units=1/GPa)
#
#
# Indices 1 2 3 4 5 6 
#
# 1 0.016978 -0.012953 0.006417 0.000000 0.000275 0.000000
# 2 -0.012953 0.034895 -0.021759 0.000000 -0.001286 0.000000
# 3 0.006417 -0.021759 0.033389 0.000000 0.004092 0.000000
# 4 0.000000 0.000000 0.000000 0.099698 0.000000 0.019666
# 5 0.000275 -0.001286 0.004092 0.000000 0.052138 0.000000
# 6 0.000000 0.000000 0.000000 0.019666 0.000000 0.047511
#
#
# Mechanical properties :
#
#
# Convention : Reuss Voigt Hill
#
# Bulk Modulus (GPa) = 34.87726 39.06589 36.97157
# Shear Modulus (GPa) = 14.25490 18.72502 16.48996
#
# Velocity S-wave (km/s) = 2.88820 3.31021 3.10638
# Velocity P-wave (km/s) = 5.61531 6.12133 5.87377
#
# Compressibility (1/GPa) = 0.02867198
#
# Stress axis : x y z
#
# Youngs Moduli (GPa) = 58.89974 28.65761 29.94990
#
# Poissons Ratio (x) = 0.37121 -0.19220
# Poissons Ratio (y) = 0.76294 0.65168
# Poissons Ratio (z) = -0.37798 0.62356
#
# Static dielectric constant tensor:
#      x y z
#    x 1.638130 0.000000 0.017630 
#    y 0.000000 1.615030 0.000000 
#    z 0.017630 0.000000 1.579900 
# 
# From -- ./inp_files/114617.got.cif
#   From: 2010.05.17/outbox.cif.g08.bks.cpg/sg15_58_cif.got.tgz:114617.got - 2010.06.03 18:47:42.
