data_PCOD9287309
_publ_section_title
;
Structure prediction by ZEFSAII (Michael W. Deem and Ramdas Pophale) SiO2 
 PCOD9287309
Probable space group: C 2/C
;
_chemical_formula_sum "Si O2"
_cell_formula_units_Z 44
_cell_length_a 8.423934
_cell_length_b 17.159758
_cell_length_c 16.950131
_cell_angle_alpha 90.000000
_cell_angle_beta 99.207610
_cell_angle_gamma 90.000000
_cell_volume 2418.616070
_symmetry_space_group_name_H-M "C 2/C"
_symmetry_group_IT_number 15
_symmetry_cell_setting 'monoclinic'
loop_
_space_group_symop_operation_xyz
x,y,z
-x,y,1/2-z
-x,-y,-z
x,-y,1/2+z
1/2+x,1/2+y,z
1/2-x,1/2+y,1/2-z
1/2-x,1/2-y,-z
1/2+x,1/2-y,1/2+z
loop_
_atom_site_type_symbol
_atom_site_label
_atom_site_fract_x
_atom_site_fract_y
_atom_site_fract_z
Si Si1 0.499278 0.176573 0.582803
Si Si2 0.300217 0.262188 0.347304
Si Si3 0.000000 0.858597 0.250000
Si Si4 0.764039 0.389896 0.928367
Si Si5 0.037593 0.828084 0.501507
Si Si6 0.217709 0.070134 0.895873
O O1 0.370630 0.205239 0.636632
O O2 0.395116 0.136126 0.504453
O O3 0.591891 0.252321 0.555009
O O4 0.627223 0.115560 0.622925
O O5 0.362011 0.301158 0.272594
O O6 0.290937 0.168941 0.357057
O O7 0.431058 0.291941 0.422012
O O8 0.926791 0.913034 0.176124
O O9 0.762756 0.480544 0.909621
O O10 0.590577 0.371311 0.953013
O O11 0.164375 0.887395 0.473585
#
# Coordination Sequence:
#
# PCOD9287309 Si02
#       6
#     8   8   4   8   8   8
#     4   9  17  31  53  76  95 120 158 206 248 281
#     4   8  17  35  51  66  96 132 160 189 237 295
#     4  10  22  36  46  62  98 144 166 180 232 304
#     4   9  17  32  53  76  97 120 158 210 248 271
#     4   8  16  31  52  75  99 124 152 191 248 296
#     4  11  19  30  50  76 101 125 159 201 237 285
#
# _framework density 18.192222000000001
#
# number of rings (size 3 to 8) (size 9 to 14) (size 15 to 20)
#    0.000    2.909    0.000    3.818    0.000    0.727 
#    0.000    5.455    0.000    4.364    0.000    0.000 
#    0.000    0.000    0.000    0.000    0.000    0.000 
#
# Total GULP energy -122543.735217 kJ/mol
# GULP energy per Si atom -5570.169783 kJ/mol
# Density = 1.815082 g / cm^3
# Si number density = 18.192222 Si / 1000 Ang^3
#
#
#
# Elastic Constant Matrix: (Units=GPa)
#
#
# Indices 1 2 3 4 5 6 
#
# 1 42.1830 37.6389 3.8766 0.0000 -3.2699 0.0000
# 2 37.6389 155.0187 26.9512 0.0000 -5.3497 0.0000
# 3 3.8766 26.9512 34.7889 0.0000 -10.2033 0.0000
# 4 0.0000 0.0000 0.0000 10.1768 0.0000 -0.0856
# 5 -3.2699 -5.3497 -10.2033 0.0000 15.7454 0.0000
# 6 0.0000 0.0000 0.0000 -0.0856 0.0000 22.0255
#
#
#
# Elastic Compliance Matrix: (Units=1/GPa)
#
#
# Indices 1 2 3 4 5 6 
#
# 1 0.031062 -0.008150 0.004855 0.000000 0.006828 0.000000
# 2 -0.008150 0.009622 -0.007511 0.000000 -0.003291 0.000000
# 3 0.004855 -0.007511 0.041448 0.000000 0.025315 0.000000
# 4 0.000000 0.000000 0.000000 0.098266 0.000000 0.000382
# 5 0.006828 -0.003291 0.025315 0.000000 0.080215 0.000000
# 6 0.000000 0.000000 0.000000 0.000382 0.000000 0.045403
#
#
# Mechanical properties :
#
#
# Convention : Reuss Voigt Hill
#
# Bulk Modulus (GPa) = 16.52376 40.99155 28.75765
# Shear Modulus (GPa) = 14.37600 20.49112 17.43356
#
# Velocity S-wave (km/s) = 2.81415 3.35978 3.09900
# Velocity P-wave (km/s) = 4.43417 6.13451 5.35229
#
# Compressibility (1/GPa) = 0.06051892
#
# Stress axis : x y z
#
# Youngs Moduli (GPa) = 32.19399 103.92758 24.12686
#
# Poissons Ratio (x) = 0.84705 -0.11715
# Poissons Ratio (y) = 0.26239 0.18122
# Poissons Ratio (z) = -0.15632 0.78063
#
# Static dielectric constant tensor:
#      x y z
#    x 1.627160 0.000000 -0.003910 
#    y 0.000000 1.614180 0.000000 
#    z -0.003910 0.000000 1.654430 
# 
# From -- ./inp_files/134464.got.cif
#   From: 2010.05.17/outbox.cif.g08.bks.cpg/sg15_68_cif.got.tgz:134464.got - 2010.06.03 18:47:42.
