data_PCOD9287810
_publ_section_title
;
Structure prediction by ZEFSAII (Michael W. Deem and Ramdas Pophale) SiO2 
 PCOD9287810
Probable space group: C 2/C
;
_chemical_formula_sum "Si O2"
_cell_formula_units_Z 40
_cell_length_a 23.383664
_cell_length_b 9.658700
_cell_length_c 23.234813
_cell_angle_alpha 90.000000
_cell_angle_beta 158.959163
_cell_angle_gamma 90.000000
_cell_volume 1884.104997
_symmetry_space_group_name_H-M "C 2/C"
_symmetry_group_IT_number 15
_symmetry_cell_setting 'monoclinic'
loop_
_space_group_symop_operation_xyz
x,y,z
-x,y,1/2-z
-x,-y,-z
x,-y,1/2+z
1/2+x,1/2+y,z
1/2-x,1/2+y,1/2-z
1/2-x,1/2-y,-z
1/2+x,1/2-y,1/2+z
loop_
_atom_site_type_symbol
_atom_site_label
_atom_site_fract_x
_atom_site_fract_y
_atom_site_fract_z
Si Si1 0.149487 0.808545 0.526057
Si Si2 0.809064 0.624440 0.436763
Si Si3 0.121137 0.108393 0.811446
Si Si4 0.835991 0.428307 0.364917
Si Si5 0.310543 0.092154 0.712978
O O1 0.242671 0.724483 0.564036
O O2 0.133940 0.701170 0.564523
O O3 0.983528 0.858736 0.343941
O O4 0.249891 0.941634 0.638583
O O5 0.712029 0.537982 0.392816
O O6 0.753740 0.548577 0.325287
O O7 0.769647 0.784987 0.398054
O O8 0.237455 0.614124 0.764959
O O9 0.000000 0.113228 0.750000
O O10 0.000000 0.500000 0.500000
O O11 0.999013 0.601729 0.617685
#
# Coordination Sequence:
#
# PCOD9287810 Si02
#       5
#     8   8   8   8   8
#     4  11  22  38  63  91 118 155 200 242 291 355
#     4  10  22  38  57  85 120 156 197 241 292 356
#     4  11  23  42  62  85 115 155 202 253 296 339
#     4   9  19  36  58  88 123 156 189 234 292 357
#     4  11  21  38  59  89 123 156 191 240 296 357
#
# _framework density 21.230239000000001
#
# number of rings (size 3 to 8) (size 9 to 14) (size 15 to 20)
#    0.000    1.600    0.000    6.600    0.000    4.800 
#    0.000   15.000    0.000    0.000    0.000    0.000 
#    0.000    0.000    0.000    0.000    0.000    0.000 
#
# Total GULP energy -111707.983874 kJ/mol
# GULP energy per Si atom -5585.399194 kJ/mol
# Density = 2.118192 g / cm^3
# Si number density = 21.230239 Si / 1000 Ang^3
#
#
#
# Elastic Constant Matrix: (Units=GPa)
#
#
# Indices 1 2 3 4 5 6 
#
# 1 75.5941 37.5121 0.1975 -0.0007 23.0256 0.0000
# 2 37.5121 164.5994 21.3624 -0.0023 10.7681 0.0000
# 3 0.1975 21.3624 48.3946 -0.0035 13.6925 0.0000
# 4 -0.0007 -0.0023 -0.0035 36.9872 -0.0010 13.5377
# 5 23.0256 10.7681 13.6925 -0.0010 27.5537 0.0001
# 6 0.0000 0.0000 0.0000 13.5377 0.0001 9.6327
#
#
#
# Elastic Compliance Matrix: (Units=1/GPa)
#
#
# Indices 1 2 3 4 5 6 
#
# 1 0.021590 -0.004598 0.007607 0.000000 -0.020025 0.000000
# 2 -0.004598 0.007463 -0.004116 0.000000 0.002971 0.000000
# 3 0.007607 -0.004116 0.027685 0.000004 -0.018506 -0.000005
# 4 0.000000 0.000000 0.000004 0.055674 0.000000 -0.078244
# 5 -0.020025 0.002971 -0.018506 0.000000 0.061062 -0.000001
# 6 0.000000 0.000000 -0.000005 -0.078244 -0.000001 0.213775
#
#
# Mechanical properties :
#
#
# Convention : Reuss Voigt Hill
#
# Bulk Modulus (GPa) = 18.34019 45.19246 31.76632
# Shear Modulus (GPa) = 12.26578 30.13580 21.20079
#
# Velocity S-wave (km/s) = 2.40625 3.77168 3.16351
# Velocity P-wave (km/s) = 4.04692 6.34827 5.32344
#
# Compressibility (1/GPa) = 0.05452507
#
# Stress axis : x y z
#
# Youngs Moduli (GPa) = 46.31841 133.99476 36.12014
#
# Poissons Ratio (x) = 0.61604 -0.27477
# Poissons Ratio (y) = 0.21295 0.14867
# Poissons Ratio (z) = -0.35235 0.55154
#
# Static dielectric constant tensor:
#      x y z
#    x 1.816110 0.000000 -0.022290 
#    y 0.000000 1.740530 0.000000 
#    z -0.022290 0.000000 1.778840 
# 
# From -- ./inp_files/284349.got.cif
#   From: 2010.05.17/outbox.cif.g08.bks.cpg/sg15_143_cif.got.tgz:284349.got - 2010.06.03 18:47:42.
