data_PCOD9287077
_publ_section_title
;
Structure prediction by ZEFSAII (Michael W. Deem and Ramdas Pophale) SiO2 
 PCOD9287077
Probable space group: C 2/C
;
_chemical_formula_sum "Si O2"
_cell_formula_units_Z 52
_cell_length_a 20.955250
_cell_length_b 12.041450
_cell_length_c 14.329119
_cell_angle_alpha 90.000000
_cell_angle_beta 138.096072
_cell_angle_gamma 90.000000
_cell_volume 2414.859621
_symmetry_space_group_name_H-M "C 2/C"
_symmetry_group_IT_number 15
_symmetry_cell_setting 'monoclinic'
loop_
_space_group_symop_operation_xyz
x,y,z
-x,y,1/2-z
-x,-y,-z
x,-y,1/2+z
1/2+x,1/2+y,z
1/2-x,1/2+y,1/2-z
1/2-x,1/2-y,-z
1/2+x,1/2-y,1/2+z
loop_
_atom_site_type_symbol
_atom_site_label
_atom_site_fract_x
_atom_site_fract_y
_atom_site_fract_z
Si Si1 0.141909 0.301720 0.886679
Si Si2 0.212021 0.942612 0.166519
Si Si3 0.500000 0.866584 0.250000
Si Si4 0.577643 0.976919 0.668314
Si Si5 0.690048 0.775406 0.526948
Si Si6 0.901006 0.062477 0.603273
Si Si7 0.248720 0.480880 0.094797
O O1 0.096429 0.356691 0.742776
O O2 0.092783 0.195650 0.879768
O O3 0.250000 0.250000 0.000000
O O4 0.156132 0.407178 0.970184
O O5 0.206141 0.822196 0.115417
O O6 0.197232 0.928766 0.259947
O O7 0.317744 0.989965 0.257614
O O8 0.132199 0.021335 0.033501
O O9 0.580438 0.789745 0.381786
O O10 0.452935 0.941200 0.280396
O O11 0.500000 0.000000 0.500000
O O12 0.750000 0.750000 0.500000
O O13 0.722485 0.895952 0.595877
O O14 0.815450 0.019500 0.576988
O O15 0.000000 0.015570 0.750000
#
# Coordination Sequence:
#
# PCOD9287077 Si02
#       7
#     8   8   4   8   8   8   8
#     4  10  21  46  70  95 144 185 226 297 364 414
#     4  12  26  45  69 103 139 182 235 297 362 433
#     4  12  24  42  70 102 136 184 246 292 346 430
#     4  12  25  43  71 107 133 182 246 297 348 433
#     4  12  23  46  71  97 143 186 229 296 361 416
#     4  11  25  43  69  98 143 188 231 286 364 438
#     4  11  24  45  71  98 138 183 236 293 362 420
#
# _framework density 21.533342000000001
#
# number of rings (size 3 to 8) (size 9 to 14) (size 15 to 20)
#    0.000    0.615    7.692    0.923    4.308    3.077 
#    0.000    0.000    0.000    0.000    0.000    0.000 
#    0.000    0.000    0.000    0.000    0.000    0.000 
#
# Total GULP energy -145145.957471 kJ/mol
# GULP energy per Si atom -5582.536826 kJ/mol
# Density = 2.148433 g / cm^3
# Si number density = 21.533342 Si / 1000 Ang^3
#
#
#
# Elastic Constant Matrix: (Units=GPa)
#
#
# Indices 1 2 3 4 5 6 
#
# 1 8.3611 -8.6661 -2.1120 0.0000 -5.2592 0.0000
# 2 -8.6661 127.7501 38.6255 0.0000 -5.5508 0.0000
# 3 -2.1120 38.6255 139.1315 0.0000 -7.5053 0.0000
# 4 0.0000 0.0000 0.0000 26.7300 0.0000 13.3958
# 5 -5.2592 -5.5508 -7.5053 0.0000 43.9647 0.0000
# 6 0.0000 0.0000 0.0000 13.3958 0.0000 9.4551
#
#
#
# Elastic Compliance Matrix: (Units=1/GPa)
#
#
# Indices 1 2 3 4 5 6 
#
# 1 0.141917 0.010341 0.000272 0.000000 0.018329 0.000000
# 2 0.010341 0.009319 -0.002321 0.000000 0.002017 0.000000
# 3 0.000272 -0.002321 0.007895 0.000000 0.001087 0.000000
# 4 0.000000 0.000000 0.000000 0.129015 0.000000 -0.182787
# 5 0.018329 0.002017 0.001087 0.000000 0.025378 0.000000
# 6 0.000000 0.000000 0.000000 -0.182787 0.000000 0.364733
#
#
# Mechanical properties :
#
#
# Convention : Reuss Voigt Hill
#
# Bulk Modulus (GPa) = 5.69105 36.77083 21.23094
# Shear Modulus (GPa) = 6.94209 32.52297 19.73253
#
# Velocity S-wave (km/s) = 1.79746 3.89054 3.03045
# Velocity P-wave (km/s) = 2.63751 6.10697 4.70380
#
# Compressibility (1/GPa) = 0.17571445
#
# Stress axis : x y z
#
# Youngs Moduli (GPa) = 7.04638 107.31006 126.66800
#
# Poissons Ratio (x) = -1.10972 -0.03447
# Poissons Ratio (y) = -0.07287 0.29403
# Poissons Ratio (z) = -0.00192 0.24910
#
# Static dielectric constant tensor:
#      x y z
#    x 1.770350 0.000000 0.035320 
#    y 0.000000 1.834260 0.000000 
#    z 0.035320 0.000000 1.771900 
# 
# From -- ./inp_files/173207.got.cif
#   From: 2010.05.17/outbox.cif.g08.bks.cpg/sg15_87_cif.got.tgz:173207.got - 2010.06.03 18:47:42.
