data_PCOD9287512
_publ_section_title
;
Structure prediction by ZEFSAII (Michael W. Deem and Ramdas Pophale) SiO2 
 PCOD9287512
Probable space group: C 2/C
;
_chemical_formula_sum "Si O2"
_cell_formula_units_Z 52
_cell_length_a 18.540725
_cell_length_b 8.017705
_cell_length_c 28.056405
_cell_angle_alpha 90.000000
_cell_angle_beta 148.654883
_cell_angle_gamma 90.000000
_cell_volume 2169.563159
_symmetry_space_group_name_H-M "C 2/C"
_symmetry_group_IT_number 15
_symmetry_cell_setting 'monoclinic'
loop_
_space_group_symop_operation_xyz
x,y,z
-x,y,1/2-z
-x,-y,-z
x,-y,1/2+z
1/2+x,1/2+y,z
1/2-x,1/2+y,1/2-z
1/2-x,1/2-y,-z
1/2+x,1/2-y,1/2+z
loop_
_atom_site_type_symbol
_atom_site_label
_atom_site_fract_x
_atom_site_fract_y
_atom_site_fract_z
Si Si1 0.179989 0.855337 0.911983
Si Si2 0.207869 0.512757 0.438822
Si Si3 0.601437 0.694019 0.017149
Si Si4 0.623201 0.314524 0.710988
Si Si5 0.000000 0.330423 0.750000
Si Si6 0.786620 0.944908 0.160728
Si Si7 0.319503 0.522701 0.848314
O O1 0.245852 0.673809 0.943074
O O2 0.034607 0.833102 0.858400
O O3 0.159424 0.929959 0.849006
O O4 0.280977 0.977772 0.998750
O O5 0.318333 0.651303 0.486168
O O6 0.073104 0.564188 0.332882
O O7 0.640521 0.870361 0.061572
O O8 0.665322 0.559583 0.091009
O O9 0.443153 0.657391 0.918040
O O10 0.707100 0.457283 0.787055
O O11 0.643908 0.374265 0.668266
O O12 0.684775 0.132022 0.758488
O O13 0.891612 0.210681 0.715920
#
# Coordination Sequence:
#
# PCOD9287512 Si02
#       7
#     8   8   8   8   4   8   8
#     4  11  23  42  65  99 129 167 203 275 324 383
#     4  10  23  41  66  97 129 165 210 261 336 369
#     4  10  23  45  64  93 126 174 212 271 313 385
#     4  12  24  44  63  95 126 174 216 267 305 394
#     4  10  22  36  66  98 124 166 200 260 330 386
#     4  11  23  40  67  97 131 161 215 269 329 368
#     4  11  25  44  66  87 133 173 224 256 316 375
#
# _framework density 23.967959
#
# number of rings (size 3 to 8) (size 9 to 14) (size 15 to 20)
#    0.000    1.231    3.077    1.846    6.462    4.308 
#    5.538    0.000    0.000    0.000    0.000    0.000 
#    0.000    0.000    0.000    0.000    0.000    0.000 
#
# Total GULP energy -145294.339567 kJ/mol
# GULP energy per Si atom -5588.243829 kJ/mol
# Density = 2.391341 g / cm^3
# Si number density = 23.967959 Si / 1000 Ang^3
#
#
#
# Elastic Constant Matrix: (Units=GPa)
#
#
# Indices 1 2 3 4 5 6 
#
# 1 38.8978 10.3707 5.2754 0.0000 -10.0228 0.0000
# 2 10.3707 72.0687 11.2649 0.0000 3.2415 0.0001
# 3 5.2754 11.2649 55.6225 0.0000 0.0210 0.0000
# 4 0.0000 0.0000 0.0000 51.0291 0.0000 -9.4625
# 5 -10.0228 3.2415 0.0210 0.0000 34.9506 0.0000
# 6 0.0000 0.0001 0.0000 -9.4625 0.0000 46.1350
#
#
#
# Elastic Compliance Matrix: (Units=1/GPa)
#
#
# Indices 1 2 3 4 5 6 
#
# 1 0.029398 -0.004328 -0.001915 0.000000 0.008833 0.000000
# 2 -0.004328 0.015028 -0.002632 0.000000 -0.002633 0.000000
# 3 -0.001915 -0.002632 0.018693 0.000000 -0.000316 0.000000
# 4 0.000000 0.000000 0.000000 0.020371 0.000000 0.004178
# 5 0.008833 -0.002633 -0.000316 0.000000 0.031389 0.000000
# 6 0.000000 0.000000 0.000000 0.004178 0.000000 0.022533
#
#
# Mechanical properties :
#
#
# Convention : Reuss Voigt Hill
#
# Bulk Modulus (GPa) = 22.04158 24.49011 23.26584
# Shear Modulus (GPa) = 29.36226 35.73481 32.54853
#
# Velocity S-wave (km/s) = 3.50389 3.86546 3.68911
# Velocity P-wave (km/s) = 5.05825 5.49203 5.27960
#
# Compressibility (1/GPa) = 0.04536880
#
# Stress axis : x y z
#
# Youngs Moduli (GPa) = 34.01579 66.54084 53.49561
#
# Poissons Ratio (x) = 0.28801 0.10244
# Poissons Ratio (y) = 0.14723 0.14081
# Poissons Ratio (z) = 0.06514 0.17514
#
# Static dielectric constant tensor:
#      x y z
#    x 1.895550 0.000000 0.051830 
#    y 0.000000 1.887160 0.000000 
#    z 0.051830 0.000000 1.945760 
# 
# From -- ./inp_files/298429.got.cif
#   From: 2010.05.17/outbox.cif.g08.bks.cpg/sg15_150_cif.got.tgz:298429.got - 2010.06.03 18:47:42.
