data_PCOD9287574
_publ_section_title
;
Structure prediction by ZEFSAII (Michael W. Deem and Ramdas Pophale) SiO2 
 PCOD9287574
Probable space group: C 2/C
;
_chemical_formula_sum "Si O2"
_cell_formula_units_Z 56
_cell_length_a 24.016200
_cell_length_b 13.684198
_cell_length_c 8.622874
_cell_angle_alpha 90.000000
_cell_angle_beta 69.442594
_cell_angle_gamma 90.000000
_cell_volume 2653.385613
_symmetry_space_group_name_H-M "C 2/C"
_symmetry_group_IT_number 15
_symmetry_cell_setting 'monoclinic'
loop_
_space_group_symop_operation_xyz
x,y,z
-x,y,1/2-z
-x,-y,-z
x,-y,1/2+z
1/2+x,1/2+y,z
1/2-x,1/2+y,1/2-z
1/2-x,1/2-y,-z
1/2+x,1/2-y,1/2+z
loop_
_atom_site_type_symbol
_atom_site_label
_atom_site_fract_x
_atom_site_fract_y
_atom_site_fract_z
Si Si1 0.363522 0.618770 0.374102
Si Si2 0.021682 0.102035 0.407159
Si Si3 0.920051 0.220826 0.612432
Si Si4 0.166412 0.096163 0.590924
Si Si5 0.338731 0.882687 0.739433
Si Si6 0.291580 0.921442 0.127077
Si Si7 0.276330 0.714131 0.250173
O O1 0.408020 0.614536 0.182428
O O2 0.392422 0.685858 0.475832
O O3 0.357083 0.508716 0.440925
O O4 0.301182 0.660705 0.376600
O O5 0.988519 0.187963 0.532866
O O6 0.000000 0.101617 0.250000
O O7 0.000000 0.000000 0.500000
O O8 0.885610 0.156017 0.774206
O O9 0.902942 0.333587 0.654373
O O10 0.221445 0.070029 0.652956
O O11 0.194681 0.161212 0.428218
O O12 0.292961 0.802544 0.713873
O O13 0.320398 0.983041 0.673791
O O14 0.324215 0.897352 0.933930
O O15 0.295136 0.826444 0.231527
#
# Coordination Sequence:
#
# PCOD9287574 Si02
#       7
#     8   8   8   8   8   8   8
#     4  11  23  34  59  89 117 155 193 237 290 357
#     4  10  22  37  57  87 116 153 191 237 294 347
#     4  11  22  38  56  83 123 154 191 239 300 336
#     4  11  19  36  56  86 125 156 185 235 293 351
#     4  11  23  39  59  84 120 158 190 249 287 348
#     4  11  23  37  57  86 120 157 197 228 294 352
#     4  11  22  37  56  89 122 153 196 234 291 354
#
# _framework density 21.105111000000001
#
# number of rings (size 3 to 8) (size 9 to 14) (size 15 to 20)
#    0.000    1.143    5.714    1.714    6.000    0.571 
#    0.000    0.000    0.000    0.857    0.000    0.000 
#    0.000    0.000    0.000    0.000    0.000    0.000 
#
# Total GULP energy -156582.797586 kJ/mol
# GULP energy per Si atom -5592.242771 kJ/mol
# Density = 2.105707 g / cm^3
# Si number density = 21.105111 Si / 1000 Ang^3
#
#
#
# Elastic Constant Matrix: (Units=GPa)
#
#
# Indices 1 2 3 4 5 6 
#
# 1 28.9419 9.2297 7.6692 0.0000 -12.3409 0.0000
# 2 9.2297 134.1286 20.5926 0.0000 -8.7328 0.0000
# 3 7.6692 20.5926 68.4153 0.0000 -18.2789 0.0000
# 4 0.0000 0.0000 0.0000 18.5274 0.0000 -0.8350
# 5 -12.3409 -8.7328 -18.2789 0.0000 31.7366 0.0000
# 6 0.0000 0.0000 0.0000 -0.8350 0.0000 22.8068
#
#
#
# Elastic Compliance Matrix: (Units=1/GPa)
#
#
# Indices 1 2 3 4 5 6 
#
# 1 0.041868 -0.001866 0.000096 0.000000 0.015822 0.000000
# 2 -0.001866 0.007924 -0.002112 0.000000 0.000238 0.000000
# 3 0.000096 -0.002112 0.017842 0.000000 0.009732 0.000000
# 4 0.000000 0.000000 0.000000 0.054063 0.000000 0.001979
# 5 0.015822 0.000238 0.009732 0.000000 0.043333 0.000000
# 6 0.000000 0.000000 0.000000 0.001979 0.000000 0.043919
#
#
# Mechanical properties :
#
#
# Convention : Reuss Voigt Hill
#
# Bulk Modulus (GPa) = 16.70301 34.05210 25.37755
# Shear Modulus (GPa) = 21.12648 27.54713 24.33680
#
# Velocity S-wave (km/s) = 3.16731 3.61672 3.39945
# Velocity P-wave (km/s) = 4.61597 5.79745 5.24012
#
# Compressibility (1/GPa) = 0.05986946
#
# Stress axis : x y z
#
# Youngs Moduli (GPa) = 23.88438 126.20365 56.04808
#
# Poissons Ratio (x) = 0.23544 -0.00535
# Poissons Ratio (y) = 0.04456 0.11838
# Poissons Ratio (z) = -0.00228 0.26656
#
# Static dielectric constant tensor:
#      x y z
#    x 1.812080 0.000000 -0.017000 
#    y 0.000000 1.753750 0.000000 
#    z -0.017000 0.000000 1.779230 
# 
# From -- ./inp_files/61614.got.cif
#   From: 2010.05.17/outbox.cif.g08.bks.cpg/sg15_31_cif.got.tgz:61614.got - 2010.06.03 18:47:42.
