data_PCOD9287767
_publ_section_title
;
Structure prediction by ZEFSAII (Michael W. Deem and Ramdas Pophale) SiO2 
 PCOD9287767
Probable space group: C 2/C
;
_chemical_formula_sum "Si O2"
_cell_formula_units_Z 40
_cell_length_a 9.010791
_cell_length_b 11.847572
_cell_length_c 15.069656
_cell_angle_alpha 90.000000
_cell_angle_beta 67.329048
_cell_angle_gamma 90.000000
_cell_volume 1484.471814
_symmetry_space_group_name_H-M "C 2/C"
_symmetry_group_IT_number 15
_symmetry_cell_setting 'monoclinic'
loop_
_space_group_symop_operation_xyz
x,y,z
-x,y,1/2-z
-x,-y,-z
x,-y,1/2+z
1/2+x,1/2+y,z
1/2-x,1/2+y,1/2-z
1/2-x,1/2-y,-z
1/2+x,1/2-y,1/2+z
loop_
_atom_site_type_symbol
_atom_site_label
_atom_site_fract_x
_atom_site_fract_y
_atom_site_fract_z
Si Si1 0.331950 0.221780 0.870496
Si Si2 0.986790 0.708253 0.510856
Si Si3 0.118350 0.983763 0.613279
Si Si4 0.778804 0.600869 0.415389
Si Si5 0.754906 0.951658 0.238424
O O1 0.145735 0.225041 0.942738
O O2 0.390824 0.350807 0.863104
O O3 0.323143 0.163702 0.777615
O O4 0.438405 0.153913 0.917579
O O5 0.930251 0.635101 0.440444
O O6 0.837466 0.790141 0.567080
O O7 0.177859 0.016705 0.502382
O O8 0.244075 0.030693 0.656998
O O9 0.945706 0.039693 0.670531
O O10 0.813402 0.547704 0.311860
#
# Coordination Sequence:
#
# PCOD9287767 Si02
#       5
#     8   8   8   8   8
#     4  11  22  42  66  95 128 178 218 265 328 401
#     4  10  22  37  71  98 127 176 221 261 336 391
#     4  11  24  43  67  96 132 175 214 272 333 391
#     4  11  21  43  65  98 134 169 216 278 320 391
#     4  11  24  43  67  96 132 175 214 272 333 391
#
# _framework density 26.945612000000001
#
# number of rings (size 3 to 8) (size 9 to 14) (size 15 to 20)
#    0.000    1.200    4.000    3.000    0.000    6.400 
#    0.000    2.000    0.000    0.000    0.000    0.000 
#    0.000    0.000    0.000    0.000    0.000    0.000 
#
# Total GULP energy -112079.602679 kJ/mol
# GULP energy per Si atom -5603.980134 kJ/mol
# Density = 2.688428 g / cm^3
# Si number density = 26.945612 Si / 1000 Ang^3
#
#
#
# Elastic Constant Matrix: (Units=GPa)
#
#
# Indices 1 2 3 4 5 6 
#
# 1 172.0657 29.1090 37.4179 0.0000 34.4947 0.0000
# 2 29.1090 81.7412 -2.4433 0.0000 27.7783 0.0000
# 3 37.4179 -2.4433 94.7396 0.0000 33.4698 0.0000
# 4 0.0000 0.0000 0.0000 29.6446 0.0000 22.6655
# 5 34.4947 27.7783 33.4698 0.0000 64.1924 0.0000
# 6 0.0000 0.0000 0.0000 22.6655 0.0000 47.3746
#
#
#
# Elastic Compliance Matrix: (Units=1/GPa)
#
#
# Indices 1 2 3 4 5 6 
#
# 1 0.006969 -0.001946 -0.002178 0.000000 -0.001767 0.000000
# 2 -0.001946 0.015692 0.003926 0.000000 -0.007792 0.000000
# 3 -0.002178 0.003926 0.014346 0.000000 -0.008008 0.000000
# 4 0.000000 0.000000 0.000000 0.053189 0.000000 -0.025447
# 5 -0.001767 -0.007792 -0.008008 0.000000 0.024075 0.000000
# 6 0.000000 0.000000 0.000000 -0.025447 0.000000 0.033283
#
#
# Mechanical properties :
#
#
# Convention : Reuss Voigt Hill
#
# Bulk Modulus (GPa) = 27.31534 52.96820 40.14177
# Shear Modulus (GPa) = 31.21972 47.20651 39.21312
#
# Velocity S-wave (km/s) = 3.40754 4.19013 3.81894
# Velocity P-wave (km/s) = 5.06370 6.56580 5.86305
#
# Compressibility (1/GPa) = 0.03660947
#
# Stress axis : x y z
#
# Youngs Moduli (GPa) = 143.49390 63.72638 69.70531
#
# Poissons Ratio (x) = 0.12404 0.15185
# Poissons Ratio (y) = 0.27930 -0.27367
# Poissons Ratio (z) = 0.31260 -0.25020
#
# Static dielectric constant tensor:
#      x y z
#    x 2.075800 0.000000 -0.025980 
#    y 0.000000 2.127080 0.000000 
#    z -0.025980 0.000000 2.148950 
# 
# From -- ./inp_files/187876.got.cif
#   From: 2010.05.17/outbox.cif.g08.bks.cpg/sg15_94_cif.got.tgz:187876.got - 2010.06.03 18:47:42.
