data_PCOD9287785
_publ_section_title
;
Structure prediction by ZEFSAII (Michael W. Deem and Ramdas Pophale) SiO2 
 PCOD9287785
Probable space group: C 2/C
;
_chemical_formula_sum "Si O2"
_cell_formula_units_Z 60
_cell_length_a 20.841425
_cell_length_b 19.000722
_cell_length_c 8.825675
_cell_angle_alpha 90.000000
_cell_angle_beta 52.577466
_cell_angle_gamma 90.000000
_cell_volume 2775.632919
_symmetry_space_group_name_H-M "C 2/C"
_symmetry_group_IT_number 15
_symmetry_cell_setting 'monoclinic'
loop_
_space_group_symop_operation_xyz
x,y,z
-x,y,1/2-z
-x,-y,-z
x,-y,1/2+z
1/2+x,1/2+y,z
1/2-x,1/2+y,1/2-z
1/2-x,1/2-y,-z
1/2+x,1/2-y,1/2+z
loop_
_atom_site_type_symbol
_atom_site_label
_atom_site_fract_x
_atom_site_fract_y
_atom_site_fract_z
Si Si1 0.727109 0.785482 0.196114
Si Si2 0.403866 0.124452 0.022727
Si Si3 0.736940 0.417019 0.166781
Si Si4 0.581803 0.962307 0.548557
Si Si5 0.616464 0.448476 0.843608
Si Si6 0.066833 0.657312 0.857155
Si Si7 0.500000 0.482173 0.750000
Si Si8 0.772025 0.150989 0.133336
O O1 0.762186 0.863088 0.189533
O O2 0.630158 0.793695 0.347488
O O3 0.745905 0.731624 0.302956
O O4 0.750000 0.750000 0.000000
O O5 0.471864 0.165919 0.018874
O O6 0.408902 0.161153 0.852568
O O7 0.429390 0.044258 0.961488
O O8 0.315316 0.118162 0.211171
O O9 0.679914 0.485780 0.253827
O O10 0.830166 0.443348 0.008831
O O11 0.706728 0.371854 0.066259
O O12 0.500000 0.936983 0.750000
O O13 0.585286 0.921618 0.384992
O O14 0.567020 0.441480 0.756570
O O15 0.665577 0.381422 0.834476
O O16 0.549839 0.469670 0.063079
#
# Coordination Sequence:
#
# PCOD9287785 Si02
#       8
#     8   8   8   8   8   8   4   8
#     4  11  25  44  64  91 135 183 233 276 330 406
#     4  11  21  34  64  94 133 170 214 271 329 398
#     4  11  25  41  69 102 134 176 226 279 346 406
#     4  11  21  34  61 100 139 170 211 268 336 402
#     4  11  23  44  74 102 135 169 229 288 356 406
#     4  10  22  38  55  90 135 172 221 265 324 399
#     4  10  24  44  68 104 138 168 220 304 352 404
#     4  12  24  42  70  98 133 178 223 281 338 406
#
# _framework density 21.616690999999999
#
# number of rings (size 3 to 8) (size 9 to 14) (size 15 to 20)
#    0.000    1.067    5.333    1.600    3.733    0.000 
#    0.000    4.000    5.867    0.000    0.000    0.000 
#    0.000    0.000    0.000    0.000    0.000    0.000 
#
# Total GULP energy -167239.935716 kJ/mol
# GULP energy per Si atom -5574.664524 kJ/mol
# Density = 2.156749 g / cm^3
# Si number density = 21.616691 Si / 1000 Ang^3
#
#
#
# Elastic Constant Matrix: (Units=GPa)
#
#
# Indices 1 2 3 4 5 6 
#
# 1 128.1960 20.7049 26.8376 0.0000 -3.7953 0.0000
# 2 20.7049 58.6493 6.0749 0.0000 -3.1515 0.0000
# 3 26.8376 6.0749 51.1728 0.0000 -9.6127 0.0000
# 4 0.0000 0.0000 0.0000 28.2498 0.0000 -4.6607
# 5 -3.7953 -3.1515 -9.6127 0.0000 26.6441 0.0000
# 6 0.0000 0.0000 0.0000 -4.6607 0.0000 13.2619
#
#
#
# Elastic Compliance Matrix: (Units=1/GPa)
#
#
# Indices 1 2 3 4 5 6 
#
# 1 0.009201 -0.002807 -0.004622 0.000000 -0.000689 0.000000
# 2 -0.002807 0.018167 -0.000382 0.000000 0.001611 0.000000
# 3 -0.004622 -0.000382 0.023469 0.000000 0.007764 0.000000
# 4 0.000000 0.000000 0.000000 0.037577 0.000000 0.013206
# 5 -0.000689 0.001611 0.007764 0.000000 0.040425 0.000000
# 6 0.000000 0.000000 0.000000 0.013206 0.000000 0.080045
#
#
# Mechanical properties :
#
#
# Convention : Reuss Voigt Hill
#
# Bulk Modulus (GPa) = 28.39540 38.36143 33.37842
# Shear Modulus (GPa) = 21.16451 25.92456 23.54453
#
# Velocity S-wave (km/s) = 3.13242 3.46683 3.30386
# Velocity P-wave (km/s) = 5.12320 5.81463 5.47983
#
# Compressibility (1/GPa) = 0.03521697
#
# Stress axis : x y z
#
# Youngs Moduli (GPa) = 108.68408 55.04347 42.60901
#
# Poissons Ratio (x) = 0.15448 0.19692
# Poissons Ratio (y) = 0.30502 0.01628
# Poissons Ratio (z) = 0.50230 0.02104
#
# Static dielectric constant tensor:
#      x y z
#    x 1.883870 0.000000 0.030200 
#    y 0.000000 1.763330 0.000000 
#    z 0.030200 0.000000 1.809020 
# 
# From -- ./inp_files/57018.got.cif
#   From: 2010.05.17/outbox.cif.g08.bks.cpg/sg15_29_cif.got.tgz:57018.got - 2010.06.03 18:47:42.
