data_PCOD9287417
_publ_section_title
;
Structure prediction by ZEFSAII (Michael W. Deem and Ramdas Pophale) SiO2 
 PCOD9287417
Probable space group: C 2/C
;
_chemical_formula_sum "Si O2"
_cell_formula_units_Z 44
_cell_length_a 5.139580
_cell_length_b 22.443914
_cell_length_c 20.706751
_cell_angle_alpha 90.000000
_cell_angle_beta 56.193388
_cell_angle_gamma 90.000000
_cell_volume 1984.712200
_symmetry_space_group_name_H-M "C 2/C"
_symmetry_group_IT_number 15
_symmetry_cell_setting 'monoclinic'
loop_
_space_group_symop_operation_xyz
x,y,z
-x,y,1/2-z
-x,-y,-z
x,-y,1/2+z
1/2+x,1/2+y,z
1/2-x,1/2+y,1/2-z
1/2-x,1/2-y,-z
1/2+x,1/2-y,1/2+z
loop_
_atom_site_type_symbol
_atom_site_label
_atom_site_fract_x
_atom_site_fract_y
_atom_site_fract_z
Si Si1 0.165736 0.137705 0.833323
Si Si2 0.505347 0.894068 0.623490
Si Si3 0.599778 0.450535 0.038035
Si Si4 0.371909 0.231958 0.194815
Si Si5 0.570020 0.465346 0.833906
Si Si6 0.500000 0.562077 0.750000
O O1 0.500000 0.134380 0.750000
O O2 0.085613 0.206841 0.850918
O O3 0.154487 0.095803 0.897572
O O4 0.914890 0.108234 0.818377
O O5 0.656777 0.909172 0.533171
O O6 0.525066 0.825649 0.641208
O O7 0.148783 0.915473 0.666865
O O8 0.685294 0.932934 0.653174
O O9 0.665295 0.493274 0.090239
O O10 0.500000 0.500000 0.000000
O O11 0.500000 0.240220 0.250000
O O12 0.000000 0.221578 0.250000
O O13 0.694527 0.513299 0.764413
#
# Coordination Sequence:
#
# PCOD9287417 Si02
#       6
#     8   8   8   8   8   4
#     4  10  22  42  66  91 127 174 219 262 316 384
#     4  11  23  41  61  94 128 169 204 270 319 375
#     4   9  21  42  63  96 130 166 213 266 323 386
#     4  11  24  43  65  93 131 170 222 266 309 381
#     4  10  23  37  64  89 130 160 211 260 322 380
#     4  10  22  36  60  94 116 174 206 264 316 378
#
# _framework density 22.169463
#
# number of rings (size 3 to 8) (size 9 to 14) (size 15 to 20)
#    0.000    1.818    0.909    1.636   11.455    0.727 
#    3.273    0.000    0.000    8.727    0.000    0.000 
#    0.000    0.000    0.000    0.000    0.000    0.000 
#
# Total GULP energy -122547.150937 kJ/mol
# GULP energy per Si atom -5570.325043 kJ/mol
# Density = 2.211900 g / cm^3
# Si number density = 22.169463 Si / 1000 Ang^3
#
#
#
# Elastic Constant Matrix: (Units=GPa)
#
#
# Indices 1 2 3 4 5 6 
#
# 1 94.9282 15.4564 17.3236 0.0000 6.8053 0.0000
# 2 15.4564 202.5327 64.3016 0.0000 3.4928 0.0000
# 3 17.3236 64.3016 89.6134 0.0000 -2.0722 0.0000
# 4 0.0000 0.0000 0.0000 38.7452 0.0000 -1.1182
# 5 6.8053 3.4928 -2.0722 0.0000 18.7735 0.0000
# 6 0.0000 0.0000 0.0000 -1.1182 0.0000 24.7526
#
#
#
# Elastic Compliance Matrix: (Units=1/GPa)
#
#
# Indices 1 2 3 4 5 6 
#
# 1 0.011261 -0.000081 -0.002219 0.000000 -0.004312 0.000000
# 2 -0.000081 0.006449 -0.004651 0.000000 -0.001684 0.000000
# 3 -0.002219 -0.004651 0.015002 0.000000 0.003326 0.000000
# 4 0.000000 0.000000 0.000000 0.025843 0.000000 0.001167
# 5 -0.004312 -0.001684 0.003326 0.000000 0.055510 0.000000
# 6 0.000000 0.000000 0.000000 0.001167 0.000000 0.040453
#
#
# Mechanical properties :
#
#
# Convention : Reuss Voigt Hill
#
# Bulk Modulus (GPa) = 53.15767 64.58195 58.86981
# Shear Modulus (GPa) = 28.62201 35.78711 32.20456
#
# Velocity S-wave (km/s) = 3.59702 4.02213 3.81550
# Velocity P-wave (km/s) = 6.42506 7.12491 6.78402
#
# Compressibility (1/GPa) = 0.01881196
#
# Stress axis : x y z
#
# Youngs Moduli (GPa) = 88.79839 155.05532 66.65682
#
# Poissons Ratio (x) = 0.01250 0.14790
# Poissons Ratio (y) = 0.00716 0.31002
# Poissons Ratio (z) = 0.19703 0.72117
#
# Static dielectric constant tensor:
#      x y z
#    x 1.873780 0.000000 -0.025670 
#    y 0.000000 1.802010 0.000000 
#    z -0.025670 0.000000 1.921220 
# 
# From -- ./inp_files/184881.got.cif
#   From: 2010.05.17/outbox.cif.g08.bks.cpg/sg15_93_cif.got.tgz:184881.got - 2010.06.03 18:47:42.
