data_PCOD9287255
_publ_section_title
;
Structure prediction by ZEFSAII (Michael W. Deem and Ramdas Pophale) SiO2 
 PCOD9287255
Probable space group: C 2/C
;
_chemical_formula_sum "Si O2"
_cell_formula_units_Z 64
_cell_length_a 22.828242
_cell_length_b 12.994170
_cell_length_c 24.919326
_cell_angle_alpha 90.000000
_cell_angle_beta 29.742212
_cell_angle_gamma 90.000000
_cell_volume 3667.120722
_symmetry_space_group_name_H-M "C 2/C"
_symmetry_group_IT_number 15
_symmetry_cell_setting 'monoclinic'
loop_
_space_group_symop_operation_xyz
x,y,z
-x,y,1/2-z
-x,-y,-z
x,-y,1/2+z
1/2+x,1/2+y,z
1/2-x,1/2+y,1/2-z
1/2-x,1/2-y,-z
1/2+x,1/2-y,1/2+z
loop_
_atom_site_type_symbol
_atom_site_label
_atom_site_fract_x
_atom_site_fract_y
_atom_site_fract_z
Si Si1 0.177397 0.088169 0.748007
Si Si2 0.602883 0.242415 0.710734
Si Si3 0.886094 0.437271 0.571385
Si Si4 0.028044 0.291233 0.384859
Si Si5 0.746260 0.795438 0.734074
Si Si6 0.012199 0.031135 0.300824
Si Si7 0.859095 0.998560 0.605805
Si Si8 0.661732 0.622501 0.983899
O O1 0.181944 0.211388 0.748156
O O2 0.178523 0.055845 0.809769
O O3 0.288354 0.023706 0.636742
O O4 0.068872 0.044304 0.799750
O O5 0.500000 0.223517 0.750000
O O6 0.568622 0.185086 0.792713
O O7 0.593582 0.364969 0.730863
O O8 0.729276 0.199020 0.592754
O O9 0.938452 0.372784 0.480697
O O10 0.832006 0.354644 0.657893
O O11 0.000000 0.500000 0.500000
O O12 0.952879 0.187034 0.442642
O O13 0.145915 0.267215 0.324331
O O14 0.806210 0.885079 0.652066
O O15 0.000000 0.990063 0.250000
O O16 0.885147 0.065857 0.425576
O O17 0.816787 0.050110 0.584393
O O18 0.000000 0.000000 0.500000
#
# Coordination Sequence:
#
# PCOD9287255 Si02
#       8
#     8   8   8   8   8   8   8   8
#     4  11  21  37  54  85 117 147 190 236 280 343
#     4  10  22  35  54  84 113 151 195 233 286 336
#     4  11  22  34  52  84 120 148 175 227 295 342
#     4  11  19  35  55  82 115 151 178 231 286 342
#     4  11  23  34  56  85 116 147 187 232 283 351
#     4  10  22  38  58  83 110 153 199 237 281 331
#     4  11  19  35  59  86 112 148 186 227 287 347
#     4  11  20  35  60  82 115 150 186 235 284 349
#
# _framework density 17.452385
#
# number of rings (size 3 to 8) (size 9 to 14) (size 15 to 20)
#    0.000    1.250    3.750    5.250    1.750    5.500 
#    0.000    0.000    0.000    1.500    0.000    0.000 
#    0.000    0.000    0.000    0.000    0.000    0.000 
#
# Total GULP energy -178385.180095 kJ/mol
# GULP energy per Si atom -5574.536878 kJ/mol
# Density = 1.741266 g / cm^3
# Si number density = 17.452385 Si / 1000 Ang^3
#
#
#
# Elastic Constant Matrix: (Units=GPa)
#
#
# Indices 1 2 3 4 5 6 
#
# 1 59.8325 23.9560 22.0065 0.0004 2.6824 -0.0001
# 2 23.9560 80.9707 32.5907 0.0012 -0.4170 -0.0003
# 3 22.0065 32.5907 76.3279 0.0015 -3.0807 -0.0005
# 4 0.0004 0.0012 0.0015 26.8623 -0.0006 -4.7401
# 5 2.6824 -0.4170 -3.0807 -0.0006 29.1505 0.0001
# 6 -0.0001 -0.0003 -0.0005 -4.7401 0.0001 14.2470
#
#
#
# Elastic Compliance Matrix: (Units=1/GPa)
#
#
# Indices 1 2 3 4 5 6 
#
# 1 0.020027 -0.004317 -0.004025 0.000000 -0.002330 0.000000
# 2 -0.004317 0.015850 -0.005521 0.000000 0.000040 0.000000
# 3 -0.004025 -0.005521 0.016702 -0.000001 0.002057 0.000000
# 4 0.000000 0.000000 -0.000001 0.039549 0.000001 0.013158
# 5 -0.002330 0.000040 0.002057 0.000001 0.034737 0.000000
# 6 0.000000 0.000000 0.000000 0.013158 0.000000 0.074568
#
#
# Mechanical properties :
#
#
# Convention : Reuss Voigt Hill
#
# Bulk Modulus (GPa) = 40.23737 41.58196 40.90967
# Shear Modulus (GPa) = 21.05765 23.29047 22.17406
#
# Velocity S-wave (km/s) = 3.47735 3.65706 3.56834
# Velocity P-wave (km/s) = 6.26324 6.45832 6.36153
#
# Compressibility (1/GPa) = 0.02485252
#
# Stress axis : x y z
#
# Youngs Moduli (GPa) = 49.93366 63.09167 59.87221
#
# Poissons Ratio (x) = 0.27238 0.24097
# Poissons Ratio (y) = 0.21557 0.33057
# Poissons Ratio (z) = 0.20097 0.34835
#
# Static dielectric constant tensor:
#      x y z
#    x 1.629310 0.000000 0.020260 
#    y 0.000000 1.583100 0.000000 
#    z 0.020260 0.000000 1.684010 
# 
# From -- ./inp_files/117604.got.cif
#   From: 2010.05.17/outbox.cif.g08.bks.cpg/sg15_59_cif.got.tgz:117604.got - 2010.06.03 18:47:42.
