data_PCOD9287993
_publ_section_title
;
Structure prediction by ZEFSAII (Michael W. Deem and Ramdas Pophale) SiO2 
 PCOD9287993
Probable space group: C 2/C
;
_chemical_formula_sum "Si O2"
_cell_formula_units_Z 60
_cell_length_a 18.103677
_cell_length_b 29.257413
_cell_length_c 8.030459
_cell_angle_alpha 90.000000
_cell_angle_beta 134.558551
_cell_angle_gamma 90.000000
_cell_volume 3030.739170
_symmetry_space_group_name_H-M "C 2/C"
_symmetry_group_IT_number 15
_symmetry_cell_setting 'monoclinic'
loop_
_space_group_symop_operation_xyz
x,y,z
-x,y,1/2-z
-x,-y,-z
x,-y,1/2+z
1/2+x,1/2+y,z
1/2-x,1/2+y,1/2-z
1/2-x,1/2-y,-z
1/2+x,1/2-y,1/2+z
loop_
_atom_site_type_symbol
_atom_site_label
_atom_site_fract_x
_atom_site_fract_y
_atom_site_fract_z
Si Si1 0.204246 0.371924 0.210283
Si Si2 0.679939 0.545377 0.749449
Si Si3 0.000000 0.668517 0.250000
Si Si4 0.415659 0.319397 0.466278
Si Si5 0.488205 0.404885 0.039285
Si Si6 0.430869 0.215229 0.472176
Si Si7 0.376295 0.128745 0.546115
Si Si8 0.782612 0.942089 0.798864
O O1 0.245663 0.422870 0.242630
O O2 0.304378 0.340579 0.334478
O O3 0.166022 0.364120 0.336282
O O4 0.105460 0.360428 0.937916
O O5 0.560330 0.562236 0.541089
O O6 0.699790 0.492985 0.740099
O O7 0.701945 0.556084 0.977929
O O8 0.989831 0.698591 0.400718
O O9 0.467722 0.354062 0.416377
O O10 0.396031 0.266974 0.385748
O O11 0.500000 0.320661 0.750000
O O12 0.500000 0.419064 0.250000
O O13 0.365874 0.411270 0.827094
O O14 0.500000 0.218129 0.750000
O O15 0.353081 0.173699 0.396641
O O16 0.500000 0.123870 0.750000
O O17 0.325966 0.082574 0.399957
#
# Coordination Sequence:
#
# PCOD9287993 Si02
#       8
#     8   8   4   8   8   8   8   8
#     4  11  23  41  66  91 126 171 213 264 328 381
#     4  10  22  38  61  95 121 164 212 254 326 385
#     4  12  22  42  66  88 130 176 210 270 318 378
#     4  10  22  40  62  97 127 163 214 266 321 389
#     4   9  20  38  61  90 130 162 204 260 318 386
#     4  10  22  42  62  93 127 167 222 260 322 384
#     4  11  22  42  60  89 123 165 215 260 316 377
#     4  11  21  39  62  90 127 164 206 268 315 381
#
# _framework density 19.797150999999999
#
# number of rings (size 3 to 8) (size 9 to 14) (size 15 to 20)
#    0.000    1.600    2.667    2.800    0.933    2.133 
#    3.600    2.000    0.000    0.000    0.000    0.000 
#    0.000    0.000    0.000    0.000    0.000    0.000 
#
# Total GULP energy -167290.712843 kJ/mol
# GULP energy per Si atom -5576.357095 kJ/mol
# Density = 1.975209 g / cm^3
# Si number density = 19.797151 Si / 1000 Ang^3
#
#
#
# Elastic Constant Matrix: (Units=GPa)
#
#
# Indices 1 2 3 4 5 6 
#
# 1 125.3837 61.1612 22.6487 0.0000 8.2664 0.0000
# 2 61.1612 105.1821 8.1049 0.0000 6.4367 0.0000
# 3 22.6487 8.1049 47.9672 0.0000 14.9876 0.0000
# 4 0.0000 0.0000 0.0000 20.0305 0.0000 -3.9983
# 5 8.2664 6.4367 14.9876 0.0000 32.2930 0.0000
# 6 0.0000 0.0000 0.0000 -3.9983 0.0000 22.7905
#
#
#
# Elastic Compliance Matrix: (Units=1/GPa)
#
#
# Indices 1 2 3 4 5 6 
#
# 1 0.012050 -0.006671 -0.004695 0.000000 0.000424 0.000000
# 2 -0.006671 0.013377 0.001391 0.000000 -0.001604 0.000000
# 3 -0.004695 0.001391 0.026364 0.000000 -0.011311 0.000000
# 4 0.000000 0.000000 0.000000 0.051736 0.000000 0.009076
# 5 0.000424 -0.001604 -0.011311 0.000000 0.036427 0.000000
# 6 0.000000 0.000000 0.000000 0.009076 0.000000 0.045470
#
#
# Mechanical properties :
#
#
# Convention : Reuss Voigt Hill
#
# Bulk Modulus (GPa) = 31.40652 51.37364 41.39008
# Shear Modulus (GPa) = 23.14955 27.46400 25.30677
#
# Velocity S-wave (km/s) = 3.42327 3.72865 3.57922
# Velocity P-wave (km/s) = 5.61459 6.67409 6.16713
#
# Compressibility (1/GPa) = 0.03184052
#
# Stress axis : x y z
#
# Youngs Moduli (GPa) = 82.99063 74.75389 37.93115
#
# Poissons Ratio (x) = 0.49866 0.17808
# Poissons Ratio (y) = 0.55361 -0.05275
# Poissons Ratio (z) = 0.38963 -0.10396
#
# Static dielectric constant tensor:
#      x y z
#    x 1.689880 0.000000 0.012950 
#    y 0.000000 1.708480 0.000000 
#    z 0.012950 0.000000 1.761190 
# 
# From -- ./inp_files/52186.got.cif
#   From: 2010.05.17/outbox.cif.g08.bks.cpg/sg15_27_cif.got.tgz:52186.got - 2010.06.03 18:47:42.
