data_PCOD9287483
_publ_section_title
;
Structure prediction by ZEFSAII (Michael W. Deem and Ramdas Pophale) SiO2 
 PCOD9287483
Probable space group: C 2/C
;
_chemical_formula_sum "Si O2"
_cell_formula_units_Z 52
_cell_length_a 9.157780
_cell_length_b 17.903753
_cell_length_c 18.727652
_cell_angle_alpha 90.000000
_cell_angle_beta 134.713034
_cell_angle_gamma 90.000000
_cell_volume 2182.061180
_symmetry_space_group_name_H-M "C 2/C"
_symmetry_group_IT_number 15
_symmetry_cell_setting 'monoclinic'
loop_
_space_group_symop_operation_xyz
x,y,z
-x,y,1/2-z
-x,-y,-z
x,-y,1/2+z
1/2+x,1/2+y,z
1/2-x,1/2+y,1/2-z
1/2-x,1/2-y,-z
1/2+x,1/2-y,1/2+z
loop_
_atom_site_type_symbol
_atom_site_label
_atom_site_fract_x
_atom_site_fract_y
_atom_site_fract_z
Si Si1 0.360874 0.361242 0.852391
Si Si2 0.548894 0.576048 0.976164
Si Si3 0.058196 0.291877 0.581561
Si Si4 0.500000 0.698409 0.250000
Si Si5 0.162339 0.225644 0.854163
Si Si6 0.806190 0.527885 0.729507
Si Si7 0.004003 0.458773 0.575765
O O1 0.474515 0.345574 0.817319
O O2 0.209761 0.293520 0.816083
O O3 0.248781 0.441232 0.809409
O O4 0.479066 0.364428 0.970018
O O5 0.389159 0.577934 0.856642
O O6 0.500000 0.500000 0.000000
O O7 0.778875 0.566007 0.026772
O O8 0.287273 0.256965 0.660833
O O9 0.939668 0.254030 0.607063
O O10 0.891121 0.299019 0.459479
O O11 0.115197 0.379080 0.614359
O O12 0.000000 0.178456 0.750000
O O13 0.000000 0.552425 0.750000
O O14 0.884820 0.518457 0.835759
O O15 0.000000 0.500000 0.500000
#
# Coordination Sequence:
#
# PCOD9287483 Si02
#       7
#     8   8   8   4   8   8   8
#     4  11  21  40  67  94 128 167 226 277 330 408
#     4  10  22  36  64  92 126 171 221 270 323 396
#     4  11  25  41  67 101 127 169 233 274 337 411
#     4  12  24  36  70 100 130 164 224 288 334 396
#     4  11  21  46  73  87 128 185 220 276 338 415
#     4  11  20  38  65  88 125 176 226 259 329 406
#     4  12  24  40  62  97 135 170 223 276 330 396
#
# _framework density 23.830679
#
# number of rings (size 3 to 8) (size 9 to 14) (size 15 to 20)
#    0.000    0.923    7.692    0.462    4.308    1.231 
#    2.769    0.000    1.692    0.000    0.000    0.000 
#    0.000    0.000    0.000    0.000    0.000    0.000 
#
# Total GULP energy -144928.236059 kJ/mol
# GULP energy per Si atom -5574.162925 kJ/mol
# Density = 2.377644 g / cm^3
# Si number density = 23.830679 Si / 1000 Ang^3
#
#
#
# Elastic Constant Matrix: (Units=GPa)
#
#
# Indices 1 2 3 4 5 6 
#
# 1 122.4242 11.7568 62.0763 0.0000 1.8608 0.0000
# 2 11.7568 28.2497 5.9182 0.0000 -1.3751 0.0000
# 3 62.0763 5.9182 247.6306 0.0000 -3.1156 0.0000
# 4 0.0000 0.0000 0.0000 16.6415 0.0000 0.1538
# 5 1.8608 -1.3751 -3.1156 0.0000 41.9322 0.0000
# 6 0.0000 0.0000 0.0000 0.1538 0.0000 12.2347
#
#
#
# Elastic Compliance Matrix: (Units=1/GPa)
#
#
# Indices 1 2 3 4 5 6 
#
# 1 0.009720 -0.003586 -0.002360 0.000000 -0.000724 0.000000
# 2 -0.003586 0.036951 0.000033 0.000000 0.001373 0.000000
# 3 -0.002360 0.000033 0.004635 0.000000 0.000450 0.000000
# 4 0.000000 0.000000 0.000000 0.060098 0.000000 -0.000755
# 5 -0.000724 0.001373 0.000450 0.000000 0.023959 0.000000
# 6 0.000000 0.000000 0.000000 -0.000755 0.000000 0.081744
#
#
# Mechanical properties :
#
#
# Convention : Reuss Voigt Hill
#
# Bulk Modulus (GPa) = 25.32935 61.97856 43.65396
# Shear Modulus (GPa) = 20.65318 35.39855 28.02586
#
# Velocity S-wave (km/s) = 2.94711 3.85829 3.43307
# Velocity P-wave (km/s) = 4.71514 6.77591 5.83719
#
# Compressibility (1/GPa) = 0.03947989
#
# Stress axis : x y z
#
# Youngs Moduli (GPa) = 102.87584 27.06285 215.75970
#
# Poissons Ratio (x) = 0.09705 0.50922
# Poissons Ratio (y) = 0.36894 -0.00716
# Poissons Ratio (z) = 0.24280 -0.00090
#
# Static dielectric constant tensor:
#      x y z
#    x 1.777090 0.000000 -0.014080 
#    y 0.000000 1.964100 0.000000 
#    z -0.014080 0.000000 1.968040 
# 
# From -- ./inp_files/192584.got.cif
#   From: 2010.05.17/outbox.cif.g08.bks.cpg/sg15_97_cif.got.tgz:192584.got - 2010.06.03 18:47:42.
