data_PCOD9287759
_publ_section_title
;
Structure prediction by ZEFSAII (Michael W. Deem and Ramdas Pophale) SiO2 
 PCOD9287759
Probable space group: C 2/C
;
_chemical_formula_sum "Si O2"
_cell_formula_units_Z 52
_cell_length_a 23.562442
_cell_length_b 7.730485
_cell_length_c 15.253557
_cell_angle_alpha 90.000000
_cell_angle_beta 51.257342
_cell_angle_gamma 90.000000
_cell_volume 2167.070840
_symmetry_space_group_name_H-M "C 2/C"
_symmetry_group_IT_number 15
_symmetry_cell_setting 'monoclinic'
loop_
_space_group_symop_operation_xyz
x,y,z
-x,y,1/2-z
-x,-y,-z
x,-y,1/2+z
1/2+x,1/2+y,z
1/2-x,1/2+y,1/2-z
1/2-x,1/2-y,-z
1/2+x,1/2-y,1/2+z
loop_
_atom_site_type_symbol
_atom_site_label
_atom_site_fract_x
_atom_site_fract_y
_atom_site_fract_z
Si Si1 0.405163 0.329037 0.007641
Si Si2 0.000000 0.566737 0.250000
Si Si3 0.233471 0.391189 0.905471
Si Si4 0.645242 0.215599 0.050049
Si Si5 0.342494 0.361533 0.648154
Si Si6 0.123806 0.948416 0.654019
Si Si7 0.052240 0.307296 0.343028
O O1 0.327763 0.236474 0.071628
O O2 0.399595 0.482809 0.081393
O O3 0.412917 0.407402 0.902643
O O4 0.472404 0.204340 0.961653
O O5 0.059160 0.670384 0.135665
O O6 0.046883 0.449003 0.271828
O O7 0.278606 0.431295 0.771871
O O8 0.302329 0.340330 0.899865
O O9 0.190094 0.538946 0.000670
O O10 0.649345 0.352190 0.126135
O O11 0.674898 0.314292 0.935089
O O12 0.382179 0.192506 0.651033
O O13 0.069837 0.875779 0.778440
#
# Coordination Sequence:
#
# PCOD9287759 Si02
#       7
#     8   4   8   8   8   8   8
#     4  11  20  39  63  88 127 168 218 274 323 398
#     4  12  24  40  68  92 140 176 224 288 320 398
#     4  11  21  42  62  95 128 171 217 271 335 391
#     4  11  24  42  63 101 137 170 224 277 339 388
#     4  10  25  39  65  92 132 173 222 270 337 404
#     4  10  22  37  68  91 128 168 221 271 328 401
#     4  11  21  43  63  96 124 178 223 272 338 395
#
# _framework density 23.995522999999999
#
# number of rings (size 3 to 8) (size 9 to 14) (size 15 to 20)
#    0.000    1.231    3.077    2.308    4.308    1.846 
#    0.000    1.538    0.000    0.000    0.000    0.000 
#    0.000    0.000    0.000    0.000    0.000    0.000 
#
# Total GULP energy -144943.914053 kJ/mol
# GULP energy per Si atom -5574.765925 kJ/mol
# Density = 2.394091 g / cm^3
# Si number density = 23.995523 Si / 1000 Ang^3
#
#
#
# Elastic Constant Matrix: (Units=GPa)
#
#
# Indices 1 2 3 4 5 6 
#
# 1 58.9128 5.4880 21.7742 0.0000 -23.9860 0.0001
# 2 5.4880 40.9464 8.7234 0.0002 -1.1495 0.0001
# 3 21.7742 8.7234 84.3583 0.0001 -16.8183 0.0000
# 4 0.0000 0.0002 0.0001 16.8995 -0.0001 -7.4732
# 5 -23.9860 -1.1495 -16.8183 -0.0001 31.6844 0.0000
# 6 0.0001 0.0001 0.0000 -7.4732 0.0000 23.3620
#
#
#
# Elastic Compliance Matrix: (Units=1/GPa)
#
#
# Indices 1 2 3 4 5 6 
#
# 1 0.025420 -0.002315 -0.002798 0.000000 0.017674 0.000000
# 2 -0.002315 0.025191 -0.002432 0.000000 -0.002129 0.000000
# 3 -0.002798 -0.002432 0.013854 0.000000 0.005147 0.000000
# 4 0.000000 0.000000 0.000000 0.068923 0.000000 0.022048
# 5 0.017674 -0.002129 0.005147 0.000000 0.047596 0.000000
# 6 0.000000 0.000000 0.000000 0.022048 0.000000 0.049857
#
#
# Mechanical properties :
#
#
# Convention : Reuss Voigt Hill
#
# Bulk Modulus (GPa) = 20.25312 28.46543 24.35927
# Shear Modulus (GPa) = 19.05561 24.27131 21.66346
#
# Velocity S-wave (km/s) = 2.82109 3.18385 3.00794
# Velocity P-wave (km/s) = 4.36693 5.04028 4.71564
#
# Compressibility (1/GPa) = 0.04937511
#
# Stress axis : x y z
#
# Youngs Moduli (GPa) = 39.33893 39.69705 72.18043
#
# Poissons Ratio (x) = 0.09189 0.20198
# Poissons Ratio (y) = 0.09106 0.17554
# Poissons Ratio (z) = 0.11008 0.09654
#
# Static dielectric constant tensor:
#      x y z
#    x 1.993190 0.000000 0.030820 
#    y 0.000000 1.976350 0.000000 
#    z 0.030820 0.000000 1.917980 
# 
# From -- ./inp_files/176467.got.cif
#   From: 2010.05.17/outbox.cif.g08.bks.cpg/sg15_89_cif.got.tgz:176467.got - 2010.06.03 18:47:42.
