data_PCOD9287702
_publ_section_title
;
Structure prediction by ZEFSAII (Michael W. Deem and Ramdas Pophale) SiO2 
 PCOD9287702
Probable space group: C 2/C
;
_chemical_formula_sum "Si O2"
_cell_formula_units_Z 40
_cell_length_a 18.338303
_cell_length_b 15.786627
_cell_length_c 5.469574
_cell_angle_alpha 90.000000
_cell_angle_beta 87.360817
_cell_angle_gamma 90.000000
_cell_volume 1581.761861
_symmetry_space_group_name_H-M "C 2/C"
_symmetry_group_IT_number 15
_symmetry_cell_setting 'monoclinic'
loop_
_space_group_symop_operation_xyz
x,y,z
-x,y,1/2-z
-x,-y,-z
x,-y,1/2+z
1/2+x,1/2+y,z
1/2-x,1/2+y,1/2-z
1/2-x,1/2-y,-z
1/2+x,1/2-y,1/2+z
loop_
_atom_site_type_symbol
_atom_site_label
_atom_site_fract_x
_atom_site_fract_y
_atom_site_fract_z
Si Si1 0.957821 0.885200 0.007119
Si Si2 0.864931 0.549064 0.784576
Si Si3 0.437371 0.183857 0.080340
Si Si4 0.207383 0.894870 0.462830
Si Si5 0.782882 0.291729 0.762435
O O1 0.000000 0.907048 0.750000
O O2 0.952555 0.781998 0.011802
O O3 0.875565 0.923710 0.035224
O O4 0.000000 0.907170 0.250000
O O5 0.881472 0.492745 0.023394
O O6 0.912346 0.632909 0.842339
O O7 0.777209 0.568802 0.810315
O O8 0.500000 0.151199 0.250000
O O9 0.365409 0.178868 0.259148
O O10 0.206406 0.794030 0.403208
O O11 0.237152 0.878831 0.730705
O O12 0.750000 0.250000 0.000000
#
# Coordination Sequence:
#
# PCOD9287702 Si02
#       5
#     8   8   8   8   8
#     4  10  22  37  63  98 124 152 189 252 336 382
#     4  11  26  42  61  85 118 174 223 245 286 348
#     4   9  21  39  58  93 126 161 196 257 305 370
#     4   9  21  37  57  89 119 155 203 263 301 365
#     4   9  18  33  62  90 115 156 198 254 323 363
#
# _framework density 25.288257000000002
#
# number of rings (size 3 to 8) (size 9 to 14) (size 15 to 20)
#    0.000    2.400    0.000    1.200   14.000    4.000 
#    0.000    0.000    0.000    3.600    0.000    0.000 
#    0.000    0.000    0.000    0.000    0.000    0.000 
#
# Total GULP energy -111520.607083 kJ/mol
# GULP energy per Si atom -5576.030354 kJ/mol
# Density = 2.523070 g / cm^3
# Si number density = 25.288257 Si / 1000 Ang^3
#
#
#
# Elastic Constant Matrix: (Units=GPa)
#
#
# Indices 1 2 3 4 5 6 
#
# 1 -523.8490 132.6676 -259.0297 0.0000 3.6900 0.0000
# 2 132.6676 82.5253 80.2286 0.0000 23.2075 0.0000
# 3 -259.0297 80.2286 -42.7724 0.0000 -3.1314 0.0000
# 4 0.0000 0.0000 0.0000 114.3216 0.0000 12.3623
# 5 3.6900 23.2075 -3.1314 0.0000 20.1585 0.0000
# 6 0.0000 0.0000 0.0000 12.3623 0.0000 38.4032
#
#
#
# Elastic Compliance Matrix: (Units=1/GPa)
#
#
# Indices 1 2 3 4 5 6 
#
# 1 0.002603 0.004442 -0.006945 0.000000 -0.006670 0.000000
# 2 0.004442 0.012162 -0.002973 0.000000 -0.015276 0.000000
# 3 -0.006945 -0.002973 0.012618 0.000000 0.006654 0.000000
# 4 0.000000 0.000000 0.000000 0.009063 0.000000 -0.002917
# 5 -0.006670 -0.015276 0.006654 0.000000 0.069448 0.000000
# 6 0.000000 0.000000 0.000000 -0.002917 0.000000 0.026979
#
#
# Mechanical properties :
#
#
# Convention : Reuss Voigt Hill
#
# Bulk Modulus (GPa) = 60.85683 -64.04035 -1.59176
# Shear Modulus (GPa) = 33.48924 5.37915 19.43420
#
# Velocity S-wave (km/s) = 3.64304 1.46005 2.77520
# Velocity P-wave (km/s) = 6.46631 4.74729 3.10454
#
# Compressibility (1/GPa) = 0.01643201
#
# Stress axis : x y z
#
# Youngs Moduli (GPa) = 384.11044 82.22414 79.25133
#
# Poissons Ratio (x) = -0.36527 0.55043
# Poissons Ratio (y) = -1.70638 0.23560
# Poissons Ratio (z) = 2.66777 0.24444
#
# Static dielectric constant tensor:
#      x y z
#    x 1.798540 0.000000 -0.187140 
#    y 0.000000 1.895220 0.000000 
#    z -0.187140 0.000000 1.647000 
# 
# From -- ./inp_files/10185.got.cif
#   From: 2010.05.17/outbox.cif.g08.bks.cpg/sg15_6_cif.got.tgz:10185.got - 2010.06.03 18:47:42.
