data_PCOD9287926
_publ_section_title
;
Structure prediction by ZEFSAII (Michael W. Deem and Ramdas Pophale) SiO2 
 PCOD9287926
Probable space group: C 2/C
;
_chemical_formula_sum "Si O2"
_cell_formula_units_Z 52
_cell_length_a 18.275730
_cell_length_b 13.657374
_cell_length_c 20.843183
_cell_angle_alpha 90.000000
_cell_angle_beta 149.704720
_cell_angle_gamma 90.000000
_cell_volume 2624.397989
_symmetry_space_group_name_H-M "C 2/C"
_symmetry_group_IT_number 15
_symmetry_cell_setting 'monoclinic'
loop_
_space_group_symop_operation_xyz
x,y,z
-x,y,1/2-z
-x,-y,-z
x,-y,1/2+z
1/2+x,1/2+y,z
1/2-x,1/2+y,1/2-z
1/2-x,1/2-y,-z
1/2+x,1/2-y,1/2+z
loop_
_atom_site_type_symbol
_atom_site_label
_atom_site_fract_x
_atom_site_fract_y
_atom_site_fract_z
Si Si1 0.914806 0.535674 0.835570
Si Si2 0.090928 0.360384 0.581003
Si Si3 0.500000 0.765696 0.250000
Si Si4 0.422010 0.496368 0.048018
Si Si5 0.905942 0.871950 0.421725
Si Si6 0.827344 0.567692 0.563163
Si Si7 0.864017 0.907653 0.709597
O O1 0.934835 0.424254 0.875117
O O2 0.749882 0.573046 0.703914
O O3 0.015807 0.543589 0.849016
O O4 0.980679 0.604188 0.941997
O O5 0.098406 0.243964 0.590839
O O6 0.245104 0.398390 0.673581
O O7 0.636452 0.831480 0.373114
O O8 0.547462 0.692975 0.229681
O O9 0.477244 0.414545 0.040554
O O10 0.530210 0.505305 0.190124
O O11 0.445712 0.595395 0.023972
O O12 0.259724 0.497505 0.953832
O O13 0.721667 0.580276 0.422062
#
# Coordination Sequence:
#
# PCOD9287926 Si02
#       7
#     8   8   4   8   8   8   8
#     4  10  22  40  60  88 121 159 202 251 296 359
#     4  10  22  38  60  88 116 160 209 242 298 359
#     4  12  22  34  58  94 118 156 194 240 330 364
#     4  11  23  39  55  91 121 156 200 247 308 352
#     4  11  24  39  63  85 124 164 199 255 296 359
#     4  11  22  37  58  87 124 153 196 252 300 362
#     4  11  21  35  57  84 124 151 192 250 301 364
#
# _framework density 19.814067999999999
#
# number of rings (size 3 to 8) (size 9 to 14) (size 15 to 20)
#    0.000    1.231    3.077    3.231    6.462    0.000 
#    0.000    0.769    0.000    0.000    8.000    0.000 
#    0.000    0.000    0.000    0.000    0.000    0.000 
#
# Total GULP energy -145031.767109 kJ/mol
# GULP energy per Si atom -5578.144889 kJ/mol
# Density = 1.976897 g / cm^3
# Si number density = 19.814068 Si / 1000 Ang^3
#
#
#
# Elastic Constant Matrix: (Units=GPa)
#
#
# Indices 1 2 3 4 5 6 
#
# 1 107.8700 25.3197 16.2878 -0.0001 16.7636 0.0000
# 2 25.3197 64.6278 8.8272 0.0003 0.2848 0.0001
# 3 16.2878 8.8272 88.1096 0.0003 -0.2263 0.0001
# 4 -0.0001 0.0003 0.0003 14.8777 0.0000 3.7103
# 5 16.7636 0.2848 -0.2263 0.0000 28.6576 0.0000
# 6 0.0000 0.0001 0.0001 3.7103 0.0000 23.3344
#
#
#
# Elastic Compliance Matrix: (Units=1/GPa)
#
#
# Indices 1 2 3 4 5 6 
#
# 1 0.011583 -0.004272 -0.001731 0.000000 -0.006747 0.000000
# 2 -0.004272 0.017264 -0.000934 0.000000 0.002320 0.000000
# 3 -0.001731 -0.000934 0.011766 0.000000 0.001115 0.000000
# 4 0.000000 0.000000 0.000000 0.069990 0.000000 -0.011129
# 5 -0.006747 0.002320 0.001115 0.000000 0.038827 0.000000
# 6 0.000000 0.000000 0.000000 -0.011129 0.000000 0.044625
#
#
# Mechanical properties :
#
#
# Convention : Reuss Voigt Hill
#
# Bulk Modulus (GPa) = 37.39683 40.16409 38.78046
# Shear Modulus (GPa) = 23.05841 27.38546 25.22193
#
# Velocity S-wave (km/s) = 3.41506 3.72172 3.57169
# Velocity P-wave (km/s) = 5.87070 6.22758 6.05177
#
# Compressibility (1/GPa) = 0.02674023
#
# Stress axis : x y z
#
# Youngs Moduli (GPa) = 86.33412 57.92344 84.99186
#
# Poissons Ratio (x) = 0.24744 0.14708
# Poissons Ratio (y) = 0.36880 0.07938
# Poissons Ratio (z) = 0.14941 0.05410
#
# Static dielectric constant tensor:
#      x y z
#    x 1.736730 0.000000 0.008420 
#    y 0.000000 1.657890 0.000000 
#    z 0.008420 0.000000 1.785560 
# 
# From -- ./inp_files/249130.got.cif
#   From: 2010.05.17/outbox.cif.g08.bks.cpg/sg15_125_cif.got.tgz:249130.got - 2010.06.03 18:47:42.
