data_PCOD9287614
_publ_section_title
;
Structure prediction by ZEFSAII (Michael W. Deem and Ramdas Pophale) SiO2 
 PCOD9287614
Probable space group: C 2/C
;
_chemical_formula_sum "Si O2"
_cell_formula_units_Z 64
_cell_length_a 18.239214
_cell_length_b 14.008339
_cell_length_c 10.321302
_cell_angle_alpha 90.000000
_cell_angle_beta 86.960364
_cell_angle_gamma 90.000000
_cell_volume 2633.393775
_symmetry_space_group_name_H-M "C 2/C"
_symmetry_group_IT_number 15
_symmetry_cell_setting 'monoclinic'
loop_
_space_group_symop_operation_xyz
x,y,z
-x,y,1/2-z
-x,-y,-z
x,-y,1/2+z
1/2+x,1/2+y,z
1/2-x,1/2+y,1/2-z
1/2-x,1/2-y,-z
1/2+x,1/2-y,1/2+z
loop_
_atom_site_type_symbol
_atom_site_label
_atom_site_fract_x
_atom_site_fract_y
_atom_site_fract_z
Si Si1 0.270523 0.363755 0.554934
Si Si2 0.489644 0.303742 0.465098
Si Si3 0.934522 0.083341 0.357273
Si Si4 0.160369 0.447048 0.376808
Si Si5 0.857863 0.788696 0.300044
Si Si6 0.311730 0.474540 0.220692
Si Si7 0.875614 0.753594 0.705738
Si Si8 0.567748 0.874456 0.838934
O O1 0.192451 0.399517 0.505842
O O2 0.307220 0.309389 0.429709
O O3 0.311640 0.461112 0.593600
O O4 0.296286 0.298100 0.673734
O O5 0.533641 0.398368 0.502878
O O6 0.438397 0.316824 0.345019
O O7 0.433092 0.282537 0.587598
O O8 0.536327 0.208315 0.434881
O O9 0.870125 0.013594 0.319496
O O10 0.903835 0.189948 0.326565
O O11 0.000000 0.063073 0.250000
O O12 0.231788 0.483674 0.293039
O O13 0.128378 0.359717 0.295625
O O14 0.102974 0.532134 0.399136
O O15 0.869219 0.682613 0.246907
O O16 0.829328 0.863746 0.197769
O O17 0.500000 0.900545 0.750000
#
# Coordination Sequence:
#
# PCOD9287614 Si02
#       8
#     8   8   8   8   8   8   8   8
#     4   9  20  40  62  85 113 155 200 240 298 358
#     4   9  19  37  59  81 115 160 196 240 303 354
#     4   9  19  36  59  88 114 145 198 251 290 344
#     4  11  23  37  58  87 118 154 197 245 295 358
#     4   9  20  39  59  84 119 156 195 244 296 352
#     4  10  22  37  59  90 119 151 197 249 301 353
#     4   9  19  37  61  85 114 151 199 249 290 348
#     4  10  23  39  56  84 120 156 197 245 299 357
#
# _framework density 24.303239999999999
#
# number of rings (size 3 to 8) (size 9 to 14) (size 15 to 20)
#    0.000    2.500    0.000    1.125    0.000   14.000 
#    0.000    1.250    0.000    0.000    0.000    0.000 
#    0.000    0.000    0.000    0.000    0.000    0.000 
#
# Total GULP energy -178715.943456 kJ/mol
# GULP energy per Si atom -5584.873233 kJ/mol
# Density = 2.424792 g / cm^3
# Si number density = 24.303240 Si / 1000 Ang^3
#
#
#
# Elastic Constant Matrix: (Units=GPa)
#
#
# Indices 1 2 3 4 5 6 
#
# 1 88.3076 36.1160 7.0279 0.0000 -1.5268 0.0000
# 2 36.1160 130.3084 8.0352 0.0000 17.9540 0.0000
# 3 7.0279 8.0352 32.8014 0.0000 1.9885 0.0000
# 4 0.0000 0.0000 0.0000 28.5685 0.0000 14.9597
# 5 -1.5268 17.9540 1.9885 0.0000 22.9184 0.0000
# 6 0.0000 0.0000 0.0000 14.9597 0.0000 58.5572
#
#
#
# Elastic Compliance Matrix: (Units=1/GPa)
#
#
# Indices 1 2 3 4 5 6 
#
# 1 0.013257 -0.004139 -0.002088 0.000000 0.004307 0.000000
# 2 -0.004139 0.009991 -0.001075 0.000000 -0.008009 0.000000
# 3 -0.002088 -0.001075 0.031319 0.000000 -0.002014 0.000000
# 4 0.000000 0.000000 0.000000 0.040409 0.000000 -0.010323
# 5 0.004307 -0.008009 -0.002014 0.000000 0.050369 0.000000
# 6 0.000000 0.000000 0.000000 -0.010323 0.000000 0.019715
#
#
# Mechanical properties :
#
#
# Convention : Reuss Voigt Hill
#
# Bulk Modulus (GPa) = 25.02242 39.30838 32.16540
# Shear Modulus (GPa) = 25.90861 35.35806 30.63334
#
# Velocity S-wave (km/s) = 3.26859 3.81841 3.55415
# Velocity P-wave (km/s) = 4.95613 5.97073 5.48693
#
# Compressibility (1/GPa) = 0.03996417
#
# Stress axis : x y z
#
# Youngs Moduli (GPa) = 75.42928 100.08897 31.92925
#
# Poissons Ratio (x) = 0.41428 0.06666
# Poissons Ratio (y) = 0.31221 0.03433
# Poissons Ratio (z) = 0.15747 0.10761
#
# Static dielectric constant tensor:
#      x y z
#    x 2.041770 0.000000 -0.029910 
#    y 0.000000 1.952170 0.000000 
#    z -0.029910 0.000000 1.927890 
# 
# From -- ./inp_files/105746.got.cif
#   From: 2010.05.17/outbox.cif.g08.bks.cpg/sg15_53_cif.got.tgz:105746.got - 2010.06.03 18:47:42.
