data_PCOD9287901
_publ_section_title
;
Structure prediction by ZEFSAII (Michael W. Deem and Ramdas Pophale) SiO2 
 PCOD9287901
Probable space group: C 2/C
;
_chemical_formula_sum "Si O2"
_cell_formula_units_Z 48
_cell_length_a 22.039331
_cell_length_b 12.654740
_cell_length_c 6.560457
_cell_angle_alpha 90.000000
_cell_angle_beta 114.346120
_cell_angle_gamma 90.000000
_cell_volume 1667.010367
_symmetry_space_group_name_H-M "C 2/C"
_symmetry_group_IT_number 15
_symmetry_cell_setting 'monoclinic'
loop_
_space_group_symop_operation_xyz
x,y,z
-x,y,1/2-z
-x,-y,-z
x,-y,1/2+z
1/2+x,1/2+y,z
1/2-x,1/2+y,1/2-z
1/2-x,1/2-y,-z
1/2+x,1/2-y,1/2+z
loop_
_atom_site_type_symbol
_atom_site_label
_atom_site_fract_x
_atom_site_fract_y
_atom_site_fract_z
Si Si1 0.394281 0.014674 0.736749
Si Si2 0.714789 0.023174 0.657577
Si Si3 0.436757 0.386698 0.287532
Si Si4 0.796895 0.787356 0.384173
Si Si5 0.354636 0.587926 0.313219
Si Si6 0.925495 0.320123 0.985143
O O1 0.305999 0.017801 0.613097
O O2 0.441300 0.914259 0.852588
O O3 0.372778 0.028296 0.961428
O O4 0.427726 0.125816 0.711518
O O5 0.780684 0.947859 0.769461
O O6 0.750132 0.138697 0.684585
O O7 0.500000 0.424708 0.250000
O O8 0.399178 0.484216 0.337424
O O9 0.456259 0.290385 0.461800
O O10 0.385876 0.346531 0.041256
O O11 0.750000 0.750000 0.500000
O O12 0.850156 0.853282 0.592724
O O13 0.844228 0.700259 0.348907
#
# Coordination Sequence:
#
# PCOD9287901 Si02
#       6
#     8   8   8   8   8   8
#     4  10  22  38  59  92 131 169 200 256 314 394
#     4  11  18  36  58  94 133 165 197 239 315 392
#     4  12  26  45  66  92 122 172 227 276 324 365
#     4  12  22  36  62  99 137 169 204 240 314 406
#     4  12  23  41  65  97 137 169 206 265 315 388
#     4  11  24  41  63  90 128 169 221 264 322 376
#
# _framework density 28.794060000000002
#
# number of rings (size 3 to 8) (size 9 to 14) (size 15 to 20)
#    0.000    0.667    6.667    1.500    2.333    0.667 
#    0.000    0.833    0.000    0.000    0.000    0.000 
#    0.000    0.000    0.000    0.000    0.000    0.000 
#
# Total GULP energy -134225.861125 kJ/mol
# GULP energy per Si atom -5592.744214 kJ/mol
# Density = 2.872852 g / cm^3
# Si number density = 28.794060 Si / 1000 Ang^3
#
#
#
# Elastic Constant Matrix: (Units=GPa)
#
#
# Indices 1 2 3 4 5 6 
#
# 1 128.9711 21.3219 35.4361 0.0000 -31.8137 0.0000
# 2 21.3219 130.6396 34.8075 0.0000 -12.1892 0.0000
# 3 35.4361 34.8075 156.1685 0.0000 -7.3473 0.0000
# 4 0.0000 0.0000 0.0000 50.5568 0.0000 -15.6399
# 5 -31.8137 -12.1892 -7.3473 0.0000 48.4027 0.0000
# 6 0.0000 0.0000 0.0000 -15.6399 0.0000 26.8698
#
#
#
# Elastic Compliance Matrix: (Units=1/GPa)
#
#
# Indices 1 2 3 4 5 6 
#
# 1 0.009839 -0.000555 -0.001824 0.000000 0.006050 0.000000
# 2 -0.000555 0.008326 -0.001660 0.000000 0.001480 0.000000
# 3 -0.001824 -0.001660 0.007162 0.000000 -0.000530 0.000000
# 4 0.000000 0.000000 0.000000 0.024123 0.000000 0.014041
# 5 0.006050 0.001480 -0.000530 0.000000 0.024929 0.000000
# 6 0.000000 0.000000 0.000000 0.014041 0.000000 0.045390
#
#
# Mechanical properties :
#
#
# Convention : Reuss Voigt Hill
#
# Bulk Modulus (GPa) = 57.97761 66.54559 62.26160
# Shear Modulus (GPa) = 37.42589 46.78010 42.10300
#
# Velocity S-wave (km/s) = 3.60915 4.03506 3.82804
# Velocity P-wave (km/s) = 6.12756 6.69851 6.41938
#
# Compressibility (1/GPa) = 0.01724804
#
# Stress axis : x y z
#
# Youngs Moduli (GPa) = 101.63510 120.11089 139.61939
#
# Poissons Ratio (x) = 0.06670 0.25469
# Poissons Ratio (y) = 0.05644 0.23177
# Poissons Ratio (z) = 0.18540 0.19939
#
# Static dielectric constant tensor:
#      x y z
#    x 2.220340 0.000000 0.013090 
#    y 0.000000 2.189750 0.000000 
#    z 0.013090 0.000000 2.283580 
# 
# From -- ./inp_files/60897.got.cif
#   From: 2010.05.17/outbox.cif.g08.bks.cpg/sg15_31_cif.got.tgz:60897.got - 2010.06.03 18:47:42.
