data_PCOD9287167
_publ_section_title
;
Structure prediction by ZEFSAII (Michael W. Deem and Ramdas Pophale) SiO2 
 PCOD9287167
Probable space group: C 2/C
;
_chemical_formula_sum "Si O2"
_cell_formula_units_Z 56
_cell_length_a 11.667182
_cell_length_b 19.608535
_cell_length_c 14.771572
_cell_angle_alpha 90.000000
_cell_angle_beta 120.083333
_cell_angle_gamma 90.000000
_cell_volume 2924.173720
_symmetry_space_group_name_H-M "C 2/C"
_symmetry_group_IT_number 15
_symmetry_cell_setting 'monoclinic'
loop_
_space_group_symop_operation_xyz
x,y,z
-x,y,1/2-z
-x,-y,-z
x,-y,1/2+z
1/2+x,1/2+y,z
1/2-x,1/2+y,1/2-z
1/2-x,1/2-y,-z
1/2+x,1/2-y,1/2+z
loop_
_atom_site_type_symbol
_atom_site_label
_atom_site_fract_x
_atom_site_fract_y
_atom_site_fract_z
Si Si1 0.248863 0.963022 0.921756
Si Si2 0.095445 0.795114 0.520722
Si Si3 0.596963 0.184688 0.369835
Si Si4 0.815961 0.028156 0.302419
Si Si5 0.531734 0.352183 0.862368
Si Si6 0.029095 0.917378 0.360571
Si Si7 0.101986 0.473219 0.867006
O O1 0.273456 0.965368 0.823505
O O2 0.171191 0.892994 0.915617
O O3 0.143819 0.025457 0.895238
O O4 0.370189 0.979607 0.035748
O O5 0.252224 0.801617 0.603441
O O6 0.075646 0.728795 0.451236
O O7 0.000620 0.800189 0.570181
O O8 0.064326 0.859947 0.445147
O O9 0.500000 0.204106 0.250000
O O10 0.571627 0.104946 0.380557
O O11 0.737033 0.032719 0.362963
O O12 0.923450 0.087813 0.334906
O O13 0.897932 0.958415 0.335909
O O14 0.500000 0.323869 0.750000
O O15 0.000000 0.887315 0.250000
O O16 0.000000 0.498430 0.750000
#
# Coordination Sequence:
#
# PCOD9287167 Si02
#       7
#     8   8   8   8   8   8   8
#     4   9  17  30  48  75 105 129 169 207 263 302
#     4  11  18  32  54  72 102 136 172 221 259 296
#     4  10  22  33  47  75 103 137 173 213 254 306
#     4   9  17  30  48  76 106 130 164 216 256 311
#     4   9  17  30  53  80  99 126 168 221 266 303
#     4   9  16  27  49  77 103 127 165 216 260 303
#     4  11  20  32  47  70 107 146 174 196 252 320
#
# _framework density 19.15071
#
# number of rings (size 3 to 8) (size 9 to 14) (size 15 to 20)
#    0.000    2.286    2.857    3.000    0.000    2.857 
#    0.000    0.000    0.000    0.857    0.000    1.000 
#    0.000    0.000    0.000    0.000    0.000    0.000 
#
# Total GULP energy -156215.080095 kJ/mol
# GULP energy per Si atom -5579.110003 kJ/mol
# Density = 1.910712 g / cm^3
# Si number density = 19.150710 Si / 1000 Ang^3
#
#
#
# Elastic Constant Matrix: (Units=GPa)
#
#
# Indices 1 2 3 4 5 6 
#
# 1 27.0121 16.4647 16.8935 0.0000 -11.4357 0.0000
# 2 16.4647 42.2782 30.5859 0.0000 -4.4002 0.0000
# 3 16.8935 30.5859 121.2405 0.0000 10.0521 0.0000
# 4 0.0000 0.0000 0.0000 -8.8352 0.0000 1.2629
# 5 -11.4357 -4.4002 10.0521 0.0000 29.9560 0.0000
# 6 0.0000 0.0000 0.0000 1.2629 0.0000 16.2209
#
#
#
# Elastic Compliance Matrix: (Units=1/GPa)
#
#
# Indices 1 2 3 4 5 6 
#
# 1 0.060758 -0.016885 -0.006093 0.000000 0.022759 0.000000
# 2 -0.016885 0.035078 -0.006572 0.000000 0.000912 0.000000
# 3 -0.006093 -0.006572 0.011344 0.000000 -0.007098 0.000000
# 4 0.000000 0.000000 0.000000 -0.111937 0.000000 0.008715
# 5 0.022759 0.000912 -0.007098 0.000000 0.044586 0.000000
# 6 0.000000 0.000000 0.000000 0.008715 0.000000 0.060970
#
#
# Mechanical properties :
#
#
# Convention : Reuss Voigt Hill
#
# Bulk Modulus (GPa) = 20.79905 35.37991 28.08948
# Shear Modulus (GPa) = 28.42115 15.90744 22.16430
#
# Velocity S-wave (km/s) = 3.85655 2.88522 3.40569
# Velocity P-wave (km/s) = 5.54211 5.44186 5.49221
#
# Compressibility (1/GPa) = 0.04807913
#
# Stress axis : x y z
#
# Youngs Moduli (GPa) = 16.45877 28.50797 88.15530
#
# Poissons Ratio (x) = 0.48134 0.53716
# Poissons Ratio (y) = 0.27790 0.57938
# Poissons Ratio (z) = 0.10029 0.18736
#
# Static dielectric constant tensor:
#      x y z
#    x 1.686210 0.000000 0.019510 
#    y 0.000000 1.646890 0.000000 
#    z 0.019510 0.000000 1.708960 
# 
# From -- ./inp_files/145991.got.cif
#   From: 2010.05.17/outbox.cif.g08.bks.cpg/sg15_73_cif.got.tgz:145991.got - 2010.06.03 18:47:42.
