data_PCOD9287872
_publ_section_title
;
Structure prediction by ZEFSAII (Michael W. Deem and Ramdas Pophale) SiO2 
 PCOD9287872
Probable space group: C 2/C
;
_chemical_formula_sum "Si O2"
_cell_formula_units_Z 64
_cell_length_a 18.573376
_cell_length_b 16.805729
_cell_length_c 22.497387
_cell_angle_alpha 90.000000
_cell_angle_beta 150.385228
_cell_angle_gamma 90.000000
_cell_volume 3470.189312
_symmetry_space_group_name_H-M "C 2/C"
_symmetry_group_IT_number 15
_symmetry_cell_setting 'monoclinic'
loop_
_space_group_symop_operation_xyz
x,y,z
-x,y,1/2-z
-x,-y,-z
x,-y,1/2+z
1/2+x,1/2+y,z
1/2-x,1/2+y,1/2-z
1/2-x,1/2-y,-z
1/2+x,1/2-y,1/2+z
loop_
_atom_site_type_symbol
_atom_site_label
_atom_site_fract_x
_atom_site_fract_y
_atom_site_fract_z
Si Si1 0.936254 0.449293 0.007511
Si Si2 0.860989 0.982232 0.007338
Si Si3 0.042787 0.853112 0.076059
Si Si4 0.683209 0.788468 0.626438
Si Si5 0.663716 0.533575 0.381893
Si Si6 0.887498 0.106853 0.344023
Si Si7 0.667180 0.726562 0.380814
Si Si8 0.705628 0.977941 0.274779
O O1 0.044095 0.452565 0.141401
O O2 0.915933 0.359692 0.969486
O O3 0.781553 0.485470 0.916273
O O4 0.000000 0.500000 0.000000
O O5 0.940576 0.897438 0.050966
O O6 0.796610 0.995796 0.026141
O O7 0.989545 0.048340 0.093366
O O8 0.747713 0.000253 0.872646
O O9 0.106570 0.764294 0.121929
O O10 0.181437 0.910165 0.165106
O O11 0.951647 0.855670 0.949591
O O12 0.829594 0.828887 0.756857
O O13 0.737097 0.742504 0.606298
O O14 0.500000 0.507366 0.250000
O O15 0.665280 0.630001 0.382643
O O16 0.751147 0.053832 0.267526
O O17 0.500000 0.752726 0.250000
O O18 0.750000 0.750000 0.500000
#
# Coordination Sequence:
#
# PCOD9287872 Si02
#       8
#     8   8   8   8   8   8   8   8
#     4  11  22  37  55  87 116 145 188 241 295 336
#     4   9  18  38  59  77 111 151 204 233 275 352
#     4   9  21  32  56  84 106 151 192 238 282 339
#     4  11  22  33  56  80 118 148 188 239 294 350
#     4  10  22  38  59  80 108 158 192 227 290 352
#     4   9  17  35  54  76 110 151 191 232 283 340
#     4  10  23  36  50  76 115 157 186 230 289 355
#     4   9  19  34  56  79 109 150 191 243 281 331
#
# _framework density 18.442796999999999
#
# number of rings (size 3 to 8) (size 9 to 14) (size 15 to 20)
#    0.000    2.250    1.250    3.750    8.750    1.500 
#    0.000    0.000    0.000    0.750    0.000    0.000 
#    0.000    0.000    0.000    0.000    0.000    0.000 
#
# Total GULP energy -178399.355721 kJ/mol
# GULP energy per Si atom -5574.979866 kJ/mol
# Density = 1.840082 g / cm^3
# Si number density = 18.442797 Si / 1000 Ang^3
#
#
#
# Elastic Constant Matrix: (Units=GPa)
#
#
# Indices 1 2 3 4 5 6 
#
# 1 89.9888 24.5685 17.0571 0.0000 0.7134 0.0000
# 2 24.5685 41.4144 13.4919 -0.0001 2.6759 -0.0002
# 3 17.0571 13.4919 94.1536 -0.0012 4.5163 -0.0007
# 4 0.0000 -0.0001 -0.0012 16.4965 -0.0006 -6.5401
# 5 0.7134 2.6759 4.5163 -0.0006 22.6000 0.0000
# 6 0.0000 -0.0002 -0.0007 -6.5401 0.0000 22.9996
#
#
#
# Elastic Compliance Matrix: (Units=1/GPa)
#
#
# Indices 1 2 3 4 5 6 
#
# 1 0.013435 -0.007567 -0.001386 0.000000 0.000749 0.000000
# 2 -0.007567 0.029709 -0.002755 0.000000 -0.002728 0.000000
# 3 -0.001386 -0.002755 0.011358 0.000001 -0.001900 0.000001
# 4 0.000000 0.000000 0.000001 0.068321 0.000002 0.019428
# 5 0.000749 -0.002728 -0.001900 0.000002 0.044927 0.000000
# 6 0.000000 0.000000 0.000001 0.019428 0.000000 0.049004
#
#
# Mechanical properties :
#
#
# Convention : Reuss Voigt Hill
#
# Bulk Modulus (GPa) = 32.16890 37.31022 34.73956
# Shear Modulus (GPa) = 19.95749 23.78182 21.86966
#
# Velocity S-wave (km/s) = 3.29314 3.59484 3.44730
# Velocity P-wave (km/s) = 5.65156 6.12411 5.89257
#
# Compressibility (1/GPa) = 0.03108592
#
# Stress axis : x y z
#
# Youngs Moduli (GPa) = 74.43152 33.65949 88.04423
#
# Poissons Ratio (x) = 0.25471 0.12199
# Poissons Ratio (y) = 0.56324 0.24260
# Poissons Ratio (z) = 0.10313 0.09275
#
# Static dielectric constant tensor:
#      x y z
#    x 1.650250 0.000000 -0.001470 
#    y 0.000000 1.664150 0.000000 
#    z -0.001470 0.000000 1.681930 
# 
# From -- ./inp_files/249667.got.cif
#   From: 2010.05.17/outbox.cif.g08.bks.cpg/sg15_125_cif.got.tgz:249667.got - 2010.06.03 18:47:42.
