data_PCOD9287724
_publ_section_title
;
Structure prediction by ZEFSAII (Michael W. Deem and Ramdas Pophale) SiO2 
 PCOD9287724
Probable space group: C 2/C
;
_chemical_formula_sum "Si O2"
_cell_formula_units_Z 56
_cell_length_a 17.020417
_cell_length_b 9.162694
_cell_length_c 25.859519
_cell_angle_alpha 90.000000
_cell_angle_beta 137.889359
_cell_angle_gamma 90.000000
_cell_volume 2704.296584
_symmetry_space_group_name_H-M "C 2/C"
_symmetry_group_IT_number 15
_symmetry_cell_setting 'monoclinic'
loop_
_space_group_symop_operation_xyz
x,y,z
-x,y,1/2-z
-x,-y,-z
x,-y,1/2+z
1/2+x,1/2+y,z
1/2-x,1/2+y,1/2-z
1/2-x,1/2-y,-z
1/2+x,1/2-y,1/2+z
loop_
_atom_site_type_symbol
_atom_site_label
_atom_site_fract_x
_atom_site_fract_y
_atom_site_fract_z
Si Si1 0.860572 0.486748 0.930608
Si Si2 0.935129 0.110462 0.867825
Si Si3 0.660241 0.241477 0.502696
Si Si4 0.794509 0.310883 0.306431
Si Si5 0.795534 0.956096 0.882535
Si Si6 0.320757 0.248775 0.650908
Si Si7 0.979763 0.828115 0.824880
O O1 0.817813 0.594891 0.954713
O O2 0.815627 0.553785 0.854670
O O3 0.804207 0.329451 0.912092
O O4 0.000000 0.500000 0.000000
O O5 0.810480 0.159377 0.784095
O O6 0.904262 0.035545 0.907414
O O7 0.985836 0.987342 0.853830
O O8 0.026837 0.240685 0.918365
O O9 0.750000 0.250000 0.500000
O O10 0.676419 0.375216 0.550538
O O11 0.761460 0.170799 0.325342
O O12 0.913858 0.272713 0.334541
O O13 0.699203 0.079942 0.845659
O O14 0.394275 0.323545 0.733197
O O15 0.396191 0.272734 0.635935
#
# Coordination Sequence:
#
# PCOD9287724 Si02
#       7
#     8   8   8   8   8   8   8
#     4  11  24  41  67  96 130 169 219 264 318 393
#     4  11  20  42  68  87 126 171 214 266 317 390
#     4  11  25  44  61  95 131 172 215 263 330 386
#     4  10  22  42  64  96 120 171 220 261 319 390
#     4  10  23  41  65  91 128 166 218 259 325 388
#     4  11  21  41  62  95 130 161 207 272 320 378
#     4  10  22  37  65  93 124 160 213 262 327 374
#
# _framework density 20.707788000000001
#
# number of rings (size 3 to 8) (size 9 to 14) (size 15 to 20)
#    0.000    1.429    2.857    2.143    0.000    3.429 
#    5.143    2.143    0.000    0.000    0.000    0.000 
#    0.000    0.000    0.000    0.000    0.000    0.000 
#
# Total GULP energy -156498.183036 kJ/mol
# GULP energy per Si atom -5589.220823 kJ/mol
# Density = 2.066066 g / cm^3
# Si number density = 20.707788 Si / 1000 Ang^3
#
#
#
# Elastic Constant Matrix: (Units=GPa)
#
#
# Indices 1 2 3 4 5 6 
#
# 1 132.7700 39.5742 25.3318 0.0000 -7.5686 0.0000
# 2 39.5742 69.9603 13.1462 0.0000 -1.0770 0.0000
# 3 25.3318 13.1462 74.1789 0.0000 -0.1646 0.0000
# 4 0.0000 0.0000 0.0000 15.2423 0.0000 9.1239
# 5 -7.5686 -1.0770 -0.1646 0.0000 26.0725 0.0000
# 6 0.0000 0.0000 0.0000 9.1239 0.0000 24.5256
#
#
#
# Elastic Compliance Matrix: (Units=1/GPa)
#
#
# Indices 1 2 3 4 5 6 
#
# 1 0.009610 -0.004946 -0.002400 0.000000 0.002570 0.000000
# 2 -0.004946 0.017341 -0.001386 0.000000 -0.000728 0.000000
# 3 -0.002400 -0.001386 0.014545 0.000000 -0.000662 0.000000
# 4 0.000000 0.000000 0.000000 0.084402 0.000000 -0.031399
# 5 0.002570 -0.000728 -0.000662 0.000000 0.039066 0.000000
# 6 0.000000 0.000000 0.000000 -0.031399 0.000000 0.052454
#
#
# Mechanical properties :
#
#
# Convention : Reuss Voigt Hill
#
# Bulk Modulus (GPa) = 41.60944 48.11261 44.86102
# Shear Modulus (GPa) = 20.58532 26.42523 23.50527
#
# Velocity S-wave (km/s) = 3.15633 3.57613 3.37277
# Velocity P-wave (km/s) = 5.78105 6.35107 6.07275
#
# Compressibility (1/GPa) = 0.02403301
#
# Stress axis : x y z
#
# Youngs Moduli (GPa) = 104.05448 57.66792 68.75435
#
# Poissons Ratio (x) = 0.28521 0.16499
# Poissons Ratio (y) = 0.51463 0.09528
# Poissons Ratio (z) = 0.24970 0.07992
#
# Static dielectric constant tensor:
#      x y z
#    x 1.727690 0.000000 -0.003530 
#    y 0.000000 1.721860 0.000000 
#    z -0.003530 0.000000 1.747140 
# 
# From -- ./inp_files/298563.got.cif
#   From: 2010.05.17/outbox.cif.g08.bks.cpg/sg15_150_cif.got.tgz:298563.got - 2010.06.03 18:47:42.
