data_PCOD9287264
_publ_section_title
;
Structure prediction by ZEFSAII (Michael W. Deem and Ramdas Pophale) SiO2 
 PCOD9287264
Probable space group: C 2/C
;
_chemical_formula_sum "Si O2"
_cell_formula_units_Z 56
_cell_length_a 20.295710
_cell_length_b 26.774544
_cell_length_c 8.809875
_cell_angle_alpha 90.000000
_cell_angle_beta 35.106839
_cell_angle_gamma 90.000000
_cell_volume 2753.224588
_symmetry_space_group_name_H-M "C 2/C"
_symmetry_group_IT_number 15
_symmetry_cell_setting 'monoclinic'
loop_
_space_group_symop_operation_xyz
x,y,z
-x,y,1/2-z
-x,-y,-z
x,-y,1/2+z
1/2+x,1/2+y,z
1/2-x,1/2+y,1/2-z
1/2-x,1/2-y,-z
1/2+x,1/2-y,1/2+z
loop_
_atom_site_type_symbol
_atom_site_label
_atom_site_fract_x
_atom_site_fract_y
_atom_site_fract_z
Si Si1 0.462485 0.653833 0.156597
Si Si2 0.873962 0.776607 0.564724
Si Si3 0.319327 0.507778 0.759689
Si Si4 0.366534 0.835121 0.038158
Si Si5 0.712392 0.343588 0.029588
Si Si6 0.394502 0.570692 0.876114
Si Si7 0.764998 0.075387 0.592474
O O1 0.500000 0.674942 0.250000
O O2 0.388182 0.689686 0.187726
O O3 0.387096 0.603824 0.331412
O O4 0.585569 0.648081 0.842367
O O5 0.842571 0.719345 0.654006
O O6 0.793589 0.800464 0.585275
O O7 0.000000 0.774973 0.250000
O O8 0.403347 0.540554 0.704213
O O9 0.379899 0.471744 0.528267
O O10 0.257706 0.548321 0.769833
O O11 0.251570 0.469391 0.996791
O O12 0.500000 0.840325 0.750000
O O13 0.298362 0.836838 0.005764
O O14 0.323372 0.879114 0.228922
O O15 0.718659 0.395443 0.924904
O O16 0.500000 0.601069 0.750000
#
# Coordination Sequence:
#
# PCOD9287264 Si02
#       7
#     8   8   8   8   8   8   8
#     4  11  20  37  62  96 133 153 183 242 315 380
#     4   9  21  37  64  93 122 160 198 242 306 372
#     4  10  22  35  56  85 126 152 195 246 304 370
#     4  11  23  42  63  83 116 164 218 256 292 345
#     4  11  20  38  60  90 123 162 197 242 305 371
#     4  11  19  32  54  88 122 156 187 234 307 380
#     4  11  22  40  61  89 121 158 198 248 309 353
#
# _framework density 20.339786
#
# number of rings (size 3 to 8) (size 9 to 14) (size 15 to 20)
#    0.000    1.429    2.857    3.857    0.000    4.000 
#    0.000    0.714    0.000    0.000    0.000    0.000 
#    0.000    0.000    0.000    0.000    0.000    0.000 
#
# Total GULP energy -156105.761345 kJ/mol
# GULP energy per Si atom -5575.205762 kJ/mol
# Density = 2.029349 g / cm^3
# Si number density = 20.339786 Si / 1000 Ang^3
#
#
#
# Elastic Constant Matrix: (Units=GPa)
#
#
# Indices 1 2 3 4 5 6 
#
# 1 101.3521 48.8792 22.0245 0.0000 9.0060 0.0000
# 2 48.8792 142.7107 34.6981 0.0000 6.5046 0.0000
# 3 22.0245 34.6981 58.8198 0.0000 -0.4114 0.0000
# 4 0.0000 0.0000 0.0000 32.8691 0.0000 4.2744
# 5 9.0060 6.5046 -0.4114 0.0000 30.6115 0.0000
# 6 0.0000 0.0000 0.0000 4.2744 0.0000 27.7020
#
#
#
# Elastic Compliance Matrix: (Units=1/GPa)
#
#
# Indices 1 2 3 4 5 6 
#
# 1 0.012366 -0.003468 -0.002605 0.000000 -0.002936 0.000000
# 2 -0.003468 0.009254 -0.004167 0.000000 -0.001002 0.000000
# 3 -0.002605 -0.004167 0.020448 0.000000 0.001927 0.000000
# 4 0.000000 0.000000 0.000000 0.031047 0.000000 -0.004790
# 5 -0.002936 -0.001002 0.001927 0.000000 0.033770 0.000000
# 6 0.000000 0.000000 0.000000 -0.004790 0.000000 0.036838
#
#
# Mechanical properties :
#
#
# Convention : Reuss Voigt Hill
#
# Bulk Modulus (GPa) = 46.32351 57.12067 51.72209
# Shear Modulus (GPa) = 29.17153 31.38856 30.28005
#
# Velocity S-wave (km/s) = 3.79121 3.93263 3.86257
# Velocity P-wave (km/s) = 6.47986 6.98319 6.73623
#
# Compressibility (1/GPa) = 0.02158731
#
# Stress axis : x y z
#
# Youngs Moduli (GPa) = 80.86527 108.06155 48.90393
#
# Poissons Ratio (x) = 0.37479 0.12739
# Poissons Ratio (y) = 0.28047 0.20380
# Poissons Ratio (z) = 0.21065 0.45032
#
# Static dielectric constant tensor:
#      x y z
#    x 1.787300 0.000000 0.044610 
#    y 0.000000 1.803790 0.000000 
#    z 0.044610 0.000000 1.764400 
# 
# From -- ./inp_files/52314.got.cif
#   From: 2010.05.17/outbox.cif.g08.bks.cpg/sg15_27_cif.got.tgz:52314.got - 2010.06.03 18:47:42.
