data_PCOD9287130
_publ_section_title
;
Structure prediction by ZEFSAII (Michael W. Deem and Ramdas Pophale) SiO2 
 PCOD9287130
Probable space group: C 2/C
;
_chemical_formula_sum "Si O2"
_cell_formula_units_Z 60
_cell_length_a 14.614195
_cell_length_b 13.661130
_cell_length_c 13.485249
_cell_angle_alpha 90.000000
_cell_angle_beta 63.588417
_cell_angle_gamma 90.000000
_cell_volume 2411.266287
_symmetry_space_group_name_H-M "C 2/C"
_symmetry_group_IT_number 15
_symmetry_cell_setting 'monoclinic'
loop_
_space_group_symop_operation_xyz
x,y,z
-x,y,1/2-z
-x,-y,-z
x,-y,1/2+z
1/2+x,1/2+y,z
1/2-x,1/2+y,1/2-z
1/2-x,1/2-y,-z
1/2+x,1/2-y,1/2+z
loop_
_atom_site_type_symbol
_atom_site_label
_atom_site_fract_x
_atom_site_fract_y
_atom_site_fract_z
Si Si1 0.329105 0.619323 0.239605
Si Si2 0.579248 0.125726 0.552178
Si Si3 0.519540 0.614027 0.510793
Si Si4 0.749836 0.899812 0.288647
Si Si5 0.924985 0.408661 0.956904
Si Si6 0.192611 0.765825 0.387825
Si Si7 0.356260 0.722609 0.892362
Si Si8 0.500000 0.267056 0.750000
O O1 0.397263 0.642994 0.111617
O O2 0.299347 0.506559 0.257914
O O3 0.227580 0.682803 0.292027
O O4 0.402054 0.661521 0.291442
O O5 0.528958 0.108093 0.467792
O O6 0.680639 0.189956 0.486439
O O7 0.509176 0.193353 0.653770
O O8 0.589198 0.015111 0.584315
O O9 0.500000 0.500000 0.500000
O O10 0.415448 0.676413 0.554933
O O11 0.577204 0.640593 0.583474
O O12 0.657917 0.902548 0.412392
O O13 0.731964 0.853289 0.187825
O O14 0.831079 0.827045 0.300949
O O15 0.914225 0.324428 0.880769
O O16 0.250000 0.750000 0.000000
#
# Coordination Sequence:
#
# PCOD9287130 Si02
#       8
#     8   8   8   8   8   8   8   4
#     4  12  26  45  68 104 144 183 239 296 359 437
#     4  11  23  44  71  98 135 187 233 291 353 429
#     4  12  25  48  72 103 143 199 238 294 374 439
#     4  11  24  41  70 106 136 182 235 287 352 425
#     4  10  21  48  68  95 143 179 230 293 357 419
#     4  12  24  46  72 100 141 190 234 292 368 431
#     4  10  22  43  70 101 141 182 238 305 352 424
#     4  12  26  46  68 100 146 184 236 296 350 428
#
# _framework density 24.883192000000001
#
# number of rings (size 3 to 8) (size 9 to 14) (size 15 to 20)
#    0.000    0.800    5.333    2.400    1.867    1.067 
#    9.600    0.000    0.000    0.000    0.000    0.000 
#    0.000    0.000    0.000    0.000    0.000    0.000 
#
# Total GULP energy -167439.725187 kJ/mol
# GULP energy per Si atom -5581.324173 kJ/mol
# Density = 2.482656 g / cm^3
# Si number density = 24.883192 Si / 1000 Ang^3
#
#
#
# Elastic Constant Matrix: (Units=GPa)
#
#
# Indices 1 2 3 4 5 6 
#
# 1 52.8936 48.5305 6.4018 0.0000 -7.1552 0.0000
# 2 48.5305 231.2219 43.1750 0.0000 9.9647 0.0000
# 3 6.4018 43.1750 91.1989 0.0000 -37.9417 0.0000
# 4 0.0000 0.0000 0.0000 44.9681 0.0000 -3.4489
# 5 -7.1552 9.9647 -37.9417 0.0000 32.1972 0.0000
# 6 0.0000 0.0000 0.0000 -3.4489 0.0000 35.0861
#
#
#
# Elastic Compliance Matrix: (Units=1/GPa)
#
#
# Indices 1 2 3 4 5 6 
#
# 1 0.029484 -0.009597 0.012625 0.000000 0.024400 0.000000
# 2 -0.009597 0.009249 -0.011345 0.000000 -0.018365 0.000000
# 3 0.012625 -0.011345 0.035465 0.000000 0.048109 0.000000
# 4 0.000000 0.000000 0.000000 0.022407 0.000000 0.002203
# 5 0.024400 -0.018365 0.048109 0.000000 0.098857 0.000000
# 6 0.000000 0.000000 0.000000 0.002203 0.000000 0.028718
#
#
# Mechanical properties :
#
#
# Convention : Reuss Voigt Hill
#
# Bulk Modulus (GPa) = 17.37228 63.50323 40.43775
# Shear Modulus (GPa) = 19.23058 40.93077 30.08067
#
# Velocity S-wave (km/s) = 2.78301 4.06016 3.48066
# Velocity P-wave (km/s) = 4.16215 6.89607 5.69558
#
# Compressibility (1/GPa) = 0.05756298
#
# Stress axis : x y z
#
# Youngs Moduli (GPa) = 33.91644 108.11858 28.19700
#
# Poissons Ratio (x) = 1.03765 -0.35599
# Poissons Ratio (y) = 0.32551 0.31990
# Poissons Ratio (z) = -0.42820 1.22664
#
# Static dielectric constant tensor:
#      x y z
#    x 2.106630 0.000000 0.013390 
#    y 0.000000 1.949120 0.000000 
#    z 0.013390 0.000000 2.007370 
# 
# From -- ./inp_files/154253.got.cif
#   From: 2010.05.17/outbox.cif.g08.bks.cpg/sg15_78_cif.got.tgz:154253.got - 2010.06.03 18:47:42.
