data_PCOD9287265
_publ_section_title
;
Structure prediction by ZEFSAII (Michael W. Deem and Ramdas Pophale) SiO2 
 PCOD9287265
Probable space group: C 2/C
;
_chemical_formula_sum "Si O2"
_cell_formula_units_Z 36
_cell_length_a 21.915949
_cell_length_b 7.441077
_cell_length_c 12.033192
_cell_angle_alpha 90.000000
_cell_angle_beta 143.467429
_cell_angle_gamma 90.000000
_cell_volume 1168.148269
_symmetry_space_group_name_H-M "C 2/C"
_symmetry_group_IT_number 15
_symmetry_cell_setting 'monoclinic'
loop_
_space_group_symop_operation_xyz
x,y,z
-x,y,1/2-z
-x,-y,-z
x,-y,1/2+z
1/2+x,1/2+y,z
1/2-x,1/2+y,1/2-z
1/2-x,1/2-y,-z
1/2+x,1/2-y,1/2+z
loop_
_atom_site_type_symbol
_atom_site_label
_atom_site_fract_x
_atom_site_fract_y
_atom_site_fract_z
Si Si1 0.000000 0.155241 0.750000
Si Si2 0.104624 0.285260 0.251540
Si Si3 0.180894 0.784325 0.641128
Si Si4 0.649274 0.800607 0.779301
Si Si5 0.898703 0.376600 0.022281
O O1 0.894880 0.089821 0.538515
O O2 0.943271 0.219169 0.783070
O O3 0.157066 0.166453 0.233338
O O4 0.140169 0.255418 0.428917
O O5 0.000000 0.447161 0.250000
O O6 0.981093 0.281261 0.056385
O O7 0.135928 0.513164 0.767845
O O8 0.147654 0.580934 0.561908
O O9 0.699247 0.791590 0.721618
O O10 0.750000 0.750000 0.000000
#
# Coordination Sequence:
#
# PCOD9287265 Si02
#       5
#     4   8   8   8   8
#     4  12  20  38  54  80 126 142 186 234 268 342
#     4  11  19  38  62  82 118 137 190 243 264 338
#     4  10  22  35  56  87 113 148 182 231 284 326
#     4  10  23  34  59  88 107 151 187 225 291 316
#     4   9  21  35  57  89 105 146 187 227 287 316
#
# _framework density 30.818006
#
# number of rings (size 3 to 8) (size 9 to 14) (size 15 to 20)
#    1.333    0.444    2.222    3.333    3.111    0.000 
#    0.000    0.000    0.000   14.667    0.000    0.000 
#    0.000    0.000    0.000    0.000    0.000    0.000 
#
# Total GULP energy -100334.487775 kJ/mol
# GULP energy per Si atom -5574.138210 kJ/mol
# Density = 3.074786 g / cm^3
# Si number density = 30.818006 Si / 1000 Ang^3
#
#
#
# Elastic Constant Matrix: (Units=GPa)
#
#
# Indices 1 2 3 4 5 6 
#
# 1 335.4445 57.5438 129.5623 0.0000 -33.4212 0.0000
# 2 57.5438 87.4861 47.9572 0.0000 -10.6208 0.0000
# 3 129.5623 47.9572 192.1185 0.0000 32.7317 0.0000
# 4 0.0000 0.0000 0.0000 25.0004 0.0000 10.5936
# 5 -33.4212 -10.6208 32.7317 0.0000 114.1477 0.0000
# 6 0.0000 0.0000 0.0000 10.5936 0.0000 37.5046
#
#
#
# Elastic Compliance Matrix: (Units=1/GPa)
#
#
# Indices 1 2 3 4 5 6 
#
# 1 0.004622 -0.000998 -0.003241 0.000000 0.002190 0.000000
# 2 -0.000998 0.014054 -0.003163 0.000000 0.001922 0.000000
# 3 -0.003241 -0.003163 0.008823 0.000000 -0.003773 0.000000
# 4 0.000000 0.000000 0.000000 0.045438 0.000000 -0.012834
# 5 0.002190 0.001922 -0.003773 0.000000 0.010663 0.000000
# 6 0.000000 0.000000 0.000000 -0.012834 0.000000 0.030289
#
#
# Mechanical properties :
#
#
# Convention : Reuss Voigt Hill
#
# Bulk Modulus (GPa) = 78.76596 120.57508 99.67052
# Shear Modulus (GPa) = 37.61537 60.66294 49.13915
#
# Velocity S-wave (km/s) = 3.49745 4.44151 3.99744
# Velocity P-wave (km/s) = 6.47483 8.09398 7.32925
#
# Compressibility (1/GPa) = 0.01269584
#
# Stress axis : x y z
#
# Youngs Moduli (GPa) = 216.33726 71.15523 113.33417
#
# Poissons Ratio (x) = 0.07099 0.36736
# Poissons Ratio (y) = 0.21584 0.35846
# Poissons Ratio (z) = 0.70123 0.22505
#
# Static dielectric constant tensor:
#      x y z
#    x 3.297570 0.000000 -0.831040 
#    y 0.000000 2.546650 0.000000 
#    z -0.831040 0.000000 3.691290 
# 
# From -- ./inp_files/119140.got.cif
#   From: 2010.05.17/outbox.cif.g08.bks.cpg/sg15_60_cif.got.tgz:119140.got - 2010.06.03 18:47:42.
