data_PCOD9287415
_publ_section_title
;
Structure prediction by ZEFSAII (Michael W. Deem and Ramdas Pophale) SiO2 
 PCOD9287415
Probable space group: C 2/C
;
_chemical_formula_sum "Si O2"
_cell_formula_units_Z 48
_cell_length_a 20.664808
_cell_length_b 6.756049
_cell_length_c 13.671376
_cell_angle_alpha 90.000000
_cell_angle_beta 78.767422
_cell_angle_gamma 90.000000
_cell_volume 1872.132485
_symmetry_space_group_name_H-M "C 2/C"
_symmetry_group_IT_number 15
_symmetry_cell_setting 'monoclinic'
loop_
_space_group_symop_operation_xyz
x,y,z
-x,y,1/2-z
-x,-y,-z
x,-y,1/2+z
1/2+x,1/2+y,z
1/2-x,1/2+y,1/2-z
1/2-x,1/2-y,-z
1/2+x,1/2-y,1/2+z
loop_
_atom_site_type_symbol
_atom_site_label
_atom_site_fract_x
_atom_site_fract_y
_atom_site_fract_z
Si Si1 0.826374 0.332871 0.549046
Si Si2 0.289194 0.555854 0.272175
Si Si3 0.997911 0.923305 0.612639
Si Si4 0.744719 0.945647 0.565464
Si Si5 0.907184 0.314619 0.274404
Si Si6 0.592902 0.242038 0.294473
O O1 0.769466 0.434688 0.632988
O O2 0.888445 0.325500 0.600385
O O3 0.938615 0.182457 0.354372
O O4 0.801027 0.113259 0.528968
O O5 0.242785 0.083671 0.324440
O O6 0.332987 0.747743 0.279289
O O7 0.343447 0.378183 0.256155
O O8 0.943166 0.763247 0.663107
O O9 0.969607 0.118553 0.673611
O O10 0.000000 0.000000 0.500000
O O11 0.750000 0.750000 0.500000
O O12 0.675918 0.039474 0.547873
O O13 0.916983 0.549701 0.268635
#
# Coordination Sequence:
#
# PCOD9287415 Si02
#       6
#     8   8   8   8   8   8
#     4  10  23  41  63 101 150 184 229 286 352 431
#     4  10  23  40  66 104 146 187 229 287 354 440
#     4  10  24  47  71 101 137 181 252 312 355 423
#     4  10  22  36  60  93 137 189 233 274 329 426
#     4  10  23  42  71 101 137 186 238 296 370 422
#     4  10  23  43  69 106 141 186 239 297 354 438
#
# _framework density 25.639209999999999
#
# number of rings (size 3 to 8) (size 9 to 14) (size 15 to 20)
#    0.000    2.000    0.000    1.000    9.333   11.333 
#    0.000    1.667    0.000   12.000    0.000    0.000 
#    0.000    0.000    0.000    0.000    0.000    0.000 
#
# Total GULP energy -134103.608800 kJ/mol
# GULP energy per Si atom -5587.650367 kJ/mol
# Density = 2.558085 g / cm^3
# Si number density = 25.639210 Si / 1000 Ang^3
#
#
#
# Elastic Constant Matrix: (Units=GPa)
#
#
# Indices 1 2 3 4 5 6 
#
# 1 157.1253 72.9117 61.2516 0.0000 38.6913 0.0000
# 2 72.9117 208.3202 71.0547 0.0000 21.2341 0.0000
# 3 61.2516 71.0547 131.5621 0.0000 31.2078 0.0000
# 4 0.0000 0.0000 0.0000 35.7170 0.0000 -0.9785
# 5 38.6913 21.2341 31.2078 0.0000 35.9845 0.0000
# 6 0.0000 0.0000 0.0000 -0.9785 0.0000 38.5435
#
#
#
# Elastic Compliance Matrix: (Units=1/GPa)
#
#
# Indices 1 2 3 4 5 6 
#
# 1 0.009953 -0.002124 -0.001568 0.000000 -0.008088 0.000000
# 2 -0.002124 0.006361 -0.002641 0.000000 0.000821 0.000000
# 3 -0.001568 -0.002641 0.011316 0.000000 -0.006569 0.000000
# 4 0.000000 0.000000 0.000000 0.028017 0.000000 0.000711
# 5 -0.008088 0.000821 -0.006569 0.000000 0.041699 0.000000
# 6 0.000000 0.000000 0.000000 0.000711 0.000000 0.025963
#
#
# Mechanical properties :
#
#
# Convention : Reuss Voigt Hill
#
# Bulk Modulus (GPa) = 66.83222 100.82704 83.82963
# Shear Modulus (GPa) = 35.47015 41.50164 38.48590
#
# Velocity S-wave (km/s) = 3.72349 4.02765 3.87855
# Velocity P-wave (km/s) = 6.67898 7.81281 7.26804
#
# Compressibility (1/GPa) = 0.01496284
#
# Stress axis : x y z
#
# Youngs Moduli (GPa) = 100.47183 157.20820 88.37261
#
# Poissons Ratio (x) = 0.33396 0.13856
# Poissons Ratio (y) = 0.21343 0.23341
# Poissons Ratio (z) = 0.15753 0.41523
#
# Static dielectric constant tensor:
#      x y z
#    x 2.035970 0.000000 -0.014260 
#    y 0.000000 2.063120 0.000000 
#    z -0.014260 0.000000 2.157070 
# 
# From -- ./inp_files/254239.got.cif
#   From: 2010.05.17/outbox.cif.g08.bks.cpg/sg15_128_cif.got.tgz:254239.got - 2010.06.03 18:47:42.
