data_PCOD9287109
_publ_section_title
;
Structure prediction by ZEFSAII (Michael W. Deem and Ramdas Pophale) SiO2 
 PCOD9287109
Probable space group: C 2/C
;
_chemical_formula_sum "Si O2"
_cell_formula_units_Z 56
_cell_length_a 19.395046
_cell_length_b 9.291371
_cell_length_c 14.236483
_cell_angle_alpha 90.000000
_cell_angle_beta 102.472459
_cell_angle_gamma 90.000000
_cell_volume 2504.961586
_symmetry_space_group_name_H-M "C 2/C"
_symmetry_group_IT_number 15
_symmetry_cell_setting 'monoclinic'
loop_
_space_group_symop_operation_xyz
x,y,z
-x,y,1/2-z
-x,-y,-z
x,-y,1/2+z
1/2+x,1/2+y,z
1/2-x,1/2+y,1/2-z
1/2-x,1/2-y,-z
1/2+x,1/2-y,1/2+z
loop_
_atom_site_type_symbol
_atom_site_label
_atom_site_fract_x
_atom_site_fract_y
_atom_site_fract_z
Si Si1 0.906164 0.590264 0.129251
Si Si2 0.176075 0.596015 0.644171
Si Si3 0.185055 0.039769 0.352342
Si Si4 0.132315 0.082586 0.642491
Si Si5 0.435381 0.112902 0.357409
Si Si6 0.854015 0.156851 0.491586
Si Si7 0.297594 0.142902 0.638672
O O1 0.906648 0.618022 0.241376
O O2 0.898333 0.735184 0.068046
O O3 0.839974 0.481997 0.096726
O O4 0.986001 0.549566 0.127191
O O5 0.236996 0.478096 0.666166
O O6 0.107560 0.505993 0.596863
O O7 0.191758 0.734583 0.585673
O O8 0.168882 0.652173 0.747217
O O9 0.181437 0.200332 0.391872
O O10 0.137258 0.978477 0.251993
O O11 0.183009 0.938941 0.441789
O O12 0.083550 0.224163 0.616553
O O13 0.213785 0.117499 0.632231
O O14 0.108164 0.951177 0.569168
#
# Coordination Sequence:
#
# PCOD9287109 Si02
#       7
#     8   8   8   8   8   8   8
#     4  10  24  41  70  94 132 177 228 263 336 398
#     4  10  22  38  66  98 131 171 220 272 335 393
#     4  11  22  40  65 101 133 168 217 285 331 393
#     4  11  23  40  69  98 135 171 221 276 340 386
#     4  10  21  47  66  91 134 186 211 272 334 408
#     4  12  25  38  66 103 131 172 222 282 326 397
#     4  10  22  41  65 100 132 174 218 279 329 401
#
# _framework density 22.355630999999999
#
# number of rings (size 3 to 8) (size 9 to 14) (size 15 to 20)
#    0.000    1.429    4.286    0.429    4.000    2.857 
#    0.000    1.429    3.143    0.000    0.000    0.000 
#    0.000    0.000    0.000    0.000    0.000    0.000 
#
# Total GULP energy -156084.473747 kJ/mol
# GULP energy per Si atom -5574.445491 kJ/mol
# Density = 2.230475 g / cm^3
# Si number density = 22.355631 Si / 1000 Ang^3
#
#
#
# Elastic Constant Matrix: (Units=GPa)
#
#
# Indices 1 2 3 4 5 6 
#
# 1 31.6829 20.0661 8.0481 0.0000 -11.0600 0.0000
# 2 20.0661 111.0204 21.3211 0.0000 -13.5358 0.0000
# 3 8.0481 21.3211 81.3979 0.0000 -11.4537 0.0000
# 4 0.0000 0.0000 0.0000 38.3006 0.0000 0.3458
# 5 -11.0600 -13.5358 -11.4537 0.0000 14.7438 0.0000
# 6 0.0000 0.0000 0.0000 0.3458 0.0000 19.6656
#
#
#
# Elastic Compliance Matrix: (Units=1/GPa)
#
#
# Indices 1 2 3 4 5 6 
#
# 1 0.044738 -0.004610 0.001023 0.000000 0.030122 0.000000
# 2 -0.004610 0.010786 -0.001642 0.000000 0.005169 0.000000
# 3 0.001023 -0.001642 0.014046 0.000000 0.010171 0.000000
# 4 0.000000 0.000000 0.000000 0.026113 0.000000 -0.000459
# 5 0.030122 0.005169 0.010171 0.000000 0.103067 0.000000
# 6 0.000000 0.000000 0.000000 -0.000459 0.000000 0.050858
#
#
# Mechanical properties :
#
#
# Convention : Reuss Voigt Hill
#
# Bulk Modulus (GPa) = 16.91745 35.88577 26.40161
# Shear Modulus (GPa) = 17.87177 26.18638 22.02907
#
# Velocity S-wave (km/s) = 2.83049 3.42622 3.14250
# Velocity P-wave (km/s) = 4.27388 5.63374 5.00026
#
# Compressibility (1/GPa) = 0.05911055
#
# Stress axis : x y z
#
# Youngs Moduli (GPa) = 22.35247 92.71194 71.19709
#
# Poissons Ratio (x) = 0.42739 -0.07281
# Poissons Ratio (y) = 0.10304 0.11692
# Poissons Ratio (z) = -0.02286 0.15225
#
# Static dielectric constant tensor:
#      x y z
#    x 1.881720 0.000000 0.028360 
#    y 0.000000 1.884750 0.000000 
#    z 0.028360 0.000000 1.888150 
# 
# From -- ./inp_files/166648.got.cif
#   From: 2010.05.17/outbox.cif.g08.bks.cpg/sg15_84_cif.got.tgz:166648.got - 2010.06.03 18:47:42.
