data_PCOD9287387
_publ_section_title
;
Structure prediction by ZEFSAII (Michael W. Deem and Ramdas Pophale) SiO2 
 PCOD9287387
Probable space group: C 2/C
;
_chemical_formula_sum "Si O2"
_cell_formula_units_Z 56
_cell_length_a 5.766124
_cell_length_b 17.469776
_cell_length_c 25.215844
_cell_angle_alpha 90.000000
_cell_angle_beta 70.678023
_cell_angle_gamma 90.000000
_cell_volume 2396.993529
_symmetry_space_group_name_H-M "C 2/C"
_symmetry_group_IT_number 15
_symmetry_cell_setting 'monoclinic'
loop_
_space_group_symop_operation_xyz
x,y,z
-x,y,1/2-z
-x,-y,-z
x,-y,1/2+z
1/2+x,1/2+y,z
1/2-x,1/2+y,1/2-z
1/2-x,1/2-y,-z
1/2+x,1/2-y,1/2+z
loop_
_atom_site_type_symbol
_atom_site_label
_atom_site_fract_x
_atom_site_fract_y
_atom_site_fract_z
Si Si1 0.600659 0.229236 0.562361
Si Si2 0.620302 0.120522 0.645584
Si Si3 0.119063 0.492246 0.885627
Si Si4 0.978886 0.134734 0.370656
Si Si5 0.362637 0.355536 0.414730
Si Si6 0.156688 0.925712 0.971850
Si Si7 0.208371 0.751396 0.780082
O O1 0.750000 0.250000 0.500000
O O2 0.655042 0.145508 0.581180
O O3 0.677798 0.290015 0.601065
O O4 0.306599 0.219619 0.579791
O O5 0.541290 0.032498 0.648952
O O6 0.407765 0.173494 0.685303
O O7 0.893484 0.144637 0.641042
O O8 0.319962 0.429891 0.854494
O O9 0.252498 0.562910 0.903986
O O10 0.935444 0.451487 0.940290
O O11 0.063200 0.104629 0.421974
O O12 0.184953 0.173559 0.319188
O O13 0.361835 0.366273 0.478628
O O14 0.000000 0.000000 0.000000
O O15 0.500000 0.739951 0.750000
O O16 0.000000 0.765279 0.750000
#
# Coordination Sequence:
#
# PCOD9287387 Si02
#       7
#     8   8   8   8   8   8   8
#     4  10  22  36  58  99 141 185 237 280 351 429
#     4  10  23  42  70  98 131 184 236 303 364 444
#     4  11  22  39  65  98 146 188 236 281 361 441
#     4  11  25  41  70 101 138 189 239 300 371 442
#     4  11  22  38  64  99 150 191 239 284 353 458
#     4  12  22  36  63 105 150 197 225 282 365 449
#     4  11  29  54  81 103 137 186 253 326 393 436
#
# _framework density 23.3626
#
# number of rings (size 3 to 8) (size 9 to 14) (size 15 to 20)
#    0.000    1.143    2.857    2.143   10.000    3.429 
#    0.000    0.714    0.000    0.000    0.000    0.000 
#    0.000    0.000    0.000    0.000    0.000    0.000 
#
# Total GULP energy -155969.179018 kJ/mol
# GULP energy per Si atom -5570.327822 kJ/mol
# Density = 2.330943 g / cm^3
# Si number density = 23.362600 Si / 1000 Ang^3
#
#
#
# Elastic Constant Matrix: (Units=GPa)
#
#
# Indices 1 2 3 4 5 6 
#
# 1 91.5256 36.5574 46.9464 0.0000 -30.2266 0.0000
# 2 36.5574 103.8655 29.4667 0.0000 -16.3792 0.0000
# 3 46.9464 29.4667 74.9555 0.0000 -29.4277 0.0000
# 4 0.0000 0.0000 0.0000 38.4439 0.0000 -3.9665
# 5 -30.2266 -16.3792 -29.4277 0.0000 50.3537 0.0000
# 6 0.0000 0.0000 0.0000 -3.9665 0.0000 44.1552
#
#
#
# Elastic Compliance Matrix: (Units=1/GPa)
#
#
# Indices 1 2 3 4 5 6 
#
# 1 0.018013 -0.003269 -0.008006 0.000000 0.005071 0.000000
# 2 -0.003269 0.011500 -0.002304 0.000000 0.000432 0.000000
# 3 -0.008006 -0.002304 0.022166 0.000000 0.007399 0.000000
# 4 0.000000 0.000000 0.000000 0.026255 0.000000 0.002359
# 5 0.005071 0.000432 0.007399 0.000000 0.027368 0.000000
# 6 0.000000 0.000000 0.000000 0.002359 0.000000 0.022859
#
#
# Mechanical properties :
#
#
# Convention : Reuss Voigt Hill
#
# Bulk Modulus (GPa) = 40.78079 55.14306 47.96192
# Shear Modulus (GPa) = 30.58235 37.08231 33.83233
#
# Velocity S-wave (km/s) = 3.62198 3.98835 3.80957
# Velocity P-wave (km/s) = 5.91482 6.69803 6.31857
#
# Compressibility (1/GPa) = 0.02452135
#
# Stress axis : x y z
#
# Youngs Moduli (GPa) = 55.51640 86.95526 45.11386
#
# Poissons Ratio (x) = 0.28426 0.36118
# Poissons Ratio (y) = 0.18148 0.10394
# Poissons Ratio (z) = 0.44446 0.20034
#
# Static dielectric constant tensor:
#      x y z
#    x 2.258790 0.000000 0.011140 
#    y 0.000000 1.905520 0.000000 
#    z 0.011140 0.000000 1.908680 
# 
# From -- ./inp_files/305748.got.cif
#   From: 2010.05.17/outbox.cif.g08.bks.cpg/sg15_153_cif.got.tgz:305748.got - 2010.06.03 18:47:42.
