data_PCOD9287601
_publ_section_title
;
Structure prediction by ZEFSAII (Michael W. Deem and Ramdas Pophale) SiO2 
 PCOD9287601
Probable space group: C 2/C
;
_chemical_formula_sum "Si O2"
_cell_formula_units_Z 56
_cell_length_a 5.398436
_cell_length_b 30.195172
_cell_length_c 19.936355
_cell_angle_alpha 90.000000
_cell_angle_beta 124.497181
_cell_angle_gamma 90.000000
_cell_volume 2678.302478
_symmetry_space_group_name_H-M "C 2/C"
_symmetry_group_IT_number 15
_symmetry_cell_setting 'monoclinic'
loop_
_space_group_symop_operation_xyz
x,y,z
-x,y,1/2-z
-x,-y,-z
x,-y,1/2+z
1/2+x,1/2+y,z
1/2-x,1/2+y,1/2-z
1/2-x,1/2-y,-z
1/2+x,1/2-y,1/2+z
loop_
_atom_site_type_symbol
_atom_site_label
_atom_site_fract_x
_atom_site_fract_y
_atom_site_fract_z
Si Si1 0.205060 0.557061 0.342366
Si Si2 0.927195 0.543737 0.446923
Si Si3 0.150501 0.150449 0.102703
Si Si4 0.353722 0.725503 0.300864
Si Si5 0.448776 0.823379 0.163159
Si Si6 0.541655 0.874575 0.455342
Si Si7 0.268919 0.301856 0.012871
O O1 0.561435 0.547482 0.385435
O O2 0.173040 0.610565 0.337578
O O3 0.000000 0.539188 0.250000
O O4 0.080898 0.542826 0.396848
O O5 0.000000 0.500000 0.500000
O O6 0.055652 0.585160 0.511576
O O7 0.016754 0.186382 0.133201
O O8 0.317752 0.178375 0.072561
O O9 0.897448 0.125221 0.020543
O O10 0.500000 0.723221 0.250000
O O11 0.393950 0.776353 0.330489
O O12 0.000000 0.716191 0.250000
O O13 0.500000 0.830164 0.250000
O O14 0.542254 0.867083 0.135080
O O15 0.102363 0.813873 0.090511
O O16 0.442618 0.827066 0.468603
O O17 0.250000 0.250000 0.000000
#
# Coordination Sequence:
#
# PCOD9287601 Si02
#       7
#     8   8   8   8   8   8   8
#     4  11  23  43  71 105 142 169 216 282 347 403
#     4  11  24  46  74 101 134 179 220 275 341 417
#     4  10  22  37  58  94 126 170 216 269 329 398
#     4  11  25  37  56  87 130 175 221 265 327 381
#     4  10  24  39  56  87 125 176 223 279 323 375
#     4  10  22  39  64  89 123 168 224 266 331 397
#     4  11  21  36  63  86 125 169 225 264 318 389
#
# _framework density 20.908767000000001
#
# number of rings (size 3 to 8) (size 9 to 14) (size 15 to 20)
#    0.000    1.429    1.429    3.000   10.000    4.571 
#    0.000    0.714    3.143    0.000    0.000    0.000 
#    0.000    0.000    0.000    0.000    0.000    0.000 
#
# Total GULP energy -156059.095762 kJ/mol
# GULP energy per Si atom -5573.539134 kJ/mol
# Density = 2.086118 g / cm^3
# Si number density = 20.908767 Si / 1000 Ang^3
#
#
#
# Elastic Constant Matrix: (Units=GPa)
#
#
# Indices 1 2 3 4 5 6 
#
# 1 89.8489 10.4585 32.1192 0.0000 -8.5474 0.0000
# 2 10.4585 63.7296 44.1418 0.0000 -15.9371 0.0000
# 3 32.1192 44.1418 117.6145 0.0000 -19.6887 0.0000
# 4 0.0000 0.0000 0.0000 24.8099 0.0000 -0.5763
# 5 -8.5474 -15.9371 -19.6887 0.0000 38.0069 0.0000
# 6 0.0000 0.0000 0.0000 -0.5763 0.0000 13.4997
#
#
#
# Elastic Compliance Matrix: (Units=1/GPa)
#
#
# Indices 1 2 3 4 5 6 
#
# 1 0.012397 0.000654 -0.003414 0.000000 0.001293 0.000000
# 2 0.000654 0.022228 -0.007595 0.000000 0.005534 0.000000
# 3 -0.003414 -0.007595 0.012727 0.000000 0.002641 0.000000
# 4 0.000000 0.000000 0.000000 0.040346 0.000000 0.001722
# 5 0.001293 0.005534 0.002641 0.000000 0.030290 0.000000
# 6 0.000000 0.000000 0.000000 0.001722 0.000000 0.074149
#
#
# Mechanical properties :
#
#
# Convention : Reuss Voigt Hill
#
# Bulk Modulus (GPa) = 37.53432 49.40357 43.46894
# Shear Modulus (GPa) = 22.54995 27.56152 25.05573
#
# Velocity S-wave (km/s) = 3.28760 3.63461 3.46545
# Velocity P-wave (km/s) = 5.69224 6.42599 6.07021
#
# Compressibility (1/GPa) = 0.02664229
#
# Stress axis : x y z
#
# Youngs Moduli (GPa) = 80.66252 44.98790 78.57177
#
# Poissons Ratio (x) = -0.02942 0.26828
# Poissons Ratio (y) = -0.05275 0.59673
# Poissons Ratio (z) = 0.27542 0.34167
#
# Static dielectric constant tensor:
#      x y z
#    x 1.775540 0.000000 0.014430 
#    y 0.000000 1.805620 0.000000 
#    z 0.014430 0.000000 1.837220 
# 
# From -- ./inp_files/186805.got.cif
#   From: 2010.05.17/outbox.cif.g08.bks.cpg/sg15_94_cif.got.tgz:186805.got - 2010.06.03 18:47:42.
