data_PCOD9287604
_publ_section_title
;
Structure prediction by ZEFSAII (Michael W. Deem and Ramdas Pophale) SiO2 
 PCOD9287604
Probable space group: C 2/C
;
_chemical_formula_sum "Si O2"
_cell_formula_units_Z 48
_cell_length_a 6.831795
_cell_length_b 31.018427
_cell_length_c 15.565872
_cell_angle_alpha 90.000000
_cell_angle_beta 142.440496
_cell_angle_gamma 90.000000
_cell_volume 2010.769757
_symmetry_space_group_name_H-M "C 2/C"
_symmetry_group_IT_number 15
_symmetry_cell_setting 'monoclinic'
loop_
_space_group_symop_operation_xyz
x,y,z
-x,y,1/2-z
-x,-y,-z
x,-y,1/2+z
1/2+x,1/2+y,z
1/2-x,1/2+y,1/2-z
1/2-x,1/2-y,-z
1/2+x,1/2-y,1/2+z
loop_
_atom_site_type_symbol
_atom_site_label
_atom_site_fract_x
_atom_site_fract_y
_atom_site_fract_z
Si Si1 0.729409 0.804475 0.085403
Si Si2 0.914095 0.464870 0.618792
Si Si3 0.681266 0.724190 0.586382
Si Si4 0.550048 0.873549 0.628049
Si Si5 0.461170 0.359687 0.558838
Si Si6 0.189244 0.557544 0.899073
O O1 0.000000 0.813469 0.250000
O O2 0.933345 0.790482 0.073307
O O3 0.501763 0.763268 0.024475
O O4 0.531534 0.845841 0.984029
O O5 0.083602 0.425225 0.629914
O O6 0.974526 0.514900 0.617715
O O7 0.532903 0.457552 0.480979
O O8 0.000000 0.460749 0.750000
O O9 0.722204 0.681861 0.541479
O O10 0.000000 0.737136 0.750000
O O11 0.246042 0.868354 0.587468
O O12 0.848644 0.854966 0.785975
O O13 0.253624 0.403018 0.483788
O O14 0.000000 0.573484 0.750000
#
# Coordination Sequence:
#
# PCOD9287604 Si02
#       6
#     8   8   8   8   8   8
#     4  10  23  38  56  81 111 150 192 230 278 342
#     4   9  14  25  42  68 102 137 167 212 277 327
#     4  10  22  37  59  82 110 146 188 238 283 328
#     4   9  16  31  50  70 104 149 176 219 274 332
#     4   9  16  29  50  75 108 138 178 226 280 324
#     4   9  15  21  40  72 107 127 164 220 278 325
#
# _framework density 23.871455999999998
#
# number of rings (size 3 to 8) (size 9 to 14) (size 15 to 20)
#    0.000    2.667    3.333    0.500    7.000    0.667 
#    0.000    0.000    0.000    0.000    0.000    1.167 
#    0.000    0.000    0.000    0.000    0.000    0.000 
#
# Total GULP energy -134144.696513 kJ/mol
# GULP energy per Si atom -5589.362355 kJ/mol
# Density = 2.381712 g / cm^3
# Si number density = 23.871456 Si / 1000 Ang^3
#
#
#
# Elastic Constant Matrix: (Units=GPa)
#
#
# Indices 1 2 3 4 5 6 
#
# 1 43.1812 30.7243 3.9567 0.0000 -5.9223 0.0000
# 2 30.7243 176.8595 90.5827 0.0000 -22.4744 0.0000
# 3 3.9567 90.5827 185.7666 0.0000 -10.3732 0.0000
# 4 0.0000 0.0000 0.0000 42.5727 0.0000 2.4483
# 5 -5.9223 -22.4744 -10.3732 0.0000 30.8188 0.0000
# 6 0.0000 0.0000 0.0000 2.4483 0.0000 -0.6326
#
#
#
# Elastic Compliance Matrix: (Units=1/GPa)
#
#
# Indices 1 2 3 4 5 6 
#
# 1 0.027236 -0.005665 0.002287 0.000000 0.001873 0.000000
# 2 -0.005665 0.009331 -0.004189 0.000000 0.004306 0.000000
# 3 0.002287 -0.004189 0.007369 0.000000 -0.000135 0.000000
# 4 0.000000 0.000000 0.000000 0.019213 0.000000 0.074359
# 5 0.001873 0.004306 -0.000135 0.000000 0.035902 0.000000
# 6 0.000000 0.000000 0.000000 0.074359 0.000000 -1.293016
#
#
# Mechanical properties :
#
#
# Convention : Reuss Voigt Hill
#
# Bulk Modulus (GPa) = 34.71900 72.92608 53.82254
# Shear Modulus (GPa) = -4.27632 33.25469 14.48919
#
# Velocity S-wave (km/s) = -1.33988 3.73644 2.46634
# Velocity P-wave (km/s) = 3.49027 7.01644 5.54132
#
# Compressibility (1/GPa) = 0.02880267
#
# Stress axis : x y z
#
# Youngs Moduli (GPa) = 36.71601 107.17149 135.69669
#
# Poissons Ratio (x) = 0.60709 -0.31029
# Poissons Ratio (y) = 0.20799 0.56840
# Poissons Ratio (z) = -0.08396 0.44892
#
# Static dielectric constant tensor:
#      x y z
#    x 1.975650 0.000000 0.008600 
#    y 0.000000 1.938320 0.000000 
#    z 0.008600 0.000000 1.884400 
# 
# From -- ./inp_files/194301.got.cif
#   From: 2010.05.17/outbox.cif.g08.bks.cpg/sg15_98_cif.got.tgz:194301.got - 2010.06.03 18:47:42.
