data_PCOD9287696
_publ_section_title
;
Structure prediction by ZEFSAII (Michael W. Deem and Ramdas Pophale) SiO2 
 PCOD9287696
Probable space group: C 2/C
;
_chemical_formula_sum "Si O2"
_cell_formula_units_Z 48
_cell_length_a 20.281682
_cell_length_b 11.809340
_cell_length_c 21.067271
_cell_angle_alpha 90.000000
_cell_angle_beta 151.832413
_cell_angle_gamma 90.000000
_cell_volume 2381.923633
_symmetry_space_group_name_H-M "C 2/C"
_symmetry_group_IT_number 15
_symmetry_cell_setting 'monoclinic'
loop_
_space_group_symop_operation_xyz
x,y,z
-x,y,1/2-z
-x,-y,-z
x,-y,1/2+z
1/2+x,1/2+y,z
1/2-x,1/2+y,1/2-z
1/2-x,1/2-y,-z
1/2+x,1/2-y,1/2+z
loop_
_atom_site_type_symbol
_atom_site_label
_atom_site_fract_x
_atom_site_fract_y
_atom_site_fract_z
Si Si1 0.428328 0.478691 0.624008
Si Si2 0.669945 0.843508 0.389164
Si Si3 0.085934 0.921492 0.522559
Si Si4 0.566261 0.828816 0.056435
Si Si5 0.109358 0.215734 0.218673
Si Si6 0.795398 0.458783 0.794217
O O1 0.500000 0.518859 0.750000
O O2 0.262302 0.453437 0.485058
O O3 0.451805 0.552767 0.581225
O O4 0.506005 0.360347 0.672762
O O5 0.500000 0.855708 0.250000
O O6 0.750000 0.750000 0.500000
O O7 0.691422 0.797780 0.335687
O O8 0.076007 0.788800 0.528267
O O9 0.240508 0.956378 0.675980
O O10 0.000000 0.000000 0.500000
O O11 0.534125 0.791483 0.101620
O O12 0.698774 0.913019 0.174639
O O13 0.446942 0.904102 0.924734
O O14 0.204099 0.126416 0.260077
#
# Coordination Sequence:
#
# PCOD9287696 Si02
#       6
#     8   8   8   8   8   8
#     4  12  23  39  59  95 125 171 217 260 321 387
#     4  12  22  37  59  91 130 167 205 268 326 383
#     4  11  23  39  64  92 127 169 211 260 318 391
#     4  10  22  38  62  95 128 165 209 264 322 383
#     4  11  20  35  64  87 130 159 210 257 330 384
#     4  10  22  37  63  95 126 165 209 268 318 381
#
# _framework density 20.151779999999999
#
# number of rings (size 3 to 8) (size 9 to 14) (size 15 to 20)
#    0.000    1.000    6.667    2.000    4.667    0.000 
#    0.000    0.000    0.000    4.000    0.000    1.167 
#    0.000    0.000    0.000    0.000    0.000    0.000 
#
# Total GULP energy -133746.820081 kJ/mol
# GULP energy per Si atom -5572.784170 kJ/mol
# Density = 2.010591 g / cm^3
# Si number density = 20.151780 Si / 1000 Ang^3
#
#
#
# Elastic Constant Matrix: (Units=GPa)
#
#
# Indices 1 2 3 4 5 6 
#
# 1 65.4313 21.8922 48.6088 0.0003 -28.7658 0.0001
# 2 21.8922 109.3426 42.6484 0.0009 -17.8516 0.0004
# 3 48.6088 42.6484 141.2077 0.0010 -34.7091 0.0004
# 4 0.0003 0.0009 0.0010 30.7499 0.0004 -3.3054
# 5 -28.7658 -17.8516 -34.7091 0.0004 48.6149 0.0002
# 6 0.0001 0.0004 0.0004 -3.3054 0.0002 23.5371
#
#
#
# Elastic Compliance Matrix: (Units=1/GPa)
#
#
# Indices 1 2 3 4 5 6 
#
# 1 0.024117 -0.001045 -0.005547 0.000000 0.009927 0.000000
# 2 -0.001045 0.010560 -0.002460 0.000000 0.001503 0.000000
# 3 -0.005547 -0.002460 0.010558 0.000000 0.003353 0.000000
# 4 0.000000 0.000000 0.000000 0.033019 -0.000001 0.004637
# 5 0.009927 0.001503 0.003353 -0.000001 0.029389 0.000000
# 6 0.000000 0.000000 0.000000 0.004637 0.000000 0.043137
#
#
# Mechanical properties :
#
#
# Convention : Reuss Voigt Hill
#
# Bulk Modulus (GPa) = 36.85617 60.25339 48.55478
# Shear Modulus (GPa) = 28.10125 34.10254 31.10189
#
# Velocity S-wave (km/s) = 3.73832 4.11820 3.93285
# Velocity P-wave (km/s) = 6.07967 7.25103 6.69103
#
# Compressibility (1/GPa) = 0.02713250
#
# Stress axis : x y z
#
# Youngs Moduli (GPa) = 41.46377 94.69962 94.71226
#
# Poissons Ratio (x) = 0.09893 0.52533
# Poissons Ratio (y) = 0.04331 0.23302
# Poissons Ratio (z) = 0.22998 0.23299
#
# Static dielectric constant tensor:
#      x y z
#    x 1.756060 0.000000 0.048630 
#    y 0.000000 1.733920 0.000000 
#    z 0.048630 0.000000 1.818460 
# 
# From -- ./inp_files/252507.got.cif
#   From: 2010.05.17/outbox.cif.g08.bks.cpg/sg15_127_cif.got.tgz:252507.got - 2010.06.03 18:47:42.
