data_PCOD9287068
_publ_section_title
;
Structure prediction by ZEFSAII (Michael W. Deem and Ramdas Pophale) SiO2 
 PCOD9287068
Probable space group: C 2/C
;
_chemical_formula_sum "Si O2"
_cell_formula_units_Z 48
_cell_length_a 28.148494
_cell_length_b 15.200344
_cell_length_c 9.856296
_cell_angle_alpha 90.000000
_cell_angle_beta 152.301157
_cell_angle_gamma 90.000000
_cell_volume 1960.247991
_symmetry_space_group_name_H-M "C 2/C"
_symmetry_group_IT_number 15
_symmetry_cell_setting 'monoclinic'
loop_
_space_group_symop_operation_xyz
x,y,z
-x,y,1/2-z
-x,-y,-z
x,-y,1/2+z
1/2+x,1/2+y,z
1/2-x,1/2+y,1/2-z
1/2-x,1/2-y,-z
1/2+x,1/2-y,1/2+z
loop_
_atom_site_type_symbol
_atom_site_label
_atom_site_fract_x
_atom_site_fract_y
_atom_site_fract_z
Si Si1 0.763607 0.145201 0.254133
Si Si2 0.128368 0.074736 0.228956
Si Si3 0.085229 0.254836 0.203433
Si Si4 0.810044 0.454655 0.405841
Si Si5 0.000000 0.633417 0.250000
Si Si6 0.835227 0.116203 0.731850
Si Si7 0.500000 0.746862 0.250000
O O1 0.847454 0.115702 0.357131
O O2 0.802943 0.156114 0.505681
O O3 0.690461 0.059501 0.073486
O O4 0.702254 0.227420 0.040615
O O5 0.061981 0.151040 0.130351
O O6 0.228573 0.064208 0.578280
O O7 0.099720 0.973515 0.131650
O O8 0.018497 0.295228 0.156513
O O9 0.062603 0.304743 0.009300
O O10 0.760975 0.412278 0.417750
O O11 0.919182 0.421279 0.633692
O O12 0.901835 0.185873 0.980421
#
# Coordination Sequence:
#
# PCOD9287068 Si02
#       7
#     8   8   8   8   4   8   4
#     4  10  23  43  72  97 132 182 221 277 338 393
#     4  10  21  46  69  94 133 182 225 272 335 400
#     4  12  27  42  65 103 141 175 222 281 337 390
#     4  10  22  47  68  98 132 181 229 270 330 407
#     4  12  28  42  70 100 136 182 226 272 334 404
#     4  10  24  45  72  95 132 181 225 275 335 398
#     4  12  28  44  64 106 138 172 228 282 330 398
#
# _framework density 24.486696999999999
#
# number of rings (size 3 to 8) (size 9 to 14) (size 15 to 20)
#    0.000    1.333    3.333    0.500    4.667    3.333 
#    0.000    0.000    0.000    0.000    0.000    0.000 
#    0.000    0.000    0.000    0.000    0.000    0.000 
#
# Total GULP energy -134334.650516 kJ/mol
# GULP energy per Si atom -5597.277105 kJ/mol
# Density = 2.443096 g / cm^3
# Si number density = 24.486697 Si / 1000 Ang^3
#
#
#
# Elastic Constant Matrix: (Units=GPa)
#
#
# Indices 1 2 3 4 5 6 
#
# 1 117.2151 22.6845 34.6278 0.0000 -28.4739 0.0000
# 2 22.6845 64.0403 16.3161 0.0000 3.8823 0.0000
# 3 34.6278 16.3161 66.2922 0.0000 -26.8314 0.0000
# 4 0.0000 0.0000 0.0000 12.3861 0.0000 4.3881
# 5 -28.4739 3.8823 -26.8314 0.0000 40.9567 0.0000
# 6 0.0000 0.0000 0.0000 4.3881 0.0000 35.9580
#
#
#
# Elastic Compliance Matrix: (Units=1/GPa)
#
#
# Indices 1 2 3 4 5 6 
#
# 1 0.011676 -0.003977 -0.002289 0.000000 0.006995 0.000000
# 2 -0.003977 0.019094 -0.006088 0.000000 -0.008563 0.000000
# 3 -0.002289 -0.006088 0.023635 0.000000 0.014470 0.000000
# 4 0.000000 0.000000 0.000000 0.084384 0.000000 -0.010298
# 5 0.006995 -0.008563 0.014470 0.000000 0.039570 0.000000
# 6 0.000000 0.000000 0.000000 -0.010298 0.000000 0.029067
#
#
# Mechanical properties :
#
#
# Convention : Reuss Voigt Hill
#
# Bulk Modulus (GPa) = 33.67278 43.86715 38.76996
# Shear Modulus (GPa) = 20.65823 29.45477 25.05650
#
# Velocity S-wave (km/s) = 2.90772 3.47203 3.20233
# Velocity P-wave (km/s) = 5.00544 5.83326 5.43513
#
# Compressibility (1/GPa) = 0.02969758
#
# Stress axis : x y z
#
# Youngs Moduli (GPa) = 85.64234 52.37217 42.30942
#
# Poissons Ratio (x) = 0.20828 0.09686
# Poissons Ratio (y) = 0.34059 0.25758
# Poissons Ratio (z) = 0.19606 0.31885
#
# Static dielectric constant tensor:
#      x y z
#    x 1.973380 0.000000 0.021870 
#    y 0.000000 1.926830 0.000000 
#    z 0.021870 0.000000 1.900250 
# 
# From -- ./inp_files/66532.got.cif
#   From: 2010.05.17/outbox.cif.g08.bks.cpg/sg15_34_cif.got.tgz:66532.got - 2010.06.03 18:47:42.
