data_PCOD9287509
_publ_section_title
;
Structure prediction by ZEFSAII (Michael W. Deem and Ramdas Pophale) SiO2 
 PCOD9287509
Probable space group: C 2/C
;
_chemical_formula_sum "Si O2"
_cell_formula_units_Z 60
_cell_length_a 19.685976
_cell_length_b 11.798847
_cell_length_c 17.000180
_cell_angle_alpha 90.000000
_cell_angle_beta 135.523526
_cell_angle_gamma 90.000000
_cell_volume 2766.497630
_symmetry_space_group_name_H-M "C 2/C"
_symmetry_group_IT_number 15
_symmetry_cell_setting 'monoclinic'
loop_
_space_group_symop_operation_xyz
x,y,z
-x,y,1/2-z
-x,-y,-z
x,-y,1/2+z
1/2+x,1/2+y,z
1/2-x,1/2+y,1/2-z
1/2-x,1/2-y,-z
1/2+x,1/2-y,1/2+z
loop_
_atom_site_type_symbol
_atom_site_label
_atom_site_fract_x
_atom_site_fract_y
_atom_site_fract_z
Si Si1 0.399668 0.341801 0.119343
Si Si2 0.159396 0.569520 0.056593
Si Si3 0.201318 0.361895 0.422547
Si Si4 0.488080 0.733378 0.069029
Si Si5 0.218626 0.668765 0.584959
Si Si6 0.633161 0.526725 0.540720
Si Si7 0.000000 0.734758 0.750000
Si Si8 0.698917 0.329188 0.703692
O O1 0.500000 0.325099 0.250000
O O2 0.312607 0.362686 0.110166
O O3 0.408032 0.444602 0.062829
O O4 0.359744 0.234726 0.034939
O O5 0.168924 0.438642 0.086606
O O6 0.238560 0.643041 0.168606
O O7 0.183279 0.562245 0.983977
O O8 0.063141 0.645639 0.985830
O O9 0.250000 0.250000 0.500000
O O10 0.272170 0.414845 0.418393
O O11 0.094125 0.335736 0.303373
O O12 0.435969 0.626852 0.985346
O O13 0.472467 0.700678 0.148398
O O14 0.599893 0.734160 0.141972
O O15 0.251464 0.757124 0.679549
O O16 0.666587 0.447102 0.638605
#
# Coordination Sequence:
#
# PCOD9287509 Si02
#       8
#     8   8   8   8   8   8   4   8
#     4  10  23  43  74  98 131 177 222 284 327 398
#     4  11  24  42  70  92 136 181 212 284 330 399
#     4  11  20  40  64  99 134 164 226 275 335 397
#     4  11  25  41  64 105 129 172 228 273 336 403
#     4  10  24  46  63 102 136 174 231 263 339 408
#     4  11  23  41  69  99 132 167 227 288 325 402
#     4  10  22  36  66  96 132 174 214 284 330 402
#     4  11  27  42  66  95 139 178 218 275 341 401
#
# _framework density 21.688071000000001
#
# number of rings (size 3 to 8) (size 9 to 14) (size 15 to 20)
#    0.000    1.333    4.000    1.200    4.667    2.667 
#    4.800    1.333    0.000    0.000    0.000    0.000 
#    0.000    0.000    0.000    0.000    0.000    0.000 
#
# Total GULP energy -167525.063078 kJ/mol
# GULP energy per Si atom -5584.168769 kJ/mol
# Density = 2.163871 g / cm^3
# Si number density = 21.688071 Si / 1000 Ang^3
#
#
#
# Elastic Constant Matrix: (Units=GPa)
#
#
# Indices 1 2 3 4 5 6 
#
# 1 63.4463 9.9459 30.3724 0.0000 13.7536 0.0000
# 2 9.9459 90.2289 33.3779 0.0000 11.1241 0.0000
# 3 30.3724 33.3779 93.8435 0.0000 28.3596 0.0000
# 4 0.0000 0.0000 0.0000 9.0295 0.0000 -2.8820
# 5 13.7536 11.1241 28.3596 0.0000 29.7015 0.0000
# 6 0.0000 0.0000 0.0000 -2.8820 0.0000 27.9635
#
#
#
# Elastic Compliance Matrix: (Units=1/GPa)
#
#
# Indices 1 2 3 4 5 6 
#
# 1 0.019007 0.000262 -0.004998 0.000000 -0.004128 0.000000
# 2 0.000262 0.012774 -0.004422 0.000000 -0.000684 0.000000
# 3 -0.004998 -0.004422 0.017775 0.000000 -0.013002 0.000000
# 4 0.000000 0.000000 0.000000 0.114515 0.000000 0.011802
# 5 -0.004128 -0.000684 -0.013002 0.000000 0.048251 0.000000
# 6 0.000000 0.000000 0.000000 0.011802 0.000000 0.036977
#
#
# Mechanical properties :
#
#
# Convention : Reuss Voigt Hill
#
# Bulk Modulus (GPa) = 32.00680 43.87899 37.94290
# Shear Modulus (GPa) = 17.98382 24.92708 21.45545
#
# Velocity S-wave (km/s) = 2.88271 3.39388 3.14869
# Velocity P-wave (km/s) = 5.08624 5.96939 5.54543
#
# Compressibility (1/GPa) = 0.03124336
#
# Stress axis : x y z
#
# Youngs Moduli (GPa) = 52.61083 78.28401 56.25724
#
# Poissons Ratio (x) = -0.02055 0.28115
# Poissons Ratio (y) = -0.01381 0.24875
# Poissons Ratio (z) = 0.26293 0.34615
#
# Static dielectric constant tensor:
#      x y z
#    x 1.810190 0.000000 -0.022320 
#    y 0.000000 1.829640 0.000000 
#    z -0.022320 0.000000 1.799870 
# 
# From -- ./inp_files/215226.got.cif
#   From: 2010.05.17/outbox.cif.g08.bks.cpg/sg15_108_cif.got.tgz:215226.got - 2010.06.03 18:47:42.
