data_PCOD9287145
_publ_section_title
;
Structure prediction by ZEFSAII (Michael W. Deem and Ramdas Pophale) SiO2 
 PCOD9287145
Probable space group: C 2/C
;
_chemical_formula_sum "Si O2"
_cell_formula_units_Z 56
_cell_length_a 16.914230
_cell_length_b 26.282141
_cell_length_c 8.302610
_cell_angle_alpha 90.000000
_cell_angle_beta 112.966762
_cell_angle_gamma 90.000000
_cell_volume 3398.290876
_symmetry_space_group_name_H-M "C 2/C"
_symmetry_group_IT_number 15
_symmetry_cell_setting 'monoclinic'
loop_
_space_group_symop_operation_xyz
x,y,z
-x,y,1/2-z
-x,-y,-z
x,-y,1/2+z
1/2+x,1/2+y,z
1/2-x,1/2+y,1/2-z
1/2-x,1/2-y,-z
1/2+x,1/2-y,1/2+z
loop_
_atom_site_type_symbol
_atom_site_label
_atom_site_fract_x
_atom_site_fract_y
_atom_site_fract_z
Si Si1 0.599452 0.799003 0.311639
Si Si2 0.593236 0.527482 0.737436
Si Si3 0.747004 0.150952 0.132041
Si Si4 0.226881 0.741723 0.665996
Si Si5 0.507695 0.389511 0.947489
Si Si6 0.166019 0.069656 0.106739
Si Si7 0.870647 0.192625 0.983856
O O1 0.500000 0.814068 0.250000
O O2 0.661389 0.838090 0.458525
O O3 0.640449 0.785670 0.167673
O O4 0.608931 0.744562 0.408125
O O5 0.500000 0.517320 0.750000
O O6 0.567431 0.568247 0.579930
O O7 0.634301 0.477673 0.690702
O O8 0.661514 0.549457 0.920534
O O9 0.763156 0.202662 0.245242
O O10 0.756021 0.101263 0.251953
O O11 0.824932 0.152096 0.065892
O O12 0.250000 0.750000 0.500000
O O13 0.302065 0.706547 0.796182
O O14 0.500000 0.397233 0.750000
O O15 0.414379 0.392259 0.950177
O O16 0.545274 0.334230 0.010848
#
# Coordination Sequence:
#
# PCOD9287145 Si02
#       7
#     8   8   8   8   8   8   8
#     4   9  18  35  53  76 101 137 178 208 259 320
#     4  10  22  32  44  70 104 136 172 218 256 300
#     4   9  19  32  51  70  96 140 170 211 255 312
#     4   9  19  34  50  75 109 130 169 229 258 294
#     4  11  18  29  49  70  98 140 170 207 247 308
#     4  11  20  33  47  70 104 134 178 210 258 305
#     4   9  18  30  49  72 100 139 174 198 256 310
#
# _framework density 16.478871000000002
#
# number of rings (size 3 to 8) (size 9 to 14) (size 15 to 20)
#    0.000    2.286    1.429    5.143    4.000    0.000 
#    0.000    2.857    0.000    0.000    0.000    1.000 
#    0.000    0.000    0.000    0.000    0.000    0.000 
#
# Total GULP energy -155873.321665 kJ/mol
# GULP energy per Si atom -5566.904345 kJ/mol
# Density = 1.644136 g / cm^3
# Si number density = 16.478871 Si / 1000 Ang^3
#
#
#
# Elastic Constant Matrix: (Units=GPa)
#
#
# Indices 1 2 3 4 5 6 
#
# 1 58.9673 17.3394 40.0023 0.0000 3.6880 0.0000
# 2 17.3394 59.3779 37.1443 0.0000 4.9479 0.0000
# 3 40.0023 37.1443 93.5354 0.0000 -3.0696 0.0000
# 4 0.0000 0.0000 0.0000 20.0179 0.0000 12.0039
# 5 3.6880 4.9479 -3.0696 0.0000 21.6455 0.0000
# 6 0.0000 0.0000 0.0000 12.0039 0.0000 14.7405
#
#
#
# Elastic Compliance Matrix: (Units=1/GPa)
#
#
# Indices 1 2 3 4 5 6 
#
# 1 0.024571 -0.000013 -0.010690 0.000000 -0.005699 0.000000
# 2 -0.000013 0.023331 -0.009479 0.000000 -0.006675 0.000000
# 3 -0.010690 -0.009479 0.019247 0.000000 0.006718 0.000000
# 4 0.000000 0.000000 0.000000 0.097633 0.000000 -0.079508
# 5 -0.005699 -0.006675 0.006718 0.000000 0.049649 0.000000
# 6 0.000000 0.000000 0.000000 -0.079508 0.000000 0.132588
#
#
# Mechanical properties :
#
#
# Convention : Reuss Voigt Hill
#
# Bulk Modulus (GPa) = 37.33306 44.53919 40.93613
# Shear Modulus (GPa) = 12.61639 19.10708 15.86174
#
# Velocity S-wave (km/s) = 2.76997 3.40882 3.10586
# Velocity P-wave (km/s) = 5.73887 6.52535 6.14470
#
# Compressibility (1/GPa) = 0.02678591
#
# Stress axis : x y z
#
# Youngs Moduli (GPa) = 40.69880 42.86206 51.95486
#
# Poissons Ratio (x) = 0.00055 0.55540
# Poissons Ratio (y) = 0.00052 0.49245
# Poissons Ratio (z) = 0.43507 0.40627
#
# Static dielectric constant tensor:
#      x y z
#    x 1.582450 0.000000 -0.013080 
#    y 0.000000 1.574220 0.000000 
#    z -0.013080 0.000000 1.612630 
# 
# From -- ./inp_files/51317.got.cif
#   From: 2010.05.17/outbox.cif.g08.bks.cpg/sg15_26_cif.got.tgz:51317.got - 2010.06.03 18:47:42.
