data_PCOD9287318
_publ_section_title
;
Structure prediction by ZEFSAII (Michael W. Deem and Ramdas Pophale) SiO2 
 PCOD9287318
Probable space group: C 2/C
;
_chemical_formula_sum "Si O2"
_cell_formula_units_Z 60
_cell_length_a 11.520752
_cell_length_b 25.051246
_cell_length_c 17.973847
_cell_angle_alpha 90.000000
_cell_angle_beta 136.681582
_cell_angle_gamma 90.000000
_cell_volume 3558.839496
_symmetry_space_group_name_H-M "C 2/C"
_symmetry_group_IT_number 15
_symmetry_cell_setting 'monoclinic'
loop_
_space_group_symop_operation_xyz
x,y,z
-x,y,1/2-z
-x,-y,-z
x,-y,1/2+z
1/2+x,1/2+y,z
1/2-x,1/2+y,1/2-z
1/2-x,1/2-y,-z
1/2+x,1/2-y,1/2+z
loop_
_atom_site_type_symbol
_atom_site_label
_atom_site_fract_x
_atom_site_fract_y
_atom_site_fract_z
Si Si1 0.140097 0.463697 0.605391
Si Si2 0.196362 0.824676 0.314089
Si Si3 0.000000 0.989967 0.250000
Si Si4 0.966627 0.642351 0.063069
Si Si5 0.600017 0.413208 0.161326
Si Si6 0.657356 0.206156 0.266110
Si Si7 0.780449 0.888700 0.920242
Si Si8 0.678020 0.997013 0.794376
O O1 0.328098 0.475880 0.662695
O O2 0.146508 0.480471 0.694566
O O3 0.000000 0.500000 0.500000
O O4 0.077469 0.402920 0.575026
O O5 0.321403 0.837321 0.440292
O O6 0.209736 0.869899 0.257236
O O7 0.233500 0.765185 0.302078
O O8 0.000000 0.827358 0.250000
O O9 0.020669 0.952033 0.187663
O O10 0.873121 0.617599 0.092295
O O11 0.084027 0.688294 0.152552
O O12 0.705966 0.450838 0.155929
O O13 0.451027 0.385036 0.046825
O O14 0.500000 0.210158 0.250000
O O15 0.766196 0.158057 0.352340
O O16 0.763805 0.946553 0.874876
O O17 0.500000 0.007764 0.750000
#
# Coordination Sequence:
#
# PCOD9287318 Si02
#       8
#     8   8   4   8   8   8   8   8
#     4  11  21  36  58  80 117 151 184 226 278 337
#     4  11  21  34  53  80 111 146 185 227 279 334
#     4  10  22  36  52  86 112 148 188 222 272 342
#     4  11  19  35  55  78 113 147 181 226 282 333
#     4  11  21  34  54  81 112 144 181 227 276 327
#     4   9  21  31  51  79 105 144 180 225 279 334
#     4  11  18  35  52  79 112 141 179 225 279 337
#     4  11  21  35  53  83 111 145 183 221 279 336
#
# _framework density 16.859428999999999
#
# number of rings (size 3 to 8) (size 9 to 14) (size 15 to 20)
#    0.000    1.333    4.667    3.200    1.867    1.600 
#    0.000    0.000    0.000    0.000    1.733    1.867 
#    0.000    0.000    0.000    0.000    0.000    0.000 
#
# Total GULP energy -167403.278997 kJ/mol
# GULP energy per Si atom -5580.109300 kJ/mol
# Density = 1.682106 g / cm^3
# Si number density = 16.859429 Si / 1000 Ang^3
#
#
#
# Elastic Constant Matrix: (Units=GPa)
#
#
# Indices 1 2 3 4 5 6 
#
# 1 48.5277 34.1115 22.6501 0.0000 6.3036 0.0001
# 2 34.1115 120.3727 45.8943 0.0000 1.4771 0.0000
# 3 22.6501 45.8943 115.7466 0.0002 -1.6445 0.0002
# 4 0.0000 0.0000 0.0002 23.9577 0.0000 0.1351
# 5 6.3036 1.4771 -1.6445 0.0000 20.6172 0.0001
# 6 0.0001 0.0000 0.0002 0.1351 0.0001 17.4062
#
#
#
# Elastic Compliance Matrix: (Units=1/GPa)
#
#
# Indices 1 2 3 4 5 6 
#
# 1 0.027699 -0.006641 -0.002904 0.000000 -0.008225 0.000000
# 2 -0.006641 0.011401 -0.003207 0.000000 0.000958 0.000000
# 3 -0.002904 -0.003207 0.010507 0.000000 0.001956 0.000000
# 4 0.000000 0.000000 0.000000 0.041742 0.000000 -0.000324
# 5 -0.008225 0.000958 0.001956 0.000000 0.051105 0.000000
# 6 0.000000 0.000000 0.000000 -0.000324 0.000000 0.057453
#
#
# Mechanical properties :
#
#
# Convention : Reuss Voigt Hill
#
# Bulk Modulus (GPa) = 41.49025 54.43988 47.96507
# Shear Modulus (GPa) = 21.41826 24.52898 22.97362
#
# Velocity S-wave (km/s) = 3.56814 3.81847 3.69542
# Velocity P-wave (km/s) = 6.45278 7.19733 6.83520
#
# Compressibility (1/GPa) = 0.02410205
#
# Stress axis : x y z
#
# Youngs Moduli (GPa) = 36.10259 87.71469 95.17222
#
# Poissons Ratio (x) = 0.58254 0.27637
# Poissons Ratio (y) = 0.23977 0.30523
# Poissons Ratio (z) = 0.10484 0.28132
#
# Static dielectric constant tensor:
#      x y z
#    x 1.558380 0.000000 0.007340 
#    y 0.000000 1.596450 0.000000 
#    z 0.007340 0.000000 1.582450 
# 
# From -- ./inp_files/148400.got.cif
#   From: 2010.05.17/outbox.cif.g08.bks.cpg/sg15_75_cif.got.tgz:148400.got - 2010.06.03 18:47:42.
