data_PCOD9287051
_publ_section_title
;
Structure prediction by ZEFSAII (Michael W. Deem and Ramdas Pophale) SiO2 
 PCOD9287051
Probable space group: C 2/C
;
_chemical_formula_sum "Si O2"
_cell_formula_units_Z 44
_cell_length_a 6.529035
_cell_length_b 25.319908
_cell_length_c 15.464154
_cell_angle_alpha 90.000000
_cell_angle_beta 55.816222
_cell_angle_gamma 90.000000
_cell_volume 2114.796803
_symmetry_space_group_name_H-M "C 2/C"
_symmetry_group_IT_number 15
_symmetry_cell_setting 'monoclinic'
loop_
_space_group_symop_operation_xyz
x,y,z
-x,y,1/2-z
-x,-y,-z
x,-y,1/2+z
1/2+x,1/2+y,z
1/2-x,1/2+y,1/2-z
1/2-x,1/2-y,-z
1/2+x,1/2-y,1/2+z
loop_
_atom_site_type_symbol
_atom_site_label
_atom_site_fract_x
_atom_site_fract_y
_atom_site_fract_z
Si Si1 0.410011 0.923016 0.672874
Si Si2 0.579842 0.448761 0.036452
Si Si3 0.482696 0.759573 0.384137
Si Si4 0.500000 0.487997 0.250000
Si Si5 0.000000 0.807682 0.250000
Si Si6 0.234747 0.636408 0.656445
Si Si7 0.000000 0.164247 0.250000
O O1 0.500000 0.916195 0.750000
O O2 0.644665 0.931974 0.555471
O O3 0.239280 0.873258 0.688273
O O4 0.235582 0.974253 0.709303
O O5 0.548589 0.458455 0.147169
O O6 0.395061 0.400687 0.057548
O O7 0.500000 0.500000 0.000000
O O8 0.250000 0.750000 0.500000
O O9 0.385125 0.811782 0.357405
O O10 0.511439 0.705113 0.325900
O O11 0.765083 0.774550 0.341570
O O12 0.096083 0.842876 0.305904
O O13 0.000000 0.604620 0.750000
#
# Coordination Sequence:
#
# PCOD9287051 Si02
#       7
#     8   8   8   4   4   8   4
#     4  11  26  46  70 104 140 185 237 291 360 425
#     4  12  26  45  77 100 142 191 231 299 360 417
#     4  11  25  43  71 101 140 186 229 288 352 424
#     4  11  25  50  70 104 140 182 238 290 356 436
#     4  10  21  46  65  96 140 175 234 285 346 410
#     4  10  24  44  66 101 135 176 238 282 339 425
#     4  11  26  46  67 104 144 177 234 295 344 428
#
# _framework density 20.805779999999999
#
# number of rings (size 3 to 8) (size 9 to 14) (size 15 to 20)
#    0.000    1.091    4.545    1.091    8.909    0.727 
#    3.273    0.000    0.000    0.000    0.000    0.000 
#    0.000    0.000    0.000    0.000    0.000    0.000 
#
# Total GULP energy -122795.047052 kJ/mol
# GULP energy per Si atom -5581.593048 kJ/mol
# Density = 2.075842 g / cm^3
# Si number density = 20.805780 Si / 1000 Ang^3
#
#
#
# Elastic Constant Matrix: (Units=GPa)
#
#
# Indices 1 2 3 4 5 6 
#
# 1 121.4229 55.5658 52.8195 0.0000 -33.5323 0.0000
# 2 55.5658 119.3566 58.0072 0.0000 -26.4150 0.0000
# 3 52.8195 58.0072 150.0868 0.0000 -46.7766 0.0000
# 4 0.0000 0.0000 0.0000 33.4701 0.0000 -3.8887
# 5 -33.5323 -26.4150 -46.7766 0.0000 48.0228 0.0000
# 6 0.0000 0.0000 0.0000 -3.8887 0.0000 8.7271
#
#
#
# Elastic Compliance Matrix: (Units=1/GPa)
#
#
# Indices 1 2 3 4 5 6 
#
# 1 0.011897 -0.003875 -0.001098 0.000000 0.005106 0.000000
# 2 -0.003875 0.011804 -0.002898 0.000000 0.000964 0.000000
# 3 -0.001098 -0.002898 0.010674 0.000000 0.008036 0.000000
# 4 0.000000 0.000000 0.000000 0.031509 0.000000 0.014040
# 5 0.005106 0.000964 0.008036 0.000000 0.032747 0.000000
# 6 0.000000 0.000000 0.000000 0.014040 0.000000 0.120842
#
#
# Mechanical properties :
#
#
# Convention : Reuss Voigt Hill
#
# Bulk Modulus (GPa) = 53.66667 80.40571 67.03619
# Shear Modulus (GPa) = 20.71043 33.00890 26.85967
#
# Velocity S-wave (km/s) = 3.15845 3.98744 3.59691
# Velocity P-wave (km/s) = 6.25709 7.74140 7.03848
#
# Compressibility (1/GPa) = 0.01863354
#
# Stress axis : x y z
#
# Youngs Moduli (GPa) = 84.05799 84.71726 93.68775
#
# Poissons Ratio (x) = 0.32826 0.10284
# Poissons Ratio (y) = 0.32571 0.27150
# Poissons Ratio (z) = 0.09227 0.24550
#
# Static dielectric constant tensor:
#      x y z
#    x 1.739420 0.000000 0.041660 
#    y 0.000000 1.737370 0.000000 
#    z 0.041660 0.000000 1.684170 
# 
# From -- ./inp_files/130014.got.cif
#   From: 2010.05.17/outbox.cif.g08.bks.cpg/sg15_66_cif.got.tgz:130014.got - 2010.06.03 18:47:42.
