data_PCOD9287656
_publ_section_title
;
Structure prediction by ZEFSAII (Michael W. Deem and Ramdas Pophale) SiO2 
 PCOD9287656
Probable space group: C 2/C
;
_chemical_formula_sum "Si O2"
_cell_formula_units_Z 40
_cell_length_a 26.136379
_cell_length_b 9.303926
_cell_length_c 22.758955
_cell_angle_alpha 90.000000
_cell_angle_beta 158.812601
_cell_angle_gamma 90.000000
_cell_volume 2000.209954
_symmetry_space_group_name_H-M "C 2/C"
_symmetry_group_IT_number 15
_symmetry_cell_setting 'monoclinic'
loop_
_space_group_symop_operation_xyz
x,y,z
-x,y,1/2-z
-x,-y,-z
x,-y,1/2+z
1/2+x,1/2+y,z
1/2-x,1/2+y,1/2-z
1/2-x,1/2-y,-z
1/2+x,1/2-y,1/2+z
loop_
_atom_site_type_symbol
_atom_site_label
_atom_site_fract_x
_atom_site_fract_y
_atom_site_fract_z
Si Si1 0.150437 0.529045 0.051494
Si Si2 0.164693 0.090282 0.142837
Si Si3 0.967026 0.356285 0.926858
Si Si4 0.293367 0.304192 0.610172
Si Si5 0.595974 0.341818 0.980422
O O1 0.277885 0.518518 0.235322
O O2 0.207915 0.561269 0.047665
O O3 0.035964 0.405703 0.938390
O O4 0.086234 0.685411 0.000011
O O5 0.299651 0.158992 0.253330
O O6 0.054902 0.216216 0.038527
O O7 0.104618 0.969492 0.035321
O O8 0.000000 0.500000 0.000000
O O9 0.250000 0.250000 0.500000
O O10 0.457568 0.343479 0.791502
O O11 0.240742 0.176904 0.598084
#
# Coordination Sequence:
#
# PCOD9287656 Si02
#       5
#     8   8   8   8   8
#     4   9  21  35  61  87 131 160 213 263 320 385
#     4  11  22  36  60  90 135 164 208 261 332 397
#     4  10  22  38  53  91 131 171 205 251 325 397
#     4  10  22  39  63  92 121 169 223 267 313 375
#     4  10  22  37  61  94 122 166 213 264 323 379
#
# _framework density 19.997900999999999
#
# number of rings (size 3 to 8) (size 9 to 14) (size 15 to 20)
#    1.200    0.800    0.000    4.200    8.400    0.800 
#    0.000    0.000    0.000    1.200    5.200    0.000 
#    0.000    0.000    0.000    0.000    0.000    0.000 
#
# Total GULP energy -111399.040555 kJ/mol
# GULP energy per Si atom -5569.952028 kJ/mol
# Density = 1.995239 g / cm^3
# Si number density = 19.997901 Si / 1000 Ang^3
#
#
#
# Elastic Constant Matrix: (Units=GPa)
#
#
# Indices 1 2 3 4 5 6 
#
# 1 81.3617 24.3063 41.1232 0.0001 -0.8720 0.0000
# 2 24.3063 53.5959 25.6009 0.0001 7.9563 0.0001
# 3 41.1232 25.6009 104.4001 0.0001 10.7182 0.0001
# 4 0.0001 0.0001 0.0001 29.9897 0.0001 5.8432
# 5 -0.8720 7.9563 10.7182 0.0001 38.7287 0.0001
# 6 0.0000 0.0001 0.0001 5.8432 0.0001 41.2109
#
#
#
# Elastic Compliance Matrix: (Units=1/GPa)
#
#
# Indices 1 2 3 4 5 6 
#
# 1 0.016757 -0.005378 -0.005593 0.000000 0.003030 0.000000
# 2 -0.005378 0.023202 -0.003159 0.000000 -0.004013 0.000000
# 3 -0.005593 -0.003159 0.012868 0.000000 -0.003038 0.000000
# 4 0.000000 0.000000 0.000000 0.034292 0.000000 -0.004862
# 5 0.003030 -0.004013 -0.003038 0.000000 0.027554 0.000000
# 6 0.000000 0.000000 0.000000 -0.004862 0.000000 0.024955
#
#
# Mechanical properties :
#
#
# Convention : Reuss Voigt Hill
#
# Bulk Modulus (GPa) = 40.70466 46.82428 43.76447
# Shear Modulus (GPa) = 28.39684 31.87435 30.13559
#
# Velocity S-wave (km/s) = 3.77236 3.99668 3.88614
# Velocity P-wave (km/s) = 6.27479 6.69054 6.48600
#
# Compressibility (1/GPa) = 0.02456721
#
# Stress axis : x y z
#
# Youngs Moduli (GPa) = 59.67803 43.10019 77.71118
#
# Poissons Ratio (x) = 0.23178 0.43462
# Poissons Ratio (y) = 0.32092 0.24551
# Poissons Ratio (z) = 0.33377 0.13616
#
# Static dielectric constant tensor:
#      x y z
#    x 1.843470 0.000000 0.037670 
#    y 0.000000 1.719480 0.000000 
#    z 0.037670 0.000000 1.759960 
# 
# From -- ./inp_files/284343.got.cif
#   From: 2010.05.17/outbox.cif.g08.bks.cpg/sg15_143_cif.got.tgz:284343.got - 2010.06.03 18:47:42.
