data_PCOD9287315
_publ_section_title
;
Structure prediction by ZEFSAII (Michael W. Deem and Ramdas Pophale) SiO2 
 PCOD9287315
Probable space group: C 2/C
;
_chemical_formula_sum "Si O2"
_cell_formula_units_Z 28
_cell_length_a 11.506501
_cell_length_b 22.836913
_cell_length_c 5.159731
_cell_angle_alpha 90.000000
_cell_angle_beta 93.450383
_cell_angle_gamma 90.000000
_cell_volume 1353.380060
_symmetry_space_group_name_H-M "C 2/C"
_symmetry_group_IT_number 15
_symmetry_cell_setting 'monoclinic'
loop_
_space_group_symop_operation_xyz
x,y,z
-x,y,1/2-z
-x,-y,-z
x,-y,1/2+z
1/2+x,1/2+y,z
1/2-x,1/2+y,1/2-z
1/2-x,1/2-y,-z
1/2+x,1/2-y,1/2+z
loop_
_atom_site_type_symbol
_atom_site_label
_atom_site_fract_x
_atom_site_fract_y
_atom_site_fract_z
Si Si1 0.000000 0.763662 0.250000
Si Si2 0.826106 0.691707 0.481566
Si Si3 0.794688 0.852027 0.048115
Si Si4 0.364362 0.526353 0.309091
O O1 0.952808 0.719532 0.462959
O O2 0.100937 0.805840 0.377990
O O3 0.750000 0.750000 0.500000
O O4 0.785433 0.666091 0.202578
O O5 0.787162 0.649807 0.709138
O O6 0.851199 0.912664 0.959064
O O7 0.500000 0.517201 0.250000
O O8 0.313199 0.480421 0.512560
#
# Coordination Sequence:
#
# PCOD9287315 Si02
#       4
#     4   8   8   8
#     4  10  22  36  58  80 122 150 178 232 268 326
#     4  10  22  36  52  84 110 151 192 215 270 340
#     4  11  23  36  57  82 115 150 183 224 280 325
#     4  10  22  36  55  82 110 145 185 225 280 336
#
# _framework density 20.688942000000001
#
# number of rings (size 3 to 8) (size 9 to 14) (size 15 to 20)
#    0.000    1.714    0.000    5.143   14.000    5.714 
#    0.000    0.000    0.000    0.000    0.000   20.000 
#    0.000    0.000    0.000    0.000    0.000    0.000 
#
# Total GULP energy -77952.205834 kJ/mol
# GULP energy per Si atom -5568.014702 kJ/mol
# Density = 2.064185 g / cm^3
# Si number density = 20.688942 Si / 1000 Ang^3
#
#
#
# Elastic Constant Matrix: (Units=GPa)
#
#
# Indices 1 2 3 4 5 6 
#
# 1 55.4070 34.8280 49.9386 0.0000 -27.7560 0.0000
# 2 34.8280 76.6458 82.2585 0.0000 -19.2014 0.0000
# 3 49.9386 82.2585 192.7675 0.0000 -27.8816 0.0000
# 4 0.0000 0.0000 0.0000 31.9061 0.0000 -14.1249
# 5 -27.7560 -19.2014 -27.8816 0.0000 32.8436 0.0000
# 6 0.0000 0.0000 0.0000 -14.1249 0.0000 27.4019
#
#
#
# Elastic Compliance Matrix: (Units=1/GPa)
#
#
# Indices 1 2 3 4 5 6 
#
# 1 0.038321 -0.008026 -0.002847 0.000000 0.025276 0.000000
# 2 -0.008026 0.026874 -0.009231 0.000000 0.001093 0.000000
# 3 -0.002847 -0.009231 0.009958 0.000000 0.000651 0.000000
# 4 0.000000 0.000000 0.000000 0.040609 0.000000 0.020933
# 5 0.025276 0.001093 0.000651 0.000000 0.053000 0.000000
# 6 0.000000 0.000000 0.000000 0.020933 0.000000 0.047284
#
#
# Mechanical properties :
#
#
# Convention : Reuss Voigt Hill
#
# Bulk Modulus (GPa) = 28.61456 73.20785 50.91121
# Shear Modulus (GPa) = 18.66352 28.94999 23.80675
#
# Velocity S-wave (km/s) = 3.00676 3.74478 3.39588
# Velocity P-wave (km/s) = 5.09068 7.35932 6.32750
#
# Compressibility (1/GPa) = 0.03494724
#
# Stress axis : x y z
#
# Youngs Moduli (GPa) = 26.09541 37.21018 100.41884
#
# Poissons Ratio (x) = 0.29863 0.28588
# Poissons Ratio (y) = 0.20943 0.92694
# Poissons Ratio (z) = 0.07429 0.34348
#
# Static dielectric constant tensor:
#      x y z
#    x 1.789710 0.000000 -0.002380 
#    y 0.000000 1.788670 0.000000 
#    z -0.002380 0.000000 1.840980 
# 
# From -- ./inp_files/3505.got.cif
#   From: 2010.05.17/outbox.cif.g08.bks.cpg/sg15_2_cif.got.tgz:3505.got - 2010.06.03 18:47:42.
