data_PCOD9287475
_publ_section_title
;
Structure prediction by ZEFSAII (Michael W. Deem and Ramdas Pophale) SiO2 
 PCOD9287475
Probable space group: C 2/C
;
_chemical_formula_sum "Si O2"
_cell_formula_units_Z 60
_cell_length_a 17.096123
_cell_length_b 30.473037
_cell_length_c 10.943564
_cell_angle_alpha 90.000000
_cell_angle_beta 32.260388
_cell_angle_gamma 90.000000
_cell_volume 3043.158409
_symmetry_space_group_name_H-M "C 2/C"
_symmetry_group_IT_number 15
_symmetry_cell_setting 'monoclinic'
loop_
_space_group_symop_operation_xyz
x,y,z
-x,y,1/2-z
-x,-y,-z
x,-y,1/2+z
1/2+x,1/2+y,z
1/2-x,1/2+y,1/2-z
1/2-x,1/2-y,-z
1/2+x,1/2-y,1/2+z
loop_
_atom_site_type_symbol
_atom_site_label
_atom_site_fract_x
_atom_site_fract_y
_atom_site_fract_z
Si Si1 0.057186 0.347888 0.542522
Si Si2 0.000000 0.131200 0.750000
Si Si3 0.008335 0.411415 0.099804
Si Si4 0.583313 0.753009 0.765211
Si Si5 0.504761 0.422118 0.567911
Si Si6 0.596896 0.669703 0.876338
Si Si7 0.222996 0.036630 0.940481
Si Si8 0.184289 0.059690 0.406381
O O1 0.230330 0.337454 0.329366
O O2 0.000000 0.365959 0.750000
O O3 0.029352 0.378215 0.461195
O O4 0.969401 0.302379 0.638551
O O5 0.040715 0.157501 0.815629
O O6 0.143275 0.101093 0.542229
O O7 0.000000 0.393282 0.250000
O O8 0.887676 0.449782 0.249867
O O9 0.168701 0.430530 0.862028
O O10 0.500000 0.740748 0.750000
O O11 0.750000 0.750000 0.500000
O O12 0.564890 0.721787 0.909065
O O13 0.515988 0.369028 0.559521
O O14 0.661544 0.442093 0.396376
O O15 0.451986 0.439745 0.507223
O O16 0.382753 0.441071 0.820331
O O17 0.198731 0.985019 0.960881
#
# Coordination Sequence:
#
# PCOD9287475 Si02
#       8
#     8   4   8   8   8   8   8   8
#     4  11  23  42  67 101 136 171 225 278 345 399
#     4  10  22  36  64 102 132 170 230 280 330 396
#     4  12  25  46  67  97 142 185 223 279 352 407
#     4  11  21  36  66  99 136 166 214 285 341 402
#     4  10  22  39  66  87 124 178 221 275 332 401
#     4  11  20  38  61  99 130 172 216 274 342 396
#     4  11  22  43  62  91 130 176 227 277 329 398
#     4  11  23  40  64  96 128 176 231 282 331 397
#
# _framework density 19.716358
#
# number of rings (size 3 to 8) (size 9 to 14) (size 15 to 20)
#    0.000    1.067    6.000    2.400    0.000    1.067 
#    2.400    0.000    2.933    1.600    0.000    0.000 
#    0.000    0.000    0.000    0.000    0.000    0.000 
#
# Total GULP energy -167235.768589 kJ/mol
# GULP energy per Si atom -5574.525620 kJ/mol
# Density = 1.967148 g / cm^3
# Si number density = 19.716358 Si / 1000 Ang^3
#
#
#
# Elastic Constant Matrix: (Units=GPa)
#
#
# Indices 1 2 3 4 5 6 
#
# 1 83.7260 20.8776 19.9829 0.0000 -9.3594 0.0000
# 2 20.8776 74.6092 19.0555 0.0000 4.3393 0.0000
# 3 19.9829 19.0555 84.3178 0.0000 -6.9955 0.0000
# 4 0.0000 0.0000 0.0000 19.9840 0.0000 -4.4565
# 5 -9.3594 4.3393 -6.9955 0.0000 32.1822 0.0000
# 6 0.0000 0.0000 0.0000 -4.4565 0.0000 24.9537
#
#
#
# Elastic Compliance Matrix: (Units=1/GPa)
#
#
# Indices 1 2 3 4 5 6 
#
# 1 0.013787 -0.003548 -0.002132 0.000000 0.004025 0.000000
# 2 -0.003548 0.015365 -0.002942 0.000000 -0.003743 0.000000
# 3 -0.002132 -0.002942 0.013250 0.000000 0.002657 0.000000
# 4 0.000000 0.000000 0.000000 0.052115 0.000000 0.009307
# 5 0.004025 -0.003743 0.002657 0.000000 0.033326 0.000000
# 6 0.000000 0.000000 0.000000 0.009307 0.000000 0.041737
#
#
# Mechanical properties :
#
#
# Convention : Reuss Voigt Hill
#
# Bulk Modulus (GPa) = 39.74671 40.27613 40.01142
# Shear Modulus (GPa) = 25.61344 27.60644 26.60994
#
# Velocity S-wave (km/s) = 3.60821 3.74596 3.67773
# Velocity P-wave (km/s) = 6.12878 6.25953 6.19450
#
# Compressibility (1/GPa) = 0.02515931
#
# Stress axis : x y z
#
# Youngs Moduli (GPa) = 72.53196 65.08288 75.46888
#
# Poissons Ratio (x) = 0.23089 0.16089
# Poissons Ratio (y) = 0.25731 0.22205
# Poissons Ratio (z) = 0.15463 0.19149
#
# Static dielectric constant tensor:
#      x y z
#    x 1.747110 0.000000 0.032840 
#    y 0.000000 1.754160 0.000000 
#    z 0.032840 0.000000 1.716190 
# 
# From -- ./inp_files/108586.got.cif
#   From: 2010.05.17/outbox.cif.g08.bks.cpg/sg15_55_cif.got.tgz:108586.got - 2010.06.03 18:47:42.
