data_PCOD9287628
_publ_section_title
;
Structure prediction by ZEFSAII (Michael W. Deem and Ramdas Pophale) SiO2 
 PCOD9287628
Probable space group: C 2/C
;
_chemical_formula_sum "Si O2"
_cell_formula_units_Z 48
_cell_length_a 14.266652
_cell_length_b 5.404991
_cell_length_c 29.786467
_cell_angle_alpha 90.000000
_cell_angle_beta 70.174040
_cell_angle_gamma 90.000000
_cell_volume 2160.726190
_symmetry_space_group_name_H-M "C 2/C"
_symmetry_group_IT_number 15
_symmetry_cell_setting 'monoclinic'
loop_
_space_group_symop_operation_xyz
x,y,z
-x,y,1/2-z
-x,-y,-z
x,-y,1/2+z
1/2+x,1/2+y,z
1/2-x,1/2+y,1/2-z
1/2-x,1/2-y,-z
1/2+x,1/2-y,1/2+z
loop_
_atom_site_type_symbol
_atom_site_label
_atom_site_fract_x
_atom_site_fract_y
_atom_site_fract_z
Si Si1 0.859938 0.315654 0.031332
Si Si2 0.999297 0.279354 0.657731
Si Si3 0.477937 0.064477 0.932251
Si Si4 0.429961 0.285635 0.805364
Si Si5 0.266647 0.756124 0.718322
Si Si6 0.329307 0.436533 0.966311
O O1 0.741981 0.373755 0.049124
O O2 0.913224 0.346836 0.070032
O O3 0.917921 0.490868 0.986741
O O4 0.875613 0.058365 0.003360
O O5 0.880522 0.255119 0.683542
O O6 0.019037 0.339028 0.602322
O O7 0.037172 0.529600 0.676338
O O8 0.049771 0.035851 0.669983
O O9 0.411252 0.289967 0.925185
O O10 0.500000 0.308413 0.750000
O O11 0.315817 0.268053 0.807507
O O12 0.248258 0.503186 0.749165
O O13 0.250000 0.250000 0.000000
#
# Coordination Sequence:
#
# PCOD9287628 Si02
#       6
#     8   8   8   8   8   8
#     4   9  19  39  63  82 127 173 203 259 322 382
#     4  12  26  43  66 105 131 170 224 279 318 401
#     4  10  22  37  60  91 124 163 215 261 320 372
#     4  12  24  45  72  91 134 175 213 271 343 390
#     4  12  23  43  72  96 126 173 221 261 334 405
#     4   9  18  36  61  87 115 169 211 247 314 383
#
# _framework density 22.214751
#
# number of rings (size 3 to 8) (size 9 to 14) (size 15 to 20)
#    0.000    1.333    3.333    2.000    2.333    1.333 
#    6.000    0.000    0.000    0.000    0.000    0.000 
#    0.000    0.000    0.000    0.000    0.000    0.000 
#
# Total GULP energy -134037.266102 kJ/mol
# GULP energy per Si atom -5584.886088 kJ/mol
# Density = 2.216419 g / cm^3
# Si number density = 22.214751 Si / 1000 Ang^3
#
#
#
# Elastic Constant Matrix: (Units=GPa)
#
#
# Indices 1 2 3 4 5 6 
#
# 1 148.0005 26.7117 25.1974 -0.0067 15.8319 -0.0100
# 2 26.7117 111.2580 11.6221 -0.0108 3.3727 -0.0221
# 3 25.1974 11.6221 45.0260 -0.0021 4.4110 -0.0030
# 4 -0.0067 -0.0108 -0.0021 48.0472 0.0000 21.2423
# 5 15.8319 3.3727 4.4110 0.0000 13.0138 -0.0005
# 6 -0.0100 -0.0221 -0.0030 21.2423 -0.0005 35.8115
#
#
#
# Elastic Compliance Matrix: (Units=1/GPa)
#
#
# Indices 1 2 3 4 5 6 
#
# 1 0.008565 -0.001416 -0.003561 0.000000 -0.008846 0.000001
# 2 -0.001416 0.009505 -0.001643 -0.000001 -0.000184 0.000006
# 3 -0.003561 -0.001643 0.024990 0.000000 -0.003712 0.000000
# 4 0.000000 -0.000001 0.000000 0.028211 -0.000001 -0.016734
# 5 -0.008846 -0.000184 -0.003712 -0.000001 0.088909 -0.000001
# 6 0.000001 0.000006 0.000000 -0.016734 -0.000001 0.037850
#
#
# Mechanical properties :
#
#
# Convention : Reuss Voigt Hill
#
# Bulk Modulus (GPa) = 33.53471 47.92745 40.73108
# Shear Modulus (GPa) = 22.60294 35.42471 29.01383
#
# Velocity S-wave (km/s) = 3.19325 3.99764 3.61787
# Velocity P-wave (km/s) = 5.35950 6.55207 5.98556
#
# Compressibility (1/GPa) = 0.02981985
#
# Stress axis : x y z
#
# Youngs Moduli (GPa) = 116.75670 105.20415 40.01607
#
# Poissons Ratio (x) = 0.14899 0.14249
# Poissons Ratio (y) = 0.16535 0.06575
# Poissons Ratio (z) = 0.41576 0.17285
#
# Static dielectric constant tensor:
#      x y z
#    x 1.810010 0.000000 0.051590 
#    y 0.000000 1.897170 0.000000 
#    z 0.051590 0.000000 1.800570 
# 
# From -- ./inp_files/312079.got.cif
#   From: 2010.05.17/outbox.cif.g08.bks.cpg/sg15_157_cif.got.tgz:312079.got - 2010.06.03 18:47:42.
