data_PCOD9287141
_publ_section_title
;
Structure prediction by ZEFSAII (Michael W. Deem and Ramdas Pophale) SiO2 
 PCOD9287141
Probable space group: C 2/C
;
_chemical_formula_sum "Si O2"
_cell_formula_units_Z 44
_cell_length_a 14.821897
_cell_length_b 26.602667
_cell_length_c 5.863155
_cell_angle_alpha 90.000000
_cell_angle_beta 55.932650
_cell_angle_gamma 90.000000
_cell_volume 1915.092617
_symmetry_space_group_name_H-M "C 2/C"
_symmetry_group_IT_number 15
_symmetry_cell_setting 'monoclinic'
loop_
_space_group_symop_operation_xyz
x,y,z
-x,y,1/2-z
-x,-y,-z
x,-y,1/2+z
1/2+x,1/2+y,z
1/2-x,1/2+y,1/2-z
1/2-x,1/2-y,-z
1/2+x,1/2-y,1/2+z
loop_
_atom_site_type_symbol
_atom_site_label
_atom_site_fract_x
_atom_site_fract_y
_atom_site_fract_z
Si Si1 0.720152 0.227203 0.791664
Si Si2 0.000000 0.703344 0.250000
Si Si3 0.850921 0.982093 0.850729
Si Si4 0.896487 0.371141 0.554651
Si Si5 0.623934 0.960272 0.600581
Si Si6 0.743800 0.382016 0.391403
O O1 0.750000 0.250000 0.500000
O O2 0.769240 0.169742 0.726096
O O3 0.750000 0.250000 0.000000
O O4 0.587737 0.230808 0.972816
O O5 0.922548 0.667779 0.212645
O O6 0.893130 0.991988 0.529723
O O7 0.848261 0.923074 0.921080
O O8 0.725726 0.002979 0.996580
O O9 0.886075 0.426874 0.660798
O O10 0.789412 0.361671 0.564655
O O11 0.000000 0.367295 0.250000
O O12 0.500000 0.979941 0.750000
O O13 0.663801 0.917870 0.360535
#
# Coordination Sequence:
#
# PCOD9287141 Si02
#       6
#     8   4   8   8   8   8
#     4  12  27  42  65  89 112 160 211 258 315 358
#     4  12  24  40  60  88 120 156 208 266 304 360
#     4  10  22  31  46  71 109 152 191 237 265 332
#     4  12  17  31  55  74 110 163 192 240 288 333
#     4  11  19  30  45  76 110 155 200 232 271 339
#     4  11  22  35  50  75 114 149 203 247 281 341
#
# _framework density 22.975390000000001
#
# number of rings (size 3 to 8) (size 9 to 14) (size 15 to 20)
#    0.000    0.727    8.182    1.091    0.000    3.636 
#    0.000    0.000    0.000    0.000    0.000    0.000 
#    0.000    0.000    0.000   65.455    0.000    0.000 
#
# Total GULP energy -122494.771061 kJ/mol
# GULP energy per Si atom -5567.944139 kJ/mol
# Density = 2.292310 g / cm^3
# Si number density = 22.975390 Si / 1000 Ang^3
#
#
#
# Elastic Constant Matrix: (Units=GPa)
#
#
# Indices 1 2 3 4 5 6 
#
# 1 74.1503 33.1231 27.5556 0.0000 29.3733 0.0000
# 2 33.1231 115.9758 55.3130 0.0000 18.0051 0.0000
# 3 27.5556 55.3130 155.0060 0.0000 21.0995 0.0000
# 4 0.0000 0.0000 0.0000 16.7947 0.0000 11.0401
# 5 29.3733 18.0051 21.0995 0.0000 41.8063 0.0000
# 6 0.0000 0.0000 0.0000 11.0401 0.0000 22.8255
#
#
#
# Elastic Compliance Matrix: (Units=1/GPa)
#
#
# Indices 1 2 3 4 5 6 
#
# 1 0.020197 -0.003545 -0.000646 0.000000 -0.012338 0.000000
# 2 -0.003545 0.011327 -0.003314 0.000000 -0.000715 0.000000
# 3 -0.000646 -0.003314 0.008046 0.000000 -0.002179 0.000000
# 4 0.000000 0.000000 0.000000 0.087299 0.000000 -0.042224
# 5 -0.012338 -0.000715 -0.002179 0.000000 0.033996 0.000000
# 6 0.000000 0.000000 0.000000 -0.042224 0.000000 0.064234
#
#
# Mechanical properties :
#
#
# Convention : Reuss Voigt Hill
#
# Bulk Modulus (GPa) = 40.71866 64.12396 52.42131
# Shear Modulus (GPa) = 20.13736 31.56133 25.84934
#
# Velocity S-wave (km/s) = 2.96374 3.71037 3.35787
# Velocity P-wave (km/s) = 5.42890 6.80634 6.15626
#
# Compressibility (1/GPa) = 0.02455876
#
# Stress axis : x y z
#
# Youngs Moduli (GPa) = 49.51204 88.28764 124.29196
#
# Poissons Ratio (x) = 0.31296 0.08030
# Poissons Ratio (y) = 0.17551 0.41195
# Poissons Ratio (z) = 0.03199 0.29262
#
# Static dielectric constant tensor:
#      x y z
#    x 1.792010 0.000000 0.294620 
#    y 0.000000 1.921970 0.000000 
#    z 0.294620 0.000000 1.415220 
# 
# From -- ./inp_files/8608.got.cif
#   From: 2010.05.17/outbox.cif.g08.bks.cpg/sg15_5_cif.got.tgz:8608.got - 2010.06.03 18:47:42.
