data_PCOD9287437
_publ_section_title
;
Structure prediction by ZEFSAII (Michael W. Deem and Ramdas Pophale) SiO2 
 PCOD9287437
Probable space group: C 2/C
;
_chemical_formula_sum "Si O2"
_cell_formula_units_Z 56
_cell_length_a 5.467589
_cell_length_b 28.175781
_cell_length_c 16.918311
_cell_angle_alpha 90.000000
_cell_angle_beta 87.844578
_cell_angle_gamma 90.000000
_cell_volume 2604.482525
_symmetry_space_group_name_H-M "C 2/C"
_symmetry_group_IT_number 15
_symmetry_cell_setting 'monoclinic'
loop_
_space_group_symop_operation_xyz
x,y,z
-x,y,1/2-z
-x,-y,-z
x,-y,1/2+z
1/2+x,1/2+y,z
1/2-x,1/2+y,1/2-z
1/2-x,1/2-y,-z
1/2+x,1/2-y,1/2+z
loop_
_atom_site_type_symbol
_atom_site_label
_atom_site_fract_x
_atom_site_fract_y
_atom_site_fract_z
Si Si1 0.295276 0.754947 0.818990
Si Si2 0.473519 0.341355 0.877719
Si Si3 0.708149 0.133635 0.975288
Si Si4 0.924716 0.285297 0.541857
Si Si5 0.761555 0.644915 0.704410
Si Si6 0.977680 0.050181 0.339358
Si Si7 0.463129 0.960293 0.934706
O O1 0.500000 0.764087 0.750000
O O2 0.116512 0.799961 0.829768
O O3 0.401519 0.753872 0.906400
O O4 0.201876 0.702121 0.803112
O O5 0.205700 0.320502 0.894272
O O6 0.492782 0.392338 0.838290
O O7 0.580156 0.350457 0.965455
O O8 0.765999 0.123699 0.883616
O O9 0.536718 0.179462 0.977548
O O10 0.574895 0.089575 0.019073
O O11 0.750000 0.250000 0.500000
O O12 0.500000 0.637560 0.750000
O O13 0.000000 0.626818 0.750000
O O14 0.710929 0.039919 0.379724
O O15 0.000000 0.031901 0.250000
O O16 0.211629 0.033039 0.387883
O O17 0.500000 0.000000 0.000000
#
# Coordination Sequence:
#
# PCOD9287437 Si02
#       7
#     8   8   8   8   8   8   8
#     4  10  24  35  53  88 128 175 220 267 320 380
#     4  10  22  36  61  91 126 173 214 264 331 392
#     4  10  23  42  62  91 125 165 222 266 326 395
#     4  11  21  35  61  87 124 169 222 259 319 376
#     4  11  26  41  60  87 125 174 224 274 319 368
#     4  11  24  42  71 105 142 167 214 280 347 398
#     4  11  24  47  73 102 130 180 218 272 336 416
#
# _framework density 21.501391999999999
#
# number of rings (size 3 to 8) (size 9 to 14) (size 15 to 20)
#    0.000    1.429    1.429    2.571   12.000    2.286 
#    0.000    2.143    0.000    0.000    0.000    0.000 
#    0.000    0.000    0.000    0.000    0.000    0.000 
#
# Total GULP energy -156384.338486 kJ/mol
# GULP energy per Si atom -5585.154946 kJ/mol
# Density = 2.145245 g / cm^3
# Si number density = 21.501392 Si / 1000 Ang^3
#
#
#
# Elastic Constant Matrix: (Units=GPa)
#
#
# Indices 1 2 3 4 5 6 
#
# 1 112.7569 25.7368 62.5237 0.0000 -5.5518 0.0000
# 2 25.7368 35.9350 24.3358 0.0000 4.4459 0.0000
# 3 62.5237 24.3358 155.7105 0.0000 -11.1081 0.0000
# 4 0.0000 0.0000 0.0000 22.7725 0.0000 5.6264
# 5 -5.5518 4.4459 -11.1081 0.0000 39.6087 0.0000
# 6 0.0000 0.0000 0.0000 5.6264 0.0000 22.7442
#
#
#
# Elastic Compliance Matrix: (Units=1/GPa)
#
#
# Indices 1 2 3 4 5 6 
#
# 1 0.012617 -0.006538 -0.003945 0.000000 0.001396 0.000000
# 2 -0.006538 0.035493 -0.003338 0.000000 -0.005837 0.000000
# 3 -0.003945 -0.003338 0.008689 0.000000 0.002259 0.000000
# 4 0.000000 0.000000 0.000000 0.046771 0.000000 -0.011570
# 5 0.001396 -0.005837 0.002259 0.000000 0.026731 0.000000
# 6 0.000000 0.000000 0.000000 -0.011570 0.000000 0.046829
#
#
# Mechanical properties :
#
#
# Convention : Reuss Voigt Hill
#
# Bulk Modulus (GPa) = 34.29647 58.84387 46.57017
# Shear Modulus (GPa) = 23.31087 29.81216 26.56152
#
# Velocity S-wave (km/s) = 3.29623 3.72764 3.51855
# Velocity P-wave (km/s) = 5.52017 6.77894 6.18168
#
# Compressibility (1/GPa) = 0.02915752
#
# Stress axis : x y z
#
# Youngs Moduli (GPa) = 79.25819 28.17441 115.08692
#
# Poissons Ratio (x) = 0.18419 0.45400
# Poissons Ratio (y) = 0.51815 0.38422
# Poissons Ratio (z) = 0.31266 0.09406
#
# Static dielectric constant tensor:
#      x y z
#    x 1.839480 0.000000 -0.007570 
#    y 0.000000 1.172910 0.000000 
#    z -0.007570 0.000000 1.789620 
# 
# From -- ./inp_files/130774.got.cif
#   From: 2010.05.17/outbox.cif.g08.bks.cpg/sg15_66_cif.got.tgz:130774.got - 2010.06.03 18:47:42.
