data_PCOD9287992
_publ_section_title
;
Structure prediction by ZEFSAII (Michael W. Deem and Ramdas Pophale) SiO2 
 PCOD9287992
Probable space group: C 2/C
;
_chemical_formula_sum "Si O2"
_cell_formula_units_Z 48
_cell_length_a 14.231136
_cell_length_b 6.614849
_cell_length_c 28.543959
_cell_angle_alpha 90.000000
_cell_angle_beta 117.552614
_cell_angle_gamma 90.000000
_cell_volume 2382.290934
_symmetry_space_group_name_H-M "C 2/C"
_symmetry_group_IT_number 15
_symmetry_cell_setting 'monoclinic'
loop_
_space_group_symop_operation_xyz
x,y,z
-x,y,1/2-z
-x,-y,-z
x,-y,1/2+z
1/2+x,1/2+y,z
1/2-x,1/2+y,1/2-z
1/2-x,1/2-y,-z
1/2+x,1/2-y,1/2+z
loop_
_atom_site_type_symbol
_atom_site_label
_atom_site_fract_x
_atom_site_fract_y
_atom_site_fract_z
Si Si1 0.883247 0.437765 0.737333
Si Si2 0.773254 0.141304 0.646080
Si Si3 0.888480 0.786741 0.502660
Si Si4 0.313803 0.752758 0.819729
Si Si5 0.249557 0.059523 0.965436
Si Si6 0.603969 0.525143 0.087305
O O1 0.863481 0.256563 0.695619
O O2 0.787488 0.603328 0.712408
O O3 0.867159 0.338067 0.784857
O O4 0.000000 0.520904 0.750000
O O5 0.792304 0.108313 0.595575
O O6 0.678341 0.301687 0.624062
O O7 0.734884 0.938508 0.662201
O O8 0.864366 0.550003 0.491234
O O9 0.005857 0.855847 0.542409
O O10 0.824162 0.887048 0.530072
O O11 0.851669 0.896728 0.446370
O O12 0.401021 0.635202 0.871517
O O13 0.250000 0.250000 0.000000
#
# Coordination Sequence:
#
# PCOD9287992 Si02
#       6
#     8   8   8   8   8   8
#     4  11  26  46  71  98 127 177 232 279 350 403
#     4  11  23  43  66  92 133 174 215 282 339 393
#     4  10  22  38  61  94 131 171 223 263 320 406
#     4  11  23  47  66  97 137 168 228 293 330 409
#     4  11  22  39  60  93 135 174 217 270 324 405
#     4  10  22  40  63  95 128 173 218 269 335 394
#
# _framework density 20.148672999999999
#
# number of rings (size 3 to 8) (size 9 to 14) (size 15 to 20)
#    0.000    1.333    5.000    0.000    2.333    2.667 
#    3.000    0.000    0.000    0.000    0.000    0.000 
#    0.000    0.000    0.000    0.000    0.000    0.000 
#
# Total GULP energy -133785.123431 kJ/mol
# GULP energy per Si atom -5574.380143 kJ/mol
# Density = 2.010281 g / cm^3
# Si number density = 20.148673 Si / 1000 Ang^3
#
#
#
# Elastic Constant Matrix: (Units=GPa)
#
#
# Indices 1 2 3 4 5 6 
#
# 1 55.3435 14.7446 19.5941 0.0000 -18.4031 0.0000
# 2 14.7446 98.0777 36.3211 0.0000 -15.8227 0.0000
# 3 19.5941 36.3211 100.0825 0.0000 -33.9028 0.0000
# 4 0.0000 0.0000 0.0000 38.3088 0.0000 -10.8836
# 5 -18.4031 -15.8227 -33.9028 0.0000 35.4394 0.0000
# 6 0.0000 0.0000 0.0000 -10.8836 0.0000 26.9919
#
#
#
# Elastic Compliance Matrix: (Units=1/GPa)
#
#
# Indices 1 2 3 4 5 6 
#
# 1 0.022068 -0.001544 -0.000165 0.000000 0.010612 0.000000
# 2 -0.001544 0.011959 -0.003700 0.000000 0.000998 0.000000
# 3 -0.000165 -0.003700 0.015945 0.000000 0.013516 0.000000
# 4 0.000000 0.000000 0.000000 0.029481 0.000000 0.011887
# 5 0.010612 0.000998 0.013516 0.000000 0.047104 0.000000
# 6 0.000000 0.000000 0.000000 0.011887 0.000000 0.041841
#
#
# Mechanical properties :
#
#
# Convention : Reuss Voigt Hill
#
# Bulk Modulus (GPa) = 25.54025 43.86927 34.70476
# Shear Modulus (GPa) = 26.00536 32.33762 29.17149
#
# Velocity S-wave (km/s) = 3.59649 4.01053 3.80914
# Velocity P-wave (km/s) = 5.47264 6.57768 6.05044
#
# Compressibility (1/GPa) = 0.03915389
#
# Stress axis : x y z
#
# Youngs Moduli (GPa) = 45.31531 83.61678 62.71393
#
# Poissons Ratio (x) = 0.12914 0.01036
# Poissons Ratio (y) = 0.06999 0.23202
# Poissons Ratio (z) = 0.00748 0.30935
#
# Static dielectric constant tensor:
#      x y z
#    x 0.271970 0.000000 0.727630 
#    y 0.000000 1.752850 0.000000 
#    z 0.727630 0.000000 1.443960 
# 
# From -- ./inp_files/312438.got.cif
#   From: 2010.05.17/outbox.cif.g08.bks.cpg/sg15_157_cif.got.tgz:312438.got - 2010.06.03 18:47:42.
