data_PCOD9287117
_publ_section_title
;
Structure prediction by ZEFSAII (Michael W. Deem and Ramdas Pophale) SiO2 
 PCOD9287117
Probable space group: C 2/C
;
_chemical_formula_sum "Si O2"
_cell_formula_units_Z 48
_cell_length_a 14.502313
_cell_length_b 9.826507
_cell_length_c 24.697782
_cell_angle_alpha 90.000000
_cell_angle_beta 31.321112
_cell_angle_gamma 90.000000
_cell_volume 1829.612048
_symmetry_space_group_name_H-M "C 2/C"
_symmetry_group_IT_number 15
_symmetry_cell_setting 'monoclinic'
loop_
_space_group_symop_operation_xyz
x,y,z
-x,y,1/2-z
-x,-y,-z
x,-y,1/2+z
1/2+x,1/2+y,z
1/2-x,1/2+y,1/2-z
1/2-x,1/2-y,-z
1/2+x,1/2-y,1/2+z
loop_
_atom_site_type_symbol
_atom_site_label
_atom_site_fract_x
_atom_site_fract_y
_atom_site_fract_z
Si Si1 0.144243 0.599373 0.402281
Si Si2 0.597898 0.222441 0.120545
Si Si3 0.399676 0.663855 0.364953
Si Si4 0.259280 0.681289 0.240354
Si Si5 0.124512 0.168859 0.439091
Si Si6 0.252180 0.544016 0.542353
O O1 0.326034 0.602700 0.345332
O O2 0.178840 0.568645 0.322065
O O3 0.000000 0.500000 0.500000
O O4 0.042991 0.743595 0.458160
O O5 0.409556 0.272396 0.193401
O O6 0.697010 0.249828 0.127652
O O7 0.582466 0.056282 0.129049
O O8 0.750000 0.250000 0.000000
O O9 0.584479 0.724337 0.296525
O O10 0.340474 0.551886 0.439004
O O11 0.284807 0.801479 0.425513
O O12 0.350253 0.651276 0.137421
O O13 0.865142 0.968403 0.531338
#
# Coordination Sequence:
#
# PCOD9287117 Si02
#       6
#     8   8   8   8   8   8
#     4  12  27  52  74 108 160 199 251 324 386 459
#     4  10  21  47  72 106 149 192 252 306 377 451
#     4  11  24  44  73 112 154 190 251 317 390 449
#     4  12  24  47  72 113 145 197 255 303 387 460
#     4  10  24  47  78 108 146 201 259 306 381 466
#     4   9  22  46  73 107 152 190 247 318 376 449
#
# _framework density 26.23507
#
# number of rings (size 3 to 8) (size 9 to 14) (size 15 to 20)
#    1.000    0.333    1.667    4.000    0.000    2.667 
#   21.000    1.667    0.000    0.000    0.000    0.000 
#    0.000    0.000    0.000    0.000    0.000    0.000 
#
# Total GULP energy -133719.780725 kJ/mol
# GULP energy per Si atom -5571.657530 kJ/mol
# Density = 2.617536 g / cm^3
# Si number density = 26.235070 Si / 1000 Ang^3
#
#
#
# Elastic Constant Matrix: (Units=GPa)
#
#
# Indices 1 2 3 4 5 6 
#
# 1 273.8709 13.1598 70.1858 0.0000 -14.6316 0.0000
# 2 13.1598 77.0896 12.0276 0.0000 1.6678 0.0000
# 3 70.1858 12.0276 98.1041 -0.0001 -22.4023 -0.0001
# 4 0.0000 0.0000 -0.0001 23.5747 -0.0001 -5.4646
# 5 -14.6316 1.6678 -22.4023 -0.0001 71.3383 0.0000
# 6 0.0000 0.0000 -0.0001 -5.4646 0.0000 27.3572
#
#
#
# Elastic Compliance Matrix: (Units=1/GPa)
#
#
# Indices 1 2 3 4 5 6 
#
# 1 0.004477 -0.000265 -0.003188 0.000000 -0.000077 0.000000
# 2 -0.000265 0.013292 -0.001641 0.000000 -0.000880 0.000000
# 3 -0.003188 -0.001641 0.013503 0.000000 0.003625 0.000000
# 4 0.000000 0.000000 0.000000 0.044478 0.000000 0.008884
# 5 -0.000077 -0.000880 0.003625 0.000000 0.015161 0.000000
# 6 0.000000 0.000000 0.000000 0.008884 0.000000 0.038328
#
#
# Mechanical properties :
#
#
# Convention : Reuss Voigt Hill
#
# Bulk Modulus (GPa) = 47.42943 71.09010 59.25977
# Shear Modulus (GPa) = 34.14018 48.03348 41.08683
#
# Velocity S-wave (km/s) = 3.61129 4.28353 3.96170
# Velocity P-wave (km/s) = 5.95873 7.18478 6.60028
#
# Compressibility (1/GPa) = 0.02108395
#
# Stress axis : x y z
#
# Youngs Moduli (GPa) = 223.36474 75.23170 74.05827
#
# Poissons Ratio (x) = 0.01995 0.23609
# Poissons Ratio (y) = 0.05924 0.12153
# Poissons Ratio (z) = 0.71207 0.12345
#
# Static dielectric constant tensor:
#      x y z
#    x 2.067710 0.000000 0.054690 
#    y 0.000000 2.087900 0.000000 
#    z 0.054690 0.000000 2.235140 
# 
# From -- ./inp_files/296041.got.cif
#   From: 2010.05.17/outbox.cif.g08.bks.cpg/sg15_149_cif.got.tgz:296041.got - 2010.06.03 18:47:42.
