data_PCOD9287358
_publ_section_title
;
Structure prediction by ZEFSAII (Michael W. Deem and Ramdas Pophale) SiO2 
 PCOD9287358
Probable space group: C 2/C
;
_chemical_formula_sum "Si O2"
_cell_formula_units_Z 60
_cell_length_a 5.309124
_cell_length_b 27.179180
_cell_length_c 22.024581
_cell_angle_alpha 90.000000
_cell_angle_beta 87.525750
_cell_angle_gamma 90.000000
_cell_volume 3175.132130
_symmetry_space_group_name_H-M "C 2/C"
_symmetry_group_IT_number 15
_symmetry_cell_setting 'monoclinic'
loop_
_space_group_symop_operation_xyz
x,y,z
-x,y,1/2-z
-x,-y,-z
x,-y,1/2+z
1/2+x,1/2+y,z
1/2-x,1/2+y,1/2-z
1/2-x,1/2-y,-z
1/2+x,1/2-y,1/2+z
loop_
_atom_site_type_symbol
_atom_site_label
_atom_site_fract_x
_atom_site_fract_y
_atom_site_fract_z
Si Si1 0.023938 0.988070 0.928562
Si Si2 0.852108 0.290160 0.415583
Si Si3 0.027638 0.536836 0.878235
Si Si4 0.376538 0.652316 0.691837
Si Si5 0.740441 0.865001 0.416128
Si Si6 0.773785 0.320306 0.553352
Si Si7 0.500000 0.927718 0.250000
Si Si8 0.295944 0.378491 0.555352
O O1 0.132288 0.932583 0.922286
O O2 0.247590 0.018990 0.895789
O O3 0.749756 0.003195 0.904811
O O4 0.000000 0.000000 0.000000
O O5 0.774293 0.311726 0.351288
O O6 0.762307 0.315684 0.479645
O O7 0.745025 0.235431 0.422455
O O8 0.144128 0.308281 0.416869
O O9 0.037313 0.592608 0.904290
O O10 0.079688 0.539975 0.806208
O O11 0.500000 0.677086 0.750000
O O12 0.574558 0.630133 0.642246
O O13 0.212618 0.608767 0.722086
O O14 0.829814 0.878976 0.481908
O O15 0.516936 0.344542 0.578403
O O16 0.020487 0.353089 0.567050
#
# Coordination Sequence:
#
# PCOD9287358 Si02
#       8
#     8   8   8   8   8   8   4   8
#     4  12  26  39  65  94 130 169 220 272 331 384
#     4  10  22  36  57  94 124 170 205 251 320 389
#     4  12  25  41  60  95 129 169 213 265 328 401
#     4  12  21  37  58  92 131 167 209 254 316 394
#     4  11  22  34  63  87 139 160 204 259 320 393
#     4  10  23  38  63  88 132 164 208 256 320 385
#     4  12  26  38  62  94 130 180 208 264 336 398
#     4  11  23  40  61  93 122 170 210 264 322 375
#
# _framework density 18.896854000000001
#
# number of rings (size 3 to 8) (size 9 to 14) (size 15 to 20)
#    0.000    0.800    5.333    2.000    5.600    1.600 
#    0.000    0.000    0.000    0.000   10.400    0.000 
#    0.000    0.000    0.000    0.000    0.000    0.000 
#
# Total GULP energy -167134.773311 kJ/mol
# GULP energy per Si atom -5571.159110 kJ/mol
# Density = 1.885384 g / cm^3
# Si number density = 18.896854 Si / 1000 Ang^3
#
#
#
# Elastic Constant Matrix: (Units=GPa)
#
#
# Indices 1 2 3 4 5 6 
#
# 1 53.8068 15.1993 12.7748 0.0000 0.2271 0.0000
# 2 15.1993 66.7706 10.5066 0.0000 -1.1192 0.0000
# 3 12.7748 10.5066 85.0283 0.0000 8.0910 0.0000
# 4 0.0000 0.0000 0.0000 20.4912 0.0000 -4.5350
# 5 0.2271 -1.1192 8.0910 0.0000 28.8348 0.0000
# 6 0.0000 0.0000 0.0000 -4.5350 0.0000 22.1551
#
#
#
# Elastic Compliance Matrix: (Units=1/GPa)
#
#
# Indices 1 2 3 4 5 6 
#
# 1 0.020390 -0.004229 -0.002579 0.000000 0.000399 0.000000
# 2 -0.004229 0.016188 -0.001467 0.000000 0.001073 0.000000
# 3 -0.002579 -0.001467 0.012671 0.000000 -0.003592 0.000000
# 4 0.000000 0.000000 0.000000 0.051117 0.000000 0.010463
# 5 0.000399 0.001073 -0.003592 0.000000 0.035727 0.000000
# 6 0.000000 0.000000 0.000000 0.010463 0.000000 0.047278
#
#
# Mechanical properties :
#
#
# Convention : Reuss Voigt Hill
#
# Bulk Modulus (GPa) = 30.58121 31.39634 30.98877
# Shear Modulus (GPa) = 23.71672 25.43788 24.57730
#
# Velocity S-wave (km/s) = 3.54653 3.67296 3.61030
# Velocity P-wave (km/s) = 5.74359 5.88542 5.81494
#
# Compressibility (1/GPa) = 0.03269982
#
# Stress axis : x y z
#
# Youngs Moduli (GPa) = 49.04312 61.77353 78.91825
#
# Poissons Ratio (x) = 0.26124 0.20352
# Poissons Ratio (y) = 0.20741 0.11578
# Poissons Ratio (z) = 0.12648 0.09062
#
# Static dielectric constant tensor:
#      x y z
#    x 1.802440 0.000000 0.038920 
#    y 0.000000 1.753970 0.000000 
#    z 0.038920 0.000000 1.634060 
# 
# From -- ./inp_files/228466.got.cif
#   From: 2010.05.17/outbox.cif.g08.bks.cpg/sg15_115_cif.got.tgz:228466.got - 2010.06.03 18:47:42.
