data_PCOD9287428
_publ_section_title
;
Structure prediction by ZEFSAII (Michael W. Deem and Ramdas Pophale) SiO2 
 PCOD9287428
Probable space group: C 2/C
;
_chemical_formula_sum "Si O2"
_cell_formula_units_Z 40
_cell_length_a 5.173568
_cell_length_b 22.378761
_cell_length_c 13.622496
_cell_angle_alpha 90.000000
_cell_angle_beta 86.563054
_cell_angle_gamma 90.000000
_cell_volume 1574.349150
_symmetry_space_group_name_H-M "C 2/C"
_symmetry_group_IT_number 15
_symmetry_cell_setting 'monoclinic'
loop_
_space_group_symop_operation_xyz
x,y,z
-x,y,1/2-z
-x,-y,-z
x,-y,1/2+z
1/2+x,1/2+y,z
1/2-x,1/2+y,1/2-z
1/2-x,1/2-y,-z
1/2+x,1/2-y,1/2+z
loop_
_atom_site_type_symbol
_atom_site_label
_atom_site_fract_x
_atom_site_fract_y
_atom_site_fract_z
Si Si1 0.453947 0.474544 0.137100
Si Si2 0.000000 0.676641 0.250000
Si Si3 0.279376 0.375863 0.481413
Si Si4 0.643562 0.594565 0.141752
Si Si5 0.742314 0.793930 0.309891
Si Si6 0.500000 0.000000 0.000000
O O1 0.500000 0.468449 0.250000
O O2 0.516106 0.411850 0.090185
O O3 0.672278 0.525495 0.097337
O O4 0.190734 0.499009 0.098861
O O5 0.117422 0.635048 0.332087
O O6 0.211611 0.722754 0.202100
O O7 0.444780 0.371416 0.576542
O O8 0.211779 0.317163 0.421315
O O9 0.054699 0.425392 0.489056
O O10 0.500000 0.584656 0.250000
O O11 0.500000 0.812346 0.250000
O O12 0.000000 0.817679 0.250000
#
# Coordination Sequence:
#
# PCOD9287428 Si02
#       6
#     8   4   8   8   8   4
#     4  10  23  40  64 102 141 192 238 303 375 448
#     4  10  24  46  72  94 144 192 254 302 364 424
#     4  11  24  41  68 104 146 190 244 295 381 436
#     4  10  22  42  64  99 142 187 245 304 363 439
#     4  10  25  48  74 106 144 189 251 308 361 438
#     4  10  22  36  60  98 144 180 238 284 366 444
#
# _framework density 25.407326000000001
#
# number of rings (size 3 to 8) (size 9 to 14) (size 15 to 20)
#    0.600    1.200    0.000    3.600    5.600   10.400 
#    0.000    2.000    0.000    0.000    0.000    0.000 
#    0.000    0.000    0.000    0.000    0.000    0.000 
#
# Total GULP energy -111440.693100 kJ/mol
# GULP energy per Si atom -5572.034655 kJ/mol
# Density = 2.534950 g / cm^3
# Si number density = 25.407326 Si / 1000 Ang^3
#
#
#
# Elastic Constant Matrix: (Units=GPa)
#
#
# Indices 1 2 3 4 5 6 
#
# 1 131.0638 26.2151 38.8654 0.0000 54.0031 0.0000
# 2 26.2151 117.3260 56.4516 0.0000 14.3416 0.0000
# 3 38.8654 56.4516 191.6214 0.0000 49.4053 0.0000
# 4 0.0000 0.0000 0.0000 53.6043 0.0000 -5.1580
# 5 54.0031 14.3416 49.4053 0.0000 47.3650 0.0000
# 6 0.0000 0.0000 0.0000 -5.1580 0.0000 -8.2561
#
#
#
# Elastic Compliance Matrix: (Units=1/GPa)
#
#
# Indices 1 2 3 4 5 6 
#
# 1 0.015368 -0.002295 0.002596 0.000000 -0.019534 0.000000
# 2 -0.002295 0.010274 -0.003329 0.000000 0.002978 0.000000
# 3 0.002596 -0.003329 0.008448 0.000000 -0.010763 0.000000
# 4 0.000000 0.000000 0.000000 0.017597 0.000000 -0.010994
# 5 -0.019534 0.002978 -0.010763 0.000000 0.053710 0.000000
# 6 0.000000 0.000000 0.000000 -0.010994 0.000000 -0.114254
#
#
# Mechanical properties :
#
#
# Convention : Reuss Voigt Hill
#
# Bulk Modulus (GPa) = 35.67200 75.89726 55.78463
# Shear Modulus (GPa) = 764.05036 39.77457 401.91246
#
# Velocity S-wave (km/s) = 17.36011 3.96090 12.59091
# Velocity P-wave (km/s) = 20.39367 7.13130 15.27673
#
# Compressibility (1/GPa) = 0.02803319
#
# Stress axis : x y z
#
# Youngs Moduli (GPa) = 65.06990 97.33551 118.37160
#
# Poissons Ratio (x) = 0.22337 -0.30724
# Poissons Ratio (y) = 0.14932 0.39406
# Poissons Ratio (z) = -0.16889 0.32403
#
# Static dielectric constant tensor:
#      x y z
#    x 2.299520 0.000000 -0.208400 
#    y 0.000000 2.001690 0.000000 
#    z -0.208400 0.000000 2.050980 
# 
# From -- ./inp_files/129193.got.cif
#   From: 2010.05.17/outbox.cif.g08.bks.cpg/sg15_65_cif.got.tgz:129193.got - 2010.06.03 18:47:42.
