data_PCOD9287132
_publ_section_title
;
Structure prediction by ZEFSAII (Michael W. Deem and Ramdas Pophale) SiO2 
 PCOD9287132
Probable space group: C 2/C
;
_chemical_formula_sum "Si O2"
_cell_formula_units_Z 40
_cell_length_a 12.623895
_cell_length_b 6.856575
_cell_length_c 18.470401
_cell_angle_alpha 90.000000
_cell_angle_beta 102.006039
_cell_angle_gamma 90.000000
_cell_volume 1563.765367
_symmetry_space_group_name_H-M "C 2/C"
_symmetry_group_IT_number 15
_symmetry_cell_setting 'monoclinic'
loop_
_space_group_symop_operation_xyz
x,y,z
-x,y,1/2-z
-x,-y,-z
x,-y,1/2+z
1/2+x,1/2+y,z
1/2-x,1/2+y,1/2-z
1/2-x,1/2-y,-z
1/2+x,1/2-y,1/2+z
loop_
_atom_site_type_symbol
_atom_site_label
_atom_site_fract_x
_atom_site_fract_y
_atom_site_fract_z
Si Si1 0.282488 0.121449 0.173066
Si Si2 0.083059 0.122448 0.705750
Si Si3 0.069299 0.919655 0.443366
Si Si4 0.103946 0.345998 0.428736
Si Si5 0.142931 0.396505 0.060782
O O1 0.365377 0.193939 0.245783
O O2 0.235567 0.315608 0.126644
O O3 0.179422 0.014743 0.193088
O O4 0.337844 0.974141 0.124127
O O5 0.000000 0.023081 0.750000
O O6 0.009035 0.173513 0.626857
O O7 0.137987 0.759651 0.494175
O O8 0.119690 0.116262 0.418346
O O9 0.000000 0.000000 0.500000
O O10 0.146506 0.404255 0.515392
O O11 0.973855 0.384054 0.415540
#
# Coordination Sequence:
#
# PCOD9287132 Si02
#       5
#     8   8   8   8   8
#     4  12  27  47  75 110 149 207 252 304 398 452
#     4  12  29  49  70 111 157 194 256 320 371 457
#     4  10  21  48  77 106 149 193 250 318 370 440
#     4  10  22  42  78 108 147 194 248 314 379 450
#     4  10  22  47  75 115 149 187 255 318 372 459
#
# _framework density 25.579287999999998
#
# number of rings (size 3 to 8) (size 9 to 14) (size 15 to 20)
#    0.000    1.200    4.000    1.800    2.800    7.200 
#    0.000    0.000    0.000    0.000    0.000    0.000 
#    0.000    0.000    0.000    0.000    0.000    0.000 
#
# Total GULP energy -112082.611535 kJ/mol
# GULP energy per Si atom -5604.130577 kJ/mol
# Density = 2.552107 g / cm^3
# Si number density = 25.579288 Si / 1000 Ang^3
#
#
#
# Elastic Constant Matrix: (Units=GPa)
#
#
# Indices 1 2 3 4 5 6 
#
# 1 185.5004 53.8711 63.9530 0.0000 -18.1937 0.0000
# 2 53.8711 118.3778 35.8083 0.0000 -11.1503 0.0000
# 3 63.9530 35.8083 128.0977 0.0000 9.1044 0.0000
# 4 0.0000 0.0000 0.0000 33.8544 0.0000 -6.7578
# 5 -18.1937 -11.1503 9.1044 0.0000 60.5209 0.0000
# 6 0.0000 0.0000 0.0000 -6.7578 0.0000 42.8324
#
#
#
# Elastic Compliance Matrix: (Units=1/GPa)
#
#
# Indices 1 2 3 4 5 6 
#
# 1 0.007357 -0.002153 -0.003235 0.000000 0.002302 0.000000
# 2 -0.002153 0.010132 -0.001864 0.000000 0.001500 0.000000
# 3 -0.003235 -0.001864 0.010145 0.000000 -0.002842 0.000000
# 4 0.000000 0.000000 0.000000 0.030499 0.000000 0.004812
# 5 0.002302 0.001500 -0.002842 0.000000 0.017919 0.000000
# 6 0.000000 0.000000 0.000000 0.004812 0.000000 0.024106
#
#
# Mechanical properties :
#
#
# Convention : Reuss Voigt Hill
#
# Bulk Modulus (GPa) = 76.15878 82.13785 79.14831
# Shear Modulus (GPa) = 42.00332 45.99777 44.00054
#
# Velocity S-wave (km/s) = 4.05666 4.24517 4.15198
# Velocity P-wave (km/s) = 7.19585 7.49729 7.34812
#
# Compressibility (1/GPa) = 0.01313046
#
# Stress axis : x y z
#
# Youngs Moduli (GPa) = 135.92581 98.69337 98.57406
#
# Poissons Ratio (x) = 0.21246 0.31887
# Poissons Ratio (y) = 0.29261 0.18377
# Poissons Ratio (z) = 0.43969 0.18399
#
# Static dielectric constant tensor:
#      x y z
#    x 2.101390 0.000000 0.000620 
#    y 0.000000 2.078680 0.000000 
#    z 0.000620 0.000000 1.972330 
# 
# From -- ./inp_files/195247.got.cif
#   From: 2010.05.17/outbox.cif.g08.bks.cpg/sg15_98_cif.got.tgz:195247.got - 2010.06.03 18:47:42.
