data_PCOD9287941
_publ_section_title
;
Structure prediction by ZEFSAII (Michael W. Deem and Ramdas Pophale) SiO2 
 PCOD9287941
Probable space group: C 2/C
;
_chemical_formula_sum "Si O2"
_cell_formula_units_Z 60
_cell_length_a 23.040646
_cell_length_b 5.082697
_cell_length_c 26.000769
_cell_angle_alpha 90.000000
_cell_angle_beta 103.171396
_cell_angle_gamma 90.000000
_cell_volume 2964.811014
_symmetry_space_group_name_H-M "C 2/C"
_symmetry_group_IT_number 15
_symmetry_cell_setting 'monoclinic'
loop_
_space_group_symop_operation_xyz
x,y,z
-x,y,1/2-z
-x,-y,-z
x,-y,1/2+z
1/2+x,1/2+y,z
1/2-x,1/2+y,1/2-z
1/2-x,1/2-y,-z
1/2+x,1/2-y,1/2+z
loop_
_atom_site_type_symbol
_atom_site_label
_atom_site_fract_x
_atom_site_fract_y
_atom_site_fract_z
Si Si1 0.357694 0.270673 0.868754
Si Si2 0.500000 0.199294 0.750000
Si Si3 0.887284 0.319919 0.717678
Si Si4 0.418023 0.757096 0.834602
Si Si5 0.918613 0.753826 0.979088
Si Si6 0.460911 0.454672 0.150242
Si Si7 0.047920 0.732632 0.955358
Si Si8 0.743309 0.054300 0.283683
O O1 0.398205 0.528673 0.868924
O O2 0.363341 0.206677 0.930126
O O3 0.293778 0.348521 0.833294
O O4 0.386038 0.028172 0.842983
O O5 0.503002 0.375868 0.800798
O O6 0.440601 0.027592 0.735654
O O7 0.893713 0.169448 0.773450
O O8 0.821750 0.438280 0.703782
O O9 0.905097 0.157562 0.670735
O O10 0.489956 0.770106 0.852739
O O11 0.978355 0.704111 0.956996
O O12 0.922207 0.547161 0.026666
O O13 0.924138 0.048792 0.000957
O O14 0.446444 0.638511 0.099442
O O15 0.744445 0.267151 0.237382
#
# Coordination Sequence:
#
# PCOD9287941 Si02
#       8
#     8   4   8   8   8   8   8   8
#     4  12  23  41  66  88 130 167 204 263 309 371
#     4  12  24  40  62  94 132 166 206 248 320 398
#     4  12  25  38  61  94 131 169 210 244 315 391
#     4  12  22  38  63  94 126 168 200 245 323 373
#     4  10  22  38  60  90 120 163 214 258 316 363
#     4  12  25  38  62  96 136 169 200 263 316 388
#     4  10  23  37  60  90 124 160 208 266 311 366
#     4  12  26  42  63  93 128 169 211 257 307 376
#
# _framework density 20.237376999999999
#
# number of rings (size 3 to 8) (size 9 to 14) (size 15 to 20)
#    0.000    0.533    6.667    1.600    7.467    0.000 
#    0.000    0.000    0.000    1.600    0.000    0.000 
#    0.000    0.000    0.000    0.000    0.000    0.000 
#
# Total GULP energy -167740.900445 kJ/mol
# GULP energy per Si atom -5591.363348 kJ/mol
# Density = 2.019132 g / cm^3
# Si number density = 20.237377 Si / 1000 Ang^3
#
#
#
# Elastic Constant Matrix: (Units=GPa)
#
#
# Indices 1 2 3 4 5 6 
#
# 1 89.1635 6.9959 19.3113 0.0000 3.1593 0.0000
# 2 6.9959 57.8586 -9.1043 0.0000 -5.9743 0.0000
# 3 19.3113 -9.1043 82.1523 0.0000 10.4035 0.0000
# 4 0.0000 0.0000 0.0000 12.9584 0.0000 -3.6899
# 5 3.1593 -5.9743 10.4035 0.0000 28.0881 0.0000
# 6 0.0000 0.0000 0.0000 -3.6899 0.0000 9.2071
#
#
#
# Elastic Compliance Matrix: (Units=1/GPa)
#
#
# Indices 1 2 3 4 5 6 
#
# 1 0.012038 -0.001992 -0.002964 0.000000 -0.000680 0.000000
# 2 -0.001992 0.018193 0.002063 0.000000 0.003330 0.000000
# 3 -0.002964 0.002063 0.013640 0.000000 -0.004280 0.000000
# 4 0.000000 0.000000 0.000000 0.087111 0.000000 0.034911
# 5 -0.000680 0.003330 -0.004280 0.000000 0.037972 0.000000
# 6 0.000000 0.000000 0.000000 0.034911 0.000000 0.122602
#
#
# Mechanical properties :
#
#
# Convention : Reuss Voigt Hill
#
# Bulk Modulus (GPa) = 26.25844 29.28670 27.77257
# Shear Modulus (GPa) = 16.12707 24.18216 20.15462
#
# Velocity S-wave (km/s) = 2.82600 3.46052 3.15923
# Velocity P-wave (km/s) = 4.86330 5.51996 5.20200
#
# Compressibility (1/GPa) = 0.03808299
#
# Stress axis : x y z
#
# Youngs Moduli (GPa) = 83.07179 54.96678 73.31412
#
# Poissons Ratio (x) = 0.10950 0.21733
# Poissons Ratio (y) = 0.16549 -0.15123
# Poissons Ratio (z) = 0.24626 -0.11339
#
# Static dielectric constant tensor:
#      x y z
#    x 1.744350 0.000000 -0.028640 
#    y 0.000000 1.758920 0.000000 
#    z -0.028640 0.000000 1.773180 
# 
# From -- ./inp_files/278963.got.cif
#   From: 2010.05.17/outbox.cif.g08.bks.cpg/sg15_140_cif.got.tgz:278963.got - 2010.06.03 18:47:42.
