data_PCOD9287163
_publ_section_title
;
Structure prediction by ZEFSAII (Michael W. Deem and Ramdas Pophale) SiO2 
 PCOD9287163
Probable space group: C 2/C
;
_chemical_formula_sum "Si O2"
_cell_formula_units_Z 60
_cell_length_a 25.428171
_cell_length_b 17.814226
_cell_length_c 8.596848
_cell_angle_alpha 90.000000
_cell_angle_beta 60.952198
_cell_angle_gamma 90.000000
_cell_volume 3404.391879
_symmetry_space_group_name_H-M "C 2/C"
_symmetry_group_IT_number 15
_symmetry_cell_setting 'monoclinic'
loop_
_space_group_symop_operation_xyz
x,y,z
-x,y,1/2-z
-x,-y,-z
x,-y,1/2+z
1/2+x,1/2+y,z
1/2-x,1/2+y,1/2-z
1/2-x,1/2-y,-z
1/2+x,1/2-y,1/2+z
loop_
_atom_site_type_symbol
_atom_site_label
_atom_site_fract_x
_atom_site_fract_y
_atom_site_fract_z
Si Si1 0.699439 0.462429 0.288373
Si Si2 0.000000 0.973676 0.250000
Si Si3 0.543041 0.038203 0.064754
Si Si4 0.203465 0.322186 0.903723
Si Si5 0.674878 0.333820 0.577130
Si Si6 0.777558 0.572485 0.382048
Si Si7 0.375300 0.051017 0.820277
Si Si8 0.584869 0.436285 0.862608
O O1 0.688654 0.401593 0.438098
O O2 0.742635 0.525505 0.299456
O O3 0.638414 0.504506 0.325232
O O4 0.733750 0.425872 0.093097
O O5 0.957020 0.927117 0.426383
O O6 0.956914 0.026057 0.208034
O O7 0.500000 0.080509 0.250000
O O8 0.577068 0.975321 0.118209
O O9 0.592748 0.077387 0.885253
O O10 0.500000 0.000000 0.000000
O O11 0.270419 0.322638 0.880300
O O12 0.206154 0.348966 0.721283
O O13 0.172814 0.242570 0.981929
O O14 0.166599 0.385207 0.050210
O O15 0.616376 0.361255 0.754481
O O16 0.835768 0.522957 0.340282
#
# Coordination Sequence:
#
# PCOD9287163 Si02
#       8
#     8   4   8   8   8   8   8   8
#     4  12  19  34  60  86 116 150 185 238 289 343
#     4  10  22  32  64  90 104 148 222 236 274 328
#     4   9  19  31  53  81 104 135 190 241 267 306
#     4  11  23  36  56  89 118 155 181 230 309 359
#     4  11  23  38  56  85 126 150 181 239 307 348
#     4  12  19  32  59  90 109 149 195 228 286 355
#     4  11  17  33  57  80 107 145 188 236 267 344
#     4  11  19  37  59  88 112 151 197 251 275 339
#
# _framework density 17.624292000000001
#
# number of rings (size 3 to 8) (size 9 to 14) (size 15 to 20)
#    0.000    1.067    8.000    0.000    0.000    0.533 
#    0.000    0.000    5.867    0.000    0.000    0.000 
#    0.000    0.000    0.000    0.000    0.000    0.000 
#
# Total GULP energy -167319.700426 kJ/mol
# GULP energy per Si atom -5577.323348 kJ/mol
# Density = 1.758418 g / cm^3
# Si number density = 17.624292 Si / 1000 Ang^3
#
#
#
# Elastic Constant Matrix: (Units=GPa)
#
#
# Indices 1 2 3 4 5 6 
#
# 1 85.8114 16.7694 12.9202 0.0000 -3.6547 0.0000
# 2 16.7694 67.2443 20.8611 0.0000 -5.2450 0.0000
# 3 12.9202 20.8611 149.6287 0.0000 -16.9230 0.0000
# 4 0.0000 0.0000 0.0000 20.3419 0.0000 2.4941
# 5 -3.6547 -5.2450 -16.9230 0.0000 24.2370 0.0000
# 6 0.0000 0.0000 0.0000 2.4941 0.0000 13.0693
#
#
#
# Elastic Compliance Matrix: (Units=1/GPa)
#
#
# Indices 1 2 3 4 5 6 
#
# 1 0.012329 -0.002830 -0.000574 0.000000 0.000846 0.000000
# 2 -0.002830 0.016284 -0.001819 0.000000 0.001827 0.000000
# 3 -0.000574 -0.001819 0.007526 0.000000 0.004775 0.000000
# 4 0.000000 0.000000 0.000000 0.050337 0.000000 -0.009606
# 5 0.000846 0.001827 0.004775 0.000000 0.045116 0.000000
# 6 0.000000 0.000000 0.000000 -0.009606 0.000000 0.078348
#
#
# Mechanical properties :
#
#
# Convention : Reuss Voigt Hill
#
# Bulk Modulus (GPa) = 38.92373 44.86508 41.89440
# Shear Modulus (GPa) = 21.83851 28.33855 25.08853
#
# Velocity S-wave (km/s) = 3.52392 4.01425 3.77705
# Velocity P-wave (km/s) = 6.22018 6.85545 6.54553
#
# Compressibility (1/GPa) = 0.02569127
#
# Stress axis : x y z
#
# Youngs Moduli (GPa) = 81.10904 61.41032 132.86415
#
# Poissons Ratio (x) = 0.17382 0.07631
# Poissons Ratio (y) = 0.22958 0.24172
# Poissons Ratio (z) = 0.04658 0.11172
#
# Static dielectric constant tensor:
#      x y z
#    x 1.608810 0.000000 -0.014490 
#    y 0.000000 1.571990 0.000000 
#    z -0.014490 0.000000 1.664910 
# 
# From -- ./inp_files/56664.got.cif
#   From: 2010.05.17/outbox.cif.g08.bks.cpg/sg15_29_cif.got.tgz:56664.got - 2010.06.03 18:47:42.
