data_PCOD9287885
_publ_section_title
;
Structure prediction by ZEFSAII (Michael W. Deem and Ramdas Pophale) SiO2 
 PCOD9287885
Probable space group: C 2/C
;
_chemical_formula_sum "Si O2"
_cell_formula_units_Z 60
_cell_length_a 25.872167
_cell_length_b 5.474416
_cell_length_c 23.670396
_cell_angle_alpha 90.000000
_cell_angle_beta 112.565974
_cell_angle_gamma 90.000000
_cell_volume 3095.879132
_symmetry_space_group_name_H-M "C 2/C"
_symmetry_group_IT_number 15
_symmetry_cell_setting 'monoclinic'
loop_
_space_group_symop_operation_xyz
x,y,z
-x,y,1/2-z
-x,-y,-z
x,-y,1/2+z
1/2+x,1/2+y,z
1/2-x,1/2+y,1/2-z
1/2-x,1/2-y,-z
1/2+x,1/2-y,1/2+z
loop_
_atom_site_type_symbol
_atom_site_label
_atom_site_fract_x
_atom_site_fract_y
_atom_site_fract_z
Si Si1 0.562117 0.757853 0.483026
Si Si2 0.625769 0.984178 0.667679
Si Si3 0.060405 0.821242 0.855263
Si Si4 0.000000 0.462529 0.750000
Si Si5 0.047770 0.138307 0.687767
Si Si6 0.245897 0.413742 0.713618
Si Si7 0.137226 0.211242 0.278411
Si Si8 0.570646 0.263723 0.551537
O O1 0.580497 0.745717 0.425676
O O2 0.583044 0.517927 0.525374
O O3 0.494306 0.733628 0.456329
O O4 0.576994 0.020094 0.515850
O O5 0.572647 0.801981 0.648158
O O6 0.682650 0.877561 0.665300
O O7 0.639937 0.046136 0.739523
O O8 0.608262 0.211317 0.621850
O O9 0.018592 0.623864 0.810102
O O10 0.109567 0.811061 0.828877
O O11 0.016401 0.047575 0.844936
O O12 0.047359 0.293023 0.745408
O O13 0.092644 0.934827 0.721369
O O14 0.247094 0.688854 0.739285
O O15 0.299825 0.389853 0.696125
#
# Coordination Sequence:
#
# PCOD9287885 Si02
#       8
#     8   8   8   4   8   8   8   8
#     4  10  24  39  57  85 117 161 196 244 289 350
#     4  11  23  38  62  83 119 157 204 245 294 352
#     4  12  23  36  54  90 125 155 191 237 315 367
#     4  12  20  32  50  86 120 156 178 232 296 382
#     4  12  20  32  54  85 120 152 183 235 300 363
#     4  10  22  38  59  87 120 155 199 247 299 352
#     4  11  21  37  56  91 120 151 190 247 304 366
#     4  10  23  40  59  81 117 157 209 241 282 346
#
# _framework density 19.380600000000001
#
# number of rings (size 3 to 8) (size 9 to 14) (size 15 to 20)
#    0.000    1.067    5.333    1.600    9.333    0.000 
#    0.000    0.000    0.000    1.600    0.000    0.000 
#    0.000    0.000    0.000    0.000    0.000    0.000 
#
# Total GULP energy -167068.867225 kJ/mol
# GULP energy per Si atom -5568.962241 kJ/mol
# Density = 1.933649 g / cm^3
# Si number density = 19.380600 Si / 1000 Ang^3
#
#
#
# Elastic Constant Matrix: (Units=GPa)
#
#
# Indices 1 2 3 4 5 6 
#
# 1 145.0626 36.3749 44.7252 -0.0001 -14.7664 0.0000
# 2 36.3749 53.0376 23.1591 -0.0004 -17.3803 -0.0001
# 3 44.7252 23.1591 91.6855 -0.0001 -32.6373 0.0000
# 4 -0.0001 -0.0004 -0.0001 32.9544 0.0001 -9.6238
# 5 -14.7664 -17.3803 -32.6373 0.0001 23.9691 0.0000
# 6 0.0000 -0.0001 0.0000 -9.6238 0.0000 26.6293
#
#
#
# Elastic Compliance Matrix: (Units=1/GPa)
#
#
# Indices 1 2 3 4 5 6 
#
# 1 0.009389 -0.006022 -0.004957 0.000000 -0.005332 0.000000
# 2 -0.006022 0.028597 0.003445 0.000000 0.021716 0.000000
# 3 -0.004957 0.003445 0.023786 0.000000 0.031832 0.000000
# 4 0.000000 0.000000 0.000000 0.033925 0.000000 0.012261
# 5 -0.005332 0.021716 0.031832 0.000000 0.097526 0.000000
# 6 0.000000 0.000000 0.000000 0.012261 0.000000 0.041984
#
#
# Mechanical properties :
#
#
# Convention : Reuss Voigt Hill
#
# Bulk Modulus (GPa) = 21.41191 55.36713 38.38952
# Shear Modulus (GPa) = 18.80801 29.07901 23.94351
#
# Velocity S-wave (km/s) = 3.11859 3.87773 3.51869
# Velocity P-wave (km/s) = 4.90302 6.97706 6.02988
#
# Compressibility (1/GPa) = 0.04670297
#
# Stress axis : x y z
#
# Youngs Moduli (GPa) = 106.50477 34.96864 42.04133
#
# Poissons Ratio (x) = 0.21059 0.20840
# Poissons Ratio (y) = 0.64140 -0.14482
# Poissons Ratio (z) = 0.52796 -0.12046
#
# Static dielectric constant tensor:
#      x y z
#    x 1.722010 0.000000 -0.015750 
#    y 0.000000 1.795490 0.000000 
#    z -0.015750 0.000000 1.679630 
# 
# From -- ./inp_files/282904.got.cif
#   From: 2010.05.17/outbox.cif.g08.bks.cpg/sg15_142_cif.got.tgz:282904.got - 2010.06.03 18:47:42.
