data_PCOD9287450
_publ_section_title
;
Structure prediction by ZEFSAII (Michael W. Deem and Ramdas Pophale) SiO2 
 PCOD9287450
Probable space group: C 2/C
;
_chemical_formula_sum "Si O2"
_cell_formula_units_Z 32
_cell_length_a 5.143933
_cell_length_b 26.494596
_cell_length_c 10.765579
_cell_angle_alpha 90.000000
_cell_angle_beta 90.754913
_cell_angle_gamma 90.000000
_cell_volume 1467.074942
_symmetry_space_group_name_H-M "C 2/C"
_symmetry_group_IT_number 15
_symmetry_cell_setting 'monoclinic'
loop_
_space_group_symop_operation_xyz
x,y,z
-x,y,1/2-z
-x,-y,-z
x,-y,1/2+z
1/2+x,1/2+y,z
1/2-x,1/2+y,1/2-z
1/2-x,1/2-y,-z
1/2+x,1/2-y,1/2+z
loop_
_atom_site_type_symbol
_atom_site_label
_atom_site_fract_x
_atom_site_fract_y
_atom_site_fract_z
Si Si1 0.468829 0.388651 0.607280
Si Si2 0.500000 0.210907 0.750000
Si Si3 0.500000 0.782692 0.750000
Si Si4 0.971923 0.458058 0.605840
Si Si5 0.300905 0.810178 0.500397
O O1 0.500000 0.370144 0.750000
O O2 0.199638 0.417093 0.588050
O O3 0.542439 0.342718 0.517271
O O4 0.695994 0.430251 0.592133
O O5 0.249402 0.246882 0.729526
O O6 0.557255 0.179094 0.627176
O O7 0.462095 0.816198 0.627826
O O8 0.000000 0.476407 0.750000
O O9 0.000000 0.500000 0.500000
O O10 0.250000 0.750000 0.500000
#
# Coordination Sequence:
#
# PCOD9287450 Si02
#       5
#     8   4   4   8   8
#     4  10  23  39  67  99 126 171 222 260 316 402
#     4  10  22  40  54  90 125 178 223 266 320 362
#     4  10  22  36  62  84 121 180 229 262 314 370
#     4  10  22  44  72  97 126 160 211 272 341 395
#     4  10  23  39  65  90 137 177 222 267 315 377
#
# _framework density 21.812109
#
# number of rings (size 3 to 8) (size 9 to 14) (size 15 to 20)
#    0.000    2.000    0.000    1.500   12.250    4.000 
#    2.250    0.000    0.000    0.000    0.000    0.000 
#    0.000    0.000    0.000    0.000    0.000    0.000 
#
# Total GULP energy -89504.757518 kJ/mol
# GULP energy per Si atom -5594.047345 kJ/mol
# Density = 2.176246 g / cm^3
# Si number density = 21.812109 Si / 1000 Ang^3
#
#
#
# Elastic Constant Matrix: (Units=GPa)
#
#
# Indices 1 2 3 4 5 6 
#
# 1 117.1326 26.3445 38.9337 0.0000 -16.9777 0.0000
# 2 26.3445 97.3051 64.9211 0.0000 -10.9173 0.0000
# 3 38.9337 64.9211 191.7501 0.0000 -27.9533 0.0000
# 4 0.0000 0.0000 0.0000 32.5423 0.0000 -20.1642
# 5 -16.9777 -10.9173 -27.9533 0.0000 36.0369 0.0000
# 6 0.0000 0.0000 0.0000 -20.1642 0.0000 30.6703
#
#
#
# Elastic Compliance Matrix: (Units=1/GPa)
#
#
# Indices 1 2 3 4 5 6 
#
# 1 0.009699 -0.001630 -0.000928 0.000000 0.003355 0.000000
# 2 -0.001630 0.013561 -0.004255 0.000000 0.000040 0.000000
# 3 -0.000928 -0.004255 0.007433 0.000000 0.004039 0.000000
# 4 0.000000 0.000000 0.000000 0.051853 0.000000 0.034091
# 5 0.003355 0.000040 0.004039 0.000000 0.032476 0.000000
# 6 0.000000 0.000000 0.000000 0.034091 0.000000 0.055018
#
#
# Mechanical properties :
#
#
# Convention : Reuss Voigt Hill
#
# Bulk Modulus (GPa) = 58.59170 74.06515 66.32843
# Shear Modulus (GPa) = 26.40537 38.24911 32.32724
#
# Velocity S-wave (km/s) = 3.48312 4.19211 3.85395
# Velocity P-wave (km/s) = 6.56479 7.58033 7.09076
#
# Compressibility (1/GPa) = 0.01706726
#
# Stress axis : x y z
#
# Youngs Moduli (GPa) = 103.10496 73.73820 134.53561
#
# Poissons Ratio (x) = 0.12020 0.12488
# Poissons Ratio (y) = 0.16807 0.57241
# Poissons Ratio (z) = 0.09570 0.31373
#
# Static dielectric constant tensor:
#      x y z
#    x 1.963860 0.000000 -0.008070 
#    y 0.000000 1.817030 0.000000 
#    z -0.008070 0.000000 1.846920 
# 
# From -- ./inp_files/72200.got.cif
#   From: 2010.05.17/outbox.cif.g08.bks.cpg/sg15_37_cif.got.tgz:72200.got - 2010.06.03 18:47:42.
