data_PCOD9287856
_publ_section_title
;
Structure prediction by ZEFSAII (Michael W. Deem and Ramdas Pophale) SiO2 
 PCOD9287856
Probable space group: C 2/C
;
_chemical_formula_sum "Si O2"
_cell_formula_units_Z 48
_cell_length_a 25.112618
_cell_length_b 5.258505
_cell_length_c 18.582079
_cell_angle_alpha 90.000000
_cell_angle_beta 111.974606
_cell_angle_gamma 90.000000
_cell_volume 2275.580287
_symmetry_space_group_name_H-M "C 2/C"
_symmetry_group_IT_number 15
_symmetry_cell_setting 'monoclinic'
loop_
_space_group_symop_operation_xyz
x,y,z
-x,y,1/2-z
-x,-y,-z
x,-y,1/2+z
1/2+x,1/2+y,z
1/2-x,1/2+y,1/2-z
1/2-x,1/2-y,-z
1/2+x,1/2-y,1/2+z
loop_
_atom_site_type_symbol
_atom_site_label
_atom_site_fract_x
_atom_site_fract_y
_atom_site_fract_z
Si Si1 0.500000 0.424456 0.750000
Si Si2 0.391161 0.130841 0.636487
Si Si3 0.185164 0.506093 0.770492
Si Si4 0.677726 0.502672 0.677284
Si Si5 0.975575 0.727363 0.113716
Si Si6 0.905900 0.893817 0.494246
Si Si7 0.500000 0.000000 0.500000
O O1 0.443784 0.261777 0.705447
O O2 0.490156 0.601906 0.814411
O O3 0.339676 0.069566 0.663529
O O4 0.382032 0.300798 0.559933
O O5 0.418536 0.866519 0.623903
O O6 0.254407 0.509709 0.806390
O O7 0.166498 0.237206 0.726409
O O8 0.165539 0.735938 0.709353
O O9 0.641723 0.525271 0.586158
O O10 0.007306 0.492548 0.093943
O O11 0.952742 0.878658 0.031438
O O12 0.940941 0.662647 0.478382
#
# Coordination Sequence:
#
# PCOD9287856 Si02
#       7
#     4   8   8   8   8   8   4
#     4  10  22  38  58  90 126 166 214 260 326 390
#     4  10  23  40  62  92 129 167 215 268 327 390
#     4  10  24  44  67  96 127 173 221 273 322 388
#     4  10  24  44  67  96 129 168 226 269 326 385
#     4  10  22  39  56  90 124 165 213 262 324 391
#     4  10  23  39  63  92 130 166 214 268 325 390
#     4  10  22  38  58  92 126 164 212 262 322 388
#
# _framework density 21.093519000000001
#
# number of rings (size 3 to 8) (size 9 to 14) (size 15 to 20)
#    0.000    2.000    0.000    1.000   11.667    4.667 
#    0.000    0.833    0.000    0.000    0.000    0.000 
#    0.000    0.000    0.000    0.000    0.000    0.000 
#
# Total GULP energy -133613.195531 kJ/mol
# GULP energy per Si atom -5567.216480 kJ/mol
# Density = 2.104551 g / cm^3
# Si number density = 21.093519 Si / 1000 Ang^3
#
#
#
# Elastic Constant Matrix: (Units=GPa)
#
#
# Indices 1 2 3 4 5 6 
#
# 1 51.2463 -5.3487 17.8566 -0.0002 -23.3491 0.0000
# 2 -5.3487 45.7966 6.0480 -0.0006 10.3391 0.0000
# 3 17.8566 6.0480 103.8295 0.0000 13.1800 -0.0001
# 4 -0.0002 -0.0006 0.0000 18.5857 0.0003 -0.2328
# 5 -23.3491 10.3391 13.1800 0.0003 28.3447 -0.0002
# 6 0.0000 0.0000 -0.0001 -0.2328 -0.0002 7.4359
#
#
#
# Elastic Compliance Matrix: (Units=1/GPa)
#
#
# Indices 1 2 3 4 5 6 
#
# 1 0.042760 -0.002854 -0.012531 0.000000 0.042091 0.000001
# 2 -0.002854 0.023995 0.000534 0.000001 -0.011351 0.000000
# 3 -0.012531 0.000534 0.013911 0.000000 -0.016985 0.000000
# 4 0.000000 0.000001 0.000000 0.053826 -0.000001 0.001685
# 5 0.042091 -0.011351 -0.016985 -0.000001 0.081991 0.000001
# 6 0.000001 0.000000 0.000000 0.001685 0.000001 0.134536
#
#
# Mechanical properties :
#
#
# Convention : Reuss Voigt Hill
#
# Bulk Modulus (GPa) = 19.62131 26.44269 23.03200
# Shear Modulus (GPa) = 12.57203 23.02767 17.79985
#
# Velocity S-wave (km/s) = 2.44399 3.30766 2.90807
# Velocity P-wave (km/s) = 4.15769 5.21063 4.71365
#
# Compressibility (1/GPa) = 0.05096500
#
# Stress axis : x y z
#
# Youngs Moduli (GPa) = 23.38648 41.67607 71.88460
#
# Poissons Ratio (x) = 0.11893 0.90076
# Poissons Ratio (y) = 0.06674 -0.03839
# Poissons Ratio (z) = 0.29305 -0.02226
#
# Static dielectric constant tensor:
#      x y z
#    x 0.851110 -0.000040 0.336410 
#    y -0.000040 -1.149220 0.000020 
#    z 0.336410 0.000020 1.617870 
# 
# From -- ./inp_files/217836.got.cif
#   From: 2010.05.17/outbox.cif.g08.bks.cpg/sg15_109_cif.got.tgz:217836.got - 2010.06.03 18:47:42.
