data_PCOD9287695
_publ_section_title
;
Structure prediction by ZEFSAII (Michael W. Deem and Ramdas Pophale) SiO2 
 PCOD9287695
Probable space group: C 2/C
;
_chemical_formula_sum "Si O2"
_cell_formula_units_Z 56
_cell_length_a 13.964636
_cell_length_b 10.987534
_cell_length_c 17.388736
_cell_angle_alpha 90.000000
_cell_angle_beta 115.109292
_cell_angle_gamma 90.000000
_cell_volume 2415.940959
_symmetry_space_group_name_H-M "C 2/C"
_symmetry_group_IT_number 15
_symmetry_cell_setting 'monoclinic'
loop_
_space_group_symop_operation_xyz
x,y,z
-x,y,1/2-z
-x,-y,-z
x,-y,1/2+z
1/2+x,1/2+y,z
1/2-x,1/2+y,1/2-z
1/2-x,1/2-y,-z
1/2+x,1/2-y,1/2+z
loop_
_atom_site_type_symbol
_atom_site_label
_atom_site_fract_x
_atom_site_fract_y
_atom_site_fract_z
Si Si1 0.609176 0.458704 0.330546
Si Si2 0.295810 0.273541 0.249353
Si Si3 0.148985 0.827879 0.943010
Si Si4 0.377669 0.754586 0.545193
Si Si5 0.608241 0.057489 0.318701
Si Si6 0.163539 0.939070 0.106769
Si Si7 0.577275 0.300318 0.616321
O O1 0.500000 0.485501 0.250000
O O2 0.684882 0.390090 0.297732
O O3 0.665154 0.579314 0.379487
O O4 0.587873 0.362294 0.392332
O O5 0.359463 0.165025 0.230432
O O6 0.340450 0.315600 0.345768
O O7 0.172237 0.246446 0.201839
O O8 0.037144 0.763093 0.891622
O O9 0.250000 0.750000 0.000000
O O10 0.124511 0.911217 0.008818
O O11 0.250000 0.750000 0.500000
O O12 0.407084 0.874230 0.604538
O O13 0.411998 0.746493 0.468286
O O14 0.500000 0.002238 0.250000
O O15 0.712454 0.975193 0.356960
O O16 0.101090 0.054124 0.119757
#
# Coordination Sequence:
#
# PCOD9287695 Si02
#       7
#     8   8   8   8   8   8   8
#     4  11  22  40  68  96 129 165 216 263 319 379
#     4  10  22  39  65  98 124 163 211 267 309 384
#     4  12  28  43  61  93 131 177 210 264 324 380
#     4  11  17  38  68  98 124 155 218 268 311 374
#     4  10  22  37  63  95 126 161 206 267 318 363
#     4  11  23  42  66  92 129 166 217 255 321 381
#     4  11  23  41  68  93 125 169 213 266 315 377
#
# _framework density 23.179375
#
# number of rings (size 3 to 8) (size 9 to 14) (size 15 to 20)
#    0.000    1.143    5.714    3.000    4.000    4.571 
#    0.000    0.714    0.000    0.000    0.000    0.000 
#    0.000    0.000    0.000    0.000    0.000    0.000 
#
# Total GULP energy -156696.581623 kJ/mol
# GULP energy per Si atom -5596.306487 kJ/mol
# Density = 2.312662 g / cm^3
# Si number density = 23.179375 Si / 1000 Ang^3
#
#
#
# Elastic Constant Matrix: (Units=GPa)
#
#
# Indices 1 2 3 4 5 6 
#
# 1 76.2489 7.3492 -2.7489 0.0000 37.5074 0.0000
# 2 7.3492 35.9998 8.8386 0.0000 10.3066 0.0000
# 3 -2.7489 8.8386 75.0822 0.0000 21.9428 0.0000
# 4 0.0000 0.0000 0.0000 39.7116 0.0000 10.1930
# 5 37.5074 10.3066 21.9428 0.0000 48.1731 0.0000
# 6 0.0000 0.0000 0.0000 10.1930 0.0000 14.4800
#
#
#
# Elastic Compliance Matrix: (Units=1/GPa)
#
#
# Indices 1 2 3 4 5 6 
#
# 1 0.024395 -0.000427 0.007461 0.000000 -0.022301 0.000000
# 2 -0.000427 0.029831 -0.002029 0.000000 -0.005125 0.000000
# 3 0.007461 -0.002029 0.017767 0.000000 -0.013468 0.000000
# 4 0.000000 0.000000 0.000000 0.030735 0.000000 -0.021635
# 5 -0.022301 -0.005125 -0.013468 0.000000 0.045353 0.000000
# 6 0.000000 0.000000 0.000000 -0.021635 0.000000 0.084291
#
#
# Mechanical properties :
#
#
# Convention : Reuss Voigt Hill
#
# Bulk Modulus (GPa) = 12.19496 23.80097 17.99797
# Shear Modulus (GPa) = 20.02432 32.06574 26.04503
#
# Velocity S-wave (km/s) = 2.94238 3.72341 3.35569
# Velocity P-wave (km/s) = 4.10073 5.36428 4.77449
#
# Compressibility (1/GPa) = 0.08200109
#
# Stress axis : x y z
#
# Youngs Moduli (GPa) = 40.99171 33.52246 56.28504
#
# Poissons Ratio (x) = 0.01432 -0.41994
# Poissons Ratio (y) = 0.01751 0.11423
# Poissons Ratio (z) = -0.30584 0.06803
#
# Static dielectric constant tensor:
#      x y z
#    x 1.900410 0.000000 -0.021790 
#    y 0.000000 1.875480 0.000000 
#    z -0.021790 0.000000 1.873340 
# 
# From -- ./inp_files/204534.got.cif
#   From: 2010.05.17/outbox.cif.g08.bks.cpg/sg15_103_cif.got.tgz:204534.got - 2010.06.03 18:47:42.
