data_PCOD9287939
_publ_section_title
;
Structure prediction by ZEFSAII (Michael W. Deem and Ramdas Pophale) SiO2 
 PCOD9287939
Probable space group: C 2/C
;
_chemical_formula_sum "Si O2"
_cell_formula_units_Z 48
_cell_length_a 11.292609
_cell_length_b 13.919081
_cell_length_c 17.196513
_cell_angle_alpha 90.000000
_cell_angle_beta 70.565635
_cell_angle_gamma 90.000000
_cell_volume 2548.987187
_symmetry_space_group_name_H-M "C 2/C"
_symmetry_group_IT_number 15
_symmetry_cell_setting 'monoclinic'
loop_
_space_group_symop_operation_xyz
x,y,z
-x,y,1/2-z
-x,-y,-z
x,-y,1/2+z
1/2+x,1/2+y,z
1/2-x,1/2+y,1/2-z
1/2-x,1/2-y,-z
1/2+x,1/2-y,1/2+z
loop_
_atom_site_type_symbol
_atom_site_label
_atom_site_fract_x
_atom_site_fract_y
_atom_site_fract_z
Si Si1 0.367433 0.528454 0.969195
Si Si2 0.391481 0.258656 0.497654
Si Si3 0.609447 0.059784 0.932255
Si Si4 0.424325 0.257410 0.186941
Si Si5 0.640502 0.452329 0.369242
Si Si6 0.633178 0.048965 0.265790
O O1 0.398992 0.627229 0.010574
O O2 0.243358 0.542194 0.945592
O O3 0.494390 0.514873 0.891378
O O4 0.343576 0.450009 0.040804
O O5 0.250000 0.250000 0.500000
O O6 0.415918 0.174564 0.554411
O O7 0.478323 0.238030 0.404209
O O8 0.621077 0.019036 0.843282
O O9 0.500000 0.000000 0.000000
O O10 0.500000 0.278127 0.250000
O O11 0.348926 0.350122 0.175579
O O12 0.348303 0.159966 0.214887
O O13 0.749705 0.517845 0.311689
O O14 0.500000 0.045313 0.250000
#
# Coordination Sequence:
#
# PCOD9287939 Si02
#       6
#     8   8   8   8   8   8
#     4   9  21  39  62  89 117 162 199 249 298 364
#     4   9  19  34  61  90 113 152 204 244 287 356
#     4  11  20  36  63  92 121 156 202 244 303 359
#     4  10  22  38  60  90 117 157 206 252 291 355
#     4  10  22  39  63  85 123 153 203 248 303 352
#     4  11  24  38  62  89 122 159 201 257 300 355
#
# _framework density 18.831008000000001
#
# number of rings (size 3 to 8) (size 9 to 14) (size 15 to 20)
#    0.000    2.000    1.667    1.000   14.000    0.000 
#    0.000    0.833   11.000    1.000    0.000    0.000 
#    0.000    0.000    0.000    0.000    0.000    0.000 
#
# Total GULP energy -133741.122886 kJ/mol
# GULP energy per Si atom -5572.546787 kJ/mol
# Density = 1.878815 g / cm^3
# Si number density = 18.831008 Si / 1000 Ang^3
#
#
#
# Elastic Constant Matrix: (Units=GPa)
#
#
# Indices 1 2 3 4 5 6 
#
# 1 89.8871 36.1826 33.6364 0.0000 -21.2970 0.0000
# 2 36.1826 107.6009 34.7352 0.0000 2.9712 0.0000
# 3 33.6364 34.7352 75.3507 0.0000 -5.9864 0.0000
# 4 0.0000 0.0000 0.0000 30.1340 0.0000 2.1737
# 5 -21.2970 2.9712 -5.9864 0.0000 42.1456 0.0000
# 6 0.0000 0.0000 0.0000 2.1737 0.0000 25.0701
#
#
#
# Elastic Compliance Matrix: (Units=1/GPa)
#
#
# Indices 1 2 3 4 5 6 
#
# 1 0.016502 -0.004223 -0.004787 0.000000 0.007956 0.000000
# 2 -0.004223 0.012094 -0.003972 0.000000 -0.003551 0.000000
# 3 -0.004787 -0.003972 0.017264 0.000000 0.000313 0.000000
# 4 0.000000 0.000000 0.000000 0.033394 0.000000 -0.002895
# 5 0.007956 -0.003551 0.000313 0.000000 0.028043 0.000000
# 6 0.000000 0.000000 0.000000 -0.002895 0.000000 0.040139
#
#
# Mechanical properties :
#
#
# Convention : Reuss Voigt Hill
#
# Bulk Modulus (GPa) = 50.26454 53.54968 51.90711
# Shear Modulus (GPa) = 27.77282 30.68892 29.23087
#
# Velocity S-wave (km/s) = 3.84454 4.04134 3.94416
# Velocity P-wave (km/s) = 6.81599 7.09050 6.95460
#
# Compressibility (1/GPa) = 0.01989474
#
# Stress axis : x y z
#
# Youngs Moduli (GPa) = 60.60012 82.68569 57.92330
#
# Poissons Ratio (x) = 0.34920 0.27730
# Poissons Ratio (y) = 0.25593 0.23007
# Poissons Ratio (z) = 0.29011 0.32842
#
# Static dielectric constant tensor:
#      x y z
#    x 1.641500 0.000000 -0.012950 
#    y 0.000000 1.718900 0.000000 
#    z -0.012950 0.000000 1.655370 
# 
# From -- ./inp_files/143468.got.cif
#   From: 2010.05.17/outbox.cif.g08.bks.cpg/sg15_72_cif.got.tgz:143468.got - 2010.06.03 18:47:42.
