data_PCOD9287709
_publ_section_title
;
Structure prediction by ZEFSAII (Michael W. Deem and Ramdas Pophale) SiO2 
 PCOD9287709
Probable space group: C 2/C
;
_chemical_formula_sum "Si O2"
_cell_formula_units_Z 64
_cell_length_a 17.668097
_cell_length_b 11.893482
_cell_length_c 20.433447
_cell_angle_alpha 90.000000
_cell_angle_beta 46.012920
_cell_angle_gamma 90.000000
_cell_volume 3089.363923
_symmetry_space_group_name_H-M "C 2/C"
_symmetry_group_IT_number 15
_symmetry_cell_setting 'monoclinic'
loop_
_space_group_symop_operation_xyz
x,y,z
-x,y,1/2-z
-x,-y,-z
x,-y,1/2+z
1/2+x,1/2+y,z
1/2-x,1/2+y,1/2-z
1/2-x,1/2-y,-z
1/2+x,1/2-y,1/2+z
loop_
_atom_site_type_symbol
_atom_site_label
_atom_site_fract_x
_atom_site_fract_y
_atom_site_fract_z
Si Si1 0.707117 0.091101 0.138583
Si Si2 0.855724 0.741156 0.621401
Si Si3 0.742962 0.044253 0.975074
Si Si4 0.522666 0.851004 0.561049
Si Si5 0.131318 0.461298 0.308922
Si Si6 0.063643 0.241603 0.297191
Si Si7 0.073423 0.779156 0.154748
Si Si8 0.830717 0.190730 0.400021
O O1 0.789585 0.185670 0.111460
O O2 0.610064 0.166456 0.171072
O O3 0.688531 0.015016 0.212742
O O4 0.736487 0.020956 0.056852
O O5 0.959694 0.704522 0.519743
O O6 0.807957 0.623332 0.678237
O O7 0.879927 0.808948 0.672878
O O8 0.824340 0.147380 0.921196
O O9 0.785977 0.933465 0.915577
O O10 0.631346 0.083870 0.013609
O O11 0.515681 0.759034 0.623148
O O12 0.428011 0.938286 0.619562
O O13 0.048187 0.372386 0.327326
O O14 0.141403 0.242114 0.188288
O O15 0.949994 0.187617 0.356345
O O16 0.000000 0.843205 0.250000
O O17 0.750000 0.250000 0.500000
#
# Coordination Sequence:
#
# PCOD9287709 Si02
#       8
#     8   8   8   8   8   8   8   8
#     4  11  20  42  60  94 126 157 207 258 308 372
#     4  10  22  41  59  89 135 153 199 260 305 375
#     4  11  23  35  69  88 123 164 205 259 318 348
#     4  11  19  40  63  94 119 161 209 257 303 373
#     4  10  22  37  64  89 118 168 205 247 314 360
#     4   9  24  42  59  90 128 159 206 264 296 367
#     4  11  21  36  62  94 120 155 210 265 304 355
#     4  11  22  43  65  90 122 166 219 254 307 377
#
# _framework density 20.716239000000002
#
# number of rings (size 3 to 8) (size 9 to 14) (size 15 to 20)
#    0.750    0.750    3.750    2.625    1.750    4.000 
#    2.250    0.625    0.000    0.000    0.000    0.000 
#    0.000    0.000    0.000    0.000    0.000    0.000 
#
# Total GULP energy -178272.408463 kJ/mol
# GULP energy per Si atom -5571.012764 kJ/mol
# Density = 2.066909 g / cm^3
# Si number density = 20.716239 Si / 1000 Ang^3
#
#
#
# Elastic Constant Matrix: (Units=GPa)
#
#
# Indices 1 2 3 4 5 6 
#
# 1 36.4765 -6.8637 14.2544 0.0000 15.7849 0.0000
# 2 -6.8637 32.9113 -1.0046 0.0000 -3.5812 0.0000
# 3 14.2544 -1.0046 105.5098 0.0000 16.3691 0.0000
# 4 0.0000 0.0000 0.0000 27.9783 0.0000 5.4586
# 5 15.7849 -3.5812 16.3691 0.0000 30.4701 0.0000
# 6 0.0000 0.0000 0.0000 5.4586 0.0000 14.6943
#
#
#
# Elastic Compliance Matrix: (Units=1/GPa)
#
#
# Indices 1 2 3 4 5 6 
#
# 1 0.036812 0.005738 -0.002252 0.000000 -0.017186 0.000000
# 2 0.005738 0.031681 -0.000644 0.000000 0.001097 0.000000
# 3 -0.002252 -0.000644 0.010480 0.000000 -0.004539 0.000000
# 4 0.000000 0.000000 0.000000 0.038535 0.000000 -0.014315
# 5 -0.017186 0.001097 -0.004539 0.000000 0.044289 0.000000
# 6 0.000000 0.000000 0.000000 -0.014315 0.000000 0.073371
#
#
# Mechanical properties :
#
#
# Convention : Reuss Voigt Hill
#
# Bulk Modulus (GPa) = 11.81232 20.85222 16.33227
# Shear Modulus (GPa) = 19.40217 25.86264 22.63240
#
# Velocity S-wave (km/s) = 3.06366 3.53714 3.30888
# Velocity P-wave (km/s) = 4.26955 5.17390 4.74333
#
# Compressibility (1/GPa) = 0.08465740
#
# Stress axis : x y z
#
# Youngs Moduli (GPa) = 27.16520 31.56455 95.41854
#
# Poissons Ratio (x) = -0.18113 0.21492
# Poissons Ratio (y) = -0.15588 0.06143
# Poissons Ratio (z) = 0.06119 0.02032
#
# Static dielectric constant tensor:
#      x y z
#    x 1.765920 0.000000 0.035380 
#    y 0.000000 1.761290 0.000000 
#    z 0.035380 0.000000 1.807600 
# 
# From -- ./inp_files/252547.got.cif
#   From: 2010.05.17/outbox.cif.g08.bks.cpg/sg15_127_cif.got.tgz:252547.got - 2010.06.03 18:47:42.
