data_PCOD9287451
_publ_section_title
;
Structure prediction by ZEFSAII (Michael W. Deem and Ramdas Pophale) SiO2 
 PCOD9287451
Probable space group: C 2/C
;
_chemical_formula_sum "Si O2"
_cell_formula_units_Z 32
_cell_length_a 12.373193
_cell_length_b 11.547988
_cell_length_c 9.555621
_cell_angle_alpha 90.000000
_cell_angle_beta 97.204947
_cell_angle_gamma 90.000000
_cell_volume 1354.578486
_symmetry_space_group_name_H-M "C 2/C"
_symmetry_group_IT_number 15
_symmetry_cell_setting 'monoclinic'
loop_
_space_group_symop_operation_xyz
x,y,z
-x,y,1/2-z
-x,-y,-z
x,-y,1/2+z
1/2+x,1/2+y,z
1/2-x,1/2+y,1/2-z
1/2-x,1/2-y,-z
1/2+x,1/2-y,1/2+z
loop_
_atom_site_type_symbol
_atom_site_label
_atom_site_fract_x
_atom_site_fract_y
_atom_site_fract_z
Si Si1 0.848087 0.584490 0.540791
Si Si2 0.444157 0.141922 0.093498
Si Si3 0.465283 0.369359 0.962729
Si Si4 0.674935 0.303769 0.817775
O O1 0.973482 0.610923 0.520393
O O2 0.777904 0.630826 0.398736
O O3 0.811231 0.664359 0.665924
O O4 0.844309 0.446971 0.561752
O O5 0.500000 0.114291 0.250000
O O6 0.430851 0.280390 0.079707
O O7 0.576953 0.326170 0.909940
O O8 0.370065 0.352135 0.833724
O O9 0.500000 0.500000 0.000000
#
# Coordination Sequence:
#
# PCOD9287451 Si02
#       4
#     8   8   8   8
#     4   9  20  39  61  89 114 154 194 249 303 353
#     4  10  22  36  62  89 119 149 200 253 292 350
#     4  10  22  39  60  83 120 162 196 242 297 357
#     4   9  20  40  62  82 118 158 196 240 306 360
#
# _framework density 23.623583
#
# number of rings (size 3 to 8) (size 9 to 14) (size 15 to 20)
#    0.000    2.500    0.000    0.000   14.000    2.000 
#    9.000    2.500    0.000    0.000    0.000    0.000 
#    0.000    0.000    0.000    0.000    0.000    0.000 
#
# Total GULP energy -89214.539499 kJ/mol
# GULP energy per Si atom -5575.908719 kJ/mol
# Density = 2.356982 g / cm^3
# Si number density = 23.623583 Si / 1000 Ang^3
#
#
#
# Elastic Constant Matrix: (Units=GPa)
#
#
# Indices 1 2 3 4 5 6 
#
# 1 57.0996 36.5999 -0.2705 0.0000 12.8615 0.0000
# 2 36.5999 202.3264 59.1816 0.0000 16.4827 0.0000
# 3 -0.2705 59.1816 55.8398 0.0000 20.8723 0.0000
# 4 0.0000 0.0000 0.0000 12.5321 0.0000 -1.5937
# 5 12.8615 16.4827 20.8723 0.0000 32.2640 0.0000
# 6 0.0000 0.0000 0.0000 -1.5937 0.0000 22.8110
#
#
#
# Elastic Compliance Matrix: (Units=1/GPa)
#
#
# Indices 1 2 3 4 5 6 
#
# 1 0.025818 -0.007444 0.013769 0.000000 -0.015397 0.000000
# 2 -0.007444 0.009377 -0.012256 0.000000 0.006106 0.000000
# 3 0.013769 -0.012256 0.040460 0.000000 -0.025402 0.000000
# 4 0.000000 0.000000 0.000000 0.080511 0.000000 0.005625
# 5 -0.015397 0.006106 -0.025402 0.000000 0.050446 0.000000
# 6 0.000000 0.000000 0.000000 0.005625 0.000000 0.044232
#
#
# Mechanical properties :
#
#
# Convention : Reuss Voigt Hill
#
# Bulk Modulus (GPa) = 15.67567 56.25422 35.96494
# Shear Modulus (GPa) = 17.60768 28.17172 22.88970
#
# Velocity S-wave (km/s) = 2.73306 3.45704 3.11615
# Velocity P-wave (km/s) = 4.07547 6.30867 5.31078
#
# Compressibility (1/GPa) = 0.06379314
#
# Stress axis : x y z
#
# Youngs Moduli (GPa) = 38.73301 106.64886 24.71606
#
# Poissons Ratio (x) = 0.79385 -0.34032
# Poissons Ratio (y) = 0.28831 0.30292
# Poissons Ratio (z) = -0.53333 1.30709
#
# Static dielectric constant tensor:
#      x y z
#    x 1.917850 0.000000 -0.013610 
#    y 0.000000 2.132450 0.000000 
#    z -0.013610 0.000000 1.862490 
# 
# From -- ./inp_files/93418.got.cif
#   From: 2010.05.17/outbox.cif.g08.bks.cpg/sg15_47_cif.got.tgz:93418.got - 2010.06.03 18:47:42.
