data_PCOD9287162
_publ_section_title
;
Structure prediction by ZEFSAII (Michael W. Deem and Ramdas Pophale) SiO2 
 PCOD9287162
Probable space group: C 2/C
;
_chemical_formula_sum "Si O2"
_cell_formula_units_Z 44
_cell_length_a 19.263361
_cell_length_b 16.909028
_cell_length_c 8.635283
_cell_angle_alpha 90.000000
_cell_angle_beta 134.724492
_cell_angle_gamma 90.000000
_cell_volume 1998.437584
_symmetry_space_group_name_H-M "C 2/C"
_symmetry_group_IT_number 15
_symmetry_cell_setting 'monoclinic'
loop_
_space_group_symop_operation_xyz
x,y,z
-x,y,1/2-z
-x,-y,-z
x,-y,1/2+z
1/2+x,1/2+y,z
1/2-x,1/2+y,1/2-z
1/2-x,1/2-y,-z
1/2+x,1/2-y,1/2+z
loop_
_atom_site_type_symbol
_atom_site_label
_atom_site_fract_x
_atom_site_fract_y
_atom_site_fract_z
Si Si1 0.272106 0.332880 0.654496
Si Si2 0.577649 0.565438 0.554854
Si Si3 0.190398 0.954155 0.533085
Si Si4 0.899083 0.229127 0.076100
Si Si5 0.500000 0.040738 0.250000
Si Si6 0.631452 0.941235 0.224549
O O1 0.196475 0.276862 0.629643
O O2 0.354980 0.295841 0.674786
O O3 0.201994 0.380503 0.424393
O O4 0.323562 0.388062 0.859950
O O5 0.500000 0.500000 0.500000
O O6 0.619019 0.525127 0.466230
O O7 0.662410 0.569763 0.817333
O O8 0.566550 0.656156 0.479922
O O9 0.298290 0.987906 0.721296
O O10 0.000000 0.277949 0.250000
O O11 0.570115 0.087949 0.479406
O O12 0.562093 0.982766 0.239153
#
# Coordination Sequence:
#
# PCOD9287162 Si02
#       6
#     8   8   8   8   4   8
#     4  11  24  42  67  95 134 181 217 281 348 407
#     4  12  23  39  68 102 130 173 230 279 324 402
#     4  12  21  39  67  94 130 166 226 279 329 396
#     4  11  25  44  65  94 138 180 222 275 352 402
#     4  10  22  32  62  92 126 160 224 272 324 396
#     4  11  20  38  59  96 123 168 217 276 328 397
#
# _framework density 22.017199999999999
#
# number of rings (size 3 to 8) (size 9 to 14) (size 15 to 20)
#    0.000    0.727    5.455    2.727    1.273    0.727 
#    0.000    0.000    8.000    0.000    0.000    0.000 
#    0.000    0.000    0.000    0.000    0.000    0.000 
#
# Total GULP energy -122623.566896 kJ/mol
# GULP energy per Si atom -5573.798495 kJ/mol
# Density = 2.196709 g / cm^3
# Si number density = 22.017200 Si / 1000 Ang^3
#
#
#
# Elastic Constant Matrix: (Units=GPa)
#
#
# Indices 1 2 3 4 5 6 
#
# 1 83.6599 -8.2795 2.4084 0.0000 21.7742 0.0000
# 2 -8.2795 38.6101 0.1321 0.0000 1.0889 0.0000
# 3 2.4084 0.1321 120.1010 0.0000 -16.1692 0.0000
# 4 0.0000 0.0000 0.0000 21.6523 0.0000 2.2324
# 5 21.7742 1.0889 -16.1692 0.0000 38.6502 0.0000
# 6 0.0000 0.0000 0.0000 2.2324 0.0000 26.1612
#
#
#
# Elastic Compliance Matrix: (Units=1/GPa)
#
#
# Indices 1 2 3 4 5 6 
#
# 1 0.014675 0.003406 -0.001509 0.000000 -0.008994 0.000000
# 2 0.003406 0.026713 -0.000485 0.000000 -0.002874 0.000000
# 3 -0.001509 -0.000485 0.008979 0.000000 0.004620 0.000000
# 4 0.000000 0.000000 0.000000 0.046594 0.000000 -0.003976
# 5 -0.008994 -0.002874 0.004620 0.000000 0.032954 0.000000
# 6 0.000000 0.000000 0.000000 -0.003976 0.000000 0.038564
#
#
# Mechanical properties :
#
#
# Convention : Reuss Voigt Hill
#
# Bulk Modulus (GPa) = 18.80019 25.65477 22.22748
# Shear Modulus (GPa) = 27.26506 33.83343 30.54924
#
# Velocity S-wave (km/s) = 3.52284 3.92431 3.72898
# Velocity P-wave (km/s) = 5.01045 5.67547 5.35330
#
# Compressibility (1/GPa) = 0.05319097
#
# Stress axis : x y z
#
# Youngs Moduli (GPa) = 68.14489 37.43499 111.36952
#
# Poissons Ratio (x) = -0.12749 0.16805
# Poissons Ratio (y) = -0.23208 0.05397
# Poissons Ratio (z) = 0.10283 0.01814
#
# Static dielectric constant tensor:
#      x y z
#    x 1.814170 0.000000 0.052790 
#    y 0.000000 1.886590 0.000000 
#    z 0.052790 0.000000 1.825770 
# 
# From -- ./inp_files/39314.got.cif
#   From: 2010.05.17/outbox.cif.g08.bks.cpg/sg15_20_cif.got.tgz:39314.got - 2010.06.03 18:47:42.
