data_PCOD9287073
_publ_section_title
;
Structure prediction by ZEFSAII (Michael W. Deem and Ramdas Pophale) SiO2 
 PCOD9287073
Probable space group: C 2/C
;
_chemical_formula_sum "Si O2"
_cell_formula_units_Z 52
_cell_length_a 9.709544
_cell_length_b 11.401442
_cell_length_c 21.110905
_cell_angle_alpha 90.000000
_cell_angle_beta 55.357092
_cell_angle_gamma 90.000000
_cell_volume 1922.705252
_symmetry_space_group_name_H-M "C 2/C"
_symmetry_group_IT_number 15
_symmetry_cell_setting 'monoclinic'
loop_
_space_group_symop_operation_xyz
x,y,z
-x,y,1/2-z
-x,-y,-z
x,-y,1/2+z
1/2+x,1/2+y,z
1/2-x,1/2+y,1/2-z
1/2-x,1/2-y,-z
1/2+x,1/2-y,1/2+z
loop_
_atom_site_type_symbol
_atom_site_label
_atom_site_fract_x
_atom_site_fract_y
_atom_site_fract_z
Si Si1 0.991953 0.332620 0.554274
Si Si2 0.000000 0.478817 0.750000
Si Si3 0.191508 0.544838 0.501665
Si Si4 0.255276 0.826451 0.315495
Si Si5 0.258202 0.714301 0.191483
Si Si6 0.927217 0.071124 0.832745
Si Si7 0.999663 0.131010 0.476772
O O1 0.954346 0.383612 0.494351
O O2 0.818283 0.285588 0.628473
O O3 0.075065 0.210456 0.512949
O O4 0.100648 0.433133 0.558716
O O5 0.130972 0.571333 0.684777
O O6 0.125423 0.384651 0.749699
O O7 0.305748 0.494785 0.413524
O O8 0.302457 0.634533 0.512590
O O9 0.341415 0.775975 0.229765
O O10 0.088224 0.886873 0.330130
O O11 0.166553 0.814057 0.172549
O O12 0.393616 0.652641 0.112859
O O13 0.000000 0.008185 0.750000
O O14 0.000000 0.000000 0.500000
#
# Coordination Sequence:
#
# PCOD9287073 Si02
#       7
#     8   4   8   8   8   8   8
#     4  11  26  46  66 111 140 184 240 296 359 438
#     4  12  24  46  70 106 140 186 240 296 368 416
#     4  11  25  44  72  99 145 188 235 298 361 430
#     4  11  26  43  74 101 139 186 241 292 362 434
#     4  11  24  47  71 103 146 186 244 303 354 434
#     4  10  21  46  70 100 138 189 235 294 358 424
#     4  12  26  45  73 100 144 191 237 299 367 435
#
# _framework density 27.045227000000001
#
# number of rings (size 3 to 8) (size 9 to 14) (size 15 to 20)
#    0.000    0.923    3.846    3.231    4.308    6.154 
#    2.769    0.000    0.000    0.000    0.000    0.000 
#    0.000    0.000    0.000    0.000    0.000    0.000 
#
# Total GULP energy -145247.191599 kJ/mol
# GULP energy per Si atom -5586.430446 kJ/mol
# Density = 2.698367 g / cm^3
# Si number density = 27.045227 Si / 1000 Ang^3
#
#
#
# Elastic Constant Matrix: (Units=GPa)
#
#
# Indices 1 2 3 4 5 6 
#
# 1 76.2703 38.5957 -5.0509 0.0000 -7.6480 0.0000
# 2 38.5957 127.7531 27.8417 0.0000 2.6394 0.0000
# 3 -5.0509 27.8417 110.8454 0.0000 2.4664 0.0000
# 4 0.0000 0.0000 0.0000 45.6185 0.0000 -10.1324
# 5 -7.6480 2.6394 2.4664 0.0000 20.1728 0.0000
# 6 0.0000 0.0000 0.0000 -10.1324 0.0000 49.9054
#
#
#
# Elastic Compliance Matrix: (Units=1/GPa)
#
#
# Indices 1 2 3 4 5 6 
#
# 1 0.016798 -0.005660 0.002034 0.000000 0.006860 0.000000
# 2 -0.005660 0.010202 -0.002750 0.000000 -0.003144 0.000000
# 3 0.002034 -0.002750 0.009807 0.000000 -0.000068 0.000000
# 4 0.000000 0.000000 0.000000 0.022956 0.000000 0.004661
# 5 0.006860 -0.003144 -0.000068 0.000000 0.052592 0.000000
# 6 0.000000 0.000000 0.000000 0.004661 0.000000 0.020984
#
#
# Mechanical properties :
#
#
# Convention : Reuss Voigt Hill
#
# Bulk Modulus (GPa) = 41.57193 48.62685 45.09939
# Shear Modulus (GPa) = 32.44443 40.03817 36.24130
#
# Velocity S-wave (km/s) = 3.46733 3.85179 3.66461
# Velocity P-wave (km/s) = 5.60665 6.14822 5.88367
#
# Compressibility (1/GPa) = 0.02405470
#
# Stress axis : x y z
#
# Youngs Moduli (GPa) = 59.53044 98.02059 101.97187
#
# Poissons Ratio (x) = 0.55480 -0.20746
# Poissons Ratio (y) = 0.33694 0.28047
# Poissons Ratio (z) = -0.12111 0.26960
#
# Static dielectric constant tensor:
#      x y z
#    x 2.492530 0.000000 -0.006410 
#    y 0.000000 2.233880 0.000000 
#    z -0.006410 0.000000 2.165360 
# 
# From -- ./inp_files/269201.got.cif
#   From: 2010.05.17/outbox.cif.g08.bks.cpg/sg15_135_cif.got.tgz:269201.got - 2010.06.03 18:47:42.
