data_PCOD9287804
_publ_section_title
;
Structure prediction by ZEFSAII (Michael W. Deem and Ramdas Pophale) SiO2 
 PCOD9287804
Probable space group: C 2/C
;
_chemical_formula_sum "Si O2"
_cell_formula_units_Z 60
_cell_length_a 19.408620
_cell_length_b 29.742436
_cell_length_c 13.716595
_cell_angle_alpha 90.000000
_cell_angle_beta 157.513566
_cell_angle_gamma 90.000000
_cell_volume 3028.369308
_symmetry_space_group_name_H-M "C 2/C"
_symmetry_group_IT_number 15
_symmetry_cell_setting 'monoclinic'
loop_
_space_group_symop_operation_xyz
x,y,z
-x,y,1/2-z
-x,-y,-z
x,-y,1/2+z
1/2+x,1/2+y,z
1/2-x,1/2+y,1/2-z
1/2-x,1/2-y,-z
1/2+x,1/2-y,1/2+z
loop_
_atom_site_type_symbol
_atom_site_label
_atom_site_fract_x
_atom_site_fract_y
_atom_site_fract_z
Si Si1 0.388250 0.020710 0.205187
Si Si2 0.000000 0.064205 0.750000
Si Si3 0.727326 0.368516 0.674074
Si Si4 0.213204 0.149950 0.544749
Si Si5 0.651320 0.266954 0.085855
Si Si6 0.293072 0.720067 0.461657
Si Si7 0.062057 0.569995 0.615872
Si Si8 0.277956 0.314391 0.644739
O O1 0.500000 0.025437 0.250000
O O2 0.500727 0.048460 0.433535
O O3 0.397894 0.969362 0.255297
O O4 0.176617 0.037140 0.937945
O O5 0.915647 0.097372 0.558899
O O6 0.784881 0.329064 0.672096
O O7 0.659221 0.344298 0.682048
O O8 0.896690 0.398006 0.928063
O O9 0.255223 0.193408 0.665289
O O10 0.273936 0.104416 0.674694
O O11 0.289149 0.157715 0.535438
O O12 0.000000 0.148316 0.250000
O O13 0.749978 0.252230 0.313782
O O14 0.643970 0.222294 0.012380
O O15 0.452609 0.285518 0.842973
O O16 0.250000 0.750000 0.500000
O O17 0.500000 0.708612 0.750000
#
# Coordination Sequence:
#
# PCOD9287804 Si02
#       8
#     8   4   8   8   8   8   8   8
#     4  10  24  47  73 102 133 171 214 277 358 417
#     4  10  22  46  72  98 142 168 214 292 332 416
#     4  10  22  40  65  95 132 170 217 269 325 388
#     4  10  23  40  60  91 125 171 221 273 318 391
#     4  10  22  38  56  88 129 166 221 264 314 374
#     4  11  22  37  60  89 129 177 215 260 319 381
#     4  10  24  44  66 101 131 162 225 276 331 415
#     4  10  22  39  60  87 127 177 215 264 320 376
#
# _framework density 19.812643000000001
#
# number of rings (size 3 to 8) (size 9 to 14) (size 15 to 20)
#    0.000    1.867    0.667    2.000    8.400    2.133 
#    2.400    6.000    0.000    0.000    0.000    0.000 
#    0.000    0.000    0.000    0.000    0.000    0.000 
#
# Total GULP energy -167270.928906 kJ/mol
# GULP energy per Si atom -5575.697630 kJ/mol
# Density = 1.976755 g / cm^3
# Si number density = 19.812643 Si / 1000 Ang^3
#
#
#
# Elastic Constant Matrix: (Units=GPa)
#
#
# Indices 1 2 3 4 5 6 
#
# 1 102.9897 40.4149 37.1145 0.0006 -2.3735 0.0012
# 2 40.4149 118.5310 56.6350 0.0001 -0.8849 0.0002
# 3 37.1145 56.6350 92.1856 0.0025 -7.2303 0.0054
# 4 0.0006 0.0001 0.0025 5.4273 0.0011 -79.0180
# 5 -2.3735 -0.8849 -7.2303 0.0011 23.4112 0.0023
# 6 0.0012 0.0002 0.0054 -79.0180 0.0023 -155.2068
#
#
#
# Elastic Compliance Matrix: (Units=1/GPa)
#
#
# Indices 1 2 3 4 5 6 
#
# 1 0.011857 -0.002499 -0.003230 0.000000 0.000110 0.000000
# 2 -0.002499 0.012548 -0.006852 0.000000 -0.001895 0.000000
# 3 -0.003230 -0.006852 0.016716 0.000000 0.004576 0.000001
# 4 0.000000 0.000000 0.000000 0.021903 0.000000 -0.011151
# 5 0.000110 -0.001895 0.004576 0.000000 0.044067 0.000001
# 6 0.000000 0.000000 0.000001 -0.011151 0.000001 -0.000766
#
#
# Mechanical properties :
#
#
# Convention : Reuss Voigt Hill
#
# Bulk Modulus (GPa) = 62.65367 64.67056 63.66211
# Shear Modulus (GPa) = 36.54796 -13.30419 11.62188
#
# Velocity S-wave (km/s) = 4.29963 -2.59414 2.42459
# Velocity P-wave (km/s) = 7.50605 4.87228 6.32772
#
# Compressibility (1/GPa) = 0.01596076
#
# Stress axis : x y z
#
# Youngs Moduli (GPa) = 84.34039 79.69245 59.82135
#
# Poissons Ratio (x) = 0.19912 0.19322
# Poissons Ratio (y) = 0.21074 0.40988
# Poissons Ratio (z) = 0.27241 0.54604
#
# Static dielectric constant tensor:
#      x y z
#    x 1.737240 0.000000 0.032890 
#    y 0.000000 1.725110 0.000000 
#    z 0.032890 0.000000 1.758780 
# 
# From -- ./inp_files/169948.got.cif
#   From: 2010.05.17/outbox.cif.g08.bks.cpg/sg15_85_cif.got.tgz:169948.got - 2010.06.03 18:47:42.
