data_PCOD9287888
_publ_section_title
;
Structure prediction by ZEFSAII (Michael W. Deem and Ramdas Pophale) SiO2 
 PCOD9287888
Probable space group: C 2/C
;
_chemical_formula_sum "Si O2"
_cell_formula_units_Z 48
_cell_length_a 12.208260
_cell_length_b 21.492371
_cell_length_c 12.701431
_cell_angle_alpha 90.000000
_cell_angle_beta 135.046857
_cell_angle_gamma 90.000000
_cell_volume 2354.617099
_symmetry_space_group_name_H-M "C 2/C"
_symmetry_group_IT_number 15
_symmetry_cell_setting 'monoclinic'
loop_
_space_group_symop_operation_xyz
x,y,z
-x,y,1/2-z
-x,-y,-z
x,-y,1/2+z
1/2+x,1/2+y,z
1/2-x,1/2+y,1/2-z
1/2-x,1/2-y,-z
1/2+x,1/2-y,1/2+z
loop_
_atom_site_type_symbol
_atom_site_label
_atom_site_fract_x
_atom_site_fract_y
_atom_site_fract_z
Si Si1 0.882476 0.908269 0.911721
Si Si2 0.034171 0.590229 0.116249
Si Si3 0.935763 0.808631 0.325849
Si Si4 0.650009 0.203710 0.507446
Si Si5 0.903893 0.017814 0.091061
Si Si6 0.558412 0.948699 0.400831
O O1 0.708586 0.889051 0.762676
O O2 0.982901 0.930265 0.880240
O O3 0.984061 0.859108 0.045749
O O4 0.866423 0.968754 0.974881
O O5 0.008825 0.519088 0.134648
O O6 0.013610 0.587849 0.975678
O O7 0.903446 0.636768 0.072348
O O8 0.752687 0.807544 0.180595
O O9 0.000000 0.818392 0.250000
O O10 0.992597 0.742618 0.409566
O O11 0.750000 0.250000 0.500000
O O12 0.000000 0.985794 0.250000
O O13 0.743406 0.044661 0.023334
O O14 0.500000 0.922483 0.250000
#
# Coordination Sequence:
#
# PCOD9287888 Si02
#       6
#     8   8   8   8   8   8
#     4  11  23  37  62  90 126 168 209 265 312 381
#     4  11  24  40  61  93 131 168 213 260 320 382
#     4  10  22  38  59  88 116 161 200 258 312 368
#     4  10  23  39  60  88 123 161 207 259 314 371
#     4  11  23  39  58  91 128 166 213 255 321 376
#     4  11  24  39  62  93 128 172 208 261 321 387
#
# _framework density 20.385480000000001
#
# number of rings (size 3 to 8) (size 9 to 14) (size 15 to 20)
#    0.000    1.333    3.333    1.500    9.333    3.333 
#    0.000    0.000    0.000    2.000    0.000    0.000 
#    0.000    0.000    0.000    0.000    0.000    0.000 
#
# Total GULP energy -133984.773346 kJ/mol
# GULP energy per Si atom -5582.698889 kJ/mol
# Density = 2.033908 g / cm^3
# Si number density = 20.385480 Si / 1000 Ang^3
#
#
#
# Elastic Constant Matrix: (Units=GPa)
#
#
# Indices 1 2 3 4 5 6 
#
# 1 61.3518 10.1529 26.4294 0.0000 3.1964 0.0000
# 2 10.1529 65.9527 31.3188 0.0000 11.0939 0.0000
# 3 26.4294 31.3188 151.1405 0.0000 17.7342 0.0000
# 4 0.0000 0.0000 0.0000 34.9808 0.0000 7.2700
# 5 3.1964 11.0939 17.7342 0.0000 40.2453 0.0000
# 6 0.0000 0.0000 0.0000 7.2700 0.0000 22.0039
#
#
#
# Elastic Compliance Matrix: (Units=1/GPa)
#
#
# Indices 1 2 3 4 5 6 
#
# 1 0.017744 -0.001424 -0.002835 0.000000 0.000233 0.000000
# 2 -0.001424 0.017350 -0.002951 0.000000 -0.003369 0.000000
# 3 -0.002835 -0.002951 0.008016 0.000000 -0.002494 0.000000
# 4 0.000000 0.000000 0.000000 0.030695 0.000000 -0.010141
# 5 0.000233 -0.003369 -0.002494 0.000000 0.026857 0.000000
# 6 0.000000 0.000000 0.000000 -0.010141 0.000000 0.048797
#
#
# Mechanical properties :
#
#
# Convention : Reuss Voigt Hill
#
# Bulk Modulus (GPa) = 34.85571 46.02746 40.44159
# Shear Modulus (GPa) = 28.82800 33.48226 31.15513
#
# Velocity S-wave (km/s) = 3.76459 4.05712 3.91359
# Velocity P-wave (km/s) = 6.00263 6.67642 6.34847
#
# Compressibility (1/GPa) = 0.02868970
#
# Stress axis : x y z
#
# Youngs Moduli (GPa) = 56.35599 57.63820 124.74818
#
# Poissons Ratio (x) = 0.08211 0.35366
# Poissons Ratio (y) = 0.08028 0.36809
# Poissons Ratio (z) = 0.15977 0.17007
#
# Static dielectric constant tensor:
#      x y z
#    x 1.776640 0.000000 0.015160 
#    y 0.000000 1.746120 0.000000 
#    z 0.015160 0.000000 1.768050 
# 
# From -- ./inp_files/89803.got.cif
#   From: 2010.05.17/outbox.cif.g08.bks.cpg/sg15_45_cif.got.tgz:89803.got - 2010.06.03 18:47:42.
