data_PCOD9287495
_publ_section_title
;
Structure prediction by ZEFSAII (Michael W. Deem and Ramdas Pophale) SiO2 
 PCOD9287495
Probable space group: C 2/C
;
_chemical_formula_sum "Si O2"
_cell_formula_units_Z 36
_cell_length_a 20.527617
_cell_length_b 18.844789
_cell_length_c 7.883683
_cell_angle_alpha 90.000000
_cell_angle_beta 32.344813
_cell_angle_gamma 90.000000
_cell_volume 1631.636989
_symmetry_space_group_name_H-M "C 2/C"
_symmetry_group_IT_number 15
_symmetry_cell_setting 'monoclinic'
loop_
_space_group_symop_operation_xyz
x,y,z
-x,y,1/2-z
-x,-y,-z
x,-y,1/2+z
1/2+x,1/2+y,z
1/2-x,1/2+y,1/2-z
1/2-x,1/2-y,-z
1/2+x,1/2-y,1/2+z
loop_
_atom_site_type_symbol
_atom_site_label
_atom_site_fract_x
_atom_site_fract_y
_atom_site_fract_z
Si Si1 0.809164 0.111547 0.646263
Si Si2 0.548836 0.179818 0.317726
Si Si3 0.898700 0.438960 0.331199
Si Si4 0.500000 0.273514 0.750000
Si Si5 0.734913 0.528570 0.464560
O O1 0.895385 0.175635 0.407871
O O2 0.804055 0.047552 0.522895
O O3 0.854249 0.071948 0.719276
O O4 0.678518 0.145241 0.984690
O O5 0.500000 0.213693 0.250000
O O6 0.549325 0.119772 0.908462
O O7 0.553362 0.227788 0.476552
O O8 0.847671 0.505346 0.339252
O O9 0.782992 0.422127 0.706290
O O10 0.000000 0.455123 0.250000
#
# Coordination Sequence:
#
# PCOD9287495 Si02
#       5
#     8   8   8   4   8
#     4  11  24  43  67  94 128 169 214 269 323 377
#     4  12  24  42  68  98 125 170 219 268 322 373
#     4  11  19  33  63 100 132 157 204 280 335 372
#     4  12  28  48  60  90 136 184 220 250 304 394
#     4  10  22  36  65 100 128 163 210 269 335 382
#
# _framework density 22.063731000000001
#
# number of rings (size 3 to 8) (size 9 to 14) (size 15 to 20)
#    0.000    0.889    5.556    1.333    3.111    1.778 
#    8.000    0.000    0.000    0.000    0.000    0.000 
#    0.000    0.000    0.000    0.000    0.000    0.000 
#
# Total GULP energy -100360.095685 kJ/mol
# GULP energy per Si atom -5575.560871 kJ/mol
# Density = 2.201351 g / cm^3
# Si number density = 22.063731 Si / 1000 Ang^3
#
#
#
# Elastic Constant Matrix: (Units=GPa)
#
#
# Indices 1 2 3 4 5 6 
#
# 1 79.3300 11.7593 17.0246 0.0000 21.7597 0.0000
# 2 11.7593 67.6348 24.3268 0.0000 -5.3661 0.0000
# 3 17.0246 24.3268 26.3242 0.0000 3.3376 0.0001
# 4 0.0000 0.0000 0.0000 1.5749 0.0000 -23.1219
# 5 21.7597 -5.3661 3.3376 0.0000 23.5010 0.0000
# 6 0.0000 0.0000 0.0001 -23.1219 0.0000 0.7951
#
#
#
# Elastic Compliance Matrix: (Units=1/GPa)
#
#
# Indices 1 2 3 4 5 6 
#
# 1 0.019445 -0.001481 -0.009044 0.000000 -0.017058 0.000000
# 2 -0.001481 0.023889 -0.022387 0.000000 0.010006 0.000000
# 3 -0.009044 -0.022387 0.065287 0.000000 -0.006010 0.000000
# 4 0.000000 0.000000 0.000000 -0.001491 0.000000 -0.043351
# 5 -0.017058 0.010006 -0.006010 0.000000 0.061484 0.000000
# 6 0.000000 0.000000 0.000000 -0.043351 0.000000 -0.002953
#
#
# Mechanical properties :
#
#
# Convention : Reuss Voigt Hill
#
# Bulk Modulus (GPa) = 23.36631 31.05672 27.21152
# Shear Modulus (GPa) = 20.34592 13.18608 16.76600
#
# Velocity S-wave (km/s) = 3.03998 2.44731 2.75960
# Velocity P-wave (km/s) = 4.78908 4.70024 4.74487
#
# Compressibility (1/GPa) = 0.04279665
#
# Stress axis : x y z
#
# Youngs Moduli (GPa) = 51.42746 41.86090 15.31705
#
# Poissons Ratio (x) = 0.06201 0.13853
# Poissons Ratio (y) = 0.07618 0.34290
# Poissons Ratio (z) = 0.46510 0.93712
#
# Static dielectric constant tensor:
#      x y z
#    x 1.879640 0.000000 0.004500 
#    y 0.000000 1.800300 0.000000 
#    z 0.004500 0.000000 1.904510 
# 
# From -- ./inp_files/56900.got.cif
#   From: 2010.05.17/outbox.cif.g08.bks.cpg/sg15_29_cif.got.tgz:56900.got - 2010.06.03 18:47:42.
