data_PCOD9287911
_publ_section_title
;
Structure prediction by ZEFSAII (Michael W. Deem and Ramdas Pophale) SiO2 
 PCOD9287911
Probable space group: C 2/C
;
_chemical_formula_sum "Si O2"
_cell_formula_units_Z 24
_cell_length_a 18.952233
_cell_length_b 8.929204
_cell_length_c 5.537061
_cell_angle_alpha 90.000000
_cell_angle_beta 109.275094
_cell_angle_gamma 90.000000
_cell_volume 884.502198
_symmetry_space_group_name_H-M "C 2/C"
_symmetry_group_IT_number 15
_symmetry_cell_setting 'monoclinic'
loop_
_space_group_symop_operation_xyz
x,y,z
-x,y,1/2-z
-x,-y,-z
x,-y,1/2+z
1/2+x,1/2+y,z
1/2-x,1/2+y,1/2-z
1/2-x,1/2-y,-z
1/2+x,1/2-y,1/2+z
loop_
_atom_site_type_symbol
_atom_site_label
_atom_site_fract_x
_atom_site_fract_y
_atom_site_fract_z
Si Si1 0.916132 0.942729 0.961565
Si Si2 0.220946 0.580841 0.973307
Si Si3 0.944285 0.365620 0.364617
O O1 0.918167 0.764099 0.018729
O O2 0.881882 0.975276 0.656766
O O3 0.000000 0.000000 0.000000
O O4 0.241034 0.494356 0.750125
O O5 0.129699 0.582182 0.855743
O O6 0.250000 0.750000 0.000000
O O7 0.000000 0.277433 0.250000
O O8 0.000000 0.500000 0.500000
#
# Coordination Sequence:
#
# PCOD9287911 Si02
#       3
#     8   8   8
#     4  10  22  38  59  97 145 184 227 296 374 437
#     4  12  29  53  80 113 158 214 262 321 396 480
#     4  12  25  44  80 114 154 195 262 324 387 451
#
# _framework density 27.133904999999999
#
# number of rings (size 3 to 8) (size 9 to 14) (size 15 to 20)
#    0.000    0.667    6.667    1.000    4.667    5.333 
#    0.000    0.000    0.000    0.000    0.000    0.000 
#    0.000    0.000    0.000    0.000    0.000    0.000 
#
# Total GULP energy -67161.586217 kJ/mol
# GULP energy per Si atom -5596.798851 kJ/mol
# Density = 2.707215 g / cm^3
# Si number density = 27.133905 Si / 1000 Ang^3
#
#
#
# Elastic Constant Matrix: (Units=GPa)
#
#
# Indices 1 2 3 4 5 6 
#
# 1 135.3432 39.1058 79.8628 0.0000 -0.9986 0.0000
# 2 39.1058 239.4804 103.6789 0.0000 2.8736 0.0000
# 3 79.8628 103.6789 232.5374 0.0000 -0.4576 0.0000
# 4 0.0000 0.0000 0.0000 63.4513 0.0000 0.9834
# 5 -0.9986 2.8736 -0.4576 0.0000 65.7451 0.0000
# 6 0.0000 0.0000 0.0000 0.9834 0.0000 32.6680
#
#
#
# Elastic Compliance Matrix: (Units=1/GPa)
#
#
# Indices 1 2 3 4 5 6 
#
# 1 0.009273 -0.000170 -0.003109 0.000000 0.000127 0.000000
# 2 -0.000170 0.005182 -0.002252 0.000000 -0.000245 0.000000
# 3 -0.003109 -0.002252 0.006372 0.000000 0.000096 0.000000
# 4 0.000000 0.000000 0.000000 0.015767 0.000000 -0.000475
# 5 0.000127 -0.000245 0.000096 0.000000 0.015224 0.000000
# 6 0.000000 0.000000 0.000000 -0.000475 0.000000 0.030625
#
#
# Mechanical properties :
#
#
# Convention : Reuss Voigt Hill
#
# Bulk Modulus (GPa) = 102.40599 116.96176 109.68388
# Shear Modulus (GPa) = 51.67410 58.02046 54.84728
#
# Velocity S-wave (km/s) = 4.36869 4.62919 4.50083
# Velocity P-wave (km/s) = 7.95425 8.47181 8.21711
#
# Compressibility (1/GPa) = 0.00976505
#
# Stress axis : x y z
#
# Youngs Moduli (GPa) = 107.83950 192.99426 156.92486
#
# Poissons Ratio (x) = 0.03278 0.48784
# Poissons Ratio (y) = 0.01832 0.35345
# Poissons Ratio (z) = 0.33525 0.43469
#
# Static dielectric constant tensor:
#      x y z
#    x 2.262690 0.000000 0.013580 
#    y 0.000000 2.055100 0.000000 
#    z 0.013580 0.000000 2.444440 
# 
# From -- ./inp_files/14748.got.cif
#   From: 2010.05.17/outbox.cif.g08.bks.cpg/sg15_8_cif.got.tgz:14748.got - 2010.06.03 18:47:42.
