data_PCOD9287882
_publ_section_title
;
Structure prediction by ZEFSAII (Michael W. Deem and Ramdas Pophale) SiO2 
 PCOD9287882
Probable space group: C 2/C
;
_chemical_formula_sum "Si O2"
_cell_formula_units_Z 64
_cell_length_a 28.524386
_cell_length_b 13.686545
_cell_length_c 9.938091
_cell_angle_alpha 90.000000
_cell_angle_beta 116.733705
_cell_angle_gamma 90.000000
_cell_volume 3465.106251
_symmetry_space_group_name_H-M "C 2/C"
_symmetry_group_IT_number 15
_symmetry_cell_setting 'monoclinic'
loop_
_space_group_symop_operation_xyz
x,y,z
-x,y,1/2-z
-x,-y,-z
x,-y,1/2+z
1/2+x,1/2+y,z
1/2-x,1/2+y,1/2-z
1/2-x,1/2-y,-z
1/2+x,1/2-y,1/2+z
loop_
_atom_site_type_symbol
_atom_site_label
_atom_site_fract_x
_atom_site_fract_y
_atom_site_fract_z
Si Si1 0.437017 0.878115 0.179852
Si Si2 0.653939 0.235127 0.882266
Si Si3 0.860359 0.659922 0.165231
Si Si4 0.061469 0.524271 0.093033
Si Si5 0.175556 0.794893 0.613549
Si Si6 0.294119 0.287714 0.285763
Si Si7 0.710485 0.030057 0.938879
Si Si8 0.218212 0.004527 0.222655
O O1 0.500000 0.865279 0.250000
O O2 0.404158 0.778914 0.131775
O O3 0.422309 0.929075 0.302315
O O4 0.420745 0.949283 0.034868
O O5 0.654161 0.280089 0.735800
O O6 0.676584 0.126552 0.899135
O O7 0.691825 0.285111 0.038779
O O8 0.915664 0.614116 0.287613
O O9 0.831530 0.714732 0.251758
O O10 0.823791 0.567104 0.079600
O O11 0.858812 0.736802 0.040590
O O12 0.000000 0.500000 0.000000
O O13 0.234401 0.747350 0.682191
O O14 0.182674 0.911770 0.609199
O O15 0.304077 0.400071 0.260262
O O16 0.736807 0.018311 0.827996
O O17 0.754039 0.045286 0.109042
#
# Coordination Sequence:
#
# PCOD9287882 Si02
#       8
#     8   8   8   8   8   8   8   8
#     4  10  22  38  59  87 117 149 194 251 314 372
#     4  12  22  36  58  83 119 159 208 244 306 366
#     4  12  22  36  58  83 121 164 210 246 312 373
#     4  10  22  38  59  87 119 151 194 251 312 374
#     4  12  24  36  54  86 116 169 212 246 298 373
#     4  12  22  38  55  82 122 169 211 254 296 372
#     4  12  20  32  55  78 111 164 198 248 284 357
#     4  12  24  36  52  78 122 158 213 250 285 347
#
# _framework density 18.469851999999999
#
# number of rings (size 3 to 8) (size 9 to 14) (size 15 to 20)
#    0.000    0.500    7.500    2.250    1.750    0.000 
#    0.000    0.000    0.000    0.000    0.000    0.875 
#    0.000    0.000    0.000    0.000    0.000    0.000 
#
# Total GULP energy -178506.409938 kJ/mol
# GULP energy per Si atom -5578.325311 kJ/mol
# Density = 1.842781 g / cm^3
# Si number density = 18.469852 Si / 1000 Ang^3
#
#
#
# Elastic Constant Matrix: (Units=GPa)
#
#
# Indices 1 2 3 4 5 6 
#
# 1 48.4614 15.8624 18.6487 0.0000 5.3488 0.0000
# 2 15.8624 61.5794 -4.4377 0.0000 17.4743 0.0000
# 3 18.6487 -4.4377 77.3137 0.0000 5.8988 0.0000
# 4 0.0000 0.0000 0.0000 35.0389 0.0000 -3.7608
# 5 5.3488 17.4743 5.8988 0.0000 25.9230 0.0000
# 6 0.0000 0.0000 0.0000 -3.7608 0.0000 28.2644
#
#
#
# Elastic Compliance Matrix: (Units=1/GPa)
#
#
# Indices 1 2 3 4 5 6 
#
# 1 0.025485 -0.007399 -0.006667 0.000000 0.001246 0.000000
# 2 -0.007399 0.022611 0.004202 0.000000 -0.014671 0.000000
# 3 -0.006667 0.004202 0.015158 0.000000 -0.004906 0.000000
# 4 0.000000 0.000000 0.000000 0.028953 0.000000 0.003852
# 5 0.001246 -0.014671 -0.004906 0.000000 0.049325 0.000000
# 6 0.000000 0.000000 0.000000 0.003852 0.000000 0.035893
#
#
# Mechanical properties :
#
#
# Convention : Reuss Voigt Hill
#
# Bulk Modulus (GPa) = 22.97462 27.50015 25.23739
# Shear Modulus (GPa) = 23.62273 28.33067 25.97670
#
# Velocity S-wave (km/s) = 3.58017 3.92074 3.75432
# Velocity P-wave (km/s) = 5.43656 5.95128 5.69973
#
# Compressibility (1/GPa) = 0.04352629
#
# Stress axis : x y z
#
# Youngs Moduli (GPa) = 39.23921 44.22611 65.97207
#
# Poissons Ratio (x) = 0.32722 0.43983
# Poissons Ratio (y) = 0.29032 -0.27721
# Poissons Ratio (z) = 0.26160 -0.18583
#
# Static dielectric constant tensor:
#      x y z
#    x 1.638870 0.000000 -0.100870 
#    y 0.000000 1.680300 0.000000 
#    z -0.100870 0.000000 1.525770 
# 
# From -- ./inp_files/69959.got.cif
#   From: 2010.05.17/outbox.cif.g08.bks.cpg/sg15_35_cif.got.tgz:69959.got - 2010.06.03 18:47:42.
