data_PCOD9287947
_publ_section_title
;
Structure prediction by ZEFSAII (Michael W. Deem and Ramdas Pophale) SiO2 
 PCOD9287947
Probable space group: C 2/C
;
_chemical_formula_sum "Si O2"
_cell_formula_units_Z 44
_cell_length_a 12.168180
_cell_length_b 22.170605
_cell_length_c 7.238403
_cell_angle_alpha 90.000000
_cell_angle_beta 68.249042
_cell_angle_gamma 90.000000
_cell_volume 1813.717758
_symmetry_space_group_name_H-M "C 2/C"
_symmetry_group_IT_number 15
_symmetry_cell_setting 'monoclinic'
loop_
_space_group_symop_operation_xyz
x,y,z
-x,y,1/2-z
-x,-y,-z
x,-y,1/2+z
1/2+x,1/2+y,z
1/2-x,1/2+y,1/2-z
1/2-x,1/2-y,-z
1/2+x,1/2-y,1/2+z
loop_
_atom_site_type_symbol
_atom_site_label
_atom_site_fract_x
_atom_site_fract_y
_atom_site_fract_z
Si Si1 0.772728 0.355692 0.553122
Si Si2 0.074345 0.906324 0.421057
Si Si3 0.161548 0.676595 0.881605
Si Si4 0.377789 0.306738 0.514314
Si Si5 0.000000 0.000569 0.250000
Si Si6 0.507951 0.928880 0.026454
O O1 0.685106 0.395604 0.482250
O O2 0.832034 0.318142 0.346996
O O3 0.698649 0.320427 0.753011
O O4 0.867453 0.397651 0.597165
O O5 0.995261 0.846960 0.446593
O O6 0.992472 0.951609 0.589858
O O7 0.101594 0.949827 0.228643
O O8 0.095978 0.735679 0.999434
O O9 0.095809 0.615052 0.978497
O O10 0.291481 0.678623 0.894878
O O11 0.500000 0.922482 0.250000
O O12 0.500000 0.000000 0.000000
#
# Coordination Sequence:
#
# PCOD9287947 Si02
#       6
#     8   8   8   8   4   8
#     4  11  23  41  66  95 125 171 208 267 320 379
#     4  11  22  40  62  98 126 166 210 259 324 383
#     4  10  25  44  63  96 128 166 222 265 316 386
#     4  11  23  43  68  93 129 169 210 269 325 384
#     4  10  22  38  60  90 134 160 202 260 314 382
#     4  10  25  44  65  95 128 173 219 270 317 385
#
# _framework density 24.259563
#
# number of rings (size 3 to 8) (size 9 to 14) (size 15 to 20)
#    0.000    1.455    1.818    1.636    2.545   11.636 
#    0.000    3.636    0.000    0.000    0.000    0.000 
#    0.000    0.000    0.000    0.000    0.000    0.000 
#
# Total GULP energy -122741.717657 kJ/mol
# GULP energy per Si atom -5579.168984 kJ/mol
# Density = 2.420435 g / cm^3
# Si number density = 24.259563 Si / 1000 Ang^3
#
#
#
# Elastic Constant Matrix: (Units=GPa)
#
#
# Indices 1 2 3 4 5 6 
#
# 1 87.5934 67.3670 31.7704 0.0000 -3.3740 0.0000
# 2 67.3670 178.2474 25.7115 0.0000 -11.1925 0.0000
# 3 31.7704 25.7115 92.6814 0.0000 17.1775 0.0000
# 4 0.0000 0.0000 0.0000 19.2697 0.0000 20.2223
# 5 -3.3740 -11.1925 17.1775 0.0000 30.7654 0.0000
# 6 0.0000 0.0000 0.0000 20.2223 0.0000 24.8607
#
#
#
# Elastic Compliance Matrix: (Units=1/GPa)
#
#
# Indices 1 2 3 4 5 6 
#
# 1 0.017821 -0.005856 -0.004966 0.000000 0.002596 0.000000
# 2 -0.005856 0.008102 -0.000744 0.000000 0.002721 0.000000
# 3 -0.004966 -0.000744 0.014333 0.000000 -0.008818 0.000000
# 4 0.000000 0.000000 0.000000 0.354563 0.000000 -0.288411
# 5 0.002596 0.002721 -0.008818 0.000000 0.038702 0.000000
# 6 0.000000 0.000000 0.000000 -0.288411 0.000000 0.274825
#
#
# Mechanical properties :
#
#
# Convention : Reuss Voigt Hill
#
# Bulk Modulus (GPa) = 58.39985 67.58003 62.98994
# Shear Modulus (GPa) = 6.78255 30.55739 18.66997
#
# Velocity S-wave (km/s) = 1.67389 3.55294 2.77716
# Velocity P-wave (km/s) = 5.27836 6.68945 6.02535
#
# Compressibility (1/GPa) = 0.01712333
#
# Stress axis : x y z
#
# Youngs Moduli (GPa) = 56.11267 123.43151 69.77093
#
# Poissons Ratio (x) = 0.72283 0.34646
# Poissons Ratio (y) = 0.32860 0.05194
# Poissons Ratio (z) = 0.27863 0.09188
#
# Static dielectric constant tensor:
#      x y z
#    x 1.986660 0.000000 0.018210 
#    y 0.000000 2.017130 0.000000 
#    z 0.018210 0.000000 2.342930 
# 
# From -- ./inp_files/30836.got.cif
#   From: 2010.05.17/outbox.cif.g08.bks.cpg/sg15_16_cif.got.tgz:30836.got - 2010.06.03 18:47:42.
