data_PCOD9287613
_publ_section_title
;
Structure prediction by ZEFSAII (Michael W. Deem and Ramdas Pophale) SiO2 
 PCOD9287613
Probable space group: C 2/C
;
_chemical_formula_sum "Si O2"
_cell_formula_units_Z 44
_cell_length_a 32.563026
_cell_length_b 7.498902
_cell_length_c 26.598342
_cell_angle_alpha 90.000000
_cell_angle_beta 165.171509
_cell_angle_gamma 90.000000
_cell_volume 1662.234306
_symmetry_space_group_name_H-M "C 2/C"
_symmetry_group_IT_number 15
_symmetry_cell_setting 'monoclinic'
loop_
_space_group_symop_operation_xyz
x,y,z
-x,y,1/2-z
-x,-y,-z
x,-y,1/2+z
1/2+x,1/2+y,z
1/2-x,1/2+y,1/2-z
1/2-x,1/2-y,-z
1/2+x,1/2-y,1/2+z
loop_
_atom_site_type_symbol
_atom_site_label
_atom_site_fract_x
_atom_site_fract_y
_atom_site_fract_z
Si Si1 0.000000 0.595613 0.250000
Si Si2 0.782515 0.255325 0.649798
Si Si3 0.999347 0.905754 0.895065
Si Si4 0.855751 0.726363 0.822649
Si Si5 0.185481 0.431029 0.127491
Si Si6 0.910821 0.582306 0.740500
O O1 0.121702 0.706145 0.428457
O O2 0.101352 0.478798 0.330760
O O3 0.754640 0.231207 0.676689
O O4 0.821002 0.447242 0.671635
O O5 0.919186 0.101900 0.800801
O O6 0.960764 0.784250 0.899430
O O7 0.899737 0.791315 0.736049
O O8 0.189754 0.876796 0.112266
O O9 0.913864 0.620292 0.940769
O O10 0.814702 0.922882 0.796565
O O11 0.091427 0.536860 0.972952
#
# Coordination Sequence:
#
# PCOD9287613 Si02
#       6
#     4   8   8   8   8   8
#     4  10  22  44  60  92 120 150 212 272 300 354
#     4  10  22  40  62  85 122 160 203 256 308 358
#     4  10  24  41  60  94 124 161 206 252 298 374
#     4  10  22  37  59  89 130 160 208 244 298 367
#     4   9  22  35  56  91 123 156 202 255 294 359
#     4  10  22  40  62  85 122 160 203 256 308 358
#
# _framework density 26.470396999999998
#
# number of rings (size 3 to 8) (size 9 to 14) (size 15 to 20)
#    0.000    2.182    0.000    1.636    7.636    5.091 
#    0.000    1.818    0.000    0.000    0.000    0.000 
#    0.000    0.000    0.000    0.000    0.000    0.000 
#
# Total GULP energy -122856.332895 kJ/mol
# GULP energy per Si atom -5584.378768 kJ/mol
# Density = 2.641015 g / cm^3
# Si number density = 26.470397 Si / 1000 Ang^3
#
#
#
# Elastic Constant Matrix: (Units=GPa)
#
#
# Indices 1 2 3 4 5 6 
#
# 1 102.4574 13.7192 -3.9126 0.0001 10.7959 0.0003
# 2 13.7192 98.4259 26.3265 0.0002 8.7404 0.0004
# 3 -3.9126 26.3265 90.7909 -0.0002 -2.1457 0.0007
# 4 0.0001 0.0002 -0.0002 31.2300 -0.0001 12.4439
# 5 10.7959 8.7404 -2.1457 -0.0001 30.3652 0.0005
# 6 0.0003 0.0004 0.0007 12.4439 0.0005 -2.7317
#
#
#
# Elastic Compliance Matrix: (Units=1/GPa)
#
#
# Indices 1 2 3 4 5 6 
#
# 1 0.010310 -0.001355 0.000761 0.000000 -0.003222 0.000000
# 2 -0.001355 0.011554 -0.003482 0.000000 -0.003090 0.000000
# 3 0.000761 -0.003482 0.012094 0.000000 0.001586 0.000001
# 4 0.000000 0.000000 0.000000 0.011374 -0.000001 0.051815
# 5 -0.003222 -0.003090 0.001586 -0.000001 0.035080 0.000003
# 6 0.000000 0.000000 0.000001 0.051815 0.000003 -0.130037
#
#
# Mechanical properties :
#
#
# Convention : Reuss Voigt Hill
#
# Bulk Modulus (GPa) = 38.74775 40.43783 39.59279
# Shear Modulus (GPa) = -152.11018 28.80876 -61.65071
#
# Velocity S-wave (km/s) = -7.58874 3.30258 -4.83125
# Velocity P-wave (km/s) = 7.88133 5.46374 4.01640
#
# Compressibility (1/GPa) = 0.02580795
#
# Stress axis : x y z
#
# Youngs Moduli (GPa) = 96.99241 86.54666 82.68403
#
# Poissons Ratio (x) = 0.11723 -0.06292
# Poissons Ratio (y) = 0.13138 0.28789
# Poissons Ratio (z) = -0.07380 0.30134
#
# Static dielectric constant tensor:
#      x y z
#    x 2.056120 0.000000 0.066320 
#    y 0.000000 2.185000 0.000000 
#    z 0.066320 0.000000 2.178610 
# 
# From -- ./inp_files/110105.got.cif
#   From: 2010.05.17/outbox.cif.g08.bks.cpg/sg15_56_cif.got.tgz:110105.got - 2010.06.03 18:47:42.
