data_PCOD9287659
_publ_section_title
;
Structure prediction by ZEFSAII (Michael W. Deem and Ramdas Pophale) SiO2 
 PCOD9287659
Probable space group: C 2/C
;
_chemical_formula_sum "Si O2"
_cell_formula_units_Z 60
_cell_length_a 9.443873
_cell_length_b 20.012839
_cell_length_c 24.857796
_cell_angle_alpha 90.000000
_cell_angle_beta 139.040692
_cell_angle_gamma 90.000000
_cell_volume 3079.706303
_symmetry_space_group_name_H-M "C 2/C"
_symmetry_group_IT_number 15
_symmetry_cell_setting 'monoclinic'
loop_
_space_group_symop_operation_xyz
x,y,z
-x,y,1/2-z
-x,-y,-z
x,-y,1/2+z
1/2+x,1/2+y,z
1/2-x,1/2+y,1/2-z
1/2-x,1/2-y,-z
1/2+x,1/2-y,1/2+z
loop_
_atom_site_type_symbol
_atom_site_label
_atom_site_fract_x
_atom_site_fract_y
_atom_site_fract_z
Si Si1 0.000000 0.586858 0.750000
Si Si2 0.641443 0.896087 0.551732
Si Si3 0.470325 0.636414 0.871269
Si Si4 0.240280 0.547307 0.617520
Si Si5 0.610094 0.010289 0.186824
Si Si6 0.916664 0.134725 0.287831
Si Si7 0.475135 0.771939 0.806857
Si Si8 0.838161 0.624009 0.061809
O O1 0.219847 0.628455 0.812788
O O2 0.015812 0.537996 0.703865
O O3 0.463619 0.904223 0.454436
O O4 0.517904 0.862060 0.566750
O O5 0.874966 0.863056 0.613910
O O6 0.697683 0.973044 0.582353
O O7 0.561054 0.578581 0.857728
O O8 0.507129 0.704473 0.849260
O O9 0.613887 0.630674 0.966418
O O10 0.240415 0.533114 0.680507
O O11 0.769149 0.068594 0.254123
O O12 0.411545 0.050302 0.101785
O O13 0.762169 0.197512 0.251004
O O14 0.000000 0.130202 0.250000
O O15 0.500000 0.763732 0.750000
O O16 0.633154 0.826692 0.879767
#
# Coordination Sequence:
#
# PCOD9287659 Si02
#       8
#     4   8   8   8   8   8   8   8
#     4  12  28  36  58  96 136 158 196 256 316 380
#     4   9  16  33  64  95 110 153 200 248 296 372
#     4  11  25  42  62  86 128 173 197 255 315 370
#     4   9  18  36  61  87 122 154 200 237 310 377
#     4  10  22  37  61  96 121 157 204 251 309 376
#     4  11  19  37  65  89 118 159 202 259 294 354
#     4  11  25  41  63  92 120 163 217 260 301 361
#     4   9  20  42  67  87 118 164 212 252 308 365
#
# _framework density 19.482377
#
# number of rings (size 3 to 8) (size 9 to 14) (size 15 to 20)
#    0.000    1.867    4.000    2.000    6.533    0.533 
#    2.400    0.000    0.000    2.400    0.000    0.000 
#    0.000    0.000    0.000    0.000    0.000    0.000 
#
# Total GULP energy -167329.320325 kJ/mol
# GULP energy per Si atom -5577.644011 kJ/mol
# Density = 1.943803 g / cm^3
# Si number density = 19.482377 Si / 1000 Ang^3
#
#
#
# Elastic Constant Matrix: (Units=GPa)
#
#
# Indices 1 2 3 4 5 6 
#
# 1 54.5439 15.3445 28.5146 -0.0001 3.9763 -0.0001
# 2 15.3445 14.1908 16.6602 0.0000 4.8400 0.0000
# 3 28.5146 16.6602 134.8953 0.0004 14.4104 0.0000
# 4 -0.0001 0.0000 0.0004 8.4764 0.0001 -1.9340
# 5 3.9763 4.8400 14.4104 0.0001 23.5092 0.0000
# 6 -0.0001 0.0000 0.0000 -1.9340 0.0000 24.7618
#
#
#
# Elastic Compliance Matrix: (Units=1/GPa)
#
#
# Indices 1 2 3 4 5 6 
#
# 1 0.027176 -0.027144 -0.002673 0.000001 0.002630 0.000000
# 2 -0.027144 0.112532 -0.006609 0.000000 -0.014526 0.000000
# 3 -0.002673 -0.006609 0.009203 0.000000 -0.003829 0.000000
# 4 0.000001 0.000000 0.000000 0.120114 -0.000001 0.009382
# 5 0.002630 -0.014526 -0.003829 -0.000001 0.047429 0.000000
# 6 0.000000 0.000000 0.000000 0.009382 0.000000 0.041118
#
#
# Mechanical properties :
#
#
# Convention : Reuss Voigt Hill
#
# Bulk Modulus (GPa) = 13.14759 36.07428 24.61093
# Shear Modulus (GPa) = 10.97027 20.89020 15.93024
#
# Velocity S-wave (km/s) = 2.37552 3.27809 2.86260
# Velocity P-wave (km/s) = 3.77985 5.73449 4.85652
#
# Compressibility (1/GPa) = 0.07605956
#
# Stress axis : x y z
#
# Youngs Moduli (GPa) = 36.79746 8.88636 108.65531
#
# Poissons Ratio (x) = 0.24121 0.29044
# Poissons Ratio (y) = 0.99883 0.71807
# Poissons Ratio (z) = 0.09836 0.05873
#
# Static dielectric constant tensor:
#      x y z
#    x 1.680940 0.000000 0.004030 
#    y 0.000000 1.674690 0.000000 
#    z 0.004030 0.000000 1.754180 
# 
# From -- ./inp_files/290131.got.cif
#   From: 2010.05.17/outbox.cif.g08.bks.cpg/sg15_146_cif.got.tgz:290131.got - 2010.06.03 18:47:42.
