data_PCOD9287352
_publ_section_title
;
Structure prediction by ZEFSAII (Michael W. Deem and Ramdas Pophale) SiO2 
 PCOD9287352
Probable space group: C 2/C
;
_chemical_formula_sum "Si O2"
_cell_formula_units_Z 40
_cell_length_a 20.875676
_cell_length_b 12.187946
_cell_length_c 7.983975
_cell_angle_alpha 90.000000
_cell_angle_beta 104.961677
_cell_angle_gamma 90.000000
_cell_volume 1962.509403
_symmetry_space_group_name_H-M "C 2/C"
_symmetry_group_IT_number 15
_symmetry_cell_setting 'monoclinic'
loop_
_space_group_symop_operation_xyz
x,y,z
-x,y,1/2-z
-x,-y,-z
x,-y,1/2+z
1/2+x,1/2+y,z
1/2-x,1/2+y,1/2-z
1/2-x,1/2-y,-z
1/2+x,1/2-y,1/2+z
loop_
_atom_site_type_symbol
_atom_site_label
_atom_site_fract_x
_atom_site_fract_y
_atom_site_fract_z
Si Si1 0.419685 0.626555 0.342224
Si Si2 0.212058 0.143565 0.410473
Si Si3 0.452890 0.619753 0.884632
Si Si4 0.246736 0.410916 0.939812
Si Si5 0.356460 0.255852 0.117921
O O1 0.368465 0.649926 0.156173
O O2 0.499002 0.638837 0.425353
O O3 0.413635 0.495205 0.373335
O O4 0.392103 0.702690 0.473798
O O5 0.250000 0.250000 0.500000
O O6 0.234403 0.122611 0.234908
O O7 0.237380 0.037183 0.525651
O O8 0.500000 0.603333 0.750000
O O9 0.405408 0.719252 0.803212
O O10 0.172871 0.365336 0.917897
O O11 0.294310 0.339386 0.092922
#
# Coordination Sequence:
#
# PCOD9287352 Si02
#       5
#     8   8   8   8   8
#     4   9  18  32  53  85 116 147 191 236 295 341
#     4  11  24  38  59  85 119 154 195 242 289 350
#     4   9  16  31  54  87 116 151 188 245 291 344
#     4  10  22  36  57  84 115 153 196 232 293 347
#     4   9  18  33  55  80 117 152 183 237 288 344
#
# _framework density 20.382066999999999
#
# number of rings (size 3 to 8) (size 9 to 14) (size 15 to 20)
#    0.000    2.400    2.000    0.000    8.400    0.000 
#    3.600    0.000    0.000    1.200    0.000    0.000 
#    0.000    0.000    0.000    0.000    0.000    0.000 
#
# Total GULP energy -111524.901654 kJ/mol
# GULP energy per Si atom -5576.245083 kJ/mol
# Density = 2.033568 g / cm^3
# Si number density = 20.382067 Si / 1000 Ang^3
#
#
#
# Elastic Constant Matrix: (Units=GPa)
#
#
# Indices 1 2 3 4 5 6 
#
# 1 73.0860 43.7056 39.0302 0.0000 26.2683 0.0000
# 2 43.7056 114.0823 68.5723 0.0000 34.2840 0.0000
# 3 39.0302 68.5723 137.0898 0.0000 34.8361 0.0000
# 4 0.0000 0.0000 0.0000 29.2653 0.0000 3.6257
# 5 26.2683 34.2840 34.8361 0.0000 47.7669 0.0000
# 6 0.0000 0.0000 0.0000 3.6257 0.0000 29.7759
#
#
#
# Elastic Compliance Matrix: (Units=1/GPa)
#
#
# Indices 1 2 3 4 5 6 
#
# 1 0.019581 -0.004620 -0.001682 0.000000 -0.006226 0.000000
# 2 -0.004620 0.014887 -0.004986 0.000000 -0.004509 0.000000
# 3 -0.001682 -0.004986 0.011198 0.000000 -0.003663 0.000000
# 4 0.000000 0.000000 0.000000 0.034694 0.000000 -0.004225
# 5 -0.006226 -0.004509 -0.003663 0.000000 0.030266 0.000000
# 6 0.000000 0.000000 0.000000 -0.004225 0.000000 0.034099
#
#
# Mechanical properties :
#
#
# Convention : Reuss Voigt Hill
#
# Bulk Modulus (GPa) = 43.30585 69.65269 56.47927
# Shear Modulus (GPa) = 28.57208 32.89163 30.73185
#
# Velocity S-wave (km/s) = 3.74816 4.02151 3.88724
# Velocity P-wave (km/s) = 6.32651 7.47068 6.92228
#
# Compressibility (1/GPa) = 0.02309157
#
# Stress axis : x y z
#
# Youngs Moduli (GPa) = 51.07014 67.17259 89.30110
#
# Poissons Ratio (x) = 0.31031 0.15021
# Poissons Ratio (y) = 0.23592 0.44522
# Poissons Ratio (z) = 0.08590 0.33489
#
# Static dielectric constant tensor:
#      x y z
#    x 1.868570 0.000000 -0.015830 
#    y 0.000000 1.675830 0.000000 
#    z -0.015830 0.000000 1.799420 
# 
# From -- ./inp_files/60736.got.cif
#   From: 2010.05.17/outbox.cif.g08.bks.cpg/sg15_31_cif.got.tgz:60736.got - 2010.06.03 18:47:42.
