data_PCOD9287697
_publ_section_title
;
Structure prediction by ZEFSAII (Michael W. Deem and Ramdas Pophale) SiO2 
 PCOD9287697
Probable space group: C 2/C
;
_chemical_formula_sum "Si O2"
_cell_formula_units_Z 56
_cell_length_a 18.274572
_cell_length_b 9.703383
_cell_length_c 14.652865
_cell_angle_alpha 90.000000
_cell_angle_beta 58.680109
_cell_angle_gamma 90.000000
_cell_volume 2219.690240
_symmetry_space_group_name_H-M "C 2/C"
_symmetry_group_IT_number 15
_symmetry_cell_setting 'monoclinic'
loop_
_space_group_symop_operation_xyz
x,y,z
-x,y,1/2-z
-x,-y,-z
x,-y,1/2+z
1/2+x,1/2+y,z
1/2-x,1/2+y,1/2-z
1/2-x,1/2-y,-z
1/2+x,1/2-y,1/2+z
loop_
_atom_site_type_symbol
_atom_site_label
_atom_site_fract_x
_atom_site_fract_y
_atom_site_fract_z
Si Si1 0.021782 0.664432 0.843071
Si Si2 0.953371 0.962972 0.684367
Si Si3 0.894736 0.559620 0.468102
Si Si4 0.650374 0.070364 0.217013
Si Si5 0.298376 0.380506 0.080846
Si Si6 0.543922 0.727698 0.912197
Si Si7 0.275864 0.422540 0.880079
O O1 0.099022 0.558543 0.793157
O O2 0.000000 0.675880 0.750000
O O3 0.940998 0.589513 0.939994
O O4 0.040519 0.814941 0.867482
O O5 0.994393 0.092448 0.610075
O O6 0.000000 0.950769 0.750000
O O7 0.853623 0.980588 0.771832
O O8 0.877869 0.590583 0.371216
O O9 0.804271 0.527101 0.573042
O O10 0.963221 0.665060 0.465951
O O11 0.747583 0.013894 0.152967
O O12 0.613109 0.195872 0.299487
O O13 0.391140 0.345215 0.058479
O O14 0.246345 0.236427 0.130537
O O15 0.300956 0.407833 0.970558
#
# Coordination Sequence:
#
# PCOD9287697 Si02
#       7
#     8   8   8   8   8   8   8
#     4   8  15  30  59  90 113 160 217 254 296 377
#     4  11  22  38  66  96 125 169 218 269 316 391
#     4   9  19  39  67  91 124 176 216 266 324 401
#     4   9  17  36  60  90 125 172 213 253 327 390
#     4  10  22  37  63  96 127 165 217 273 311 384
#     4  11  23  38  64  96 136 162 221 275 326 378
#     4  10  22  42  68  90 130 174 222 255 334 396
#
# _framework density 25.228745
#
# number of rings (size 3 to 8) (size 9 to 14) (size 15 to 20)
#    0.000    2.286    1.429    2.143    8.000    0.571 
#    0.000    7.143    3.143    0.000    0.000    0.000 
#    0.000    0.000    0.000    0.000    0.000    0.000 
#
# Total GULP energy -156580.522382 kJ/mol
# GULP energy per Si atom -5592.161514 kJ/mol
# Density = 2.517132 g / cm^3
# Si number density = 25.228745 Si / 1000 Ang^3
#
#
#
# Elastic Constant Matrix: (Units=GPa)
#
#
# Indices 1 2 3 4 5 6 
#
# 1 150.9955 36.7867 36.8500 0.0000 -3.5266 0.0000
# 2 36.7867 141.8401 22.9169 0.0000 -7.0150 0.0000
# 3 36.8500 22.9169 75.7563 0.0000 -35.9229 0.0000
# 4 0.0000 0.0000 0.0000 38.7779 0.0000 5.3846
# 5 -3.5266 -7.0150 -35.9229 0.0000 33.7168 0.0000
# 6 0.0000 0.0000 0.0000 5.3846 0.0000 55.2056
#
#
#
# Elastic Compliance Matrix: (Units=1/GPa)
#
#
# Indices 1 2 3 4 5 6 
#
# 1 0.008499 -0.001422 -0.006918 0.000000 -0.006777 0.000000
# 2 -0.001422 0.007700 -0.001917 0.000000 -0.000589 0.000000
# 3 -0.006918 -0.001917 0.033576 0.000000 0.034651 0.000000
# 4 0.000000 0.000000 0.000000 0.026142 0.000000 -0.002550
# 5 -0.006777 -0.000589 0.034651 0.000000 0.065745 0.000000
# 6 0.000000 0.000000 0.000000 -0.002550 0.000000 0.018363
#
#
# Mechanical properties :
#
#
# Convention : Reuss Voigt Hill
#
# Bulk Modulus (GPa) = 34.17442 62.41100 48.29271
# Shear Modulus (GPa) = 26.27548 43.67596 34.97572
#
# Velocity S-wave (km/s) = 3.23071 4.16528 3.72740
# Velocity P-wave (km/s) = 5.24327 6.92275 6.14070
#
# Compressibility (1/GPa) = 0.02926166
#
# Stress axis : x y z
#
# Youngs Moduli (GPa) = 117.65991 129.87842 29.78306
#
# Poissons Ratio (x) = 0.18465 0.20603
# Poissons Ratio (y) = 0.16728 0.05709
# Poissons Ratio (z) = 0.81395 0.24897
#
# Static dielectric constant tensor:
#      x y z
#    x 2.154880 0.000000 0.162810 
#    y 0.000000 1.934910 0.000000 
#    z 0.162810 0.000000 2.134770 
# 
# From -- ./inp_files/251816.got.cif
#   From: 2010.05.17/outbox.cif.g08.bks.cpg/sg15_126_cif.got.tgz:251816.got - 2010.06.03 18:47:42.
