data_PCOD9287584
_publ_section_title
;
Structure prediction by ZEFSAII (Michael W. Deem and Ramdas Pophale) SiO2 
 PCOD9287584
Probable space group: C 2/C
;
_chemical_formula_sum "Si O2"
_cell_formula_units_Z 48
_cell_length_a 20.548307
_cell_length_b 19.401211
_cell_length_c 17.302133
_cell_angle_alpha 90.000000
_cell_angle_beta 159.045555
_cell_angle_gamma 90.000000
_cell_volume 2466.795131
_symmetry_space_group_name_H-M "C 2/C"
_symmetry_group_IT_number 15
_symmetry_cell_setting 'monoclinic'
loop_
_space_group_symop_operation_xyz
x,y,z
-x,y,1/2-z
-x,-y,-z
x,-y,1/2+z
1/2+x,1/2+y,z
1/2-x,1/2+y,1/2-z
1/2-x,1/2-y,-z
1/2+x,1/2-y,1/2+z
loop_
_atom_site_type_symbol
_atom_site_label
_atom_site_fract_x
_atom_site_fract_y
_atom_site_fract_z
Si Si1 0.492028 0.929863 0.939877
Si Si2 0.793368 0.797074 0.622594
Si Si3 0.033945 0.665362 0.631603
Si Si4 0.900567 0.072000 0.866580
Si Si5 0.904749 0.902754 0.544862
Si Si6 0.899088 0.934502 0.060714
O O1 0.317743 0.927259 0.690944
O O2 0.477506 0.868752 0.987630
O O3 0.685596 0.932133 0.110992
O O4 0.500000 0.000000 0.000000
O O5 0.750000 0.750000 0.500000
O O6 0.889093 0.742999 0.787258
O O7 0.624497 0.830293 0.480415
O O8 0.929533 0.855822 0.746149
O O9 0.204353 0.619295 0.848911
O O10 0.008694 0.098652 0.912894
O O11 0.905319 0.111293 0.952831
O O12 0.000000 0.000000 0.000000
O O13 0.934610 0.982940 0.593784
O O14 0.000000 0.910326 0.250000
#
# Coordination Sequence:
#
# PCOD9287584 Si02
#       6
#     8   8   8   8   8   8
#     4  11  20  38  61  83 113 156 209 251 303 364
#     4  12  25  37  54  83 129 163 200 238 288 354
#     4  11  23  37  57  80 114 163 201 241 287 353
#     4   9  18  36  58  81 114 152 197 252 302 361
#     4  10  22  37  58  82 117 164 203 237 288 363
#     4  11  23  36  59  90 121 152 202 257 313 352
#
# _framework density 19.458447
#
# number of rings (size 3 to 8) (size 9 to 14) (size 15 to 20)
#    0.000    1.333    6.667    1.500    4.667    0.667 
#    0.000    0.000    0.000    0.000    0.000    4.667 
#    0.000    0.167    0.000    0.000    0.000    0.000 
#
# Total GULP energy -133852.291324 kJ/mol
# GULP energy per Si atom -5577.178805 kJ/mol
# Density = 1.941416 g / cm^3
# Si number density = 19.458447 Si / 1000 Ang^3
#
#
#
# Elastic Constant Matrix: (Units=GPa)
#
#
# Indices 1 2 3 4 5 6 
#
# 1 95.0471 9.5851 65.0040 -0.0002 13.4751 0.0000
# 2 9.5851 53.4464 16.3208 -0.0001 3.1299 0.0000
# 3 65.0040 16.3208 157.9853 -0.0006 4.0757 -0.0002
# 4 -0.0002 -0.0001 -0.0006 30.2505 -0.0003 3.4821
# 5 13.4751 3.1299 4.0757 -0.0003 45.3430 0.0000
# 6 0.0000 0.0000 -0.0002 3.4821 0.0000 20.8008
#
#
#
# Elastic Compliance Matrix: (Units=1/GPa)
#
#
# Indices 1 2 3 4 5 6 
#
# 1 0.015353 -0.000644 -0.006148 0.000000 -0.003966 0.000000
# 2 -0.000644 0.019408 -0.001714 0.000000 -0.000994 0.000000
# 3 -0.006148 -0.001714 0.009007 0.000000 0.001136 0.000000
# 4 0.000000 0.000000 0.000000 0.033707 0.000000 -0.005643
# 5 -0.003966 -0.000994 0.001136 0.000000 0.023199 0.000000
# 6 0.000000 0.000000 0.000000 -0.005643 0.000000 0.049020
#
#
# Mechanical properties :
#
#
# Convention : Reuss Voigt Hill
#
# Bulk Modulus (GPa) = 37.37612 54.25539 45.81576
# Shear Modulus (GPa) = 28.46979 33.65013 31.05996
#
# Velocity S-wave (km/s) = 3.82921 4.16304 3.99961
# Velocity P-wave (km/s) = 6.22899 7.14500 6.70266
#
# Compressibility (1/GPa) = 0.02675505
#
# Stress axis : x y z
#
# Youngs Moduli (GPa) = 65.13316 51.52644 111.02127
#
# Poissons Ratio (x) = 0.03317 0.68260
# Poissons Ratio (y) = 0.04193 0.19033
# Poissons Ratio (z) = 0.40046 0.08834
#
# Static dielectric constant tensor:
#      x y z
#    x 1.745450 0.000000 -0.017010 
#    y 0.000000 1.696160 0.000000 
#    z -0.017010 0.000000 1.768680 
# 
# From -- ./inp_files/216569.got.cif
#   From: 2010.05.17/outbox.cif.g08.bks.cpg/sg15_109_cif.got.tgz:216569.got - 2010.06.03 18:47:42.
