data_PCOD9287249
_publ_section_title
;
Structure prediction by ZEFSAII (Michael W. Deem and Ramdas Pophale) SiO2 
 PCOD9287249
Probable space group: C 2/C
;
_chemical_formula_sum "Si O2"
_cell_formula_units_Z 52
_cell_length_a 9.899601
_cell_length_b 15.259220
_cell_length_c 19.044975
_cell_angle_alpha 90.000000
_cell_angle_beta 44.730060
_cell_angle_gamma 90.000000
_cell_volume 2024.695205
_symmetry_space_group_name_H-M "C 2/C"
_symmetry_group_IT_number 15
_symmetry_cell_setting 'monoclinic'
loop_
_space_group_symop_operation_xyz
x,y,z
-x,y,1/2-z
-x,-y,-z
x,-y,1/2+z
1/2+x,1/2+y,z
1/2-x,1/2+y,1/2-z
1/2-x,1/2-y,-z
1/2+x,1/2-y,1/2+z
loop_
_atom_site_type_symbol
_atom_site_label
_atom_site_fract_x
_atom_site_fract_y
_atom_site_fract_z
Si Si1 0.556273 0.846530 0.616507
Si Si2 0.000000 0.051871 0.750000
Si Si3 0.018227 0.317451 0.390031
Si Si4 0.366419 0.665732 0.664345
Si Si5 0.818778 0.557303 0.557950
Si Si6 0.894253 0.873901 0.991410
Si Si7 0.295628 0.926828 0.808319
O O1 0.498094 0.752076 0.612284
O O2 0.685500 0.904122 0.517686
O O3 0.354814 0.894839 0.709670
O O4 0.667641 0.848377 0.649096
O O5 0.055064 0.107963 0.799354
O O6 0.162089 0.997538 0.653377
O O7 0.956239 0.221034 0.437622
O O8 0.828406 0.378644 0.451257
O O9 0.150145 0.314203 0.271508
O O10 0.148964 0.359646 0.402733
O O11 0.374674 0.626485 0.583378
O O12 0.000000 0.500000 0.500000
O O13 0.067452 0.939550 0.902854
O O14 0.500000 0.981688 0.750000
#
# Coordination Sequence:
#
# PCOD9287249 Si02
#       7
#     8   4   8   8   8   8   8
#     4   9  18  33  59  87 114 150 188 250 294 338
#     4  10  24  38  64  92 114 148 208 252 290 350
#     4  10  22  35  52  88 120 154 197 233 293 374
#     4  11  19  34  60  87 120 146 190 254 312 332
#     4  11  23  43  58  84 123 163 202 236 285 354
#     4  11  19  33  56  85 121 149 182 247 308 345
#     4   8  18  32  53  84 111 135 194 240 292 348
#
# _framework density 25.682879
#
# number of rings (size 3 to 8) (size 9 to 14) (size 15 to 20)
#    0.923    0.923    3.077    2.308    2.154    1.231 
#    2.769    0.000   13.538    1.846    0.000    0.000 
#    0.000    0.000    0.000    0.000    0.000    0.000 
#
# Total GULP energy -144777.878091 kJ/mol
# GULP energy per Si atom -5568.379927 kJ/mol
# Density = 2.562442 g / cm^3
# Si number density = 25.682879 Si / 1000 Ang^3
#
#
#
# Elastic Constant Matrix: (Units=GPa)
#
#
# Indices 1 2 3 4 5 6 
#
# 1 105.4037 5.5033 48.9015 -0.0003 5.0189 0.0002
# 2 5.5033 47.2792 15.0020 -0.0002 6.4475 0.0001
# 3 48.9015 15.0020 219.8719 -0.0002 -13.6017 0.0001
# 4 -0.0003 -0.0002 -0.0002 14.4840 0.0002 1.3930
# 5 5.0189 6.4475 -13.6017 0.0002 43.8839 -0.0002
# 6 0.0002 0.0001 0.0001 1.3930 -0.0002 21.6155
#
#
#
# Elastic Compliance Matrix: (Units=1/GPa)
#
#
# Indices 1 2 3 4 5 6 
#
# 1 0.010751 -0.000188 -0.002501 0.000000 -0.001977 0.000000
# 2 -0.000188 0.022230 -0.001708 0.000000 -0.003774 0.000000
# 3 -0.002501 -0.001708 0.005357 0.000000 0.002197 0.000000
# 4 0.000000 0.000000 0.000000 0.069473 0.000000 -0.004477
# 5 -0.001977 -0.003774 0.002197 0.000000 0.024249 0.000000
# 6 0.000000 0.000000 0.000000 -0.004477 0.000000 0.046552
#
#
# Mechanical properties :
#
#
# Convention : Reuss Voigt Hill
#
# Bulk Modulus (GPa) = 33.84886 56.81871 45.33378
# Shear Modulus (GPa) = 25.34811 36.20654 30.77732
#
# Velocity S-wave (km/s) = 3.14501 3.75874 3.46549
# Velocity P-wave (km/s) = 5.13773 6.40381 5.80539
#
# Compressibility (1/GPa) = 0.02954309
#
# Stress axis : x y z
#
# Youngs Moduli (GPa) = 93.01039 44.98511 186.67987
#
# Poissons Ratio (x) = 0.00847 0.46683
# Poissons Ratio (y) = 0.01752 0.31891
# Poissons Ratio (z) = 0.23259 0.07685
#
# Static dielectric constant tensor:
#      x y z
#    x 2.143500 0.000000 -0.212400 
#    y 0.000000 2.032610 0.000000 
#    z -0.212400 0.000000 2.145240 
# 
# From -- ./inp_files/239741.got.cif
#   From: 2010.05.17/outbox.cif.g08.bks.cpg/sg15_120_cif.got.tgz:239741.got - 2010.06.03 18:47:42.
