data_PCOD9287898
_publ_section_title
;
Structure prediction by ZEFSAII (Michael W. Deem and Ramdas Pophale) SiO2 
 PCOD9287898
Probable space group: C 2/C
;
_chemical_formula_sum "Si O2"
_cell_formula_units_Z 32
_cell_length_a 10.309415
_cell_length_b 16.175510
_cell_length_c 15.693328
_cell_angle_alpha 90.000000
_cell_angle_beta 154.720524
_cell_angle_gamma 90.000000
_cell_volume 1117.556514
_symmetry_space_group_name_H-M "C 2/C"
_symmetry_group_IT_number 15
_symmetry_cell_setting 'monoclinic'
loop_
_space_group_symop_operation_xyz
x,y,z
-x,y,1/2-z
-x,-y,-z
x,-y,1/2+z
1/2+x,1/2+y,z
1/2-x,1/2+y,1/2-z
1/2-x,1/2-y,-z
1/2+x,1/2-y,1/2+z
loop_
_atom_site_type_symbol
_atom_site_label
_atom_site_fract_x
_atom_site_fract_y
_atom_site_fract_z
Si Si1 0.655607 0.944179 0.021484
Si Si2 0.936603 0.675661 0.901902
Si Si3 0.672174 0.359916 0.010663
Si Si4 0.690984 0.612598 0.057965
O O1 0.560784 0.852289 0.998391
O O2 0.668624 0.952140 0.927274
O O3 0.000000 0.953032 0.250000
O O4 0.500000 0.000000 0.000000
O O5 0.608310 0.651470 0.665801
O O6 0.217524 0.629315 0.020135
O O7 0.018352 0.770220 0.933215
O O8 0.441631 0.415147 0.928872
O O9 0.000000 0.357910 0.250000
O O10 0.000000 0.667760 0.250000
#
# Coordination Sequence:
#
# PCOD9287898 Si02
#       4
#     8   8   8   8
#     4  10  23  42  61  83 115 157 203 250 300 353
#     4   9  20  39  60  86 121 158 197 241 296 361
#     4   9  19  36  60  90 121 157 197 241 296 355
#     4  10  22  38  59  91 122 156 199 247 299 353
#
# _framework density 28.633897999999999
#
# number of rings (size 3 to 8) (size 9 to 14) (size 15 to 20)
#    0.000    2.500    0.000    0.000    0.000   14.000 
#    0.000   12.500    0.000    0.000    0.000    0.000 
#    0.000    0.000    0.000    0.000    0.000    0.000 
#
# Total GULP energy -89323.487349 kJ/mol
# GULP energy per Si atom -5582.717959 kJ/mol
# Density = 2.856873 g / cm^3
# Si number density = 28.633898 Si / 1000 Ang^3
#
#
#
# Elastic Constant Matrix: (Units=GPa)
#
#
# Indices 1 2 3 4 5 6 
#
# 1 254.8345 43.5897 91.1234 -0.0086 57.3523 0.0003
# 2 43.5897 80.0132 26.0165 0.0665 28.4328 0.0123
# 3 91.1234 26.0165 171.3602 0.1123 47.5122 0.0043
# 4 -0.0086 0.0665 0.1123 17.5380 -0.0279 11.1351
# 5 57.3523 28.4328 47.5122 -0.0279 68.4284 -0.0092
# 6 0.0003 0.0123 0.0043 11.1351 -0.0092 46.0009
#
#
#
# Elastic Compliance Matrix: (Units=1/GPa)
#
#
# Indices 1 2 3 4 5 6 
#
# 1 0.005456 -0.001401 -0.001960 0.000019 -0.002631 -0.000005
# 2 -0.001401 0.015084 -0.000165 -0.000073 -0.004979 0.000013
# 3 -0.001960 -0.000165 0.007961 -0.000067 -0.003817 0.000015
# 4 0.000019 -0.000073 -0.000067 0.067374 0.000086 -0.016309
# 5 -0.002631 -0.004979 -0.003817 0.000086 0.021538 -0.000015
# 6 -0.000005 0.000013 0.000015 -0.016309 -0.000015 0.025686
#
#
# Mechanical properties :
#
#
# Convention : Reuss Voigt Hill
#
# Bulk Modulus (GPa) = 46.61602 91.96301 69.28951
# Shear Modulus (GPa) = 31.78638 49.42537 40.60587
#
# Velocity S-wave (km/s) = 3.33543 4.15916 3.76986
# Velocity P-wave (km/s) = 5.58111 7.43313 6.57268
#
# Compressibility (1/GPa) = 0.02145185
#
# Stress axis : x y z
#
# Youngs Moduli (GPa) = 183.27007 66.29549 125.61269
#
# Poissons Ratio (x) = 0.09285 0.24614
# Poissons Ratio (y) = 0.25669 0.02068
# Poissons Ratio (z) = 0.35912 0.01092
#
# Static dielectric constant tensor:
#      x y z
#    x 1.292000 0.000050 -0.019570 
#    y 0.000050 2.420130 -0.000030 
#    z -0.019570 -0.000030 2.214460 
# 
# From -- ./inp_files/240484.got.cif
#   From: 2010.05.17/outbox.cif.g08.bks.cpg/sg15_121_cif.got.tgz:240484.got - 2010.06.03 18:47:42.
