data_PCOD9287440
_publ_section_title
;
Structure prediction by ZEFSAII (Michael W. Deem and Ramdas Pophale) SiO2 
 PCOD9287440
Probable space group: C 2/C
;
_chemical_formula_sum "Si O2"
_cell_formula_units_Z 56
_cell_length_a 18.506196
_cell_length_b 22.923042
_cell_length_c 9.589551
_cell_angle_alpha 90.000000
_cell_angle_beta 40.088884
_cell_angle_gamma 90.000000
_cell_volume 2619.731809
_symmetry_space_group_name_H-M "C 2/C"
_symmetry_group_IT_number 15
_symmetry_cell_setting 'monoclinic'
loop_
_space_group_symop_operation_xyz
x,y,z
-x,y,1/2-z
-x,-y,-z
x,-y,1/2+z
1/2+x,1/2+y,z
1/2-x,1/2+y,1/2-z
1/2-x,1/2-y,-z
1/2+x,1/2-y,1/2+z
loop_
_atom_site_type_symbol
_atom_site_label
_atom_site_fract_x
_atom_site_fract_y
_atom_site_fract_z
Si Si1 0.284466 0.925432 0.775911
Si Si2 0.711106 0.217126 0.692773
Si Si3 0.519615 0.132773 0.873816
Si Si4 0.790225 0.538957 0.946766
Si Si5 0.620464 0.230763 0.100325
Si Si6 0.831103 0.151906 0.859628
Si Si7 0.622719 0.613679 0.003438
O O1 0.397744 0.886719 0.603911
O O2 0.266471 0.952694 0.647523
O O3 0.301707 0.974306 0.869499
O O4 0.181631 0.886106 0.982171
O O5 0.750000 0.250000 0.500000
O O6 0.600523 0.177579 0.832761
O O7 0.814675 0.175155 0.571375
O O8 0.680140 0.255271 0.872238
O O9 0.500000 0.159195 0.750000
O O10 0.594484 0.074447 0.747606
O O11 0.697026 0.568922 0.984595
O O12 0.500000 0.204261 0.250000
O O13 0.601008 0.287465 0.225295
O O14 0.707254 0.180673 0.016842
O O15 0.871793 0.110431 0.673328
O O16 0.500000 0.613749 0.250000
#
# Coordination Sequence:
#
# PCOD9287440 Si02
#       7
#     8   8   8   8   8   8   8
#     4  11  21  40  66  91 128 160 204 267 320 381
#     4  10  22  36  61  93 127 164 212 261 307 380
#     4   9  20  36  60  93 127 163 203 253 320 371
#     4  10  22  39  63  94 123 160 209 257 317 379
#     4  10  22  39  59  86 123 163 209 255 314 369
#     4  10  23  39  61  88 121 163 207 258 311 374
#     4  10  23  43  60  88 125 167 209 259 313 375
#
# _framework density 21.376234
#
# number of rings (size 3 to 8) (size 9 to 14) (size 15 to 20)
#    0.000    2.000    0.000    2.143    8.000    0.571 
#    0.000   10.000    0.000    0.000    0.000    0.000 
#    0.000    0.000    0.000    0.000    0.000    0.000 
#
# Total GULP energy -156082.108194 kJ/mol
# GULP energy per Si atom -5574.361007 kJ/mol
# Density = 2.132758 g / cm^3
# Si number density = 21.376234 Si / 1000 Ang^3
#
#
#
# Elastic Constant Matrix: (Units=GPa)
#
#
# Indices 1 2 3 4 5 6 
#
# 1 45.0871 5.9650 37.9308 0.0000 5.5813 0.0000
# 2 5.9650 30.2849 31.2173 0.0000 18.1706 0.0000
# 3 37.9308 31.2173 124.6822 0.0000 25.0708 0.0001
# 4 0.0000 0.0000 0.0000 16.8256 0.0000 24.0639
# 5 5.5813 18.1706 25.0708 0.0000 41.3860 0.0000
# 6 0.0000 0.0000 0.0001 24.0639 0.0000 -23.2905
#
#
#
# Elastic Compliance Matrix: (Units=1/GPa)
#
#
# Indices 1 2 3 4 5 6 
#
# 1 0.030311 0.004671 -0.010426 0.000000 0.000178 0.000000
# 2 0.004671 0.054550 -0.011542 0.000000 -0.017588 0.000000
# 3 -0.010426 -0.011542 0.014553 0.000000 -0.002342 0.000000
# 4 0.000000 0.000000 0.000000 0.023987 0.000000 0.024784
# 5 0.000178 -0.017588 -0.002342 0.000000 0.033280 0.000000
# 6 0.000000 0.000000 0.000000 0.024784 0.000000 -0.017329
#
#
# Mechanical properties :
#
#
# Convention : Reuss Voigt Hill
#
# Bulk Modulus (GPa) = 15.42782 38.92007 27.17394
# Shear Modulus (GPa) = 25.56836 15.31362 20.44099
#
# Velocity S-wave (km/s) = 3.46224 2.67944 3.09568
# Velocity P-wave (km/s) = 4.81827 5.27439 5.05148
#
# Compressibility (1/GPa) = 0.06481797
#
# Stress axis : x y z
#
# Youngs Moduli (GPa) = 32.99153 18.33178 68.71361
#
# Poissons Ratio (x) = -0.08562 0.71643
# Poissons Ratio (y) = -0.15409 0.79311
# Poissons Ratio (z) = 0.34398 0.21159
#
# Static dielectric constant tensor:
#      x y z
#    x 1.869040 0.000000 0.060960 
#    y 0.000000 1.755920 0.000000 
#    z 0.060960 0.000000 1.799310 
# 
# From -- ./inp_files/52296.got.cif
#   From: 2010.05.17/outbox.cif.g08.bks.cpg/sg15_27_cif.got.tgz:52296.got - 2010.06.03 18:47:42.
