data_PCOD9287492
_publ_section_title
;
Structure prediction by ZEFSAII (Michael W. Deem and Ramdas Pophale) SiO2 
 PCOD9287492
Probable space group: C 2/C
;
_chemical_formula_sum "Si O2"
_cell_formula_units_Z 60
_cell_length_a 18.955533
_cell_length_b 25.083134
_cell_length_c 13.107753
_cell_angle_alpha 90.000000
_cell_angle_beta 152.621795
_cell_angle_gamma 90.000000
_cell_volume 2865.982943
_symmetry_space_group_name_H-M "C 2/C"
_symmetry_group_IT_number 15
_symmetry_cell_setting 'monoclinic'
loop_
_space_group_symop_operation_xyz
x,y,z
-x,y,1/2-z
-x,-y,-z
x,-y,1/2+z
1/2+x,1/2+y,z
1/2-x,1/2+y,1/2-z
1/2-x,1/2-y,-z
1/2+x,1/2-y,1/2+z
loop_
_atom_site_type_symbol
_atom_site_label
_atom_site_fract_x
_atom_site_fract_y
_atom_site_fract_z
Si Si1 0.500000 0.608005 0.750000
Si Si2 0.198529 0.781101 0.193483
Si Si3 0.238328 0.686110 0.502824
Si Si4 0.457905 0.378727 0.579552
Si Si5 0.600808 0.448705 0.591902
Si Si6 0.052083 0.512026 0.928611
Si Si7 0.980813 0.313294 0.950372
Si Si8 0.617337 0.921603 0.133919
O O1 0.362713 0.647894 0.608518
O O2 0.449676 0.572811 0.585799
O O3 0.232349 0.815917 0.339321
O O4 0.361967 0.780154 0.348812
O O5 0.072135 0.815618 0.972540
O O6 0.142851 0.722493 0.151087
O O7 0.250000 0.750000 0.500000
O O8 0.079290 0.675400 0.241294
O O9 0.500000 0.390611 0.750000
O O10 0.568024 0.403064 0.634766
O O11 0.292124 0.405488 0.350557
O O12 0.500000 0.500000 0.500000
O O13 0.780469 0.464698 0.826902
O O14 0.064800 0.448553 0.961502
O O15 0.000000 0.526366 0.750000
O O16 0.917831 0.533483 0.828765
O O17 0.020457 0.370703 0.044346
#
# Coordination Sequence:
#
# PCOD9287492 Si02
#       8
#     4   8   8   8   8   8   8   8
#     4  12  26  44  68 108 148 178 242 290 352 432
#     4  10  22  39  61  96 128 177 222 272 346 411
#     4  10  22  36  64  96 136 172 215 281 352 411
#     4  11  23  44  67  94 136 174 230 279 345 409
#     4  12  26  43  70 102 135 189 233 292 347 415
#     4  11  24  43  68  93 134 174 230 283 347 410
#     4  10  22  37  64  89 136 171 218 277 338 417
#     4  10  23  43  61  97 125 175 222 278 344 402
#
# _framework density 20.935224999999999
#
# number of rings (size 3 to 8) (size 9 to 14) (size 15 to 20)
#    0.000    1.333    2.667    2.000    8.400    6.400 
#    0.000    3.333    0.000    0.000    0.000    0.000 
#    0.000    0.000    0.000    0.000    0.000    0.000 
#
# Total GULP energy -167340.602072 kJ/mol
# GULP energy per Si atom -5578.020069 kJ/mol
# Density = 2.088758 g / cm^3
# Si number density = 20.935225 Si / 1000 Ang^3
#
#
#
# Elastic Constant Matrix: (Units=GPa)
#
#
# Indices 1 2 3 4 5 6 
#
# 1 60.8960 23.1833 31.0208 0.0000 -11.8896 0.0000
# 2 23.1833 84.1597 48.9973 0.0000 6.2604 0.0000
# 3 31.0208 48.9973 57.0792 0.0000 -6.4703 0.0000
# 4 0.0000 0.0000 0.0000 23.3997 0.0000 11.9274
# 5 -11.8896 6.2604 -6.4703 0.0000 35.6371 0.0000
# 6 0.0000 0.0000 0.0000 11.9274 0.0000 27.0443
#
#
#
# Elastic Compliance Matrix: (Units=1/GPa)
#
#
# Indices 1 2 3 4 5 6 
#
# 1 0.023799 0.000382 -0.012629 0.000000 0.005580 0.000000
# 2 0.000382 0.026252 -0.023740 0.000000 -0.008795 0.000000
# 3 -0.012629 -0.023740 0.045697 0.000000 0.008254 0.000000
# 4 0.000000 0.000000 0.000000 0.055129 0.000000 -0.024313
# 5 0.005580 -0.008795 0.008254 0.000000 0.032966 0.000000
# 6 0.000000 0.000000 0.000000 -0.024313 0.000000 0.047699
#
#
# Mechanical properties :
#
#
# Convention : Reuss Voigt Hill
#
# Bulk Modulus (GPa) = 42.06244 45.39307 43.72776
# Shear Modulus (GPa) = 16.05441 23.81178 19.93310
#
# Velocity S-wave (km/s) = 2.77223 3.37620 3.08901
# Velocity P-wave (km/s) = 5.51202 6.07684 5.80131
#
# Compressibility (1/GPa) = 0.02377418
#
# Stress axis : x y z
#
# Youngs Moduli (GPa) = 42.01865 38.09191 21.88331
#
# Poissons Ratio (x) = -0.01454 0.27637
# Poissons Ratio (y) = -0.01604 0.51950
# Poissons Ratio (z) = 0.53066 0.90429
#
# Static dielectric constant tensor:
#      x y z
#    x 1.843230 0.000000 -0.049610 
#    y 0.000000 1.906560 0.000000 
#    z -0.049610 0.000000 1.777430 
# 
# From -- ./inp_files/108464.got.cif
#   From: 2010.05.17/outbox.cif.g08.bks.cpg/sg15_55_cif.got.tgz:108464.got - 2010.06.03 18:47:42.
