data_PCOD9287397
_publ_section_title
;
Structure prediction by ZEFSAII (Michael W. Deem and Ramdas Pophale) SiO2 
 PCOD9287397
Probable space group: C 2/C
;
_chemical_formula_sum "Si O2"
_cell_formula_units_Z 64
_cell_length_a 27.286415
_cell_length_b 8.692626
_cell_length_c 13.926848
_cell_angle_alpha 90.000000
_cell_angle_beta 67.402100
_cell_angle_gamma 90.000000
_cell_volume 3049.702937
_symmetry_space_group_name_H-M "C 2/C"
_symmetry_group_IT_number 15
_symmetry_cell_setting 'monoclinic'
loop_
_space_group_symop_operation_xyz
x,y,z
-x,y,1/2-z
-x,-y,-z
x,-y,1/2+z
1/2+x,1/2+y,z
1/2-x,1/2+y,1/2-z
1/2-x,1/2-y,-z
1/2+x,1/2-y,1/2+z
loop_
_atom_site_type_symbol
_atom_site_label
_atom_site_fract_x
_atom_site_fract_y
_atom_site_fract_z
Si Si1 0.942717 0.990921 0.643216
Si Si2 0.714120 0.616677 0.481184
Si Si3 0.138171 0.634764 0.015038
Si Si4 0.552671 0.360909 0.561585
Si Si5 0.938720 0.543905 0.054878
Si Si6 0.708679 0.119457 0.568823
Si Si7 0.640515 0.395100 0.659043
Si Si8 0.443370 0.816693 0.750009
O O1 0.941851 0.018619 0.530126
O O2 0.953554 0.150678 0.692459
O O3 0.885454 0.942723 0.722469
O O4 0.990357 0.874672 0.633633
O O5 0.750000 0.750000 0.500000
O O6 0.670741 0.715389 0.458756
O O7 0.754033 0.498051 0.400194
O O8 0.683452 0.515954 0.585059
O O9 0.177507 0.493271 0.017192
O O10 0.101613 0.680259 0.134619
O O11 0.098938 0.581374 0.962398
O O12 0.567442 0.197847 0.504200
O O13 0.592336 0.394258 0.618125
O O14 0.926185 0.577212 0.174628
O O15 0.000000 0.500000 0.000000
O O16 0.750000 0.250000 0.500000
O O17 0.664559 0.225369 0.649426
O O18 0.500000 0.868298 0.750000
#
# Coordination Sequence:
#
# PCOD9287397 Si02
#       8
#     8   8   8   8   8   8   8   8
#     4  10  22  36  59  92 129 168 210 246 309 392
#     4   9  20  36  63  92 118 162 218 259 320 376
#     4  11  20  39  64  89 128 172 201 258 325 367
#     4  10  22  37  57  91 131 167 207 253 306 381
#     4  11  23  38  57  91 133 167 204 251 307 379
#     4   9  20  37  62  94 119 160 217 268 317 374
#     4  11  18  37  65  87 124 164 208 260 321 367
#     4  11  21  36  60  90 129 167 215 247 301 395
#
# _framework density 20.985651000000001
#
# number of rings (size 3 to 8) (size 9 to 14) (size 15 to 20)
#    0.000    1.750    3.750    1.125    0.000    2.000 
#    2.250    0.000    0.000   22.500    0.000    0.000 
#    0.000    0.000    0.000    0.000    0.000    0.000 
#
# Total GULP energy -178567.577021 kJ/mol
# GULP energy per Si atom -5580.236782 kJ/mol
# Density = 2.093789 g / cm^3
# Si number density = 20.985651 Si / 1000 Ang^3
#
#
#
# Elastic Constant Matrix: (Units=GPa)
#
#
# Indices 1 2 3 4 5 6 
#
# 1 97.1230 40.0516 18.1178 0.0000 -7.1415 0.0000
# 2 40.0516 84.1682 6.3432 0.0000 -1.8764 0.0000
# 3 18.1178 6.3432 41.2748 0.0000 5.3355 0.0000
# 4 0.0000 0.0000 0.0000 19.0799 0.0000 -13.2719
# 5 -7.1415 -1.8764 5.3355 0.0000 20.6876 0.0000
# 6 0.0000 0.0000 0.0000 -13.2719 0.0000 59.7239
#
#
#
# Elastic Compliance Matrix: (Units=1/GPa)
#
#
# Indices 1 2 3 4 5 6 
#
# 1 0.014485 -0.006294 -0.006169 0.000000 0.006021 0.000000
# 2 -0.006294 0.014807 0.000615 0.000000 -0.000988 0.000000
# 3 -0.006169 0.000615 0.028045 0.000000 -0.009307 0.000000
# 4 0.000000 0.000000 0.000000 0.061994 0.000000 0.013776
# 5 0.006021 -0.000988 -0.009307 0.000000 0.052727 0.000000
# 6 0.000000 0.000000 0.000000 0.013776 0.000000 0.019805
#
#
# Mechanical properties :
#
#
# Convention : Reuss Voigt Hill
#
# Bulk Modulus (GPa) = 29.72605 39.06571 34.39588
# Shear Modulus (GPa) = 22.04840 30.43517 26.24178
#
# Velocity S-wave (km/s) = 3.24488 3.81239 3.54003
# Velocity P-wave (km/s) = 5.31363 6.16725 5.75628
#
# Compressibility (1/GPa) = 0.03364053
#
# Stress axis : x y z
#
# Youngs Moduli (GPa) = 69.03607 67.53351 35.65751
#
# Poissons Ratio (x) = 0.42503 0.21999
# Poissons Ratio (y) = 0.43449 -0.02192
# Poissons Ratio (z) = 0.42591 -0.04151
#
# Static dielectric constant tensor:
#      x y z
#    x 1.769070 0.000000 -0.022120 
#    y 0.000000 1.792680 0.000000 
#    z -0.022120 0.000000 1.713770 
# 
# From -- ./inp_files/176566.got.cif
#   From: 2010.05.17/outbox.cif.g08.bks.cpg/sg15_89_cif.got.tgz:176566.got - 2010.06.03 18:47:42.
