data_PCOD9287801
_publ_section_title
;
Structure prediction by ZEFSAII (Michael W. Deem and Ramdas Pophale) SiO2 
 PCOD9287801
Probable space group: C 2/C
;
_chemical_formula_sum "Si O2"
_cell_formula_units_Z 32
_cell_length_a 8.147472
_cell_length_b 17.602317
_cell_length_c 12.254271
_cell_angle_alpha 90.000000
_cell_angle_beta 49.036802
_cell_angle_gamma 90.000000
_cell_volume 1327.096158
_symmetry_space_group_name_H-M "C 2/C"
_symmetry_group_IT_number 15
_symmetry_cell_setting 'monoclinic'
loop_
_space_group_symop_operation_xyz
x,y,z
-x,y,1/2-z
-x,-y,-z
x,-y,1/2+z
1/2+x,1/2+y,z
1/2-x,1/2+y,1/2-z
1/2-x,1/2-y,-z
1/2+x,1/2-y,1/2+z
loop_
_atom_site_type_symbol
_atom_site_label
_atom_site_fract_x
_atom_site_fract_y
_atom_site_fract_z
Si Si1 0.005668 0.090232 0.017264
Si Si2 0.833467 0.334994 0.970286
Si Si3 0.211069 0.430213 0.305067
Si Si4 0.271443 0.906663 0.602117
O O1 0.770686 0.122465 0.087045
O O2 0.185885 0.108811 0.845424
O O3 0.077831 0.117660 0.106002
O O4 0.000000 0.000000 0.000000
O O5 0.727015 0.379830 0.117792
O O6 0.087532 0.346627 0.889411
O O7 0.750000 0.250000 0.000000
O O8 0.270670 0.517404 0.308396
O O9 0.949170 0.432444 0.430779
#
# Coordination Sequence:
#
# PCOD9287801 Si02
#       4
#     8   8   8   8
#     4  12  20  35  65  87 119 163 197 248 307 352
#     4  10  22  38  56  87 123 156 200 249 302 356
#     4   9  19  39  57  91 121 150 203 253 287 362
#     4   9  20  36  62  87 118 154 207 244 292 362
#
# _framework density 24.112794999999998
#
# number of rings (size 3 to 8) (size 9 to 14) (size 15 to 20)
#    1.500    0.500    2.500    1.500    0.000    1.000 
#    0.000    5.000    0.000    0.000    0.000    0.000 
#    0.000    0.000    0.000    0.000    0.000    0.000 
#
# Total GULP energy -89154.280396 kJ/mol
# GULP energy per Si atom -5572.142525 kJ/mol
# Density = 2.405791 g / cm^3
# Si number density = 24.112795 Si / 1000 Ang^3
#
#
#
# Elastic Constant Matrix: (Units=GPa)
#
#
# Indices 1 2 3 4 5 6 
#
# 1 225.2763 74.1860 15.4439 0.0000 28.6882 0.0000
# 2 74.1860 127.1307 -14.2530 0.0000 11.7620 0.0000
# 3 15.4439 -14.2530 88.8272 0.0000 26.5721 0.0000
# 4 0.0000 0.0000 0.0000 -4.4229 0.0000 2.9836
# 5 28.6882 11.7620 26.5721 0.0000 44.0979 0.0000
# 6 0.0000 0.0000 0.0000 2.9836 0.0000 36.2372
#
#
#
# Elastic Compliance Matrix: (Units=1/GPa)
#
#
# Indices 1 2 3 4 5 6 
#
# 1 0.005897 -0.003305 -0.000819 0.000000 -0.002461 0.000000
# 2 -0.003305 0.010346 0.002949 0.000000 -0.002386 0.000000
# 3 -0.000819 0.002949 0.014577 0.000000 -0.009037 0.000000
# 4 0.000000 0.000000 0.000000 -0.214198 0.000000 0.017636
# 5 -0.002461 -0.002386 -0.009037 0.000000 0.030360 0.000000
# 6 0.000000 0.000000 0.000000 0.017636 0.000000 0.026144
#
#
# Mechanical properties :
#
#
# Convention : Reuss Voigt Hill
#
# Bulk Modulus (GPa) = 35.12816 65.77644 50.45230
# Shear Modulus (GPa) = -43.46577 39.57291 -1.94643
#
# Velocity S-wave (km/s) = -4.25031 4.05552 -0.89943
# Velocity P-wave (km/s) = 3.08009 7.01908 4.45985
#
# Compressibility (1/GPa) = 0.02846719
#
# Stress axis : x y z
#
# Youngs Moduli (GPa) = 169.57600 96.65518 68.60252
#
# Poissons Ratio (x) = 0.31948 0.05622
# Poissons Ratio (y) = 0.56051 -0.20228
# Poissons Ratio (z) = 0.13897 -0.28499
#
# Static dielectric constant tensor:
#      x y z
#    x 2.041970 0.000000 -0.115260 
#    y 0.000000 1.837330 0.000000 
#    z -0.115260 0.000000 2.154140 
# 
# From -- ./inp_files/77540.got.cif
#   From: 2010.05.17/outbox.cif.g08.bks.cpg/sg15_39_cif.got.tgz:77540.got - 2010.06.03 18:47:42.
