data_PCOD9287568
_publ_section_title
;
Structure prediction by ZEFSAII (Michael W. Deem and Ramdas Pophale) SiO2 
 PCOD9287568
Probable space group: C 2/C
;
_chemical_formula_sum "Si O2"
_cell_formula_units_Z 52
_cell_length_a 13.539008
_cell_length_b 33.954782
_cell_length_c 5.960531
_cell_angle_alpha 90.000000
_cell_angle_beta 108.858280
_cell_angle_gamma 90.000000
_cell_volume 2593.051880
_symmetry_space_group_name_H-M "C 2/C"
_symmetry_group_IT_number 15
_symmetry_cell_setting 'monoclinic'
loop_
_space_group_symop_operation_xyz
x,y,z
-x,y,1/2-z
-x,-y,-z
x,-y,1/2+z
1/2+x,1/2+y,z
1/2-x,1/2+y,1/2-z
1/2-x,1/2-y,-z
1/2+x,1/2-y,1/2+z
loop_
_atom_site_type_symbol
_atom_site_label
_atom_site_fract_x
_atom_site_fract_y
_atom_site_fract_z
Si Si1 0.812197 0.601517 0.758992
Si Si2 0.747662 0.665410 0.069395
Si Si3 0.907076 0.797433 0.360413
Si Si4 0.885921 0.874205 0.649854
Si Si5 0.932240 0.713068 0.409077
Si Si6 0.621628 0.013806 0.591557
Si Si7 0.500000 0.852847 0.250000
O O1 0.702032 0.600889 0.547370
O O2 0.856833 0.560291 0.876006
O O3 0.898996 0.620300 0.659152
O O4 0.801203 0.632213 0.955061
O O5 0.663509 0.641371 0.154793
O O6 0.826469 0.689804 0.282034
O O7 0.696005 0.697445 0.866467
O O8 0.905071 0.834379 0.523044
O O9 0.908836 0.755942 0.495547
O O10 0.000000 0.803404 0.250000
O O11 0.000000 0.893747 0.750000
O O12 0.000000 0.726501 0.250000
O O13 0.006663 0.679171 0.559828
O O14 0.500000 0.000000 0.500000
O O15 0.661973 0.001227 0.369657
#
# Coordination Sequence:
#
# PCOD9287568 Si02
#       7
#     8   8   8   8   8   8   4
#     4  11  25  40  67  98 133 168 214 265 327 414
#     4  11  22  40  59  87 122 171 223 273 336 386
#     4  10  22  37  57  83 118 169 231 288 328 387
#     4  11  23  41  63  88 122 177 226 278 327 377
#     4  11  23  36  54  84 126 167 220 282 344 397
#     4  10  23  43  71 108 141 175 206 251 330 416
#     4  12  22  38  56  94 128 172 214 262 348 394
#
# _framework density 20.053588999999999
#
# number of rings (size 3 to 8) (size 9 to 14) (size 15 to 20)
#    0.000    1.231    4.615    1.385    3.231    3.077 
#    0.000    0.000    0.000    0.923    0.000    0.000 
#    0.000    0.000    0.000    0.000    0.000    0.000 
#
# Total GULP energy -144770.386256 kJ/mol
# GULP energy per Si atom -5568.091779 kJ/mol
# Density = 2.000795 g / cm^3
# Si number density = 20.053589 Si / 1000 Ang^3
#
#
#
# Elastic Constant Matrix: (Units=GPa)
#
#
# Indices 1 2 3 4 5 6 
#
# 1 75.8880 33.3276 11.1078 0.0000 9.2819 0.0000
# 2 33.3276 107.8879 22.6526 0.0000 10.9664 0.0000
# 3 11.1078 22.6526 59.1492 0.0000 0.6715 0.0000
# 4 0.0000 0.0000 0.0000 14.4544 0.0000 12.0722
# 5 9.2819 10.9664 0.6715 0.0000 36.9794 0.0000
# 6 0.0000 0.0000 0.0000 12.0722 0.0000 5.1844
#
#
#
# Elastic Compliance Matrix: (Units=1/GPa)
#
#
# Indices 1 2 3 4 5 6 
#
# 1 0.015559 -0.004277 -0.001254 0.000000 -0.002614 0.000000
# 2 -0.004277 0.011581 -0.003606 0.000000 -0.002295 0.000000
# 3 -0.001254 -0.003606 0.018511 0.000000 0.001048 0.000000
# 4 0.000000 0.000000 0.000000 -0.073226 0.000000 0.170512
# 5 -0.002614 -0.002295 0.001048 0.000000 0.028360 0.000000
# 6 0.000000 0.000000 0.000000 0.170512 0.000000 -0.204159
#
#
# Mechanical properties :
#
#
# Convention : Reuss Voigt Hill
#
# Bulk Modulus (GPa) = 36.52804 41.90012 39.21408
# Shear Modulus (GPa) = -28.41303 23.04612 -2.68346
#
# Velocity S-wave (km/s) = -3.76820 3.39370 -1.15804
# Velocity P-wave (km/s) = 0.82320 6.02459 4.22007
#
# Compressibility (1/GPa) = 0.02737623
#
# Stress axis : x y z
#
# Youngs Moduli (GPa) = 64.27120 86.35168 54.02220
#
# Poissons Ratio (x) = 0.36935 0.06775
# Poissons Ratio (y) = 0.27491 0.19479
# Poissons Ratio (z) = 0.08060 0.31136
#
# Static dielectric constant tensor:
#      x y z
#    x 1.733280 0.000000 -0.007880 
#    y 0.000000 1.664920 0.000000 
#    z -0.007880 0.000000 1.877890 
# 
# From -- ./inp_files/9134.got.cif
#   From: 2010.05.17/outbox.cif.g08.bks.cpg/sg15_5_cif.got.tgz:9134.got - 2010.06.03 18:47:42.
