data_PCOD9287846
_publ_section_title
;
Structure prediction by ZEFSAII (Michael W. Deem and Ramdas Pophale) SiO2 
 PCOD9287846
Probable space group: C 2/C
;
_chemical_formula_sum "Si O2"
_cell_formula_units_Z 48
_cell_length_a 7.109078
_cell_length_b 21.205965
_cell_length_c 22.489025
_cell_angle_alpha 90.000000
_cell_angle_beta 141.475166
_cell_angle_gamma 90.000000
_cell_volume 2111.679757
_symmetry_space_group_name_H-M "C 2/C"
_symmetry_group_IT_number 15
_symmetry_cell_setting 'monoclinic'
loop_
_space_group_symop_operation_xyz
x,y,z
-x,y,1/2-z
-x,-y,-z
x,-y,1/2+z
1/2+x,1/2+y,z
1/2-x,1/2+y,1/2-z
1/2-x,1/2-y,-z
1/2+x,1/2-y,1/2+z
loop_
_atom_site_type_symbol
_atom_site_label
_atom_site_fract_x
_atom_site_fract_y
_atom_site_fract_z
Si Si1 0.273045 0.098441 0.249699
Si Si2 0.320492 0.166541 0.981069
Si Si3 0.720052 0.744196 0.135910
Si Si4 0.245602 0.446555 0.550007
Si Si5 0.610884 0.728965 0.337001
Si Si6 0.361443 0.388890 0.951445
O O1 0.500000 0.100134 0.250000
O O2 0.096512 0.164735 0.214286
O O3 0.510726 0.086608 0.361206
O O4 0.011889 0.050652 0.165460
O O5 0.557188 0.116851 0.013246
O O6 0.090196 0.131048 0.968198
O O7 0.539102 0.210617 0.075635
O O8 0.212849 0.205410 0.897989
O O9 0.450946 0.761165 0.114929
O O10 0.646824 0.676773 0.088014
O O11 0.000000 0.741047 0.250000
O O12 0.417111 0.436411 0.528838
O O13 0.000000 0.500000 0.500000
O O14 0.500000 0.762984 0.250000
#
# Coordination Sequence:
#
# PCOD9287846 Si02
#       6
#     8   8   8   8   8   8
#     4   9  15  32  56  83 120 160 211 269 319 382
#     4  11  23  34  61  90 126 168 219 269 335 397
#     4  12  20  37  55  91 138 173 209 273 330 408
#     4  10  22  38  58  88 128 165 219 281 329 382
#     4  11  17  30  55  90 126 162 215 264 331 391
#     4  11  19  37  63  95 126 168 223 271 329 401
#
# _framework density 22.730719000000001
#
# number of rings (size 3 to 8) (size 9 to 14) (size 15 to 20)
#    0.000    1.333    8.333    1.000    0.000    0.667 
#    0.000    0.000    3.667    0.000    0.000    0.000 
#    0.000    0.000    0.000    0.000    0.000    0.000 
#
# Total GULP energy -133960.254761 kJ/mol
# GULP energy per Si atom -5581.677282 kJ/mol
# Density = 2.267898 g / cm^3
# Si number density = 22.730719 Si / 1000 Ang^3
#
#
#
# Elastic Constant Matrix: (Units=GPa)
#
#
# Indices 1 2 3 4 5 6 
#
# 1 159.6718 42.0556 48.5127 -0.0004 -7.7759 -0.0005
# 2 42.0556 48.2059 42.2185 0.0000 7.1854 0.0000
# 3 48.5127 42.2185 93.5554 -0.0002 -0.6942 -0.0002
# 4 -0.0004 0.0000 -0.0002 16.5748 -0.0002 3.3426
# 5 -7.7759 7.1854 -0.6942 -0.0002 37.7803 -0.0002
# 6 -0.0005 0.0000 -0.0002 3.3426 -0.0002 38.6528
#
#
#
# Elastic Compliance Matrix: (Units=1/GPa)
#
#
# Indices 1 2 3 4 5 6 
#
# 1 0.008610 -0.006734 -0.001404 0.000000 0.003027 0.000000
# 2 -0.006734 0.041412 -0.015267 0.000000 -0.009543 0.000000
# 3 -0.001404 -0.015267 0.018328 0.000000 0.002951 0.000000
# 4 0.000000 0.000000 0.000000 0.061403 0.000000 -0.005310
# 5 0.003027 -0.009543 0.002951 0.000000 0.028961 0.000000
# 6 0.000000 0.000000 0.000000 -0.005310 0.000000 0.026331
#
#
# Mechanical properties :
#
#
# Convention : Reuss Voigt Hill
#
# Bulk Modulus (GPa) = 46.42136 63.00074 54.71105
# Shear Modulus (GPa) = 20.91745 29.84465 25.38105
#
# Velocity S-wave (km/s) = 3.03682 3.62742 3.34518
# Velocity P-wave (km/s) = 5.72390 6.73205 6.24834
#
# Compressibility (1/GPa) = 0.02154181
#
# Stress axis : x y z
#
# Youngs Moduli (GPa) = 116.13995 24.14755 54.56085
#
# Poissons Ratio (x) = 0.16260 0.07659
# Poissons Ratio (y) = 0.78204 0.83298
# Poissons Ratio (z) = 0.16303 0.36866
#
# Static dielectric constant tensor:
#      x y z
#    x 2.005300 0.000000 -0.004860 
#    y 0.000000 1.889440 0.000000 
#    z -0.004860 0.000000 1.945120 
# 
# From -- ./inp_files/233981.got.cif
#   From: 2010.05.17/outbox.cif.g08.bks.cpg/sg15_117_cif.got.tgz:233981.got - 2010.06.03 18:47:42.
