data_PCOD9287952
_publ_section_title
;
Structure prediction by ZEFSAII (Michael W. Deem and Ramdas Pophale) SiO2 
 PCOD9287952
Probable space group: C 2/C
;
_chemical_formula_sum "Si O2"
_cell_formula_units_Z 48
_cell_length_a 16.113189
_cell_length_b 15.220555
_cell_length_c 18.769214
_cell_angle_alpha 90.000000
_cell_angle_beta 153.655415
_cell_angle_gamma 90.000000
_cell_volume 2042.747586
_symmetry_space_group_name_H-M "C 2/C"
_symmetry_group_IT_number 15
_symmetry_cell_setting 'monoclinic'
loop_
_space_group_symop_operation_xyz
x,y,z
-x,y,1/2-z
-x,-y,-z
x,-y,1/2+z
1/2+x,1/2+y,z
1/2-x,1/2+y,1/2-z
1/2-x,1/2-y,-z
1/2+x,1/2-y,1/2+z
loop_
_atom_site_type_symbol
_atom_site_label
_atom_site_fract_x
_atom_site_fract_y
_atom_site_fract_z
Si Si1 0.825942 0.393517 0.238259
Si Si2 0.892197 0.914085 0.572465
Si Si3 0.619603 0.408109 0.222338
Si Si4 0.962313 0.726452 0.149466
Si Si5 0.214081 0.622177 0.084413
Si Si6 0.969708 0.421625 0.905281
O O1 0.669425 0.382453 0.179311
O O2 0.890511 0.495406 0.301192
O O3 0.013806 0.338631 0.401881
O O4 0.736909 0.382171 0.092143
O O5 0.777580 0.922370 0.557739
O O6 0.073990 0.852441 0.727368
O O7 0.978600 0.010103 0.619289
O O8 0.555721 0.320988 0.213010
O O9 0.812536 0.434428 0.408974
O O10 0.000000 0.672476 0.250000
O O11 0.032687 0.667820 0.139816
O O12 0.750000 0.750000 0.000000
O O13 0.137155 0.591230 0.102901
#
# Coordination Sequence:
#
# PCOD9287952 Si02
#       6
#     8   8   8   8   8   8
#     4  11  22  39  65  95 129 174 217 270 327 381
#     4  11  22  36  65  98 126 163 220 269 322 380
#     4  11  23  42  62  94 136 171 214 272 327 390
#     4  12  28  41  61  95 132 178 213 260 333 400
#     4  10  22  38  60  91 126 170 210 275 315 374
#     4  11  23  44  59  90 134 176 215 265 333 387
#
# _framework density 23.497764
#
# number of rings (size 3 to 8) (size 9 to 14) (size 15 to 20)
#    0.000    1.000    5.000    2.000    7.000    0.000 
#    0.000    0.000    0.000    1.000    4.333    0.000 
#    0.000    0.000    0.000    0.000    0.000    0.000 
#
# Total GULP energy -133623.620913 kJ/mol
# GULP energy per Si atom -5567.650871 kJ/mol
# Density = 2.344428 g / cm^3
# Si number density = 23.497764 Si / 1000 Ang^3
#
#
#
# Elastic Constant Matrix: (Units=GPa)
#
#
# Indices 1 2 3 4 5 6 
#
# 1 150.7232 44.9036 69.5074 -0.0016 7.7057 -0.0046
# 2 44.9036 58.2971 7.6836 -0.0041 1.2416 0.0024
# 3 69.5074 7.6836 112.0969 -0.0092 -23.9203 -0.0027
# 4 -0.0016 -0.0041 -0.0092 2.7071 0.0000 4.0271
# 5 7.7057 1.2416 -23.9203 0.0000 47.0513 0.0003
# 6 -0.0046 0.0024 -0.0027 4.0271 0.0003 1.8419
#
#
#
# Elastic Compliance Matrix: (Units=1/GPa)
#
#
# Indices 1 2 3 4 5 6 
#
# 1 0.014358 -0.009624 -0.009748 0.000041 -0.007053 -0.000054
# 2 -0.009624 0.023821 0.005089 -0.000053 0.003535 0.000068
# 3 -0.009748 0.005089 0.016745 -0.000032 0.009975 0.000061
# 4 0.000041 -0.000053 -0.000032 -0.163999 -0.000023 0.358566
# 5 -0.007053 0.003535 0.009975 -0.000023 0.027387 0.000039
# 6 -0.000054 0.000068 0.000061 0.358566 0.000039 -0.241040
#
#
# Mechanical properties :
#
#
# Convention : Reuss Voigt Hill
#
# Bulk Modulus (GPa) = 37.94040 62.81182 50.37611
# Shear Modulus (GPa) = -17.52078 23.58822 3.03372
#
# Velocity S-wave (km/s) = -2.73360 3.17180 1.13748
# Velocity P-wave (km/s) = 2.49360 6.34056 4.81772
#
# Compressibility (1/GPa) = 0.02635713
#
# Stress axis : x y z
#
# Youngs Moduli (GPa) = 69.64667 41.98030 59.71813
#
# Poissons Ratio (x) = 0.40403 0.58216
# Poissons Ratio (y) = 0.67031 -0.30392
# Poissons Ratio (z) = 0.67895 -0.21365
#
# Static dielectric constant tensor:
#      x y z
#    x 1.840400 0.000000 -0.038750 
#    y 0.000000 2.055020 0.000000 
#    z -0.038750 0.000000 2.035920 
# 
# From -- ./inp_files/206501.got.cif
#   From: 2010.05.17/outbox.cif.g08.bks.cpg/sg15_104_cif.got.tgz:206501.got - 2010.06.03 18:47:42.
