data_PCOD9287003
_publ_section_title
;
Structure prediction by ZEFSAII (Michael W. Deem and Ramdas Pophale) SiO2 
 PCOD9287003
Probable space group: C 2/C
;
_chemical_formula_sum "Si O2"
_cell_formula_units_Z 44
_cell_length_a 17.611039
_cell_length_b 9.658209
_cell_length_c 13.486057
_cell_angle_alpha 90.000000
_cell_angle_beta 66.948125
_cell_angle_gamma 90.000000
_cell_volume 2110.695263
_symmetry_space_group_name_H-M "C 2/C"
_symmetry_group_IT_number 15
_symmetry_cell_setting 'monoclinic'
loop_
_space_group_symop_operation_xyz
x,y,z
-x,y,1/2-z
-x,-y,-z
x,-y,1/2+z
1/2+x,1/2+y,z
1/2-x,1/2+y,1/2-z
1/2-x,1/2-y,-z
1/2+x,1/2-y,1/2+z
loop_
_atom_site_type_symbol
_atom_site_label
_atom_site_fract_x
_atom_site_fract_y
_atom_site_fract_z
Si Si1 0.067361 0.899939 0.916264
Si Si2 0.863310 0.597676 0.924148
Si Si3 0.971891 0.627047 0.442893
Si Si4 0.000000 0.788945 0.750000
Si Si5 0.736937 0.437627 0.321386
Si Si6 0.653183 0.162008 0.336494
O O1 0.042704 0.876308 0.814731
O O2 0.156337 0.969298 0.878448
O O3 0.062381 0.752770 0.974655
O O4 0.000000 0.000000 0.000000
O O5 0.902865 0.443881 0.910629
O O6 0.930797 0.693493 0.836231
O O7 0.780874 0.597217 0.902426
O O8 0.849807 0.652326 0.042248
O O9 0.000000 0.500000 0.500000
O O10 0.058281 0.673166 0.349807
O O11 0.706775 0.296986 0.284441
O O12 0.803758 0.524442 0.225550
#
# Coordination Sequence:
#
# PCOD9287003 Si02
#       6
#     8   8   8   4   8   8
#     4  12  25  47  71 105 141 184 235 296 341 420
#     4  11  24  43  75 102 136 185 239 286 350 422
#     4  10  21  45  71  95 140 177 231 292 337 409
#     4  12  22  46  80  96 132 208 228 264 378 424
#     4  12  26  42  70 101 142 180 231 288 358 402
#     4  11  24  45  68 102 141 180 236 290 339 427
#
# _framework density 20.846212999999999
#
# number of rings (size 3 to 8) (size 9 to 14) (size 15 to 20)
#    0.000    0.727    5.455    2.727    7.636    2.182 
#    3.273    0.000    0.000    0.000    0.000    0.000 
#    0.000    0.000    0.000    0.000    0.000    0.000 
#
# Total GULP energy -123083.083369 kJ/mol
# GULP energy per Si atom -5594.685608 kJ/mol
# Density = 2.079877 g / cm^3
# Si number density = 20.846213 Si / 1000 Ang^3
#
#
#
# Elastic Constant Matrix: (Units=GPa)
#
#
# Indices 1 2 3 4 5 6 
#
# 1 92.3771 2.8373 -6.5417 0.0000 -12.1089 0.0000
# 2 2.8373 76.9624 1.4997 0.0000 0.3627 0.0000
# 3 -6.5417 1.4997 72.5978 0.0000 -7.5482 0.0000
# 4 0.0000 0.0000 0.0000 39.7164 0.0000 -6.8423
# 5 -12.1089 0.3627 -7.5482 0.0000 18.3443 0.0000
# 6 0.0000 0.0000 0.0000 -6.8423 0.0000 48.2753
#
#
#
# Elastic Compliance Matrix: (Units=1/GPa)
#
#
# Indices 1 2 3 4 5 6 
#
# 1 0.012147 -0.000529 0.002027 0.000000 0.008862 0.000000
# 2 -0.000529 0.013024 -0.000397 0.000000 -0.000770 0.000000
# 3 0.002027 -0.000397 0.014736 0.000000 0.007409 0.000000
# 4 0.000000 0.000000 0.000000 0.025809 0.000000 0.003658
# 5 0.008862 -0.000770 0.007409 0.000000 0.063426 0.000000
# 6 0.000000 0.000000 0.000000 0.003658 0.000000 0.021233
#
#
# Mechanical properties :
#
#
# Convention : Reuss Voigt Hill
#
# Bulk Modulus (GPa) = 23.74810 26.39202 25.07006
# Shear Modulus (GPa) = 30.82446 37.54334 34.18390
#
# Velocity S-wave (km/s) = 3.84951 4.24838 4.05385
# Velocity P-wave (km/s) = 5.58346 6.06241 5.82786
#
# Compressibility (1/GPa) = 0.04210862
#
# Stress axis : x y z
#
# Youngs Moduli (GPa) = 82.32722 76.78000 67.86242
#
# Poissons Ratio (x) = 0.04062 -0.13755
# Poissons Ratio (y) = 0.04356 0.02693
# Poissons Ratio (z) = -0.16687 0.03047
#
# Static dielectric constant tensor:
#      x y z
#    x 1.788760 0.000000 0.003850 
#    y 0.000000 1.750450 0.000000 
#    z 0.003850 0.000000 1.742610 
# 
# From -- ./inp_files/159663.got.cif
#   From: 2010.05.17/outbox.cif.g08.bks.cpg/sg15_80_cif.got.tgz:159663.got - 2010.06.03 18:47:42.
