data_PCOD9287478
_publ_section_title
;
Structure prediction by ZEFSAII (Michael W. Deem and Ramdas Pophale) SiO2 
 PCOD9287478
Probable space group: C 2/C
;
_chemical_formula_sum "Si O2"
_cell_formula_units_Z 44
_cell_length_a 14.990361
_cell_length_b 14.864984
_cell_length_c 15.066048
_cell_angle_alpha 90.000000
_cell_angle_beta 134.935737
_cell_angle_gamma 90.000000
_cell_volume 2376.552682
_symmetry_space_group_name_H-M "C 2/C"
_symmetry_group_IT_number 15
_symmetry_cell_setting 'monoclinic'
loop_
_space_group_symop_operation_xyz
x,y,z
-x,y,1/2-z
-x,-y,-z
x,-y,1/2+z
1/2+x,1/2+y,z
1/2-x,1/2+y,1/2-z
1/2-x,1/2-y,-z
1/2+x,1/2-y,1/2+z
loop_
_atom_site_type_symbol
_atom_site_label
_atom_site_fract_x
_atom_site_fract_y
_atom_site_fract_z
Si Si1 0.500000 0.454320 0.250000
Si Si2 0.997033 0.072215 0.075360
Si Si3 0.498399 0.173917 0.143488
Si Si4 0.282355 0.900949 0.808714
Si Si5 0.653683 0.290499 0.133704
Si Si6 0.764457 0.398727 0.369250
O O1 0.471499 0.519548 0.147519
O O2 0.626309 0.399904 0.316627
O O3 0.138863 0.109017 0.177382
O O4 0.894256 0.144937 0.976355
O O5 0.000000 0.000000 0.000000
O O6 0.500000 0.184319 0.250000
O O7 0.537187 0.264175 0.117333
O O8 0.369253 0.138786 0.009590
O O9 0.386816 0.893115 0.804479
O O10 0.306943 0.806776 0.876643
O O11 0.293380 0.997002 0.864290
O O12 0.751366 0.340027 0.269175
#
# Coordination Sequence:
#
# PCOD9287478 Si02
#       6
#     4   8   8   8   8   8
#     4  10  24  34  68  88 114 164 208 238 296 370
#     4  11  20  41  61  87 122 162 198 244 299 352
#     4  10  24  35  60  91 121 151 198 253 302 359
#     4   9  22  38  58  87 117 160 197 237 304 356
#     4  10  22  36  64  86 118 161 189 253 299 350
#     4  11  21  41  57  88 123 157 199 246 297 358
#
# _framework density 18.514212000000001
#
# number of rings (size 3 to 8) (size 9 to 14) (size 15 to 20)
#    1.091    0.727    3.636    1.636    3.818    0.727 
#    0.000    3.636    2.000    0.000    0.000    0.000 
#    0.000    0.000    0.000    0.000    0.000    0.000 
#
# Total GULP energy -122472.283181 kJ/mol
# GULP energy per Si atom -5566.921963 kJ/mol
# Density = 1.847207 g / cm^3
# Si number density = 18.514212 Si / 1000 Ang^3
#
#
#
# Elastic Constant Matrix: (Units=GPa)
#
#
# Indices 1 2 3 4 5 6 
#
# 1 32.8095 -11.7332 -7.7444 0.0000 0.2707 0.0000
# 2 -11.7332 85.4432 23.1771 0.0000 2.1744 0.0000
# 3 -7.7444 23.1771 89.0638 0.0000 -4.0242 0.0000
# 4 0.0000 0.0000 0.0000 28.3328 0.0000 11.7475
# 5 0.2707 2.1744 -4.0242 0.0000 25.6534 0.0000
# 6 0.0000 0.0000 0.0000 11.7475 0.0000 21.7635
#
#
#
# Elastic Compliance Matrix: (Units=1/GPa)
#
#
# Indices 1 2 3 4 5 6 
#
# 1 0.032318 0.003971 0.001759 0.000000 -0.000402 0.000000
# 2 0.003971 0.013145 -0.003150 0.000000 -0.001650 0.000000
# 3 0.001759 -0.003150 0.012299 0.000000 0.002178 0.000000
# 4 0.000000 0.000000 0.000000 0.045472 0.000000 -0.024545
# 5 -0.000402 -0.001650 0.002178 0.000000 0.039467 0.000000
# 6 0.000000 0.000000 0.000000 -0.024545 0.000000 0.059197
#
#
# Mechanical properties :
#
#
# Convention : Reuss Voigt Hill
#
# Bulk Modulus (GPa) = 15.89292 23.85728 19.87510
# Shear Modulus (GPa) = 22.96604 28.72439 25.84521
#
# Velocity S-wave (km/s) = 3.52583 3.94315 3.74032
# Velocity P-wave (km/s) = 5.01778 5.80045 5.42325
#
# Compressibility (1/GPa) = 0.06292110
#
# Stress axis : x y z
#
# Youngs Moduli (GPa) = 30.94295 76.07167 81.30757
#
# Poissons Ratio (x) = -0.30209 -0.14299
# Poissons Ratio (y) = -0.12288 0.25613
# Poissons Ratio (z) = -0.05442 0.23964
#
# Static dielectric constant tensor:
#      x y z
#    x 1.638990 0.000000 0.003300 
#    y 0.000000 1.682320 0.000000 
#    z 0.003300 0.000000 1.594790 
# 
# From -- ./inp_files/161110.got.cif
#   From: 2010.05.17/outbox.cif.g08.bks.cpg/sg15_81_cif.got.tgz:161110.got - 2010.06.03 18:47:42.
