data_PCOD9287125
_publ_section_title
;
Structure prediction by ZEFSAII (Michael W. Deem and Ramdas Pophale) SiO2 
 PCOD9287125
Probable space group: C 2/C
;
_chemical_formula_sum "Si O2"
_cell_formula_units_Z 40
_cell_length_a 23.592692
_cell_length_b 12.802873
_cell_length_c 8.654449
_cell_angle_alpha 90.000000
_cell_angle_beta 36.465078
_cell_angle_gamma 90.000000
_cell_volume 1553.652902
_symmetry_space_group_name_H-M "C 2/C"
_symmetry_group_IT_number 15
_symmetry_cell_setting 'monoclinic'
loop_
_space_group_symop_operation_xyz
x,y,z
-x,y,1/2-z
-x,-y,-z
x,-y,1/2+z
1/2+x,1/2+y,z
1/2-x,1/2+y,1/2-z
1/2-x,1/2-y,-z
1/2+x,1/2-y,1/2+z
loop_
_atom_site_type_symbol
_atom_site_label
_atom_site_fract_x
_atom_site_fract_y
_atom_site_fract_z
Si Si1 0.348309 0.495556 0.586010
Si Si2 0.201498 0.552361 0.161758
Si Si3 0.956600 0.860506 0.603830
Si Si4 0.658823 0.808682 0.276110
Si Si5 0.141257 0.256134 0.675817
O O1 0.269814 0.550701 0.863012
O O2 0.275997 0.427891 0.637902
O O3 0.418131 0.426597 0.540247
O O4 0.406050 0.577522 0.353514
O O5 0.167765 0.432680 0.249300
O O6 0.118158 0.635685 0.318978
O O7 0.922290 0.743049 0.649908
O O8 0.068948 0.839371 0.369599
O O9 0.640565 0.778676 0.494334
O O10 0.750000 0.750000 0.000000
O O11 0.250000 0.250000 0.500000
#
# Coordination Sequence:
#
# PCOD9287125 Si02
#       5
#     8   8   8   8   8
#     4  10  21  47  86 116 150 212 259 343 388 472
#     4  11  22  46  84 113 161 207 267 320 416 473
#     4  11  25  50  81 119 162 202 280 328 407 477
#     4  12  23  48  81 114 158 213 259 335 399 481
#     4  12  28  49  73 115 159 214 263 330 398 477
#
# _framework density 25.745774999999998
#
# number of rings (size 3 to 8) (size 9 to 14) (size 15 to 20)
#    0.000    0.800    6.000    1.800    0.000    0.800 
#    7.200   12.000    0.000    0.000    0.000    0.000 
#    0.000    0.000    0.000    0.000    0.000    0.000 
#
# Total GULP energy -111905.373037 kJ/mol
# GULP energy per Si atom -5595.268652 kJ/mol
# Density = 2.568718 g / cm^3
# Si number density = 25.745775 Si / 1000 Ang^3
#
#
#
# Elastic Constant Matrix: (Units=GPa)
#
#
# Indices 1 2 3 4 5 6 
#
# 1 141.4919 59.7521 56.8748 0.0000 6.6804 0.0000
# 2 59.7521 183.3877 35.6547 0.0000 -2.8303 0.0000
# 3 56.8748 35.6547 79.8952 0.0000 16.5406 0.0000
# 4 0.0000 0.0000 0.0000 43.9631 0.0000 -22.9382
# 5 6.6804 -2.8303 16.5406 0.0000 44.9243 0.0000
# 6 0.0000 0.0000 0.0000 -22.9382 0.0000 62.1936
#
#
#
# Elastic Compliance Matrix: (Units=1/GPa)
#
#
# Indices 1 2 3 4 5 6 
#
# 1 0.010669 -0.002142 -0.006801 0.000000 0.000783 0.000000
# 2 -0.002142 0.006492 -0.001649 0.000000 0.001335 0.000000
# 3 -0.006801 -0.001649 0.019383 0.000000 -0.006229 0.000000
# 4 0.000000 0.000000 0.000000 0.028167 0.000000 0.010388
# 5 0.000783 0.001335 -0.006229 0.000000 0.024521 0.000000
# 6 0.000000 0.000000 0.000000 0.010388 0.000000 0.019910
#
#
# Mechanical properties :
#
#
# Convention : Reuss Voigt Hill
#
# Bulk Modulus (GPa) = 65.10052 78.81535 71.95793
# Shear Modulus (GPa) = 36.91533 47.04909 41.98221
#
# Velocity S-wave (km/s) = 3.79072 4.27950 4.04250
# Velocity P-wave (km/s) = 6.67084 7.42282 7.05686
#
# Compressibility (1/GPa) = 0.01536086
#
# Stress axis : x y z
#
# Youngs Moduli (GPa) = 93.73091 154.03731 51.59109
#
# Poissons Ratio (x) = 0.32992 0.35087
# Poissons Ratio (y) = 0.20075 0.08506
# Poissons Ratio (z) = 0.63746 0.25397
#
# Static dielectric constant tensor:
#      x y z
#    x 2.138040 0.000000 -0.085370 
#    y 0.000000 2.322580 0.000000 
#    z -0.085370 0.000000 2.134190 
# 
# From -- ./inp_files/61373.got.cif
#   From: 2010.05.17/outbox.cif.g08.bks.cpg/sg15_31_cif.got.tgz:61373.got - 2010.06.03 18:47:42.
