data_PCOD9287910
_publ_section_title
;
Structure prediction by ZEFSAII (Michael W. Deem and Ramdas Pophale) SiO2 
 PCOD9287910
Probable space group: C 2/C
;
_chemical_formula_sum "Si O2"
_cell_formula_units_Z 56
_cell_length_a 19.581757
_cell_length_b 21.289034
_cell_length_c 5.582070
_cell_angle_alpha 90.000000
_cell_angle_beta 105.904792
_cell_angle_gamma 90.000000
_cell_volume 2237.952234
_symmetry_space_group_name_H-M "C 2/C"
_symmetry_group_IT_number 15
_symmetry_cell_setting 'monoclinic'
loop_
_space_group_symop_operation_xyz
x,y,z
-x,y,1/2-z
-x,-y,-z
x,-y,1/2+z
1/2+x,1/2+y,z
1/2-x,1/2+y,1/2-z
1/2-x,1/2-y,-z
1/2+x,1/2-y,1/2+z
loop_
_atom_site_type_symbol
_atom_site_label
_atom_site_fract_x
_atom_site_fract_y
_atom_site_fract_z
Si Si1 0.236537 0.848509 0.011425
Si Si2 0.593633 0.713276 0.252787
Si Si3 0.617486 0.829282 0.512647
Si Si4 0.414484 0.968651 0.168627
Si Si5 0.301991 0.534020 0.310579
Si Si6 0.811934 0.299861 0.490395
Si Si7 0.538003 0.414829 0.540655
O O1 0.300944 0.805994 0.970161
O O2 0.266782 0.852694 0.305787
O O3 0.156071 0.826217 0.944643
O O4 0.238325 0.905051 0.826899
O O5 0.570097 0.768976 0.408800
O O6 0.545538 0.660516 0.087509
O O7 0.633990 0.752525 0.089525
O O8 0.600145 0.893704 0.364915
O O9 0.630151 0.838728 0.801507
O O10 0.500000 0.976439 0.250000
O O11 0.387917 0.998477 0.394873
O O12 0.288174 0.512175 0.569165
O O13 0.385115 0.553097 0.390297
O O14 0.750000 0.250000 0.500000
O O15 0.500000 0.436612 0.750000
O O16 0.500000 0.424840 0.250000
#
# Coordination Sequence:
#
# PCOD9287910 Si02
#       7
#     8   8   8   8   8   8   8
#     4  10  22  38  59  97 133 168 205 265 329 383
#     4  10  22  39  60  98 133 166 208 267 331 388
#     4  11  22  38  67  95 124 169 214 249 320 402
#     4  10  25  48  66  87 124 167 213 267 316 361
#     4  11  26  44  67  94 130 175 227 277 324 382
#     4  11  19  35  65  93 135 170 205 252 327 408
#     4  11  26  45  68  94 131 175 223 280 332 380
#
# _framework density 25.022874000000002
#
# number of rings (size 3 to 8) (size 9 to 14) (size 15 to 20)
#    0.000    1.429    2.857    1.714    8.000    3.429 
#    0.000    0.000    0.000    0.000    0.000    0.000 
#    0.000    0.000    0.000    0.000    0.000    0.000 
#
# Total GULP energy -155996.646412 kJ/mol
# GULP energy per Si atom -5571.308800 kJ/mol
# Density = 2.496592 g / cm^3
# Si number density = 25.022874 Si / 1000 Ang^3
#
#
#
# Elastic Constant Matrix: (Units=GPa)
#
#
# Indices 1 2 3 4 5 6 
#
# 1 39.6140 -2.2746 22.4752 0.0000 7.3570 0.0000
# 2 -2.2746 133.2984 83.6996 0.0000 12.5634 0.0000
# 3 22.4752 83.6996 165.5197 0.0000 19.4713 0.0000
# 4 0.0000 0.0000 0.0000-1172.2282 0.0000 -24.4577
# 5 7.3570 12.5634 19.4713 0.0000 25.0643 0.0000
# 6 0.0000 0.0000 0.0000 -24.4577 0.0000 34.9590
#
#
#
# Elastic Compliance Matrix: (Units=1/GPa)
#
#
# Indices 1 2 3 4 5 6 
#
# 1 0.029974 0.004696 -0.005649 0.000000 -0.006764 0.000000
# 2 0.004696 0.011767 -0.006309 0.000000 -0.002376 0.000000
# 3 -0.005649 -0.006309 0.010380 0.000000 -0.003244 0.000000
# 4 0.000000 0.000000 0.000000 -0.000841 0.000000 -0.000588
# 5 -0.006764 -0.002376 -0.003244 0.000000 0.045593 0.000000
# 6 0.000000 0.000000 0.000000 -0.000588 0.000000 0.028193
#
#
# Mechanical properties :
#
#
# Convention : Reuss Voigt Hill
#
# Bulk Modulus (GPa) = 26.59665 60.69252 43.64458
# Shear Modulus (GPa) = 32.86784 -206.80552 -86.96884
#
# Velocity S-wave (km/s) = 3.62817 -9.10088 -5.90180
# Velocity P-wave (km/s) = 5.31070 9.28047 5.38162
#
# Compressibility (1/GPa) = 0.03759873
#
# Stress axis : x y z
#
# Youngs Moduli (GPa) = 33.36175 84.98136 96.33568
#
# Poissons Ratio (x) = -0.39908 0.54422
# Poissons Ratio (y) = -0.15667 0.60775
# Poissons Ratio (z) = 0.18847 0.53612
#
# Static dielectric constant tensor:
#      x y z
#    x 2.048100 0.000000 -0.193310 
#    y 0.000000 -1.245070 0.000000 
#    z -0.193310 0.000000 2.417250 
# 
# From -- ./inp_files/15859.got.cif
#   From: 2010.05.17/outbox.cif.g08.bks.cpg/sg15_8_cif.got.tgz:15859.got - 2010.06.03 18:47:42.
