data_PCOD9287740
_publ_section_title
;
Structure prediction by ZEFSAII (Michael W. Deem and Ramdas Pophale) SiO2 
 PCOD9287740
Probable space group: C 2/C
;
_chemical_formula_sum "Si O2"
_cell_formula_units_Z 48
_cell_length_a 11.539342
_cell_length_b 18.984580
_cell_length_c 15.633051
_cell_angle_alpha 90.000000
_cell_angle_beta 36.544733
_cell_angle_gamma 90.000000
_cell_volume 2039.253583
_symmetry_space_group_name_H-M "C 2/C"
_symmetry_group_IT_number 15
_symmetry_cell_setting 'monoclinic'
loop_
_space_group_symop_operation_xyz
x,y,z
-x,y,1/2-z
-x,-y,-z
x,-y,1/2+z
1/2+x,1/2+y,z
1/2-x,1/2+y,1/2-z
1/2-x,1/2-y,-z
1/2+x,1/2-y,1/2+z
loop_
_atom_site_type_symbol
_atom_site_label
_atom_site_fract_x
_atom_site_fract_y
_atom_site_fract_z
Si Si1 0.349598 0.478589 0.416887
Si Si2 0.726913 0.696046 0.412446
Si Si3 0.503933 0.866828 0.868659
Si Si4 0.955188 0.674989 0.578106
Si Si5 0.109532 0.893702 0.369498
Si Si6 0.319807 0.884369 0.415554
O O1 0.500000 0.466339 0.250000
O O2 0.158328 0.428161 0.531256
O O3 0.487299 0.462322 0.417230
O O4 0.263946 0.556574 0.472323
O O5 0.887273 0.698084 0.392531
O O6 0.669346 0.758766 0.382650
O O7 0.534676 0.668266 0.571895
O O8 0.811451 0.631148 0.303027
O O9 0.565368 0.849787 0.927970
O O10 0.803584 0.614984 0.698605
O O11 0.096459 0.679421 0.576514
O O12 0.160612 0.873934 0.436555
O O13 0.500000 0.911874 0.250000
#
# Coordination Sequence:
#
# PCOD9287740 Si02
#       6
#     8   8   8   8   8   8
#     4  11  22  41  65  94 126 165 223 274 318 382
#     4  10  22  37  66  94 127 166 210 269 322 386
#     4  10  22  38  62 100 125 163 211 274 324 369
#     4  11  21  41  60  93 129 164 214 262 326 386
#     4  10  22  42  62  92 128 173 215 262 327 382
#     4  10  25  41  62  89 131 178 212 263 321 389
#
# _framework density 23.538024
#
# number of rings (size 3 to 8) (size 9 to 14) (size 15 to 20)
#    0.000    1.667    1.667    2.000    4.667    6.667 
#    0.000    1.667    0.000    0.000    0.000    0.000 
#    0.000    0.000    0.000    0.000    0.000    0.000 
#
# Total GULP energy -133645.429738 kJ/mol
# GULP energy per Si atom -5568.559572 kJ/mol
# Density = 2.348445 g / cm^3
# Si number density = 23.538024 Si / 1000 Ang^3
#
#
#
# Elastic Constant Matrix: (Units=GPa)
#
#
# Indices 1 2 3 4 5 6 
#
# 1 131.0390 15.8692 8.1773 -0.0034 18.3147 0.0035
# 2 15.8692 38.5519 1.6502 -0.0076 2.8169 0.0048
# 3 8.1773 1.6502 64.2816 -0.0114 14.3514 0.0055
# 4 -0.0034 -0.0076 -0.0114 19.4702 0.0057 4.8707
# 5 18.3147 2.8169 14.3514 0.0057 36.3134 -0.0024
# 6 0.0035 0.0048 0.0055 4.8707 -0.0024 22.1773
#
#
#
# Elastic Compliance Matrix: (Units=1/GPa)
#
#
# Indices 1 2 3 4 5 6 
#
# 1 0.008595 -0.003238 -0.000108 0.000002 -0.004041 -0.000001
# 2 -0.003238 0.027310 -0.000198 0.000012 -0.000407 -0.000008
# 3 -0.000108 -0.000198 0.017066 0.000014 -0.006675 -0.000008
# 4 0.000002 0.000012 0.000014 0.054347 -0.000017 -0.011936
# 5 -0.004041 -0.000407 -0.006675 -0.000017 0.032246 0.000010
# 6 -0.000001 -0.000008 -0.000008 -0.011936 0.000010 0.047712
#
#
# Mechanical properties :
#
#
# Convention : Reuss Voigt Hill
#
# Bulk Modulus (GPa) = 21.79509 31.69620 26.74564
# Shear Modulus (GPa) = 23.84835 29.47057 26.65946
#
# Velocity S-wave (km/s) = 3.18651 3.54226 3.36908
# Velocity P-wave (km/s) = 4.77683 5.49775 5.14992
#
# Compressibility (1/GPa) = 0.04588190
#
# Stress axis : x y z
#
# Youngs Moduli (GPa) = 116.34685 36.61642 58.59753
#
# Poissons Ratio (x) = 0.11857 0.00633
# Poissons Ratio (y) = 0.37674 0.01162
# Poissons Ratio (z) = 0.01257 0.00726
#
# Static dielectric constant tensor:
#      x y z
#    x 1.933150 0.000000 0.005250 
#    y 0.000000 1.935500 0.000000 
#    z 0.005250 0.000000 1.889990 
# 
# From -- ./inp_files/147365.got.cif
#   From: 2010.05.17/outbox.cif.g08.bks.cpg/sg15_74_cif.got.tgz:147365.got - 2010.06.03 18:47:42.
