data_PCOD9287148
_publ_section_title
;
Structure prediction by ZEFSAII (Michael W. Deem and Ramdas Pophale) SiO2 
 PCOD9287148
Probable space group: C 2/C
;
_chemical_formula_sum "Si O2"
_cell_formula_units_Z 64
_cell_length_a 16.739786
_cell_length_b 23.234387
_cell_length_c 14.765688
_cell_angle_alpha 90.000000
_cell_angle_beta 37.669429
_cell_angle_gamma 90.000000
_cell_volume 3509.542385
_symmetry_space_group_name_H-M "C 2/C"
_symmetry_group_IT_number 15
_symmetry_cell_setting 'monoclinic'
loop_
_space_group_symop_operation_xyz
x,y,z
-x,y,1/2-z
-x,-y,-z
x,-y,1/2+z
1/2+x,1/2+y,z
1/2-x,1/2+y,1/2-z
1/2-x,1/2-y,-z
1/2+x,1/2-y,1/2+z
loop_
_atom_site_type_symbol
_atom_site_label
_atom_site_fract_x
_atom_site_fract_y
_atom_site_fract_z
Si Si1 0.182495 0.027517 0.428497
Si Si2 0.777714 0.164711 0.638104
Si Si3 0.578251 0.428744 0.394560
Si Si4 0.999179 0.369014 0.355734
Si Si5 0.018310 0.503204 0.376549
Si Si6 0.768767 0.987285 0.410008
Si Si7 0.354906 0.387937 0.871105
Si Si8 0.261468 0.214333 0.085124
O O1 0.077798 0.071039 0.478894
O O2 0.125884 0.968348 0.436266
O O3 0.337968 0.029761 0.269084
O O4 0.173035 0.028727 0.544955
O O5 0.867469 0.133405 0.629943
O O6 0.626363 0.152602 0.792882
O O7 0.802953 0.135011 0.515457
O O8 0.788702 0.233156 0.626366
O O9 0.649532 0.458773 0.244610
O O10 0.013761 0.437612 0.345816
O O11 0.000000 0.351725 0.250000
O O12 0.873081 0.333677 0.499174
O O13 0.000000 0.500000 0.500000
O O14 0.884487 0.530462 0.457925
O O15 0.775774 0.057582 0.402703
O O16 0.500000 0.410828 0.750000
O O17 0.361139 0.329439 0.805148
O O18 0.250000 0.250000 0.000000
#
# Coordination Sequence:
#
# PCOD9287148 Si02
#       8
#     8   8   8   8   8   8   8   8
#     4  11  22  37  55  83 114 160 193 245 292 347
#     4  11  22  37  52  77 116 158 194 240 287 341
#     4  11  23  38  56  82 121 160 202 245 291 360
#     4  12  19  36  54  75 113 155 198 237 282 354
#     4  12  22  36  56  86 120 160 198 240 299 356
#     4  12  21  38  59  83 120 161 198 242 303 353
#     4  11  21  31  52  83 114 156 193 232 288 350
#     4  10  22  32  51  77 109 156 199 231 279 350
#
# _framework density 18.235996
#
# number of rings (size 3 to 8) (size 9 to 14) (size 15 to 20)
#    0.000    0.750    7.500    2.250    5.250    0.000 
#    0.000    0.000    0.000    0.000    0.000    0.000 
#    0.000   31.000    0.000    0.000    0.000    0.000 
#
# Total GULP energy -178245.841542 kJ/mol
# GULP energy per Si atom -5570.182548 kJ/mol
# Density = 1.819449 g / cm^3
# Si number density = 18.235996 Si / 1000 Ang^3
#
#
#
# Elastic Constant Matrix: (Units=GPa)
#
#
# Indices 1 2 3 4 5 6 
#
# 1 99.7060 25.4745 31.3253 0.0016 -18.4391 -0.0007
# 2 25.4745 63.9073 19.0082 -0.0005 -5.4114 0.0009
# 3 31.3253 19.0082 61.3900 0.0039 -23.7459 -0.0022
# 4 0.0016 -0.0005 0.0039 13.3937 -0.0021 -0.8084
# 5 -18.4391 -5.4114 -23.7459 -0.0021 41.8216 0.0004
# 6 -0.0007 0.0009 -0.0022 -0.8084 0.0004 26.3999
#
#
#
# Elastic Compliance Matrix: (Units=1/GPa)
#
#
# Indices 1 2 3 4 5 6 
#
# 1 0.012822 -0.003576 -0.004392 0.000000 0.002697 0.000000
# 2 -0.003576 0.018267 -0.004519 0.000002 -0.001779 -0.000001
# 3 -0.004392 -0.004519 0.024289 -0.000005 0.011270 0.000002
# 4 0.000000 0.000002 -0.000005 0.074800 0.000001 0.002290
# 5 0.002697 -0.001779 0.011270 0.000001 0.031269 0.000001
# 6 0.000000 -0.000001 0.000002 0.002290 0.000001 0.037949
#
#
# Mechanical properties :
#
#
# Convention : Reuss Voigt Hill
#
# Bulk Modulus (GPa) = 32.89253 41.84658 37.36955
# Shear Modulus (GPa) = 21.32151 26.26940 23.79546
#
# Velocity S-wave (km/s) = 3.42307 3.79954 3.61621
# Velocity P-wave (km/s) = 5.80512 6.49967 6.16219
#
# Compressibility (1/GPa) = 0.03040204
#
# Stress axis : x y z
#
# Youngs Moduli (GPa) = 77.99212 54.74423 41.17092
#
# Poissons Ratio (x) = 0.19578 0.18083
# Poissons Ratio (y) = 0.27892 0.18606
# Poissons Ratio (z) = 0.34256 0.24741
#
# Static dielectric constant tensor:
#      x y z
#    x 1.670380 0.000000 -0.027370 
#    y 0.000000 1.642360 0.000000 
#    z -0.027370 0.000000 1.697610 
# 
# From -- ./inp_files/156787.got.cif
#   From: 2010.05.17/outbox.cif.g08.bks.cpg/sg15_79_cif.got.tgz:156787.got - 2010.06.03 18:47:42.
