data_PCOD9287620
_publ_section_title
;
Structure prediction by ZEFSAII (Michael W. Deem and Ramdas Pophale) SiO2 
 PCOD9287620
Probable space group: C 2/C
;
_chemical_formula_sum "Si O2"
_cell_formula_units_Z 48
_cell_length_a 17.266597
_cell_length_b 16.349900
_cell_length_c 14.325840
_cell_angle_alpha 90.000000
_cell_angle_beta 137.736407
_cell_angle_gamma 90.000000
_cell_volume 2719.954375
_symmetry_space_group_name_H-M "C 2/C"
_symmetry_group_IT_number 15
_symmetry_cell_setting 'monoclinic'
loop_
_space_group_symop_operation_xyz
x,y,z
-x,y,1/2-z
-x,-y,-z
x,-y,1/2+z
1/2+x,1/2+y,z
1/2-x,1/2+y,1/2-z
1/2-x,1/2-y,-z
1/2+x,1/2-y,1/2+z
loop_
_atom_site_type_symbol
_atom_site_label
_atom_site_fract_x
_atom_site_fract_y
_atom_site_fract_z
Si Si1 0.878244 0.049218 0.888193
Si Si2 0.045777 0.792247 0.137898
Si Si3 0.836148 0.176744 0.561500
Si Si4 0.043868 0.599266 0.114750
Si Si5 0.786279 0.490640 0.596333
Si Si6 0.173469 0.504350 0.072385
O O1 0.906827 0.144602 0.895690
O O2 0.800841 0.036435 0.911683
O O3 0.795088 0.015005 0.730992
O O4 0.000000 0.000000 0.000000
O O5 0.096380 0.823631 0.281067
O O6 0.066518 0.695518 0.147181
O O7 0.910546 0.804644 0.035762
O O8 0.750000 0.250000 0.500000
O O9 0.777058 0.091130 0.493561
O O10 0.104436 0.543202 0.248153
O O11 0.103070 0.568939 0.072290
O O12 0.908845 0.576347 0.997445
O O13 0.815969 0.533177 0.525040
#
# Coordination Sequence:
#
# PCOD9287620 Si02
#       6
#     8   8   8   8   8   8
#     4  11  23  38  55  84 119 158 186 235 287 351
#     4  11  22  34  55  88 118 143 195 239 290 338
#     4  11  20  32  56  87 115 144 183 247 293 338
#     4  10  22  37  60  88 116 151 190 247 288 340
#     4  11  20  37  60  84 118 155 192 229 295 346
#     4  10  22  39  57  85 119 153 193 236 291 345
#
# _framework density 17.647354
#
# number of rings (size 3 to 8) (size 9 to 14) (size 15 to 20)
#    0.000    1.333    5.000    1.500    2.333    0.667 
#    0.000    0.833    0.000    0.000   13.000    0.000 
#    0.000    0.000    0.000    0.000    0.000    0.000 
#
# Total GULP energy -133787.003851 kJ/mol
# GULP energy per Si atom -5574.458494 kJ/mol
# Density = 1.760719 g / cm^3
# Si number density = 17.647354 Si / 1000 Ang^3
#
#
#
# Elastic Constant Matrix: (Units=GPa)
#
#
# Indices 1 2 3 4 5 6 
#
# 1 111.7584 31.3478 47.3930 0.0000 -12.3257 0.0000
# 2 31.3478 51.8996 21.9315 0.0000 -0.6193 0.0000
# 3 47.3930 21.9315 90.6328 0.0000 1.8353 0.0000
# 4 0.0000 0.0000 0.0000 22.8417 0.0000 -0.0150
# 5 -12.3257 -0.6193 1.8353 0.0000 33.3285 0.0000
# 6 0.0000 0.0000 0.0000 -0.0150 0.0000 28.1256
#
#
#
# Elastic Compliance Matrix: (Units=1/GPa)
#
#
# Indices 1 2 3 4 5 6 
#
# 1 0.013597 -0.005682 -0.005841 0.000000 0.005245 0.000000
# 2 -0.005682 0.023852 -0.002770 0.000000 -0.001505 0.000000
# 3 -0.005841 -0.002770 0.014820 0.000000 -0.003028 0.000000
# 4 0.000000 0.000000 0.000000 0.043780 0.000000 0.000023
# 5 0.005245 -0.001505 -0.003028 0.000000 0.032083 0.000000
# 6 0.000000 0.000000 0.000000 0.000023 0.000000 0.035555
#
#
# Mechanical properties :
#
#
# Convention : Reuss Voigt Hill
#
# Bulk Modulus (GPa) = 42.22548 50.62614 46.42581
# Shear Modulus (GPa) = 24.97906 27.10041 26.03974
#
# Velocity S-wave (km/s) = 3.76634 3.92301 3.84547
# Velocity P-wave (km/s) = 6.54928 7.01925 6.78833
#
# Compressibility (1/GPa) = 0.02368238
#
# Stress axis : x y z
#
# Youngs Moduli (GPa) = 73.54471 41.92436 67.47740
#
# Poissons Ratio (x) = 0.23820 0.39417
# Poissons Ratio (y) = 0.41786 0.18693
# Poissons Ratio (z) = 0.42961 0.11614
#
# Static dielectric constant tensor:
#      x y z
#    x 1.644470 0.000000 0.034580 
#    y 0.000000 1.568900 0.000000 
#    z 0.034580 0.000000 1.717490 
# 
# From -- ./inp_files/96836.got.cif
#   From: 2010.05.17/outbox.cif.g08.bks.cpg/sg15_49_cif.got.tgz:96836.got - 2010.06.03 18:47:42.
