data_PCOD9287338
_publ_section_title
;
Structure prediction by ZEFSAII (Michael W. Deem and Ramdas Pophale) SiO2 
 PCOD9287338
Probable space group: C 2/C
;
_chemical_formula_sum "Si O2"
_cell_formula_units_Z 56
_cell_length_a 12.333286
_cell_length_b 17.623689
_cell_length_c 14.364030
_cell_angle_alpha 90.000000
_cell_angle_beta 137.646734
_cell_angle_gamma 90.000000
_cell_volume 2103.383033
_symmetry_space_group_name_H-M "C 2/C"
_symmetry_group_IT_number 15
_symmetry_cell_setting 'monoclinic'
loop_
_space_group_symop_operation_xyz
x,y,z
-x,y,1/2-z
-x,-y,-z
x,-y,1/2+z
1/2+x,1/2+y,z
1/2-x,1/2+y,1/2-z
1/2-x,1/2-y,-z
1/2+x,1/2-y,1/2+z
loop_
_atom_site_type_symbol
_atom_site_label
_atom_site_fract_x
_atom_site_fract_y
_atom_site_fract_z
Si Si1 0.018980 0.754874 0.372860
Si Si2 0.774710 0.531696 0.275444
Si Si3 0.279789 0.374054 0.239082
Si Si4 0.067790 0.680636 0.928038
Si Si5 0.118144 0.831774 0.751954
Si Si6 0.119768 0.475962 0.437192
Si Si7 0.764209 0.625881 0.998256
O O1 0.869453 0.797139 0.323475
O O2 0.000000 0.753700 0.250000
O O3 0.069217 0.668993 0.422373
O O4 0.165508 0.811411 0.491876
O O5 0.674541 0.455139 0.190230
O O6 0.679920 0.610987 0.210914
O O7 0.821807 0.529936 0.417258
O O8 0.943179 0.514414 0.331026
O O9 0.090064 0.360403 0.130005
O O10 0.316926 0.382557 0.153527
O O11 0.128205 0.609351 0.902169
O O12 0.991755 0.759881 0.847022
O O13 0.221550 0.694023 0.090655
O O14 0.000000 0.874838 0.750000
O O15 0.221578 0.542323 0.452990
#
# Coordination Sequence:
#
# PCOD9287338 Si02
#       7
#     8   8   8   8   8   8   8
#     4   9  18  28  44  78 109 133 165 215 270 317
#     4   8  16  30  51  77  96 130 184 221 258 303
#     4   9  18  31  52  77 102 135 179 222 261 312
#     4  10  22  36  56  82 104 141 183 222 268 320
#     4  11  22  37  56  80 109 139 180 228 274 318
#     4   8  15  31  52  75 102 136 178 218 258 315
#     4   9  16  29  49  72 107 137 174 212 260 320
#
# _framework density 26.623775999999999
#
# number of rings (size 3 to 8) (size 9 to 14) (size 15 to 20)
#    0.000    2.857    0.000    3.000    4.000    4.000 
#    0.000    0.714    0.000    6.857    0.000    0.000 
#    0.000    0.000    0.000    0.000    0.000    0.000 
#
# Total GULP energy -156106.432477 kJ/mol
# GULP energy per Si atom -5575.229731 kJ/mol
# Density = 2.656318 g / cm^3
# Si number density = 26.623776 Si / 1000 Ang^3
#
#
#
# Elastic Constant Matrix: (Units=GPa)
#
#
# Indices 1 2 3 4 5 6 
#
# 1 27.8669 24.0173 24.2796 0.0000 11.4547 0.0000
# 2 24.0173 201.7818 45.0518 0.0001 14.8407 0.0000
# 3 24.2796 45.0518 79.8657 0.0002 21.9150 0.0001
# 4 0.0000 0.0001 0.0002 30.7035 0.0001 3.2302
# 5 11.4547 14.8407 21.9150 0.0001 36.5337 0.0000
# 6 0.0000 0.0000 0.0001 3.2302 0.0000 25.5095
#
#
#
# Elastic Compliance Matrix: (Units=1/GPa)
#
#
# Indices 1 2 3 4 5 6 
#
# 1 0.052156 -0.002941 -0.012015 0.000000 -0.007951 0.000000
# 2 -0.002941 0.005842 -0.002398 0.000000 -0.000013 0.000000
# 3 -0.012015 -0.002398 0.019422 0.000000 -0.006909 0.000000
# 4 0.000000 0.000000 0.000000 0.033009 0.000000 -0.004180
# 5 -0.007951 -0.000013 -0.006909 0.000000 0.034015 0.000000
# 6 0.000000 0.000000 0.000000 -0.004180 0.000000 0.039730
#
#
# Mechanical properties :
#
#
# Convention : Reuss Voigt Hill
#
# Bulk Modulus (GPa) = 23.41223 55.13464 39.27343
# Shear Modulus (GPa) = 21.44819 32.96039 27.20429
#
# Velocity S-wave (km/s) = 2.84139 3.52235 3.20004
# Velocity P-wave (km/s) = 4.42465 6.10707 5.33263
#
# Compressibility (1/GPa) = 0.04271273
#
# Stress axis : x y z
#
# Youngs Moduli (GPa) = 19.17333 171.16799 51.48704
#
# Poissons Ratio (x) = 0.50332 0.61863
# Poissons Ratio (y) = 0.05638 0.12347
# Poissons Ratio (z) = 0.23037 0.41048
#
# Static dielectric constant tensor:
#      x y z
#    x 2.224560 0.000000 0.004760 
#    y 0.000000 2.202240 0.000000 
#    z 0.004760 0.000000 2.147630 
# 
# From -- ./inp_files/277744.got.cif
#   From: 2010.05.17/outbox.cif.g08.bks.cpg/sg15_139_cif.got.tgz:277744.got - 2010.06.03 18:47:42.
