data_PCOD9287970
_publ_section_title
;
Structure prediction by ZEFSAII (Michael W. Deem and Ramdas Pophale) SiO2 
 PCOD9287970
Probable space group: C 2/C
;
_chemical_formula_sum "Si O2"
_cell_formula_units_Z 48
_cell_length_a 24.883154
_cell_length_b 12.313697
_cell_length_c 8.977178
_cell_angle_alpha 90.000000
_cell_angle_beta 123.474641
_cell_angle_gamma 90.000000
_cell_volume 2294.391271
_symmetry_space_group_name_H-M "C 2/C"
_symmetry_group_IT_number 15
_symmetry_cell_setting 'monoclinic'
loop_
_space_group_symop_operation_xyz
x,y,z
-x,y,1/2-z
-x,-y,-z
x,-y,1/2+z
1/2+x,1/2+y,z
1/2-x,1/2+y,1/2-z
1/2-x,1/2-y,-z
1/2+x,1/2-y,1/2+z
loop_
_atom_site_type_symbol
_atom_site_label
_atom_site_fract_x
_atom_site_fract_y
_atom_site_fract_z
Si Si1 0.774369 0.002726 0.988231
Si Si2 0.438426 0.957906 0.045885
Si Si3 0.162046 0.861736 0.159321
Si Si4 0.987692 0.115041 0.057347
Si Si5 0.482711 0.820514 0.555740
Si Si6 0.698154 0.124039 0.118890
O O1 0.724544 0.945704 0.799185
O O2 0.827949 0.056950 0.964611
O O3 0.803804 0.914470 0.145516
O O4 0.740990 0.092956 0.042049
O O5 0.500000 0.952398 0.250000
O O6 0.430353 0.083510 0.986875
O O7 0.458611 0.884787 0.935644
O O8 0.374886 0.912936 0.022908
O O9 0.194633 0.748945 0.161632
O O10 0.086614 0.850649 0.078345
O O11 0.000000 0.106404 0.250000
O O12 0.030873 0.212323 0.056510
O O13 0.000000 0.000000 0.000000
O O14 0.500000 0.788563 0.750000
#
# Coordination Sequence:
#
# PCOD9287970 Si02
#       6
#     8   8   8   8   8   8
#     4  10  25  42  64  96 119 172 218 263 309 382
#     4  10  22  39  63  97 133 162 201 263 324 383
#     4  11  23  46  65  87 132 164 216 269 313 372
#     4  12  25  42  66  96 127 171 212 258 324 387
#     4  10  22  38  60  94 133 162 203 251 325 376
#     4  11  23  41  69  92 130 165 215 259 326 379
#
# _framework density 20.920582
#
# number of rings (size 3 to 8) (size 9 to 14) (size 15 to 20)
#    0.000    1.333    1.667    3.000    7.000    0.667 
#    0.000    6.667    0.000    0.000    0.000    0.000 
#    0.000    0.000    0.000    0.000    0.000    0.000 
#
# Total GULP energy -134158.619522 kJ/mol
# GULP energy per Si atom -5589.942480 kJ/mol
# Density = 2.087297 g / cm^3
# Si number density = 20.920582 Si / 1000 Ang^3
#
#
#
# Elastic Constant Matrix: (Units=GPa)
#
#
# Indices 1 2 3 4 5 6 
#
# 1 41.0457 4.1124 22.6633 0.0000 -5.7990 0.0000
# 2 4.1124 142.6518 36.5673 0.0000 -19.9827 0.0000
# 3 22.6633 36.5673 102.6877 0.0000 -23.6738 0.0000
# 4 0.0000 0.0000 0.0000 0.3831 0.0000 5.7610
# 5 -5.7990 -19.9827 -23.6738 0.0000 36.2399 0.0000
# 6 0.0000 0.0000 0.0000 5.7610 0.0000 27.4420
#
#
#
# Elastic Compliance Matrix: (Units=1/GPa)
#
#
# Indices 1 2 3 4 5 6 
#
# 1 0.027860 0.000928 -0.006279 0.000000 0.000868 0.000000
# 2 0.000928 0.008012 -0.002361 0.000000 0.003024 0.000000
# 3 -0.006279 -0.002361 0.013460 0.000000 0.006486 0.000000
# 4 0.000000 0.000000 0.000000 -1.210121 0.000000 0.254046
# 5 0.000868 0.003024 0.006486 0.000000 0.033638 0.000000
# 6 0.000000 0.000000 0.000000 0.254046 0.000000 -0.016892
#
#
# Mechanical properties :
#
#
# Convention : Reuss Voigt Hill
#
# Bulk Modulus (GPa) = 29.49126 45.89680 37.69403
# Shear Modulus (GPa) = -4.47500 27.68249 11.60374
#
# Velocity S-wave (km/s) = -1.46413 3.64155 2.35767
# Velocity P-wave (km/s) = 3.35695 6.29821 5.04661
#
# Compressibility (1/GPa) = 0.03390835
#
# Stress axis : x y z
#
# Youngs Moduli (GPa) = 35.89416 124.81119 74.29370
#
# Poissons Ratio (x) = -0.11583 0.46649
# Poissons Ratio (y) = -0.03331 0.17539
# Poissons Ratio (z) = 0.22538 0.29465
#
# Static dielectric constant tensor:
#      x y z
#    x 1.786720 0.000000 0.013280 
#    y 0.000000 1.754270 0.000000 
#    z 0.013280 0.000000 1.743910 
# 
# From -- ./inp_files/65244.got.cif
#   From: 2010.05.17/outbox.cif.g08.bks.cpg/sg15_33_cif.got.tgz:65244.got - 2010.06.03 18:47:42.
