data_PCOD9287152
_publ_section_title
;
Structure prediction by ZEFSAII (Michael W. Deem and Ramdas Pophale) SiO2 
 PCOD9287152
Probable space group: C 2/C
;
_chemical_formula_sum "Si O2"
_cell_formula_units_Z 64
_cell_length_a 27.883813
_cell_length_b 16.673059
_cell_length_c 11.605567
_cell_angle_alpha 90.000000
_cell_angle_beta 31.053300
_cell_angle_gamma 90.000000
_cell_volume 2783.202594
_symmetry_space_group_name_H-M "C 2/C"
_symmetry_group_IT_number 15
_symmetry_cell_setting 'monoclinic'
loop_
_space_group_symop_operation_xyz
x,y,z
-x,y,1/2-z
-x,-y,-z
x,-y,1/2+z
1/2+x,1/2+y,z
1/2-x,1/2+y,1/2-z
1/2-x,1/2-y,-z
1/2+x,1/2-y,1/2+z
loop_
_atom_site_type_symbol
_atom_site_label
_atom_site_fract_x
_atom_site_fract_y
_atom_site_fract_z
Si Si1 0.282462 0.122500 0.352596
Si Si2 0.359493 0.806620 0.340699
Si Si3 0.741587 0.049711 0.332003
Si Si4 0.074013 0.274295 0.692012
Si Si5 0.440892 0.746717 0.521356
Si Si6 0.668561 0.395549 0.311152
Si Si7 0.777041 0.685305 0.777607
Si Si8 0.417346 0.956792 0.736951
O O1 0.233768 0.083058 0.344090
O O2 0.354941 0.193251 0.170863
O O3 0.219962 0.141685 0.592636
O O4 0.346174 0.054353 0.278443
O O5 0.288592 0.872841 0.533844
O O6 0.306886 0.725069 0.480452
O O7 0.357563 0.824874 0.207753
O O8 0.461196 0.795689 0.189424
O O9 0.821600 0.991898 0.219640
O O10 0.640457 0.004533 0.547419
O O11 0.061551 0.229304 0.836793
O O12 0.173817 0.264356 0.425830
O O13 0.064454 0.368728 0.747441
O O14 0.000000 0.250389 0.750000
O O15 0.420945 0.662404 0.498844
O O16 0.729293 0.384296 0.302402
O O17 0.500000 0.000000 0.500000
#
# Coordination Sequence:
#
# PCOD9287152 Si02
#       8
#     8   8   8   8   8   8   8   8
#     4  10  22  37  59  94 135 179 228 276 342 424
#     4  11  26  41  68 100 139 172 243 296 358 409
#     4  11  23  38  60  97 135 174 218 290 349 415
#     4  11  21  37  65  92 137 180 227 281 348 421
#     4  11  22  42  66 103 132 183 236 289 344 427
#     4  11  24  39  68  97 138 186 229 281 353 436
#     4  11  23  44  62  97 133 190 227 290 351 432
#     4  10  22  32  55  93 135 177 213 273 348 425
#
# _framework density 22.995090999999999
#
# number of rings (size 3 to 8) (size 9 to 14) (size 15 to 20)
#    0.000    1.250    5.000    2.625    7.000    3.000 
#    0.000    0.000    0.000    3.000    9.750    0.000 
#    0.000    0.000    0.000    0.000    0.000    0.000 
#
# Total GULP energy -178280.123237 kJ/mol
# GULP energy per Si atom -5571.253851 kJ/mol
# Density = 2.294275 g / cm^3
# Si number density = 22.995091 Si / 1000 Ang^3
#
#
#
# Elastic Constant Matrix: (Units=GPa)
#
#
# Indices 1 2 3 4 5 6 
#
# 1 82.4426 35.7864 21.2485 0.0000 6.1139 0.0000
# 2 35.7864 69.5294 12.1207 0.0000 -0.7520 0.0000
# 3 21.2485 12.1207 60.1153 0.0000 18.2635 0.0000
# 4 0.0000 0.0000 0.0000 29.0999 0.0000 0.2845
# 5 6.1139 -0.7520 18.2635 0.0000 29.4651 0.0000
# 6 0.0000 0.0000 0.0000 0.2845 0.0000 25.6653
#
#
#
# Elastic Compliance Matrix: (Units=1/GPa)
#
#
# Indices 1 2 3 4 5 6 
#
# 1 0.016664 -0.007906 -0.003923 0.000000 -0.001228 0.000000
# 2 -0.007906 0.018842 -0.002032 0.000000 0.003381 0.000000
# 3 -0.003923 -0.002032 0.022422 0.000000 -0.013136 0.000000
# 4 0.000000 0.000000 0.000000 0.034368 0.000000 -0.000381
# 5 -0.001228 0.003381 -0.013136 0.000000 0.042421 0.000000
# 6 0.000000 0.000000 0.000000 -0.000381 0.000000 0.038967
#
#
# Mechanical properties :
#
#
# Convention : Reuss Voigt Hill
#
# Bulk Modulus (GPa) = 33.10556 38.93316 36.01936
# Shear Modulus (GPa) = 23.64353 26.37485 25.00919
#
# Velocity S-wave (km/s) = 3.21003 3.39038 3.30144
# Velocity P-wave (km/s) = 5.30727 5.68279 5.49824
#
# Compressibility (1/GPa) = 0.03020640
#
# Stress axis : x y z
#
# Youngs Moduli (GPa) = 60.01092 53.07192 44.59987
#
# Poissons Ratio (x) = 0.41959 0.17496
# Poissons Ratio (y) = 0.47445 0.09061
# Poissons Ratio (z) = 0.23542 0.10782
#
# Static dielectric constant tensor:
#      x y z
#    x 1.906120 0.000000 -0.003340 
#    y 0.000000 1.917370 0.000000 
#    z -0.003340 0.000000 1.993850 
# 
# From -- ./inp_files/127270.got.cif
#   From: 2010.05.17/outbox.cif.g08.bks.cpg/sg15_64_cif.got.tgz:127270.got - 2010.06.03 18:47:42.
