data_PCOD9287487
_publ_section_title
;
Structure prediction by ZEFSAII (Michael W. Deem and Ramdas Pophale) SiO2 
 PCOD9287487
Probable space group: C 2/C
;
_chemical_formula_sum "Si O2"
_cell_formula_units_Z 52
_cell_length_a 6.819057
_cell_length_b 18.735876
_cell_length_c 22.582605
_cell_angle_alpha 90.000000
_cell_angle_beta 115.117182
_cell_angle_gamma 90.000000
_cell_volume 2612.358534
_symmetry_space_group_name_H-M "C 2/C"
_symmetry_group_IT_number 15
_symmetry_cell_setting 'monoclinic'
loop_
_space_group_symop_operation_xyz
x,y,z
-x,y,1/2-z
-x,-y,-z
x,-y,1/2+z
1/2+x,1/2+y,z
1/2-x,1/2+y,1/2-z
1/2-x,1/2-y,-z
1/2+x,1/2-y,1/2+z
loop_
_atom_site_type_symbol
_atom_site_label
_atom_site_fract_x
_atom_site_fract_y
_atom_site_fract_z
Si Si1 0.961824 0.182943 0.848473
Si Si2 0.368277 0.447598 0.678655
Si Si3 0.477662 0.845947 0.818470
Si Si4 0.500000 0.873170 0.250000
Si Si5 0.864012 0.586771 0.859962
Si Si6 0.376272 0.563096 0.406822
Si Si7 0.165154 0.099881 0.553614
O O1 0.008536 0.265644 0.844671
O O2 0.155135 0.136923 0.843372
O O3 0.721649 0.169300 0.790853
O O4 0.936484 0.155157 0.912572
O O5 0.500000 0.482488 0.750000
O O6 0.205935 0.507217 0.632573
O O7 0.522238 0.428919 0.644799
O O8 0.250170 0.379425 0.690902
O O9 0.500000 0.848802 0.750000
O O10 0.651297 0.896184 0.873018
O O11 0.557119 0.916227 0.198198
O O12 0.078095 0.613453 0.921556
O O13 0.532229 0.596912 0.476177
O O14 0.351508 0.479493 0.419602
#
# Coordination Sequence:
#
# PCOD9287487 Si02
#       7
#     8   8   8   4   8   8   8
#     4  11  24  43  66  96 134 174 218 266 337 394
#     4  12  24  38  68  97 129 171 222 273 333 385
#     4  12  26  42  64  99 137 171 213 281 334 389
#     4  10  22  36  64  94 130 168 218 274 320 392
#     4  11  22  39  66  98 127 173 224 270 323 390
#     4  11  24  45  67 100 134 170 224 279 324 388
#     4  10  24  44  69  96 133 176 224 271 324 395
#
# _framework density 19.905384000000002
#
# number of rings (size 3 to 8) (size 9 to 14) (size 15 to 20)
#    0.000    0.923    4.615    2.308    4.308    4.923 
#    0.000    1.538    0.000    0.000    0.000    0.000 
#    0.000    0.000    0.000    0.000    0.000    0.000 
#
# Total GULP energy -145242.364392 kJ/mol
# GULP energy per Si atom -5586.244784 kJ/mol
# Density = 1.986008 g / cm^3
# Si number density = 19.905384 Si / 1000 Ang^3
#
#
#
# Elastic Constant Matrix: (Units=GPa)
#
#
# Indices 1 2 3 4 5 6 
#
# 1 108.9662 19.7216 28.1826 0.0000 18.3246 0.0000
# 2 19.7216 76.1162 5.2785 0.0000 6.8623 0.0000
# 3 28.1826 5.2785 101.9506 0.0000 10.4053 0.0000
# 4 0.0000 0.0000 0.0000 17.9729 0.0000 -4.2887
# 5 18.3246 6.8623 10.4053 0.0000 17.8820 0.0000
# 6 0.0000 0.0000 0.0000 -4.2887 0.0000 24.2910
#
#
#
# Elastic Compliance Matrix: (Units=1/GPa)
#
#
# Indices 1 2 3 4 5 6 
#
# 1 0.011782 -0.001997 -0.002126 0.000000 -0.010070 0.000000
# 2 -0.001997 0.013950 0.000178 0.000000 -0.003410 0.000000
# 3 -0.002126 0.000178 0.010814 0.000000 -0.004182 0.000000
# 4 0.000000 0.000000 0.000000 0.058086 0.000000 0.010255
# 5 -0.010070 -0.003410 -0.004182 0.000000 0.069984 0.000000
# 6 0.000000 0.000000 0.000000 0.010255 0.000000 0.042978
#
#
# Mechanical properties :
#
#
# Convention : Reuss Voigt Hill
#
# Bulk Modulus (GPa) = 34.89682 43.71095 39.30389
# Shear Modulus (GPa) = 22.21856 27.61921 24.91888
#
# Velocity S-wave (km/s) = 3.34459 3.72899 3.54201
# Velocity P-wave (km/s) = 5.69952 6.36769 6.04285
#
# Compressibility (1/GPa) = 0.02865591
#
# Stress axis : x y z
#
# Youngs Moduli (GPa) = 84.87572 71.68233 92.47316
#
# Poissons Ratio (x) = 0.14318 0.19657
# Poissons Ratio (y) = 0.16953 -0.01645
# Poissons Ratio (z) = 0.18042 -0.01275
#
# Static dielectric constant tensor:
#      x y z
#    x 1.717570 0.000000 0.040080 
#    y 0.000000 1.688920 0.000000 
#    z 0.040080 0.000000 1.715330 
# 
# From -- ./inp_files/261432.got.cif
#   From: 2010.05.17/outbox.cif.g08.bks.cpg/sg15_131_cif.got.tgz:261432.got - 2010.06.03 18:47:42.
