data_PCOD9287274
_publ_section_title
;
Structure prediction by ZEFSAII (Michael W. Deem and Ramdas Pophale) SiO2 
 PCOD9287274
Probable space group: C 2/C
;
_chemical_formula_sum "Si O2"
_cell_formula_units_Z 48
_cell_length_a 11.231972
_cell_length_b 19.425968
_cell_length_c 10.118419
_cell_angle_alpha 90.000000
_cell_angle_beta 79.268988
_cell_angle_gamma 90.000000
_cell_volume 2169.148446
_symmetry_space_group_name_H-M "C 2/C"
_symmetry_group_IT_number 15
_symmetry_cell_setting 'monoclinic'
loop_
_space_group_symop_operation_xyz
x,y,z
-x,y,1/2-z
-x,-y,-z
x,-y,1/2+z
1/2+x,1/2+y,z
1/2-x,1/2+y,1/2-z
1/2-x,1/2-y,-z
1/2+x,1/2-y,1/2+z
loop_
_atom_site_type_symbol
_atom_site_label
_atom_site_fract_x
_atom_site_fract_y
_atom_site_fract_z
Si Si1 0.089429 0.988986 0.604658
Si Si2 0.368799 0.805085 0.346882
Si Si3 0.860951 0.847742 0.814687
Si Si4 0.305991 0.937050 0.206998
Si Si5 0.677562 0.923297 0.695310
Si Si6 0.511003 0.895543 0.973391
O O1 0.200176 0.040620 0.624240
O O2 0.000000 0.990742 0.750000
O O3 0.143506 0.911476 0.582694
O O4 0.000000 0.000000 0.500000
O O5 0.500000 0.800882 0.250000
O O6 0.316527 0.728210 0.360553
O O7 0.294659 0.862093 0.277923
O O8 0.410145 0.835744 0.478431
O O9 0.794583 0.879149 0.701349
O O10 0.000000 0.839780 0.750000
O O11 0.299864 0.995185 0.324350
O O12 0.438879 0.933704 0.107037
O O13 0.603537 0.927197 0.848814
O O14 0.601819 0.883800 0.601205
#
# Coordination Sequence:
#
# PCOD9287274 Si02
#       6
#     8   8   8   8   8   8
#     4  10  23  41  65  94 124 168 216 260 308 375
#     4   9  20  39  59  89 118 162 203 255 314 378
#     4   9  20  41  61  83 125 164 209 251 316 372
#     4  10  22  35  63  88 121 157 203 256 310 371
#     4  10  22  35  58  90 121 158 199 259 305 376
#     4  10  22  35  58  92 123 152 205 251 317 364
#
# _framework density 22.128499000000001
#
# number of rings (size 3 to 8) (size 9 to 14) (size 15 to 20)
#    0.000    2.333    0.000    0.500   16.333    2.000 
#    3.000    2.500    0.000    0.000    0.000    0.000 
#    0.000    0.000    0.000    0.000    0.000    0.000 
#
# Total GULP energy -133650.257965 kJ/mol
# GULP energy per Si atom -5568.760749 kJ/mol
# Density = 2.207813 g / cm^3
# Si number density = 22.128499 Si / 1000 Ang^3
#
#
#
# Elastic Constant Matrix: (Units=GPa)
#
#
# Indices 1 2 3 4 5 6 
#
# 1 93.5465 53.0689 37.7022 0.0000 21.4839 0.0000
# 2 53.0689 189.8827 55.2541 0.0000 31.9362 0.0000
# 3 37.7022 55.2541 98.4217 0.0000 23.2007 0.0000
# 4 0.0000 0.0000 0.0000 25.5779 0.0000 18.8092
# 5 21.4839 31.9362 23.2007 0.0000 48.6341 0.0000
# 6 0.0000 0.0000 0.0000 18.8092 0.0000 52.9080
#
#
#
# Elastic Compliance Matrix: (Units=1/GPa)
#
#
# Indices 1 2 3 4 5 6 
#
# 1 0.014123 -0.002475 -0.003305 0.000000 -0.003037 0.000000
# 2 -0.002475 0.007075 -0.002463 0.000000 -0.002377 0.000000
# 3 -0.003305 -0.002463 0.013615 0.000000 -0.003417 0.000000
# 4 0.000000 0.000000 0.000000 0.052935 0.000000 -0.018819
# 5 -0.003037 -0.002377 -0.003417 0.000000 0.025095 0.000000
# 6 0.000000 0.000000 0.000000 -0.018819 0.000000 0.025591
#
#
# Mechanical properties :
#
#
# Convention : Reuss Voigt Hill
#
# Bulk Modulus (GPa) = 54.56447 74.87791 64.72119
# Shear Modulus (GPa) = 31.05036 41.14571 36.09804
#
# Velocity S-wave (km/s) = 3.74997 4.31675 4.04331
# Velocity P-wave (km/s) = 6.59252 7.66531 7.14907
#
# Compressibility (1/GPa) = 0.01832694
#
# Stress axis : x y z
#
# Youngs Moduli (GPa) = 70.80508 141.34875 73.44904
#
# Poissons Ratio (x) = 0.34979 0.24274
# Poissons Ratio (y) = 0.17522 0.18093
# Poissons Ratio (z) = 0.23401 0.34819
#
# Static dielectric constant tensor:
#      x y z
#    x 1.875590 0.000000 -0.059670 
#    y 0.000000 1.877970 0.000000 
#    z -0.059670 0.000000 1.904380 
# 
# From -- ./inp_files/87484.got.cif
#   From: 2010.05.17/outbox.cif.g08.bks.cpg/sg15_44_cif.got.tgz:87484.got - 2010.06.03 18:47:42.
