data_PCOD9287187
_publ_section_title
;
Structure prediction by ZEFSAII (Michael W. Deem and Ramdas Pophale) SiO2 
 PCOD9287187
Probable space group: C 2/C
;
_chemical_formula_sum "Si O2"
_cell_formula_units_Z 40
_cell_length_a 11.525143
_cell_length_b 24.404039
_cell_length_c 9.182641
_cell_angle_alpha 90.000000
_cell_angle_beta 51.440874
_cell_angle_gamma 90.000000
_cell_volume 2019.589679
_symmetry_space_group_name_H-M "C 2/C"
_symmetry_group_IT_number 15
_symmetry_cell_setting 'monoclinic'
loop_
_space_group_symop_operation_xyz
x,y,z
-x,y,1/2-z
-x,-y,-z
x,-y,1/2+z
1/2+x,1/2+y,z
1/2-x,1/2+y,1/2-z
1/2-x,1/2-y,-z
1/2+x,1/2-y,1/2+z
loop_
_atom_site_type_symbol
_atom_site_label
_atom_site_fract_x
_atom_site_fract_y
_atom_site_fract_z
Si Si1 0.781265 0.687024 0.956805
Si Si2 0.030532 0.936438 0.004451
Si Si3 0.000000 0.123534 0.250000
Si Si4 0.707758 0.621643 0.611781
Si Si5 0.473565 0.821557 0.012313
Si Si6 0.000000 0.773382 0.250000
O O1 0.623241 0.659079 0.075891
O O2 0.750000 0.750000 0.000000
O O3 0.869865 0.683714 0.736773
O O4 0.870988 0.666403 0.029396
O O5 0.072954 0.912827 0.815803
O O6 0.880889 0.907810 0.186642
O O7 0.156967 0.916676 0.017806
O O8 0.000000 0.000000 0.000000
O O9 0.882313 0.632353 0.494818
O O10 0.637002 0.683194 0.647922
O O11 0.490063 0.767346 0.897662
#
# Coordination Sequence:
#
# PCOD9287187 Si02
#       6
#     8   8   4   8   8   4
#     4  11  25  35  61  89 135 170 206 242 308 385
#     4  10  22  40  66  89 116 159 218 267 313 367
#     4  12  22  41  62  92 122 165 206 256 314 376
#     4  10  22  39  61  92 126 161 208 263 312 369
#     4  11  22  40  56  93 132 167 203 251 307 375
#     4  10  22  33  62  90 130 165 198 248 306 380
#
# _framework density 19.806001999999999
#
# number of rings (size 3 to 8) (size 9 to 14) (size 15 to 20)
#    0.000    1.600    2.000    4.200   11.200    0.000 
#    0.000    0.000    0.000    7.200    0.000    0.000 
#    0.000    0.000    0.000    0.000    0.000    0.000 
#
# Total GULP energy -111471.924686 kJ/mol
# GULP energy per Si atom -5573.596234 kJ/mol
# Density = 1.976092 g / cm^3
# Si number density = 19.806002 Si / 1000 Ang^3
#
#
#
# Elastic Constant Matrix: (Units=GPa)
#
#
# Indices 1 2 3 4 5 6 
#
# 1 105.2767 42.2835 21.8285 0.0000 10.5167 0.0000
# 2 42.2835 111.7160 37.0782 0.0000 14.8663 0.0000
# 3 21.8285 37.0782 70.6114 0.0000 22.4915 0.0000
# 4 0.0000 0.0000 0.0000 15.3457 0.0000 -22.2246
# 5 10.5167 14.8663 22.4915 0.0000 30.6421 0.0000
# 6 0.0000 0.0000 0.0000 -22.2246 0.0000 -52.1596
#
#
#
# Elastic Compliance Matrix: (Units=1/GPa)
#
#
# Indices 1 2 3 4 5 6 
#
# 1 0.011370 -0.003758 -0.001148 0.000000 -0.001237 0.000000
# 2 -0.003758 0.012130 -0.004886 0.000000 -0.001008 0.000000
# 3 -0.001148 -0.004886 0.021146 0.000000 -0.012757 0.000000
# 4 0.000000 0.000000 0.000000 0.040298 0.000000 -0.017170
# 5 -0.001237 -0.001008 -0.012757 0.000000 0.042912 0.000000
# 6 0.000000 0.000000 0.000000 -0.017170 0.000000 -0.011856
#
#
# Mechanical properties :
#
#
# Convention : Reuss Voigt Hill
#
# Bulk Modulus (GPa) = 39.90184 54.44273 47.17228
# Shear Modulus (GPa) = 34.73762 11.19325 22.96543
#
# Velocity S-wave (km/s) = 4.19249 2.37986 3.40886
# Velocity P-wave (km/s) = 6.60500 5.92446 6.27397
#
# Compressibility (1/GPa) = 0.02506150
#
# Stress axis : x y z
#
# Youngs Moduli (GPa) = 87.95409 82.44337 47.29037
#
# Poissons Ratio (x) = 0.30981 0.05427
# Poissons Ratio (y) = 0.33052 0.23108
# Poissons Ratio (z) = 0.10093 0.40285
#
# Static dielectric constant tensor:
#      x y z
#    x 1.847080 0.000000 0.041590 
#    y 0.000000 1.634900 0.000000 
#    z 0.041590 0.000000 1.756330 
# 
# From -- ./inp_files/31776.got.cif
#   From: 2010.05.17/outbox.cif.g08.bks.cpg/sg15_16_cif.got.tgz:31776.got - 2010.06.03 18:47:42.
