data_PCOD9287357
_publ_section_title
;
Structure prediction by ZEFSAII (Michael W. Deem and Ramdas Pophale) SiO2 
 PCOD9287357
Probable space group: C 2/C
;
_chemical_formula_sum "Si O2"
_cell_formula_units_Z 60
_cell_length_a 23.470100
_cell_length_b 11.569470
_cell_length_c 11.339227
_cell_angle_alpha 90.000000
_cell_angle_beta 68.828964
_cell_angle_gamma 90.000000
_cell_volume 2871.201794
_symmetry_space_group_name_H-M "C 2/C"
_symmetry_group_IT_number 15
_symmetry_cell_setting 'monoclinic'
loop_
_space_group_symop_operation_xyz
x,y,z
-x,y,1/2-z
-x,-y,-z
x,-y,1/2+z
1/2+x,1/2+y,z
1/2-x,1/2+y,1/2-z
1/2-x,1/2-y,-z
1/2+x,1/2-y,1/2+z
loop_
_atom_site_type_symbol
_atom_site_label
_atom_site_fract_x
_atom_site_fract_y
_atom_site_fract_z
Si Si1 0.322712 0.280160 0.096757
Si Si2 0.000000 0.785176 0.750000
Si Si3 0.103712 0.548482 0.488735
Si Si4 0.165564 0.161296 0.646140
Si Si5 0.118036 0.071183 0.138793
Si Si6 0.315658 0.738101 0.258493
Si Si7 0.695667 0.855597 0.478083
Si Si8 0.421600 0.911611 0.228126
O O1 0.372446 0.178297 0.046677
O O2 0.330962 0.338114 0.216920
O O3 0.253236 0.234885 0.142134
O O4 0.335742 0.375912 0.990150
O O5 0.053469 0.867843 0.664842
O O6 0.031806 0.696895 0.818412
O O7 0.163962 0.471429 0.462378
O O8 0.074747 0.495536 0.388897
O O9 0.070711 0.540313 0.642923
O O10 0.233284 0.126897 0.549566
O O11 0.159274 0.293717 0.610328
O O12 0.118223 0.066240 0.638578
O O13 0.146352 0.123711 0.238536
O O14 0.310153 0.764889 0.124829
O O15 0.355024 0.847189 0.278835
#
# Coordination Sequence:
#
# PCOD9287357 Si02
#       8
#     8   4   8   8   8   8   8   8
#     4  11  21  36  60  95 121 157 209 247 314 389
#     4  10  22  46  60  88 114 166 222 254 310 370
#     4  11  20  38  63  92 124 161 204 261 315 372
#     4  10  22  36  57  92 128 162 200 251 307 372
#     4  11  22  38  63  82 123 164 207 255 305 366
#     4   9  19  35  57  90 121 161 200 243 311 384
#     4   9  20  36  57  92 131 158 189 252 317 374
#     4  10  22  37  63  90 124 162 209 263 314 370
#
# _framework density 20.897171
#
# number of rings (size 3 to 8) (size 9 to 14) (size 15 to 20)
#    0.000    1.867    2.667    2.000    3.733    0.533 
#    4.800    0.667    0.000    0.800    0.000    0.000 
#    0.000    0.000    0.000    0.000    0.000    0.000 
#
# Total GULP energy -167238.832840 kJ/mol
# GULP energy per Si atom -5574.627761 kJ/mol
# Density = 2.084961 g / cm^3
# Si number density = 20.897171 Si / 1000 Ang^3
#
#
#
# Elastic Constant Matrix: (Units=GPa)
#
#
# Indices 1 2 3 4 5 6 
#
# 1 66.1374 19.8665 28.2135 0.0000 -0.2545 0.0000
# 2 19.8665 76.3225 21.6855 0.0000 7.7269 0.0000
# 3 28.2135 21.6855 71.6687 0.0000 11.0650 0.0000
# 4 0.0000 0.0000 0.0000 13.1645 0.0000 -0.2003
# 5 -0.2545 7.7269 11.0650 0.0000 20.5267 0.0000
# 6 0.0000 0.0000 0.0000 -0.2003 0.0000 32.6688
#
#
#
# Elastic Compliance Matrix: (Units=1/GPa)
#
#
# Indices 1 2 3 4 5 6 
#
# 1 0.019356 -0.003492 -0.007421 0.000000 0.005555 0.000000
# 2 -0.003492 0.015177 -0.002540 0.000000 -0.004387 0.000000
# 3 -0.007421 -0.002540 0.019099 0.000000 -0.009431 0.000000
# 4 0.000000 0.000000 0.000000 0.075969 0.000000 0.000466
# 5 0.005555 -0.004387 -0.009431 0.000000 0.055521 0.000000
# 6 0.000000 0.000000 0.000000 0.000466 0.000000 0.030613
#
#
# Mechanical properties :
#
#
# Convention : Reuss Voigt Hill
#
# Bulk Modulus (GPa) = 37.41676 39.29553 38.35615
# Shear Modulus (GPa) = 19.87672 22.89622 21.38647
#
# Velocity S-wave (km/s) = 3.08745 3.31367 3.20256
# Velocity P-wave (km/s) = 5.53659 5.78667 5.66301
#
# Compressibility (1/GPa) = 0.02672599
#
# Stress axis : x y z
#
# Youngs Moduli (GPa) = 51.66355 65.88824 52.35848
#
# Poissons Ratio (x) = 0.23010 0.38854
# Poissons Ratio (y) = 0.18042 0.13300
# Poissons Ratio (z) = 0.38338 0.16737
#
# Static dielectric constant tensor:
#      x y z
#    x 1.761530 0.000000 0.000410 
#    y 0.000000 1.738020 0.000000 
#    z 0.000410 0.000000 1.789500 
# 
# From -- ./inp_files/117526.got.cif
#   From: 2010.05.17/outbox.cif.g08.bks.cpg/sg15_59_cif.got.tgz:117526.got - 2010.06.03 18:47:42.
