data_PCOD9287184
_publ_section_title
;
Structure prediction by ZEFSAII (Michael W. Deem and Ramdas Pophale) SiO2 
 PCOD9287184
Probable space group: C 2/C
;
_chemical_formula_sum "Si O2"
_cell_formula_units_Z 48
_cell_length_a 26.911184
_cell_length_b 10.177396
_cell_length_c 23.487414
_cell_angle_alpha 90.000000
_cell_angle_beta 161.444975
_cell_angle_gamma 90.000000
_cell_volume 2047.036890
_symmetry_space_group_name_H-M "C 2/C"
_symmetry_group_IT_number 15
_symmetry_cell_setting 'monoclinic'
loop_
_space_group_symop_operation_xyz
x,y,z
-x,y,1/2-z
-x,-y,-z
x,-y,1/2+z
1/2+x,1/2+y,z
1/2-x,1/2+y,1/2-z
1/2-x,1/2-y,-z
1/2+x,1/2-y,1/2+z
loop_
_atom_site_type_symbol
_atom_site_label
_atom_site_fract_x
_atom_site_fract_y
_atom_site_fract_z
Si Si1 0.976021 0.294994 0.072737
Si Si2 0.961951 0.983073 0.808547
Si Si3 0.698108 0.313878 0.291510
Si Si4 0.194434 0.523977 0.308058
Si Si5 0.322201 0.870526 0.541660
Si Si6 0.806491 0.686613 0.781778
O O1 0.063130 0.424553 0.189000
O O2 0.022880 0.282862 0.056468
O O3 0.028949 0.169525 0.165866
O O4 0.792064 0.287392 0.865255
O O5 0.924582 0.073144 0.823989
O O6 0.815584 0.019426 0.609244
O O7 0.136968 0.020483 0.978423
O O8 0.827586 0.329666 0.481338
O O9 0.771674 0.317723 0.309460
O O10 0.634031 0.168855 0.234017
O O11 0.228988 0.456468 0.284008
O O12 0.500000 0.904957 0.750000
O O13 0.250000 0.750000 0.500000
#
# Coordination Sequence:
#
# PCOD9287184 Si02
#       6
#     8   8   8   8   8   8
#     4   9  20  38  55  85 127 155 185 235 286 362
#     4   9  21  37  61  82 115 160 191 240 299 343
#     4  10  22  33  61  84 117 156 197 237 298 342
#     4   9  20  38  55  89 123 152 193 237 286 359
#     4  10  22  40  59  85 113 149 202 253 293 336
#     4   9  21  33  58  86 125 153 191 224 293 357
#
# _framework density 23.448526000000001
#
# number of rings (size 3 to 8) (size 9 to 14) (size 15 to 20)
#    2.000    0.667    0.000    1.000    4.667    2.000 
#    6.000    0.000    0.000    5.000    0.000    0.000 
#    0.000    0.000    0.000    0.000    0.000    0.000 
#
# Total GULP energy -133657.166047 kJ/mol
# GULP energy per Si atom -5569.048585 kJ/mol
# Density = 2.339516 g / cm^3
# Si number density = 23.448526 Si / 1000 Ang^3
#
#
#
# Elastic Constant Matrix: (Units=GPa)
#
#
# Indices 1 2 3 4 5 6 
#
# 1 51.1352 -7.3589 22.7684 -0.0004 -7.4385 -0.0003
# 2 -7.3589 79.6292 19.1043 -0.0005 0.3312 -0.0006
# 3 22.7684 19.1043 128.0212 0.0000 -1.5175 -0.0002
# 4 -0.0004 -0.0005 0.0000 8.2108 0.0000 4.8096
# 5 -7.4385 0.3312 -1.5175 0.0000 21.1449 -0.0002
# 6 -0.0003 -0.0006 -0.0002 4.8096 -0.0002 26.6249
#
#
#
# Elastic Compliance Matrix: (Units=1/GPa)
#
#
# Indices 1 2 3 4 5 6 
#
# 1 0.023149 0.003187 -0.004500 0.000001 0.007771 0.000000
# 2 0.003187 0.013466 -0.002568 0.000001 0.000726 0.000000
# 3 -0.004500 -0.002568 0.008984 0.000000 -0.000898 0.000000
# 4 0.000001 0.000001 0.000000 0.136203 0.000001 -0.024604
# 5 0.007771 0.000726 -0.000898 0.000001 0.049951 0.000000
# 6 0.000000 0.000000 0.000000 -0.024604 0.000000 0.042003
#
#
# Mechanical properties :
#
#
# Convention : Reuss Voigt Hill
#
# Bulk Modulus (GPa) = 26.42990 36.42369 31.42680
# Shear Modulus (GPa) = 16.99926 26.14757 21.57341
#
# Velocity S-wave (km/s) = 2.69543 3.34294 3.03649
# Velocity P-wave (km/s) = 4.58073 5.51974 5.07201
#
# Compressibility (1/GPa) = 0.03783594
#
# Stress axis : x y z
#
# Youngs Moduli (GPa) = 43.19877 74.26281 111.30764
#
# Poissons Ratio (x) = -0.23665 0.50093
# Poissons Ratio (y) = -0.13766 0.28579
# Poissons Ratio (z) = 0.19441 0.19068
#
# Static dielectric constant tensor:
#      x y z
#    x 1.892700 0.000000 -0.009810 
#    y 0.000000 1.889940 0.000000 
#    z -0.009810 0.000000 1.947260 
# 
# From -- ./inp_files/284575.got.cif
#   From: 2010.05.17/outbox.cif.g08.bks.cpg/sg15_143_cif.got.tgz:284575.got - 2010.06.03 18:47:42.
