data_PCOD9287143
_publ_section_title
;
Structure prediction by ZEFSAII (Michael W. Deem and Ramdas Pophale) SiO2 
 PCOD9287143
Probable space group: C 2/C
;
_chemical_formula_sum "Si O2"
_cell_formula_units_Z 44
_cell_length_a 12.008810
_cell_length_b 24.269196
_cell_length_c 15.180136
_cell_angle_alpha 90.000000
_cell_angle_beta 31.414636
_cell_angle_gamma 90.000000
_cell_volume 2305.995589
_symmetry_space_group_name_H-M "C 2/C"
_symmetry_group_IT_number 15
_symmetry_cell_setting 'monoclinic'
loop_
_space_group_symop_operation_xyz
x,y,z
-x,y,1/2-z
-x,-y,-z
x,-y,1/2+z
1/2+x,1/2+y,z
1/2-x,1/2+y,1/2-z
1/2-x,1/2-y,-z
1/2+x,1/2-y,1/2+z
loop_
_atom_site_type_symbol
_atom_site_label
_atom_site_fract_x
_atom_site_fract_y
_atom_site_fract_z
Si Si1 0.000000 0.020343 0.750000
Si Si2 0.990085 0.661120 0.576648
Si Si3 0.129579 0.141181 0.069750
Si Si4 0.048240 0.556702 0.022425
Si Si5 0.083114 0.956109 0.874396
Si Si6 0.730952 0.234755 0.642434
O O1 0.223967 0.051640 0.583313
O O2 0.052176 0.984228 0.799873
O O3 0.935552 0.610970 0.549639
O O4 0.805275 0.697353 0.746719
O O5 0.127363 0.633576 0.562843
O O6 0.151596 0.706755 0.425197
O O7 0.000000 0.135975 0.250000
O O8 0.054430 0.098476 0.047180
O O9 0.126150 0.199708 0.022896
O O10 0.828923 0.560415 0.225399
O O11 0.000000 0.500000 0.000000
O O12 0.000000 0.000000 0.000000
O O13 0.500000 0.238837 0.750000
#
# Coordination Sequence:
#
# PCOD9287143 Si02
#       6
#     4   8   8   8   8   8
#     4  10  22  44  56  90 124 158 218 262 302 372
#     4  11  20  37  58  90 128 162 207 256 325 384
#     4  11  18  35  57  89 129 159 198 259 310 381
#     4  10  22  39  63  85 121 167 202 258 314 364
#     4  11  23  38  64  91 124 166 209 252 319 378
#     4  10  22  31  56  91 128 161 204 258 325 383
#
# _framework density 19.080696
#
# number of rings (size 3 to 8) (size 9 to 14) (size 15 to 20)
#    0.000    1.455    2.727    4.909    5.091    0.727 
#    3.273    0.000    0.000    1.091    0.000    0.000 
#    0.000    0.000    0.000    0.000    0.000    0.000 
#
# Total GULP energy -122557.500023 kJ/mol
# GULP energy per Si atom -5570.795456 kJ/mol
# Density = 1.903727 g / cm^3
# Si number density = 19.080696 Si / 1000 Ang^3
#
#
#
# Elastic Constant Matrix: (Units=GPa)
#
#
# Indices 1 2 3 4 5 6 
#
# 1 48.1032 32.1800 35.5162 -0.0056 -19.3578 0.0032
# 2 32.1800 123.3909 43.5049 -0.0028 -1.7287 0.0019
# 3 35.5162 43.5049 86.0280 -0.0380 -2.7928 0.0148
# 4 -0.0056 -0.0028 -0.0380 26.1964 0.0153 8.8801
# 5 -19.3578 -1.7287 -2.7928 0.0153 36.8128 -0.0052
# 6 0.0032 0.0019 0.0148 8.8801 -0.0052 40.6388
#
#
#
# Elastic Compliance Matrix: (Units=1/GPa)
#
#
# Indices 1 2 3 4 5 6 
#
# 1 0.044513 -0.006174 -0.014540 -0.000029 0.022014 0.000011
# 2 -0.006174 0.010719 -0.002968 -0.000003 -0.002968 0.000001
# 3 -0.014540 -0.002968 0.018922 0.000032 -0.006350 -0.000013
# 4 -0.000029 -0.000003 0.000032 0.041227 -0.000031 -0.009009
# 5 0.022014 -0.002968 -0.006350 -0.000031 0.038119 0.000012
# 6 0.000011 0.000001 -0.000013 -0.009009 0.000012 0.026576
#
#
# Mechanical properties :
#
#
# Convention : Reuss Voigt Hill
#
# Bulk Modulus (GPa) = 37.32781 53.32491 45.32636
# Shear Modulus (GPa) = 21.15311 30.48435 25.81873
#
# Velocity S-wave (km/s) = 3.33320 4.00140 3.68249
# Velocity P-wave (km/s) = 5.86679 7.02538 6.47206
#
# Compressibility (1/GPa) = 0.02678968
#
# Stress axis : x y z
#
# Youngs Moduli (GPa) = 22.46513 93.28811 52.84853
#
# Poissons Ratio (x) = 0.57596 0.76843
# Poissons Ratio (y) = 0.13870 0.15688
# Poissons Ratio (z) = 0.32665 0.27692
#
# Static dielectric constant tensor:
#      x y z
#    x 1.634210 0.000000 0.005910 
#    y 0.000000 1.770120 0.000010 
#    z 0.005910 0.000010 1.769040 
# 
# From -- ./inp_files/31419.got.cif
#   From: 2010.05.17/outbox.cif.g08.bks.cpg/sg15_16_cif.got.tgz:31419.got - 2010.06.03 18:47:42.
