data_PCOD9287683
_publ_section_title
;
Structure prediction by ZEFSAII (Michael W. Deem and Ramdas Pophale) SiO2 
 PCOD9287683
Probable space group: C 2/C
;
_chemical_formula_sum "Si O2"
_cell_formula_units_Z 60
_cell_length_a 9.079889
_cell_length_b 19.072139
_cell_length_c 17.012507
_cell_angle_alpha 90.000000
_cell_angle_beta 83.201732
_cell_angle_gamma 90.000000
_cell_volume 2925.391450
_symmetry_space_group_name_H-M "C 2/C"
_symmetry_group_IT_number 15
_symmetry_cell_setting 'monoclinic'
loop_
_space_group_symop_operation_xyz
x,y,z
-x,y,1/2-z
-x,-y,-z
x,-y,1/2+z
1/2+x,1/2+y,z
1/2-x,1/2+y,1/2-z
1/2-x,1/2-y,-z
1/2+x,1/2-y,1/2+z
loop_
_atom_site_type_symbol
_atom_site_label
_atom_site_fract_x
_atom_site_fract_y
_atom_site_fract_z
Si Si1 0.500000 0.179918 0.750000
Si Si2 0.699342 0.213917 0.881336
Si Si3 0.269641 0.461809 0.561346
Si Si4 0.444652 0.403836 0.339263
Si Si5 0.401050 0.178700 0.440458
Si Si6 0.725644 0.899425 0.125427
Si Si7 0.596462 0.449843 0.592592
Si Si8 0.288566 0.174970 0.035083
O O1 0.584529 0.217986 0.816726
O O2 0.368275 0.135724 0.799870
O O3 0.805266 0.144727 0.870053
O O4 0.809045 0.279541 0.881485
O O5 0.621126 0.212124 0.971439
O O6 0.158650 0.399931 0.550362
O O7 0.201652 0.517431 0.625948
O O8 0.425595 0.434335 0.583913
O O9 0.321307 0.507274 0.482850
O O10 0.500000 0.383950 0.250000
O O11 0.593805 0.390932 0.382297
O O12 0.405622 0.487042 0.343532
O O13 0.574277 0.183379 0.415550
O O14 0.670314 0.868757 0.046181
O O15 0.672446 0.373948 0.588978
O O16 0.250000 0.250000 0.000000
#
# Coordination Sequence:
#
# PCOD9287683 Si02
#       8
#     4   8   8   8   8   8   8   8
#     4  12  22  42  58  92 128 164 208 260 318 388
#     4  11  24  38  65  93 125 168 212 261 315 384
#     4   9  19  37  61  90 124 155 205 260 316 360
#     4  11  20  39  64  89 123 172 210 247 323 389
#     4  11  23  39  64  96 124 161 214 271 314 359
#     4  10  22  37  63  90 122 166 206 256 314 385
#     4   9  20  35  60  93 122 158 204 263 305 373
#     4  11  23  38  62  93 125 158 211 266 319 364
#
# _framework density 20.510075000000001
#
# number of rings (size 3 to 8) (size 9 to 14) (size 15 to 20)
#    0.000    1.600    4.000    1.600    3.733    3.200 
#    0.000    0.000   14.667    0.000    0.000    0.000 
#    0.000    0.000    0.000    0.000    0.000    0.000 
#
# Total GULP energy -167203.020732 kJ/mol
# GULP energy per Si atom -5573.434024 kJ/mol
# Density = 2.046339 g / cm^3
# Si number density = 20.510075 Si / 1000 Ang^3
#
#
#
# Elastic Constant Matrix: (Units=GPa)
#
#
# Indices 1 2 3 4 5 6 
#
# 1 95.3206 57.4626 12.4700 0.0000 23.9252 0.0000
# 2 57.4626 80.4950 3.6301 0.0000 13.2643 0.0000
# 3 12.4700 3.6301 49.5592 0.0000 12.0980 0.0000
# 4 0.0000 0.0000 0.0000 16.2681 0.0000 2.8880
# 5 23.9252 13.2643 12.0980 0.0000 33.3757 0.0000
# 6 0.0000 0.0000 0.0000 2.8880 0.0000 29.4846
#
#
#
# Elastic Compliance Matrix: (Units=1/GPa)
#
#
# Indices 1 2 3 4 5 6 
#
# 1 0.021213 -0.013556 -0.002137 0.000000 -0.009044 0.000000
# 2 -0.013556 0.021963 0.001712 0.000000 0.000369 0.000000
# 3 -0.002137 0.001712 0.022361 0.000000 -0.007254 0.000000
# 4 0.000000 0.000000 0.000000 0.062558 0.000000 -0.006127
# 5 -0.009044 0.000369 -0.007254 0.000000 0.038928 0.000000
# 6 0.000000 0.000000 0.000000 -0.006127 0.000000 0.034516
#
#
# Mechanical properties :
#
#
# Convention : Reuss Voigt Hill
#
# Bulk Modulus (GPa) = 26.61370 41.38891 34.00131
# Shear Modulus (GPa) = 20.65907 25.94650 23.30278
#
# Velocity S-wave (km/s) = 3.17719 3.56063 3.37436
# Velocity P-wave (km/s) = 5.14426 6.09325 5.63876
#
# Compressibility (1/GPa) = 0.03757463
#
# Stress axis : x y z
#
# Youngs Moduli (GPa) = 47.14158 45.53203 44.72081
#
# Poissons Ratio (x) = 0.61725 0.09556
# Poissons Ratio (y) = 0.63907 -0.07658
# Poissons Ratio (z) = 0.10073 -0.07797
#
# Static dielectric constant tensor:
#      x y z
#    x 1.799010 0.000000 0.009470 
#    y 0.000000 1.762530 0.000000 
#    z 0.009470 0.000000 1.752630 
# 
# From -- ./inp_files/191010.got.cif
#   From: 2010.05.17/outbox.cif.g08.bks.cpg/sg15_96_cif.got.tgz:191010.got - 2010.06.03 18:47:42.
