data_PCOD9287350
_publ_section_title
;
Structure prediction by ZEFSAII (Michael W. Deem and Ramdas Pophale) SiO2 
 PCOD9287350
Probable space group: C 2/C
;
_chemical_formula_sum "Si O2"
_cell_formula_units_Z 40
_cell_length_a 7.757413
_cell_length_b 35.545965
_cell_length_c 6.710567
_cell_angle_alpha 90.000000
_cell_angle_beta 99.282224
_cell_angle_gamma 90.000000
_cell_volume 1826.173951
_symmetry_space_group_name_H-M "C 2/C"
_symmetry_group_IT_number 15
_symmetry_cell_setting 'monoclinic'
loop_
_space_group_symop_operation_xyz
x,y,z
-x,y,1/2-z
-x,-y,-z
x,-y,1/2+z
1/2+x,1/2+y,z
1/2-x,1/2+y,1/2-z
1/2-x,1/2-y,-z
1/2+x,1/2-y,1/2+z
loop_
_atom_site_type_symbol
_atom_site_label
_atom_site_fract_x
_atom_site_fract_y
_atom_site_fract_z
Si Si1 0.353969 0.949441 0.435563
Si Si2 0.725559 0.030896 0.123082
Si Si3 0.832702 0.875132 0.075878
Si Si4 0.147911 0.201717 0.114191
Si Si5 0.000000 0.256927 0.750000
Si Si6 0.500000 0.583321 0.250000
O O1 0.319036 0.953397 0.666767
O O2 0.559268 0.959304 0.456156
O O3 0.299946 0.907222 0.368562
O O4 0.249014 0.986463 0.345073
O O5 0.890766 0.054963 0.090148
O O6 0.000000 0.874506 0.250000
O O7 0.784493 0.832335 0.015802
O O8 0.888616 0.890655 0.870909
O O9 0.322505 0.218903 0.247518
O O10 0.000000 0.190794 0.250000
O O11 0.051381 0.231362 0.949827
#
# Coordination Sequence:
#
# PCOD9287350 Si02
#       6
#     8   8   8   8   4   4
#     4   9  20  35  54  78 115 152 202 254 303 358
#     4   9  19  35  53  78 108 154 205 250 302 358
#     4  11  23  38  59  87 122 156 197 256 307 362
#     4  11  22  44  69  98 133 164 207 255 314 382
#     4  10  24  42  73 100 126 170 204 250 313 388
#     4  10  22  36  57  80 112 158 200 248 307 354
#
# _framework density 21.903721000000001
#
# number of rings (size 3 to 8) (size 9 to 14) (size 15 to 20)
#    0.000    2.000    2.000    0.600    4.200    4.800 
#    0.000    0.000    0.000    0.000    0.000    0.000 
#    0.000    0.000    0.000    0.000    0.000    0.000 
#
# Total GULP energy -111490.410243 kJ/mol
# GULP energy per Si atom -5574.520512 kJ/mol
# Density = 2.185387 g / cm^3
# Si number density = 21.903721 Si / 1000 Ang^3
#
#
#
# Elastic Constant Matrix: (Units=GPa)
#
#
# Indices 1 2 3 4 5 6 
#
# 1 56.5529 38.5639 6.9370 0.0000 15.1405 0.0000
# 2 38.5639 144.7022 29.2199 0.0000 28.1193 0.0000
# 3 6.9370 29.2199 67.7117 0.0000 22.6297 0.0000
# 4 0.0000 0.0000 0.0000 36.0613 0.0000 -1.7338
# 5 15.1405 28.1193 22.6297 0.0000 29.9601 0.0000
# 6 0.0000 0.0000 0.0000 -1.7338 0.0000 26.5026
#
#
#
# Elastic Compliance Matrix: (Units=1/GPa)
#
#
# Indices 1 2 3 4 5 6 
#
# 1 0.023183 -0.004964 0.002843 0.000000 -0.009204 0.000000
# 2 -0.004964 0.009606 -0.001956 0.000000 -0.005030 0.000000
# 3 0.002843 -0.001956 0.020317 0.000000 -0.014947 0.000000
# 4 0.000000 0.000000 0.000000 0.027818 0.000000 0.001820
# 5 -0.009204 -0.005030 -0.014947 0.000000 0.054040 0.000000
# 6 0.000000 0.000000 0.000000 0.001820 0.000000 0.037851
#
#
# Mechanical properties :
#
#
# Convention : Reuss Voigt Hill
#
# Bulk Modulus (GPa) = 22.24564 46.48981 34.36773
# Shear Modulus (GPa) = 25.51647 31.45452 28.48550
#
# Velocity S-wave (km/s) = 3.41682 3.79362 3.61014
# Velocity P-wave (km/s) = 5.07389 6.36077 5.75342
#
# Compressibility (1/GPa) = 0.04495262
#
# Stress axis : x y z
#
# Youngs Moduli (GPa) = 43.13532 104.10124 49.22093
#
# Poissons Ratio (x) = 0.51674 -0.13994
# Poissons Ratio (y) = 0.21412 0.09626
# Poissons Ratio (z) = -0.12264 0.20359
#
# Static dielectric constant tensor:
#      x y z
#    x 1.922830 0.000000 -0.035920 
#    y 0.000000 1.809820 0.000000 
#    z -0.035920 0.000000 1.869130 
# 
# From -- ./inp_files/24462.got.cif
#   From: 2010.05.17/outbox.cif.g08.bks.cpg/sg15_13_cif.got.tgz:24462.got - 2010.06.03 18:47:42.
