data_PCOD9287924
_publ_section_title
;
Structure prediction by ZEFSAII (Michael W. Deem and Ramdas Pophale) SiO2 
 PCOD9287924
Probable space group: C 2/C
;
_chemical_formula_sum "Si O2"
_cell_formula_units_Z 44
_cell_length_a 11.609750
_cell_length_b 21.132717
_cell_length_c 8.463860
_cell_angle_alpha 90.000000
_cell_angle_beta 75.969051
_cell_angle_gamma 90.000000
_cell_volume 2014.615810
_symmetry_space_group_name_H-M "C 2/C"
_symmetry_group_IT_number 15
_symmetry_cell_setting 'monoclinic'
loop_
_space_group_symop_operation_xyz
x,y,z
-x,y,1/2-z
-x,-y,-z
x,-y,1/2+z
1/2+x,1/2+y,z
1/2-x,1/2+y,1/2-z
1/2-x,1/2-y,-z
1/2+x,1/2-y,1/2+z
loop_
_atom_site_type_symbol
_atom_site_label
_atom_site_fract_x
_atom_site_fract_y
_atom_site_fract_z
Si Si1 0.411551 0.308291 0.510092
Si Si2 0.342339 0.650037 0.684537
Si Si3 0.866602 0.079238 0.226869
Si Si4 0.242233 0.025490 0.927020
Si Si5 0.500000 0.936106 0.250000
Si Si6 0.595901 0.187051 0.829608
O O1 0.551326 0.324308 0.455731
O O2 0.365922 0.334060 0.358462
O O3 0.357869 0.348315 0.672543
O O4 0.389070 0.233648 0.530253
O O5 0.323161 0.575938 0.665346
O O6 0.215716 0.680376 0.691305
O O7 0.779651 0.054503 0.392817
O O8 0.000000 0.067924 0.250000
O O9 0.827309 0.038854 0.086198
O O10 0.383328 0.025944 0.842240
O O11 0.454118 0.884535 0.133218
O O12 0.500000 0.220043 0.750000
#
# Coordination Sequence:
#
# PCOD9287924 Si02
#       6
#     8   8   8   8   4   8
#     4  11  22  37  60  93 122 158 203 250 311 362
#     4  10  22  38  60  87 126 161 199 256 302 360
#     4  12  24  37  62  93 124 157 202 256 314 362
#     4  11  23  41  61  88 123 165 205 255 301 364
#     4   8  22  42  62  86 118 168 206 244 302 354
#     4   9  20  38  61  87 120 159 203 249 297 361
#
# _framework density 21.840394
#
# number of rings (size 3 to 8) (size 9 to 14) (size 15 to 20)
#    0.545    1.091    1.818    2.727    2.545    2.909 
#    0.000    0.000    0.000    2.182    0.000    0.000 
#    0.000    0.000    0.000    0.000    0.000    0.000 
#
# Total GULP energy -122656.952274 kJ/mol
# GULP energy per Si atom -5575.316012 kJ/mol
# Density = 2.179068 g / cm^3
# Si number density = 21.840394 Si / 1000 Ang^3
#
#
#
# Elastic Constant Matrix: (Units=GPa)
#
#
# Indices 1 2 3 4 5 6 
#
# 1 63.0099 14.3218 8.0983 0.0000 -21.0613 0.0000
# 2 14.3218 56.9642 -2.1356 0.0000 -1.9592 0.0000
# 3 8.0983 -2.1356 54.5588 0.0000 5.8662 0.0000
# 4 0.0000 0.0000 0.0000 -0.7823 0.0000 -40.1916
# 5 -21.0613 -1.9592 5.8662 0.0000 26.3523 0.0000
# 6 0.0000 0.0000 0.0000 -40.1916 0.0000 -48.6631
#
#
#
# Elastic Compliance Matrix: (Units=1/GPa)
#
#
# Indices 1 2 3 4 5 6 
#
# 1 0.024966 -0.005790 -0.006179 0.000000 0.020899 0.000000
# 2 -0.005790 0.018959 0.001995 0.000000 -0.003662 0.000000
# 3 -0.006179 0.001995 0.020326 0.000000 -0.009315 0.000000
# 4 0.000000 0.000000 0.000000 0.030852 0.000000 -0.025481
# 5 0.020899 -0.003662 -0.009315 0.000000 0.056451 0.000000
# 6 0.000000 0.000000 0.000000 -0.025481 0.000000 0.000496
#
#
# Mechanical properties :
#
#
# Convention : Reuss Voigt Hill
#
# Bulk Modulus (GPa) = 22.57168 23.90020 23.23594
# Shear Modulus (GPa) = 26.77139 5.66461 16.21800
#
# Velocity S-wave (km/s) = 3.50490 1.61222 2.72797
# Velocity P-wave (km/s) = 5.17073 3.79902 4.53701
#
# Compressibility (1/GPa) = 0.04430330
#
# Stress axis : x y z
#
# Youngs Moduli (GPa) = 40.05426 52.74431 49.19866
#
# Poissons Ratio (x) = 0.30538 0.30402
# Poissons Ratio (y) = 0.23191 -0.09816
# Poissons Ratio (z) = 0.24751 -0.10524
#
# Static dielectric constant tensor:
#      x y z
#    x 1.844230 0.000000 0.027540 
#    y 0.000000 1.811400 0.000000 
#    z 0.027540 0.000000 1.817800 
# 
# From -- ./inp_files/31826.got.cif
#   From: 2010.05.17/outbox.cif.g08.bks.cpg/sg15_16_cif.got.tgz:31826.got - 2010.06.03 18:47:42.
