data_PCOD9287219
_publ_section_title
;
Structure prediction by ZEFSAII (Michael W. Deem and Ramdas Pophale) SiO2 
 PCOD9287219
Probable space group: C 2/C
;
_chemical_formula_sum "Si O2"
_cell_formula_units_Z 60
_cell_length_a 18.977547
_cell_length_b 5.822430
_cell_length_c 24.105491
_cell_angle_alpha 90.000000
_cell_angle_beta 78.663217
_cell_angle_gamma 90.000000
_cell_volume 2611.577448
_symmetry_space_group_name_H-M "C 2/C"
_symmetry_group_IT_number 15
_symmetry_cell_setting 'monoclinic'
loop_
_space_group_symop_operation_xyz
x,y,z
-x,y,1/2-z
-x,-y,-z
x,-y,1/2+z
1/2+x,1/2+y,z
1/2-x,1/2+y,1/2-z
1/2-x,1/2-y,-z
1/2+x,1/2-y,1/2+z
loop_
_atom_site_type_symbol
_atom_site_label
_atom_site_fract_x
_atom_site_fract_y
_atom_site_fract_z
Si Si1 0.279715 0.502016 0.018970
Si Si2 0.960212 0.244872 0.147069
Si Si3 0.901054 0.994752 0.923745
Si Si4 0.061807 0.359339 0.659604
Si Si5 0.692761 0.854210 0.338165
Si Si6 0.815045 0.503332 0.281554
Si Si7 0.769476 0.773045 0.878648
Si Si8 0.000000 0.011777 0.250000
O O1 0.259037 0.453830 0.085771
O O2 0.250000 0.250000 0.000000
O O3 0.363800 0.494278 0.989387
O O4 0.250000 0.750000 0.000000
O O5 0.880754 0.223922 0.135494
O O6 0.957012 0.152042 0.210861
O O7 0.020844 0.112485 0.101076
O O8 0.993093 0.498963 0.150617
O O9 0.843212 0.858376 0.894757
O O10 0.902067 0.253212 0.900197
O O11 0.115208 0.499186 0.689899
O O12 0.045974 0.149162 0.703081
O O13 0.669022 0.987579 0.285295
O O14 0.714251 0.016477 0.385983
O O15 0.762316 0.711001 0.307112
O O16 0.777338 0.278016 0.312281
#
# Coordination Sequence:
#
# PCOD9287219 Si02
#       8
#     8   8   8   8   8   8   8   4
#     4  10  23  42  74 107 133 173 238 299 343 399
#     4  11  24  39  60  93 133 174 222 281 347 409
#     4  10  22  41  67  97 125 173 229 287 337 407
#     4  11  21  38  64  87 126 171 231 274 333 404
#     4  12  26  38  59  96 136 179 217 277 348 416
#     4  12  23  38  62  90 134 175 224 271 336 413
#     4  11  23  42  65  97 133 172 225 283 340 409
#     4  10  22  34  58  86 124 170 230 268 334 406
#
# _framework density 22.974620000000002
#
# number of rings (size 3 to 8) (size 9 to 14) (size 15 to 20)
#    0.000    1.067    4.000    2.800    7.467    2.133 
#    0.000    0.667    0.000    1.600    0.000    0.000 
#    0.000    0.000    0.000    0.000    0.000    0.000 
#
# Total GULP energy -167250.377247 kJ/mol
# GULP energy per Si atom -5575.012575 kJ/mol
# Density = 2.292233 g / cm^3
# Si number density = 22.974620 Si / 1000 Ang^3
#
#
#
# Elastic Constant Matrix: (Units=GPa)
#
#
# Indices 1 2 3 4 5 6 
#
# 1 77.9417 10.6131 16.6444 0.0000 -11.9544 0.0000
# 2 10.6131 64.1152 9.6262 0.0000 0.0568 0.0000
# 3 16.6444 9.6262 61.3276 0.0000 -17.2117 0.0000
# 4 0.0000 0.0000 0.0000 38.1699 0.0000 -7.0992
# 5 -11.9544 0.0568 -17.2117 0.0000 24.8199 0.0000
# 6 0.0000 0.0000 0.0000 -7.0992 0.0000 28.8839
#
#
#
# Elastic Compliance Matrix: (Units=1/GPa)
#
#
# Indices 1 2 3 4 5 6 
#
# 1 0.014395 -0.002083 -0.002027 0.000000 0.005532 0.000000
# 2 -0.002083 0.016373 -0.002852 0.000000 -0.003018 0.000000
# 3 -0.002027 -0.002852 0.021147 0.000000 0.013695 0.000000
# 4 0.000000 0.000000 0.000000 0.027454 0.000000 0.006748
# 5 0.005532 -0.003018 0.013695 0.000000 0.052459 0.000000
# 6 0.000000 0.000000 0.000000 0.006748 0.000000 0.036280
#
#
# Mechanical properties :
#
#
# Convention : Reuss Voigt Hill
#
# Bulk Modulus (GPa) = 26.32228 30.79465 28.55846
# Shear Modulus (GPa) = 25.68121 29.47481 27.57801
#
# Velocity S-wave (km/s) = 3.34699 3.58569 3.46839
# Velocity P-wave (km/s) = 5.13989 5.52953 5.33827
#
# Compressibility (1/GPa) = 0.03799063
#
# Stress axis : x y z
#
# Youngs Moduli (GPa) = 69.46749 61.07770 47.28773
#
# Poissons Ratio (x) = 0.12725 0.09586
# Poissons Ratio (y) = 0.14473 0.13484
# Poissons Ratio (z) = 0.14083 0.17417
#
# Static dielectric constant tensor:
#      x y z
#    x 1.878900 0.000000 -0.026960 
#    y 0.000000 2.012910 0.000000 
#    z -0.026960 0.000000 1.959240 
# 
# From -- ./inp_files/299906.got.cif
#   From: 2010.05.17/outbox.cif.g08.bks.cpg/sg15_150_cif.got.tgz:299906.got - 2010.06.03 18:47:42.
