data_PCOD9287223
_publ_section_title
;
Structure prediction by ZEFSAII (Michael W. Deem and Ramdas Pophale) SiO2 
 PCOD9287223
Probable space group: C 2/C
;
_chemical_formula_sum "Si O2"
_cell_formula_units_Z 44
_cell_length_a 28.564145
_cell_length_b 9.561410
_cell_length_c 8.725664
_cell_angle_alpha 90.000000
_cell_angle_beta 113.016990
_cell_angle_gamma 90.000000
_cell_volume 2193.375820
_symmetry_space_group_name_H-M "C 2/C"
_symmetry_group_IT_number 15
_symmetry_cell_setting 'monoclinic'
loop_
_space_group_symop_operation_xyz
x,y,z
-x,y,1/2-z
-x,-y,-z
x,-y,1/2+z
1/2+x,1/2+y,z
1/2-x,1/2+y,1/2-z
1/2-x,1/2-y,-z
1/2+x,1/2-y,1/2+z
loop_
_atom_site_type_symbol
_atom_site_label
_atom_site_fract_x
_atom_site_fract_y
_atom_site_fract_z
Si Si1 0.704081 0.843630 0.375429
Si Si2 0.706403 0.847507 0.014673
Si Si3 0.623149 0.647067 0.401952
Si Si4 0.500000 0.296421 0.750000
Si Si5 0.014664 0.154346 0.589204
Si Si6 0.366393 0.646469 0.738555
O O1 0.750000 0.750000 0.500000
O O2 0.649265 0.775563 0.347327
O O3 0.708539 0.997194 0.451946
O O4 0.709197 0.850620 0.199995
O O5 0.656595 0.767891 0.892561
O O6 0.750000 0.750000 0.000000
O O7 0.560545 0.646240 0.330516
O O8 0.648477 0.649632 0.602729
O O9 0.641535 0.505753 0.343436
O O10 0.502211 0.244570 0.573928
O O11 0.074076 0.167265 0.677628
O O12 0.000000 0.166373 0.750000
O O13 0.000000 0.000000 0.500000
#
# Coordination Sequence:
#
# PCOD9287223 Si02
#       6
#     8   8   8   4   8   8
#     4  12  26  46  71  95 131 176 220 280 341 409
#     4  12  26  46  69  97 134 168 224 278 341 408
#     4  11  22  38  64  96 136 172 228 267 341 388
#     4  10  22  34  58  92 134 176 218 282 316 400
#     4  11  18  31  55  87 130 165 222 264 325 376
#     4  11  22  36  63  98 132 176 218 278 328 395
#
# _framework density 20.060403000000001
#
# number of rings (size 3 to 8) (size 9 to 14) (size 15 to 20)
#    0.000    0.727    2.727    6.545    2.545    0.000 
#    0.000    0.000    2.000    3.273    0.000    0.000 
#    0.000    0.000    0.000    0.000    0.000    0.000 
#
# Total GULP energy -122467.710978 kJ/mol
# GULP energy per Si atom -5566.714135 kJ/mol
# Density = 2.001474 g / cm^3
# Si number density = 20.060403 Si / 1000 Ang^3
#
#
#
# Elastic Constant Matrix: (Units=GPa)
#
#
# Indices 1 2 3 4 5 6 
#
# 1 96.5191 55.1534 61.5663 0.0000 -15.3076 0.0000
# 2 55.1534 135.7991 71.5979 0.0000 -1.4653 0.0000
# 3 61.5663 71.5979 211.1682 0.0000 -38.4075 0.0000
# 4 0.0000 0.0000 0.0000 7.6630 0.0000 -36.6811
# 5 -15.3076 -1.4653 -38.4075 0.0000 59.7230 0.0000
# 6 0.0000 0.0000 0.0000 -36.6811 0.0000 -21.7916
#
#
#
# Elastic Compliance Matrix: (Units=1/GPa)
#
#
# Indices 1 2 3 4 5 6 
#
# 1 0.014949 -0.004825 -0.002318 0.000000 0.002222 0.000000
# 2 -0.004825 0.010733 -0.002728 0.000000 -0.002728 0.000000
# 3 -0.002318 -0.002728 0.007040 0.000000 0.003866 0.000000
# 4 0.000000 0.000000 0.000000 0.014408 0.000000 -0.024252
# 5 0.002222 -0.002728 0.003866 0.000000 0.019733 0.000000
# 6 0.000000 0.000000 0.000000 -0.024252 0.000000 -0.005066
#
#
# Mechanical properties :
#
#
# Convention : Reuss Voigt Hill
#
# Bulk Modulus (GPa) = 77.05441 91.12462 84.08951
# Shear Modulus (GPa) = 58.23112 26.13012 42.18062
#
# Velocity S-wave (km/s) = 5.39360 3.61303 4.59047
# Velocity P-wave (km/s) = 8.79104 7.93278 8.37292
#
# Compressibility (1/GPa) = 0.01297784
#
# Stress axis : x y z
#
# Youngs Moduli (GPa) = 66.89395 93.17453 142.05267
#
# Poissons Ratio (x) = 0.44958 0.32930
# Poissons Ratio (y) = 0.32278 0.38757
# Poissons Ratio (z) = 0.15507 0.25421
#
# Static dielectric constant tensor:
#      x y z
#    x 1.760720 0.000000 -0.045240 
#    y 0.000000 1.517280 0.000000 
#    z -0.045240 0.000000 1.783990 
# 
# From -- ./inp_files/68667.got.cif
#   From: 2010.05.17/outbox.cif.g08.bks.cpg/sg15_35_cif.got.tgz:68667.got - 2010.06.03 18:47:42.
