data_PCOD9287802
_publ_section_title
;
Structure prediction by ZEFSAII (Michael W. Deem and Ramdas Pophale) SiO2 
 PCOD9287802
Probable space group: C 2/C
;
_chemical_formula_sum "Si O2"
_cell_formula_units_Z 56
_cell_length_a 24.020984
_cell_length_b 19.560248
_cell_length_c 13.578592
_cell_angle_alpha 90.000000
_cell_angle_beta 24.179241
_cell_angle_gamma 90.000000
_cell_volume 2613.195621
_symmetry_space_group_name_H-M "C 2/C"
_symmetry_group_IT_number 15
_symmetry_cell_setting 'monoclinic'
loop_
_space_group_symop_operation_xyz
x,y,z
-x,y,1/2-z
-x,-y,-z
x,-y,1/2+z
1/2+x,1/2+y,z
1/2-x,1/2+y,1/2-z
1/2-x,1/2-y,-z
1/2+x,1/2-y,1/2+z
loop_
_atom_site_type_symbol
_atom_site_label
_atom_site_fract_x
_atom_site_fract_y
_atom_site_fract_z
Si Si1 0.422650 0.934777 0.553639
Si Si2 0.173486 0.068948 0.757681
Si Si3 0.336036 0.163656 0.038169
Si Si4 0.540730 0.475584 0.293428
Si Si5 0.654530 0.320544 0.457623
Si Si6 0.956153 0.564950 0.220341
Si Si7 0.240038 0.401668 0.033725
O O1 0.326278 0.890239 0.641707
O O2 0.402772 0.912752 0.699066
O O3 0.583516 0.923041 0.279434
O O4 0.424533 0.013226 0.510340
O O5 0.174439 0.134269 0.827652
O O6 0.317033 0.037536 0.493174
O O7 0.093273 0.081006 0.784714
O O8 0.090147 0.011526 0.949080
O O9 0.310655 0.241182 0.111097
O O10 0.500000 0.162047 0.750000
O O11 0.244547 0.139637 0.093656
O O12 0.500000 0.454598 0.250000
O O13 0.655621 0.536497 0.111092
O O14 0.745959 0.351203 0.396789
O O15 0.500000 0.326678 0.750000
O O16 0.000000 0.605756 0.250000
#
# Coordination Sequence:
#
# PCOD9287802 Si02
#       7
#     8   8   8   8   8   8   8
#     4  10  22  38  56  88 117 148 195 250 295 342
#     4  11  22  37  57  87 119 157 191 239 295 364
#     4   9  21  36  60  87 118 150 197 253 294 341
#     4  11  22  37  58  85 122 155 189 241 299 353
#     4  11  20  37  59  88 118 156 196 240 296 354
#     4  11  22  36  61  86 116 154 192 242 299 351
#     4  11  17  37  59  88 114 147 195 245 297 345
#
# _framework density 21.429701000000001
#
# number of rings (size 3 to 8) (size 9 to 14) (size 15 to 20)
#    0.000    1.429    4.286    2.571    0.000    0.000 
#    2.571    0.714    0.000    0.857    0.000    0.000 
#    0.000    0.000    0.000    0.000    0.000    0.000 
#
# Total GULP energy -155886.035461 kJ/mol
# GULP energy per Si atom -5567.358409 kJ/mol
# Density = 2.138093 g / cm^3
# Si number density = 21.429701 Si / 1000 Ang^3
#
#
#
# Elastic Constant Matrix: (Units=GPa)
#
#
# Indices 1 2 3 4 5 6 
#
# 1 216.4308 69.2041 0.8015 0.0009 39.0476 -0.0001
# 2 69.2041 79.2805 -5.9525 0.0027 15.7174 -0.0011
# 3 0.8015 -5.9525 61.5039 0.0041 9.7619 -0.0018
# 4 0.0009 0.0027 0.0041 7.8728 -0.0017 3.5191
# 5 39.0476 15.7174 9.7619 -0.0017 30.2298 0.0005
# 6 -0.0001 -0.0011 -0.0018 3.5191 0.0005 19.9949
#
#
#
# Elastic Compliance Matrix: (Units=1/GPa)
#
#
# Indices 1 2 3 4 5 6 
#
# 1 0.007573 -0.005120 0.000565 -0.000001 -0.007302 0.000000
# 2 -0.005120 0.017950 0.002356 -0.000009 -0.003479 0.000003
# 3 0.000565 0.002356 0.017697 -0.000014 -0.007669 0.000004
# 4 -0.000001 -0.000009 -0.000014 0.137866 0.000018 -0.024264
# 5 -0.007302 -0.003479 -0.007669 0.000018 0.046798 -0.000005
# 6 0.000000 0.000003 0.000004 -0.024264 -0.000005 0.054283
#
#
# Mechanical properties :
#
#
# Convention : Reuss Voigt Hill
#
# Bulk Modulus (GPa) = 25.75934 53.92462 39.84198
# Shear Modulus (GPa) = 16.69413 31.16363 23.92888
#
# Velocity S-wave (km/s) = 2.79412 3.81757 3.34521
# Velocity P-wave (km/s) = 4.73877 6.68206 5.79249
#
# Compressibility (1/GPa) = 0.03882088
#
# Stress axis : x y z
#
# Youngs Moduli (GPa) = 132.04773 55.71092 56.50646
#
# Poissons Ratio (x) = 0.28527 -0.03191
# Poissons Ratio (y) = 0.67615 -0.13314
# Poissons Ratio (z) = -0.07457 -0.13127
#
# Static dielectric constant tensor:
#      x y z
#    x 1.882130 0.000000 -0.014600 
#    y 0.000000 1.806590 0.000000 
#    z -0.014600 0.000000 1.843010 
# 
# From -- ./inp_files/114684.got.cif
#   From: 2010.05.17/outbox.cif.g08.bks.cpg/sg15_58_cif.got.tgz:114684.got - 2010.06.03 18:47:42.
