data_PCOD9287041
_publ_section_title
;
Structure prediction by ZEFSAII (Michael W. Deem and Ramdas Pophale) SiO2 
 PCOD9287041
Probable space group: C 2/C
;
_chemical_formula_sum "Si O2"
_cell_formula_units_Z 44
_cell_length_a 29.264672
_cell_length_b 14.538416
_cell_length_c 14.566699
_cell_angle_alpha 90.000000
_cell_angle_beta 17.313987
_cell_angle_gamma 90.000000
_cell_volume 1844.447990
_symmetry_space_group_name_H-M "C 2/C"
_symmetry_group_IT_number 15
_symmetry_cell_setting 'monoclinic'
loop_
_space_group_symop_operation_xyz
x,y,z
-x,y,1/2-z
-x,-y,-z
x,-y,1/2+z
1/2+x,1/2+y,z
1/2-x,1/2+y,1/2-z
1/2-x,1/2-y,-z
1/2+x,1/2-y,1/2+z
loop_
_atom_site_type_symbol
_atom_site_label
_atom_site_fract_x
_atom_site_fract_y
_atom_site_fract_z
Si Si1 0.846683 0.658014 0.782536
Si Si2 0.000000 0.705588 0.750000
Si Si3 0.269461 0.588074 0.307892
Si Si4 0.330823 0.074610 0.612423
Si Si5 0.570995 0.314254 0.298981
Si Si6 0.182311 0.207232 0.765971
O O1 0.814328 0.598499 0.751717
O O2 0.004017 0.711921 0.453575
O O3 0.750000 0.750000 0.000000
O O4 0.820285 0.590220 0.920521
O O5 0.154171 0.649937 0.469052
O O6 0.022703 0.767076 0.618025
O O7 0.281108 0.497953 0.222711
O O8 0.435847 0.630730 0.009812
O O9 0.289654 0.166733 0.637769
O O10 0.500000 0.046996 0.250000
O O11 0.633969 0.355981 0.273237
O O12 0.722448 0.294438 0.951515
#
# Coordination Sequence:
#
# PCOD9287041 Si02
#       6
#     8   4   8   8   8   8
#     4  10  21  45  77 103 140 200 251 303 361 452
#     4  12  24  42  76 106 138 196 248 300 368 444
#     4  11  25  45  71 106 149 190 242 312 384 430
#     4  12  25  44  71 110 150 191 245 311 378 440
#     4  10  22  45  74 102 142 193 249 303 358 448
#     4  11  24  42  73 108 136 194 259 294 362 442
#
# _framework density 23.855376
#
# number of rings (size 3 to 8) (size 9 to 14) (size 15 to 20)
#    0.000    1.091    4.545    2.182    2.545    1.455 
#    6.545    1.818    0.000    0.000    0.000    0.000 
#    0.000    0.000    0.000    0.000    0.000    0.000 
#
# Total GULP energy -122597.893001 kJ/mol
# GULP energy per Si atom -5572.631500 kJ/mol
# Density = 2.380108 g / cm^3
# Si number density = 23.855376 Si / 1000 Ang^3
#
#
#
# Elastic Constant Matrix: (Units=GPa)
#
#
# Indices 1 2 3 4 5 6 
#
# 1 182.0895 47.6590 44.0010 0.0000 13.7571 0.0000
# 2 47.6590 40.7998 20.2144 0.0001 15.9987 0.0000
# 3 44.0010 20.2144 89.3770 0.0001 0.3950 0.0000
# 4 0.0000 0.0001 0.0001 2.7663 0.0001 -4.8567
# 5 13.7571 15.9987 0.3950 0.0001 38.3335 0.0000
# 6 0.0000 0.0000 0.0000 -4.8567 0.0000 48.5573
#
#
#
# Elastic Compliance Matrix: (Units=1/GPa)
#
#
# Indices 1 2 3 4 5 6 
#
# 1 0.008272 -0.008957 -0.002050 0.000000 0.000791 0.000000
# 2 -0.008957 0.043454 -0.005353 -0.000001 -0.014866 0.000000
# 3 -0.002050 -0.005353 0.013396 0.000000 0.002832 0.000000
# 4 0.000000 -0.000001 0.000000 0.438487 -0.000001 0.043858
# 5 0.000791 -0.014866 0.002832 -0.000001 0.031978 0.000000
# 6 0.000000 0.000000 0.000000 0.043858 0.000000 0.024981
#
#
# Mechanical properties :
#
#
# Convention : Reuss Voigt Hill
#
# Bulk Modulus (GPa) = 30.86180 59.55722 45.20951
# Shear Modulus (GPa) = 8.27695 31.29089 19.78392
#
# Velocity S-wave (km/s) = 1.86472 3.62566 2.88293
# Velocity P-wave (km/s) = 4.19540 6.52283 5.48401
#
# Compressibility (1/GPa) = 0.03240252
#
# Stress axis : x y z
#
# Youngs Moduli (GPa) = 120.89392 23.01289 74.64969
#
# Poissons Ratio (x) = 0.20612 0.15303
# Poissons Ratio (y) = 1.08281 0.39958
# Poissons Ratio (z) = 0.24783 0.12318
#
# Static dielectric constant tensor:
#      x y z
#    x 1.969620 0.000000 0.003110 
#    y 0.000000 2.066260 0.000000 
#    z 0.003110 0.000000 2.006330 
# 
# From -- ./inp_files/182225.got.cif
#   From: 2010.05.17/outbox.cif.g08.bks.cpg/sg15_92_cif.got.tgz:182225.got - 2010.06.03 18:47:42.
