data_PCOD9287538
_publ_section_title
;
Structure prediction by ZEFSAII (Michael W. Deem and Ramdas Pophale) SiO2 
 PCOD9287538
Probable space group: C 2/C
;
_chemical_formula_sum "Si O2"
_cell_formula_units_Z 48
_cell_length_a 13.579480
_cell_length_b 17.269083
_cell_length_c 18.582547
_cell_angle_alpha 90.000000
_cell_angle_beta 150.054921
_cell_angle_gamma 90.000000
_cell_volume 2175.233182
_symmetry_space_group_name_H-M "C 2/C"
_symmetry_group_IT_number 15
_symmetry_cell_setting 'monoclinic'
loop_
_space_group_symop_operation_xyz
x,y,z
-x,y,1/2-z
-x,-y,-z
x,-y,1/2+z
1/2+x,1/2+y,z
1/2-x,1/2+y,1/2-z
1/2-x,1/2-y,-z
1/2+x,1/2-y,1/2+z
loop_
_atom_site_type_symbol
_atom_site_label
_atom_site_fract_x
_atom_site_fract_y
_atom_site_fract_z
Si Si1 0.302457 0.735143 0.450320
Si Si2 0.201702 0.818354 0.249680
Si Si3 0.862745 0.679638 0.530249
Si Si4 0.500000 0.894302 0.750000
Si Si5 0.000000 0.103008 0.250000
Si Si6 0.935918 0.499016 0.077806
Si Si7 0.816693 0.990794 0.227903
O O1 0.250000 0.750000 0.500000
O O2 0.221596 0.800044 0.346620
O O3 0.537183 0.726611 0.600633
O O4 0.183345 0.660760 0.346485
O O5 0.420047 0.798322 0.359010
O O6 0.131277 0.907506 0.207170
O O7 0.750000 0.750000 0.500000
O O8 0.693835 0.655405 0.366651
O O9 0.914207 0.590890 0.589981
O O10 0.580404 0.945418 0.865650
O O11 0.011298 0.050267 0.184655
O O12 0.149273 0.517222 0.177330
O O13 0.790664 0.515182 0.918457
#
# Coordination Sequence:
#
# PCOD9287538 Si02
#       7
#     8   8   8   4   4   8   8
#     4  12  25  42  66 105 136 185 222 282 357 407
#     4  11  25  43  68  98 138 178 228 278 342 408
#     4  10  24  44  66  93 133 180 226 274 336 410
#     4  12  24  40  70 102 144 168 234 296 346 408
#     4  10  22  36  72  96 114 182 230 268 328 402
#     4   9  21  42  65  99 128 179 221 284 341 398
#     4   9  20  41  69  92 132 173 231 271 336 415
#
# _framework density 22.066600000000001
#
# number of rings (size 3 to 8) (size 9 to 14) (size 15 to 20)
#    0.000    1.667    1.667    2.000    9.333    2.000 
#    3.000    3.333    0.000    0.000    0.000    0.000 
#    0.000    0.000    0.000    0.000    0.000    0.000 
#
# Total GULP energy -133621.823701 kJ/mol
# GULP energy per Si atom -5567.575988 kJ/mol
# Density = 2.201638 g / cm^3
# Si number density = 22.066600 Si / 1000 Ang^3
#
#
#
# Elastic Constant Matrix: (Units=GPa)
#
#
# Indices 1 2 3 4 5 6 
#
# 1 51.1607 25.1626 15.2584 0.0045 27.9255 -0.0062
# 2 25.1626 57.4445 3.1058 0.0099 8.5721 -0.0072
# 3 15.2584 3.1058 88.0372 0.0128 31.9528 -0.0104
# 4 0.0045 0.0099 0.0128 -6.9671 -0.0025 18.2951
# 5 27.9255 8.5721 31.9528 -0.0025 37.8196 0.0005
# 6 -0.0062 -0.0072 -0.0104 18.2951 0.0005 20.9137
#
#
#
# Elastic Compliance Matrix: (Units=1/GPa)
#
#
# Indices 1 2 3 4 5 6 
#
# 1 0.042810 -0.014162 0.004886 0.000017 -0.032528 -0.000004
# 2 -0.014162 0.022794 -0.000389 0.000009 0.005620 -0.000004
# 3 0.004886 -0.000389 0.017023 0.000020 -0.017902 -0.000008
# 4 0.000017 0.000009 0.000020 -0.043532 -0.000035 0.038082
# 5 -0.032528 0.005620 -0.017902 -0.000035 0.064311 0.000013
# 6 -0.000004 -0.000004 -0.000008 0.038082 0.000013 0.014502
#
#
# Mechanical properties :
#
#
# Convention : Reuss Voigt Hill
#
# Bulk Modulus (GPa) = 15.79882 31.52177 23.66030
# Shear Modulus (GPa) = 31.57815 20.56095 26.06955
#
# Velocity S-wave (km/s) = 3.78701 3.05580 3.44088
# Velocity P-wave (km/s) = 5.12807 5.17362 5.15090
#
# Compressibility (1/GPa) = 0.06329588
#
# Stress axis : x y z
#
# Youngs Moduli (GPa) = 23.35920 43.87092 58.74338
#
# Poissons Ratio (x) = 0.62131 -0.28701
# Poissons Ratio (y) = 0.33082 0.02286
# Poissons Ratio (z) = -0.11413 0.01707
#
# Static dielectric constant tensor:
#      x y z
#    x 1.828640 0.000000 0.074420 
#    y 0.000000 1.874090 0.000000 
#    z 0.074420 0.000000 1.845570 
# 
# From -- ./inp_files/244960.got.cif
#   From: 2010.05.17/outbox.cif.g08.bks.cpg/sg15_123_cif.got.tgz:244960.got - 2010.06.03 18:47:42.
