data_PCOD9287340
_publ_section_title
;
Structure prediction by ZEFSAII (Michael W. Deem and Ramdas Pophale) SiO2 
 PCOD9287340
Probable space group: C 2/C
;
_chemical_formula_sum "Si O2"
_cell_formula_units_Z 64
_cell_length_a 21.602526
_cell_length_b 27.710360
_cell_length_c 5.149937
_cell_angle_alpha 90.000000
_cell_angle_beta 92.243640
_cell_angle_gamma 90.000000
_cell_volume 3080.459886
_symmetry_space_group_name_H-M "C 2/C"
_symmetry_group_IT_number 15
_symmetry_cell_setting 'monoclinic'
loop_
_space_group_symop_operation_xyz
x,y,z
-x,y,1/2-z
-x,-y,-z
x,-y,1/2+z
1/2+x,1/2+y,z
1/2-x,1/2+y,1/2-z
1/2-x,1/2-y,-z
1/2+x,1/2-y,1/2+z
loop_
_atom_site_type_symbol
_atom_site_label
_atom_site_fract_x
_atom_site_fract_y
_atom_site_fract_z
Si Si1 0.353286 0.472107 0.158004
Si Si2 0.438432 0.304517 0.068712
Si Si3 0.652886 0.730599 0.585363
Si Si4 0.205840 0.531196 0.617922
Si Si5 0.188483 0.641206 0.707855
Si Si6 0.753667 0.689370 0.268668
Si Si7 0.070025 0.294212 0.246638
Si Si8 0.960186 0.093796 0.477863
O O1 0.365712 0.483342 0.461662
O O2 0.280409 0.461746 0.126148
O O3 0.397147 0.431961 0.046415
O O4 0.500000 0.303572 0.250000
O O5 0.379394 0.308907 0.245054
O O6 0.434533 0.253505 0.928804
O O7 0.443530 0.351538 0.893434
O O8 0.685371 0.706444 0.341417
O O9 0.706522 0.761066 0.734025
O O10 0.600078 0.770028 0.508521
O O11 0.189547 0.507164 0.340271
O O12 0.179817 0.584050 0.676469
O O13 0.234204 0.660458 0.490538
O O14 0.122416 0.668345 0.665614
O O15 0.218146 0.658023 0.986833
O O16 0.000000 0.313846 0.250000
O O17 0.000000 0.071227 0.250000
O O18 0.000000 0.093964 0.750000
#
# Coordination Sequence:
#
# PCOD9287340 Si02
#       8
#     8   8   8   8   8   8   8   8
#     4  10  22  41  63  85 110 147 199 251 304 358
#     4  11  22  38  56  82 125 168 204 244 291 345
#     4  10  22  36  56  83 126 164 202 249 291 343
#     4  10  22  42  64  90 117 147 188 249 315 367
#     4  11  23  41  64  92 121 159 203 247 302 361
#     4  10  23  37  57  93 121 158 204 245 297 350
#     4  11  22  38  61  87 124 165 207 242 285 355
#     4  11  25  39  56  85 117 157 204 246 300 347
#
# _framework density 20.776116999999999
#
# number of rings (size 3 to 8) (size 9 to 14) (size 15 to 20)
#    0.000    1.500    2.500    1.875    5.250    3.000 
#    0.000    0.000    0.000    0.750    0.000    0.000 
#    0.000    0.000    0.000    0.000    0.000    0.000 
#
# Total GULP energy -178801.270825 kJ/mol
# GULP energy per Si atom -5587.539713 kJ/mol
# Density = 2.072883 g / cm^3
# Si number density = 20.776117 Si / 1000 Ang^3
#
#
#
# Elastic Constant Matrix: (Units=GPa)
#
#
# Indices 1 2 3 4 5 6 
#
# 1 74.2744 22.0174 13.7845 0.0000 -13.3077 0.0000
# 2 22.0174 76.0640 -4.8065 0.0000 -2.0142 0.0000
# 3 13.7845 -4.8065 74.5590 0.0000 -4.8950 0.0000
# 4 0.0000 0.0000 0.0000 17.7618 0.0000 3.5866
# 5 -13.3077 -2.0142 -4.8950 0.0000 23.3870 0.0000
# 6 0.0000 0.0000 0.0000 3.5866 0.0000 5.7672
#
#
#
# Elastic Compliance Matrix: (Units=1/GPa)
#
#
# Indices 1 2 3 4 5 6 
#
# 1 0.016993 -0.004872 -0.002888 0.000000 0.008645 0.000000
# 2 -0.004872 0.014639 0.001770 0.000000 -0.001141 0.000000
# 3 -0.002888 0.001770 0.014157 0.000000 0.001472 0.000000
# 4 0.000000 0.000000 0.000000 0.064386 0.000000 -0.040041
# 5 0.008645 -0.001141 0.001472 0.000000 0.047888 0.000000
# 6 0.000000 0.000000 0.000000 -0.040041 0.000000 0.198294
#
#
# Mechanical properties :
#
#
# Convention : Reuss Voigt Hill
#
# Bulk Modulus (GPa) = 29.57995 31.87646 30.72820
# Shear Modulus (GPa) = 13.17150 22.31000 17.74075
#
# Velocity S-wave (km/s) = 2.52061 3.28049 2.92533
# Velocity P-wave (km/s) = 4.76862 5.45206 5.12175
#
# Compressibility (1/GPa) = 0.03380669
#
# Stress axis : x y z
#
# Youngs Moduli (GPa) = 58.84831 68.31181 70.63698
#
# Poissons Ratio (x) = 0.33284 0.20401
# Poissons Ratio (y) = 0.28673 -0.12500
# Poissons Ratio (z) = 0.16996 -0.12088
#
# Static dielectric constant tensor:
#      x y z
#    x 1.753320 0.000000 0.008700 
#    y 0.000000 1.746230 0.000000 
#    z 0.008700 0.000000 1.818110 
# 
# From -- ./inp_files/14287.got.cif
#   From: 2010.05.17/outbox.cif.g08.bks.cpg/sg15_8_cif.got.tgz:14287.got - 2010.06.03 18:47:42.
