data_PCOD9287841
_publ_section_title
;
Structure prediction by ZEFSAII (Michael W. Deem and Ramdas Pophale) SiO2 
 PCOD9287841
Probable space group: C 2/C
;
_chemical_formula_sum "Si O2"
_cell_formula_units_Z 40
_cell_length_a 14.431443
_cell_length_b 23.910540
_cell_length_c 5.202996
_cell_angle_alpha 90.000000
_cell_angle_beta 102.170503
_cell_angle_gamma 90.000000
_cell_volume 1755.012896
_symmetry_space_group_name_H-M "C 2/C"
_symmetry_group_IT_number 15
_symmetry_cell_setting 'monoclinic'
loop_
_space_group_symop_operation_xyz
x,y,z
-x,y,1/2-z
-x,-y,-z
x,-y,1/2+z
1/2+x,1/2+y,z
1/2-x,1/2+y,1/2-z
1/2-x,1/2-y,-z
1/2+x,1/2-y,1/2+z
loop_
_atom_site_type_symbol
_atom_site_label
_atom_site_fract_x
_atom_site_fract_y
_atom_site_fract_z
Si Si1 0.395987 0.185025 0.634301
Si Si2 0.254929 0.522604 0.396442
Si Si3 0.394543 0.259299 0.130561
Si Si4 0.280547 0.635695 0.711660
Si Si5 0.065756 0.060013 0.535443
O O1 0.500000 0.159808 0.750000
O O2 0.384795 0.210397 0.341890
O O3 0.311479 0.144908 0.670000
O O4 0.392326 0.235231 0.842114
O O5 0.206599 0.487881 0.596708
O O6 0.266063 0.586219 0.494122
O O7 0.356016 0.489888 0.413422
O O8 0.500000 0.282978 0.250000
O O9 0.314984 0.306046 0.115205
O O10 0.367977 0.614120 0.933471
O O11 0.000000 0.057959 0.250000
O O12 0.000000 0.062210 0.750000
#
# Coordination Sequence:
#
# PCOD9287841 Si02
#       5
#     8   8   8   8   8
#     4  10  23  42  60  83 116 151 194 245 287 327
#     4  10  23  37  54  83 119 152 186 227 277 340
#     4  10  22  38  58  87 118 149 190 238 287 341
#     4  11  23  38  63  86 115 157 195 229 284 347
#     4  11  24  39  56  86 124 154 184 230 286 346
#
# _framework density 22.791854000000001
#
# number of rings (size 3 to 8) (size 9 to 14) (size 15 to 20)
#    0.000    1.600    0.000    4.200    0.000   22.400 
#    0.000    3.000    0.000    4.800    0.000    0.000 
#    0.000    1.600    0.000    0.000    0.000    0.200 
#
# Total GULP energy -111782.744914 kJ/mol
# GULP energy per Si atom -5589.137246 kJ/mol
# Density = 2.273998 g / cm^3
# Si number density = 22.791854 Si / 1000 Ang^3
#
#
#
# Elastic Constant Matrix: (Units=GPa)
#
#
# Indices 1 2 3 4 5 6 
#
# 1 116.2338 34.6868 15.6496 0.0000 -16.9409 0.0000
# 2 34.6868 60.7639 4.2956 0.0000 -4.2983 0.0000
# 3 15.6496 4.2956 99.2343 0.0000 -28.3383 0.0000
# 4 0.0000 0.0000 0.0000 21.4903 0.0000 -7.4142
# 5 -16.9409 -4.2983 -28.3383 0.0000 27.9029 0.0000
# 6 0.0000 0.0000 0.0000 -7.4142 0.0000 33.6400
#
#
#
# Elastic Compliance Matrix: (Units=1/GPa)
#
#
# Indices 1 2 3 4 5 6 
#
# 1 0.011262 -0.006010 0.000243 0.000000 0.006158 0.000000
# 2 -0.006010 0.019846 -0.000113 0.000000 -0.000707 0.000000
# 3 0.000243 -0.000113 0.014199 0.000000 0.014550 0.000000
# 4 0.000000 0.000000 0.000000 0.050362 0.000000 0.011100
# 5 0.006158 -0.000707 0.014550 0.000000 0.054246 0.000000
# 6 0.000000 0.000000 0.000000 0.011100 0.000000 0.032173
#
#
# Mechanical properties :
#
#
# Convention : Reuss Voigt Hill
#
# Bulk Modulus (GPa) = 29.81019 42.83290 36.32154
# Shear Modulus (GPa) = 24.38655 31.37997 27.88326
#
# Velocity S-wave (km/s) = 3.27458 3.71456 3.50149
# Velocity P-wave (km/s) = 5.23497 6.10173 5.68490
#
# Compressibility (1/GPa) = 0.03354558
#
# Stress axis : x y z
#
# Youngs Moduli (GPa) = 88.79556 50.38773 70.42772
#
# Poissons Ratio (x) = 0.30285 -0.01709
# Poissons Ratio (y) = 0.53369 0.00796
# Poissons Ratio (z) = -0.02155 0.00570
#
# Static dielectric constant tensor:
#      x y z
#    x 1.898030 0.000000 0.021670 
#    y 0.000000 1.881180 0.000000 
#    z 0.021670 0.000000 1.958120 
# 
# From -- ./inp_files/7387.got.cif
#   From: 2010.05.17/outbox.cif.g08.bks.cpg/sg15_4_cif.got.tgz:7387.got - 2010.06.03 18:47:42.
