data_PCOD9287172
_publ_section_title
;
Structure prediction by ZEFSAII (Michael W. Deem and Ramdas Pophale) SiO2 
 PCOD9287172
Probable space group: C 2/C
;
_chemical_formula_sum "Si O2"
_cell_formula_units_Z 56
_cell_length_a 12.548308
_cell_length_b 25.392919
_cell_length_c 11.898223
_cell_angle_alpha 90.000000
_cell_angle_beta 38.195715
_cell_angle_gamma 90.000000
_cell_volume 2344.304390
_symmetry_space_group_name_H-M "C 2/C"
_symmetry_group_IT_number 15
_symmetry_cell_setting 'monoclinic'
loop_
_space_group_symop_operation_xyz
x,y,z
-x,y,1/2-z
-x,-y,-z
x,-y,1/2+z
1/2+x,1/2+y,z
1/2-x,1/2+y,1/2-z
1/2-x,1/2-y,-z
1/2+x,1/2-y,1/2+z
loop_
_atom_site_type_symbol
_atom_site_label
_atom_site_fract_x
_atom_site_fract_y
_atom_site_fract_z
Si Si1 0.844979 0.570834 0.967965
Si Si2 0.856252 0.927302 0.197237
Si Si3 0.014084 0.410675 0.898628
Si Si4 0.439473 0.799231 0.587164
Si Si5 0.192261 0.189793 0.826143
Si Si6 0.694498 0.680049 0.078467
Si Si7 0.210501 0.984613 0.940957
O O1 0.752163 0.516520 0.019160
O O2 0.000000 0.577947 0.750000
O O3 0.921802 0.576413 0.027606
O O4 0.709271 0.617105 0.063142
O O5 0.692719 0.918379 0.417078
O O6 0.886977 0.868413 0.121207
O O7 0.806694 0.969368 0.140438
O O8 0.037611 0.950289 0.089845
O O9 0.077436 0.350610 0.819861
O O10 0.126900 0.449478 0.729782
O O11 0.630009 0.808046 0.385515
O O12 0.419532 0.737701 0.631537
O O13 0.308109 0.805919 0.591716
O O14 0.246195 0.198135 0.911697
O O15 0.500000 0.698356 0.250000
#
# Coordination Sequence:
#
# PCOD9287172 Si02
#       7
#     8   8   8   8   8   8   8
#     4  11  21  38  55  84 116 157 203 245 289 356
#     4  10  22  36  56  84 117 154 201 244 284 357
#     4  10  22  40  58  83 120 162 197 241 304 351
#     4  10  22  33  54  74 111 151 195 240 282 351
#     4  11  20  36  50  77 111 149 199 237 283 345
#     4  11  21  32  50  77 112 155 196 235 281 341
#     4  11  22  38  60  81 119 163 195 248 304 345
#
# _framework density 23.887682000000002
#
# number of rings (size 3 to 8) (size 9 to 14) (size 15 to 20)
#    0.000    1.429    2.857    3.857    6.000    0.000 
#    0.000    0.000    0.000    0.000    0.000    0.000 
#    0.000    4.571    0.000    0.000    0.571    0.000 
#
# Total GULP energy -156587.144617 kJ/mol
# GULP energy per Si atom -5592.398022 kJ/mol
# Density = 2.383331 g / cm^3
# Si number density = 23.887682 Si / 1000 Ang^3
#
#
#
# Elastic Constant Matrix: (Units=GPa)
#
#
# Indices 1 2 3 4 5 6 
#
# 1 47.7263 29.5370 30.3161 0.0000 -8.0384 0.0000
# 2 29.5370 193.6865 47.1778 0.0000 -17.0166 0.0000
# 3 30.3161 47.1778 69.5397 0.0000 -25.8791 0.0000
# 4 0.0000 0.0000 0.0000 45.8561 0.0000 -13.2482
# 5 -8.0384 -17.0166 -25.8791 0.0000 25.2520 0.0000
# 6 0.0000 0.0000 0.0000 -13.2482 0.0000 18.0287
#
#
#
# Elastic Compliance Matrix: (Units=1/GPa)
#
#
# Indices 1 2 3 4 5 6 
#
# 1 0.029984 -0.001643 -0.014253 0.000000 -0.006169 0.000000
# 2 -0.001643 0.006276 -0.003495 0.000000 0.000124 0.000000
# 3 -0.014253 -0.003495 0.032977 0.000000 0.026904 0.000000
# 4 0.000000 0.000000 0.000000 0.027685 0.000000 0.020344
# 5 -0.006169 0.000124 0.026904 0.000000 0.065293 0.000000
# 6 0.000000 0.000000 0.000000 0.020344 0.000000 0.070417
#
#
# Mechanical properties :
#
#
# Convention : Reuss Voigt Hill
#
# Bulk Modulus (GPa) = 32.83528 58.33492 45.58510
# Shear Modulus (GPa) = 17.75787 31.42213 24.59000
#
# Velocity S-wave (km/s) = 2.72948 3.63080 3.21191
# Velocity P-wave (km/s) = 4.86918 6.48463 5.73408
#
# Compressibility (1/GPa) = 0.03045504
#
# Stress axis : x y z
#
# Youngs Moduli (GPa) = 33.35107 159.34239 30.32375
#
# Poissons Ratio (x) = 0.26177 0.43220
# Poissons Ratio (y) = 0.05479 0.10599
# Poissons Ratio (z) = 0.47535 0.55696
#
# Static dielectric constant tensor:
#      x y z
#    x 2.002340 0.000000 0.129160 
#    y 0.000000 2.003390 0.000000 
#    z 0.129160 0.000000 2.000730 
# 
# From -- ./inp_files/157196.got.cif
#   From: 2010.05.17/outbox.cif.g08.bks.cpg/sg15_79_cif.got.tgz:157196.got - 2010.06.03 18:47:42.
