data_PCOD9287195
_publ_section_title
;
Structure prediction by ZEFSAII (Michael W. Deem and Ramdas Pophale) SiO2 
 PCOD9287195
Probable space group: C 2/C
;
_chemical_formula_sum "Si O2"
_cell_formula_units_Z 56
_cell_length_a 32.529479
_cell_length_b 13.294791
_cell_length_c 9.470149
_cell_angle_alpha 90.000000
_cell_angle_beta 126.559879
_cell_angle_gamma 90.000000
_cell_volume 3289.712460
_symmetry_space_group_name_H-M "C 2/C"
_symmetry_group_IT_number 15
_symmetry_cell_setting 'monoclinic'
loop_
_space_group_symop_operation_xyz
x,y,z
-x,y,1/2-z
-x,-y,-z
x,-y,1/2+z
1/2+x,1/2+y,z
1/2-x,1/2+y,1/2-z
1/2-x,1/2-y,-z
1/2+x,1/2-y,1/2+z
loop_
_atom_site_type_symbol
_atom_site_label
_atom_site_fract_x
_atom_site_fract_y
_atom_site_fract_z
Si Si1 0.605947 0.880064 0.249942
Si Si2 0.783635 0.904978 0.738679
Si Si3 0.384454 0.881332 0.750550
Si Si4 0.504747 0.106719 0.929300
Si Si5 0.168503 0.304323 0.127181
Si Si6 0.718405 0.608852 0.606614
Si Si7 0.176616 0.681638 0.124442
O O1 0.547778 0.842338 0.126220
O O2 0.643218 0.817682 0.227390
O O3 0.627024 0.865655 0.449487
O O4 0.613104 0.997755 0.227222
O O5 0.817877 0.812497 0.864775
O O6 0.785504 0.905082 0.571266
O O7 0.726021 0.878548 0.671367
O O8 0.797041 0.009955 0.838819
O O9 0.371220 0.851336 0.564145
O O10 0.337102 0.834252 0.740810
O O11 0.440999 0.846277 0.915152
O O12 0.500000 0.093781 0.750000
O O13 0.500000 0.000000 0.000000
O O14 0.222363 0.363712 0.237672
O O15 0.686204 0.704338 0.595923
#
# Coordination Sequence:
#
# PCOD9287195 Si02
#       7
#     8   8   8   8   8   8   8
#     4  11  19  37  56  77 115 150 177 221 274 320
#     4  11  23  38  56  81 111 144 184 226 268 320
#     4  11  23  33  56  85 110 146 184 222 267 330
#     4  10  22  34  51  80 112 144 184 223 271 326
#     4  11  23  37  55  82 112 146 186 219 270 328
#     4  11  23  38  56  80 112 145 182 229 267 318
#     4  11  21  37  56  79 112 148 183 217 274 321
#
# _framework density 17.022763999999999
#
# number of rings (size 3 to 8) (size 9 to 14) (size 15 to 20)
#    0.000    1.143    4.286    3.429   10.000    1.143 
#    0.000    0.000    0.000    0.000    0.000    6.000 
#    0.000    0.000    0.000    0.000    0.000    0.000 
#
# Total GULP energy -156150.588444 kJ/mol
# GULP energy per Si atom -5576.806730 kJ/mol
# Density = 1.698402 g / cm^3
# Si number density = 17.022764 Si / 1000 Ang^3
#
#
#
# Elastic Constant Matrix: (Units=GPa)
#
#
# Indices 1 2 3 4 5 6 
#
# 1 50.4998 32.2435 4.4231 0.0000 10.2254 0.0000
# 2 32.2435 83.3668 10.1810 0.0000 -0.1561 0.0000
# 3 4.4231 10.1810 57.1236 0.0000 5.5094 0.0000
# 4 0.0000 0.0000 0.0000 19.5723 0.0000 -4.6521
# 5 10.2254 -0.1561 5.5094 0.0000 28.1616 0.0000
# 6 0.0000 0.0000 0.0000 -4.6521 0.0000 17.0263
#
#
#
# Elastic Compliance Matrix: (Units=1/GPa)
#
#
# Indices 1 2 3 4 5 6 
#
# 1 0.029215 -0.011419 0.000818 0.000000 -0.010831 0.000000
# 2 -0.011419 0.016733 -0.002555 0.000000 0.004739 0.000000
# 3 0.000818 -0.002555 0.018273 0.000000 -0.003886 0.000000
# 4 0.000000 0.000000 0.000000 0.054641 0.000000 0.014930
# 5 -0.010831 0.004739 -0.003886 0.000000 0.040229 0.000000
# 6 0.000000 0.000000 0.000000 0.014930 0.000000 0.062812
#
#
# Mechanical properties :
#
#
# Convention : Reuss Voigt Hill
#
# Bulk Modulus (GPa) = 26.38056 31.63173 29.00615
# Shear Modulus (GPa) = 19.16802 22.56153 20.86478
#
# Velocity S-wave (km/s) = 3.35927 3.64452 3.50480
# Velocity P-wave (km/s) = 5.52966 6.02763 5.78401
#
# Compressibility (1/GPa) = 0.03790670
#
# Stress axis : x y z
#
# Youngs Moduli (GPa) = 34.22929 59.76303 54.72629
#
# Poissons Ratio (x) = 0.68246 -0.04475
# Poissons Ratio (y) = 0.39088 0.13983
# Poissons Ratio (z) = -0.02799 0.15270
#
# Static dielectric constant tensor:
#      x y z
#    x 1.578340 0.000000 0.012630 
#    y 0.000000 1.555860 0.000000 
#    z 0.012630 0.000000 1.584780 
# 
# From -- ./inp_files/69289.got.cif
#   From: 2010.05.17/outbox.cif.g08.bks.cpg/sg15_35_cif.got.tgz:69289.got - 2010.06.03 18:47:42.
