data_PCOD9287564
_publ_section_title
;
Structure prediction by ZEFSAII (Michael W. Deem and Ramdas Pophale) SiO2 
 PCOD9287564
Probable space group: C 2/C
;
_chemical_formula_sum "Si O2"
_cell_formula_units_Z 64
_cell_length_a 23.386065
_cell_length_b 23.466972
_cell_length_c 17.812216
_cell_angle_alpha 90.000000
_cell_angle_beta 160.284972
_cell_angle_gamma 90.000000
_cell_volume 3297.636732
_symmetry_space_group_name_H-M "C 2/C"
_symmetry_group_IT_number 15
_symmetry_cell_setting 'monoclinic'
loop_
_space_group_symop_operation_xyz
x,y,z
-x,y,1/2-z
-x,-y,-z
x,-y,1/2+z
1/2+x,1/2+y,z
1/2-x,1/2+y,1/2-z
1/2-x,1/2-y,-z
1/2+x,1/2-y,1/2+z
loop_
_atom_site_type_symbol
_atom_site_label
_atom_site_fract_x
_atom_site_fract_y
_atom_site_fract_z
Si Si1 0.646387 0.458456 0.654277
Si Si2 0.338557 0.309655 0.996420
Si Si3 0.499444 0.645679 0.437427
Si Si4 0.517304 0.973918 0.102658
Si Si5 0.340759 0.143255 0.772924
Si Si6 0.672596 0.310170 0.919835
Si Si7 0.494788 0.747120 0.941666
Si Si8 0.324457 0.554364 0.487764
O O1 0.500000 0.500000 0.500000
O O2 0.589011 0.397779 0.615662
O O3 0.648651 0.458687 0.566878
O O4 0.833677 0.476435 0.914749
O O5 0.500000 0.300299 0.250000
O O6 0.396702 0.288687 0.985055
O O7 0.289070 0.376881 0.944827
O O8 0.174915 0.270246 0.808365
O O9 0.675193 0.624455 0.616596
O O10 0.370641 0.657399 0.209856
O O11 0.538680 0.703781 0.530948
O O12 0.543288 0.909072 0.107457
O O13 0.674771 0.010945 0.330988
O O14 0.500000 0.000000 0.000000
O O15 0.285361 0.160883 0.621410
O O16 0.420361 0.196386 0.916545
O O17 0.500000 0.300525 0.750000
O O18 0.750000 0.250000 0.000000
O O19 0.500000 0.545058 0.750000
#
# Coordination Sequence:
#
# PCOD9287564 Si02
#       8
#     8   8   8   8   8   8   8   8
#     4  11  23  41  66  91 126 164 217 269 317 384
#     4  11  24  41  63  94 125 163 212 264 322 377
#     4  11  22  38  60  91 126 166 207 259 315 373
#     4  10  22  41  65  92 121 168 216 255 318 383
#     4  11  23  38  64  91 127 173 209 254 314 384
#     4  10  22  37  56  90 130 163 204 251 302 369
#     4  12  21  38  64  89 126 165 208 257 319 376
#     4  10  22  43  67  91 127 169 215 268 324 381
#
# _framework density 19.407838999999999
#
# number of rings (size 3 to 8) (size 9 to 14) (size 15 to 20)
#    0.000    1.250    3.750    3.375    0.000    3.500 
#    0.000    1.875    0.000    0.000    0.000    0.000 
#    0.000    0.000    0.000    0.000    0.000    0.000 
#
# Total GULP energy -178275.102653 kJ/mol
# GULP energy per Si atom -5571.096958 kJ/mol
# Density = 1.936367 g / cm^3
# Si number density = 19.407839 Si / 1000 Ang^3
#
#
#
# Elastic Constant Matrix: (Units=GPa)
#
#
# Indices 1 2 3 4 5 6 
#
# 1 62.9397 33.3301 27.2005 0.0000 0.9421 0.0000
# 2 33.3301 86.6980 56.1534 0.0000 19.4017 0.0000
# 3 27.2005 56.1534 105.4412 0.0000 1.1540 0.0000
# 4 0.0000 0.0000 0.0000 58.2656 0.0000 -0.1957
# 5 0.9421 19.4017 1.1540 0.0000 24.0868 0.0000
# 6 0.0000 0.0000 0.0000 -0.1957 0.0000 22.8397
#
#
#
# Elastic Compliance Matrix: (Units=1/GPa)
#
#
# Indices 1 2 3 4 5 6 
#
# 1 0.020868 -0.009084 -0.000617 0.000000 0.006531 0.000000
# 2 -0.009084 0.027690 -0.012169 0.000000 -0.021365 0.000000
# 3 -0.000617 -0.012169 0.016025 0.000000 0.009058 0.000000
# 4 0.000000 0.000000 0.000000 0.017163 0.000000 0.000147
# 5 0.006531 -0.021365 0.009058 0.000000 0.058037 0.000000
# 6 0.000000 0.000000 0.000000 0.000147 0.000000 0.043785
#
#
# Mechanical properties :
#
#
# Convention : Reuss Voigt Hill
#
# Bulk Modulus (GPa) = 47.98066 54.27187 51.12627
# Shear Modulus (GPa) = 21.34433 30.26473 25.80453
#
# Velocity S-wave (km/s) = 3.31989 3.95322 3.65031
# Velocity P-wave (km/s) = 6.28264 6.99012 6.64580
#
# Compressibility (1/GPa) = 0.02084173
#
# Stress axis : x y z
#
# Youngs Moduli (GPa) = 47.92102 36.11452 62.40405
#
# Poissons Ratio (x) = 0.32808 0.03849
# Poissons Ratio (y) = 0.43533 0.75940
# Poissons Ratio (z) = 0.02955 0.43948
#
# Static dielectric constant tensor:
#      x y z
#    x 1.642480 0.000000 0.042540 
#    y 0.000000 1.690970 0.000000 
#    z 0.042540 0.000000 1.690650 
# 
# From -- ./inp_files/220308.got.cif
#   From: 2010.05.17/outbox.cif.g08.bks.cpg/sg15_111_cif.got.tgz:220308.got - 2010.06.03 18:47:42.
