data_PCOD9287108
_publ_section_title
;
Structure prediction by ZEFSAII (Michael W. Deem and Ramdas Pophale) SiO2 
 PCOD9287108
Probable space group: C 2/C
;
_chemical_formula_sum "Si O2"
_cell_formula_units_Z 64
_cell_length_a 14.332825
_cell_length_b 30.386070
_cell_length_c 9.412589
_cell_angle_alpha 90.000000
_cell_angle_beta 50.636462
_cell_angle_gamma 90.000000
_cell_volume 3169.363713
_symmetry_space_group_name_H-M "C 2/C"
_symmetry_group_IT_number 15
_symmetry_cell_setting 'monoclinic'
loop_
_space_group_symop_operation_xyz
x,y,z
-x,y,1/2-z
-x,-y,-z
x,-y,1/2+z
1/2+x,1/2+y,z
1/2-x,1/2+y,1/2-z
1/2-x,1/2-y,-z
1/2+x,1/2-y,1/2+z
loop_
_atom_site_type_symbol
_atom_site_label
_atom_site_fract_x
_atom_site_fract_y
_atom_site_fract_z
Si Si1 0.323741 0.176824 0.244238
Si Si2 0.720792 0.136721 0.920701
Si Si3 0.640927 0.953582 0.610642
Si Si4 0.487029 0.116904 0.598120
Si Si5 0.340881 0.040099 0.088915
Si Si6 0.881812 0.748672 0.956225
Si Si7 0.901625 0.848840 0.015147
Si Si8 0.659768 0.619945 0.220257
O O1 0.317728 0.172331 0.421316
O O2 0.203451 0.156521 0.291275
O O3 0.418743 0.141461 0.093998
O O4 0.357905 0.220604 0.123535
O O5 0.633952 0.128880 0.868070
O O6 0.845346 0.147550 0.724606
O O7 0.716975 0.089581 0.000774
O O8 0.500000 0.939899 0.750000
O O9 0.673506 0.969945 0.733506
O O10 0.659052 0.994663 0.492076
O O11 0.500000 0.130858 0.750000
O O12 0.531963 0.066231 0.554208
O O13 0.235429 0.075067 0.154908
O O14 0.000000 0.732190 0.750000
O O15 0.750000 0.750000 0.000000
O O16 0.922075 0.797526 0.963190
O O17 0.819503 0.862728 0.959555
O O18 0.017504 0.880200 0.886797
#
# Coordination Sequence:
#
# PCOD9287108 Si02
#       8
#     8   8   8   8   8   8   8   8
#     4  11  22  40  67  95 138 173 222 286 343 409
#     4  12  24  41  64 100 141 178 218 281 360 416
#     4  12  23  41  61 102 140 167 222 290 357 411
#     4  11  22  39  63  97 129 178 215 265 343 415
#     4  11  24  38  67  92 132 173 221 287 338 421
#     4  12  24  44  71 108 137 185 244 296 343 419
#     4  11  24  42  72  90 133 185 229 281 341 426
#     4  10  21  47  63  95 128 182 232 271 346 418
#
# _framework density 20.193328999999999
#
# number of rings (size 3 to 8) (size 9 to 14) (size 15 to 20)
#    0.000    0.750    6.250    3.000    5.250    1.000 
#    0.000    0.625    2.750    0.000    0.000    0.000 
#    0.000    0.000    0.000    0.000    0.000    0.000 
#
# Total GULP energy -178373.552461 kJ/mol
# GULP energy per Si atom -5574.173514 kJ/mol
# Density = 2.014737 g / cm^3
# Si number density = 20.193329 Si / 1000 Ang^3
#
#
#
# Elastic Constant Matrix: (Units=GPa)
#
#
# Indices 1 2 3 4 5 6 
#
# 1 62.2565 14.7443 36.0856 0.0000 12.5153 0.0000
# 2 14.7443 75.4600 38.2344 0.0000 7.9161 0.0000
# 3 36.0856 38.2344 160.9246 0.0000 25.5395 0.0000
# 4 0.0000 0.0000 0.0000 25.6642 0.0000 5.0051
# 5 12.5153 7.9161 25.5395 0.0000 35.4702 0.0000
# 6 0.0000 0.0000 0.0000 5.0051 0.0000 25.5479
#
#
#
# Elastic Compliance Matrix: (Units=1/GPa)
#
#
# Indices 1 2 3 4 5 6 
#
# 1 0.019159 -0.001669 -0.003258 0.000000 -0.004042 0.000000
# 2 -0.001669 0.015236 -0.003161 0.000000 -0.000536 0.000000
# 3 -0.003258 -0.003161 0.008356 0.000000 -0.004162 0.000000
# 4 0.000000 0.000000 0.000000 0.040513 0.000000 -0.007937
# 5 -0.004042 -0.000536 -0.004162 0.000000 0.032735 0.000000
# 6 0.000000 0.000000 0.000000 -0.007937 0.000000 0.040697
#
#
# Mechanical properties :
#
#
# Convention : Reuss Voigt Hill
#
# Bulk Modulus (GPa) = 37.62856 52.97441 45.30149
# Shear Modulus (GPa) = 27.51353 31.30825 29.41089
#
# Velocity S-wave (km/s) = 3.69522 3.94182 3.82051
# Velocity P-wave (km/s) = 6.07296 6.85622 6.47644
#
# Compressibility (1/GPa) = 0.02657556
#
# Stress axis : x y z
#
# Youngs Moduli (GPa) = 52.19534 65.63498 119.67233
#
# Poissons Ratio (x) = 0.10952 0.38993
# Poissons Ratio (y) = 0.08709 0.37825
# Poissons Ratio (z) = 0.17007 0.20745
#
# Static dielectric constant tensor:
#      x y z
#    x 1.977570 0.000000 0.007680 
#    y 0.000000 1.728520 0.000000 
#    z 0.007680 0.000000 1.762460 
# 
# From -- ./inp_files/44854.got.cif
#   From: 2010.05.17/outbox.cif.g08.bks.cpg/sg15_23_cif.got.tgz:44854.got - 2010.06.03 18:47:42.
